drugbank_target|P26394 dTDP-4-dehydrorhamnose 3,5-epimerase (DB02549)
 OpenBabel12092119583D

  0  0  0     0  0            999 V3000
M  V30 BEGIN CTAB
M  V30 COUNTS 2896 2932 0 0 0
M  V30 BEGIN ATOM
M  V30 1 H -0.908 1.98254 -0.117106 0
M  V30 2 N 0 1.576 0 0
M  V30 3 C 0.933 2.03868 1.02534 0
M  V30 4 C 1.911 0.928543 1.3348 0
M  V30 5 O 3.095 1.19667 1.45644 0
M  V30 6 C 0.222 2.43627 2.35294 0
M  V30 7 C -0.732 3.65373 2.2001 0
M  V30 8 S 0.101 5.13292 1.52614 0
M  V30 9 C 1.257 5.56322 2.86805 0
M  V30 10 H 1.49 2.90518 0.631377 0
M  V30 11 H -0.977 1.52953 0.210867 0
M  V30 12 H 0.981 2.67203 3.11629 0
M  V30 13 H -0.358 1.57376 2.7183 0
M  V30 14 H -1.165 3.90944 3.18086 0
M  V30 15 H -1.563 3.418 1.51819 0
M  V30 16 H 0.729 5.58782 3.83104 0
M  V30 17 H 1.672 6.56266 2.65933 0
M  V30 18 H 2.08 4.83886 2.90714 0
M  V30 19 N 1.4781 -0.272755 1.55222 0
M  V30 20 C 2.4111 -1.3627 1.83046 0
M  V30 21 C 3.3891 -1.47536 0.683521 0
M  V30 22 O 4.5731 -1.64157 0.926545 0
M  V30 23 C 1.7001 -2.73908 1.99229 0
M  V30 24 C 0.7461 -2.79925 3.21783 0
M  V30 25 S 1.5791 -2.39146 4.79134 0
M  V30 26 C 2.7351 -3.78758 4.9829 0
M  V30 27 H 2.9681 -1.12464 2.75207 0
M  V30 28 H 0.5011 -0.472398 1.46996 0
M  V30 29 H 2.4591 -3.53171 2.09238 0
M  V30 30 H 1.1201 -2.94965 1.07956 0
M  V30 31 H 0.3131 -3.80946 3.29994 0
M  V30 32 H -0.0849 -2.08683 3.10367 0
M  V30 33 H 2.2071 -4.7403 4.84047 0
M  V30 34 H 3.1501 -3.75499 6.00338 0
M  V30 35 H 3.5581 -3.70072 4.26271 0
M  V30 36 N 2.9562 -1.48159 -0.537278 0
M  V30 37 C 4.2052 -1.5506 -1.28993 0
M  V30 38 C 4.5182 -0.226211 -1.94288 0
M  V30 39 O 5.7242 -0.173395 -2.70946 0
M  V30 40 C 4.1802 -2.73429 -2.34018 0
M  V30 41 C 3.7882 -4.1248 -1.74825 0
M  V30 42 C 5.5322 -2.89638 -3.10339 0
M  V30 43 C 3.4392 -5.22121 -2.77747 0
M  V30 44 H 2.3692 -0.577231 -0.485098 0
M  V30 45 H 5.0202 -1.74478 -0.568317 0
M  V30 46 H 3.4022 -2.47431 -3.09182 0
M  V30 47 H 4.5762 -4.48466 -1.05899 0
M  V30 48 H 2.8912 -4.01327 -1.11022 0
M  V30 49 H 5.4882 -3.68718 -3.87235 0
M  V30 50 H 5.8312 -1.9882 -3.65754 0
M  V30 51 H 6.3642 -3.15502 -2.42288 0
M  V30 52 H 3.1032 -6.1488 -2.27161 0
M  V30 53 H 2.6232 -4.90631 -3.45024 0
M  V30 54 H 4.3022 -5.49924 -3.4087 0
M  V30 55 N 4.4343 0.785586 -1.36625 0
M  V30 56 C 5.6803 1.54591 -1.31261 0
M  V30 57 C 6.0133 1.93906 0.106823 0
M  V30 58 O 5.2883 1.63007 1.06108 0
M  V30 59 C 5.5713 2.82038 -2.23889 0
M  V30 60 C 5.4243 2.49066 -3.74548 0
M  V30 61 C 6.7433 3.83887 -2.15217 0
M  V30 62 H 3.8623 0.560846 -0.478143 0
M  V30 63 H 6.5043 0.902278 -1.67209 0
M  V30 64 H 4.6543 3.36961 -1.93363 0
M  V30 65 H 6.3263 2.00164 -4.15611 0
M  V30 66 H 4.5693 1.81954 -3.93796 0
M  V30 67 H 5.2403 3.40109 -4.34776 0
M  V30 68 H 7.7163 3.38421 -2.42096 0
M  V30 69 H 6.5923 4.70806 -2.82193 0
M  V30 70 H 6.8533 4.27131 -1.14068 0
M  V30 71 N 5.9124 1.20967 1.01018 0
M  V30 72 C 7.1614 1.01796 1.74128 0
M  V30 73 C 7.4744 -0.449691 1.90361 0
M  V30 74 O 8.6804 -0.76068 2.60626 0
M  V30 75 C 7.1364 1.7727 3.13215 0
M  V30 76 C 6.7444 3.28171 3.04972 0
M  V30 77 C 8.4884 1.66489 3.90489 0
M  V30 78 C 6.3954 3.96156 4.39107 0
M  V30 79 H 5.3254 0.377276 0.652824 0
M  V30 80 H 7.9764 1.44651 1.12909 0
M  V30 81 H 6.3584 1.27205 3.75013 0
M  V30 82 H 7.5324 3.85499 2.52443 0
M  V30 83 H 5.8474 3.39437 2.41188 0
M  V30 84 H 8.4444 2.14617 4.89738 0
M  V30 85 H 8.7874 0.6222 4.11624 0
M  V30 86 H 9.3204 2.14003 3.35332 0
M  V30 87 H 6.0594 5.00604 4.23174 0
M  V30 88 H 5.5794 3.43617 4.91617 0
M  V30 89 H 7.2584 4.00774 5.07926 0
M  V30 90 N 7.3905 -1.2043 1.01659 0
M  V30 91 C 8.3375 -2.23215 0.586822 0
M  V30 92 C 9.3075 -1.61382 -0.393085 0
M  V30 93 O 10.4925 -1.88544 -0.292525 0
M  V30 94 C 7.6325 -3.45032 -0.0687464 0
M  V30 95 C 6.7455 -4.21296 0.955724 0
M  V30 96 C 5.8805 -5.30507 0.271208 0
M  V30 97 C 4.9195 -5.98515 1.28244 0
M  V30 98 N 4.0565 -6.99316 0.62459 0
M  V30 99 H 8.8965 -2.59336 1.46796 0
M  V30 100 H 6.4335 -1.27431 0.734836 0
M  V30 101 H 8.3915 -4.1459 -0.465965 0
M  V30 102 H 7.0215 -3.09604 -0.913529 0
M  V30 103 H 6.0735 -3.50803 1.4711 0
M  V30 104 H 7.3855 -4.6803 1.72479 0
M  V30 105 H 6.5395 -6.06428 -0.18151 0
M  V30 106 H 5.2785 -4.8481 -0.530163 0
M  V30 107 H 4.2835 -5.21355 1.74554 0
M  V30 108 H 5.5085 -6.46298 2.08509 0
M  V30 109 H 3.4545 -6.55812 -0.156914 0
M  V30 110 H 3.3715 -7.44178 1.33172 0
M  V30 111 H 4.6395 -7.79255 0.195462 0
M  V30 112 N 8.8686 -0.792821 -1.36206 0
M  V30 113 C 10.0966 -0.378825 -2.03402 0
M  V30 114 C 10.5116 1.00586 -1.59774 0
M  V30 115 O 9.8686 1.64574 -0.788764 0
M  V30 116 C 9.9196 -0.43683 -3.58851 0
M  V30 117 O 9.6406 -1.76691 -4.00889 0
M  V30 118 C 11.1416 -0.0138943 -4.43298 0
M  V30 119 H 8.3616 -0.155673 -0.652692 0
M  V30 120 H 10.9056 -1.07261 -1.74113 0
M  V30 121 H 9.0606 0.208575 -3.86838 0
M  V30 122 H 9.4746 -1.72011 -4.95492 0
M  V30 123 H 10.9486 -0.105615 -5.51899 0
M  V30 124 H 11.4256 1.03915 -4.2673 0
M  V30 125 H 12.0316 -0.63192 -4.20579 0
M  V30 126 N 10.3467 1.47872 -0.545128 0
M  V30 127 C 11.3097 2.28337 0.198717 0
M  V30 128 C 12.3097 1.36255 0.853888 0
M  V30 129 O 13.4997 1.59003 0.711606 0
M  V30 130 C 10.6317 3.15585 1.28915 0
M  V30 131 H 11.8247 2.95567 -0.507941 0
M  V30 132 H 9.3777 1.53362 -0.301616 0
M  V30 133 H 10.1127 2.53019 2.02859 0
M  V30 134 H 9.8977 3.83337 0.824309 0
M  V30 135 H 11.3877 3.76243 1.81194 0
M  V30 136 N 11.8248 0.280983 1.55075 0
M  V30 137 C 13.0738 -0.334784 1.98902 0
M  V30 138 C 13.3868 -1.56534 1.17288 0
M  V30 139 O 14.5928 -2.25443 1.51287 0
M  V30 140 C 13.0488 -0.646994 3.54037 0
M  V30 141 C 12.6568 0.564085 4.44435 0
M  V30 142 C 14.4008 -1.22506 4.06439 0
M  V30 143 C 12.3078 0.226137 5.90967 0
M  V30 144 H 11.2378 -0.128866 0.742906 0
M  V30 145 H 13.8888 0.386556 1.79382 0
M  V30 146 H 12.2708 -1.42739 3.6938 0
M  V30 147 H 13.4448 1.34082 4.40861 0
M  V30 148 H 11.7598 1.0594 4.02698 0
M  V30 149 H 14.3568 -1.49182 5.13468 0
M  V30 150 H 14.6998 -2.16085 3.55827 0
M  V30 151 H 15.2328 -0.50682 3.94558 0
M  V30 152 H 11.9718 1.12996 6.45687 0
M  V30 153 H 11.4918 -0.513717 5.97596 0
M  V30 154 H 13.1708 -0.179539 6.46751 0
M  V30 155 N 13.3029 -1.57598 0.00835791 0
M  V30 156 C 14.7139 -1.7892 -0.53333 0
M  V30 157 C 15.0649 -0.916609 -1.73473 0
M  V30 158 O 14.1899 -0.121336 -2.1606 0
M  V30 159 C 14.7849 -3.24488 -0.974313 0
M  V30 160 C 13.3439 -3.46878 -1.46125 0
M  V30 161 C 12.4909 -2.74157 -0.416302 0
M  V30 162 H 15.4419 -1.56958 0.234495 0
M  V30 163 H 15.4629 -3.3306 -1.83988 0
M  V30 164 H 14.9749 -3.87972 -0.099718 0
M  V30 165 H 13.0759 -2.8862 -2.35646 0
M  V30 166 H 13.1889 -4.55572 -1.48295 0
M  V30 167 H 11.5529 -2.39022 -0.87981 0
M  V30 168 H 12.3359 -3.40345 0.44947 0
M  V30 169 N 14.781 0.264519 -1.55364 0
M  V30 170 C 16.058 1.01677 -1.67096 0
M  V30 171 C 16.438 2.03996 -0.543015 0
M  V30 172 O 15.786 2.23907 0.45585 0
M  V30 173 C 15.996 1.66596 -3.0667 0
M  V30 174 C 17.344 2.17442 -3.64697 0
M  V30 175 O 18.368 1.76568 -3.09358 0
M  V30 176 O 17.227 2.92439 -4.61673 0
M  V30 177 H 14.321 0.472161 -0.678965 0
M  V30 178 H 16.867 0.259703 -1.67701 0
M  V30 179 H 15.639 0.924962 -3.80211 0
M  V30 180 H 15.262 2.48968 -3.10001 0
M  V30 181 N 16.2591 1.48442 0.529413 0
M  V30 182 C 17.5051 1.5672 1.28711 0
M  V30 183 C 17.8381 0.2406 1.92704 0
M  V30 184 O 17.1131 -0.753454 1.79313 0
M  V30 185 C 17.3961 2.70587 2.37603 0
M  V30 186 C 17.2491 4.12953 1.78297 0
M  V30 187 C 18.5681 2.80212 3.39366 0
M  V30 188 H 15.6871 0.570474 0.466613 0
M  V30 189 H 18.3291 1.80617 0.589706 0
M  V30 190 H 16.4791 2.50342 2.97088 0
M  V30 191 H 18.1511 4.44639 1.22858 0
M  V30 192 H 16.3941 4.19927 1.0883 0
M  V30 193 H 17.0651 4.88448 2.57144 0
M  V30 194 H 19.5411 2.98553 2.89836 0
M  V30 195 H 18.4171 3.61611 4.12951 0
M  V30 196 H 18.6781 1.88393 3.99951 0
M  V30 197 N 17.7372 -0.778329 1.37039 0
M  V30 198 C 18.6672 -1.90546 1.34962 0
M  V30 199 C 19.6482 -1.68681 0.219274 0
M  V30 200 O 20.8332 -1.89634 0.418624 0
M  V30 201 C 17.9632 -3.27734 1.14925 0
M  V30 202 C 16.9172 -3.64147 2.24902 0
M  V30 203 C 16.2432 -4.99806 1.89996 0
M  V30 204 C 17.5432 -3.71579 3.67051 0
M  V30 205 H 19.2372 -1.92541 2.29277 0
M  V30 206 H 16.7832 -0.924948 1.10366 0
M  V30 207 H 18.7362 -4.06215 1.12104 0
M  V30 208 H 17.4602 -3.26154 0.170631 0
M  V30 209 H 16.1192 -2.8797 2.26868 0
M  V30 210 H 15.7672 -4.94759 0.906796 0
M  V30 211 H 15.4672 -5.25139 2.63634 0
M  V30 212 H 16.9912 -5.80694 1.88749 0
M  V30 213 H 18.4052 -4.40227 3.67251 0
M  V30 214 H 16.8022 -4.08405 4.39688 0
M  V30 215 H 17.8722 -2.72404 4.01154 0
M  V30 216 N 19.2153 -1.21501 -1.00376 0
M  V30 217 C 20.4643 -1.02718 -1.73586 0
M  V30 218 C 20.7773 0.439589 -1.90596 0
M  V30 219 O 21.9833 0.746848 -2.61026 0
M  V30 220 C 20.4393 -1.78929 -3.1227 0
M  V30 221 C 20.0473 -3.29783 -3.03228 0
M  V30 222 C 21.7913 -1.68557 -3.89601 0
M  V30 223 C 19.6983 -3.98479 -4.36999 0
M  V30 224 H 18.6283 -0.380733 -0.650814 0
M  V30 225 H 21.2793 -1.45248 -1.1214 0
M  V30 226 H 19.6613 -1.29192 -3.74333 0
M  V30 227 H 20.8353 -3.86832 -2.50395 0
M  V30 228 H 19.1503 -3.40711 -2.39385 0
M  V30 229 H 21.7473 -2.17211 -4.88593 0
M  V30 230 H 22.0903 -0.644021 -4.11288 0
M  V30 231 H 22.6233 -2.15778 -3.34193 0
M  V30 232 H 19.3623 -5.02841 -4.20513 0
M  V30 233 H 18.8823 -3.46219 -4.89788 0
M  V30 234 H 20.5613 -4.03462 -5.05794 0
M  V30 235 N 20.6934 1.19889 -1.02296 0
M  V30 236 C 21.6234 2.25141 -0.619174 0
M  V30 237 C 22.6044 1.66051 0.368915 0
M  V30 238 O 23.7894 1.92546 0.252941 0
M  V30 239 C 20.9194 3.4728 0.0368783 0
M  V30 240 C 19.8734 4.19005 -0.872865 0
M  V30 241 C 19.1994 5.34637 -0.0822402 0
M  V30 242 C 20.4994 4.74452 -2.18387 0
M  V30 243 H 22.1934 2.59171 -1.49903 0
M  V30 244 H 19.7394 1.24579 -0.722222 0
M  V30 245 H 21.6924 4.20098 0.330958 0
M  V30 246 H 20.4164 3.12433 0.95149 0
M  V30 247 H 19.0754 3.48061 -1.15105 0
M  V30 248 H 18.7234 4.96034 0.83422 0
M  V30 249 H 18.4234 5.83557 -0.688149 0
M  V30 250 H 19.9474 6.10255 0.205238 0
M  V30 251 H 21.3614 5.39055 -1.95172 0
M  V30 252 H 19.7584 5.33834 -2.74119 0
M  V30 253 H 20.8284 3.92844 -2.84257 0
M  V30 254 N 22.1715 0.800033 1.35784 0
M  V30 255 C 23.0815 0.207204 2.33683 0
M  V30 256 C 24.0975 -0.64631 1.61551 0
M  V30 257 O 25.2735 -0.559604 1.93469 0
M  V30 258 C 22.3385 -0.639659 3.40748 0
M  V30 259 C 21.3995 0.233585 4.28664 0
M  V30 260 C 20.6325 -0.572954 5.30616 0
M  V30 261 O 20.8555 -1.80816 5.40982 0
M  V30 262 O 19.7895 0.0327285 6.01891 0
M  V30 263 H 23.6155 1.01692 2.86169 0
M  V30 264 H 21.2005 0.561691 1.38439 0
M  V30 265 H 23.0825 -1.12223 4.06182 0
M  V30 266 H 21.7575 -1.42708 2.90544 0
M  V30 267 H 20.6645 0.763147 3.66233 0
M  V30 268 H 21.9975 0.984784 4.82248 0
M  V30 269 N 23.6496 -1.47581 0.552962 0
M  V30 270 C 25.0606 -1.86324 0.118463 0
M  V30 271 C 25.4116 -1.46006 -1.3106 0
M  V30 272 O 24.5366 -0.861182 -1.98526 0
M  V30 273 C 25.1316 -3.3816 0.20821 0
M  V30 274 C 23.6906 -3.7601 -0.171226 0
M  V30 275 C 22.8376 -2.71634 0.557686 0
M  V30 276 H 25.7886 -1.39159 0.762928 0
M  V30 277 H 25.8096 -3.76141 -0.574278 0
M  V30 278 H 25.3216 -3.67473 1.24841 0
M  V30 279 H 23.4226 -3.52313 -1.21269 0
M  V30 280 H 23.5356 -4.78745 0.184379 0
M  V30 281 H 21.8996 -2.547 0.00125792 0
M  V30 282 H 22.6826 -3.0379 1.59896 0
M  V30 283 N 25.1277 -0.289203 -1.54924 0
M  V30 284 C 26.0747 0.592115 -2.23075 0
M  V30 285 C 27.0447 1.13881 -1.20915 0
M  V30 286 O 28.2297 1.18551 -1.495 0
M  V30 287 C 25.3697 1.76376 -2.96623 0
M  V30 288 C 24.4827 1.24959 -4.13533 0
M  V30 289 C 23.6177 2.38416 -4.74691 0
M  V30 290 C 22.6567 1.84072 -5.83767 0
M  V30 291 N 21.7937 2.91057 -6.38929 0
M  V30 292 H 26.6337 0.00432038 -2.98 0
M  V30 293 H 24.1707 -0.00963529 -1.47097 0
M  V30 294 H 26.1287 2.45268 -3.3749 0
M  V30 295 H 24.7587 2.32337 -2.24097 0
M  V30 296 H 23.8107 0.453307 -3.77689 0
M  V30 297 H 25.1227 0.811662 -4.92152 0
M  V30 298 H 24.2767 3.15276 -5.18349 0
M  V30 299 H 23.0157 2.8553 -3.95378 0
M  V30 300 H 22.0207 1.05697 -5.39545 0
M  V30 301 H 23.2457 1.37877 -6.64956 0
M  V30 302 H 21.1917 3.37526 -5.62505 0
M  V30 303 H 21.1087 2.51724 -7.12861 0
M  V30 304 H 22.3767 3.6785 -6.87246 0
M  V30 305 N 26.6058 1.57591 -0.0167156 0
M  V30 306 C 27.8518 1.91567 0.665582 0
M  V30 307 C 28.1848 0.892298 1.72487 0
M  V30 308 O 27.4598 -0.0867127 1.94307 0
M  V30 309 C 27.7428 3.36069 1.29342 0
M  V30 310 C 27.5958 4.49135 0.244541 0
M  V30 311 C 28.9148 3.803 2.21495 0
M  V30 312 H 26.0338 0.69666 0.240488 0
M  V30 313 H 28.6758 1.89866 -0.0714356 0
M  V30 314 H 26.8258 3.3765 1.92158 0
M  V30 315 H 28.4978 4.59689 -0.385228 0
M  V30 316 H 26.7408 4.3165 -0.431379 0
M  V30 317 H 27.4118 5.47242 0.723207 0
M  V30 318 H 29.8878 3.80377 1.68678 0
M  V30 319 H 28.7638 4.82127 2.62382 0
M  V30 320 H 29.0248 3.15104 3.101 0
M  V30 321 N 28.0839 -0.256276 1.55502 0
M  V30 322 C 29.3309 -0.985619 1.76895 0
M  V30 323 C 29.6589 -1.85671 0.579355 0
M  V30 324 O 28.9139 -1.90744 -0.437651 0
M  V30 325 C 29.2129 -1.88432 3.03691 0
M  V30 326 C 28.8789 -1.16936 4.35473 0
M  V30 327 C 27.5409 -0.97173 4.71286 0
M  V30 328 C 29.8929 -0.661889 5.1698 0
M  V30 329 C 27.2209 -0.254179 5.86149 0
M  V30 330 C 29.5729 0.042149 6.32586 0
M  V30 331 C 28.2369 0.25134 6.67027 0
M  V30 332 H 27.5069 -0.360663 0.647304 0
M  V30 333 H 30.1539 -0.256483 1.89775 0
M  V30 334 H 28.4589 -2.68021 2.85783 0
M  V30 335 H 30.1559 -2.45015 3.1744 0
M  V30 336 H 26.7459 -1.33332 4.07333 0
M  V30 337 H 30.9299 -0.802145 4.89775 0
M  V30 338 H 26.1859 -0.0815408 6.11346 0
M  V30 339 H 30.3599 0.443049 6.94989 0
M  V30 340 H 27.9869 0.809314 7.5588 0
M  V30 341 N 29.562 -1.4872 -0.521534 0
M  V30 342 C 30.81 -1.56857 -1.27437 0
M  V30 343 C 31.131 -0.247982 -1.93417 0
M  V30 344 O 30.401 0.731151 -1.81744 0
M  V30 345 H 28.981 -0.577885 -0.473347 0
M  V30 346 H 31.643 -1.85233 -0.606205 0
M  V30 347 H 30.739 -2.35402 -2.0492 0
M  V30 348 N 31.0401 0.771051 -1.3745 0
M  V30 349 C 32.3171 1.519 -1.23231 0
M  V30 350 C 32.6971 2.10383 0.173809 0
M  V30 351 O 32.0451 1.95583 1.18151 0
M  V30 352 C 32.2551 2.59933 -2.32886 0
M  V30 353 C 33.6031 3.27316 -2.70461 0
M  V30 354 O 34.6271 2.70228 -2.32068 0
M  V30 355 O 33.4861 4.30531 -3.36608 0
M  V30 356 H 30.5801 0.672803 -0.480901 0
M  V30 357 H 33.1261 0.807957 -1.49232 0
M  V30 358 H 31.8981 2.14842 -3.27045 0
M  V30 359 H 31.5211 3.38637 -2.08353 0
M  V30 360 N 32.5182 1.22032 0.997298 0
M  V30 361 C 33.4282 1.00271 2.12092 0
M  V30 362 C 34.4442 -0.047621 1.73935 0
M  V30 363 O 35.6202 0.144136 2.00884 0
M  V30 364 C 32.6852 0.578449 3.4184 0
M  V30 365 C 31.7462 1.70189 3.94125 0
M  V30 366 C 30.9792 1.29778 5.17681 0
M  V30 367 O 31.2022 0.174676 5.70132 0
M  V30 368 O 30.1362 2.11261 5.63607 0
M  V30 369 H 33.9622 1.94398 2.3333 0
M  V30 370 H 31.5472 1.00587 1.10465 0
M  V30 371 H 33.4292 0.351998 4.19927 0
M  V30 372 H 32.1042 -0.334019 3.21972 0
M  V30 373 H 31.0112 1.98282 3.1723 0
M  V30 374 H 32.3442 2.59206 4.18417 0
M  V30 375 N 33.9963 -1.19345 1.0293 0
M  V30 376 C 35.4123 -1.41069 0.746446 0
M  V30 377 C 35.6123 -1.90078 -0.668776 0
M  V30 378 O 34.6683 -2.0778 -1.4347 0
M  V30 379 C 35.9813 -2.42141 1.78292 0
M  V30 380 C 37.5293 -2.55887 1.80252 0
M  V30 381 C 38.0043 -3.60214 2.8286 0
M  V30 382 N 39.4953 -3.67711 2.81679 0
M  V30 383 C 40.2303 -4.48128 3.57727 0
M  V30 384 N 39.7263 -5.32248 4.43491 0
M  V30 385 N 41.5193 -4.42782 3.46267 0
M  V30 386 H 33.6703 -0.858536 1.94275 0
M  V30 387 H 35.9333 -0.439541 0.839945 0
M  V30 388 H 35.6393 -2.13155 2.79746 0
M  V30 389 H 35.5133 -3.41323 1.60557 0
M  V30 390 H 37.9003 -2.84196 0.794757 0
M  V30 391 H 37.9813 -1.56858 2.02062 0
M  V30 392 H 37.6253 -3.32647 3.83807 0
M  V30 393 H 37.5553 -4.58895 2.58307 0
M  V30 394 H 40.0463 -3.07634 2.19476 0
M  V30 395 H 40.3593 -5.90729 4.98256 0
M  V30 396 H 38.7043 -5.31707 4.47564 0
M  V30 397 H 41.8953 -3.76107 2.78677 0
M  V30 398 H 42.0683 -5.05215 4.05785 0
M  V30 399 N 35.4744 -0.807222 -1.35358 0
M  V30 400 C 36.7224 -0.387122 -1.98358 0
M  V30 401 C 37.0434 1.04942 -1.64354 0
M  V30 402 O 36.3134 1.72615 -0.926339 0
M  V30 403 H 34.8934 -0.140154 -0.733734 0
M  V30 404 H 37.5554 -1.0332 -1.6526 0
M  V30 405 H 36.6514 -0.493352 -3.08176 0
M  V30 406 N 36.9525 1.47285 -0.560781 0
M  V30 407 C 38.1995 2.02464 -0.038062 0
M  V30 408 C 38.5275 1.43474 1.31322 0
M  V30 409 O 37.7825 0.581311 1.86867 0
M  V30 410 C 38.0815 3.57258 0.100784 0
M  V30 411 C 37.7475 4.35184 -1.18007 0
M  V30 412 C 36.4095 4.56194 -1.53103 0
M  V30 413 C 38.7615 4.80098 -2.02867 0
M  V30 414 C 36.0895 5.19367 -2.729 0
M  V30 415 C 38.4415 5.44593 -3.21871 0
M  V30 416 C 37.1055 5.63835 -3.57276 0
M  V30 417 H 36.3755 0.740869 -0.0139279 0
M  V30 418 H 39.0225 1.76916 -0.733012 0
M  V30 419 H 37.3275 3.81819 0.878724 0
M  V30 420 H 39.0245 3.97606 0.520639 0
M  V30 421 H 35.6145 4.19113 -0.8968 0
M  V30 422 H 39.7985 4.63642 -1.7706 0
M  V30 423 H 35.0545 5.32459 -3.00496 0
M  V30 424 H 39.2285 5.78358 -3.87911 0
M  V30 425 H 36.8555 6.12557 -4.50197 0
M  V30 426 N 38.4306 0.297415 1.54768 0
M  V30 427 C 39.6776 -0.312913 2.00068 0
M  V30 428 C 40.0056 -1.54171 1.18582 0
M  V30 429 O 39.2606 -1.94108 0.249133 0
M  V30 430 C 39.5596 -0.717561 3.50123 0
M  V30 431 C 39.2256 0.409095 4.4904 0
M  V30 432 C 37.8876 0.718399 4.75807 0
M  V30 433 C 40.2396 1.16717 5.07963 0
M  V30 434 C 37.5676 1.78896 5.5876 0
M  V30 435 C 39.9196 2.22762 5.92081 0
M  V30 436 C 38.5836 2.54303 6.1716 0
M  V30 437 H 37.8536 -0.114503 0.7321 0
M  V30 438 H 40.5006 0.415767 1.86932 0
M  V30 439 H 38.8056 -1.52627 3.60849 0
M  V30 440 H 40.5026 -1.20091 3.82595 0
M  V30 441 H 37.0926 0.157918 4.28309 0
M  V30 442 H 41.2766 0.941466 4.87289 0
M  V30 443 H 36.5326 2.0381 5.7643 0
M  V30 444 H 40.7066 2.81962 6.36765 0
M  V30 445 H 38.3336 3.3739 6.81229 0
M  V30 446 N 39.9087 -1.5758 0.0250728 0
M  V30 447 C 41.1557 -1.91633 -0.654444 0
M  V30 448 C 41.4837 -0.901103 -1.72367 0
M  V30 449 O 40.7387 0.0905647 -1.9549 0
M  V30 450 C 41.0377 -3.32421 -1.31268 0
M  V30 451 C 40.7037 -4.49344 -0.374223 0
M  V30 452 C 39.3657 -4.8106 -0.115911 0
M  V30 453 C 41.7177 -5.20498 0.270432 0
M  V30 454 C 39.0457 -5.8129 0.79493 0
M  V30 455 C 41.3977 -6.21699 1.1693 0
M  V30 456 C 40.0617 -6.51859 1.43655 0
M  V30 457 H 39.3317 -0.701236 -0.239478 0
M  V30 458 H 41.9787 -1.91307 0.0859734 0
M  V30 459 H 40.2837 -3.28989 -2.12775 0
M  V30 460 H 41.9807 -3.56038 -1.84494 0
M  V30 461 H 38.5707 -4.24579 -0.58573 0
M  V30 462 H 42.7547 -4.96229 0.0839194 0
M  V30 463 H 38.0107 -6.03005 1.00973 0
M  V30 464 H 42.1847 -6.75955 1.67504 0
M  V30 465 H 39.8117 -7.2934 2.144 0
M  V30 466 N 41.3868 0.248026 -1.55636 0
M  V30 467 C 42.2968 1.32859 -1.93354 0
M  V30 468 C 43.3128 1.52719 -0.833838 0
M  V30 469 O 44.4888 1.66363 -1.13513 0
M  V30 470 C 41.5538 2.66337 -2.21958 0
M  V30 471 C 40.6148 2.55008 -3.45354 0
M  V30 472 C 39.8478 3.82121 -3.72584 0
M  V30 473 O 40.0708 4.83951 -3.01907 0
M  V30 474 O 39.0048 3.80822 -4.6611 0
M  V30 475 H 42.8308 1.03862 -2.85388 0
M  V30 476 H 40.4158 0.448686 -1.42503 0
M  V30 477 H 42.2978 3.45216 -2.4167 0
M  V30 478 H 40.9728 2.95068 -1.33103 0
M  V30 479 H 39.8798 1.7442 -3.30951 0
M  V30 480 H 41.2128 2.31222 -4.34508 0
M  V30 481 N 42.8649 1.48995 0.513639 0
M  V30 482 C 44.0899 1.61792 1.29762 0
M  V30 483 C 44.5149 0.284475 1.85936 0
M  V30 484 O 43.8729 -0.746185 1.65232 0
M  V30 485 C 43.9209 2.67993 2.41272 0
M  V30 486 O 43.0249 2.26287 3.44772 0
M  V30 487 H 42.3659 0.541963 0.38363 0
M  V30 488 H 44.8959 1.95097 0.616307 0
M  V30 489 H 44.9059 2.89772 2.87221 0
M  V30 490 H 43.5809 3.64791 1.9975 0
M  V30 491 H 42.1579 2.14788 3.04829 0
M  V30 492 N 44.343 -0.763751 1.37857 0
M  V30 493 C 45.573 -1.55067 1.3652 0
M  V30 494 C 45.981 -1.89135 -0.0494227 0
M  V30 495 O 45.324 -1.52529 -1.02375 0
M  V30 496 C 45.386 -2.8838 2.14656 0
M  V30 497 C 45.05 -2.76905 3.63555 0
M  V30 498 C 46.047 -2.4739 4.57268 0
M  V30 499 C 43.732 -2.94676 4.06781 0
M  V30 500 C 45.726 -2.35786 5.92186 0
M  V30 501 C 43.413 -2.82692 5.41782 0
M  V30 502 C 44.411 -2.53289 6.34298 0
M  V30 503 O 44.099 -2.41345 7.66817 0
M  V30 504 H 43.831 -0.486776 0.469069 0
M  V30 505 H 46.385 -0.953812 1.81911 0
M  V30 506 H 44.615 -3.50217 1.63967 0
M  V30 507 H 46.304 -3.49828 2.05852 0
M  V30 508 H 47.07 -2.33339 4.2518 0
M  V30 509 H 42.949 -3.16563 3.35126 0
M  V30 510 H 46.493 -2.12757 6.64365 0
M  V30 511 H 42.39 -2.96314 5.7347 0
M  V30 512 H 43.158 -2.56634 7.77226 0
M  V30 513 N 45.8211 -1.22559 -0.990812 0
M  V30 514 C 46.7691 -0.994798 -2.10253 0
M  V30 515 C 47.7631 0.0627798 -1.69284 0
M  V30 516 O 48.9691 -0.0898392 -1.79776 0
M  V30 517 H 45.3441 -0.304527 -0.687581 0
M  V30 518 H 47.3151 -1.93812 -2.26891 0
M  V30 519 C 46.0641 -0.591439 -3.42633 0
M  V30 520 H 45.3871 -1.3969 -3.74602 0
M  V30 521 H 46.8271 -0.469385 -4.21394 0
M  V30 522 C 45.2861 0.699232 -3.29564 0
M  V30 523 O 45.8161 1.75112 -3.61523 0
M  V30 524 N 44.0221 0.671182 -2.82743 0
M  V30 525 H 43.5691 -0.185136 -2.56934 0
M  V30 526 H 43.5271 1.53502 -2.7438 0
M  V30 527 N 47.2992 1.18797 -1.03562 0
M  V30 528 C 48.2312 2.21731 -0.580337 0
M  V30 529 C 49.2442 1.59051 0.347349 0
M  V30 530 O 50.4332 1.77929 0.142669 0
M  V30 531 C 47.5332 3.38459 0.172805 0
M  V30 532 C 46.7062 4.3072 -0.761496 0
M  V30 533 C 45.7652 5.26174 -0.0525547 0
M  V30 534 O 44.7912 5.65108 -0.681333 0
M  V30 535 N 45.9932 5.67624 1.21586 0
M  V30 536 H 48.7582 2.61417 -1.46565 0
M  V30 537 H 46.3192 1.33531 -0.915476 0
M  V30 538 H 48.3112 3.99335 0.656793 0
M  V30 539 H 46.8812 2.97507 0.959602 0
M  V30 540 H 46.1012 3.67525 -1.42544 0
M  V30 541 H 47.3892 4.89267 -1.39626 0
M  V30 542 H 46.7872 5.38038 1.74732 0
M  V30 543 H 45.3442 6.30721 1.64421 0
M  V30 544 N 48.7773 0.814389 1.34928 0
M  V30 545 C 49.7093 0.187834 2.28429 0
M  V30 546 C 50.7223 -0.617374 1.5064 0
M  V30 547 O 51.9113 -0.448454 1.72775 0
M  V30 548 C 49.0113 -0.755962 3.30361 0
M  V30 549 C 48.1843 0.00456686 4.374 0
M  V30 550 C 47.2433 -0.858876 5.19143 0
M  V30 551 O 46.2693 -0.306968 5.68372 0
M  V30 552 N 47.4713 -2.17988 5.38016 0
M  V30 553 H 50.2363 0.991105 2.82838 0
M  V30 554 H 47.7973 0.670561 1.4736 0
M  V30 555 H 49.7893 -1.338 3.81942 0
M  V30 556 H 48.3593 -1.46001 2.7641 0
M  V30 557 H 47.5793 0.767865 3.86649 0
M  V30 558 H 48.8673 0.528422 5.06049 0
M  V30 559 H 48.2653 -2.65212 4.99679 0
M  V30 560 H 46.8223 -2.71098 5.92747 0
M  V30 561 N 50.2554 -1.46986 0.568584 0
M  V30 562 C 51.4834 -2.0683 0.0539956 0
M  V30 563 C 51.8984 -1.41953 -1.24478 0
M  V30 564 O 51.2554 -0.519933 -1.74937 0
M  V30 565 C 51.3064 -3.61254 -0.133362 0
M  V30 566 O 51.0274 -4.237 1.11399 0
M  V30 567 C 52.5284 -4.37992 -0.683927 0
M  V30 568 H 49.7484 -0.669058 0.0510141 0
M  V30 569 H 52.2924 -1.88824 0.785234 0
M  V30 570 H 50.4474 -3.78735 -0.81477 0
M  V30 571 H 50.8614 -5.16388 0.91888 0
M  V30 572 H 52.3354 -5.46684 -0.764263 0
M  V30 573 H 52.8124 -4.05058 -1.69778 0
M  V30 574 H 53.4184 -4.25283 -0.0378494 0
M  V30 575 N 51.7335 -0.305618 -1.54608 0
M  V30 576 C 52.9805 0.302298 -2.00231 0
M  V30 577 C 53.3085 1.5354 -1.19398 0
M  V30 578 O 52.5635 1.93973 -0.259423 0
M  V30 579 C 52.8625 0.698983 -3.50498 0
M  V30 580 C 52.5285 -0.432903 -4.48817 0
M  V30 581 C 51.1905 -0.743622 -4.75419 0
M  V30 582 C 53.5425 -1.19409 -5.07337 0
M  V30 583 C 50.8705 -1.81857 -5.57804 0
M  V30 584 C 53.2225 -2.25899 -5.90891 0
M  V30 585 C 51.8865 -2.57572 -6.15803 0
M  V30 586 H 51.1565 0.110619 -0.732697 0
M  V30 587 H 53.8035 -0.425674 -1.86709 0
M  V30 588 H 52.1085 1.50711 -3.61654 0
M  V30 589 H 53.8055 1.1806 -3.83227 0
M  V30 590 H 50.3955 -0.18063 -4.28219 0
M  V30 591 H 54.5795 -0.967295 -4.86782 0
M  V30 592 H 49.8355 -2.06864 -5.75341 0
M  V30 593 H 54.0095 -2.85335 -6.35261 0
M  V30 594 H 51.6365 -3.40998 -6.7943 0
M  V30 595 N 53.2116 1.57565 -0.0334293 0
M  V30 596 C 54.1216 2.13943 0.962572 0
M  V30 597 C 55.1376 1.09276 1.35406 0
M  V30 598 O 56.3136 1.41355 1.4346 0
M  V30 599 C 53.3786 2.65887 2.22497 0
M  V30 600 C 52.4396 3.85286 1.8935 0
M  V30 601 C 51.6726 4.34743 3.09571 0
M  V30 602 O 51.8956 3.83352 4.22371 0
M  V30 603 O 50.8296 5.26538 2.91618 0
M  V30 604 H 54.6556 2.99333 0.513169 0
M  V30 605 H 52.2406 1.4822 0.18743 0
M  V30 606 H 54.1226 2.99346 2.96598 0
M  V30 607 H 52.7976 1.83578 2.6661 0
M  V30 608 H 51.7046 3.56746 1.1262 0
M  V30 609 H 53.0376 4.68771 1.5005 0
M  V30 610 N 54.6897 -0.239769 1.55765 0
M  V30 611 C 55.5997 -1.31831 1.94056 0
M  V30 612 C 56.6157 -1.52275 0.841925 0
M  V30 613 O 57.7917 -1.65759 1.14394 0
M  V30 614 C 54.8567 -2.65156 2.23368 0
M  V30 615 C 53.9177 -2.53173 3.46701 0
M  V30 616 C 53.1507 -3.8014 3.74606 0
M  V30 617 O 53.3737 -4.82343 3.04469 0
M  V30 618 O 52.3077 -3.78344 4.68123 0
M  V30 619 H 56.1337 -1.02347 2.85935 0
M  V30 620 H 53.7187 -0.441123 1.42739 0
M  V30 621 H 55.6007 -3.43929 2.43497 0
M  V30 622 H 54.2757 -2.94358 1.34666 0
M  V30 623 H 53.1827 -1.72662 3.31871 0
M  V30 624 H 54.5157 -2.28915 4.35728 0
M  V30 625 N 56.1678 -1.49265 -0.50573 0
M  V30 626 C 57.0978 -1.68495 -1.61653 0
M  V30 627 C 58.0788 -0.53366 -1.61512 0
M  V30 628 O 59.2638 -0.76897 -1.78327 0
M  V30 629 C 56.3938 -1.74709 -3.00157 0
M  V30 630 C 55.3478 -2.89581 -3.15162 0
M  V30 631 C 54.6738 -2.80903 -4.5497 0
M  V30 632 C 55.9738 -4.30578 -2.95634 0
M  V30 633 H 57.6678 -2.61493 -1.45814 0
M  V30 634 H 55.2138 -1.25838 -0.70005 0
M  V30 635 H 57.1668 -1.86748 -3.77761 0
M  V30 636 H 55.8908 -0.783067 -3.17074 0
M  V30 637 H 54.5498 -2.77136 -2.39982 0
M  V30 638 H 54.1978 -1.82419 -4.68756 0
M  V30 639 H 53.8978 -3.57999 -4.65951 0
M  V30 640 H 55.4218 -2.94944 -5.34641 0
M  V30 641 H 56.8358 -4.4373 -3.63011 0
M  V30 642 H 55.2328 -5.0886 -3.18091 0
M  V30 643 H 56.3028 -4.45352 -1.91806 0
M  V30 644 N 57.6459 0.756429 -1.3826 0
M  V30 645 C 58.8949 1.51082 -1.3363 0
M  V30 646 C 59.2079 1.95467 0.0720068 0
M  V30 647 O 60.4139 2.7043 0.240834 0
M  V30 648 C 58.8699 2.72893 -2.34644 0
M  V30 649 C 58.4779 2.35544 -3.81081 0
M  V30 650 C 60.2219 3.50791 -2.39052 0
M  V30 651 C 58.1289 3.53948 -4.73787 0
M  V30 652 H 57.0589 0.56727 -0.49671 0
M  V30 653 H 59.7099 0.827147 -1.638 0
M  V30 654 H 58.0919 3.43227 -1.97513 0
M  V30 655 H 59.2659 1.72894 -4.27135 0
M  V30 656 H 57.5809 1.70786 -3.79764 0
M  V30 657 H 60.1779 4.38823 -3.05513 0
M  V30 658 H 60.5209 3.91745 -1.40861 0
M  V30 659 H 61.0539 2.87467 -2.74968 0
M  V30 660 H 57.7929 3.18064 -5.73163 0
M  V30 661 H 57.3129 4.15651 -4.32428 0
M  V30 662 H 58.9919 4.20566 -4.91663 0
M  V30 663 N 59.124 1.23083 0.984299 0
M  V30 664 C 60.372 1.05848 1.72165 0
M  V30 665 C 60.693 -0.406049 1.90726 0
M  V30 666 O 59.963 -1.29139 1.47309 0
M  V30 667 H 58.543 0.388685 0.637913 0
M  V30 668 H 61.205 1.54736 1.18503 0
M  V30 669 H 60.301 1.54327 2.71274 0
M  V30 670 N 60.6021 -1.18246 1.0419 0
M  V30 671 C 62.0181 -1.40269 0.761366 0
M  V30 672 C 62.2181 -1.90777 -0.648578 0
M  V30 673 O 61.2741 -2.0929 -1.41258 0
M  V30 674 C 62.5871 -2.40237 1.8085 0
M  V30 675 C 64.1351 -2.53961 1.82955 0
M  V30 676 C 64.6101 -3.57194 2.86664 0
M  V30 677 N 66.1011 -3.64702 2.85563 0
M  V30 678 C 66.8361 -4.44309 3.6246 0
M  V30 679 N 66.3321 -5.27514 4.49111 0
M  V30 680 N 68.1251 -4.39084 3.50944 0
M  V30 681 H 60.2761 -0.837882 1.95175 0
M  V30 682 H 62.5391 -0.430608 0.84456 0
M  V30 683 H 62.2451 -2.10176 2.81991 0
M  V30 684 H 62.1191 -3.39601 1.64168 0
M  V30 685 H 64.5061 -2.83338 0.824855 0
M  V30 686 H 64.5871 -1.54706 2.03715 0
M  V30 687 H 64.2311 -3.28558 3.87314 0
M  V30 688 H 64.1611 -4.5613 2.6316 0
M  V30 689 H 66.6521 -3.05289 2.22727 0
M  V30 690 H 66.9651 -5.85411 5.04493 0
M  V30 691 H 65.3101 -5.2693 4.53178 0
M  V30 692 H 68.5011 -3.7313 2.82651 0
M  V30 693 H 68.6741 -5.00883 4.11121 0
M  V30 694 N 62.0802 -0.821533 -1.34494 0
M  V30 695 C 63.0272 -0.240397 -2.29545 0
M  V30 696 C 63.9972 0.634031 -1.53523 0
M  V30 697 O 65.1822 0.575966 -1.81899 0
M  V30 698 C 62.3222 0.592869 -3.39969 0
M  V30 699 C 61.4352 -0.30365 -4.30932 0
M  V30 700 C 60.5702 0.539049 -5.28458 0
M  V30 701 C 59.6092 -0.356942 -6.11058 0
M  V30 702 N 58.7462 0.446603 -7.00678 0
M  V30 703 H 63.5862 -1.05632 -2.7865 0
M  V30 704 H 61.1232 -0.532413 -1.37127 0
M  V30 705 H 63.0812 1.09129 -4.02675 0
M  V30 706 H 61.7112 1.37392 -2.92102 0
M  V30 707 H 60.7632 -0.920276 -3.691 0
M  V30 708 H 62.0752 -0.992661 -4.88823 0
M  V30 709 H 61.2292 1.102 -5.96608 0
M  V30 710 H 59.9682 1.26157 -4.71101 0
M  V30 711 H 58.9732 -0.932047 -5.41842 0
M  V30 712 H 60.1982 -1.07755 -6.70497 0
M  V30 713 H 58.1442 1.15282 -6.45791 0
M  V30 714 H 58.0612 -0.184048 -7.55776 0
M  V30 715 H 59.3292 0.992352 -7.73158 0
M  V30 716 N 63.5583 1.46682 -0.576371 0
M  V30 717 C 64.8043 2.02712 -0.0596221 0
M  V30 718 C 65.1373 1.44765 1.29448 0
M  V30 719 O 64.4123 0.610355 1.84675 0
M  V30 720 C 64.6953 3.60098 0.0129503 0
M  V30 721 C 64.5483 4.28441 -1.3696 0
M  V30 722 C 65.8673 4.34224 0.71678 0
M  V30 723 H 62.9863 0.736637 -0.0231407 0
M  V30 724 H 65.6283 1.74898 -0.742351 0
M  V30 725 H 63.7783 3.83926 0.594378 0
M  V30 726 H 65.4503 4.15896 -1.9957 0
M  V30 727 H 63.6933 3.8805 -1.93907 0
M  V30 728 H 64.3643 5.3716 -1.27135 0
M  V30 729 H 66.8403 4.15503 0.222908 0
M  V30 730 H 65.7163 5.43936 0.73657 0
M  V30 731 H 65.9773 4.04823 1.77682 0
M  V30 732 N 65.0364 0.313813 1.54444 0
M  V30 733 C 66.2644 -0.293918 2.04802 0
M  V30 734 C 66.6794 -1.46537 1.19047 0
M  V30 735 O 66.0364 -1.81182 0.218939 0
M  V30 736 C 66.0874 -0.737806 3.53891 0
M  V30 737 O 65.8084 0.387038 4.36387 0
M  V30 738 C 67.3094 -1.40936 4.203 0
M  V30 739 H 64.5294 -0.0620057 0.668129 0
M  V30 740 H 67.0734 0.457169 1.99324 0
M  V30 741 H 65.2284 -1.43889 3.59687 0
M  V30 742 H 65.6424 0.0391274 5.24485 0
M  V30 743 H 67.1164 -1.67099 5.26101 0
M  V30 744 H 67.5934 -2.35355 3.70816 0
M  V30 745 H 68.1994 -0.751117 4.18615 0
M  V30 746 N 66.5145 -1.57545 0.0417849 0
M  V30 747 C 67.7615 -1.92317 -0.634082 0
M  V30 748 C 68.0895 -0.919334 -1.71402 0
M  V30 749 O 67.3445 0.0698253 -1.95575 0
M  V30 750 C 67.6435 -3.33794 -1.27735 0
M  V30 751 C 67.3095 -4.49716 -0.326543 0
M  V30 752 C 65.9715 -4.81156 -0.0648814 0
M  V30 753 C 68.3235 -5.20182 0.325623 0
M  V30 754 C 65.6515 -5.80414 0.856539 0
M  V30 755 C 68.0035 -6.20424 1.23518 0
M  V30 756 C 66.6675 -6.50298 1.5056 0
M  V30 757 H 65.9375 -0.703736 -0.232027 0
M  V30 758 H 68.5845 -1.91205 0.106259 0
M  V30 759 H 66.8895 -3.31228 -2.09274 0
M  V30 760 H 68.5865 -3.57975 -1.80707 0
M  V30 761 H 65.1765 -4.25176 -0.540665 0
M  V30 762 H 69.3605 -4.96112 0.136546 0
M  V30 763 H 64.6165 -6.019 1.07363 0
M  V30 764 H 68.7905 -6.74141 1.74664 0
M  V30 765 H 66.4175 -7.27025 2.22123 0
M  V30 766 N 67.9926 0.231505 -1.5589 0
M  V30 767 C 69.2386 0.95877 -1.78705 0
M  V30 768 C 69.5716 1.8438 -0.609725 0
M  V30 769 O 68.8466 1.90521 0.391426 0
M  V30 770 C 69.1296 1.8062 -3.11526 0
M  V30 771 C 68.9826 0.948328 -4.39689 0
M  V30 772 C 70.3016 2.78585 -3.40703 0
M  V30 773 H 67.4206 0.347129 -0.650131 0
M  V30 774 H 70.0626 0.228259 -1.88624 0
M  V30 775 H 68.2126 2.42902 -3.03201 0
M  V30 776 H 69.8846 0.343016 -4.60023 0
M  V30 777 H 68.1276 0.253314 -4.3306 0
M  V30 778 H 68.7986 1.57543 -5.29041 0
M  V30 779 H 71.2746 2.26439 -3.49091 0
M  V30 780 H 70.1506 3.34988 -4.34826 0
M  V30 781 H 70.4116 3.55825 -2.62375 0
M  V30 782 N 69.4707 1.49531 0.497807 0
M  V30 783 C 70.4027 1.62559 1.61578 0
M  V30 784 C 71.4157 0.508134 1.54667 0
M  V30 785 O 72.6047 0.780309 1.60541 0
M  V30 786 C 69.7047 1.56925 3.00379 0
M  V30 787 C 68.8777 2.84257 3.3244 0
M  V30 788 C 67.9367 2.71632 4.50669 0
M  V30 789 O 66.9627 3.4557 4.52294 0
M  V30 790 N 68.1647 1.83391 5.5077 0
M  V30 791 H 70.9297 2.58981 1.50828 0
M  V30 792 H 68.4907 1.4666 0.685743 0
M  V30 793 H 70.4827 1.46129 3.77397 0
M  V30 794 H 69.0527 0.683483 3.05037 0
M  V30 795 H 68.2727 3.09381 2.44289 0
M  V30 796 H 69.5607 3.68666 3.5066 0
M  V30 797 H 68.9587 1.22583 5.52259 0
M  V30 798 H 67.5157 1.78515 6.26878 0
M  V30 799 N 70.9488 -0.749086 1.3866 0
M  V30 800 C 72.2258 -1.4992 1.25632 0
M  V30 801 C 72.6058 -2.10633 -0.140317 0
M  V30 802 O 71.9538 -1.97437 -1.15025 0
M  V30 803 C 72.1638 -2.56195 2.36992 0
M  V30 804 C 73.5118 -3.22972 2.75634 0
M  V30 805 O 74.5358 -2.66502 2.36337 0
M  V30 806 O 73.3948 -4.25122 3.43415 0
M  V30 807 H 70.4888 -0.665067 0.491544 0
M  V30 808 H 73.0348 -0.784113 1.50498 0
M  V30 809 H 71.8068 -2.09612 3.30422 0
M  V30 810 H 71.4298 -3.35279 2.13714 0
M  V30 811 N 72.4269 -1.23603 -0.977757 0
M  V30 812 C 73.3749 -1.01704 -2.09187 0
M  V30 813 C 74.3689 0.0448214 -1.69341 0
M  V30 814 O 75.5749 -0.108902 -1.7967 0
M  V30 815 H 71.9499 -0.311803 -0.684312 0
M  V30 816 H 73.9209 -1.96207 -2.24823 0
M  V30 817 C 72.6699 -0.627746 -3.41986 0
M  V30 818 H 71.9929 -1.43656 -3.73099 0
M  V30 819 H 73.4329 -0.514053 -4.20872 0
M  V30 820 C 71.8919 0.664238 -3.30287 0
M  V30 821 O 72.4219 1.71268 -3.6336 0
M  V30 822 N 70.6279 0.641156 -2.83439 0
M  V30 823 H 70.1749 -0.212376 -2.56723 0
M  V30 824 H 70.1329 1.50583 -2.75993 0
M  V30 825 N 73.905 1.17692 -1.04816 0
M  V30 826 C 74.855 2.1952 -0.616042 0
M  V30 827 C 75.839 1.57147 0.345485 0
M  V30 828 O 77.031 1.76245 0.163325 0
M  V30 829 C 74.16 3.43298 0.0116917 0
M  V30 830 C 73.246 4.12777 -0.973435 0
M  V30 831 N 73.637 4.5814 -2.14339 0
M  V30 832 C 71.935 4.38747 -0.80108 0
M  V30 833 C 72.636 5.11713 -2.7663 0
M  V30 834 N 71.612 5.03686 -2.04453 0
M  V30 835 H 75.414 2.52293 -1.5075 0
M  V30 836 H 72.928 1.3398 -0.917776 0
M  V30 837 H 74.925 4.15519 0.339006 0
M  V30 838 H 73.585 3.12018 0.898593 0
M  V30 839 H 74.596 4.52349 -2.52191 0
M  V30 840 H 71.273 4.17485 0.0350934 0
M  V30 841 H 72.663 5.56962 -3.75823 0
M  V30 842 N 75.3831 0.828654 1.34056 0
M  V30 843 C 76.6081 0.431637 2.02859 0
M  V30 844 C 77.0331 -0.956339 1.61975 0
M  V30 845 O 76.3911 -1.62338 0.807228 0
M  V30 846 C 76.4391 0.548323 3.56407 0
M  V30 847 O 75.5431 -0.429556 4.10157 0
M  V30 848 H 74.8841 0.176886 0.640006 0
M  V30 849 H 77.4141 1.12066 1.71179 0
M  V30 850 H 77.4241 0.426196 4.05768 0
M  V30 851 H 76.0991 1.5606 3.8551 0
M  V30 852 H 74.6761 -0.265836 3.71951 0
M  V30 853 N 76.8612 -1.46375 0.584142 0
M  V30 854 C 77.8082 -2.30323 -0.148286 0
M  V30 855 C 78.7782 -1.40703 -0.882713 0
M  V30 856 O 79.9632 -1.69651 -0.873099 0
M  V30 857 C 77.1032 -3.25196 -1.15507 0
M  V30 858 C 76.2162 -4.29915 -0.423943 0
M  V30 859 C 75.3512 -5.11914 -1.41838 0
M  V30 860 C 74.3902 -6.08381 -0.673736 0
M  V30 861 N 73.5272 -6.83242 -1.6163 0
M  V30 862 H 78.3672 -2.92427 0.573644 0
M  V30 863 H 75.9042 -1.44118 0.294703 0
M  V30 864 H 77.8622 -3.78646 -1.75166 0
M  V30 865 H 76.4922 -2.64898 -1.8447 0
M  V30 866 H 75.5442 -3.7931 0.287714 0
M  V30 867 H 76.8562 -4.98549 0.158128 0
M  V30 868 H 76.0102 -5.69648 -2.08773 0
M  V30 869 H 74.7492 -4.43243 -2.03438 0
M  V30 870 H 73.7542 -5.49799 0.00938483 0
M  V30 871 H 74.9792 -6.79071 -0.0631082 0
M  V30 872 H 72.9252 -6.1728 -2.22038 0
M  V30 873 H 72.8422 -7.48144 -1.08707 0
M  V30 874 H 74.1102 -7.45534 -2.27596 0
M  V30 875 N 78.3393 -0.321999 -1.54275 0
M  V30 876 C 79.5643 0.285791 -2.05422 0
M  V30 877 C 79.9893 1.45124 -1.19669 0
M  V30 878 O 79.3473 1.80132 -0.205441 0
M  V30 879 C 79.3953 0.69956 -3.53749 0
M  V30 880 O 78.4993 1.8021 -3.70942 0
M  V30 881 H 77.8403 0.0518962 -0.661969 0
M  V30 882 H 80.3703 -0.469954 -1.9913 0
M  V30 883 H 80.3803 0.982649 -3.9599 0
M  V30 884 H 79.0553 -0.152864 -4.15619 0
M  V30 885 H 77.6323 1.51794 -3.40607 0
M  V30 886 N 79.8174 1.5752 -0.0501392 0
M  V30 887 C 80.7644 2.1147 0.924603 0
M  V30 888 C 81.7344 1.02182 1.30951 0
M  V30 889 O 82.9194 1.29723 1.39916 0
M  V30 890 C 80.0594 2.66337 2.19451 0
M  V30 891 C 79.1724 3.89708 1.86418 0
M  V30 892 C 78.3074 4.32893 3.07859 0
M  V30 893 C 77.3464 5.48967 2.70742 0
M  V30 894 N 76.4834 5.87211 3.84874 0
M  V30 895 H 81.3234 2.94465 0.457639 0
M  V30 896 H 78.8604 1.45531 0.214266 0
M  V30 897 H 80.8184 2.96247 2.93758 0
M  V30 898 H 79.4484 1.86141 2.63726 0
M  V30 899 H 78.5004 3.66396 1.02264 0
M  V30 900 H 79.8124 4.74074 1.55096 0
M  V30 901 H 78.9664 4.6435 3.90466 0
M  V30 902 H 77.7054 3.47336 3.42358 0
M  V30 903 H 76.7104 5.17183 1.86551 0
M  V30 904 H 77.9354 6.3624 2.37436 0
M  V30 905 H 75.8814 5.04607 4.19175 0
M  V30 906 H 75.7984 6.66266 3.57247 0
M  V30 907 H 77.0664 6.23282 4.68123 0
M  V30 908 N 81.2955 -0.223234 1.56011 0
M  V30 909 C 82.2425 -1.27664 1.92277 0
M  V30 910 C 83.2125 -1.46659 0.779763 0
M  V30 911 O 84.3975 -1.60256 1.03551 0
M  V30 912 C 81.5375 -2.62234 2.24338 0
M  V30 913 C 80.6505 -2.51051 3.51564 0
M  V30 914 C 79.7855 -3.78133 3.7308 0
M  V30 915 C 78.8245 -3.61665 4.93827 0
M  V30 916 N 77.9615 -4.80693 5.11741 0
M  V30 917 H 82.8015 -0.960358 2.82101 0
M  V30 918 H 80.3385 -0.462901 1.39627 0
M  V30 919 H 82.2965 -3.40596 2.40936 0
M  V30 920 H 80.9265 -2.91961 1.3769 0
M  V30 921 H 79.9785 -1.64132 3.43169 0
M  V30 922 H 81.2905 -2.34803 4.40079 0
M  V30 923 H 80.4445 -4.64938 3.89766 0
M  V30 924 H 79.1835 -3.97304 2.82844 0
M  V30 925 H 78.1885 -2.73244 4.77093 0
M  V30 926 H 79.4135 -3.43966 5.85546 0
M  V30 927 H 77.3595 -5.00181 4.24446 0
M  V30 928 H 77.2765 -4.67165 5.94384 0
M  V30 929 H 78.5445 -5.6893 5.3286 0
M  V30 930 N 82.7736 -1.49793 -0.48987 0
M  V30 931 C 83.7216 -1.67783 -1.61095 0
M  V30 932 C 84.7156 -0.543683 -1.60438 0
M  V30 933 O 85.9216 -0.723647 -1.64813 0
M  V30 934 H 82.2966 -0.529255 -0.534222 0
M  V30 935 H 84.2676 -2.61861 -1.43078 0
M  V30 936 C 83.0166 -1.77191 -2.99164 0
M  V30 937 H 82.3396 -2.63841 -3.0038 0
M  V30 938 H 83.7796 -1.93809 -3.77113 0
M  V30 939 C 82.2386 -0.519203 -3.32875 0
M  V30 940 O 82.7686 0.350124 -4.00171 0
M  V30 941 N 80.9746 -0.378816 -2.8812 0
M  V30 942 H 80.5216 -1.08725 -2.33531 0
M  V30 943 H 80.4796 0.458239 -3.11043 0
M  V30 944 N 84.2517 0.741722 -1.39055 0
M  V30 945 C 85.4977 1.50336 -1.36113 0
M  V30 946 C 85.8307 1.94148 0.0450796 0
M  V30 947 O 85.1057 1.66301 1.00868 0
M  V30 948 C 85.3887 2.74773 -2.32749 0
M  V30 949 C 85.2417 2.37023 -3.82283 0
M  V30 950 C 86.5607 3.76846 -2.27322 0
M  V30 951 H 83.6797 0.545351 -0.495743 0
M  V30 952 H 86.3217 0.848624 -1.69995 0
M  V30 953 H 84.4717 3.30639 -2.03986 0
M  V30 954 H 86.1437 1.8684 -4.21768 0
M  V30 955 H 84.3867 1.69334 -3.99385 0
M  V30 956 H 85.0577 3.26104 -4.45376 0
M  V30 957 H 87.5337 3.30548 -2.5274 0
M  V30 958 H 86.4097 4.6159 -2.97028 0
M  V30 959 H 86.6707 4.23286 -1.27599 0
M  V30 960 N 85.7298 1.2412 0.971189 0
M  V30 961 C 86.6598 1.05508 2.08304 0
M  V30 962 C 87.6408 -0.0308864 1.70072 0
M  V30 963 O 88.8258 0.135521 1.93727 0
M  V30 964 C 85.9558 0.655365 3.4106 0
M  V30 965 C 84.9098 1.68971 3.93234 0
M  V30 966 C 84.2358 1.14516 5.22293 0
M  V30 967 C 85.5358 3.08487 4.21465 0
M  V30 968 H 87.2298 1.98507 2.24132 0
M  V30 969 H 84.7758 0.955821 1.07704 0
M  V30 970 H 86.7288 0.51217 4.18276 0
M  V30 971 H 85.4528 -0.31032 3.25122 0
M  V30 972 H 84.1118 1.82106 3.18171 0
M  V30 973 H 83.7598 0.170189 5.02712 0
M  V30 974 H 83.4598 1.83635 5.58168 0
M  V30 975 H 84.9838 1.01401 6.02121 0
M  V30 976 H 86.3978 2.98601 4.89398 0
M  V30 977 H 84.7948 3.74926 4.68562 0
M  V30 978 H 85.8648 3.56787 3.28376 0
M  V30 979 N 87.2079 -1.17134 1.05439 0
M  V30 980 C 88.6239 -1.39454 0.776201 0
M  V30 981 C 88.8239 -1.91454 -0.628307 0
M  V30 982 O 87.8799 -2.10777 -1.39031 0
M  V30 983 C 89.1929 -2.38305 1.83388 0
M  V30 984 C 90.7409 -2.52006 1.85639 0
M  V30 985 C 91.2159 -3.54133 2.90437 0
M  V30 986 N 92.7069 -3.61653 2.89415 0
M  V30 987 C 93.4419 -4.4044 3.67152 0
M  V30 988 N 92.9379 -5.22721 4.54681 0
M  V30 989 N 94.7309 -4.35337 3.55581 0
M  V30 990 H 86.8819 -0.817134 1.96053 0
M  V30 991 H 89.1449 -0.421626 0.849079 0
M  V30 992 H 88.8509 -2.07173 2.84204 0
M  V30 993 H 88.7249 -3.37841 1.67761 0
M  V30 994 H 91.1119 -2.82447 0.85486 0
M  V30 995 H 91.1929 -1.52537 2.05344 0
M  V30 996 H 90.8369 -3.24431 3.90777 0
M  V30 997 H 90.7669 -4.53313 2.67983 0
M  V30 998 H 93.2579 -3.02909 2.25952 0
M  V30 999 H 93.5709 -5.80027 5.10674 0
M  V30 1000 H 91.9159 -5.22093 4.58741 0
M  V30 1001 H 95.1069 -3.70112 2.86592 0
M  V30 1002 H 95.2799 -4.96494 4.1641 0
M  V30 1003 N 88.686 -0.835752 -1.33615 0
M  V30 1004 C 89.934 -0.429109 -1.97492 0
M  V30 1005 C 90.255 1.01433 -1.66543 0
M  V30 1006 O 89.525 1.70611 -0.962744 0
M  V30 1007 H 88.105 -0.155686 -0.730596 0
M  V30 1008 H 90.767 -1.06802 -1.63031 0
M  V30 1009 H 89.863 -0.55861 -3.0706 0
M  V30 1010 N 90.1641 1.46063 -0.591896 0
M  V30 1011 C 91.0941 2.33172 0.123673 0
M  V30 1012 C 92.0751 1.45897 0.87453 0
M  V30 1013 O 93.2601 1.74698 0.848181 0
M  V30 1014 C 90.3901 3.28336 1.13194 0
M  V30 1015 C 89.3441 4.25124 0.495324 0
M  V30 1016 C 88.6701 5.09863 1.61071 0
M  V30 1017 C 89.9701 5.19143 -0.573425 0
M  V30 1018 H 91.6641 2.93252 -0.603646 0
M  V30 1019 H 89.2101 1.41014 -0.291741 0
M  V30 1020 H 91.1631 3.88137 1.64097 0
M  V30 1021 H 89.8871 2.66383 1.88965 0
M  V30 1022 H 88.5461 3.66599 0.00729452 0
M  V30 1023 H 88.1941 4.44288 2.35832 0
M  V30 1024 H 87.8941 5.75417 1.19035 0
M  V30 1025 H 89.4181 5.72529 2.12233 0
M  V30 1026 H 90.8321 5.73106 -0.1491 0
M  V30 1027 H 89.2291 5.93089 -0.914636 0
M  V30 1028 H 90.2991 4.62519 -1.45617 0
M  V30 1029 N 91.6422 0.330177 1.54103 0
M  V30 1030 C 92.5922 -0.548456 2.21305 0
M  V30 1031 C 93.5762 -1.07651 1.19583 0
M  V30 1032 O 94.7682 -1.01243 1.45186 0
M  V30 1033 C 91.8972 -1.70559 2.97934 0
M  V30 1034 C 90.9832 -1.19212 4.07 0
M  V30 1035 N 91.3742 -0.398831 5.04225 0
M  V30 1036 C 89.6722 -1.47024 4.2107 0
M  V30 1037 C 90.3732 -0.121761 5.81573 0
M  V30 1038 N 89.3492 -0.709722 5.38947 0
M  V30 1039 H 93.1512 0.0648483 2.93828 0
M  V30 1040 H 90.6652 0.136363 1.61826 0
M  V30 1041 H 92.6622 -2.34688 3.44568 0
M  V30 1042 H 91.3222 -2.32231 2.26934 0
M  V30 1043 H 92.3332 -0.0410869 5.17884 0
M  V30 1044 H 89.0102 -2.09232 3.61287 0
M  V30 1045 H 90.4002 0.517298 6.69906 0
M  V30 1046 N 93.1203 -1.57491 0.0584922 0
M  V30 1047 C 94.3673 -1.92978 -0.613648 0
M  V30 1048 C 94.6953 -0.937461 -1.70417 0
M  V30 1049 O 93.9503 0.049078 -1.95638 0
M  V30 1050 C 94.2493 -3.3513 -1.24188 0
M  V30 1051 C 93.9153 -4.50037 -0.278826 0
M  V30 1052 C 92.5773 -4.81198 -0.0138447 0
M  V30 1053 C 94.9293 -5.19807 0.380777 0
M  V30 1054 C 92.2573 -5.79473 0.918052 0
M  V30 1055 C 94.6093 -6.19079 1.30091 0
M  V30 1056 C 93.2733 -6.48665 1.57449 0
M  V30 1057 H 92.5433 -0.706157 -0.22455 0
M  V30 1058 H 95.1903 -1.91082 0.126533 0
M  V30 1059 H 93.4953 -3.33429 -2.05749 0
M  V30 1060 H 95.1923 -3.59871 -1.769 0
M  V30 1061 H 91.7823 -4.25726 -0.495539 0
M  V30 1062 H 95.9663 -4.95939 0.189158 0
M  V30 1063 H 91.2223 -6.00727 1.1374 0
M  V30 1064 H 95.3963 -6.7225 1.81804 0
M  V30 1065 H 93.0233 -7.24628 2.29822 0
M  V30 1066 N 94.5984 0.214957 -1.56127 0
M  V30 1067 C 95.5304 1.29004 -1.89448 0
M  V30 1068 C 96.5434 1.42716 -0.783326 0
M  V30 1069 O 97.7324 1.43496 -1.06166 0
M  V30 1070 C 94.8324 2.66482 -2.09381 0
M  V30 1071 C 94.0054 2.74633 -3.40434 0
M  V30 1072 C 93.0644 3.9317 -3.49719 0
M  V30 1073 O 92.0904 3.812 -4.227 0
M  V30 1074 N 93.2924 5.07765 -2.81346 0
M  V30 1075 H 96.0574 1.00743 -2.82261 0
M  V30 1076 H 93.6184 0.40497 -1.56753 0
M  V30 1077 H 95.6104 3.44173 -2.12901 0
M  V30 1078 H 94.1804 2.87314 -1.23163 0
M  V30 1079 H 93.4004 1.83368 -3.48955 0
M  V30 1080 H 94.6884 2.77054 -4.26754 0
M  V30 1081 H 94.0864 5.20386 -2.21843 0
M  V30 1082 H 92.6434 5.83474 -2.90519 0
M  V30 1083 N 96.0765 1.50051 0.48192 0
M  V30 1084 C 97.4925 1.37237 0.814756 0
M  V30 1085 C 97.6925 0.420109 1.97072 0
M  V30 1086 O 96.7485 -0.141246 2.52105 0
M  V30 1087 C 98.0615 2.78375 1.13701 0
M  V30 1088 C 99.6095 2.87213 1.2441 0
M  V30 1089 C 100.084 4.29161 1.59954 0
M  V30 1090 N 101.575 4.32061 1.66967 0
M  V30 1091 C 102.31 5.38879 1.95952 0
M  V30 1092 N 101.806 6.55918 2.23031 0
M  V30 1093 N 103.599 5.26312 1.97363 0
M  V30 1094 H 95.7505 2.10546 -0.28005 0
M  V30 1095 H 98.0135 0.945921 -0.0627454 0
M  V30 1096 H 97.7195 3.49845 0.360787 0
M  V30 1097 H 97.5935 3.14941 2.07586 0
M  V30 1098 H 99.9805 2.15969 2.01101 0
M  V30 1099 H 100.061 2.54204 0.285299 0
M  V30 1100 H 99.7055 5.00938 0.838067 0
M  V30 1101 H 99.6355 4.59648 2.56966 0
M  V30 1102 H 102.126 3.47661 1.48123 0
M  V30 1103 H 102.439 7.33139 2.44391 0
M  V30 1104 H 100.784 6.59112 2.20447 0
M  V30 1105 H 103.975 4.33876 1.75697 0
M  V30 1106 H 104.148 6.09649 2.19618 0
M  V30 1107 N 97.5546 -0.734337 1.39446 0
M  V30 1108 C 98.8026 -1.49096 1.36436 0
M  V30 1109 C 99.1236 -1.94961 -0.0388255 0
M  V30 1110 O 98.3936 -1.69033 -0.990191 0
M  V30 1111 H 96.9736 -0.5531 0.502085 0
M  V30 1112 H 99.6356 -0.871725 1.74319 0
M  V30 1113 H 98.7316 -2.37276 2.02747 0
M  V30 1114 N 99.0327 -1.24633 -0.964593 0
M  V30 1115 C 99.9427 -1.05859 -2.09359 0
M  V30 1116 C 100.959 0.00148855 -1.74 0
M  V30 1117 O 102.135 -0.197346 -2.00431 0
M  V30 1118 C 99.1997 -0.668879 -3.40187 0
M  V30 1119 C 98.2607 -1.80578 -3.89474 0
M  V30 1120 C 97.4937 -1.43457 -5.14058 0
M  V30 1121 O 97.7167 -0.325775 -5.69469 0
M  V30 1122 O 96.6507 -2.2613 -5.57807 0
M  V30 1123 H 100.477 -2.00516 -2.28094 0
M  V30 1124 H 98.0617 -1.03481 -1.0776 0
M  V30 1125 H 99.9437 -0.463211 -4.18846 0
M  V30 1126 H 98.6187 0.248536 -3.22744 0
M  V30 1127 H 97.5257 -2.06623 -3.11862 0
M  V30 1128 H 98.8587 -2.70208 -4.11398 0
M  V30 1129 N 100.511 1.16574 -1.06058 0
M  V30 1130 C 101.459 2.22941 -0.663343 0
M  V30 1131 C 102.453 1.66358 0.319593 0
M  V30 1132 O 103.659 1.7905 0.184713 0
M  V30 1133 H 100.034 0.725907 -0.196376 0
M  V30 1134 H 102.005 2.53736 -1.57037 0
M  V30 1135 C 100.754 3.47642 -0.0632808 0
M  V30 1136 H 100.077 3.91493 -0.810733 0
M  V30 1137 H 101.517 4.2363 0.177177 0
M  V30 1138 C 99.9758 3.1509 1.19248 0
M  V30 1139 O 100.506 3.30673 2.28075 0
M  V30 1140 N 98.7118 2.6924 1.09353 0
M  V30 1141 H 98.2588 2.5676 0.207912 0
M  V30 1142 H 98.2168 2.47833 1.93458 0
M  V30 1143 N 101.989 0.842826 1.3317 0
M  V30 1144 C 102.952 0.284065 2.27433 0
M  V30 1145 C 103.952 -0.54948 1.5112 0
M  V30 1146 O 105.142 -0.362699 1.70382 0
M  V30 1147 C 102.274 -0.599384 3.35589 0
M  V30 1148 H 103.467 1.11589 2.78366 0
M  V30 1149 H 101.02 0.616221 1.4364 0
M  V30 1150 H 101.755 -1.45349 2.89904 0
M  V30 1151 H 101.54 -0.00291266 3.921 0
M  V30 1152 H 103.03 -0.983488 4.05854 0
M  V30 1153 N 103.467 -1.45747 0.599634 0
M  V30 1154 C 104.399 -2.28628 -0.161879 0
M  V30 1155 C 105.412 -1.39494 -0.839367 0
M  V30 1156 O 106.601 -1.63941 -0.706089 0
M  V30 1157 C 103.701 -3.15014 -1.24976 0
M  V30 1158 C 102.874 -4.32378 -0.660935 0
M  V30 1159 C 101.933 -5.00033 -1.63869 0
M  V30 1160 O 100.959 -5.57085 -1.1681 0
M  V30 1161 N 102.161 -4.98589 -2.97303 0
M  V30 1162 H 104.926 -2.94624 0.549265 0
M  V30 1163 H 102.487 -1.55847 0.438565 0
M  V30 1164 H 104.479 -3.5714 -1.9035 0
M  V30 1165 H 103.049 -2.5098 -1.86354 0
M  V30 1166 H 102.269 -3.9383 0.170688 0
M  V30 1167 H 103.557 -5.08197 -0.247619 0
M  V30 1168 H 102.955 -4.53514 -3.38145 0
M  V30 1169 H 101.512 -5.44603 -3.58121 0
M  V30 1170 N 104.945 -0.338344 -1.53925 0
M  V30 1171 C 106.193 0.259245 -2.0043 0
M  V30 1172 C 106.514 1.51484 -1.22791 0
M  V30 1173 O 105.784 1.93037 -0.33368 0
M  V30 1174 H 104.364 0.0987845 -0.740439 0
M  V30 1175 H 107.026 -0.458302 -1.89435 0
M  V30 1176 H 106.122 0.505334 -3.07982 0
M  V30 1177 N 106.423 1.57458 -0.0668435 0
M  V30 1178 C 107.37 2.12439 0.902122 0
M  V30 1179 C 108.34 1.03565 1.2986 0
M  V30 1180 O 109.525 1.312 1.38532 0
M  V30 1181 C 106.665 2.6865 2.16614 0
M  V30 1182 C 105.778 3.91663 1.82274 0
M  V30 1183 C 104.913 4.36134 3.0325 0
M  V30 1184 C 103.952 5.51808 2.64904 0
M  V30 1185 N 103.089 5.9126 3.78624 0
M  V30 1186 H 107.929 2.94934 0.426382 0
M  V30 1187 H 105.466 1.4575 0.198819 0
M  V30 1188 H 107.424 2.99346 2.90599 0
M  V30 1189 H 106.054 1.88928 2.61737 0
M  V30 1190 H 105.106 3.6746 0.983719 0
M  V30 1191 H 106.418 4.75693 1.50059 0
M  V30 1192 H 105.572 4.68465 3.85519 0
M  V30 1193 H 104.311 3.50948 3.38655 0
M  V30 1194 H 103.316 5.19133 1.81055 0
M  V30 1195 H 104.541 6.38722 2.30675 0
M  V30 1196 H 102.487 5.09024 4.138 0
M  V30 1197 H 102.404 6.70018 3.5016 0
M  V30 1198 H 103.672 6.28212 4.61486 0
M  V30 1199 N 107.901 -0.206675 1.56239 0
M  V30 1200 C 108.831 -1.25909 1.96645 0
M  V30 1201 C 109.812 -1.48097 0.836734 0
M  V30 1202 O 110.997 -1.6003 1.10019 0
M  V30 1203 C 108.127 -2.6058 2.29599 0
M  V30 1204 C 107.081 -2.53024 3.452 0
M  V30 1205 C 106.407 -3.91861 3.63798 0
M  V30 1206 C 107.707 -2.06524 4.79734 0
M  V30 1207 H 109.401 -0.923369 2.84806 0
M  V30 1208 H 106.947 -0.442735 1.37025 0
M  V30 1209 H 108.9 -3.34375 2.56459 0
M  V30 1210 H 107.624 -2.95869 1.38307 0
M  V30 1211 H 106.283 -1.81684 3.18412 0
M  V30 1212 H 105.931 -4.24483 2.69857 0
M  V30 1213 H 105.631 -3.87683 4.4156 0
M  V30 1214 H 107.155 -4.67296 3.93022 0
M  V30 1215 H 108.569 -2.70072 5.05702 0
M  V30 1216 H 106.966 -2.13374 5.60885 0
M  V30 1217 H 108.036 -1.01802 4.74093 0
M  V30 1218 N 109.379 -1.50304 -0.473955 0
M  V30 1219 C 110.625 -1.61389 -1.22806 0
M  V30 1220 C 110.958 -0.311955 -1.91678 0
M  V30 1221 O 110.233 0.686384 -1.81986 0
M  V30 1222 C 110.516 -2.79219 -2.27396 0
M  V30 1223 C 110.369 -4.19286 -1.62848 0
M  V30 1224 C 111.688 -2.92614 -3.28732 0
M  V30 1225 H 108.807 -0.587399 -0.445119 0
M  V30 1226 H 111.449 -1.82681 -0.522265 0
M  V30 1227 H 109.599 -2.61195 -2.87592 0
M  V30 1228 H 111.271 -4.48892 -1.06271 0
M  V30 1229 H 109.514 -4.23677 -0.931693 0
M  V30 1230 H 110.185 -4.97655 -2.38838 0
M  V30 1231 H 112.661 -3.09105 -2.78556 0
M  V30 1232 H 111.537 -3.76688 -3.99246 0
M  V30 1233 H 111.798 -2.03107 -3.92683 0
M  V30 1234 N 110.857 0.726932 -1.39834 0
M  V30 1235 C 112.273 1.03354 -1.21615 0
M  V30 1236 C 112.473 2.01327 -0.08338 0
M  V30 1237 O 111.529 2.46158 0.56238 0
M  V30 1238 C 112.842 1.58811 -2.55342 0
M  V30 1239 C 114.39 1.70851 -2.62257 0
M  V30 1240 C 114.865 2.29716 -3.96225 0
M  V30 1241 N 116.356 2.37116 -3.97907 0
M  V30 1242 C 117.091 2.83619 -4.98345 0
M  V30 1243 N 116.587 3.29958 -6.09179 0
M  V30 1244 N 118.38 2.82901 -4.8572 0
M  V30 1245 H 110.531 0.0773069 -2.12259 0
M  V30 1246 H 112.794 0.0969102 -0.943034 0
M  V30 1247 H 112.5 0.942855 -3.38826 0
M  V30 1248 H 112.374 2.57502 -2.75632 0
M  V30 1249 H 114.761 2.34497 -1.79152 0
M  V30 1250 H 114.842 0.707913 -2.45809 0
M  V30 1251 H 114.486 1.66696 -4.79765 0
M  V30 1252 H 114.416 3.30469 -4.09997 0
M  V30 1253 H 116.907 2.04374 -3.17868 0
M  V30 1254 H 117.22 3.63976 -6.8172 0
M  V30 1255 H 115.565 3.27946 -6.12761 0
M  V30 1256 H 118.756 2.46027 -3.98231 0
M  V30 1257 H 118.929 3.18827 -5.6414 0
M  V30 1258 N 112.336 1.25143 0.95797 0
M  V30 1259 C 113.576 1.10893 1.71703 0
M  V30 1260 C 113.94 -0.34478 1.88879 0
M  V30 1261 O 115.141 -0.609014 2.6181 0
M  V30 1262 C 113.412 1.83889 3.06463 0
M  V30 1263 S 114.971 1.85491 3.97666 0
M  V30 1264 H 111.789 0.396428 0.590226 0
M  V30 1265 H 114.391 1.58618 1.14283 0
M  V30 1266 H 113.095 2.88756 2.9163 0
M  V30 1267 H 112.626 1.36538 3.68946 0
M  V30 1268 H 114.641 0.929553 4.87415 0
M  V30 1269 N 113.814 -1.1601 1.06675 0
M  V30 1270 C 114.777 -2.18724 0.685001 0
M  V30 1271 C 115.777 -1.58496 -0.271246 0
M  V30 1272 O 116.967 -1.74119 -0.0531156 0
M  V30 1273 C 114.099 -3.40899 0.00853648 0
M  V30 1274 H 115.292 -2.54011 1.59431 0
M  V30 1275 H 112.845 -1.30352 0.862441 0
M  V30 1276 H 113.58 -3.11173 -0.913337 0
M  V30 1277 H 113.365 -3.8587 0.696204 0
M  V30 1278 H 114.855 -4.16886 -0.24414 0
M  V30 1279 N 115.292 -0.849877 -1.32721 0
M  V30 1280 C 116.538 -0.451591 -1.97708 0
M  V30 1281 C 116.871 0.989175 -1.6712 0
M  V30 1282 O 116.146 1.69334 -0.956891 0
M  V30 1283 C 116.429 -0.685598 -3.53513 0
M  V30 1284 C 116.282 -2.17444 -3.93749 0
M  V30 1285 C 117.601 -0.138874 -4.39881 0
M  V30 1286 H 114.72 -0.16555 -0.718166 0
M  V30 1287 H 117.362 -1.06742 -1.57182 0
M  V30 1288 H 115.512 -0.161416 -3.88165 0
M  V30 1289 H 117.184 -2.76433 -3.693 0
M  V30 1290 H 115.427 -2.65476 -3.43081 0
M  V30 1291 H 116.098 -2.28888 -5.02309 0
M  V30 1292 H 118.574 -0.587068 -4.11938 0
M  V30 1293 H 117.45 -0.332213 -5.47894 0
M  V30 1294 H 117.711 0.95806 -4.31594 0
M  V30 1295 N 116.77 1.45427 -0.607355 0
M  V30 1296 C 118.018 2.01841 -0.102253 0
M  V30 1297 C 118.339 1.47832 1.27164 0
M  V30 1298 O 117.609 0.672497 1.83995 0
M  V30 1299 H 116.189 0.746188 -0.0348101 0
M  V30 1300 H 118.851 1.78229 -0.7887 0
M  V30 1301 H 117.947 3.12057 -0.0518585 0
M  V30 1302 N 118.248 0.346503 1.53744 0
M  V30 1303 C 119.158 -0.517293 2.28826 0
M  V30 1304 C 120.174 -1.10935 1.3405 0
M  V30 1305 O 121.35 -1.1244 1.6709 0
M  V30 1306 C 118.415 -1.65098 3.04866 0
M  V30 1307 C 117.476 -1.0884 4.15274 0
M  V30 1308 C 116.709 -2.16806 4.87679 0
M  V30 1309 O 116.932 -3.3758 4.59778 0
M  V30 1310 O 115.866 -1.80934 5.74061 0
M  V30 1311 H 119.692 0.0931396 3.03557 0
M  V30 1312 H 117.277 0.111458 1.48984 0
M  V30 1313 H 119.159 -2.31053 3.5241 0
M  V30 1314 H 117.834 -2.24717 2.32989 0
M  V30 1315 H 116.741 -0.3933 3.72027 0
M  V30 1316 H 118.074 -0.537036 4.89261 0
M  V30 1317 N 119.726 -1.57421 0.075193 0
M  V30 1318 C 120.972 -1.93905 -0.594025 0
M  V30 1319 C 121.305 -0.955701 -1.69056 0
M  V30 1320 O 120.58 0.0145373 -1.94495 0
M  V30 1321 C 120.863 -3.40638 -1.1678 0
M  V30 1322 C 120.716 -4.49733 -0.0776792 0
M  V30 1323 C 122.035 -3.88259 -2.07228 0
M  V30 1324 H 119.154 -0.705105 -0.214466 0
M  V30 1325 H 121.796 -1.8947 0.141854 0
M  V30 1326 H 119.946 -3.44549 -1.79494 0
M  V30 1327 H 121.618 -4.57942 0.555573 0
M  V30 1328 H 119.861 -4.29751 0.591286 0
M  V30 1329 H 120.532 -5.49549 -0.519603 0
M  V30 1330 H 123.008 -3.86376 -1.54445 0
M  V30 1331 H 121.884 -4.91533 -2.44308 0
M  V30 1332 H 122.145 -3.26396 -2.98191 0
M  V30 1333 N 121.204 0.198386 -1.56346 0
M  V30 1334 C 122.451 0.919286 -1.80431 0
M  V30 1335 C 122.779 1.83393 -0.647866 0
M  V30 1336 O 122.034 1.92236 0.366556 0
M  V30 1337 C 122.333 1.77031 -3.10475 0
M  V30 1338 C 121.999 1.00693 -4.39513 0
M  V30 1339 C 120.661 0.796145 -4.74568 0
M  V30 1340 C 123.013 0.469559 -5.19081 0
M  V30 1341 C 120.341 0.0364588 -5.86689 0
M  V30 1342 C 122.693 -0.2769 -6.31994 0
M  V30 1343 C 121.357 -0.49873 -6.65634 0
M  V30 1344 H 120.627 0.336391 -0.660244 0
M  V30 1345 H 123.274 0.185872 -1.90596 0
M  V30 1346 H 121.579 2.5723 -2.95533 0
M  V30 1347 H 123.276 2.33065 -3.26315 0
M  V30 1348 H 119.866 1.18122 -4.12001 0
M  V30 1349 H 124.05 0.619816 -4.92414 0
M  V30 1350 H 119.306 -0.145412 -6.11227 0
M  V30 1351 H 123.48 -0.700684 -6.92866 0
M  V30 1352 H 121.107 -1.0893 -7.52355 0
M  V30 1353 N 122.682 1.50554 0.465978 0
M  V30 1354 C 123.959 1.5232 1.22712 0
M  V30 1355 C 124.339 0.270807 2.09356 0
M  V30 1356 O 123.687 -0.745541 2.15995 0
M  V30 1357 C 123.897 2.82175 2.05374 0
M  V30 1358 C 125.245 3.33033 2.6339 0
M  V30 1359 O 126.269 2.83531 2.15612 0
M  V30 1360 O 125.128 4.19336 3.50456 0
M  V30 1361 H 122.222 0.611183 0.557122 0
M  V30 1362 H 124.768 1.62847 0.477381 0
M  V30 1363 H 123.54 3.64797 1.41558 0
M  V30 1364 H 123.163 2.74675 2.87471 0
M  V30 1365 N 124.16 -0.719506 1.40217 0
M  V30 1366 C 125.406 -1.48152 1.38488 0
M  V30 1367 C 125.739 -1.94195 -0.0141867 0
M  V30 1368 O 125.014 -1.67884 -0.982096 0
M  V30 1369 C 125.297 -2.71035 2.37091 0
M  V30 1370 C 125.15 -2.30912 3.86005 0
M  V30 1371 C 126.469 -3.73182 2.33288 0
M  V30 1372 H 123.588 -0.537395 0.504357 0
M  V30 1373 H 126.23 -0.821472 1.71324 0
M  V30 1374 H 124.38 -3.27352 2.0922 0
M  V30 1375 H 126.052 -1.80107 4.24687 0
M  V30 1376 H 124.295 -1.62958 4.02029 0
M  V30 1377 H 124.966 -3.18978 4.50508 0
M  V30 1378 H 127.442 -3.26485 2.57966 0
M  V30 1379 H 126.318 -4.56806 3.04334 0
M  V30 1380 H 126.579 -4.21202 1.34317 0
M  V30 1381 N 125.638 -1.25649 -0.95132 0
M  V30 1382 C 126.601 -1.06399 -2.03007 0
M  V30 1383 C 127.601 -0.0156794 -1.60792 0
M  V30 1384 O 128.791 -0.25817 -1.72276 0
M  V30 1385 C 125.923 -0.616184 -3.35285 0
M  V30 1386 H 127.116 -2.02164 -2.21517 0
M  V30 1387 H 124.669 -1.08103 -1.12887 0
M  V30 1388 H 125.404 0.343917 -3.22471 0
M  V30 1389 H 125.189 -1.37301 -3.67275 0
M  V30 1390 H 126.679 -0.503032 -4.14559 0
M  V30 1391 N 127.117 1.15442 -1.07289 0
M  V30 1392 C 128.363 1.86489 -0.796846 0
M  V30 1393 C 128.696 1.82078 0.675371 0
M  V30 1394 O 127.971 1.24346 1.4956 0
M  V30 1395 C 128.254 3.35626 -1.30489 0
M  V30 1396 C 128.107 3.48673 -2.84161 0
M  V30 1397 C 129.426 4.30357 -0.920907 0
M  V30 1398 H 126.545 0.677144 -0.290939 0
M  V30 1399 H 129.187 1.35633 -1.33056 0
M  V30 1400 H 127.337 3.79068 -0.850883 0
M  V30 1401 H 129.009 3.14099 -3.37846 0
M  V30 1402 H 127.252 2.90253 -3.22391 0
M  V30 1403 H 127.923 4.53453 -3.14777 0
M  V30 1404 H 130.399 3.94871 -1.3121 0
M  V30 1405 H 129.275 5.33193 -1.30372 0
M  V30 1406 H 129.536 4.4176 0.173226 0
M  V30 1407 N 128.595 0.856903 1.32268 0
M  V30 1408 C 129.872 0.382583 1.91822 0
M  V30 1409 C 130.252 -1.13407 1.78051 0
M  V30 1410 O 129.6 -1.95673 1.18001 0
M  V30 1411 C 129.81 0.849446 3.38505 0
M  V30 1412 C 131.158 0.867936 4.15634 0
M  V30 1413 O 132.182 0.794232 3.47232 0
M  V30 1414 O 131.041 0.972286 5.37781 0
M  V30 1415 H 128.135 0.112014 0.819379 0
M  V30 1416 H 130.681 0.943952 1.41024 0
M  V30 1417 H 129.453 1.89267 3.42482 0
M  V30 1418 H 129.076 0.265652 3.96712 0
M  V30 1419 N 130.073 -1.45103 0.615059 0
M  V30 1420 C 131.322 -2.01396 0.110718 0
M  V30 1421 C 131.635 -1.48834 -1.26916 0
M  V30 1422 O 132.841 -1.97152 -1.86664 0
M  V30 1423 C 131.297 -3.59599 0.14723 0
M  V30 1424 C 130.905 -4.21158 1.52743 0
M  V30 1425 C 132.649 -4.23428 -0.30148 0
M  V30 1426 C 130.556 -5.71535 1.51992 0
M  V30 1427 H 129.486 -0.753061 0.0376241 0
M  V30 1428 H 132.137 -1.66494 0.77149 0
M  V30 1429 H 130.519 -3.91724 -0.580339 0
M  V30 1430 H 131.693 -4.00594 2.2773 0
M  V30 1431 H 130.008 -3.69552 1.91886 0
M  V30 1432 H 132.605 -5.33703 -0.326392 0
M  V30 1433 H 132.948 -3.94629 -1.32565 0
M  V30 1434 H 133.481 -3.96047 0.373065 0
M  V30 1435 H 130.22 -6.05044 2.52193 0
M  V30 1436 H 129.74 -5.94268 0.81274 0
M  V30 1437 H 131.419 -6.34873 1.24681 0
M  V30 1438 N 131.551 -0.354651 -1.53558 0
M  V30 1439 C 132.967 -0.00315426 -1.596 0
M  V30 1440 C 133.167 1.47741 -1.37021 0
M  V30 1441 O 132.223 2.23759 -1.16996 0
M  V30 1442 C 133.536 -0.44929 -2.97325 0
M  V30 1443 C 135.084 -0.402578 -3.104 0
M  V30 1444 C 135.559 -0.824355 -4.5052 0
M  V30 1445 N 137.05 -0.778979 -4.56603 0
M  V30 1446 C 137.785 -1.07715 -5.63192 0
M  V30 1447 N 137.281 -1.44405 -6.77583 0
M  V30 1448 N 139.074 -1.00066 -5.53121 0
M  V30 1449 H 131.225 -1.31893 -1.66487 0
M  V30 1450 H 133.488 -0.538388 -0.780284 0
M  V30 1451 H 133.194 -1.48202 -3.1895 0
M  V30 1452 H 133.068 0.169772 -3.76818 0
M  V30 1453 H 135.455 0.621004 -2.88492 0
M  V30 1454 H 135.536 -1.05699 -2.32941 0
M  V30 1455 H 135.18 -1.846 -4.73165 0
M  V30 1456 H 135.11 -0.147304 -5.26394 0
M  V30 1457 H 137.601 -0.508528 -3.74463 0
M  V30 1458 H 137.914 -1.65612 -7.54846 0
M  V30 1459 H 136.259 -1.4826 -6.79002 0
M  V30 1460 H 139.45 -0.713293 -4.62633 0
M  V30 1461 H 139.623 -1.23638 -6.36096 0
M  V30 1462 N 133.029 1.57378 -0.0835403 0
M  V30 1463 C 133.976 2.13384 0.879539 0
M  V30 1464 C 134.946 1.04936 1.28754 0
M  V30 1465 O 136.131 1.32662 1.37133 0
M  V30 1466 C 133.271 2.70932 2.13752 0
M  V30 1467 C 132.384 3.93575 1.7811 0
M  V30 1468 C 131.519 4.39326 2.98607 0
M  V30 1469 C 130.558 5.54587 2.59037 0
M  V30 1470 N 129.695 5.95243 3.72331 0
M  V30 1471 H 134.535 2.9537 0.395076 0
M  V30 1472 H 132.072 1.45953 0.183349 0
M  V30 1473 H 134.03 3.02411 2.87408 0
M  V30 1474 H 132.66 1.91693 2.59718 0
M  V30 1475 H 131.712 3.68483 0.94469 0
M  V30 1476 H 133.024 4.77258 1.45005 0
M  V30 1477 H 132.178 4.72528 3.80529 0
M  V30 1478 H 130.917 3.5452 3.34913 0
M  V30 1479 H 129.922 5.21024 1.75539 0
M  V30 1480 H 131.147 6.41133 2.23887 0
M  V30 1481 H 129.093 5.13385 4.08378 0
M  V30 1482 H 129.01 6.73694 3.43034 0
M  V30 1483 H 130.278 6.33072 4.54797 0
M  V30 1484 N 134.507 -0.190092 1.56449 0
M  V30 1485 C 135.417 -1.25591 1.98152 0
M  V30 1486 C 136.433 -1.49519 0.889944 0
M  V30 1487 O 137.609 -1.62036 1.19609 0
M  V30 1488 C 134.674 -2.57916 2.3169 0
M  V30 1489 C 133.735 -2.42015 3.5458 0
M  V30 1490 C 132.968 -3.6803 3.8651 0
M  V30 1491 O 133.191 -4.72413 3.1966 0
M  V30 1492 O 132.125 -3.6326 4.79923 0
M  V30 1493 H 135.951 -0.931988 2.89046 0
M  V30 1494 H 133.536 -0.395488 1.4407 0
M  V30 1495 H 135.418 -3.36008 2.54316 0
M  V30 1496 H 134.093 -2.89925 1.43963 0
M  V30 1497 H 133 -1.62017 3.37196 0
M  V30 1498 H 134.333 -2.14937 4.4279 0
M  V30 1499 N 135.985 -1.50799 -0.457987 0
M  V30 1500 C 137.21 -1.66496 -1.23668 0
M  V30 1501 C 137.635 -0.353288 -1.84752 0
M  V30 1502 O 136.993 0.684346 -1.67888 0
M  V30 1503 C 137.041 -2.76763 -2.3116 0
M  V30 1504 O 136.145 -2.38928 -3.36136 0
M  V30 1505 H 135.486 -0.555828 -0.363252 0
M  V30 1506 H 138.016 -1.9725 -0.543474 0
M  V30 1507 H 138.026 -3.00232 -2.76269 0
M  V30 1508 H 136.701 -3.71954 -1.86073 0
M  V30 1509 H 135.278 -2.25953 -2.96647 0
M  V30 1510 N 137.463 0.71206 -1.40597 0
M  V30 1511 C 138.874 1.29135 -1.34837 0
M  V30 1512 C 139.225 1.96186 -0.0235395 0
M  V30 1513 O 138.35 1.97768 0.878444 0
M  V30 1514 C 138.945 2.34827 -2.44217 0
M  V30 1515 C 137.504 2.88371 -2.41907 0
M  V30 1516 C 136.651 1.62202 -2.24913 0
M  V30 1517 H 139.602 0.507944 -1.50352 0
M  V30 1518 H 139.623 3.15749 -2.12327 0
M  V30 1519 H 139.135 1.85996 -3.40627 0
M  V30 1520 H 137.236 3.41422 -1.49204 0
M  V30 1521 H 137.349 3.39925 -3.37621 0
M  V30 1522 H 135.713 1.874 -1.72492 0
M  V30 1523 H 136.496 1.15391 -3.23326 0
M  V30 1524 N 138.941 1.26152 0.944643 0
M  V30 1525 C 140.169 1.14259 1.72489 0
M  V30 1526 C 140.584 -0.302555 1.8636 0
M  V30 1527 O 139.941 -1.20741 1.36849 0
M  V30 1528 C 139.992 1.80266 3.13347 0
M  V30 1529 O 139.713 3.19133 3.00143 0
M  V30 1530 C 141.214 1.74283 4.07603 0
M  V30 1531 H 138.434 0.398051 0.540181 0
M  V30 1532 H 140.978 1.66706 1.18446 0
M  V30 1533 H 139.133 1.31766 3.64303 0
M  V30 1534 H 139.547 3.51744 3.89071 0
M  V30 1535 H 141.021 2.25111 5.04013 0
M  V30 1536 H 141.498 0.708631 4.33446 0
M  V30 1537 H 142.104 2.22319 3.62567 0
M  V30 1538 N 140.419 -1.14872 1.07899 0
M  V30 1539 C 141.666 -1.85789 0.805532 0
M  V30 1540 C 141.994 -1.82649 -0.668561 0
M  V30 1541 O 141.249 -1.24858 -1.50695 0
M  V30 1542 C 141.548 -3.34223 1.26609 0
M  V30 1543 C 141.214 -3.57555 2.74709 0
M  V30 1544 C 139.876 -3.63631 3.1516 0
M  V30 1545 C 142.228 -3.66803 3.70277 0
M  V30 1546 C 139.556 -3.76473 4.49983 0
M  V30 1547 C 141.908 -3.8117 5.04869 0
M  V30 1548 C 140.572 -3.85494 5.44932 0
M  V30 1549 H 139.842 -0.679849 0.294765 0
M  V30 1550 H 142.489 -1.3572 1.35101 0
M  V30 1551 H 140.794 -3.86536 0.640103 0
M  V30 1552 H 142.491 -3.87511 1.03132 0
M  V30 1553 H 139.081 -3.5347 2.42398 0
M  V30 1554 H 143.265 -3.61404 3.40149 0
M  V30 1555 H 138.521 -3.7808 4.80484 0
M  V30 1556 H 142.695 -3.87268 5.78789 0
M  V30 1557 H 140.322 -3.95197 6.49403 0
M  V30 1558 N 141.898 -0.863906 -1.31812 0
M  V30 1559 C 143.146 -0.470904 -1.96537 0
M  V30 1560 C 143.467 0.978771 -1.68657 0
M  V30 1561 O 142.737 1.6853 -0.998717 0
M  V30 1562 H 141.317 -0.171148 -0.72713 0
M  V30 1563 H 143.979 -1.10236 -1.60729 0
M  V30 1564 H 143.075 -0.623616 -3.05806 0
M  V30 1565 N 143.376 1.44774 -0.622745 0
M  V30 1566 C 144.308 2.28856 0.125485 0
M  V30 1567 C 145.321 1.40811 0.817069 0
M  V30 1568 O 146.51 1.65044 0.679918 0
M  V30 1569 C 143.61 3.16963 1.19949 0
M  V30 1570 C 142.783 4.33374 0.592064 0
M  V30 1571 C 141.842 5.02577 1.55893 0
M  V30 1572 O 140.868 5.58873 1.07933 0
M  V30 1573 N 142.07 5.03256 2.89334 0
M  V30 1574 H 144.835 2.93713 -0.596068 0
M  V30 1575 H 142.396 1.55129 -0.463303 0
M  V30 1576 H 144.388 3.60123 1.84644 0
M  V30 1577 H 142.958 2.53913 1.82337 0
M  V30 1578 H 142.178 3.93509 -0.233322 0
M  V30 1579 H 143.466 5.08527 0.166738 0
M  V30 1580 H 142.864 4.58836 3.30887 0
M  V30 1581 H 141.421 5.50232 3.49412 0
M  V30 1582 N 144.854 0.36279 1.53368 0
M  V30 1583 C 146.1 -0.220702 2.02199 0
M  V30 1584 C 146.455 -1.46649 1.24546 0
M  V30 1585 O 145.748 -1.88737 0.32996 0
M  V30 1586 C 145.942 -0.568417 3.52851 0
M  V30 1587 C 145.771 0.642126 4.45092 0
M  V30 1588 C 144.541 1.15335 4.91961 0
M  V30 1589 C 146.739 1.50649 4.91741 0
M  V30 1590 N 144.721 2.3242 5.68202 0
M  V30 1591 C 146.092 2.52404 5.66297 0
M  V30 1592 C 148.147 1.52969 4.73819 0
M  V30 1593 C 146.85 3.56331 6.24836 0
M  V30 1594 C 148.876 2.55789 5.33222 0
M  V30 1595 C 148.238 3.56268 6.07662 0
M  V30 1596 H 144.337 -0.0435508 0.780786 0
M  V30 1597 H 146.921 0.506704 1.87991 0
M  V30 1598 H 145.092 -1.2649 3.67226 0
M  V30 1599 H 146.824 -1.13676 3.88407 0
M  V30 1600 H 143.579 0.718412 4.68119 0
M  V30 1601 H 144.003 2.91591 6.10986 0
M  V30 1602 H 148.645 0.766418 4.15795 0
M  V30 1603 H 146.363 4.33543 6.81958 0
M  V30 1604 H 149.949 2.58435 5.21251 0
M  V30 1605 H 148.829 4.34524 6.52808 0
M  V30 1606 N 146.332 -1.57332 0.0918853 0
M  V30 1607 C 147.578 -1.94524 -0.573425 0
M  V30 1608 C 147.911 -0.973578 -1.68033 0
M  V30 1609 O 147.186 -0.00609226 -1.94499 0
M  V30 1610 C 147.469 -3.41858 -1.13161 0
M  V30 1611 C 147.322 -4.4979 -0.0299747 0
M  V30 1612 C 148.641 -3.90435 -2.03098 0
M  V30 1613 H 145.76 -0.70734 -0.206975 0
M  V30 1614 H 148.402 -1.89309 0.161942 0
M  V30 1615 H 146.552 -3.46433 -1.7583 0
M  V30 1616 H 148.224 -4.57327 0.604112 0
M  V30 1617 H 146.467 -4.291 0.636833 0
M  V30 1618 H 147.138 -5.50069 -0.461287 0
M  V30 1619 H 149.614 -3.87992 -1.50338 0
M  V30 1620 H 148.49 -4.94097 -2.39081 0
M  V30 1621 H 148.751 -3.29541 -2.94712 0
M  V30 1622 N 147.81 0.181792 -1.56548 0
M  V30 1623 C 149.058 0.89832 -1.81038 0
M  V30 1624 C 149.379 1.83232 -0.667164 0
M  V30 1625 O 148.649 1.93372 0.313673 0
M  V30 1626 H 147.229 0.33471 -0.667816 0
M  V30 1627 H 149.891 0.184116 -1.94028 0
M  V30 1628 H 148.987 1.4815 -2.74696 0
M  V30 1629 N 149.288 1.51039 0.449983 0
M  V30 1630 C 150.534 1.63322 1.20223 0
M  V30 1631 C 150.867 0.34241 1.91158 0
M  V30 1632 O 150.142 -0.657344 1.83055 0
M  V30 1633 C 150.425 2.82801 2.22925 0
M  V30 1634 C 150.278 4.21823 1.56157 0
M  V30 1635 C 151.597 2.97807 3.24035 0
M  V30 1636 H 148.716 0.594407 0.435718 0
M  V30 1637 H 151.358 1.83489 0.493136 0
M  V30 1638 H 149.508 2.65738 2.834 0
M  V30 1639 H 151.18 4.50526 0.991162 0
M  V30 1640 H 149.423 4.25105 0.864172 0
M  V30 1641 H 150.094 5.01391 2.30891 0
M  V30 1642 H 152.57 3.13497 2.73603 0
M  V30 1643 H 151.446 3.82992 3.93202 0
M  V30 1644 H 151.707 2.09328 3.89402 0
M  V30 1645 N 150.766 -0.704594 1.40972 0
M  V30 1646 C 151.714 -1.83994 1.42299 0
M  V30 1647 C 152.708 -1.66684 0.302111 0
M  V30 1648 O 153.914 -1.73655 0.473697 0
M  V30 1649 H 150.289 -0.606171 0.44504 0
M  V30 1650 H 152.26 -1.79992 2.38003 0
M  V30 1651 C 151.009 -3.21946 1.31323 0
M  V30 1652 H 150.332 -3.35878 2.16855 0
M  V30 1653 H 151.772 -4.01491 1.36311 0
M  V30 1654 C 150.231 -3.36891 0.0245977 0
M  V30 1655 O 150.761 -3.90687 -0.934153 0
M  V30 1656 N 148.967 -2.90559 -0.0485243 0
M  V30 1657 H 148.514 -2.46968 0.732419 0
M  V30 1658 H 148.472 -3.00937 -0.910171 0
M  V30 1659 N 152.244 -1.26651 -0.937939 0
M  V30 1660 C 153.174 -1.10993 -2.05433 0
M  V30 1661 C 154.155 -0.0142161 -1.70094 0
M  V30 1662 O 155.34 -0.186837 -1.93299 0
M  V30 1663 C 152.47 -0.745561 -3.39203 0
M  V30 1664 C 151.424 -1.79337 -3.88616 0
M  V30 1665 C 150.75 -1.28324 -5.19073 0
M  V30 1666 C 152.05 -3.19553 -4.13138 0
M  V30 1667 H 153.744 -2.0438 -2.1879 0
M  V30 1668 H 151.29 -0.984041 -1.05131 0
M  V30 1669 H 153.243 -0.622888 -4.16771 0
M  V30 1670 H 151.967 0.22401 -3.25831 0
M  V30 1671 H 150.626 -1.90477 -3.13231 0
M  V30 1672 H 150.274 -0.303414 -5.02084 0
M  V30 1673 H 149.974 -1.98369 -5.53103 0
M  V30 1674 H 151.498 -1.1733 -5.99221 0
M  V30 1675 H 152.912 -3.11471 -4.81309 0
M  V30 1676 H 151.309 -3.87218 -4.58457 0
M  V30 1677 H 152.379 -3.65368 -3.18801 0
M  V30 1678 N 153.722 1.14298 -1.08507 0
M  V30 1679 C 154.947 1.8976 -0.837001 0
M  V30 1680 C 155.372 1.78097 0.605228 0
M  V30 1681 O 154.73 1.12188 1.4242 0
M  V30 1682 C 154.778 3.37685 -1.26495 0
M  V30 1683 O 153.882 4.10281 -0.417514 0
M  V30 1684 H 153.223 0.590365 -0.303917 0
M  V30 1685 H 155.753 1.44672 -1.44676 0
M  V30 1686 H 155.763 3.88501 -1.24625 0
M  V30 1687 H 154.438 3.45492 -2.31534 0
M  V30 1688 H 153.015 3.69536 -0.499722 0
M  V30 1689 N 155.201 0.870884 1.31352 0
M  V30 1690 C 156.164 0.332243 2.26779 0
M  V30 1691 C 157.164 -0.517302 1.52252 0
M  V30 1692 O 158.354 -0.326477 1.71113 0
M  V30 1693 C 155.486 -0.528066 3.36785 0
M  V30 1694 H 156.679 1.17469 2.75937 0
M  V30 1695 H 154.232 0.64655 1.423 0
M  V30 1696 H 154.967 -1.39167 2.92922 0
M  V30 1697 H 154.752 0.0802582 3.92018 0
M  V30 1698 H 156.242 -0.897179 4.07849 0
M  V30 1699 N 156.679 -1.44442 0.630414 0
M  V30 1700 C 157.589 -2.34476 -0.0761693 0
M  V30 1701 C 158.605 -1.52576 -0.836449 0
M  V30 1702 O 159.781 -1.85307 -0.788874 0
M  V30 1703 C 156.846 -3.30545 -1.04599 0
M  V30 1704 C 155.907 -4.28352 -0.28516 0
M  V30 1705 C 155.14 -5.19831 -1.20878 0
M  V30 1706 O 155.363 -5.15223 -2.44747 0
M  V30 1707 O 154.297 -5.97892 -0.693491 0
M  V30 1708 H 158.123 -2.96345 0.664324 0
M  V30 1709 H 155.708 -1.44203 0.39061 0
M  V30 1710 H 157.59 -3.89681 -1.60396 0
M  V30 1711 H 156.265 -2.7121 -1.76711 0
M  V30 1712 H 155.172 -3.72764 0.315837 0
M  V30 1713 H 156.505 -4.90605 0.395924 0
M  V30 1714 N 158.157 -0.370918 -1.53173 0
M  V30 1715 C 159.105 0.488101 -2.27421 0
M  V30 1716 C 160.099 1.07884 -1.30604 0
M  V30 1717 O 161.305 1.02143 -1.48212 0
M  V30 1718 H 157.68 0.176134 -0.731082 0
M  V30 1719 H 159.651 -0.159815 -2.97972 0
M  V30 1720 C 158.4 1.61306 -3.08019 0
M  V30 1721 H 157.723 1.1678 -3.82364 0
M  V30 1722 H 159.163 2.18872 -3.63141 0
M  V30 1723 C 157.622 2.55848 -2.19188 0
M  V30 1724 O 158.152 3.58799 -1.80626 0
M  V30 1725 N 156.358 2.2516 -1.83715 0
M  V30 1726 H 155.905 1.41476 -2.15273 0
M  V30 1727 H 155.863 2.8867 -1.24567 0
M  V30 1728 N 159.635 1.57281 -0.100228 0
M  V30 1729 C 160.582 2.14305 0.856858 0
M  V30 1730 C 161.552 1.06296 1.27634 0
M  V30 1731 O 162.737 1.34109 1.35718 0
M  V30 1732 C 159.877 2.73184 2.10866 0
M  V30 1733 C 158.99 3.95442 1.73925 0
M  V30 1734 C 158.125 4.42468 2.93931 0
M  V30 1735 C 157.164 5.57303 2.5314 0
M  V30 1736 N 156.301 5.99158 3.65997 0
M  V30 1737 H 161.141 2.95772 0.363726 0
M  V30 1738 H 158.678 1.46139 0.167858 0
M  V30 1739 H 160.636 3.05442 2.84185 0
M  V30 1740 H 159.266 1.94437 2.57671 0
M  V30 1741 H 158.318 3.69464 0.905554 0
M  V30 1742 H 159.63 4.78769 1.39935 0
M  V30 1743 H 158.784 4.76537 3.75496 0
M  V30 1744 H 157.523 3.58052 3.31134 0
M  V30 1745 H 156.528 5.22857 1.70003 0
M  V30 1746 H 157.753 6.43471 2.17075 0
M  V30 1747 H 155.699 5.17687 4.02909 0
M  V30 1748 H 155.616 6.77295 3.35869 0
M  V30 1749 H 156.884 6.3786 4.48057 0
M  V30 1750 N 161.113 -0.173488 1.56642 0
M  V30 1751 C 162.529 -0.525174 1.50712 0
M  V30 1752 C 162.729 -1.8476 0.804107 0
M  V30 1753 O 161.785 -2.49869 0.363574 0
M  V30 1754 C 163.098 -0.559937 2.95441 0
M  V30 1755 C 164.646 -0.647288 3.06234 0
M  V30 1756 C 165.121 -0.712963 4.52417 0
M  V30 1757 N 166.612 -0.775911 4.56655 0
M  V30 1758 C 167.347 -0.847264 5.67106 0
M  V30 1759 N 166.843 -0.879585 6.87194 0
M  V30 1760 N 168.636 -0.886117 5.55071 0
M  V30 1761 H 160.787 0.693681 2.00753 0
M  V30 1762 H 163.05 0.249841 0.914485 0
M  V30 1763 H 162.756 0.343049 3.50023 0
M  V30 1764 H 162.63 -1.40718 3.49969 0
M  V30 1765 H 165.017 -1.5407 2.51687 0
M  V30 1766 H 165.098 0.226586 2.54794 0
M  V30 1767 H 164.742 0.176183 5.07594 0
M  V30 1768 H 164.672 -1.60295 5.0161 0
M  V30 1769 H 167.163 -0.759304 3.70193 0
M  V30 1770 H 167.476 -0.935144 7.67121 0
M  V30 1771 H 165.821 -0.847898 6.89808 0
M  V30 1772 H 169.012 -0.857853 4.60172 0
M  V30 1773 H 169.185 -0.938263 6.41171 0
M  V30 1774 N 162.591 -1.51276 -0.441967 0
M  V30 1775 C 163.523 -1.68444 -1.55433 0
M  V30 1776 C 164.536 -0.565187 -1.52674 0
M  V30 1777 O 165.725 -0.839356 -1.57534 0
M  V30 1778 C 162.825 -1.67966 -2.94348 0
M  V30 1779 C 161.998 -2.964 -3.21661 0
M  V30 1780 C 161.057 -2.88171 -4.40277 0
M  V30 1781 O 160.083 -3.62119 -4.39157 0
M  V30 1782 N 161.285 -2.03706 -5.43584 0
M  V30 1783 H 164.05 -2.644 -1.41112 0
M  V30 1784 H 161.611 -1.49104 -0.630838 0
M  V30 1785 H 163.603 -1.60035 -3.71713 0
M  V30 1786 H 162.173 -0.796225 -3.0229 0
M  V30 1787 H 161.393 -3.18234 -2.32638 0
M  V30 1788 H 162.681 -3.81427 -3.36736 0
M  V30 1789 H 162.079 -1.42995 -5.47329 0
M  V30 1790 H 160.636 -2.01658 -6.1982 0
M  V30 1791 N 164.069 0.697108 -1.41344 0
M  V30 1792 C 164.999 1.82353 -1.45841 0
M  V30 1793 C 165.98 1.67115 -0.317247 0
M  V30 1794 O 167.165 1.86871 -0.528474 0
M  V30 1795 C 164.295 3.20476 -1.33838 0
M  V30 1796 C 163.249 3.50415 -2.4575 0
M  V30 1797 C 162.575 4.87878 -2.18813 0
M  V30 1798 C 163.875 3.49546 -3.88091 0
M  V30 1799 H 165.569 1.78846 -2.40113 0
M  V30 1800 H 163.115 0.859028 -1.15571 0
M  V30 1801 H 165.068 3.98988 -1.35596 0
M  V30 1802 H 163.792 3.24604 -0.360498 0
M  V30 1803 H 162.451 2.74253 -2.43271 0
M  V30 1804 H 162.099 4.8863 -1.19371 0
M  V30 1805 H 161.799 5.08875 -2.93803 0
M  V30 1806 H 163.323 5.68702 -2.22284 0
M  V30 1807 H 164.737 4.18066 -3.92293 0
M  V30 1808 H 163.134 3.82075 -4.62751 0
M  V30 1809 H 164.204 2.48552 -4.16353 0
M  V30 1810 N 165.547 1.27147 0.931209 0
M  V30 1811 C 166.793 1.14455 1.68141 0
M  V30 1812 C 167.148 -0.307172 1.89932 0
M  V30 1813 O 166.441 -1.22158 1.47607 0
M  V30 1814 C 166.635 1.8579 3.05314 0
M  V30 1815 C 166.464 3.3775 2.96909 0
M  V30 1816 C 165.234 4.07062 2.99381 0
M  V30 1817 C 167.432 4.33783 2.76291 0
M  V30 1818 N 165.414 5.45618 2.8138 0
M  V30 1819 C 166.785 5.59582 2.6696 0
M  V30 1820 C 168.84 4.23915 2.61152 0
M  V30 1821 C 167.543 6.76639 2.44033 0
M  V30 1822 C 169.569 5.40689 2.39602 0
M  V30 1823 C 168.931 6.65443 2.3101 0
M  V30 1824 H 165.03 0.473667 0.622225 0
M  V30 1825 H 167.614 1.60568 1.10118 0
M  V30 1826 H 165.785 1.42138 3.61457 0
M  V30 1827 H 167.517 1.65634 3.69253 0
M  V30 1828 H 164.272 3.585 3.09475 0
M  V30 1829 H 164.696 6.184 2.75519 0
M  V30 1830 H 169.338 3.28189 2.66555 0
M  V30 1831 H 167.056 7.72451 2.3737 0
M  V30 1832 H 170.642 5.34932 2.28778 0
M  V30 1833 H 169.522 7.54277 2.14558 0
M  V30 1834 N 167.025 -1.13721 1.09112 0
M  V30 1835 C 168.274 -1.84275 0.82009 0
M  V30 1836 C 168.587 -1.84253 -0.656509 0
M  V30 1837 O 169.793 -2.50668 -1.04296 0
M  V30 1838 C 168.249 -3.30825 1.41714 0
M  V30 1839 C 167.857 -3.39244 2.92605 0
M  V30 1840 C 169.601 -4.06443 1.22492 0
M  V30 1841 C 167.508 -4.80047 3.45411 0
M  V30 1842 H 166.438 -0.690387 0.30312 0
M  V30 1843 H 169.089 -1.28146 1.31343 0
M  V30 1844 H 167.471 -3.86737 0.851498 0
M  V30 1845 H 168.645 -2.93344 3.55367 0
M  V30 1846 H 166.96 -2.77088 3.10823 0
M  V30 1847 H 169.557 -5.10387 1.59402 0
M  V30 1848 H 169.9 -4.15972 0.165299 0
M  V30 1849 H 170.433 -3.56852 1.75788 0
M  V30 1850 H 167.172 -4.75709 4.50978 0
M  V30 1851 H 166.692 -5.26455 2.87411 0
M  V30 1852 H 168.371 -5.48957 3.42425 0
M  V30 1853 N 168.503 -0.877838 -1.30888 0
M  V30 1854 C 169.914 -0.544193 -1.78593 0
M  V30 1855 C 170.265 0.939301 -1.72254 0
M  V30 1856 O 169.39 1.7337 -1.29505 0
M  V30 1857 C 169.985 -0.98105 -3.24285 0
M  V30 1858 C 168.544 -0.698935 -3.69854 0
M  V30 1859 C 167.691 -1.168 -2.51502 0
M  V30 1860 H 170.642 -1.06278 -1.17859 0
M  V30 1861 H 170.663 -0.307009 -3.79259 0
M  V30 1862 H 170.175 -2.06079 -3.28866 0
M  V30 1863 H 168.276 0.369112 -3.70767 0
M  V30 1864 H 168.389 -1.28148 -4.61644 0
M  V30 1865 H 166.753 -0.587535 -2.47831 0
M  V30 1866 H 167.536 -2.25533 -2.58824 0
M  V30 1867 N 169.982 1.44106 -0.638065 0
M  V30 1868 C 170.892 2.34513 0.0637334 0
M  V30 1869 C 171.908 1.53018 0.828346 0
M  V30 1870 O 173.084 1.85723 0.779036 0
M  V30 1871 C 170.149 3.31095 1.02844 0
M  V30 1872 C 169.21 4.28497 0.26244 0
M  V30 1873 C 168.443 5.20465 1.1812 0
M  V30 1874 O 168.666 5.16514 2.42011 0
M  V30 1875 O 167.6 5.98251 0.661774 0
M  V30 1876 H 171.426 2.95989 -0.68003 0
M  V30 1877 H 169.011 1.43994 -0.398252 0
M  V30 1878 H 170.893 3.90526 1.58327 0
M  V30 1879 H 169.568 2.72144 1.7527 0
M  V30 1880 H 168.475 3.72592 -0.335602 0
M  V30 1881 H 169.808 4.90388 -0.421936 0
M  V30 1882 N 171.46 0.379036 1.52974 0
M  V30 1883 C 172.708 -0.206014 2.01047 0
M  V30 1884 C 173.029 -1.48175 1.26765 0
M  V30 1885 O 172.299 -1.92085 0.384743 0
M  V30 1886 H 170.879 -0.0791184 0.742798 0
M  V30 1887 H 173.541 0.508366 1.88153 0
M  V30 1888 H 172.637 -0.423501 3.09213 0
M  V30 1889 N 172.938 -1.57226 0.108567 0
M  V30 1890 C 174.185 -1.94833 -0.551943 0
M  V30 1891 C 174.513 -0.991204 -1.67348 0
M  V30 1892 O 173.768 -0.0131878 -1.95696 0
M  V30 1893 C 174.067 -3.38911 -1.13463 0
M  V30 1894 C 173.733 -4.50696 -0.135509 0
M  V30 1895 C 172.395 -4.80998 0.139252 0
M  V30 1896 C 174.747 -5.18333 0.545957 0
M  V30 1897 C 172.075 -5.76259 1.10194 0
M  V30 1898 C 174.427 -6.14627 1.49721 0
M  V30 1899 C 173.091 -6.43327 1.78006 0
M  V30 1900 H 172.361 -0.712944 -0.20197 0
M  V30 1901 H 175.008 -1.90582 0.18726 0
M  V30 1902 H 173.313 -3.39805 -1.95037 0
M  V30 1903 H 175.01 -3.65317 -1.65362 0
M  V30 1904 H 171.6 -4.27087 -0.359846 0
M  V30 1905 H 175.784 -4.95087 0.346842 0
M  V30 1906 H 171.04 -5.96804 1.32795 0
M  V30 1907 H 175.214 -6.66126 2.03099 0
M  V30 1908 H 172.841 -7.1695 2.52759 0
M  V30 1909 N 174.416 0.165178 -1.56732 0
M  V30 1910 C 175.379 1.18822 -1.95995 0
M  V30 1911 C 176.379 1.3685 -0.84431 0
M  V30 1912 O 177.569 1.34152 -1.11126 0
M  V30 1913 C 174.701 2.5521 -2.26011 0
M  V30 1914 H 175.894 0.851825 -2.87548 0
M  V30 1915 H 173.447 0.407857 -1.50885 0
M  V30 1916 H 174.182 2.93852 -1.37191 0
M  V30 1917 H 173.967 2.43489 -3.07336 0
M  V30 1918 H 175.457 3.28927 -2.57288 0
M  V30 1919 N 175.894 1.51508 0.433938 0
M  V30 1920 C 176.844 1.69451 1.52546 0
M  V30 1921 C 177.828 0.548474 1.51263 0
M  V30 1922 O 179.02 0.804529 1.57659 0
M  V30 1923 C 176.149 1.82604 2.90707 0
M  V30 1924 C 175.235 3.03002 2.96733 0
M  V30 1925 N 175.626 4.26121 2.72496 0
M  V30 1926 C 173.924 3.02327 3.27894 0
M  V30 1927 C 174.625 5.07407 2.84452 0
M  V30 1928 N 173.601 4.42126 3.16269 0
M  V30 1929 H 177.403 2.62305 1.32564 0
M  V30 1930 H 174.917 1.49202 0.641297 0
M  V30 1931 H 176.914 1.93569 3.69238 0
M  V30 1932 H 175.574 0.909339 3.11707 0
M  V30 1933 H 176.585 4.55009 2.4736 0
M  V30 1934 H 173.262 2.20301 3.54646 0
M  V30 1935 H 174.652 6.15422 2.69639 0
M  V30 1936 N 177.372 -0.689602 1.41712 0
M  V30 1937 C 178.62 -1.4468 1.4111 0
M  V30 1938 C 178.941 -1.94986 0.0232196 0
M  V30 1939 O 178.211 -1.72097 -0.935913 0
M  V30 1940 H 176.791 -0.536847 0.519427 0
M  V30 1941 H 179.453 -0.815825 1.77004 0
M  V30 1942 H 178.549 -2.30706 2.10193 0
M  V30 1943 N 178.85 -1.27639 -0.924453 0
M  V30 1944 C 180.097 -1.14167 -1.67249 0
M  V30 1945 C 180.425 0.311863 -1.91984 0
M  V30 1946 O 179.68 1.24425 -1.51053 0
M  V30 1947 C 179.979 -1.87407 -3.04325 0
M  V30 1948 C 179.645 -3.37249 -2.99289 0
M  V30 1949 C 178.307 -3.7812 -2.97622 0
M  V30 1950 C 180.659 -4.32845 -2.90336 0
M  V30 1951 C 177.987 -5.12944 -2.8479 0
M  V30 1952 C 180.339 -5.6773 -2.79045 0
M  V30 1953 C 179.003 -6.07889 -2.7573 0
M  V30 1954 H 178.273 -0.417766 -0.612007 0
M  V30 1955 H 180.92 -1.58286 -1.07786 0
M  V30 1956 H 179.225 -1.35805 -3.67511 0
M  V30 1957 H 180.922 -1.74408 -3.61086 0
M  V30 1958 H 177.512 -3.04748 -3.01374 0
M  V30 1959 H 181.696 -4.02239 -2.90719 0
M  V30 1960 H 176.952 -5.432 -2.80612 0
M  V30 1961 H 181.126 -6.41472 -2.71083 0
M  V30 1962 H 178.753 -7.12314 -2.65544 0
M  V30 1963 N 180.328 1.1314 -1.09713 0
M  V30 1964 C 181.574 1.84757 -0.836224 0
M  V30 1965 C 181.907 1.8347 0.636598 0
M  V30 1966 O 181.182 1.27491 1.46889 0
M  V30 1967 C 181.465 3.32782 -1.37578 0
M  V30 1968 C 181.318 3.42567 -2.91493 0
M  V30 1969 C 182.637 4.28307 -1.01198 0
M  V30 1970 H 179.756 0.67082 -0.305236 0
M  V30 1971 H 182.398 1.3278 -1.35903 0
M  V30 1972 H 180.548 3.77177 -0.931097 0
M  V30 1973 H 182.22 3.06862 -3.44432 0
M  V30 1974 H 180.463 2.83349 -3.28475 0
M  V30 1975 H 181.134 4.46674 -3.24324 0
M  V30 1976 H 183.61 3.91999 -1.39556 0
M  V30 1977 H 182.486 5.30307 -1.41653 0
M  V30 1978 H 182.747 4.42029 0.0794833 0
M  V30 1979 N 181.806 0.884767 1.30421 0
M  V30 1980 C 183.034 0.518044 2.0031 0
M  V30 1981 C 183.449 -0.893408 1.66324 0
M  V30 1982 O 182.806 -1.5875 0.900262 0
M  V30 1983 C 182.857 0.682997 3.54989 0
M  V30 1984 O 182.578 2.03888 3.87764 0
M  V30 1985 C 184.079 0.31924 4.42149 0
M  V30 1986 H 181.299 0.200265 0.640418 0
M  V30 1987 H 183.843 1.19001 1.6631 0
M  V30 1988 H 181.998 0.0584052 3.87356 0
M  V30 1989 H 182.412 2.05735 4.82466 0
M  V30 1990 H 183.886 0.485555 5.4986 0
M  V30 1991 H 184.363 -0.742717 4.32875 0
M  V30 1992 H 184.969 0.920147 4.15227 0
M  V30 1993 N 183.284 -1.43765 0.645699 0
M  V30 1994 C 184.214 -2.33471 -0.0370477 0
M  V30 1995 C 185.195 -1.49042 -0.819779 0
M  V30 1996 O 186.38 -1.77726 -0.782758 0
M  V30 1997 C 183.51 -3.32311 -1.0093 0
M  V30 1998 C 182.464 -4.2667 -0.337201 0
M  V30 1999 C 181.79 -5.1549 -1.42037 0
M  V30 2000 C 183.09 -5.16657 0.765706 0
M  V30 2001 H 184.784 -2.90809 0.712069 0
M  V30 2002 H 182.33 -1.39834 0.343876 0
M  V30 2003 H 184.283 -3.9396 -1.49578 0
M  V30 2004 H 183.007 -2.73213 -1.78948 0
M  V30 2005 H 181.666 -3.66374 0.128771 0
M  V30 2006 H 181.314 -4.52735 -2.1918 0
M  V30 2007 H 181.014 -5.79438 -0.975966 0
M  V30 2008 H 182.538 -5.80012 -1.90838 0
M  V30 2009 H 183.952 -5.72158 0.361702 0
M  V30 2010 H 182.349 -5.89286 1.13413 0
M  V30 2011 H 183.419 -4.56796 1.62683 0
M  V30 2012 N 184.763 -0.387143 -1.52771 0
M  V30 2013 C 185.988 0.198407 -2.06449 0
M  V30 2014 C 186.413 1.39918 -1.25716 0
M  V30 2015 O 185.771 1.79099 -0.281657 0
M  V30 2016 C 185.819 0.548893 -3.56398 0
M  V30 2017 O 184.923 1.64315 -3.78252 0
M  V30 2018 H 184.264 0.0237731 -0.663574 0
M  V30 2019 H 186.794 -0.553989 -1.96957 0
M  V30 2020 H 186.804 0.813812 -3.99801 0
M  V30 2021 H 185.479 -0.329005 -4.14597 0
M  V30 2022 H 184.056 1.37211 -3.46738 0
M  V30 2023 N 186.241 1.57166 -0.116904 0
M  V30 2024 C 187.151 2.18745 0.847812 0
M  V30 2025 C 188.167 1.163 1.29423 0
M  V30 2026 O 189.343 1.48761 1.35765 0
M  V30 2027 C 186.408 2.77307 2.0809 0
M  V30 2028 C 185.469 3.94781 1.68661 0
M  V30 2029 C 184.702 4.50541 2.86091 0
M  V30 2030 O 184.925 4.05202 4.01456 0
M  V30 2031 O 183.859 5.41256 2.63298 0
M  V30 2032 H 187.685 3.01632 0.353778 0
M  V30 2033 H 185.27 1.49005 0.108599 0
M  V30 2034 H 187.152 3.14647 2.80313 0
M  V30 2035 H 185.827 1.97452 2.56504 0
M  V30 2036 H 184.734 3.62214 0.935518 0
M  V30 2037 H 186.067 4.76065 1.24991 0
M  V30 2038 N 187.719 -0.156864 1.56817 0
M  V30 2039 C 188.949 -0.885031 1.86684 0
M  V30 2040 C 189.357 -1.75696 0.701954 0
M  V30 2041 O 188.7 -1.80569 -0.337732 0
M  V30 2042 C 188.762 -1.80092 3.11138 0
M  V30 2043 C 188.426 -1.10714 4.43386 0
M  V30 2044 C 189.423 -0.465714 5.1781 0
M  V30 2045 C 187.108 -1.09959 4.90117 0
M  V30 2046 C 189.102 0.174002 6.37162 0
M  V30 2047 C 186.789 -0.456055 6.09396 0
M  V30 2048 C 187.787 0.179622 6.82764 0
M  V30 2049 O 187.475 0.812975 7.99779 0
M  V30 2050 H 187.207 -0.261813 0.623242 0
M  V30 2051 H 189.761 -0.157383 2.04796 0
M  V30 2052 H 187.991 -2.56926 2.89009 0
M  V30 2053 H 189.68 -2.40018 3.27332 0
M  V30 2054 H 190.446 -0.463427 4.82781 0
M  V30 2055 H 186.325 -1.58378 4.3294 0
M  V30 2056 H 189.869 0.670765 6.94368 0
M  V30 2057 H 185.766 -0.455975 6.43888 0
M  V30 2058 H 186.534 0.71366 8.15383 0
M  V30 2059 N 189.197 -1.51736 -0.425897 0
M  V30 2060 C 190.16 -1.73271 -1.50032 0
M  V30 2061 C 191.16 -0.602639 -1.4908 0
M  V30 2062 O 192.35 -0.87033 -1.509 0
M  V30 2063 C 189.482 -1.79969 -2.89523 0
M  V30 2064 H 190.675 -2.69172 -1.32237 0
M  V30 2065 H 188.228 -1.41899 -0.65532 0
M  V30 2066 H 188.963 -0.859241 -3.1271 0
M  V30 2067 H 188.748 -2.62109 -2.91619 0
M  V30 2068 H 190.238 -1.9843 -3.67444 0
M  V30 2069 N 190.675 0.682077 -1.42076 0
M  V30 2070 C 191.585 1.82535 -1.47371 0
M  V30 2071 C 192.601 1.7017 -0.363079 0
M  V30 2072 O 193.777 1.91848 -0.612875 0
M  V30 2073 C 190.842 3.18624 -1.36674 0
M  V30 2074 C 189.903 3.42999 -2.58167 0
M  V30 2075 C 189.136 4.72595 -2.4797 0
M  V30 2076 O 189.359 5.50006 -1.5116 0
M  V30 2077 O 188.293 4.98054 -3.37974 0
M  V30 2078 H 192.119 1.81023 -2.43853 0
M  V30 2079 H 189.704 0.836887 -1.2376 0
M  V30 2080 H 191.586 3.99847 -1.33043 0
M  V30 2081 H 190.261 3.20789 -0.433138 0
M  V30 2082 H 189.168 2.61653 -2.67373 0
M  V30 2083 H 190.501 3.45659 -3.50401 0
M  V30 2084 N 192.153 1.28127 0.917671 0
M  V30 2085 C 193.4 1.15052 1.66641 0
M  V30 2086 C 193.728 -0.301677 1.92146 0
M  V30 2087 O 192.983 -1.23622 1.51711 0
M  V30 2088 C 193.282 1.89018 3.03327 0
M  V30 2089 C 192.948 3.38832 2.97496 0
M  V30 2090 C 191.61 3.79693 2.95613 0
M  V30 2091 C 193.962 4.34378 2.88036 0
M  V30 2092 C 191.29 5.14447 2.82066 0
M  V30 2093 C 193.642 5.69201 2.7603 0
M  V30 2094 C 192.306 6.09343 2.72502 0
M  V30 2095 H 191.576 0.421006 0.609783 0
M  V30 2096 H 194.223 1.58855 1.06945 0
M  V30 2097 H 192.528 1.37752 3.66785 0
M  V30 2098 H 194.225 1.76321 3.60156 0
M  V30 2099 H 190.815 3.06342 2.99754 0
M  V30 2100 H 194.999 4.03775 2.88581 0
M  V30 2101 H 190.255 5.44681 2.77728 0
M  V30 2102 H 194.429 6.42901 2.67678 0
M  V30 2103 H 192.056 7.13712 2.61762 0
M  V30 2104 N 193.631 -1.12557 1.10312 0
M  V30 2105 C 194.561 -2.20341 0.772798 0
M  V30 2106 C 195.542 -1.68198 -0.25365 0
M  V30 2107 O 196.727 -1.93831 -0.119699 0
M  V30 2108 C 193.857 -3.46709 0.202443 0
M  V30 2109 C 192.811 -4.11996 1.15943 0
M  V30 2110 C 192.137 -5.328 0.450345 0
M  V30 2111 C 193.437 -4.5828 2.50552 0
M  V30 2112 H 195.131 -2.48229 1.674 0
M  V30 2113 H 192.677 -1.19308 0.806326 0
M  V30 2114 H 194.63 -4.2138 -0.0407752 0
M  V30 2115 H 193.354 -3.18245 -0.734001 0
M  V30 2116 H 192.013 -3.39305 1.38808 0
M  V30 2117 H 191.661 -5.00602 -0.490531 0
M  V30 2118 H 191.361 -5.7743 1.08851 0
M  V30 2119 H 192.885 -6.10219 0.215642 0
M  V30 2120 H 194.299 -5.2433 2.31843 0
M  V30 2121 H 192.696 -5.13683 3.10242 0
M  V30 2122 H 193.766 -3.72329 3.10643 0
M  V30 2123 N 195.109 -0.891671 -1.2995 0
M  V30 2124 C 196.339 -0.527893 -1.99742 0
M  V30 2125 C 196.747 0.88979 -1.66971 0
M  V30 2126 O 196.09 1.59766 -0.906667 0
M  V30 2127 C 196.152 -0.630804 -3.53922 0
M  V30 2128 C 195.816 -2.01401 -4.10228 0
M  V30 2129 C 196.813 -2.98422 -4.25724 0
M  V30 2130 C 194.498 -2.32121 -4.45449 0
M  V30 2131 C 196.492 -4.24293 -4.75662 0
M  V30 2132 C 194.179 -3.58237 -4.95086 0
M  V30 2133 C 195.177 -4.54137 -5.10146 0
M  V30 2134 O 194.865 -5.78014 -5.58708 0
M  V30 2135 H 194.597 -0.201953 -0.645129 0
M  V30 2136 H 197.151 -1.20076 -1.66646 0
M  V30 2137 H 195.381 0.0990616 -3.86573 0
M  V30 2138 H 197.07 -0.277338 -4.04951 0
M  V30 2139 H 197.836 -2.76001 -3.98809 0
M  V30 2140 H 193.715 -1.5824 -4.32991 0
M  V30 2141 H 197.259 -4.99153 -4.87332 0
M  V30 2142 H 193.156 -3.80491 -5.21437 0
M  V30 2143 H 193.924 -5.8049 -5.77039 0
M  V30 2144 N 196.587 1.43421 -0.653314 0
M  V30 2145 C 197.534 2.30768 0.0382271 0
M  V30 2146 C 198.504 1.44755 0.814576 0
M  V30 2147 O 199.689 1.73624 0.791162 0
M  V30 2148 C 196.829 3.30336 0.998599 0
M  V30 2149 C 195.942 4.31448 0.218342 0
M  V30 2150 C 195.077 5.18098 1.17252 0
M  V30 2151 C 194.116 6.10902 0.382702 0
M  V30 2152 N 193.253 6.90176 1.28848 0
M  V30 2153 H 198.093 2.89357 -0.712511 0
M  V30 2154 H 195.63 1.42548 -0.363128 0
M  V30 2155 H 197.588 3.86572 1.56901 0
M  V30 2156 H 196.218 2.73397 1.71621 0
M  V30 2157 H 195.27 3.77506 -0.46836 0
M  V30 2158 H 196.582 4.97227 -0.395812 0
M  V30 2159 H 195.736 5.7896 1.81356 0
M  V30 2160 H 194.475 4.52444 1.82058 0
M  V30 2161 H 193.48 5.49128 -0.27169 0
M  V30 2162 H 194.705 6.78598 -0.260957 0
M  V30 2163 H 192.651 6.27171 1.92334 0
M  V30 2164 H 192.568 7.52478 0.728887 0
M  V30 2165 H 193.836 7.55543 1.91766 0
M  V30 2166 N 198.065 0.39524 1.52563 0
M  V30 2167 C 199.028 -0.425001 2.25225 0
M  V30 2168 C 200.028 -0.985266 1.27079 0
M  V30 2169 O 201.218 -0.866332 1.5113 0
M  V30 2170 C 198.35 -1.59686 3.01186 0
M  V30 2171 H 199.543 0.211233 2.99155 0
M  V30 2172 H 197.096 0.147472 1.55603 0
M  V30 2173 H 197.831 -2.27035 2.31572 0
M  V30 2174 H 197.616 -1.20176 3.73229 0
M  V30 2175 H 199.106 -2.17743 3.5634 0
M  V30 2176 N 199.544 -1.57102 0.125237 0
M  V30 2177 C 200.772 -1.99761 -0.538797 0
M  V30 2178 C 201.187 -1.00503 -1.59827 0
M  V30 2179 O 200.544 0.00119474 -1.825 0
M  V30 2180 C 200.595 -3.42408 -1.15927 0
M  V30 2181 O 200.316 -4.37869 -0.142143 0
M  V30 2182 C 201.817 -4.00232 -1.90602 0
M  V30 2183 H 199.037 -0.655772 -0.14214 0
M  V30 2184 H 201.581 -2.03383 0.213413 0
M  V30 2185 H 199.736 -3.39706 -1.86223 0
M  V30 2186 H 200.15 -5.21128 -0.593775 0
M  V30 2187 H 201.624 -5.02105 -2.29335 0
M  V30 2188 H 202.101 -3.39721 -2.78363 0
M  V30 2189 H 202.707 -4.06499 -1.25055 0
M  V30 2190 N 201.022 0.148545 -1.56898 0
M  V30 2191 C 201.97 1.20265 -1.99096 0
M  V30 2192 C 202.964 1.44559 -0.883123 0
M  V30 2193 O 204.17 1.4487 -1.0683 0
M  V30 2194 H 200.545 0.404786 -0.63376 0
M  V30 2195 H 202.516 0.82004 -2.86911 0
M  V30 2196 C 201.265 2.52886 -2.3863 0
M  V30 2197 H 200.588 2.35021 -3.23427 0
M  V30 2198 H 202.028 3.25274 -2.7198 0
M  V30 2199 C 200.487 3.13315 -1.23837 0
M  V30 2200 O 201.017 3.98077 -0.538268 0
M  V30 2201 N 199.223 2.72742 -1.00301 0
M  V30 2202 H 198.77 2.03912 -1.5741 0
M  V30 2203 H 198.728 3.13507 -0.236838 0
M  V30 2204 N 202.5 1.5196 0.417844 0
M  V30 2205 C 203.73 1.69181 1.18581 0
M  V30 2206 C 204.138 0.397104 1.84986 0
M  V30 2207 O 203.481 -0.636011 1.72339 0
M  V30 2208 C 203.543 2.76497 2.29759 0
M  V30 2209 C 203.207 4.18514 1.83563 0
M  V30 2210 C 204.204 5.02648 1.32821 0
M  V30 2211 C 201.889 4.64708 1.90661 0
M  V30 2212 C 203.883 6.31044 0.897894 0
M  V30 2213 C 201.57 5.93096 1.47241 0
M  V30 2214 C 202.568 6.76093 0.968891 0
M  V30 2215 O 202.256 8.02078 0.540924 0
M  V30 2216 H 201.988 0.570457 0.362705 0
M  V30 2217 H 204.542 1.99249 0.498885 0
M  V30 2218 H 202.772 2.41786 3.01789 0
M  V30 2219 H 204.461 2.82403 2.91553 0
M  V30 2220 H 205.227 4.68154 1.26716 0
M  V30 2221 H 201.106 4.00216 2.28797 0
M  V30 2222 H 204.65 6.95776 0.504192 0
M  V30 2223 H 200.547 6.271 1.53022 0
M  V30 2224 H 201.315 8.15794 0.66502 0
M  V30 2225 N 203.978 -0.674533 1.42435 0
M  V30 2226 C 205.208 -1.46071 1.46105 0
M  V30 2227 C 205.616 -1.89067 0.0709605 0
M  V30 2228 O 204.959 -1.58731 -0.924677 0
M  V30 2229 C 205.021 -2.74145 2.32561 0
M  V30 2230 C 204.685 -2.53224 3.8043 0
M  V30 2231 C 205.682 -2.17809 4.72075 0
M  V30 2232 C 203.367 -2.6821 4.24698 0
M  V30 2233 C 205.361 -1.97648 6.05982 0
M  V30 2234 C 203.048 -2.47665 5.58664 0
M  V30 2235 C 204.046 -2.12437 6.49122 0
M  V30 2236 O 203.734 -1.9209 7.80613 0
M  V30 2237 H 203.466 -0.455959 0.499076 0
M  V30 2238 H 206.02 -0.836193 1.87609 0
M  V30 2239 H 204.25 -3.3908 1.85908 0
M  V30 2240 H 205.939 -3.36028 2.27683 0
M  V30 2241 H 206.705 -2.05826 4.39159 0
M  V30 2242 H 202.584 -2.94609 3.54579 0
M  V30 2243 H 206.128 -1.70075 6.7655 0
M  V30 2244 H 202.025 -2.59244 5.91154 0
M  V30 2245 H 202.793 -2.06686 7.91974 0
M  V30 2246 N 205.456 -1.28612 -0.910864 0
M  V30 2247 C 206.681 -1.1891 -1.69927 0
M  V30 2248 C 207.106 0.248372 -1.86453 0
M  V30 2249 O 206.464 1.17961 -1.37676 0
M  V30 2250 C 206.512 -1.89578 -3.06745 0
M  V30 2251 O 205.616 -1.20521 -3.94396 0
M  V30 2252 H 204.957 -0.412632 -0.520222 0
M  V30 2253 H 207.487 -1.69985 -1.1387 0
M  V30 2254 H 207.497 -1.97597 -3.56958 0
M  V30 2255 H 206.172 -2.94136 -2.94035 0
M  V30 2256 H 204.749 -1.20684 -3.52831 0
M  V30 2257 N 206.934 1.1197 -1.10907 0
M  V30 2258 C 208.345 1.65114 -0.871446 0
M  V30 2259 C 208.696 1.86885 0.597353 0
M  V30 2260 O 207.821 1.59896 1.45816 0
M  V30 2261 C 208.416 2.99944 -1.5754 0
M  V30 2262 C 206.975 3.50018 -1.38435 0
M  V30 2263 C 206.122 2.24941 -1.62164 0
M  V30 2264 H 209.073 0.956851 -1.2661 0
M  V30 2265 H 209.094 3.66651 -1.01721 0
M  V30 2266 H 208.606 2.84067 -2.64438 0
M  V30 2267 H 206.707 3.71071 -0.337214 0
M  V30 2268 H 206.82 4.29165 -2.12965 0
M  V30 2269 H 205.184 2.3229 -1.04467 0
M  V30 2270 H 205.967 2.11612 -2.70324 0
M  V30 2271 N 208.412 0.89855 1.29475 0
M  V30 2272 C 209.637 0.538561 2.00285 0
M  V30 2273 C 210.062 -0.869135 1.66816 0
M  V30 2274 O 209.42 -1.57831 0.892145 0
M  V30 2275 C 209.468 0.736475 3.52999 0
M  V30 2276 O 208.572 -0.211537 4.11857 0
M  V30 2277 H 207.913 0.210563 0.62973 0
M  V30 2278 H 210.443 1.20982 1.64998 0
M  V30 2279 H 210.453 0.640685 4.02938 0
M  V30 2280 H 209.128 1.76276 3.76696 0
M  V30 2281 H 207.705 -0.0682991 3.72837 0
M  V30 2282 N 209.89 -1.43072 0.660911 0
M  V30 2283 C 211.115 -2.06584 0.183805 0
M  V30 2284 C 211.54 -1.49257 -1.14472 0
M  V30 2285 O 210.898 -0.605528 -1.70889 0
M  V30 2286 C 210.946 -3.60418 0.114434 0
M  V30 2287 O 210.05 -4.01981 -0.921137 0
M  V30 2288 H 209.391 -0.656669 0.0983994 0
M  V30 2289 H 211.921 -1.83447 0.906006 0
M  V30 2290 H 211.931 -4.07946 -0.0663394 0
M  V30 2291 H 210.606 -4.01519 1.08422 0
M  V30 2292 H 209.183 -3.66029 -0.71253 0
M  V30 2293 N 211.368 -0.403325 -1.52352 0
M  V30 2294 C 212.278 0.432009 -2.30588 0
M  V30 2295 C 213.294 1.05884 -1.38075 0
M  V30 2296 O 214.47 1.06161 -1.71148 0
M  V30 2297 C 211.535 1.53669 -3.10784 0
M  V30 2298 C 210.596 0.933525 -4.19027 0
M  V30 2299 C 209.829 1.98557 -4.9539 0
M  V30 2300 O 210.052 3.20283 -4.71991 0
M  V30 2301 O 208.986 1.59504 -5.80381 0
M  V30 2302 H 212.812 -0.205739 -3.03002 0
M  V30 2303 H 210.397 -0.166675 -1.48467 0
M  V30 2304 H 212.279 2.17814 -3.60742 0
M  V30 2305 H 210.954 2.15915 -2.41169 0
M  V30 2306 H 209.861 0.254954 -3.7323 0
M  V30 2307 H 211.194 0.35508 -4.90918 0
M  V30 2308 N 212.846 1.57033 -0.133567 0
M  V30 2309 C 214.094 1.953 0.519848 0
M  V30 2310 C 214.415 1.01866 1.66278 0
M  V30 2311 O 213.685 0.0776513 1.95746 0
M  V30 2312 H 212.265 0.721091 0.195032 0
M  V30 2313 H 214.927 1.93809 -0.205921 0
M  V30 2314 H 214.023 2.98695 0.904854 0
M  V30 2315 N 214.325 -0.140222 1.56975 0
M  V30 2316 C 215.55 -0.870414 1.88251 0
M  V30 2317 C 215.975 -1.73637 0.723312 0
M  V30 2318 O 215.333 -1.78329 -0.32689 0
M  V30 2319 C 215.381 -1.69737 3.18154 0
M  V30 2320 O 214.485 -2.80229 3.02565 0
M  V30 2321 H 213.826 -0.242025 0.61832 0
M  V30 2322 H 216.356 -0.128999 2.04193 0
M  V30 2323 H 216.366 -2.09099 3.50345 0
M  V30 2324 H 215.041 -1.06152 4.02125 0
M  V30 2325 H 213.618 -2.44224 2.81796 0
M  V30 2326 N 215.803 -1.52179 -0.40978 0
M  V30 2327 C 217.052 -1.65434 -1.15388 0
M  V30 2328 C 217.365 -0.390056 -1.91671 0
M  V30 2329 O 218.571 -0.402399 -2.68501 0
M  V30 2330 C 217.027 -2.92279 -2.10003 0
M  V30 2331 C 216.635 -4.25813 -1.39239 0
M  V30 2332 C 218.379 -3.14897 -2.84675 0
M  V30 2333 C 216.286 -5.43782 -2.32498 0
M  V30 2334 H 215.216 -0.616267 -0.434432 0
M  V30 2335 H 217.867 -1.78666 -0.418401 0
M  V30 2336 H 216.249 -2.72744 -2.871 0
M  V30 2337 H 217.423 -4.55828 -0.675099 0
M  V30 2338 H 215.738 -4.09292 -0.766097 0
M  V30 2339 H 218.335 -4.0021 -3.54593 0
M  V30 2340 H 218.678 -2.29103 -3.47588 0
M  V30 2341 H 219.211 -3.34901 -2.14677 0
M  V30 2342 H 215.95 -6.3192 -1.74233 0
M  V30 2343 H 215.47 -5.18106 -3.02201 0
M  V30 2344 H 217.149 -5.76834 -2.93038 0
M  V30 2345 N 217.281 0.66697 -1.42791 0
M  V30 2346 C 218.211 1.79218 -1.49677 0
M  V30 2347 C 219.192 1.66405 -0.352623 0
M  V30 2348 O 220.377 1.85708 -0.567993 0
M  V30 2349 C 217.507 3.17565 -1.40605 0
M  V30 2350 C 216.461 3.45124 -2.53127 0
M  V30 2351 C 215.787 4.83127 -2.29112 0
M  V30 2352 C 217.087 3.41236 -3.95418 0
M  V30 2353 H 218.781 1.73713 -2.43853 0
M  V30 2354 H 216.327 0.83432 -1.17367 0
M  V30 2355 H 218.28 3.96022 -1.44029 0
M  V30 2356 H 217.004 3.23767 -0.429271 0
M  V30 2357 H 215.663 2.69031 -2.49034 0
M  V30 2358 H 215.311 4.85988 -1.29709 0
M  V30 2359 H 215.011 5.02528 -3.04531 0
M  V30 2360 H 216.535 5.63859 -2.34297 0
M  V30 2361 H 217.949 4.09651 -4.01073 0
M  V30 2362 H 216.346 3.72173 -4.70752 0
M  V30 2363 H 217.416 2.39665 -4.21532 0
M  V30 2364 N 218.759 1.29093 0.90403 0
M  V30 2365 C 220.005 1.17996 1.65676 0
M  V30 2366 C 220.36 -0.266816 1.90541 0
M  V30 2367 O 219.653 -1.19 1.50165 0
M  V30 2368 C 219.847 1.92224 3.01305 0
M  V30 2369 C 219.676 3.43972 2.89678 0
M  V30 2370 C 218.446 4.1332 2.90679 0
M  V30 2371 C 220.644 4.39546 2.67028 0
M  V30 2372 N 218.626 5.51463 2.69743 0
M  V30 2373 C 219.997 5.65119 2.5503 0
M  V30 2374 C 222.052 4.29359 2.52101 0
M  V30 2375 C 220.755 6.81663 2.29626 0
M  V30 2376 C 222.781 5.4565 2.28079 0
M  V30 2377 C 222.143 6.70193 2.16843 0
M  V30 2378 H 218.242 0.486759 0.612037 0
M  V30 2379 H 220.826 1.62868 1.06688 0
M  V30 2380 H 218.997 1.49773 3.58361 0
M  V30 2381 H 220.729 1.73429 3.65656 0
M  V30 2382 H 217.484 3.64984 3.01801 0
M  V30 2383 H 217.908 6.24105 2.6234 0
M  V30 2384 H 222.55 3.33769 2.59534 0
M  V30 2385 H 220.268 7.77313 2.20932 0
M  V30 2386 H 223.854 5.39664 2.1738 0
M  V30 2387 H 222.734 7.58659 1.98511 0
M  V30 2388 N 220.237 -1.11381 1.11499 0
M  V30 2389 C 221.185 -2.19522 0.768956 0
M  V30 2390 C 222.179 -1.67693 -0.239857 0
M  V30 2391 O 223.385 -1.79727 -0.0990755 0
M  V30 2392 H 219.76 -0.715711 0.230786 0
M  V30 2393 H 221.731 -2.45954 1.68964 0
M  V30 2394 C 220.48 -3.46945 0.229073 0
M  V30 2395 H 219.803 -3.8718 0.996596 0
M  V30 2396 H 221.243 -4.23993 0.0251441 0
M  V30 2397 C 219.702 -3.2042 -1.04079 0
M  V30 2398 O 220.232 -3.41178 -2.12038 0
M  V30 2399 N 218.438 -2.74151 -0.963823 0
M  V30 2400 H 217.985 -2.57459 -0.0851722 0
M  V30 2401 H 217.943 -2.56781 -1.81414 0
M  V30 2402 N 221.715 -0.905404 -1.28997 0
M  V30 2403 C 222.992 -0.453513 -1.9027 0
M  V30 2404 C 223.372 1.06721 -1.82137 0
M  V30 2405 O 222.72 1.91159 -1.25182 0
M  V30 2406 C 222.93 -0.974494 -3.35119 0
M  V30 2407 C 224.278 -1.0216 -4.12127 0
M  V30 2408 O 225.302 -0.922557 -3.44046 0
M  V30 2409 O 224.161 -1.17121 -5.33802 0
M  V30 2410 H 221.255 -0.142347 -0.814657 0
M  V30 2411 H 223.801 -0.995642 -1.37423 0
M  V30 2412 H 222.573 -2.01848 -3.35221 0
M  V30 2413 H 222.196 -0.412706 -3.95452 0
M  V30 2414 N 223.193 1.4272 -0.668489 0
M  V30 2415 C 224.103 2.34596 0.0139753 0
M  V30 2416 C 225.119 1.5474 0.795703 0
M  V30 2417 O 226.295 1.87334 0.739466 0
M  V30 2418 C 223.36 3.33202 0.957982 0
M  V30 2419 C 222.421 4.28957 0.17149 0
M  V30 2420 C 221.654 5.22853 1.07053 0
M  V30 2421 O 221.877 5.21531 2.31001 0
M  V30 2422 O 220.811 5.9952 0.534727 0
M  V30 2423 H 224.637 2.9448 -0.742661 0
M  V30 2424 H 222.222 1.43117 -0.428705 0
M  V30 2425 H 224.104 3.93796 1.50008 0
M  V30 2426 H 222.779 2.758 1.69458 0
M  V30 2427 H 221.686 3.71796 -0.414558 0
M  V30 2428 H 223.019 4.89383 -0.52586 0
M  V30 2429 N 224.671 0.411399 1.52136 0
M  V30 2430 C 225.634 -0.401089 2.25663 0
M  V30 2431 C 226.634 -0.971732 1.28117 0
M  V30 2432 O 227.824 -0.850254 1.52041 0
M  V30 2433 C 224.956 -1.56483 3.02863 0
M  V30 2434 H 226.149 0.24295 2.98914 0
M  V30 2435 H 223.702 0.163968 1.55438 0
M  V30 2436 H 224.437 -2.24567 2.33967 0
M  V30 2437 H 224.222 -1.16211 3.74483 0
M  V30 2438 H 225.712 -2.13951 3.58629 0
M  V30 2439 N 226.149 -1.5696 0.141893 0
M  V30 2440 C 227.398 -1.95135 -0.510427 0
M  V30 2441 C 227.711 -1.02896 -1.66348 0
M  V30 2442 O 228.917 -1.30629 -2.38009 0
M  V30 2443 C 227.373 -3.46876 -0.959427 0
M  V30 2444 C 226.981 -4.47691 0.166419 0
M  V30 2445 C 228.725 -3.93927 -1.58183 0
M  V30 2446 C 226.632 -5.90636 -0.300565 0
M  V30 2447 H 225.562 -0.728494 -0.194454 0
M  V30 2448 H 228.213 -1.8211 0.22542 0
M  V30 2449 H 226.595 -3.55215 -1.75038 0
M  V30 2450 H 227.769 -4.51043 0.94325 0
M  V30 2451 H 226.084 -4.10527 0.696905 0
M  V30 2452 H 228.681 -4.98158 -1.94275 0
M  V30 2453 H 229.024 -3.3519 -2.46888 0
M  V30 2454 H 229.557 -3.88484 -0.855863 0
M  V30 2455 H 226.296 -6.5318 0.550989 0
M  V30 2456 H 225.816 -5.90655 -1.04338 0
M  V30 2457 H 227.495 -6.42588 -0.754265 0
M  V30 2458 N 227.627 0.131896 -1.57047 0
M  V30 2459 C 228.875 0.840269 -1.83804 0
M  V30 2460 C 229.196 1.81017 -0.72512 0
M  V30 2461 O 228.466 1.94272 0.251995 0
M  V30 2462 H 227.046 0.313294 -0.678127 0
M  V30 2463 H 229.708 0.122294 -1.94516 0
M  V30 2464 H 228.804 1.39335 -2.79271 0
M  V30 2465 N 229.106 1.52395 0.401703 0
M  V30 2466 C 230.355 1.66044 1.14509 0
M  V30 2467 C 230.668 0.400216 1.91462 0
M  V30 2468 O 231.874 0.416632 2.68284 0
M  V30 2469 C 230.33 2.93388 2.0845 0
M  V30 2470 C 229.938 4.26545 1.36978 0
M  V30 2471 C 231.682 3.16402 2.83001 0
M  V30 2472 C 229.589 5.45007 2.29611 0
M  V30 2473 H 228.519 0.618562 0.431158 0
M  V30 2474 H 231.17 1.78886 0.40892 0
M  V30 2475 H 229.552 2.74263 2.8565 0
M  V30 2476 H 230.726 4.56179 0.650916 0
M  V30 2477 H 229.041 4.09692 0.74438 0
M  V30 2478 H 231.638 4.02085 3.52465 0
M  V30 2479 H 231.981 2.30943 3.46368 0
M  V30 2480 H 232.514 3.36034 2.12898 0
M  V30 2481 H 229.253 6.32835 1.70879 0
M  V30 2482 H 228.773 5.19702 2.9945 0
M  V30 2483 H 230.452 5.7838 2.89974 0
M  V30 2484 N 230.584 -0.659388 1.43143 0
M  V30 2485 C 231.494 -1.80167 1.50256 0
M  V30 2486 C 232.51 -1.69571 0.390106 0
M  V30 2487 O 233.686 -1.90849 0.643319 0
M  V30 2488 C 230.751 -3.16409 1.41725 0
M  V30 2489 C 229.812 -3.38848 2.63591 0
M  V30 2490 C 229.045 -4.68591 2.55458 0
M  V30 2491 O 229.268 -5.47532 1.59891 0
M  V30 2492 O 228.202 -4.92614 3.45854 0
M  V30 2493 H 232.028 -1.77121 2.46702 0
M  V30 2494 H 229.613 -0.817092 1.25076 0
M  V30 2495 H 231.495 -3.9768 1.39387 0
M  V30 2496 H 230.17 -3.20059 0.484118 0
M  V30 2497 H 229.077 -2.57366 2.71502 0
M  V30 2498 H 230.41 -3.4004 3.55856 0
M  V30 2499 N 232.062 -1.29571 -0.897171 0
M  V30 2500 C 233.308 -1.18873 -1.65048 0
M  V30 2501 C 233.663 0.256707 -1.9068 0
M  V30 2502 O 232.956 1.18202 -1.50794 0
M  V30 2503 C 233.15 -1.9382 -3.00281 0
M  V30 2504 C 232.979 -3.45503 -2.8785 0
M  V30 2505 C 231.749 -4.14856 -2.88483 0
M  V30 2506 C 233.947 -4.40956 -2.64693 0
M  V30 2507 N 231.929 -5.52886 -2.66815 0
M  V30 2508 C 233.3 -5.66464 -2.5203 0
M  V30 2509 C 235.355 -4.3069 -2.49821 0
M  V30 2510 C 234.058 -6.82871 -2.26008 0
M  V30 2511 C 236.084 -5.46852 -2.25182 0
M  V30 2512 C 235.446 -6.71333 -2.13286 0
M  V30 2513 H 231.545 -0.489998 -0.609447 0
M  V30 2514 H 234.129 -1.63431 -1.05822 0
M  V30 2515 H 232.3 -1.51671 -3.57562 0
M  V30 2516 H 234.032 -1.75366 -3.64731 0
M  V30 2517 H 230.787 -3.66579 -2.99861 0
M  V30 2518 H 231.211 -6.25487 -2.59027 0
M  V30 2519 H 235.853 -3.35141 -2.5776 0
M  V30 2520 H 233.571 -7.78473 -2.16806 0
M  V30 2521 H 237.157 -5.40809 -2.14515 0
M  V30 2522 H 236.037 -7.59701 -1.94485 0
M  V30 2523 N 233.54 1.10788 -1.12088 0
M  V30 2524 C 234.951 1.64181 -0.88891 0
M  V30 2525 C 235.302 1.87508 0.577498 0
M  V30 2526 O 234.427 1.61434 1.44112 0
M  V30 2527 C 235.022 2.98257 -1.60712 0
M  V30 2528 C 233.581 3.4853 -1.42139 0
M  V30 2529 C 232.728 2.23208 -1.6454 0
M  V30 2530 H 235.679 0.943368 -1.27618 0
M  V30 2531 H 235.7 3.65552 -1.05604 0
M  V30 2532 H 235.212 2.81246 -2.67436 0
M  V30 2533 H 233.313 3.70692 -0.376552 0
M  V30 2534 H 233.426 4.26882 -2.17505 0
M  V30 2535 H 231.79 2.31169 -1.06925 0
M  V30 2536 H 232.573 2.08733 -2.72554 0
M  V30 2537 N 235.018 0.912232 1.28515 0
M  V30 2538 C 236.265 0.544599 1.95039 0
M  V30 2539 C 236.593 -0.911435 1.71823 0
M  V30 2540 O 235.848 -1.66317 1.03137 0
M  V30 2541 C 236.147 0.798392 3.48368 0
M  V30 2542 C 235.813 2.23374 3.91682 0
M  V30 2543 C 234.475 2.62617 4.03219 0
M  V30 2544 C 236.827 3.16786 4.13879 0
M  V30 2545 C 234.155 3.94429 4.3433 0
M  V30 2546 C 236.507 4.48161 4.46469 0
M  V30 2547 C 235.171 4.8726 4.56217 0
M  V30 2548 H 234.441 0.199283 0.7137 0
M  V30 2549 H 237.088 1.15327 1.52879 0
M  V30 2550 H 235.393 0.106908 3.91654 0
M  V30 2551 H 237.09 0.493141 3.97956 0
M  V30 2552 H 233.68 1.91922 3.83228 0
M  V30 2553 H 237.864 2.87677 4.0442 0
M  V30 2554 H 233.12 4.24426 4.40082 0
M  V30 2555 H 237.294 5.20559 4.62592 0
M  V30 2556 H 234.921 5.89431 4.80078 0
M  V30 2557 N 236.496 -1.42363 0.676048 0
M  V30 2558 C 237.721 -2.06377 0.205705 0
M  V30 2559 C 238.146 -1.50463 -1.12883 0
M  V30 2560 O 237.504 -0.623619 -1.70237 0
M  V30 2561 C 237.552 -3.60277 0.152655 0
M  V30 2562 O 236.656 -4.02935 -0.87845 0
M  V30 2563 H 235.997 -0.655588 0.105359 0
M  V30 2564 H 238.527 -1.82475 0.925412 0
M  V30 2565 H 238.537 -4.07993 -0.0230675 0
M  V30 2566 H 237.212 -4.00346 1.12675 0
M  V30 2567 H 235.789 -3.66764 -0.673668 0
M  V30 2568 N 237.974 -0.419461 -1.51915 0
M  V30 2569 C 238.906 0.43646 -2.25006 0
M  V30 2570 C 239.919 1.00149 -1.28351 0
M  V30 2571 O 241.108 0.898674 -1.54227 0
M  V30 2572 C 238.208 1.6206 -2.9764 0
M  V30 2573 C 237.381 1.17763 -4.21249 0
M  V30 2574 C 236.44 2.22985 -4.76617 0
M  V30 2575 O 235.466 1.83151 -5.38929 0
M  V30 2576 N 236.668 3.55271 -4.59089 0
M  V30 2577 H 239.433 -0.18989 -2.99098 0
M  V30 2578 H 236.994 -0.247386 -1.59999 0
M  V30 2579 H 238.986 2.32038 -3.31573 0
M  V30 2580 H 237.556 2.15266 -2.2667 0
M  V30 2581 H 236.776 0.305582 -3.93014 0
M  V30 2582 H 238.064 0.858781 -5.015 0
M  V30 2583 H 237.462 3.90377 -4.09417 0
M  V30 2584 H 236.019 4.21195 -4.97432 0
M  V30 2585 N 239.452 1.56882 -0.150215 0
M  V30 2586 C 240.382 2.19935 0.784284 0
M  V30 2587 C 241.363 1.14854 1.25469 0
M  V30 2588 O 242.548 1.43209 1.31168 0
M  V30 2589 C 239.678 2.82349 2.02229 0
M  V30 2590 C 238.632 3.93285 1.68853 0
M  V30 2591 C 237.958 4.42649 2.99944 0
M  V30 2592 C 239.258 5.13904 0.932714 0
M  V30 2593 H 240.952 2.9828 0.258781 0
M  V30 2594 H 238.498 1.43473 0.123029 0
M  V30 2595 H 240.451 3.25126 2.68088 0
M  V30 2596 H 239.175 2.0134 2.57157 0
M  V30 2597 H 237.834 3.5113 1.05371 0
M  V30 2598 H 237.482 3.58458 3.52869 0
M  V30 2599 H 237.182 5.17476 2.78374 0
M  V30 2600 H 238.706 4.88099 3.66868 0
M  V30 2601 H 240.12 5.53506 1.49345 0
M  V30 2602 H 238.517 5.94515 0.81684 0
M  V30 2603 H 239.587 4.84842 -0.0749568 0
M  V30 2604 N 240.93 -0.123565 1.57115 0
M  V30 2605 C 242.341 -0.681198 1.73829 0
M  V30 2606 C 242.692 -1.80535 0.768214 0
M  V30 2607 O 241.817 -2.16317 -0.0599103 0
M  V30 2608 C 242.412 -1.24246 3.15196 0
M  V30 2609 C 240.971 -1.74643 3.33432 0
M  V30 2610 C 240.118 -0.644284 2.69711 0
M  V30 2611 H 243.069 0.102315 1.5837 0
M  V30 2612 H 243.09 -2.11216 3.16493 0
M  V30 2613 H 242.602 -0.424062 3.85776 0
M  V30 2614 H 240.703 -2.58974 2.67886 0
M  V30 2615 H 240.816 -1.85902 4.41562 0
M  V30 2616 H 239.18 -1.07676 2.3082 0
M  V30 2617 H 239.963 0.163058 3.42913 0
M  V30 2618 N 242.408 -1.52605 -0.393616 0
M  V30 2619 C 243.318 -1.79971 -1.50492 0
M  V30 2620 C 244.334 -0.686181 -1.59899 0
M  V30 2621 O 245.51 -0.973274 -1.76322 0
M  V30 2622 C 242.575 -1.95867 -2.86072 0
M  V30 2623 C 241.636 -3.19781 -2.86424 0
M  V30 2624 C 240.869 -3.34909 -4.15538 0
M  V30 2625 O 241.092 -2.54948 -5.10253 0
M  V30 2626 O 240.026 -4.28141 -4.23059 0
M  V30 2627 H 243.852 -2.74328 -1.30299 0
M  V30 2628 H 241.437 -1.3764 -0.581005 0
M  V30 2629 H 243.319 -2.08056 -3.66457 0
M  V30 2630 H 241.994 -1.04699 -3.063 0
M  V30 2631 H 240.901 -3.13038 -2.04837 0
M  V30 2632 H 242.234 -4.1078 -2.71147 0
M  V30 2633 N 243.887 0.651787 -1.4349 0
M  V30 2634 C 244.817 1.77621 -1.51569 0
M  V30 2635 C 245.798 1.66022 -0.370253 0
M  V30 2636 O 246.983 1.85095 -0.587658 0
M  V30 2637 C 244.113 3.16056 -1.43966 0
M  V30 2638 C 243.067 3.4242 -2.56774 0
M  V30 2639 C 242.393 4.8067 -2.34223 0
M  V30 2640 C 243.693 3.37023 -3.99015 0
M  V30 2641 H 245.387 1.71117 -2.45681 0
M  V30 2642 H 242.933 0.821825 -1.18246 0
M  V30 2643 H 244.886 3.94472 -1.48221 0
M  V30 2644 H 243.61 3.23293 -0.463586 0
M  V30 2645 H 242.269 2.66375 -2.51873 0
M  V30 2646 H 241.917 4.84585 -1.34856 0
M  V30 2647 H 241.617 4.9927 -3.09844 0
M  V30 2648 H 243.141 5.61342 -2.40265 0
M  V30 2649 H 244.555 4.05374 -4.05395 0
M  V30 2650 H 242.952 3.67159 -4.74673 0
M  V30 2651 H 244.022 2.3518 -4.2405 0
M  V30 2652 N 245.365 1.30045 0.890287 0
M  V30 2653 C 246.59 1.21598 1.68014 0
M  V30 2654 C 247.015 -0.218678 1.86825 0
M  V30 2655 O 246.373 -1.15756 1.39536 0
M  V30 2656 C 246.421 1.94434 3.03691 0
M  V30 2657 O 245.525 1.2678 3.92429 0
M  V30 2658 H 244.866 0.420856 0.513592 0
M  V30 2659 H 247.396 1.71775 1.11151 0
M  V30 2660 H 247.406 2.03251 3.5377 0
M  V30 2661 H 246.081 2.98777 2.89318 0
M  V30 2662 H 244.658 1.26282 3.50866 0
M  V30 2663 N 246.843 -1.10192 1.12674 0
M  V30 2664 C 247.806 -2.14786 0.799979 0
M  V30 2665 C 248.806 -1.59711 -0.18685 0
M  V30 2666 O 249.996 -1.74156 0.0392558 0
M  V30 2667 C 247.128 -3.40374 0.189228 0
M  V30 2668 H 248.321 -2.45203 1.72671 0
M  V30 2669 H 245.874 -1.25597 0.930326 0
M  V30 2670 H 246.609 -3.15577 -0.747107 0
M  V30 2671 H 246.394 -3.81637 0.899766 0
M  V30 2672 H 247.884 -4.17594 -0.0228143 0
M  V30 2673 N 248.321 -0.919034 -1.28029 0
M  V30 2674 C 249.268 -0.410005 -2.27129 0
M  V30 2675 C 250.238 0.518405 -1.57803 0
M  V30 2676 O 251.423 0.439451 -1.8567 0
M  V30 2677 C 248.563 0.339054 -3.4343 0
M  V30 2678 C 247.676 -0.622468 -4.27492 0
M  V30 2679 C 246.811 0.145567 -5.31001 0
M  V30 2680 C 245.85 -0.809226 -6.06727 0
M  V30 2681 N 244.987 -0.0743728 -7.02061 0
M  V30 2682 H 249.827 -1.26011 -2.70047 0
M  V30 2683 H 247.364 -0.632663 -1.328 0
M  V30 2684 H 249.322 0.789586 -4.0966 0
M  V30 2685 H 247.952 1.15346 -3.01488 0
M  V30 2686 H 247.004 -1.19153 -3.61257 0
M  V30 2687 H 248.316 -1.35252 -4.80113 0
M  V30 2688 H 247.47 0.656417 -6.03139 0
M  V30 2689 H 246.209 0.908643 -4.79161 0
M  V30 2690 H 245.214 -1.3314 -5.33436 0
M  V30 2691 H 246.439 -1.57194 -6.60656 0
M  V30 2692 H 244.385 0.670616 -6.52563 0
M  V30 2693 H 244.302 -0.744157 -7.52329 0
M  V30 2694 H 245.57 0.416109 -7.78389 0
M  V30 2695 N 249.799 1.42003 -0.683588 0
M  V30 2696 C 251.076 1.95112 -0.138075 0
M  V30 2697 C 251.456 1.62359 1.34918 0
M  V30 2698 O 250.804 0.924311 2.08971 0
M  V30 2699 C 251.014 3.46505 -0.416581 0
M  V30 2700 C 252.362 4.23254 -0.337834 0
M  V30 2701 O 253.386 3.54468 -0.35082 0
M  V30 2702 O 252.245 5.45743 -0.287596 0
M  V30 2703 H 249.339 0.826961 -0.00797996 0
M  V30 2704 H 251.885 1.51784 -0.758924 0
M  V30 2705 H 250.657 3.63582 -1.4465 0
M  V30 2706 H 250.28 3.969 0.235839 0
M  V30 2707 N 251.277 0.427512 1.51691 0
M  V30 2708 C 252.24 -0.377132 2.26076 0
M  V30 2709 C 253.24 -0.958089 1.29141 0
M  V30 2710 O 254.43 -0.83408 1.52934 0
M  V30 2711 C 251.562 -1.53262 3.04506 0
M  V30 2712 H 252.755 0.27464 2.9864 0
M  V30 2713 H 250.308 0.180445 1.55255 0
M  V30 2714 H 251.043 -2.22072 2.36335 0
M  V30 2715 H 250.828 -1.12232 3.75694 0
M  V30 2716 H 252.318 -2.10135 3.60878 0
M  V30 2717 N 252.755 -1.56801 0.158532 0
M  V30 2718 C 253.718 -2.16138 -0.762705 0
M  V30 2719 C 254.718 -1.1061 -1.16713 0
M  V30 2720 O 255.908 -1.36191 -1.08617 0
M  V30 2721 C 253.04 -2.73386 -2.03649 0
M  V30 2722 H 254.233 -2.98886 -0.246354 0
M  V30 2723 H 251.786 -1.56035 -0.0909744 0
M  V30 2724 H 252.521 -1.94335 -2.59623 0
M  V30 2725 H 252.306 -3.50601 -1.75559 0
M  V30 2726 H 253.796 -3.19065 -2.6942 0
M  V30 2727 N 254.233 0.115231 -1.57178 0
M  V30 2728 C 255.196 1.12526 -1.99676 0
M  V30 2729 C 256.196 1.34095 -0.88742 0
M  V30 2730 O 257.386 1.30548 -1.15337 0
M  V30 2731 C 254.518 2.4789 -2.34015 0
M  V30 2732 H 255.711 0.759912 -2.90113 0
M  V30 2733 H 253.264 0.359648 -1.52106 0
M  V30 2734 H 253.999 2.89339 -1.4647 0
M  V30 2735 H 253.784 2.33588 -3.14927 0
M  V30 2736 H 255.274 3.20575 -2.67622 0
M  V30 2737 N 255.711 1.52812 0.385517 0
M  V30 2738 C 257.122 1.5993 0.963293 0
M  V30 2739 C 257.473 0.454302 1.90868 0
M  V30 2740 O 256.598 -0.422132 2.12243 0
M  V30 2741 C 257.193 2.89871 1.75387 0
M  V30 2742 C 255.752 2.99389 2.28129 0
M  V30 2743 C 254.899 2.55071 1.08783 0
M  V30 2744 H 257.85 1.5784 0.164948 0
M  V30 2745 H 257.871 2.76553 2.61341 0
M  V30 2746 H 257.383 3.73186 1.06554 0
M  V30 2747 H 255.484 2.20619 3.00263 0
M  V30 2748 H 255.597 4.04096 2.57377 0
M  V30 2749 H 253.961 2.09473 1.4489 0
M  V30 2750 H 254.744 3.40785 0.414807 0
M  V30 2751 N 257.189 -0.644168 1.43834 0
M  V30 2752 C 258.119 -1.76814 1.52509 0
M  V30 2753 C 259.1 -1.65823 0.379052 0
M  V30 2754 O 260.285 -1.84781 0.597466 0
M  V30 2755 C 257.415 -3.15288 1.4564 0
M  V30 2756 C 256.369 -3.41053 2.58586 0
M  V30 2757 C 255.695 -4.79421 2.36769 0
M  V30 2758 C 256.995 -3.34902 4.00797 0
M  V30 2759 H 258.689 -1.69812 2.46586 0
M  V30 2760 H 256.235 -0.815542 1.1868 0
M  V30 2761 H 258.188 -3.93681 1.50311 0
M  V30 2762 H 256.912 -3.23043 0.480725 0
M  V30 2763 H 255.571 -2.65035 2.53282 0
M  V30 2764 H 255.219 -4.83863 1.37424 0
M  V30 2765 H 254.919 -4.9762 3.12487 0
M  V30 2766 H 256.443 -5.6006 2.43238 0
M  V30 2767 H 257.857 -4.03218 4.07539 0
M  V30 2768 H 256.254 -3.64637 4.76613 0
M  V30 2769 H 257.324 -2.32928 4.25291 0
M  V30 2770 N 258.668 -1.30515 -0.883378 0
M  V30 2771 C 259.598 -1.19607 -2.00541 0
M  V30 2772 C 260.579 -0.086346 -1.69881 0
M  V30 2773 O 261.764 -0.268654 -1.92333 0
M  V30 2774 C 258.894 -0.888758 -3.35736 0
M  V30 2775 C 257.848 -1.95659 -3.8066 0
M  V30 2776 C 257.174 -1.50224 -5.13164 0
M  V30 2777 C 258.474 -3.36788 -3.99213 0
M  V30 2778 H 260.168 -2.13476 -2.09925 0
M  V30 2779 H 257.714 -1.02775 -1.00863 0
M  V30 2780 H 259.667 -0.799094 -4.13754 0
M  V30 2781 H 258.391 0.0856125 -3.26488 0
M  V30 2782 H 257.05 -2.03591 -3.04871 0
M  V30 2783 H 256.698 -0.516092 -5.00345 0
M  V30 2784 H 256.398 -2.2165 -5.44192 0
M  V30 2785 H 257.922 -1.42639 -5.93706 0
M  V30 2786 H 259.336 -3.31605 -4.67665 0
M  V30 2787 H 257.733 -4.06314 -4.41621 0
M  V30 2788 H 258.803 -3.78561 -3.03017 0
M  V30 2789 N 260.146 1.09593 -1.13257 0
M  V30 2790 C 261.423 1.78293 -0.804432 0
M  V30 2791 C 261.803 1.99004 0.70431 0
M  V30 2792 O 261.151 1.59007 1.641 0
M  V30 2793 C 261.361 3.10707 -1.5894 0
M  V30 2794 C 262.709 3.85443 -1.78099 0
M  V30 2795 O 263.733 3.20454 -1.55525 0
M  V30 2796 O 262.592 5.02108 -2.15753 0
M  V30 2797 H 259.686 0.773156 -0.293528 0
M  V30 2798 H 262.232 1.16164 -1.23709 0
M  V30 2799 H 261.004 2.91106 -2.61482 0
M  V30 2800 H 260.627 3.80558 -1.15157 0
M  V30 2801 N 261.624 0.925811 1.2754 0
M  V30 2802 C 262.556 0.380753 2.26015 0
M  V30 2803 C 263.569 -0.487485 1.5533 0
M  V30 2804 O 264.758 -0.300413 1.75954 0
M  V30 2805 C 261.858 -0.473259 3.35579 0
M  V30 2806 C 261.031 0.375249 4.35787 0
M  V30 2807 C 260.09 -0.415809 5.24555 0
M  V30 2808 O 259.116 0.175834 5.68928 0
M  V30 2809 N 260.318 -1.71607 5.54555 0
M  V30 2810 H 263.083 1.22725 2.73421 0
M  V30 2811 H 260.644 0.793037 1.41147 0
M  V30 2812 H 262.636 -1.00949 3.91907 0
M  V30 2813 H 261.206 -1.2205 2.87789 0
M  V30 2814 H 260.426 1.09279 3.7875 0
M  V30 2815 H 261.714 0.955399 4.99749 0
M  V30 2816 H 261.112 -2.2191 5.20358 0
M  V30 2817 H 259.669 -2.19887 6.1359 0
M  V30 2818 N 263.102 -1.41638 0.69111 0
M  V30 2819 C 264.065 -2.29178 0.0319786 0
M  V30 2820 C 265.065 -1.44153 -0.712496 0
M  V30 2821 O 266.255 -1.65354 -0.548053 0
M  V30 2822 C 263.387 -3.26952 -0.965161 0
M  V30 2823 H 264.58 -2.88959 0.802681 0
M  V30 2824 H 262.133 -1.4955 0.454356 0
M  V30 2825 H 262.868 -2.72142 -1.76378 0
M  V30 2826 H 262.653 -3.89685 -0.434522 0
M  V30 2827 H 264.143 -3.92561 -1.42428 0
M  V30 2828 N 264.58 -0.43555 -1.51462 0
M  V30 2829 C 265.51 0.367376 -2.30592 0
M  V30 2830 C 266.491 1.02263 -1.35928 0
M  V30 2831 O 267.676 1.02661 -1.64847 0
M  V30 2832 C 264.806 1.46983 -3.14664 0
M  V30 2833 C 263.76 0.938161 -4.17591 0
M  V30 2834 C 263.086 2.13622 -4.90173 0
M  V30 2835 C 264.386 -0.0261621 -5.22293 0
M  V30 2836 H 266.08 -0.292969 -2.97963 0
M  V30 2837 H 263.626 -0.14234 -1.43295 0
M  V30 2838 H 265.579 2.03873 -3.688 0
M  V30 2839 H 264.303 2.15843 -2.4511 0
M  V30 2840 H 262.962 0.391481 -3.64504 0
M  V30 2841 H 262.61 2.81098 -4.17124 0
M  V30 2842 H 262.31 1.78688 -5.59772 0
M  V30 2843 H 263.834 2.7107 -5.47132 0
M  V30 2844 H 265.248 0.452384 -5.71512 0
M  V30 2845 H 263.645 -0.287992 -5.99409 0
M  V30 2846 H 264.715 -0.963391 -4.75233 0
M  V30 2847 N 266.058 1.56714 -0.166846 0
M  V30 2848 C 266.988 2.20754 0.760913 0
M  V30 2849 C 267.969 1.16178 1.24244 0
M  V30 2850 O 269.154 1.44592 1.29641 0
M  V30 2851 C 266.284 2.84478 1.99223 0
M  V30 2852 C 265.238 3.95053 1.64672 0
M  V30 2853 C 264.564 4.45805 2.95232 0
M  V30 2854 C 265.864 5.14865 0.878155 0
M  V30 2855 H 267.558 2.98537 0.22713 0
M  V30 2856 H 265.104 1.43596 0.107805 0
M  V30 2857 H 267.057 3.27951 2.64624 0
M  V30 2858 H 265.781 2.04056 2.55007 0
M  V30 2859 H 264.44 3.52228 1.01641 0
M  V30 2860 H 264.088 3.62181 3.49047 0
M  V30 2861 H 263.788 5.204 2.7287 0
M  V30 2862 H 265.312 4.91962 3.6167 0
M  V30 2863 H 266.726 5.55059 1.43466 0
M  V30 2864 H 265.123 5.95348 0.753738 0
M  V30 2865 H 266.193 4.84735 -0.126377 0
M  V30 2866 N 267.536 -0.106894 1.57237 0
M  V30 2867 C 268.764 -0.826389 1.8968 0
M  V30 2868 C 269.179 -1.72856 0.759353 0
M  V30 2869 O 268.536 -1.80503 -0.269263 0
M  V30 2870 C 268.587 -1.64967 3.21665 0
M  V30 2871 O 268.308 -0.783804 4.31031 0
M  V30 2872 C 269.809 -2.47326 3.67892 0
M  V30 2873 H 267.029 -0.236927 0.627779 0
M  V30 2874 H 269.573 -0.0876593 2.04312 0
M  V30 2875 H 267.728 -2.34103 3.08666 0
M  V30 2876 H 268.142 -1.35284 5.06753 0
M  V30 2877 H 269.616 -3.00604 4.6297 0
M  V30 2878 H 270.093 -3.25247 2.95146 0
M  V30 2879 H 270.699 -1.83411 3.83719 0
M  V30 2880 N 269.014 -1.53014 -0.377408 0
M  V30 2881 C 269.924 -1.81557 -1.48574 0
M  V30 2882 C 270.94 -0.703102 -1.59162 0
M  V30 2883 O 272.116 -0.99192 -1.75279 0
M  V30 2884 C 269.181 -1.9889 -2.83978 0
M  V30 2885 C 268.242 -3.22801 -2.83016 0
M  V30 2886 C 267.475 -3.39298 -4.11962 0
M  V30 2887 O 267.698 -2.60345 -5.0752 0
M  V30 2888 O 266.632 -4.32604 -4.18494 0
M  V30 2889 H 270.458 -2.75695 -1.27382 0
M  V30 2890 H 268.043 -1.38248 -0.566373 0
M  V30 2891 H 269.925 -2.11931 -3.6423 0
M  V30 2892 H 268.6 -1.07942 -3.05172 0
M  V30 2893 H 267.507 -3.15193 -2.01505 0
M  V30 2894 H 268.84 -4.13632 -2.66775 0
M  V30 2895 O 270.531 0.523369 -1.52784 0
M  V30 2896 H 271.222 1.17844 -1.53728 0
M  V30 END ATOM
M  V30 BEGIN BOND
M  V30 END BOND
M  V30 END CTAB
M  END
$$$$
