drugbank_target|O60669 Monocarboxylate transporter 2 (DB00119)
 OpenBabel12092119323D

  0  0  0     0  0            999 V3000
M  V30 BEGIN CTAB
M  V30 COUNTS 7436 7534 0 0 0
M  V30 BEGIN ATOM
M  V30 1 H -0.908 1.98254 -0.117106 0
M  V30 2 N 0 1.576 0 0
M  V30 3 C 0.933 2.03868 1.02534 0
M  V30 4 C 1.911 0.928543 1.3348 0
M  V30 5 O 3.095 1.19667 1.45644 0
M  V30 6 C 0.222 2.43627 2.35294 0
M  V30 7 C -0.732 3.65373 2.2001 0
M  V30 8 S 0.101 5.13292 1.52614 0
M  V30 9 C 1.257 5.56322 2.86805 0
M  V30 10 H 1.49 2.90518 0.631377 0
M  V30 11 H -0.977 1.52953 0.210867 0
M  V30 12 H 0.981 2.67203 3.11629 0
M  V30 13 H -0.358 1.57376 2.7183 0
M  V30 14 H -1.165 3.90944 3.18086 0
M  V30 15 H -1.563 3.418 1.51819 0
M  V30 16 H 0.729 5.58782 3.83104 0
M  V30 17 H 1.672 6.56266 2.65933 0
M  V30 18 H 2.08 4.83886 2.90714 0
M  V30 19 N 1.4781 -0.272755 1.55222 0
M  V30 20 C 2.8891 -0.84378 1.66545 0
M  V30 21 C 3.2401 -1.87035 0.592641 0
M  V30 22 O 2.3651 -2.14761 -0.265818 0
M  V30 23 C 2.9601 -1.53723 3.01918 0
M  V30 24 C 1.5191 -2.05628 3.15268 0
M  V30 25 C 0.6661 -0.898424 2.62343 0
M  V30 26 H 3.6171 -0.0490998 1.58624 0
M  V30 27 H 3.6381 -2.40421 2.94921 0
M  V30 28 H 3.1501 -0.78983 3.79978 0
M  V30 29 H 1.2511 -2.83329 2.41983 0
M  V30 30 H 1.3641 -2.27142 4.21833 0
M  V30 31 H -0.2719 -1.29186 2.19506 0
M  V30 32 H 0.5111 -0.164528 3.42906 0
M  V30 33 N 2.9562 -1.48159 -0.537278 0
M  V30 34 C 4.3672 -1.49429 -1.11928 0
M  V30 35 C 4.7182 -0.26 -1.9447 0
M  V30 36 O 3.8432 0.633489 -2.0692 0
M  V30 37 C 4.4382 -2.70758 -2.03656 0
M  V30 38 C 2.9972 -2.74923 -2.57088 0
M  V30 39 C 2.1442 -2.42835 -1.3389 0
M  V30 40 H 5.0952 -1.55381 -0.322886 0
M  V30 41 H 5.1162 -2.48861 -2.87834 0
M  V30 42 H 4.6282 -3.60575 -1.43553 0
M  V30 43 H 2.7292 -1.89296 -3.20933 0
M  V30 44 H 2.8422 -3.76157 -2.9672 0
M  V30 45 H 1.2062 -1.93836 -1.65226 0
M  V30 46 H 1.9892 -3.34884 -0.755504 0
M  V30 47 N 4.4343 0.785586 -1.36625 0
M  V30 48 C 5.3673 1.90509 -1.25625 0
M  V30 49 C 6.3453 1.62 -0.139607 0
M  V30 50 O 7.5293 1.8591 -0.31141 0
M  V30 51 C 4.6563 3.25419 -0.939158 0
M  V30 52 C 3.7023 3.72856 -2.07077 0
M  V30 53 S 4.5353 3.88162 -3.68904 0
M  V30 54 C 5.6913 5.25942 -3.39317 0
M  V30 55 H 5.9243 1.99549 -2.20381 0
M  V30 56 H 3.4573 0.945226 -1.22085 0
M  V30 57 H 5.4153 4.03346 -0.763029 0
M  V30 58 H 4.0763 3.14099 -0.00931402 0
M  V30 59 H 3.2693 4.70624 -1.80357 0
M  V30 60 H 2.8713 3.01989 -2.20632 0
M  V30 61 H 5.1633 6.10651 -2.93447 0
M  V30 62 H 6.1063 5.57668 -4.36363 0
M  V30 63 H 6.5143 4.93224 -2.74573 0
M  V30 64 N 5.9124 1.20967 1.01018 0
M  V30 65 C 7.3234 1.02319 1.56165 0
M  V30 66 C 7.6744 -0.418546 1.91684 0
M  V30 67 O 6.7994 -1.30096 1.72928 0
M  V30 68 C 7.3944 1.85109 2.8376 0
M  V30 69 C 5.9534 1.70809 3.35412 0
M  V30 70 C 5.1004 1.82643 2.08655 0
M  V30 71 H 8.0514 1.35065 0.833255 0
M  V30 72 H 8.0724 1.35827 3.55431 0
M  V30 73 H 7.5844 2.90035 2.57878 0
M  V30 74 H 5.6854 0.685464 3.66241 0
M  V30 75 H 5.7984 2.52467 4.07182 0
M  V30 76 H 4.1624 1.25896 2.21409 0
M  V30 77 H 4.9454 2.89066 1.85191 0
M  V30 78 N 7.3905 -1.2043 1.01659 0
M  V30 79 C 8.6155 -1.94318 0.724942 0
M  V30 80 C 9.0405 -1.74266 -0.708034 0
M  V30 81 O 8.3985 -1.03694 -1.48719 0
M  V30 82 C 8.4465 -3.44486 1.06591 0
M  V30 83 O 7.5505 -4.12017 0.177599 0
M  V30 84 H 6.8915 -0.60708 0.26898 0
M  V30 85 H 9.4215 -1.52861 1.35995 0
M  V30 86 H 9.4315 -3.95106 1.01762 0
M  V30 87 H 8.1065 -3.58404 2.10997 0
M  V30 88 H 6.6835 -3.71821 0.283421 0
M  V30 89 N 8.8686 -0.792821 -1.36206 0
M  V30 90 C 9.8316 -0.199459 -2.2833 0
M  V30 91 C 10.8316 0.605189 -1.48977 0
M  V30 92 O 12.0216 0.425685 -1.68919 0
M  V30 93 C 9.1536 0.723523 -3.33134 0
M  V30 94 H 10.3466 -1.01181 -2.82316 0
M  V30 95 H 7.8996 -0.562485 -1.45828 0
M  V30 96 H 8.6346 1.56008 -2.84309 0
M  V30 97 H 8.4196 0.148436 -3.91819 0
M  V30 98 H 9.9096 1.13344 -4.01924 0
M  V30 99 N 10.3467 1.47872 -0.545128 0
M  V30 100 C 11.7577 1.86384 -0.108581 0
M  V30 101 C 12.1087 1.45309 1.31832 0
M  V30 102 O 11.2337 0.850641 1.9898 0
M  V30 103 C 11.8287 3.38265 -0.190274 0
M  V30 104 C 10.3877 3.75914 0.191164 0
M  V30 105 C 9.5347 2.71926 -0.543273 0
M  V30 106 H 12.4857 1.39561 -0.755537 0
M  V30 107 H 12.5067 3.75831 0.594217 0
M  V30 108 H 12.0187 3.6813 -1.2289 0
M  V30 109 H 10.1197 3.51665 1.23136 0
M  V30 110 H 10.2327 4.78836 -0.158987 0
M  V30 111 H 8.5967 2.54697 0.0122495 0
M  V30 112 H 9.3797 3.04634 -1.58282 0
M  V30 113 N 11.8248 0.280983 1.55075 0
M  V30 114 C 13.2358 -0.215629 1.85451 0
M  V30 115 C 13.5868 -1.54991 1.203 0
M  V30 116 O 12.7118 -2.10699 0.493435 0
M  V30 117 C 13.3068 -0.398026 3.36454 0
M  V30 118 C 11.8658 -0.838866 3.66933 0
M  V30 119 C 11.0128 0.064458 2.77225 0
M  V30 120 H 13.9638 0.502601 1.50531 0
M  V30 121 H 13.9848 -1.23569 3.59876 0
M  V30 122 H 13.4968 0.573241 3.83843 0
M  V30 123 H 11.5978 -1.8214 3.25048 0
M  V30 124 H 11.7108 -0.672123 4.74362 0
M  V30 125 H 10.0748 -0.452863 2.50642 0
M  V30 126 H 10.8578 1.03172 3.2743 0
M  V30 127 N 13.3029 -1.57598 0.00835791 0
M  V30 128 C 14.5489 -1.91211 -0.675732 0
M  V30 129 C 14.8819 -0.883139 -1.72958 0
M  V30 130 O 14.1569 0.097016 -1.94258 0
M  V30 131 C 14.4399 -3.35379 -1.31123 0
M  V30 132 C 14.2929 -4.48999 -0.268356 0
M  V30 133 C 15.6119 -3.7912 -2.23508 0
M  V30 134 H 12.7309 -0.695374 -0.244179 0
M  V30 135 H 15.3729 -1.89901 0.0613655 0
M  V30 136 H 13.5229 -3.36626 -1.93946 0
M  V30 137 H 15.1949 -4.59887 0.360844 0
M  V30 138 H 13.4379 -4.31873 0.408482 0
M  V30 139 H 14.1089 -5.46851 -0.752218 0
M  V30 140 H 16.5849 -3.79477 -1.70693 0
M  V30 141 H 15.4609 -4.80729 -2.64936 0
M  V30 142 H 15.7219 -3.13455 -3.11766 0
M  V30 143 N 14.781 0.264519 -1.55364 0
M  V30 144 C 15.731 1.32966 -1.85214 0
M  V30 145 C 16.715 1.44306 -0.711653 0
M  V30 146 O 17.907 1.47844 -0.973192 0
M  V30 147 C 15.036 2.68839 -2.13495 0
M  V30 148 C 14.122 2.61575 -3.33825 0
M  V30 149 N 14.513 2.23933 -4.53528 0
M  V30 150 C 12.811 2.92621 -3.36584 0
M  V30 151 C 13.512 2.26868 -5.35636 0
M  V30 152 N 12.488 2.65677 -4.74254 0
M  V30 153 H 16.29 1.02884 -2.75304 0
M  V30 154 H 13.804 0.473157 -1.55354 0
M  V30 155 H 15.801 3.45685 -2.33039 0
M  V30 156 H 14.461 2.99802 -1.24694 0
M  V30 157 H 15.472 1.95769 -4.79474 0
M  V30 158 H 12.149 3.2824 -2.58002 0
M  V30 159 H 13.539 2.00254 -6.41364 0
M  V30 160 N 16.2591 1.48442 0.529413 0
M  V30 161 C 17.6701 1.5002 1.11134 0
M  V30 162 C 18.0211 0.27031 1.94329 0
M  V30 163 O 17.1461 -0.622507 2.07253 0
M  V30 164 C 17.7411 2.71834 2.02217 0
M  V30 165 C 16.3001 2.76283 2.55627 0
M  V30 166 C 15.4471 2.43542 1.326 0
M  V30 167 H 18.3981 1.5555 0.314641 0
M  V30 168 H 18.4191 2.50384 2.8651 0
M  V30 169 H 17.9311 3.61331 1.41639 0
M  V30 170 H 16.0321 1.90995 3.19924 0
M  V30 171 H 16.1451 3.77725 2.94721 0
M  V30 172 H 14.5091 1.94709 1.64196 0
M  V30 173 H 15.2921 3.3528 0.737734 0
M  V30 174 N 17.7372 -0.778329 1.37039 0
M  V30 175 C 19.1482 -1.35421 1.28523 0
M  V30 176 C 19.4992 -1.96075 -0.0700901 0
M  V30 177 O 18.6242 -1.93352 -0.971801 0
M  V30 178 C 19.2192 -2.46211 2.32735 0
M  V30 179 C 17.7782 -2.99585 2.27873 0
M  V30 180 C 16.9252 -1.72748 2.16918 0
M  V30 181 H 19.8762 -0.5791 1.47757 0
M  V30 182 H 19.8972 -3.2552 1.9702 0
M  V30 183 H 19.4092 -2.02036 3.31365 0
M  V30 184 H 17.5102 -3.48152 1.32745 0
M  V30 185 H 17.6232 -3.55646 3.21018 0
M  V30 186 H 15.9872 -1.95416 1.63354 0
M  V30 187 H 16.7702 -1.30686 3.17452 0
M  V30 188 N 19.2153 -1.21501 -1.00376 0
M  V30 189 C 20.6263 -1.03146 -1.55621 0
M  V30 190 C 20.9773 0.408375 -1.91903 0
M  V30 191 O 20.1023 1.29177 -1.73616 0
M  V30 192 C 20.6973 -1.86612 -2.82775 0
M  V30 193 C 19.2563 -1.72586 -3.34501 0
M  V30 194 C 18.4033 -1.83747 -2.07683 0
M  V30 195 H 21.3543 -1.35505 -0.826081 0
M  V30 196 H 21.3753 -1.3771 -3.54706 0
M  V30 197 H 20.8873 -2.91399 -2.56336 0
M  V30 198 H 18.9883 -0.704877 -3.65872 0
M  V30 199 H 19.1013 -2.54623 -4.05837 0
M  V30 200 H 17.4653 -1.27069 -2.20739 0
M  V30 201 H 18.2483 -2.90044 -1.83655 0
M  V30 202 N 20.6934 1.19889 -1.02296 0
M  V30 203 C 21.9704 1.85148 -0.630832 0
M  V30 204 C 22.3504 1.91385 0.890782 0
M  V30 205 O 21.6984 1.42642 1.78509 0
M  V30 206 C 21.9084 3.24442 -1.28602 0
M  V30 207 C 23.2564 4.00663 -1.4055 0
M  V30 208 O 24.2804 3.33818 -1.24273 0
M  V30 209 O 23.1394 5.20387 -1.66913 0
M  V30 210 H 20.2334 0.797613 -0.218499 0
M  V30 211 H 22.7794 1.27427 -1.12074 0
M  V30 212 H 21.5514 3.14704 -2.32545 0
M  V30 213 H 21.1744 3.89802 -0.7836 0
M  V30 214 N 22.1715 0.800033 1.35784 0
M  V30 215 C 23.4195 0.376597 1.9856 0
M  V30 216 C 23.7405 -1.05812 1.63795 0
M  V30 217 O 23.0105 -1.73103 0.917171 0
M  V30 218 H 21.5905 0.136261 0.734467 0
M  V30 219 H 24.2525 1.02442 1.65806 0
M  V30 220 H 23.3485 0.477002 3.08433 0
M  V30 221 N 23.6496 -1.47581 0.552962 0
M  V30 222 C 24.8976 -2.02082 0.0272703 0
M  V30 223 C 25.2186 -1.4301 -1.32563 0
M  V30 224 O 24.4886 -0.603745 -1.86365 0
M  V30 225 H 23.0686 -0.746966 0.00709182 0
M  V30 226 H 25.7306 -1.81033 0.722008 0
M  V30 227 H 24.8266 -3.12034 -0.0639951 0
M  V30 228 N 25.1277 -0.289203 -1.54924 0
M  V30 229 C 26.3737 0.316922 -2.00916 0
M  V30 230 C 26.7287 1.52424 -1.17408 0
M  V30 231 O 26.0217 1.90097 -0.239536 0
M  V30 232 C 26.2157 0.736119 -3.49737 0
M  V30 233 C 26.0447 -0.429036 -4.47649 0
M  V30 234 C 24.8147 -0.917311 -4.96904 0
M  V30 235 C 27.0127 -1.27016 -4.98369 0
M  V30 236 N 24.9947 -2.05046 -5.78644 0
M  V30 237 C 26.3657 -2.25097 -5.77695 0
M  V30 238 C 28.4207 -1.30188 -4.80578 0
M  V30 239 C 27.1237 -3.26114 -6.41126 0
M  V30 240 C 29.1497 -2.30057 -5.44819 0
M  V30 241 C 28.5117 -3.2687 -6.23968 0
M  V30 242 H 24.6107 0.0807535 -0.777819 0
M  V30 243 H 27.1947 -0.416434 -1.90194 0
M  V30 244 H 25.3657 1.43867 -3.60773 0
M  V30 245 H 27.0977 1.32078 -3.82541 0
M  V30 246 H 23.8527 -0.494248 -4.71014 0
M  V30 247 H 24.2767 -2.62108 -6.24202 0
M  V30 248 H 28.9187 -0.567163 -4.18979 0
M  V30 249 H 26.6367 -4.00512 -7.01866 0
M  V30 250 H 30.2227 -2.33271 -5.32988 0
M  V30 251 H 29.1027 -4.02883 -6.72796 0
M  V30 252 N 26.6058 1.57591 -0.0167156 0
M  V30 253 C 27.8538 1.90906 0.663285 0
M  V30 254 C 28.1748 0.892509 1.73376 0
M  V30 255 O 27.4448 -0.0677623 1.95783 0
M  V30 256 H 26.0248 0.704637 0.247983 0
M  V30 257 H 28.6868 1.94803 -0.0615909 0
M  V30 258 H 27.7828 2.9116 1.12393 0
M  V30 259 N 28.0839 -0.256276 1.55502 0
M  V30 260 C 29.3299 -0.982884 1.78076 0
M  V30 261 C 29.6849 -1.83319 0.584109 0
M  V30 262 O 28.9779 -1.86875 -0.422877 0
M  V30 263 C 29.1719 -1.88432 3.03691 0
M  V30 264 C 29.0009 -1.12276 4.35459 0
M  V30 265 C 27.7709 -0.831647 4.98409 0
M  V30 266 C 29.9689 -0.504933 5.11815 0
M  V30 267 N 27.9509 -0.0450423 6.13883 0
M  V30 268 C 29.3219 0.146696 6.19826 0
M  V30 269 C 31.3769 -0.414455 4.96172 0
M  V30 270 C 30.0799 0.880103 7.13895 0
M  V30 271 C 32.1059 0.305398 5.90611 0
M  V30 272 C 31.4679 0.945701 6.98023 0
M  V30 273 H 27.5669 -0.341084 0.703694 0
M  V30 274 H 30.1509 -0.256909 1.92998 0
M  V30 275 H 28.3219 -2.58241 2.90114 0
M  V30 276 H 30.0539 -2.54579 3.14598 0
M  V30 277 H 26.8089 -1.14111 4.59647 0
M  V30 278 H 27.2329 0.336079 6.76165 0
M  V30 279 H 31.8749 -0.895163 4.13215 0
M  V30 280 H 29.5929 1.37244 7.9636 0
M  V30 281 H 33.1789 0.375946 5.80584 0
M  V30 282 H 32.0589 1.49383 7.6984 0
M  V30 283 N 29.562 -1.4872 -0.521534 0
M  V30 284 C 30.811 -1.56419 -1.27341 0
M  V30 285 C 31.124 -0.246805 -1.94037 0
M  V30 286 O 32.33 -0.202122 -2.70747 0
M  V30 287 C 30.786 -2.75896 -2.31105 0
M  V30 288 C 30.394 -4.14311 -1.70441 0
M  V30 289 C 32.138 -2.92913 -3.07249 0
M  V30 290 C 30.045 -5.25038 -2.72194 0
M  V30 291 H 28.975 -0.582344 -0.478949 0
M  V30 292 H 31.626 -1.75071 -0.549779 0
M  V30 293 H 30.008 -2.50697 -3.06541 0
M  V30 294 H 31.182 -4.49564 -1.01136 0
M  V30 295 H 29.497 -4.02482 -1.06759 0
M  V30 296 H 32.094 -3.72805 -3.83302 0
M  V30 297 H 32.437 -2.02689 -3.63625 0
M  V30 298 H 32.97 -3.18054 -2.38928 0
M  V30 299 H 29.709 -6.17255 -2.20627 0
M  V30 300 H 29.229 -4.94263 -3.39801 0
M  V30 301 H 30.908 -5.53508 -3.35019 0
M  V30 302 N 31.0401 0.771051 -1.3745 0
M  V30 303 C 32.2861 1.5319 -1.32894 0
M  V30 304 C 32.6191 1.94008 0.0862511 0
M  V30 305 O 31.8941 1.64124 1.04373 0
M  V30 306 C 32.1771 2.79648 -2.26868 0
M  V30 307 C 32.0301 2.45079 -3.77169 0
M  V30 308 C 33.3491 3.81583 -2.19277 0
M  V30 309 H 30.4681 0.555744 -0.484064 0
M  V30 310 H 33.1101 0.884492 -1.68157 0
M  V30 311 H 31.2601 3.34891 -1.96926 0
M  V30 312 H 32.9321 1.95745 -4.1771 0
M  V30 313 H 31.1751 1.77767 -3.95704 0
M  V30 314 H 31.8461 3.35478 -4.38359 0
M  V30 315 H 34.3221 3.35835 -2.45671 0
M  V30 316 H 33.1981 4.67787 -2.87171 0
M  V30 317 H 33.4591 4.25897 -1.18592 0
M  V30 318 N 32.5182 1.22032 0.997298 0
M  V30 319 C 33.7642 1.04376 1.73878 0
M  V30 320 C 34.0972 -0.420716 1.89588 0
M  V30 321 O 33.3722 -1.31202 1.43583 0
M  V30 322 C 33.6552 1.75047 3.14691 0
M  V30 323 C 33.5082 3.29062 3.06656 0
M  V30 324 C 34.8272 1.49928 4.13775 0
M  V30 325 H 31.9462 0.380578 0.631133 0
M  V30 326 H 34.5882 1.50312 1.16217 0
M  V30 327 H 32.7382 1.35996 3.63919 0
M  V30 328 H 34.4102 3.7753 2.65083 0
M  V30 329 H 32.6532 3.58967 2.43568 0
M  V30 330 H 33.3242 3.73683 4.06282 0
M  V30 331 H 35.8002 1.83842 3.73285 0
M  V30 332 H 34.6762 2.01878 5.10428 0
M  V30 333 H 34.9372 0.430929 4.39995 0
M  V30 334 N 33.9963 -1.19345 1.0293 0
M  V30 335 C 35.2443 -1.88665 0.724574 0
M  V30 336 C 35.5653 -1.80036 -0.749144 0
M  V30 337 O 34.8353 -1.2111 -1.53978 0
M  V30 338 H 33.4153 -0.698406 0.265025 0
M  V30 339 H 36.0773 -1.44885 1.30362 0
M  V30 340 H 35.1733 -2.94987 1.01926 0
M  V30 341 N 35.4744 -0.807222 -1.35358 0
M  V30 342 C 36.4374 -0.223665 -2.28106 0
M  V30 343 C 37.4374 0.589354 -1.4961 0
M  V30 344 O 38.6274 0.407745 -1.69361 0
M  V30 345 C 35.7594 0.688149 -3.33882 0
M  V30 346 H 36.9524 -1.04169 -2.81227 0
M  V30 347 H 34.5054 -0.577921 -1.45223 0
M  V30 348 H 35.2404 1.52984 -2.85948 0
M  V30 349 H 35.0254 0.10687 -3.91954 0
M  V30 350 H 36.5154 1.09075 -4.03104 0
M  V30 351 N 36.9525 1.47285 -0.560781 0
M  V30 352 C 37.9155 2.28535 0.174488 0
M  V30 353 C 38.9155 1.37153 0.839388 0
M  V30 354 O 40.1055 1.59748 0.694702 0
M  V30 355 C 37.2375 3.16934 1.25561 0
M  V30 356 H 38.4305 2.95012 -0.539262 0
M  V30 357 H 35.9835 1.53034 -0.317865 0
M  V30 358 H 36.7185 2.55157 2.00164 0
M  V30 359 H 36.5035 3.8419 0.783604 0
M  V30 360 H 37.9935 3.78143 1.77193 0
M  V30 361 N 38.4306 0.297415 1.54768 0
M  V30 362 C 39.6776 -0.312913 2.00068 0
M  V30 363 C 40.0056 -1.54171 1.18582 0
M  V30 364 O 39.2606 -1.94108 0.249133 0
M  V30 365 C 39.5596 -0.717561 3.50123 0
M  V30 366 C 39.2256 0.409095 4.4904 0
M  V30 367 C 37.8876 0.718399 4.75807 0
M  V30 368 C 40.2396 1.16717 5.07963 0
M  V30 369 C 37.5676 1.78896 5.5876 0
M  V30 370 C 39.9196 2.22762 5.92081 0
M  V30 371 C 38.5836 2.54303 6.1716 0
M  V30 372 H 37.8536 -0.114503 0.7321 0
M  V30 373 H 40.5006 0.415767 1.86932 0
M  V30 374 H 38.8056 -1.52627 3.60849 0
M  V30 375 H 40.5026 -1.20091 3.82595 0
M  V30 376 H 37.0926 0.157918 4.28309 0
M  V30 377 H 41.2766 0.941466 4.87289 0
M  V30 378 H 36.5326 2.0381 5.7643 0
M  V30 379 H 40.7066 2.81962 6.36765 0
M  V30 380 H 38.3336 3.3739 6.81229 0
M  V30 381 N 39.9087 -1.5758 0.0250728 0
M  V30 382 C 41.1577 -1.90811 -0.653767 0
M  V30 383 C 41.4707 -0.90273 -1.73523 0
M  V30 384 O 42.6767 -1.12614 -2.47043 0
M  V30 385 C 41.1327 -3.38804 -1.21409 0
M  V30 386 C 40.7407 -4.47692 -0.166126 0
M  V30 387 C 42.4847 -3.81108 -1.86967 0
M  V30 388 C 40.3917 -5.86779 -0.737856 0
M  V30 389 H 39.3217 -0.712063 -0.247956 0
M  V30 390 H 41.9727 -1.83281 0.0897137 0
M  V30 391 H 40.3547 -3.41252 -2.00905 0
M  V30 392 H 41.5287 -4.56797 0.606079 0
M  V30 393 H 39.8437 -4.14565 0.390466 0
M  V30 394 H 42.4407 -4.82375 -2.30692 0
M  V30 395 H 42.7837 -3.15953 -2.71071 0
M  V30 396 H 43.3167 -3.81065 -1.14167 0
M  V30 397 H 40.0557 -6.55468 0.0649577 0
M  V30 398 H 39.5757 -5.81288 -1.47864 0
M  V30 399 H 41.2547 -6.35223 -1.22884 0
M  V30 400 N 41.3868 0.248026 -1.55636 0
M  V30 401 C 42.6118 0.998028 -1.81808 0
M  V30 402 C 43.0368 1.78207 -0.601979 0
M  V30 403 O 42.3948 1.75653 0.448961 0
M  V30 404 C 42.4428 1.9125 -3.05705 0
M  V30 405 O 41.5468 3.00406 -2.82542 0
M  V30 406 H 40.8878 0.284045 -0.600179 0
M  V30 407 H 43.4178 0.269357 -2.02819 0
M  V30 408 H 43.4278 2.32737 -3.35108 0
M  V30 409 H 42.1028 1.33602 -3.93857 0
M  V30 410 H 40.6798 2.63056 -2.64303 0
M  V30 411 N 42.8649 1.48995 0.513639 0
M  V30 412 C 44.1139 1.57093 1.2651 0
M  V30 413 C 44.4269 0.257091 1.93903 0
M  V30 414 O 45.6329 0.216478 2.70636 0
M  V30 415 C 44.0889 2.77118 2.29638 0
M  V30 416 C 43.6969 4.15209 1.68241 0
M  V30 417 C 45.4409 2.94538 3.05692 0
M  V30 418 C 43.3479 5.26474 2.69406 0
M  V30 419 H 42.2779 0.584876 0.475854 0
M  V30 420 H 44.9289 1.7536 0.540487 0
M  V30 421 H 43.3109 2.52319 3.05207 0
M  V30 422 H 44.4849 4.50094 0.987505 0
M  V30 423 H 42.7999 4.03042 1.04623 0
M  V30 424 H 45.3969 3.74832 3.8132 0
M  V30 425 H 45.7399 2.04614 3.62545 0
M  V30 426 H 46.2729 3.19316 2.37238 0
M  V30 427 H 43.0119 6.18417 2.17351 0
M  V30 428 H 42.5319 4.96058 3.37175 0
M  V30 429 H 44.2109 5.55277 3.32078 0
M  V30 430 N 44.343 -0.763751 1.37857 0
M  V30 431 C 45.591 -1.51957 1.33243 0
M  V30 432 C 45.912 -1.94835 -0.0801709 0
M  V30 433 O 45.182 -1.66894 -1.02582 0
M  V30 434 H 43.762 -0.563626 0.49024 0
M  V30 435 H 46.424 -0.908504 1.7243 0
M  V30 436 H 45.52 -2.41523 1.97669 0
M  V30 437 N 45.8211 -1.22559 -0.990812 0
M  V30 438 C 47.0681 -1.05141 -1.73065 0
M  V30 439 C 47.3961 0.413191 -1.9006 0
M  V30 440 O 46.6511 1.32257 -1.44245 0
M  V30 441 C 46.9501 -1.71011 -3.13831 0
M  V30 442 C 46.6161 -3.20911 -3.16745 0
M  V30 443 C 45.2781 -3.61812 -3.17247 0
M  V30 444 C 47.6301 -4.16846 -3.12872 0
M  V30 445 C 44.9581 -4.97127 -3.1158 0
M  V30 446 C 47.3101 -5.5214 -3.08746 0
M  V30 447 C 45.9741 -5.92419 -3.07565 0
M  V30 448 H 45.2441 -0.384738 -0.633291 0
M  V30 449 H 47.8911 -1.5235 -1.16025 0
M  V30 450 H 46.1961 -1.16133 -3.74193 0
M  V30 451 H 47.8931 -1.55023 -3.69823 0
M  V30 452 H 44.4831 -2.88344 -3.17105 0
M  V30 453 H 48.6671 -3.86263 -3.11632 0
M  V30 454 H 43.9231 -5.27562 -3.09012 0
M  V30 455 H 48.0971 -6.26201 -3.04705 0
M  V30 456 H 45.7241 -6.97236 -3.02929 0
M  V30 457 N 47.2992 1.18797 -1.03562 0
M  V30 458 C 48.5242 1.9314 -0.755764 0
M  V30 459 C 48.9492 1.7537 0.68022 0
M  V30 460 O 48.3072 1.06046 1.47051 0
M  V30 461 C 48.3552 3.42747 -1.12058 0
M  V30 462 O 47.4592 4.11683 -0.243124 0
M  V30 463 H 46.8002 0.602724 -0.278604 0
M  V30 464 H 49.3302 1.50678 -1.3841 0
M  V30 465 H 49.3402 3.93437 -1.08035 0
M  V30 466 H 48.0152 3.55002 -2.16672 0
M  V30 467 H 46.5922 3.71323 -0.342539 0
M  V30 468 N 48.7773 0.814389 1.34928 0
M  V30 469 C 50.0073 0.41054 2.0248 0
M  V30 470 C 50.4153 -0.985625 1.61499 0
M  V30 471 O 49.7583 -1.64781 0.811976 0
M  V30 472 C 49.8203 0.423384 3.56998 0
M  V30 473 C 49.4843 1.77141 4.21272 0
M  V30 474 C 50.4813 2.73093 4.42398 0
M  V30 475 C 48.1663 2.05755 4.58225 0
M  V30 476 C 50.1603 3.95838 4.9959 0
M  V30 477 C 47.8473 3.28762 5.1513 0
M  V30 478 C 48.8453 4.23621 5.35755 0
M  V30 479 O 48.5333 5.44456 5.91458 0
M  V30 480 H 48.2653 0.163997 0.655806 0
M  V30 481 H 50.8193 1.10155 1.73364 0
M  V30 482 H 49.0493 -0.324276 3.85338 0
M  V30 483 H 50.7383 0.0407683 4.0588 0
M  V30 484 H 51.5043 2.5228 4.14222 0
M  V30 485 H 47.3833 1.32727 4.4148 0
M  V30 486 H 50.9273 4.69891 5.15605 0
M  V30 487 H 46.8243 3.49443 5.42734 0
M  V30 488 H 47.5923 5.4586 6.09901 0
M  V30 489 N 50.2554 -1.46986 0.568584 0
M  V30 490 C 51.2184 -2.28624 -0.162366 0
M  V30 491 C 52.2184 -1.37596 -0.832103 0
M  V30 492 O 53.4084 -1.60115 -0.68622 0
M  V30 493 C 50.5404 -3.17596 -1.23878 0
M  V30 494 H 51.7334 -2.94722 0.554899 0
M  V30 495 H 49.2864 -1.52863 0.325976 0
M  V30 496 H 50.0214 -2.56214 -1.98808 0
M  V30 497 H 49.8064 -3.846 -0.763219 0
M  V30 498 H 51.2964 -3.79078 -1.75185 0
M  V30 499 N 51.7335 -0.305618 -1.54608 0
M  V30 500 C 52.9805 0.302298 -2.00231 0
M  V30 501 C 53.3085 1.5354 -1.19398 0
M  V30 502 O 52.5635 1.93973 -0.259423 0
M  V30 503 C 52.8625 0.698983 -3.50498 0
M  V30 504 C 52.5285 -0.432903 -4.48817 0
M  V30 505 C 51.1905 -0.743622 -4.75419 0
M  V30 506 C 53.5425 -1.19409 -5.07337 0
M  V30 507 C 50.8705 -1.81857 -5.57804 0
M  V30 508 C 53.2225 -2.25899 -5.90891 0
M  V30 509 C 51.8865 -2.57572 -6.15803 0
M  V30 510 H 51.1565 0.110619 -0.732697 0
M  V30 511 H 53.8035 -0.425674 -1.86709 0
M  V30 512 H 52.1085 1.50711 -3.61654 0
M  V30 513 H 53.8055 1.1806 -3.83227 0
M  V30 514 H 50.3955 -0.18063 -4.28219 0
M  V30 515 H 54.5795 -0.967295 -4.86782 0
M  V30 516 H 49.8355 -2.06864 -5.75341 0
M  V30 517 H 54.0095 -2.85335 -6.35261 0
M  V30 518 H 51.6365 -3.40998 -6.7943 0
M  V30 519 N 53.2116 1.57565 -0.0334293 0
M  V30 520 C 54.6226 1.79746 0.504798 0
M  V30 521 C 54.9736 0.944091 1.71992 0
M  V30 522 O 54.0986 0.155694 2.15839 0
M  V30 523 C 54.6936 3.25997 0.922567 0
M  V30 524 C 53.2526 3.49159 1.40588 0
M  V30 525 C 52.3996 2.74785 0.372633 0
M  V30 526 H 55.3506 1.56565 -0.259436 0
M  V30 527 H 55.3716 3.35945 1.78666 0
M  V30 528 H 54.8836 3.88081 0.0379825 0
M  V30 529 H 52.9846 2.92332 2.31025 0
M  V30 530 H 53.0976 4.57873 1.41028 0
M  V30 531 H 51.4616 2.40391 0.841672 0
M  V30 532 H 52.2446 3.39587 -0.503559 0
M  V30 533 N 54.6897 -0.239769 1.55765 0
M  V30 534 C 55.6367 -1.29696 1.90913 0
M  V30 535 C 56.6067 -1.47478 0.764164 0
M  V30 536 O 57.7917 -1.61345 1.01845 0
M  V30 537 C 54.9317 -2.64598 2.21544 0
M  V30 538 C 54.0447 -2.54765 3.48882 0
M  V30 539 C 53.1797 -3.82069 3.69049 0
M  V30 540 C 52.2187 -3.66883 4.89963 0
M  V30 541 N 51.3557 -4.86094 5.06614 0
M  V30 542 H 56.1957 -0.990224 2.81067 0
M  V30 543 H 53.7327 -0.477684 1.39128 0
M  V30 544 H 55.6907 -3.43132 2.3731 0
M  V30 545 H 54.3207 -2.93405 1.34585 0
M  V30 546 H 53.3727 -1.67763 3.41409 0
M  V30 547 H 54.6847 -2.39457 4.37563 0
M  V30 548 H 53.8387 -4.69046 3.84812 0
M  V30 549 H 52.5777 -4.00282 2.78614 0
M  V30 550 H 51.5827 -2.78289 4.74168 0
M  V30 551 H 52.8077 -3.50157 5.81865 0
M  V30 552 H 50.7537 -5.04655 4.19117 0
M  V30 553 H 50.6707 -4.73443 5.89396 0
M  V30 554 H 51.9387 -5.74549 5.26795 0
M  V30 555 N 56.1678 -1.49265 -0.50573 0
M  V30 556 C 57.1308 -1.65075 -1.59006 0
M  V30 557 C 58.1308 -0.522768 -1.52065 0
M  V30 558 O 59.3208 -0.789117 -1.55302 0
M  V30 559 C 56.4528 -1.64369 -2.98656 0
M  V30 560 H 57.6458 -2.61784 -1.46319 0
M  V30 561 H 55.1988 -1.38226 -0.729616 0
M  V30 562 H 55.9338 -0.692272 -3.16825 0
M  V30 563 H 55.7188 -2.46282 -3.05103 0
M  V30 564 H 57.2088 -1.78674 -3.77446 0
M  V30 565 N 57.6459 0.756429 -1.3826 0
M  V30 566 C 58.8919 1.51772 -1.34511 0
M  V30 567 C 59.2249 1.94089 0.0656691 0
M  V30 568 O 58.4999 1.65221 1.02626 0
M  V30 569 C 58.7829 2.77226 -2.29821 0
M  V30 570 C 58.6359 2.41065 -3.79747 0
M  V30 571 C 59.9549 3.79236 -2.23312 0
M  V30 572 H 57.0739 0.550578 -0.489931 0
M  V30 573 H 59.7159 0.866607 -1.69086 0
M  V30 574 H 57.8659 3.32784 -2.00467 0
M  V30 575 H 59.5379 1.91303 -4.19763 0
M  V30 576 H 57.7809 1.7356 -3.97567 0
M  V30 577 H 58.4519 3.3081 -4.41892 0
M  V30 578 H 60.9279 3.3321 -2.49219 0
M  V30 579 H 59.8039 4.64714 -2.92116 0
M  V30 580 H 60.0649 4.24615 -1.23102 0
M  V30 581 N 59.124 1.23083 0.984299 0
M  V30 582 C 60.352 1.08714 1.76037 0
M  V30 583 C 60.767 -0.361691 1.85303 0
M  V30 584 O 60.124 -1.25034 1.32939 0
M  V30 585 C 60.175 1.70206 3.18923 0
M  V30 586 O 59.896 3.09423 3.10144 0
M  V30 587 C 61.397 1.61227 4.12941 0
M  V30 588 H 58.617 0.380664 0.552572 0
M  V30 589 H 61.161 1.62853 1.23689 0
M  V30 590 H 59.316 1.20109 3.6831 0
M  V30 591 H 59.73 3.39188 4.00065 0
M  V30 592 H 61.204 2.08962 5.10919 0
M  V30 593 H 61.681 0.570375 4.35481 0
M  V30 594 H 62.287 2.10671 3.69456 0
M  V30 595 N 60.6021 -1.18246 1.0419 0
M  V30 596 C 61.8481 -1.88536 0.747122 0
M  V30 597 C 62.1811 -1.80223 -0.723409 0
M  V30 598 O 61.4561 -1.20337 -1.52804 0
M  V30 599 C 61.7391 -3.38968 1.21544 0
M  V30 600 C 61.5921 -3.56084 2.74816 0
M  V30 601 C 62.9111 -4.32648 0.806482 0
M  V30 602 H 60.0301 -0.684619 0.272883 0
M  V30 603 H 62.6721 -1.39113 1.29413 0
M  V30 604 H 60.8221 -3.8119 0.750081 0
M  V30 605 H 62.4941 -3.22946 3.29399 0
M  V30 606 H 60.7371 -2.98699 3.14582 0
M  V30 607 H 61.4081 -4.61639 3.02644 0
M  V30 608 H 63.8841 -3.98211 1.20695 0
M  V30 609 H 62.7601 -5.36462 1.1619 0
M  V30 610 H 63.0211 -4.41146 -0.29029 0
M  V30 611 N 62.0802 -0.821533 -1.34494 0
M  V30 612 C 63.3272 -0.408946 -1.98328 0
M  V30 613 C 63.6552 1.02764 -1.65136 0
M  V30 614 O 62.9102 1.73026 -0.914349 0
M  V30 615 C 63.2092 -0.556512 -3.53041 0
M  V30 616 C 62.8752 -1.95861 -4.0614 0
M  V30 617 C 61.5372 -2.34217 -4.20352 0
M  V30 618 C 63.8892 -2.87523 -4.34718 0
M  V30 619 C 61.2172 -3.63572 -4.6047 0
M  V30 620 C 63.5692 -4.1634 -4.76281 0
M  V30 621 C 62.2332 -4.54675 -4.88699 0
M  V30 622 H 61.5032 -0.149644 -0.725732 0
M  V30 623 H 64.1502 -1.04521 -1.6046 0
M  V30 624 H 62.4552 0.163148 -3.9146 0
M  V30 625 H 64.1522 -0.217826 -4.00408 0
M  V30 626 H 60.7422 -1.65066 -3.95539 0
M  V30 627 H 64.9262 -2.59133 -4.23277 0
M  V30 628 H 60.1822 -3.93101 -4.68275 0
M  V30 629 H 64.3562 -4.87455 -4.97354 0
M  V30 630 H 61.9832 -5.54959 -5.19542 0
M  V30 631 N 63.5583 1.46682 -0.576371 0
M  V30 632 C 64.8053 2.02412 -0.0595339 0
M  V30 633 C 65.1333 1.44859 1.29793 0
M  V30 634 O 64.3883 0.601099 1.8624 0
M  V30 635 C 64.6873 3.57345 0.062886 0
M  V30 636 C 64.3533 4.33908 -1.22616 0
M  V30 637 C 63.0153 4.54544 -1.57933 0
M  V30 638 C 65.3673 4.77919 -2.07948 0
M  V30 639 C 62.6953 5.16444 -2.78393 0
M  V30 640 C 65.0473 5.41149 -3.27629 0
M  V30 641 C 63.7113 5.60014 -3.63236 0
M  V30 642 H 62.9813 0.74068 -0.021785 0
M  V30 643 H 65.6283 1.76128 -0.751735 0
M  V30 644 H 63.9333 3.82729 0.838178 0
M  V30 645 H 65.6303 3.98136 0.478439 0
M  V30 646 H 62.2203 4.18138 -0.941202 0
M  V30 647 H 66.4043 4.61738 -1.81967 0
M  V30 648 H 61.6603 5.29242 -3.06126 0
M  V30 649 H 65.8343 5.74211 -3.94023 0
M  V30 650 H 63.4613 6.07748 -4.56669 0
M  V30 651 N 65.0364 0.313813 1.54444 0
M  V30 652 C 65.9834 -0.55655 2.23989 0
M  V30 653 C 66.9534 -1.11943 1.22711 0
M  V30 654 O 68.1384 -1.16158 1.51367 0
M  V30 655 C 65.2784 -1.71635 2.99392 0
M  V30 656 C 64.3914 -1.18364 4.15468 0
M  V30 657 C 63.5264 -2.30834 4.78424 0
M  V30 658 C 62.5654 -1.74762 5.86622 0
M  V30 659 N 61.7024 -2.80855 6.43479 0
M  V30 660 H 66.5424 0.0430893 2.97969 0
M  V30 661 H 64.0794 0.0330359 1.47063 0
M  V30 662 H 66.0374 -2.39868 3.41349 0
M  V30 663 H 64.6674 -2.28742 2.27765 0
M  V30 664 H 63.7194 -0.393163 3.78363 0
M  V30 665 H 65.0314 -0.733262 4.93381 0
M  V30 666 H 64.1854 -3.0699 5.23299 0
M  V30 667 H 62.9244 -2.79204 3.99871 0
M  V30 668 H 61.9294 -0.970995 5.41158 0
M  V30 669 H 63.1544 -1.2728 6.67066 0
M  V30 670 H 61.1004 -3.28535 5.67804 0
M  V30 671 H 61.0174 -2.40351 7.16776 0
M  V30 672 H 62.2854 -3.5687 6.93011 0
M  V30 673 N 66.5145 -1.57545 0.0417849 0
M  V30 674 C 67.4245 -2.14451 -0.951213 0
M  V30 675 C 68.4405 -1.09992 -1.34825 0
M  V30 676 O 69.6165 -1.42114 -1.42708 0
M  V30 677 C 66.6815 -2.67063 -2.21084 0
M  V30 678 C 65.7425 -3.86284 -1.87304 0
M  V30 679 C 64.9755 -4.36378 -3.07261 0
M  V30 680 O 65.1985 -3.85587 -4.20332 0
M  V30 681 O 64.1325 -5.28077 -2.88822 0
M  V30 682 H 67.9585 -2.99601 -0.497287 0
M  V30 683 H 65.5435 -1.48317 -0.179567 0
M  V30 684 H 67.4255 -3.00914 -2.95006 0
M  V30 685 H 66.1005 -1.84989 -2.65633 0
M  V30 686 H 65.0075 -3.57338 -1.10727 0
M  V30 687 H 66.3405 -4.6956 -1.47562 0
M  V30 688 N 67.9926 0.231505 -1.5589 0
M  V30 689 C 69.2416 0.955346 -1.7764 0
M  V30 690 C 69.5546 1.85893 -0.608546 0
M  V30 691 O 70.7606 2.62067 -0.70943 0
M  V30 692 C 69.2166 1.74886 -3.14552 0
M  V30 693 C 68.8246 0.891915 -4.39032 0
M  V30 694 C 70.5686 2.46452 -3.45633 0
M  V30 695 C 68.4756 1.68221 -5.66971 0
M  V30 696 H 67.4056 0.360446 -0.662265 0
M  V30 697 H 70.0566 0.209516 -1.823 0
M  V30 698 H 68.4386 2.53723 -3.04041 0
M  V30 699 H 69.6126 0.144793 -4.60572 0
M  V30 700 H 67.9276 0.288863 -4.15397 0
M  V30 701 H 70.5246 3.06061 -4.38441 0
M  V30 702 H 70.8676 3.18841 -2.67668 0
M  V30 703 H 71.4006 1.74613 -3.57428 0
M  V30 704 H 68.1396 1.00178 -6.478 0
M  V30 705 H 67.6596 2.4042 -5.49507 0
M  V30 706 H 69.3386 2.24544 -6.06786 0
M  V30 707 N 69.4707 1.49531 0.497807 0
M  V30 708 C 70.4027 1.62559 1.61578 0
M  V30 709 C 71.4157 0.508134 1.54667 0
M  V30 710 O 72.6047 0.780309 1.60541 0
M  V30 711 C 69.7047 1.56925 3.00379 0
M  V30 712 C 68.8777 2.84257 3.3244 0
M  V30 713 C 67.9367 2.71632 4.50669 0
M  V30 714 O 66.9627 3.4557 4.52294 0
M  V30 715 N 68.1647 1.83391 5.5077 0
M  V30 716 H 70.9297 2.58981 1.50828 0
M  V30 717 H 68.4907 1.4666 0.685743 0
M  V30 718 H 70.4827 1.46129 3.77397 0
M  V30 719 H 69.0527 0.683483 3.05037 0
M  V30 720 H 68.2727 3.09381 2.44289 0
M  V30 721 H 69.5607 3.68666 3.5066 0
M  V30 722 H 68.9587 1.22583 5.52259 0
M  V30 723 H 67.5157 1.78515 6.26878 0
M  V30 724 N 70.9488 -0.749086 1.3866 0
M  V30 725 C 71.8808 -1.87273 1.32142 0
M  V30 726 C 72.8938 -1.61127 0.232787 0
M  V30 727 O 74.0828 -1.71623 0.49069 0
M  V30 728 C 71.1828 -3.23005 1.02571 0
M  V30 729 C 70.3558 -3.7662 2.22433 0
M  V30 730 C 69.4148 -4.90879 1.89537 0
M  V30 731 O 68.4408 -5.05276 2.62078 0
M  V30 732 N 69.6428 -5.74198 0.853031 0
M  V30 733 H 72.4078 -1.93373 2.28969 0
M  V30 734 H 69.9688 -0.929216 1.32579 0
M  V30 735 H 71.9608 -3.96992 0.786085 0
M  V30 736 H 70.5308 -3.12262 0.145249 0
M  V30 737 H 69.7508 -2.94147 2.62434 0
M  V30 738 H 71.0388 -4.09173 3.02415 0
M  V30 739 H 70.4368 -5.6514 0.25155 0
M  V30 740 H 68.9938 -6.48313 0.67329 0
M  V30 741 N 72.4269 -1.23603 -0.977757 0
M  V30 742 C 73.6759 -1.06377 -1.71368 0
M  V30 743 C 73.9889 0.399062 -1.91486 0
M  V30 744 O 75.1949 0.691312 -2.62551 0
M  V30 745 C 73.6509 -1.85512 -3.08404 0
M  V30 746 C 73.2589 -3.36141 -2.96164 0
M  V30 747 C 75.0029 -1.76783 -3.85938 0
M  V30 748 C 72.9099 -4.07659 -4.28449 0
M  V30 749 H 71.8399 -0.394452 -0.642591 0
M  V30 750 H 74.4909 -1.47594 -1.09034 0
M  V30 751 H 72.8729 -1.37103 -3.71509 0
M  V30 752 H 74.0469 -3.92056 -2.42133 0
M  V30 753 H 72.3619 -3.45712 -2.32104 0
M  V30 754 H 74.9589 -2.27526 -4.83876 0
M  V30 755 H 75.3019 -0.731116 -4.0983 0
M  V30 756 H 75.8349 -2.22818 -3.2954 0
M  V30 757 H 72.5739 -5.11648 -4.09752 0
M  V30 758 H 72.0939 -3.5653 -4.82334 0
M  V30 759 H 73.7729 -4.141 -4.97122 0
M  V30 760 N 73.905 1.17692 -1.04816 0
M  V30 761 C 75.152 1.87859 -0.75599 0
M  V30 762 C 75.48 1.80812 0.716752 0
M  V30 763 O 74.735 1.20819 1.53952 0
M  V30 764 C 75.034 3.37462 -1.17703 0
M  V30 765 C 74.7 3.64713 -2.65133 0
M  V30 766 C 73.362 3.71859 -3.05408 0
M  V30 767 C 75.714 3.76492 -3.60421 0
M  V30 768 C 73.042 3.88271 -4.39843 0
M  V30 769 C 75.394 3.94421 -4.94585 0
M  V30 770 C 74.058 3.99806 -5.3452 0
M  V30 771 H 73.328 0.687425 -0.276636 0
M  V30 772 H 75.975 1.39255 -1.31455 0
M  V30 773 H 74.28 3.88097 -0.537395 0
M  V30 774 H 75.977 3.90109 -0.928218 0
M  V30 775 H 72.567 3.59772 -2.32942 0
M  V30 776 H 76.751 3.70295 -3.30447 0
M  V30 777 H 72.007 3.90687 -4.70291 0
M  V30 778 H 76.181 4.02477 -5.68318 0
M  V30 779 H 73.808 4.12276 -6.38696 0
M  V30 780 N 75.3831 0.828654 1.34056 0
M  V30 781 C 76.3331 0.226828 2.26869 0
M  V30 782 C 77.3171 -0.612243 1.48796 0
M  V30 783 O 78.5091 -0.465884 1.70759 0
M  V30 784 C 75.6381 -0.605654 3.37915 0
M  V30 785 C 74.7241 0.244361 4.23395 0
M  V30 786 N 75.1151 1.31815 4.88322 0
M  V30 787 C 73.4131 0.0296616 4.4599 0
M  V30 788 C 74.1141 1.83895 5.51867 0
M  V30 789 N 73.0901 1.14196 5.3147 0
M  V30 790 H 76.8921 1.04811 2.74576 0
M  V30 791 H 74.4061 0.67205 1.47842 0
M  V30 792 H 76.4031 -1.05302 4.03382 0
M  V30 793 H 75.0631 -1.42504 2.91758 0
M  V30 794 H 76.0741 1.70099 4.8917 0
M  V30 795 H 72.7511 -0.757097 4.10578 0
M  V30 796 H 74.1411 2.7376 6.136 0
M  V30 797 N 76.8612 -1.46375 0.584142 0
M  V30 798 C 78.0892 -2.06761 0.0759296 0
M  V30 799 C 78.5042 -1.43266 -1.22965 0
M  V30 800 O 77.8612 -0.538458 -1.74376 0
M  V30 801 C 77.9122 -3.61375 -0.0950384 0
M  V30 802 O 77.6332 -4.22495 1.15887 0
M  V30 803 C 79.1342 -4.38693 -0.637434 0
M  V30 804 H 76.3542 -0.668479 0.0581075 0
M  V30 805 H 78.8982 -1.8798 0.805218 0
M  V30 806 H 77.0532 -3.79578 -0.774554 0
M  V30 807 H 77.4672 -5.15385 0.973598 0
M  V30 808 H 78.9412 -5.47464 -0.706237 0
M  V30 809 H 79.4182 -4.06836 -1.65472 0
M  V30 810 H 80.0242 -4.25299 0.00725967 0
M  V30 811 N 78.3393 -0.321999 -1.54275 0
M  V30 812 C 79.5673 0.283052 -2.04955 0
M  V30 813 C 79.9823 1.45904 -1.19823 0
M  V30 814 O 79.3393 1.81063 -0.228545 0
M  V30 815 C 79.3903 0.719028 -3.54277 0
M  V30 816 O 79.1113 -0.410175 -4.36176 0
M  V30 817 C 80.6123 1.38705 -4.21041 0
M  V30 818 H 77.8323 0.0584616 -0.668448 0
M  V30 819 H 80.3763 -0.467734 -1.99079 0
M  V30 820 H 78.5313 1.41979 -3.60445 0
M  V30 821 H 78.9453 -0.0669416 -5.24457 0
M  V30 822 H 80.4193 1.64306 -5.2698 0
M  V30 823 H 80.8963 2.33385 -3.72059 0
M  V30 824 H 81.5023 0.728906 -4.19007 0
M  V30 825 N 79.8174 1.5752 -0.0501392 0
M  V30 826 C 81.0474 1.96678 0.632573 0
M  V30 827 C 81.4554 0.926298 1.64974 0
M  V30 828 O 80.7984 -0.09802 1.83438 0
M  V30 829 C 80.8604 3.32068 1.37735 0
M  V30 830 C 80.5244 4.54076 0.516131 0
M  V30 831 C 81.5214 5.19445 -0.217357 0
M  V30 832 C 79.2064 5.00304 0.44736 0
M  V30 833 C 81.2004 6.29378 -1.00807 0
M  V30 834 C 78.8874 6.10114 -0.347038 0
M  V30 835 C 79.8854 6.74512 -1.07344 0
M  V30 836 O 79.5734 7.82211 -1.85477 0
M  V30 837 H 79.3054 0.652193 0.177821 0
M  V30 838 H 81.8594 2.05091 -0.112543 0
M  V30 839 H 80.0894 3.20206 2.16807 0
M  V30 840 H 81.7784 3.55981 1.95019 0
M  V30 841 H 82.5444 4.84689 -0.173688 0
M  V30 842 H 78.4234 4.49971 1.00235 0
M  V30 843 H 81.9674 6.79575 -1.57556 0
M  V30 844 H 77.8644 6.44307 -0.392349 0
M  V30 845 H 78.6324 7.98982 -1.77678 0
M  V30 846 N 81.2955 -0.223234 1.56011 0
M  V30 847 C 82.5205 -0.968978 1.83373 0
M  V30 848 C 82.9455 -1.77227 0.630254 0
M  V30 849 O 82.3035 -1.76345 -0.420959 0
M  V30 850 C 82.3515 -1.86363 3.08709 0
M  V30 851 O 81.4555 -2.95873 2.87285 0
M  V30 852 H 80.7965 -0.274461 0.604622 0
M  V30 853 H 83.3265 -0.237056 2.03222 0
M  V30 854 H 83.3365 -2.27376 3.38768 0
M  V30 855 H 82.0115 -1.27319 3.95933 0
M  V30 856 H 80.5885 -2.58818 2.68454 0
M  V30 857 N 82.7736 -1.49793 -0.48987 0
M  V30 858 C 83.6836 -1.70036 -1.61632 0
M  V30 859 C 84.6996 -0.583102 -1.63939 0
M  V30 860 O 85.8756 -0.859169 -1.82154 0
M  V30 861 C 82.9406 -1.77277 -2.97949 0
M  V30 862 C 82.0016 -3.00918 -3.06181 0
M  V30 863 C 81.2346 -3.07804 -4.35996 0
M  V30 864 O 81.4576 -2.21982 -5.25433 0
M  V30 865 O 80.3916 -4.00369 -4.49431 0
M  V30 866 H 84.2176 -2.65486 -1.47482 0
M  V30 867 H 81.8026 -1.33666 -0.667362 0
M  V30 868 H 83.6846 -1.84329 -3.78947 0
M  V30 869 H 82.3596 -0.850076 -3.12339 0
M  V30 870 H 81.2666 -2.99377 -2.2433 0
M  V30 871 H 82.5996 -3.92704 -2.96723 0
M  V30 872 N 84.2517 0.741722 -1.39055 0
M  V30 873 C 85.5007 1.49656 -1.35225 0
M  V30 874 C 85.8137 1.95533 0.0512708 0
M  V30 875 O 87.0197 2.7067 0.212138 0
M  V30 876 C 85.4757 2.70389 -2.37525 0
M  V30 877 C 85.0837 2.31489 -3.83558 0
M  V30 878 C 86.8277 3.48236 -2.42759 0
M  V30 879 C 84.7347 3.48903 -4.77515 0
M  V30 880 H 83.6647 0.56197 -0.502699 0
M  V30 881 H 86.3157 0.809727 -1.64668 0
M  V30 882 H 84.6977 3.41113 -2.01142 0
M  V30 883 H 85.8717 1.68354 -4.28945 0
M  V30 884 H 84.1867 1.66749 -3.81554 0
M  V30 885 H 86.7837 4.35558 -3.1015 0
M  V30 886 H 87.1267 3.90229 -1.45008 0
M  V30 887 H 87.6597 2.84535 -2.78002 0
M  V30 888 H 84.3987 3.11966 -5.76504 0
M  V30 889 H 83.9187 4.11041 -4.36813 0
M  V30 890 H 85.5977 4.15328 -4.96096 0
M  V30 891 N 85.7298 1.2412 0.971189 0
M  V30 892 C 86.6928 1.03156 2.04674 0
M  V30 893 C 87.6928 -0.00990322 1.60797 0
M  V30 894 O 88.8828 0.230729 1.72665 0
M  V30 895 C 86.0148 0.562765 3.36223 0
M  V30 896 H 87.2078 1.98614 2.24705 0
M  V30 897 H 84.7608 1.06293 1.14593 0
M  V30 898 H 85.4958 -0.395176 3.21883 0
M  V30 899 H 85.2808 1.31441 3.69413 0
M  V30 900 H 86.7708 0.437015 4.15307 0
M  V30 901 N 87.2079 -1.17134 1.05439 0
M  V30 902 C 88.4539 -1.87979 0.776872 0
M  V30 903 C 88.8089 -1.7965 -0.688751 0
M  V30 904 O 88.1019 -1.19535 -1.4974 0
M  V30 905 C 88.2959 -3.36833 1.19491 0
M  V30 906 C 88.1249 -3.59653 2.69963 0
M  V30 907 C 86.8949 -3.76234 3.37307 0
M  V30 908 C 89.0929 -3.59091 3.68182 0
M  V30 909 N 87.0749 -3.86922 4.76618 0
M  V30 910 C 88.4459 -3.75659 4.93235 0
M  V30 911 C 90.5009 -3.42255 3.61616 0
M  V30 912 C 89.2039 -3.77133 6.12506 0
M  V30 913 C 91.2299 -3.45018 4.8033 0
M  V30 914 C 90.5919 -3.62096 6.04207 0
M  V30 915 H 86.6909 -0.705876 0.336546 0
M  V30 916 H 89.2749 -1.40602 1.34682 0
M  V30 917 H 87.4459 -3.82873 0.652884 0
M  V30 918 H 89.1779 -3.95305 0.866966 0
M  V30 919 H 85.9329 -3.76193 2.87708 0
M  V30 920 H 86.3569 -3.96055 5.49062 0
M  V30 921 H 90.9989 -3.27986 2.66805 0
M  V30 922 H 88.7169 -3.90186 7.07659 0
M  V30 923 H 92.3029 -3.33246 4.76905 0
M  V30 924 H 91.1829 -3.64142 6.94529 0
M  V30 925 N 88.686 -0.835752 -1.33615 0
M  V30 926 C 89.935 -0.426289 -1.97144 0
M  V30 927 C 90.248 1.01912 -1.66953 0
M  V30 928 O 91.454 1.53311 -2.24072 0
M  V30 929 C 89.91 -0.711321 -3.52801 0
M  V30 930 C 89.518 -2.1712 -3.91871 0
M  V30 931 C 91.262 -0.368654 -4.22896 0
M  V30 932 C 89.169 -2.40044 -5.40493 0
M  V30 933 H 88.099 -0.15567 -0.737755 0
M  V30 934 H 90.75 -1.0239 -1.52278 0
M  V30 935 H 89.132 -0.0433766 -3.95976 0
M  V30 936 H 90.306 -2.87936 -3.59763 0
M  V30 937 H 88.621 -2.47654 -3.34749 0
M  V30 938 H 91.218 -0.517601 -5.32189 0
M  V30 939 H 91.561 0.688078 -4.10574 0
M  V30 940 H 92.094 -0.991702 -3.8524 0
M  V30 941 H 88.833 -3.44271 -5.57815 0
M  V30 942 H 88.353 -1.73785 -5.74072 0
M  V30 943 H 90.032 -2.23042 -6.0734 0
M  V30 944 N 90.1641 1.46063 -0.591896 0
M  V30 945 C 91.3891 2.07226 -0.0850314 0
M  V30 946 C 91.8141 1.43625 1.21463 0
M  V30 947 O 91.1721 0.523305 1.73583 0
M  V30 948 C 91.2201 3.60554 0.0576567 0
M  V30 949 O 90.3241 3.97128 1.11188 0
M  V30 950 H 89.6651 0.660615 -0.0669568 0
M  V30 951 H 92.1951 1.8756 -0.81745 0
M  V30 952 H 92.2051 4.07165 0.2609 0
M  V30 953 H 90.8801 4.06235 -0.891416 0
M  V30 954 H 89.4571 3.62213 0.886356 0
M  V30 955 N 91.6422 0.330177 1.54103 0
M  V30 956 C 92.8672 -0.274893 2.0557 0
M  V30 957 C 93.2922 -1.44487 1.20437 0
M  V30 958 O 92.6502 -1.80021 0.214991 0
M  V30 959 C 92.6982 -0.68079 3.54115 0
M  V30 960 O 91.8022 -1.7824 3.71893 0
M  V30 961 H 91.1432 -0.0483849 0.662235 0
M  V30 962 H 93.6732 0.480508 1.98878 0
M  V30 963 H 93.6832 -0.961635 3.96505 0
M  V30 964 H 92.3582 0.174903 4.15532 0
M  V30 965 H 90.9352 -1.49985 3.41407 0
M  V30 966 N 93.1203 -1.57491 0.0584922 0
M  V30 967 C 94.3693 -1.92155 -0.613146 0
M  V30 968 C 94.6823 -0.939334 -1.71569 0
M  V30 969 O 95.8883 -1.17829 -2.44599 0
M  V30 970 C 94.3443 -3.41303 -1.14195 0
M  V30 971 C 93.9523 -4.47944 -0.0711265 0
M  V30 972 C 95.6963 -3.84988 -1.78841 0
M  V30 973 C 93.6033 -5.88212 -0.613225 0
M  V30 974 H 92.5333 -0.717162 -0.232796 0
M  V30 975 H 95.1843 -1.83049 0.12857 0
M  V30 976 H 93.5663 -3.45437 -1.93621 0
M  V30 977 H 94.7403 -4.55408 0.702836 0
M  V30 978 H 93.0553 -4.13644 0.478313 0
M  V30 979 H 95.6523 -4.87159 -2.20408 0
M  V30 980 H 95.9953 -3.21632 -2.64308 0
M  V30 981 H 96.5283 -3.83401 -1.06059 0
M  V30 982 H 93.2673 -6.55183 0.203978 0
M  V30 983 H 92.7873 -5.84294 -1.35501 0
M  V30 984 H 94.4663 -6.37687 -1.09383 0
M  V30 985 N 94.5984 0.214957 -1.56127 0
M  V30 986 C 95.5314 1.29382 -1.87977 0
M  V30 987 C 96.5094 1.44897 -0.737807 0
M  V30 988 O 97.6934 1.60605 -0.986833 0
M  V30 989 C 94.8204 2.66325 -2.09258 0
M  V30 990 C 93.8664 2.67789 -3.31951 0
M  V30 991 S 94.6994 2.21198 -4.8768 0
M  V30 992 C 95.8554 3.60003 -5.12004 0
M  V30 993 H 96.0884 1.02173 -2.79192 0
M  V30 994 H 93.6214 0.417516 -1.48648 0
M  V30 995 H 95.5794 3.45162 -2.22201 0
M  V30 996 H 94.2404 2.90755 -1.18829 0
M  V30 997 H 93.4334 3.68436 -3.43906 0
M  V30 998 H 93.0354 1.9702 -3.17898 0
M  V30 999 H 95.3274 4.55739 -5.01307 0
M  V30 1000 H 96.2704 3.52959 -6.13861 0
M  V30 1001 H 96.6784 3.53996 -4.39712 0
M  V30 1002 N 96.0765 1.50051 0.48192 0
M  V30 1003 C 97.0065 1.71046 1.58951 0
M  V30 1004 C 97.9875 0.559288 1.60642 0
M  V30 1005 O 99.1725 0.797243 1.77081 0
M  V30 1006 C 96.3025 1.79462 2.97339 0
M  V30 1007 C 95.2565 2.94558 3.10515 0
M  V30 1008 C 94.5825 2.88105 4.50444 0
M  V30 1009 C 95.8825 4.35227 2.88747 0
M  V30 1010 H 97.5765 2.6378 1.41635 0
M  V30 1011 H 95.1225 1.26936 0.679942 0
M  V30 1012 H 97.0755 1.92734 3.74742 0
M  V30 1013 H 95.7995 0.833412 3.15788 0
M  V30 1014 H 94.4585 2.80918 2.35543 0
M  V30 1015 H 94.1065 1.89853 4.65795 0
M  V30 1016 H 93.8065 3.65366 4.60197 0
M  V30 1017 H 95.3305 3.03412 5.29881 0
M  V30 1018 H 96.7445 4.49449 3.55905 0
M  V30 1019 H 95.1415 5.13856 3.09955 0
M  V30 1020 H 96.2115 4.48347 1.84696 0
M  V30 1021 N 97.5546 -0.734337 1.39446 0
M  V30 1022 C 98.5176 -1.83004 1.37994 0
M  V30 1023 C 99.5176 -1.58397 0.276938 0
M  V30 1024 O 100.708 -1.65785 0.534875 0
M  V30 1025 C 97.8396 -3.20802 1.1532 0
M  V30 1026 H 99.0326 -1.85694 2.35494 0
M  V30 1027 H 96.5856 -0.938059 1.25021 0
M  V30 1028 H 97.3206 -3.23772 0.185036 0
M  V30 1029 H 97.1056 -3.4006 1.95197 0
M  V30 1030 H 98.5956 -4.00862 1.17046 0
M  V30 1031 N 99.0327 -1.24633 -0.964593 0
M  V30 1032 C 100.279 -1.08949 -1.71049 0
M  V30 1033 C 100.612 0.370302 -1.90637 0
M  V30 1034 O 99.8867 1.27349 -1.47011 0
M  V30 1035 C 100.17 -1.83329 -3.0994 0
M  V30 1036 C 100.023 -3.37077 -2.97824 0
M  V30 1037 C 101.342 -1.60846 -4.09654 0
M  V30 1038 H 98.4607 -0.397178 -0.620821 0
M  V30 1039 H 101.103 -1.5334 -1.12191 0
M  V30 1040 H 99.2527 -1.45597 -3.60186 0
M  V30 1041 H 100.925 -3.84425 -2.5498 0
M  V30 1042 H 99.1677 -3.65298 -2.33965 0
M  V30 1043 H 99.8387 -3.84324 -3.96231 0
M  V30 1044 H 102.315 -1.93674 -3.68279 0
M  V30 1045 H 101.191 -2.1534 -5.04896 0
M  V30 1046 H 101.452 -0.547434 -4.38698 0
M  V30 1047 N 100.511 1.16574 -1.06058 0
M  V30 1048 C 101.444 2.19798 -0.61352 0
M  V30 1049 C 102.422 1.58509 0.362453 0
M  V30 1050 O 103.606 1.86527 0.271994 0
M  V30 1051 C 100.733 3.3855 0.100915 0
M  V30 1052 C 99.7788 4.18317 -0.831438 0
M  V30 1053 S 100.612 4.82375 -2.32539 0
M  V30 1054 C 101.768 6.04508 -1.62238 0
M  V30 1055 H 102.001 2.5738 -1.48805 0
M  V30 1056 H 99.5338 1.27327 -0.873338 0
M  V30 1057 H 101.492 4.07358 0.506898 0
M  V30 1058 H 100.153 2.99338 0.951604 0
M  V30 1059 H 99.3458 5.03232 -0.278071 0
M  V30 1060 H 98.9478 3.5499 -1.17719 0
M  V30 1061 H 101.24 6.71133 -0.926622 0
M  V30 1062 H 102.183 6.64389 -2.44934 0
M  V30 1063 H 102.591 5.53559 -1.106 0
M  V30 1064 N 101.989 0.842826 1.3317 0
M  V30 1065 C 103.219 0.453397 2.01564 0
M  V30 1066 C 103.627 -0.951147 1.63554 0
M  V30 1067 O 102.97 -1.63021 0.846746 0
M  V30 1068 C 103.032 0.499013 3.5602 0
M  V30 1069 C 102.696 1.86037 4.1742 0
M  V30 1070 C 103.693 2.82416 4.36506 0
M  V30 1071 C 101.378 2.15428 4.53757 0
M  V30 1072 C 103.372 4.06346 4.91082 0
M  V30 1073 C 101.059 3.39615 5.0804 0
M  V30 1074 C 102.057 4.3489 5.26649 0
M  V30 1075 O 101.745 5.5688 5.79776 0
M  V30 1076 H 101.477 0.177871 0.652179 0
M  V30 1077 H 104.031 1.13808 1.70988 0
M  V30 1078 H 102.261 -0.242467 3.85939 0
M  V30 1079 H 103.95 0.126852 4.05702 0
M  V30 1080 H 104.716 2.6101 4.08777 0
M  V30 1081 H 100.595 1.42061 4.38565 0
M  V30 1082 H 104.139 4.80722 5.05522 0
M  V30 1083 H 100.036 3.60876 5.352 0
M  V30 1084 H 100.804 5.58674 5.98185 0
M  V30 1085 N 103.467 -1.45747 0.599634 0
M  V30 1086 C 104.43 -2.28917 -0.113835 0
M  V30 1087 C 105.43 -1.3933 -0.802729 0
M  V30 1088 O 106.62 -1.61534 -0.652103 0
M  V30 1089 C 103.752 -3.20152 -1.17114 0
M  V30 1090 H 104.945 -2.93478 0.617289 0
M  V30 1091 H 102.498 -1.52137 0.358327 0
M  V30 1092 H 103.233 -2.60374 -1.93329 0
M  V30 1093 H 103.018 -3.86133 -0.681468 0
M  V30 1094 H 104.508 -3.82708 -1.67105 0
M  V30 1095 N 104.945 -0.338344 -1.53925 0
M  V30 1096 C 106.193 0.259245 -2.0043 0
M  V30 1097 C 106.514 1.51484 -1.22791 0
M  V30 1098 O 105.784 1.93037 -0.33368 0
M  V30 1099 H 104.364 0.0987845 -0.740439 0
M  V30 1100 H 107.026 -0.458302 -1.89435 0
M  V30 1101 H 106.122 0.505334 -3.07982 0
M  V30 1102 N 106.423 1.57458 -0.0668435 0
M  V30 1103 C 107.671 1.92919 0.602214 0
M  V30 1104 C 107.992 0.947215 1.70449 0
M  V30 1105 O 107.262 -0.00544117 1.95899 0
M  V30 1106 H 105.842 0.71217 0.22544 0
M  V30 1107 H 108.504 1.94508 -0.123535 0
M  V30 1108 H 107.6 2.94589 1.03073 0
M  V30 1109 N 107.901 -0.206675 1.56239 0
M  V30 1110 C 109.312 -0.772383 1.69974 0
M  V30 1111 C 109.663 -1.84353 0.671436 0
M  V30 1112 O 108.788 -2.15695 -0.174491 0
M  V30 1113 C 109.383 -1.40779 3.08167 0
M  V30 1114 C 107.942 -1.92072 3.23706 0
M  V30 1115 C 107.089 -0.786347 2.65917 0
M  V30 1116 H 110.04 0.0182223 1.5869 0
M  V30 1117 H 110.061 -2.27696 3.04852 0
M  V30 1118 H 109.573 -0.627958 3.82986 0
M  V30 1119 H 107.674 -2.7281 2.53782 0
M  V30 1120 H 107.787 -2.09046 4.31087 0
M  V30 1121 H 106.151 -1.1976 2.24788 0
M  V30 1122 H 106.934 -0.0189416 3.43295 0
M  V30 1123 N 109.379 -1.50304 -0.473955 0
M  V30 1124 C 110.625 -1.61389 -1.22806 0
M  V30 1125 C 110.958 -0.311955 -1.91678 0
M  V30 1126 O 110.233 0.686384 -1.81986 0
M  V30 1127 C 110.516 -2.79219 -2.27396 0
M  V30 1128 C 110.369 -4.19286 -1.62848 0
M  V30 1129 C 111.688 -2.92614 -3.28732 0
M  V30 1130 H 108.807 -0.587399 -0.445119 0
M  V30 1131 H 111.449 -1.82681 -0.522265 0
M  V30 1132 H 109.599 -2.61195 -2.87592 0
M  V30 1133 H 111.271 -4.48892 -1.06271 0
M  V30 1134 H 109.514 -4.23677 -0.931693 0
M  V30 1135 H 110.185 -4.97655 -2.38838 0
M  V30 1136 H 112.661 -3.09105 -2.78556 0
M  V30 1137 H 111.537 -3.76688 -3.99246 0
M  V30 1138 H 111.798 -2.03107 -3.92683 0
M  V30 1139 N 110.857 0.726932 -1.39834 0
M  V30 1140 C 112.082 1.52121 -1.40976 0
M  V30 1141 C 112.507 1.88098 -0.00826029 0
M  V30 1142 O 111.865 1.52479 0.980807 0
M  V30 1143 C 111.913 2.78021 -2.29644 0
M  V30 1144 O 111.017 3.74272 -1.73188 0
M  V30 1145 H 110.358 0.45908 -0.479731 0
M  V30 1146 H 112.888 0.896207 -1.83927 0
M  V30 1147 H 112.898 3.26671 -2.44438 0
M  V30 1148 H 111.573 2.51169 -3.31492 0
M  V30 1149 H 110.15 3.33073 -1.6768 0
M  V30 1150 N 112.336 1.25143 0.95797 0
M  V30 1151 C 113.561 1.12521 1.74223 0
M  V30 1152 C 113.986 -0.317402 1.85403 0
M  V30 1153 O 113.344 -1.2299 1.33204 0
M  V30 1154 C 113.392 1.78062 3.1357 0
M  V30 1155 O 112.496 1.058 3.98598 0
M  V30 1156 H 111.837 0.39304 0.535178 0
M  V30 1157 H 114.367 1.65641 1.201 0
M  V30 1158 H 114.377 1.84213 3.64046 0
M  V30 1159 H 113.052 2.83021 3.04749 0
M  V30 1160 H 111.629 1.07506 3.57067 0
M  V30 1161 N 113.814 -1.1601 1.06675 0
M  V30 1162 C 115.06 -1.86909 0.786945 0
M  V30 1163 C 115.393 -1.81717 -0.685018 0
M  V30 1164 O 114.668 -1.23551 -1.50218 0
M  V30 1165 C 114.951 -3.36313 1.28707 0
M  V30 1166 C 114.804 -3.50175 2.82308 0
M  V30 1167 C 116.123 -4.3084 0.898071 0
M  V30 1168 H 113.242 -0.678677 0.287343 0
M  V30 1169 H 115.884 -1.36336 1.32334 0
M  V30 1170 H 114.034 -3.79513 0.830768 0
M  V30 1171 H 115.706 -3.15886 3.36175 0
M  V30 1172 H 113.949 -2.91959 3.20847 0
M  V30 1173 H 114.62 -4.55116 3.12368 0
M  V30 1174 H 117.096 -3.95561 1.29114 0
M  V30 1175 H 115.972 -5.33876 1.27543 0
M  V30 1176 H 116.233 -4.41662 -0.196651 0
M  V30 1177 N 115.292 -0.849877 -1.32721 0
M  V30 1178 C 116.222 -0.306308 -2.31482 0
M  V30 1179 C 117.203 0.591952 -1.59468 0
M  V30 1180 O 118.388 0.513199 -1.87296 0
M  V30 1181 C 115.518 0.510204 -3.43532 0
M  V30 1182 C 114.472 -0.293209 -4.26994 0
M  V30 1183 C 113.798 0.647743 -5.30762 0
M  V30 1184 C 115.098 -1.51634 -4.99804 0
M  V30 1185 H 116.792 -1.13153 -2.77195 0
M  V30 1186 H 114.338 -0.545553 -1.33266 0
M  V30 1187 H 116.291 0.900856 -4.11658 0
M  V30 1188 H 115.015 1.36874 -2.96535 0
M  V30 1189 H 113.674 -0.665555 -3.60508 0
M  V30 1190 H 113.322 1.50299 -4.8002 0
M  V30 1191 H 113.022 0.11422 -5.87489 0
M  V30 1192 H 114.546 1.03567 -6.01753 0
M  V30 1193 H 115.96 -1.19824 -5.60638 0
M  V30 1194 H 114.357 -1.98745 -5.66234 0
M  V30 1195 H 115.427 -2.28018 -4.27943 0
M  V30 1196 N 116.77 1.45427 -0.607355 0
M  V30 1197 C 118.016 2.0254 -0.102607 0
M  V30 1198 C 118.349 1.47478 1.26348 0
M  V30 1199 O 117.624 0.64939 1.83339 0
M  V30 1200 C 117.907 3.60044 -0.0634347 0
M  V30 1201 C 117.76 4.2544 -1.46017 0
M  V30 1202 C 119.079 4.35646 0.624514 0
M  V30 1203 H 116.198 0.73598 -0.0387607 0
M  V30 1204 H 118.84 1.73284 -0.779282 0
M  V30 1205 H 116.99 3.85101 0.512808 0
M  V30 1206 H 118.662 4.11569 -2.08347 0
M  V30 1207 H 116.905 3.83849 -2.02094 0
M  V30 1208 H 117.576 5.34342 -1.385 0
M  V30 1209 H 120.052 4.15882 0.134723 0
M  V30 1210 H 118.928 5.45376 0.621028 0
M  V30 1211 H 119.189 4.08501 1.69055 0
M  V30 1212 N 118.248 0.346503 1.53744 0
M  V30 1213 C 119.196 -0.52422 2.26616 0
M  V30 1214 C 120.19 -1.09948 1.28871 0
M  V30 1215 O 121.396 -1.04488 1.46568 0
M  V30 1216 H 117.771 -0.187743 0.728187 0
M  V30 1217 H 119.742 0.11239 2.98188 0
M  V30 1218 C 118.491 -1.66186 3.05414 0
M  V30 1219 H 117.814 -1.22848 3.80458 0
M  V30 1220 H 119.254 -2.24622 3.59612 0
M  V30 1221 C 117.713 -2.59302 2.1509 0
M  V30 1222 O 118.243 -3.61628 1.74895 0
M  V30 1223 N 116.449 -2.28055 1.8011 0
M  V30 1224 H 115.996 -1.44883 2.12994 0
M  V30 1225 H 115.954 -2.90615 1.19958 0
M  V30 1226 N 119.726 -1.57421 0.075193 0
M  V30 1227 C 120.673 -2.12915 -0.890843 0
M  V30 1228 C 121.643 -1.04252 -1.29309 0
M  V30 1229 O 122.828 -1.31933 -1.37834 0
M  V30 1230 C 119.968 -2.69795 -2.15186 0
M  V30 1231 C 119.081 -3.92624 -1.80194 0
M  V30 1232 C 118.216 -4.37736 -3.00933 0
M  V30 1233 C 117.255 -5.53205 -2.61974 0
M  V30 1234 N 116.392 -5.9326 -3.75483 0
M  V30 1235 H 121.232 -2.95156 -0.410735 0
M  V30 1236 H 118.769 -1.45854 -0.191086 0
M  V30 1237 H 120.727 -3.00883 -2.89008 0
M  V30 1238 H 119.357 -1.90313 -2.60731 0
M  V30 1239 H 118.409 -3.67977 -0.964218 0
M  V30 1240 H 119.721 -4.76482 -1.47534 0
M  V30 1241 H 118.875 -4.70503 -3.8303 0
M  V30 1242 H 117.614 -3.52739 -3.36789 0
M  V30 1243 H 116.619 -5.20086 -1.783 0
M  V30 1244 H 117.844 -6.39936 -2.27284 0
M  V30 1245 H 115.79 -5.11212 -4.11094 0
M  V30 1246 H 115.707 -6.71865 -3.46602 0
M  V30 1247 H 116.975 -6.30651 -4.58148 0
M  V30 1248 N 121.204 0.198386 -1.56346 0
M  V30 1249 C 122.434 0.934215 -1.84271 0
M  V30 1250 C 122.842 1.77496 -0.655125 0
M  V30 1251 O 122.185 1.7961 0.385488 0
M  V30 1252 C 122.247 1.88278 -3.06254 0
M  V30 1253 C 121.911 1.22431 -4.40295 0
M  V30 1254 C 122.908 0.602839 -5.16393 0
M  V30 1255 C 120.593 1.22915 -4.87029 0
M  V30 1256 C 122.587 -0.0050083 -6.374 0
M  V30 1257 C 120.274 0.617465 -6.07973 0
M  V30 1258 C 121.272 0.00146341 -6.83 0
M  V30 1259 O 120.96 -0.600642 -8.01653 0
M  V30 1260 H 120.692 0.278245 -0.616081 0
M  V30 1261 H 123.246 0.211626 -2.04307 0
M  V30 1262 H 121.476 2.64498 -2.82095 0
M  V30 1263 H 123.165 2.48612 -3.20853 0
M  V30 1264 H 123.931 0.591265 -4.81382 0
M  V30 1265 H 119.81 1.69801 -4.28589 0
M  V30 1266 H 123.354 -0.48643 -6.95902 0
M  V30 1267 H 119.251 0.62653 -6.42452 0
M  V30 1268 H 120.019 -0.497225 -8.16988 0
M  V30 1269 N 122.682 1.50554 0.465978 0
M  V30 1270 C 123.93 1.61479 1.21528 0
M  V30 1271 C 124.251 0.319596 1.92363 0
M  V30 1272 O 123.521 -0.663194 1.84333 0
M  V30 1273 H 122.101 0.595055 0.451573 0
M  V30 1274 H 124.763 1.87355 0.53704 0
M  V30 1275 H 123.859 2.42846 1.96042 0
M  V30 1276 N 124.16 -0.719506 1.40217 0
M  V30 1277 C 125.385 -1.51371 1.4178 0
M  V30 1278 C 125.81 -1.88091 0.0182355 0
M  V30 1279 O 125.168 -1.52997 -0.972707 0
M  V30 1280 C 125.216 -2.768 2.31115 0
M  V30 1281 O 124.32 -3.73349 1.7517 0
M  V30 1282 H 123.661 -0.456529 0.482159 0
M  V30 1283 H 126.191 -0.88644 1.844 0
M  V30 1284 H 126.201 -3.25371 2.46167 0
M  V30 1285 H 124.876 -2.49407 3.3282 0
M  V30 1286 H 123.453 -3.32179 1.69444 0
M  V30 1287 N 125.638 -1.25649 -0.95132 0
M  V30 1288 C 127.054 -1.02542 -1.223 0
M  V30 1289 C 127.254 0.255715 -1.99871 0
M  V30 1290 O 126.31 0.967558 -2.33226 0
M  V30 1291 C 127.623 -2.25065 -1.99415 0
M  V30 1292 C 129.171 -2.29861 -2.12446 0
M  V30 1293 C 129.646 -3.52048 -2.92961 0
M  V30 1294 N 131.137 -3.52465 -3.00538 0
M  V30 1295 C 131.872 -4.43672 -3.63239 0
M  V30 1296 N 131.368 -5.45157 -4.27523 0
M  V30 1297 N 133.161 -4.31346 -3.60412 0
M  V30 1298 H 125.312 -2.07951 -0.432471 0
M  V30 1299 H 127.575 -0.91339 -0.253816 0
M  V30 1300 H 127.281 -3.18194 -1.49817 0
M  V30 1301 H 127.155 -2.28502 -3.00111 0
M  V30 1302 H 129.542 -1.37252 -2.61239 0
M  V30 1303 H 129.623 -2.3044 -1.11044 0
M  V30 1304 H 129.267 -4.44981 -2.44856 0
M  V30 1305 H 129.197 -3.48715 -3.94596 0
M  V30 1306 H 131.688 -2.79056 -2.54826 0
M  V30 1307 H 132.001 -6.10958 -4.73234 0
M  V30 1308 H 130.346 -5.49025 -4.26141 0
M  V30 1309 H 133.537 -3.51288 -3.09377 0
M  V30 1310 H 133.71 -5.02624 -4.0899 0
M  V30 1311 N 127.117 1.15442 -1.07289 0
M  V30 1312 C 128.528 1.67803 -0.818475 0
M  V30 1313 C 128.879 1.8489 0.656507 0
M  V30 1314 O 128.004 1.55176 1.50829 0
M  V30 1315 C 128.599 3.04805 -1.47917 0
M  V30 1316 C 127.158 3.54245 -1.27229 0
M  V30 1317 C 126.305 2.29986 -1.54925 0
M  V30 1318 H 129.256 0.996646 -1.23502 0
M  V30 1319 H 129.277 3.69702 -0.90005 0
M  V30 1320 H 128.789 2.92336 -2.55267 0
M  V30 1321 H 126.89 3.71956 -0.21899 0
M  V30 1322 H 127.003 4.35723 -1.99203 0
M  V30 1323 H 125.367 2.35496 -0.970242 0
M  V30 1324 H 126.15 2.20105 -2.63455 0
M  V30 1325 N 128.595 0.856903 1.32268 0
M  V30 1326 C 129.841 0.462069 1.97466 0
M  V30 1327 C 130.174 -0.980298 1.67642 0
M  V30 1328 O 129.449 -1.68824 0.965858 0
M  V30 1329 C 129.732 0.704336 3.53145 0
M  V30 1330 C 129.585 2.19529 3.9259 0
M  V30 1331 C 130.904 0.1622 4.39801 0
M  V30 1332 H 128.023 0.169357 0.717278 0
M  V30 1333 H 130.665 1.07574 1.56614 0
M  V30 1334 H 128.815 0.181999 3.88073 0
M  V30 1335 H 130.487 2.78387 3.67829 0
M  V30 1336 H 128.73 2.67292 3.41668 0
M  V30 1337 H 129.401 2.31549 5.01088 0
M  V30 1338 H 131.877 0.608905 4.11621 0
M  V30 1339 H 130.753 0.361265 5.4771 0
M  V30 1340 H 131.014 -0.935158 4.32096 0
M  V30 1341 N 130.073 -1.45103 0.615059 0
M  V30 1342 C 131.319 -2.02483 0.113347 0
M  V30 1343 C 131.652 -1.48146 -1.25564 0
M  V30 1344 O 130.927 -0.659104 -1.82992 0
M  V30 1345 C 131.21 -3.60005 0.0825278 0
M  V30 1346 C 131.063 -4.2466 1.48271 0
M  V30 1347 C 132.382 -4.35972 -0.601401 0
M  V30 1348 H 129.501 -0.735764 0.0426632 0
M  V30 1349 H 132.143 -1.72868 0.788461 0
M  V30 1350 H 130.293 -3.85367 -0.492378 0
M  V30 1351 H 131.965 -4.10458 2.10527 0
M  V30 1352 H 130.208 -3.82772 2.04127 0
M  V30 1353 H 130.879 -5.336 1.41332 0
M  V30 1354 H 133.355 -4.15947 -0.112666 0
M  V30 1355 H 132.231 -5.45697 -0.592097 0
M  V30 1356 H 132.492 -4.09391 -1.66887 0
M  V30 1357 N 131.551 -0.354651 -1.53558 0
M  V30 1358 C 132.8 0.239504 -2.00273 0
M  V30 1359 C 133.113 1.50759 -1.24623 0
M  V30 1360 O 134.319 2.17968 -1.61871 0
M  V30 1361 C 132.775 0.477341 -3.5672 0
M  V30 1362 C 132.383 -0.775488 -4.41237 0
M  V30 1363 C 134.127 1.02975 -4.11821 0
M  V30 1364 C 132.034 -0.507838 -5.89216 0
M  V30 1365 H 130.964 0.0932743 -0.748208 0
M  V30 1366 H 133.615 -0.471701 -1.77334 0
M  V30 1367 H 131.997 1.24953 -3.7577 0
M  V30 1368 H 133.171 -1.54963 -4.33962 0
M  V30 1369 H 131.486 -1.25033 -3.97185 0
M  V30 1370 H 134.083 1.24513 -5.2 0
M  V30 1371 H 134.426 1.98862 -3.65731 0
M  V30 1372 H 134.959 0.317994 -3.96527 0
M  V30 1373 H 131.698 -1.43674 -6.39561 0
M  V30 1374 H 131.218 0.228011 -5.99366 0
M  V30 1375 H 132.897 -0.129238 -6.46871 0
M  V30 1376 N 133.029 1.57378 -0.0835403 0
M  V30 1377 C 133.992 2.12252 0.864959 0
M  V30 1378 C 134.992 1.04916 1.21858 0
M  V30 1379 O 136.182 1.30853 1.14991 0
M  V30 1380 C 133.314 2.63358 2.16461 0
M  V30 1381 H 134.507 2.97371 0.388676 0
M  V30 1382 H 132.06 1.55423 0.165317 0
M  V30 1383 H 132.795 1.81727 2.686 0
M  V30 1384 H 132.58 3.41826 1.92087 0
M  V30 1385 H 134.07 3.05847 2.84337 0
M  V30 1386 N 134.507 -0.190092 1.56449 0
M  V30 1387 C 135.755 -0.907908 1.80559 0
M  V30 1388 C 136.076 -1.83583 0.657438 0
M  V30 1389 O 135.346 -1.93203 -0.323924 0
M  V30 1390 H 133.926 -0.338247 0.666032 0
M  V30 1391 H 136.588 -0.194403 1.93928 0
M  V30 1392 H 135.684 -1.49604 2.73907 0
M  V30 1393 N 135.985 -1.50799 -0.457987 0
M  V30 1394 C 137.233 -1.62121 -1.2067 0
M  V30 1395 C 137.554 -0.329793 -1.92191 0
M  V30 1396 O 136.824 0.653409 -1.84682 0
M  V30 1397 H 135.404 -0.597441 -0.448411 0
M  V30 1398 H 138.066 -1.87637 -0.527096 0
M  V30 1399 H 137.162 -2.43882 -1.94751 0
M  V30 1400 N 137.463 0.71206 -1.40597 0
M  V30 1401 C 138.393 1.83889 -1.43899 0
M  V30 1402 C 139.374 1.67442 -0.299504 0
M  V30 1403 O 140.559 1.87421 -0.508624 0
M  V30 1404 C 137.689 3.21877 -1.30431 0
M  V30 1405 C 136.643 3.53002 -2.42019 0
M  V30 1406 C 135.969 4.90172 -2.13626 0
M  V30 1407 C 137.269 3.53643 -3.84362 0
M  V30 1408 H 138.963 1.81383 -2.38203 0
M  V30 1409 H 136.509 0.871237 -1.14654 0
M  V30 1410 H 138.462 4.00404 -1.31357 0
M  V30 1411 H 137.186 3.24968 -0.326049 0
M  V30 1412 H 135.845 2.76818 -2.40349 0
M  V30 1413 H 135.493 4.89869 -1.14182 0
M  V30 1414 H 135.193 5.11962 -2.88389 0
M  V30 1415 H 136.717 5.71028 -2.1624 0
M  V30 1416 H 138.131 4.22203 -3.87837 0
M  V30 1417 H 136.528 3.86961 -4.58673 0
M  V30 1418 H 137.598 2.52954 -4.13693 0
M  V30 1419 N 138.941 1.26152 0.944643 0
M  V30 1420 C 139.871 1.09902 2.06019 0
M  V30 1421 C 140.852 0.00519538 1.70099 0
M  V30 1422 O 142.037 0.176583 1.93396 0
M  V30 1423 C 139.167 0.727562 3.39594 0
M  V30 1424 C 138.121 1.77274 3.89561 0
M  V30 1425 C 137.447 1.25569 5.19747 0
M  V30 1426 C 138.747 3.17357 4.14827 0
M  V30 1427 H 140.441 2.03217 2.19871 0
M  V30 1428 H 137.987 0.978452 1.05652 0
M  V30 1429 H 139.94 0.600777 4.17095 0
M  V30 1430 H 138.664 -0.241287 3.25707 0
M  V30 1431 H 137.323 1.88814 3.14237 0
M  V30 1432 H 136.971 0.276783 5.02238 0
M  V30 1433 H 136.671 1.95433 5.54148 0
M  V30 1434 H 138.195 1.1415 5.99835 0
M  V30 1435 H 139.609 3.08914 4.82954 0
M  V30 1436 H 138.006 3.84781 4.60504 0
M  V30 1437 H 139.076 3.63673 3.20734 0
M  V30 1438 N 140.419 -1.14872 1.07899 0
M  V30 1439 C 141.659 -1.8745 0.814965 0
M  V30 1440 C 142.023 -1.80758 -0.64733 0
M  V30 1441 O 143.224 -2.48422 -1.02664 0
M  V30 1442 C 141.495 -3.32286 1.31607 0
M  V30 1443 S 143.054 -4.22537 1.18357 0
M  V30 1444 H 139.872 -0.646833 0.295174 0
M  V30 1445 H 142.474 -1.38555 1.37923 0
M  V30 1446 H 141.178 -3.34703 2.37491 0
M  V30 1447 H 140.709 -3.86238 0.747261 0
M  V30 1448 H 142.724 -4.96044 0.124586 0
M  V30 1449 N 141.898 -0.863906 -1.31812 0
M  V30 1450 C 143.138 -0.47825 -1.98726 0
M  V30 1451 C 143.502 0.950397 -1.66828 0
M  V30 1452 O 144.703 1.44109 -2.26905 0
M  V30 1453 C 142.974 -0.721134 -3.50049 0
M  V30 1454 S 144.533 -0.434432 -4.36644 0
M  V30 1455 H 141.351 -0.178773 -0.688158 0
M  V30 1456 H 143.953 -1.11862 -1.60334 0
M  V30 1457 H 142.657 -1.75981 -3.70755 0
M  V30 1458 H 142.188 -0.0675315 -3.93342 0
M  V30 1459 H 144.203 0.735786 -4.90714 0
M  V30 1460 N 143.376 1.44774 -0.622745 0
M  V30 1461 C 144.306 2.33382 0.0741861 0
M  V30 1462 C 145.287 1.47719 0.843387 0
M  V30 1463 O 146.472 1.76458 0.810934 0
M  V30 1464 C 143.602 3.30663 1.06204 0
M  V30 1465 C 142.556 4.26079 0.405037 0
M  V30 1466 C 141.882 5.13165 1.5022 0
M  V30 1467 C 143.182 5.1781 -0.683414 0
M  V30 1468 H 144.876 2.91905 -0.665713 0
M  V30 1469 H 142.422 1.40363 -0.321587 0
M  V30 1470 H 144.375 3.9153 1.55827 0
M  V30 1471 H 143.099 2.70331 1.83272 0
M  V30 1472 H 141.758 3.66532 -0.0704683 0
M  V30 1473 H 141.406 4.49191 2.26355 0
M  V30 1474 H 141.106 5.77812 1.06803 0
M  V30 1475 H 142.63 5.76902 2.00041 0
M  V30 1476 H 144.044 5.72661 -0.270631 0
M  V30 1477 H 142.441 5.91015 -1.04023 0
M  V30 1478 H 143.511 4.59326 -1.55395 0
M  V30 1479 N 144.854 0.36279 1.53368 0
M  V30 1480 C 146.102 -0.227326 2.00817 0
M  V30 1481 C 146.423 -1.49511 1.25186 0
M  V30 1482 O 145.693 -1.92482 0.364348 0
M  V30 1483 H 144.273 -0.0869923 0.741917 0
M  V30 1484 H 146.935 0.488381 1.88682 0
M  V30 1485 H 146.031 -0.456273 3.08747 0
M  V30 1486 N 146.332 -1.57332 0.0918853 0
M  V30 1487 C 147.265 -2.09499 -0.904735 0
M  V30 1488 C 148.243 -1.00479 -1.27839 0
M  V30 1489 O 149.427 -1.27954 -1.38419 0
M  V30 1490 C 146.554 -2.56931 -2.2069 0
M  V30 1491 C 145.6 -3.77579 -1.98334 0
M  V30 1492 S 146.433 -5.21317 -1.22428 0
M  V30 1493 C 147.589 -5.72097 -2.53882 0
M  V30 1494 H 147.822 -2.93705 -0.460922 0
M  V30 1495 H 145.355 -1.53923 -0.121332 0
M  V30 1496 H 147.313 -2.84917 -2.95521 0
M  V30 1497 H 145.974 -1.72956 -2.62192 0
M  V30 1498 H 145.167 -4.08824 -2.94752 0
M  V30 1499 H 144.769 -3.5007 -1.31633 0
M  V30 1500 H 147.061 -5.80168 -3.49874 0
M  V30 1501 H 148.004 -6.70654 -2.27219 0
M  V30 1502 H 148.412 -5.00012 -2.62007 0
M  V30 1503 N 147.81 0.181792 -1.56548 0
M  V30 1504 C 149.056 0.901431 -1.81665 0
M  V30 1505 C 149.389 1.82347 -0.668075 0
M  V30 1506 O 148.664 1.91669 0.330615 0
M  V30 1507 C 148.947 1.70618 -3.17115 0
M  V30 1508 C 148.8 0.807964 -4.42484 0
M  V30 1509 C 150.119 2.67605 -3.49393 0
M  V30 1510 H 147.238 0.32627 -0.660846 0
M  V30 1511 H 149.88 0.168134 -1.89255 0
M  V30 1512 H 148.03 2.33133 -3.10775 0
M  V30 1513 H 149.702 0.19649 -4.60881 0
M  V30 1514 H 147.945 0.115411 -4.33646 0
M  V30 1515 H 148.616 1.40632 -5.33785 0
M  V30 1516 H 151.092 2.15218 -3.56118 0
M  V30 1517 H 149.968 3.20985 -4.45264 0
M  V30 1518 H 150.229 3.47298 -2.73563 0
M  V30 1519 N 149.288 1.51039 0.449983 0
M  V30 1520 C 150.218 1.74379 1.55288 0
M  V30 1521 C 151.199 0.593236 1.5942 0
M  V30 1522 O 152.384 0.834625 1.7535 0
M  V30 1523 C 149.514 1.85728 2.93466 0
M  V30 1524 C 148.468 3.01078 3.04197 0
M  V30 1525 C 147.794 2.97595 4.44231 0
M  V30 1526 C 149.094 4.41254 2.7945 0
M  V30 1527 H 150.788 2.66725 1.36008 0
M  V30 1528 H 148.334 1.2835 0.652864 0
M  V30 1529 H 150.287 2.0064 3.70569 0
M  V30 1530 H 149.011 0.900207 3.13949 0
M  V30 1531 H 147.67 2.85851 2.29531 0
M  V30 1532 H 147.318 1.99691 4.61663 0
M  V30 1533 H 147.018 3.75046 4.52343 0
M  V30 1534 H 148.542 3.14583 5.23326 0
M  V30 1535 H 149.956 4.56897 3.46292 0
M  V30 1536 H 148.353 5.20315 2.98985 0
M  V30 1537 H 149.423 4.52164 1.75144 0
M  V30 1538 N 150.766 -0.704594 1.40972 0
M  V30 1539 C 151.729 -1.80035 1.41845 0
M  V30 1540 C 152.729 -1.57774 0.310474 0
M  V30 1541 O 153.919 -1.64613 0.56992 0
M  V30 1542 C 151.051 -3.18284 1.22098 0
M  V30 1543 H 152.244 -1.80658 2.3938 0
M  V30 1544 H 149.797 -0.911329 1.26982 0
M  V30 1545 H 150.532 -3.23306 0.253672 0
M  V30 1546 H 150.317 -3.35843 2.02366 0
M  V30 1547 H 151.807 -3.98289 1.25522 0
M  V30 1548 N 152.244 -1.26651 -0.937939 0
M  V30 1549 C 153.469 -1.15279 -1.72411 0
M  V30 1550 C 153.894 0.287866 -1.85884 0
M  V30 1551 O 153.252 1.20855 -1.35143 0
M  V30 1552 C 153.3 -1.83028 -3.10698 0
M  V30 1553 O 152.404 -1.12128 -3.96864 0
M  V30 1554 H 151.745 -0.401504 -0.528858 0
M  V30 1555 H 154.275 -1.67531 -1.1745 0
M  V30 1556 H 154.285 -1.89981 -3.6107 0
M  V30 1557 H 152.96 -2.87833 -3.00208 0
M  V30 1558 H 151.537 -1.13173 -3.55312 0
M  V30 1559 N 153.722 1.14298 -1.08507 0
M  V30 1560 C 154.969 1.85359 -0.815373 0
M  V30 1561 C 155.297 1.83001 0.658865 0
M  V30 1562 O 154.552 1.25655 1.50031 0
M  V30 1563 C 154.851 3.33547 -1.28379 0
M  V30 1564 C 154.517 3.56093 -2.76602 0
M  V30 1565 C 153.179 3.61955 -3.17084 0
M  V30 1566 C 155.531 3.64834 -3.72217 0
M  V30 1567 C 152.859 3.74082 -4.51973 0
M  V30 1568 C 155.211 3.78487 -5.06883 0
M  V30 1569 C 153.875 3.82598 -5.46969 0
M  V30 1570 H 153.145 0.678276 -0.298366 0
M  V30 1571 H 155.792 1.35002 -1.35819 0
M  V30 1572 H 154.097 3.86191 -0.660593 0
M  V30 1573 H 155.794 3.86959 -1.05186 0
M  V30 1574 H 152.384 3.52179 -2.4427 0
M  V30 1575 H 156.568 3.59595 -3.42061 0
M  V30 1576 H 151.824 3.75527 -4.82483 0
M  V30 1577 H 155.998 3.84193 -5.80834 0
M  V30 1578 H 153.625 3.91747 -6.51489 0
M  V30 1579 N 155.201 0.870884 1.31352 0
M  V30 1580 C 156.426 0.495957 2.01383 0
M  V30 1581 C 156.851 -0.904324 1.64935 0
M  V30 1582 O 156.209 -1.59687 0.858466 0
M  V30 1583 C 156.257 0.661433 3.54482 0
M  V30 1584 O 155.361 -0.298851 4.11316 0
M  V30 1585 H 154.702 0.197158 0.634054 0
M  V30 1586 H 157.232 1.17455 1.67527 0
M  V30 1587 H 157.242 0.555072 4.04207 0
M  V30 1588 H 155.917 1.68246 3.8035 0
M  V30 1589 H 154.494 -0.147368 3.72609 0
M  V30 1590 N 156.679 -1.44442 0.630414 0
M  V30 1591 C 157.904 -2.06927 0.139944 0
M  V30 1592 C 158.329 -1.46795 -1.17613 0
M  V30 1593 O 157.687 -0.569144 -1.72135 0
M  V30 1594 C 157.735 -3.6058 0.0379581 0
M  V30 1595 O 156.839 -3.99937 -1.0062 0
M  V30 1596 H 156.18 -0.658608 0.0844483 0
M  V30 1597 H 158.71 -1.85327 0.866891 0
M  V30 1598 H 158.72 -4.07714 -0.152856 0
M  V30 1599 H 157.395 -4.03728 0.998809 0
M  V30 1600 H 155.972 -3.64436 -0.79001 0
M  V30 1601 N 158.157 -0.370918 -1.53173 0
M  V30 1602 C 159.382 0.220293 -2.06227 0
M  V30 1603 C 159.807 1.41243 -1.24225 0
M  V30 1604 O 159.165 1.79387 -0.262645 0
M  V30 1605 C 159.213 0.586663 -3.55796 0
M  V30 1606 O 158.317 1.68317 -3.76488 0
M  V30 1607 H 157.658 0.0308099 -0.663285 0
M  V30 1608 H 160.188 -0.533068 -1.97534 0
M  V30 1609 H 160.198 0.85617 -3.98916 0
M  V30 1610 H 158.873 -0.285013 -4.14922 0
M  V30 1611 H 157.45 1.40881 -3.45264 0
M  V30 1612 N 159.635 1.57281 -0.100228 0
M  V30 1613 C 160.881 1.94826 0.563101 0
M  V30 1614 C 161.214 0.982475 1.67514 0
M  V30 1615 O 160.489 0.0164069 1.94493 0
M  V30 1616 C 160.772 3.42453 1.11346 0
M  V30 1617 C 160.625 4.498 0.00612081 0
M  V30 1618 C 161.944 3.91506 2.01024 0
M  V30 1619 H 159.063 0.708428 0.203221 0
M  V30 1620 H 161.705 1.8922 -0.171979 0
M  V30 1621 H 159.855 3.47361 1.7399 0
M  V30 1622 H 161.527 4.57 -0.628357 0
M  V30 1623 H 159.77 4.28756 -0.659581 0
M  V30 1624 H 160.441 5.50306 0.432109 0
M  V30 1625 H 162.917 3.88784 1.48278 0
M  V30 1626 H 161.793 4.95358 2.36457 0
M  V30 1627 H 162.054 3.31099 2.92961 0
M  V30 1628 N 161.113 -0.173488 1.56642 0
M  V30 1629 C 162.359 -0.891784 1.8214 0
M  V30 1630 C 162.692 -1.8199 0.677736 0
M  V30 1631 O 161.967 -1.91842 -0.320446 0
M  V30 1632 C 162.25 -1.68933 3.18015 0
M  V30 1633 C 162.103 -0.784487 4.42906 0
M  V30 1634 C 163.422 -2.65748 3.50808 0
M  V30 1635 H 160.541 -0.322761 0.662567 0
M  V30 1636 H 163.183 -0.158095 1.89341 0
M  V30 1637 H 161.333 -2.31482 3.12007 0
M  V30 1638 H 163.005 -0.172046 4.60979 0
M  V30 1639 H 161.248 -0.0924117 4.33702 0
M  V30 1640 H 161.919 -1.37799 5.34524 0
M  V30 1641 H 164.395 -2.13327 3.57255 0
M  V30 1642 H 163.271 -3.18619 4.4696 0
M  V30 1643 H 163.532 -3.45842 2.75401 0
M  V30 1644 N 162.591 -1.51276 -0.441967 0
M  V30 1645 C 163.523 -1.68444 -1.55433 0
M  V30 1646 C 164.536 -0.565187 -1.52674 0
M  V30 1647 O 165.725 -0.839356 -1.57534 0
M  V30 1648 C 162.825 -1.67966 -2.94348 0
M  V30 1649 C 161.998 -2.964 -3.21661 0
M  V30 1650 C 161.057 -2.88171 -4.40277 0
M  V30 1651 O 160.083 -3.62119 -4.39157 0
M  V30 1652 N 161.285 -2.03706 -5.43584 0
M  V30 1653 H 164.05 -2.644 -1.41112 0
M  V30 1654 H 161.611 -1.49104 -0.630838 0
M  V30 1655 H 163.603 -1.60035 -3.71713 0
M  V30 1656 H 162.173 -0.796225 -3.0229 0
M  V30 1657 H 161.393 -3.18234 -2.32638 0
M  V30 1658 H 162.681 -3.81427 -3.36736 0
M  V30 1659 H 162.079 -1.42995 -5.47329 0
M  V30 1660 H 160.636 -2.01658 -6.1982 0
M  V30 1661 N 164.069 0.697108 -1.41344 0
M  V30 1662 C 164.999 1.82353 -1.45841 0
M  V30 1663 C 165.98 1.67115 -0.317247 0
M  V30 1664 O 167.165 1.86871 -0.528474 0
M  V30 1665 C 164.295 3.20476 -1.33838 0
M  V30 1666 C 163.249 3.50415 -2.4575 0
M  V30 1667 C 162.575 4.87878 -2.18813 0
M  V30 1668 C 163.875 3.49546 -3.88091 0
M  V30 1669 H 165.569 1.78846 -2.40113 0
M  V30 1670 H 163.115 0.859028 -1.15571 0
M  V30 1671 H 165.068 3.98988 -1.35596 0
M  V30 1672 H 163.792 3.24604 -0.360498 0
M  V30 1673 H 162.451 2.74253 -2.43271 0
M  V30 1674 H 162.099 4.8863 -1.19371 0
M  V30 1675 H 161.799 5.08875 -2.93803 0
M  V30 1676 H 163.323 5.68702 -2.22284 0
M  V30 1677 H 164.737 4.18066 -3.92293 0
M  V30 1678 H 163.134 3.82075 -4.62751 0
M  V30 1679 H 164.204 2.48552 -4.16353 0
M  V30 1680 N 165.547 1.27147 0.931209 0
M  V30 1681 C 166.777 1.15914 1.71019 0
M  V30 1682 C 167.185 -0.287112 1.87009 0
M  V30 1683 O 166.528 -1.20761 1.38429 0
M  V30 1684 C 166.59 1.76647 3.13107 0
M  V30 1685 C 166.254 3.25807 3.20467 0
M  V30 1686 C 167.251 4.22489 3.02983 0
M  V30 1687 C 164.936 3.66452 3.43538 0
M  V30 1688 C 166.93 5.57794 3.08454 0
M  V30 1689 C 164.617 5.01888 3.48643 0
M  V30 1690 C 165.615 5.97369 3.31119 0
M  V30 1691 O 165.303 7.30337 3.35952 0
M  V30 1692 H 165.035 0.404062 0.54195 0
M  V30 1693 H 167.589 1.68457 1.17521 0
M  V30 1694 H 165.819 1.18578 3.68071 0
M  V30 1695 H 167.508 1.60179 3.72958 0
M  V30 1696 H 168.274 3.92425 2.85004 0
M  V30 1697 H 164.153 2.92611 3.5623 0
M  V30 1698 H 167.697 6.32298 2.94694 0
M  V30 1699 H 163.594 5.31609 3.66145 0
M  V30 1700 H 164.362 7.38739 3.5243 0
M  V30 1701 N 167.025 -1.13721 1.09112 0
M  V30 1702 C 167.955 -2.21148 0.749385 0
M  V30 1703 C 168.936 -1.6792 -0.271475 0
M  V30 1704 O 170.121 -1.93693 -0.140251 0
M  V30 1705 C 167.251 -3.46905 0.165659 0
M  V30 1706 C 166.205 -4.13203 1.11567 0
M  V30 1707 C 165.531 -5.33248 0.393809 0
M  V30 1708 C 166.831 -4.60912 2.45678 0
M  V30 1709 H 168.525 -2.4999 1.64758 0
M  V30 1710 H 166.071 -1.20156 0.793626 0
M  V30 1711 H 168.024 -4.21313 -0.085466 0
M  V30 1712 H 166.748 -3.17449 -0.767714 0
M  V30 1713 H 165.407 -3.40758 1.35202 0
M  V30 1714 H 165.055 -5.00054 -0.543599 0
M  V30 1715 H 164.755 -5.78552 1.02721 0
M  V30 1716 H 166.279 -6.10413 0.150908 0
M  V30 1717 H 167.693 -5.26759 2.26269 0
M  V30 1718 H 166.09 -5.16944 3.04776 0
M  V30 1719 H 167.16 -3.75603 3.06677 0
M  V30 1720 N 168.503 -0.877838 -1.30888 0
M  V30 1721 C 169.731 -0.507414 -2.00581 0
M  V30 1722 C 170.146 0.902216 -1.65848 0
M  V30 1723 O 169.503 1.59225 -0.891831 0
M  V30 1724 C 169.554 -0.664162 -3.55347 0
M  V30 1725 O 169.275 -2.01829 -3.8884 0
M  V30 1726 C 170.776 -0.295787 -4.42312 0
M  V30 1727 H 167.996 -0.196866 -0.641471 0
M  V30 1728 H 170.54 -1.18117 -1.66939 0
M  V30 1729 H 168.695 -0.0378619 -3.87381 0
M  V30 1730 H 169.109 -2.03174 -4.8355 0
M  V30 1731 H 170.583 -0.456388 -5.5011 0
M  V30 1732 H 171.06 0.765663 -4.32475 0
M  V30 1733 H 171.666 -0.898113 -4.15709 0
M  V30 1734 N 169.982 1.44106 -0.638065 0
M  V30 1735 C 170.915 2.27924 0.112161 0
M  V30 1736 C 171.893 1.38945 0.844574 0
M  V30 1737 O 173.077 1.68386 0.847248 0
M  V30 1738 C 170.204 3.18029 1.16512 0
M  V30 1739 C 169.25 4.23163 0.532458 0
M  V30 1740 S 170.083 5.31131 -0.682666 0
M  V30 1741 C 171.239 6.24805 0.37013 0
M  V30 1742 H 171.472 2.91205 -0.598887 0
M  V30 1743 H 169.005 1.48394 -0.426441 0
M  V30 1744 H 170.963 3.70492 1.76766 0
M  V30 1745 H 169.624 2.53955 1.8484 0
M  V30 1746 H 168.817 4.86252 1.32571 0
M  V30 1747 H 168.419 3.74 0.00437644 0
M  V30 1748 H 170.711 6.66042 1.24071 0
M  V30 1749 H 171.654 7.07741 -0.225349 0
M  V30 1750 H 172.062 5.60154 0.699141 0
M  V30 1751 N 171.46 0.379036 1.52974 0
M  V30 1752 C 172.708 -0.206014 2.01047 0
M  V30 1753 C 173.029 -1.48175 1.26765 0
M  V30 1754 O 172.299 -1.92085 0.384743 0
M  V30 1755 H 170.879 -0.0791184 0.742798 0
M  V30 1756 H 173.541 0.508366 1.88153 0
M  V30 1757 H 172.637 -0.423501 3.09213 0
M  V30 1758 N 172.938 -1.57226 0.108567 0
M  V30 1759 C 174.185 -1.94833 -0.551943 0
M  V30 1760 C 174.513 -0.991204 -1.67348 0
M  V30 1761 O 173.768 -0.0131878 -1.95696 0
M  V30 1762 C 174.067 -3.38911 -1.13463 0
M  V30 1763 C 173.733 -4.50696 -0.135509 0
M  V30 1764 C 172.395 -4.80998 0.139252 0
M  V30 1765 C 174.747 -5.18333 0.545957 0
M  V30 1766 C 172.075 -5.76259 1.10194 0
M  V30 1767 C 174.427 -6.14627 1.49721 0
M  V30 1768 C 173.091 -6.43327 1.78006 0
M  V30 1769 H 172.361 -0.712944 -0.20197 0
M  V30 1770 H 175.008 -1.90582 0.18726 0
M  V30 1771 H 173.313 -3.39805 -1.95037 0
M  V30 1772 H 175.01 -3.65317 -1.65362 0
M  V30 1773 H 171.6 -4.27087 -0.359846 0
M  V30 1774 H 175.784 -4.95087 0.346842 0
M  V30 1775 H 171.04 -5.96804 1.32795 0
M  V30 1776 H 175.214 -6.66126 2.03099 0
M  V30 1777 H 172.841 -7.1695 2.52759 0
M  V30 1778 N 174.416 0.165178 -1.56732 0
M  V30 1779 C 175.665 0.879143 -1.81532 0
M  V30 1780 C 175.978 1.83144 -0.686842 0
M  V30 1781 O 177.184 2.58823 -0.819944 0
M  V30 1782 C 175.64 1.61388 -3.21686 0
M  V30 1783 C 175.248 0.704904 -4.4242 0
M  V30 1784 C 176.992 2.3157 -3.55774 0
M  V30 1785 C 174.899 1.44022 -5.73595 0
M  V30 1786 H 173.829 0.332033 -0.676957 0
M  V30 1787 H 176.48 0.132008 -1.83025 0
M  V30 1788 H 174.862 2.40599 -3.14529 0
M  V30 1789 H 176.036 -0.0506815 -4.60772 0
M  V30 1790 H 174.351 0.112419 -4.16248 0
M  V30 1791 H 176.948 2.8719 -4.51028 0
M  V30 1792 H 177.291 3.07201 -2.8095 0
M  V30 1793 H 177.824 1.59297 -3.64513 0
M  V30 1794 H 174.563 0.72612 -6.51466 0
M  V30 1795 H 174.083 2.16898 -5.5921 0
M  V30 1796 H 175.762 1.98606 -6.15764 0
M  V30 1797 N 175.894 1.51508 0.433938 0
M  V30 1798 C 177.122 1.68157 1.20543 0
M  V30 1799 C 177.537 0.380362 1.84929 0
M  V30 1800 O 176.894 -0.641446 1.70856 0
M  V30 1801 C 176.945 2.79965 2.28696 0
M  V30 1802 O 176.666 4.05045 1.66943 0
M  V30 1803 C 178.167 3.07912 3.18912 0
M  V30 1804 H 175.387 0.56421 0.363191 0
M  V30 1805 H 177.931 1.97941 0.513754 0
M  V30 1806 H 176.086 2.5277 2.93574 0
M  V30 1807 H 176.5 4.67165 2.38448 0
M  V30 1808 H 177.974 3.89719 3.90926 0
M  V30 1809 H 178.451 2.20456 3.79863 0
M  V30 1810 H 179.057 3.36779 2.59731 0
M  V30 1811 N 177.372 -0.689602 1.41712 0
M  V30 1812 C 178.62 -1.4468 1.4111 0
M  V30 1813 C 178.941 -1.94986 0.0232196 0
M  V30 1814 O 178.211 -1.72097 -0.935913 0
M  V30 1815 H 176.791 -0.536847 0.519427 0
M  V30 1816 H 179.453 -0.815825 1.77004 0
M  V30 1817 H 178.549 -2.30706 2.10193 0
M  V30 1818 N 178.85 -1.27639 -0.924453 0
M  V30 1819 C 179.78 -1.13166 -2.04244 0
M  V30 1820 C 180.761 -0.032256 -1.70069 0
M  V30 1821 O 181.946 -0.207328 -1.9309 0
M  V30 1822 C 179.076 -0.781496 -3.38393 0
M  V30 1823 C 178.03 -1.83449 -3.86692 0
M  V30 1824 C 177.356 -1.33822 -5.17683 0
M  V30 1825 C 178.656 -3.23917 -4.09726 0
M  V30 1826 H 180.35 -2.06689 -2.1661 0
M  V30 1827 H 177.896 -0.995136 -1.04082 0
M  V30 1828 H 179.849 -0.667057 -4.16087 0
M  V30 1829 H 178.573 0.189439 -3.2605 0
M  V30 1830 H 177.232 -1.93789 -3.11193 0
M  V30 1831 H 176.88 -0.35665 -5.01734 0
M  V30 1832 H 176.58 -2.04224 -5.50968 0
M  V30 1833 H 178.104 -1.23679 -5.97943 0
M  V30 1834 H 179.518 -3.16559 -4.77978 0
M  V30 1835 H 177.915 -3.92059 -4.54324 0
M  V30 1836 H 178.985 -3.68729 -3.14908 0
M  V30 1837 N 180.328 1.1314 -1.09713 0
M  V30 1838 C 181.576 1.84119 -0.833338 0
M  V30 1839 C 181.897 1.84097 0.642904 0
M  V30 1840 O 181.167 1.29881 1.46655 0
M  V30 1841 H 179.747 0.681766 -0.305293 0
M  V30 1842 H 182.409 1.37038 -1.38588 0
M  V30 1843 H 181.505 2.88543 -1.18951 0
M  V30 1844 N 181.806 0.884767 1.30421 0
M  V30 1845 C 182.736 0.367574 2.30589 0
M  V30 1846 C 183.717 -0.549464 1.60981 0
M  V30 1847 O 184.902 -0.46336 1.88591 0
M  V30 1848 C 182.032 -0.418944 3.44764 0
M  V30 1849 C 180.986 0.406316 4.26067 0
M  V30 1850 C 180.312 -0.506793 5.32293 0
M  V30 1851 C 181.612 1.64832 4.95608 0
M  V30 1852 H 183.306 1.20462 2.74097 0
M  V30 1853 H 180.852 0.580695 1.31772 0
M  V30 1854 H 182.805 -0.791395 4.13902 0
M  V30 1855 H 181.529 -1.28964 3.0006 0
M  V30 1856 H 180.188 0.760903 3.58617 0
M  V30 1857 H 179.836 -1.37519 4.83836 0
M  V30 1858 H 179.536 0.0415828 5.87585 0
M  V30 1859 H 181.06 -0.875764 6.04287 0
M  V30 1860 H 182.474 1.34646 5.57264 0
M  V30 1861 H 180.871 2.13688 5.60765 0
M  V30 1862 H 181.941 2.39284 4.21748 0
M  V30 1863 N 183.284 -1.43765 0.645699 0
M  V30 1864 C 184.247 -2.29163 -0.0409488 0
M  V30 1865 C 185.247 -1.41813 -0.757996 0
M  V30 1866 O 186.437 -1.63527 -0.600382 0
M  V30 1867 C 183.569 -3.23716 -1.06869 0
M  V30 1868 H 184.762 -2.91366 0.710345 0
M  V30 1869 H 182.315 -1.5092 0.406547 0
M  V30 1870 H 183.05 -2.66393 -1.84947 0
M  V30 1871 H 182.835 -3.88105 -0.558277 0
M  V30 1872 H 184.325 -3.87831 -1.54845 0
M  V30 1873 N 184.763 -0.387143 -1.52771 0
M  V30 1874 C 186.01 0.195735 -2.01552 0
M  V30 1875 C 186.338 1.46995 -1.27369 0
M  V30 1876 O 185.593 1.92325 -0.361879 0
M  V30 1877 C 185.892 0.512209 -3.53711 0
M  V30 1878 C 185.558 -0.670202 -4.45891 0
M  V30 1879 C 184.22 -0.994586 -4.70809 0
M  V30 1880 C 186.572 -1.46134 -5.00294 0
M  V30 1881 C 183.9 -2.11169 -5.4738 0
M  V30 1882 C 186.252 -2.56903 -5.78086 0
M  V30 1883 C 184.916 -2.89852 -6.01284 0
M  V30 1884 H 184.186 0.0716246 -0.73753 0
M  V30 1885 H 186.833 -0.524046 -1.8419 0
M  V30 1886 H 185.138 1.31329 -3.69134 0
M  V30 1887 H 186.835 0.975804 -3.88946 0
M  V30 1888 H 183.425 -0.407366 -4.2666 0
M  V30 1889 H 187.609 -1.22397 -4.80971 0
M  V30 1890 H 182.865 -2.3707 -5.63567 0
M  V30 1891 H 187.039 -3.18608 -6.19243 0
M  V30 1892 H 184.666 -3.76533 -6.60399 0
M  V30 1893 N 186.241 1.57166 -0.116904 0
M  V30 1894 C 187.189 2.16457 0.851418 0
M  V30 1895 C 188.183 1.11323 1.27686 0
M  V30 1896 O 189.389 1.2963 1.24884 0
M  V30 1897 H 185.764 0.69271 0.292672 0
M  V30 1898 H 187.735 2.96605 0.32685 0
M  V30 1899 C 186.484 2.77689 2.09246 0
M  V30 1900 H 185.807 3.58285 1.77402 0
M  V30 1901 H 187.247 3.22716 2.7501 0
M  V30 1902 C 185.706 1.74667 2.88085 0
M  V30 1903 O 186.236 1.19877 3.83396 0
M  V30 1904 N 184.442 1.44656 2.52038 0
M  V30 1905 H 183.989 1.89402 1.74599 0
M  V30 1906 H 183.947 0.759675 3.05084 0
M  V30 1907 N 187.719 -0.156864 1.56817 0
M  V30 1908 C 188.649 -1.19589 2.00551 0
M  V30 1909 C 189.63 -1.4536 0.883426 0
M  V30 1910 O 190.815 -1.56449 1.15054 0
M  V30 1911 C 187.945 -2.53143 2.37773 0
M  V30 1912 C 186.899 -2.41913 3.53075 0
M  V30 1913 C 186.225 -3.80088 3.76081 0
M  V30 1914 C 187.525 -1.91157 4.86062 0
M  V30 1915 H 189.219 -0.832293 2.87599 0
M  V30 1916 H 186.765 -0.398918 1.38364 0
M  V30 1917 H 188.718 -3.26047 2.66967 0
M  V30 1918 H 187.442 -2.91319 1.4765 0
M  V30 1919 H 186.101 -1.71462 3.24031 0
M  V30 1920 H 185.749 -4.15683 2.83225 0
M  V30 1921 H 185.449 -3.73439 4.53671 0
M  V30 1922 H 186.973 -4.54556 4.0769 0
M  V30 1923 H 188.387 -2.53846 5.14038 0
M  V30 1924 H 186.784 -1.95422 5.67389 0
M  V30 1925 H 187.854 -0.866673 4.77092 0
M  V30 1926 N 189.197 -1.51736 -0.425897 0
M  V30 1927 C 190.129 -1.70083 -1.53638 0
M  V30 1928 C 191.142 -0.581349 -1.52066 0
M  V30 1929 O 192.331 -0.856017 -1.56635 0
M  V30 1930 C 189.431 -1.71078 -2.9255 0
M  V30 1931 C 188.604 -2.99795 -3.185 0
M  V30 1932 C 187.663 -2.92825 -4.37196 0
M  V30 1933 O 186.689 -3.66756 -4.35291 0
M  V30 1934 N 187.891 -2.0946 -5.41393 0
M  V30 1935 H 190.656 -2.65882 -1.383 0
M  V30 1936 H 188.217 -1.49765 -0.614988 0
M  V30 1937 H 190.209 -1.63969 -3.69995 0
M  V30 1938 H 188.779 -0.828242 -3.01428 0
M  V30 1939 H 187.999 -3.20684 -2.2925 0
M  V30 1940 H 189.287 -3.84977 -3.32671 0
M  V30 1941 H 188.685 -1.48792 -5.45781 0
M  V30 1942 H 187.242 -2.08221 -6.17647 0
M  V30 1943 N 190.675 0.682077 -1.42076 0
M  V30 1944 C 192.086 1.26246 -1.37546 0
M  V30 1945 C 192.437 1.96092 -0.0651481 0
M  V30 1946 O 191.562 1.99587 0.836297 0
M  V30 1947 C 192.157 2.29594 -2.49143 0
M  V30 1948 C 190.716 2.83175 -2.47969 0
M  V30 1949 C 189.863 1.57395 -2.28303 0
M  V30 1950 H 192.814 0.475937 -1.51395 0
M  V30 1951 H 192.835 3.11175 -2.18976 0
M  V30 1952 H 192.347 1.78729 -3.44496 0
M  V30 1953 H 190.448 3.3818 -1.56413 0
M  V30 1954 H 190.561 3.32687 -3.44755 0
M  V30 1955 H 188.925 1.83699 -1.76428 0
M  V30 1956 H 189.708 1.08507 -3.25701 0
M  V30 1957 N 192.153 1.28127 0.917671 0
M  V30 1958 C 193.116 1.11744 2.00115 0
M  V30 1959 C 194.116 0.0583052 1.60694 0
M  V30 1960 O 195.306 0.303755 1.71531 0
M  V30 1961 C 192.438 0.704862 3.33533 0
M  V30 1962 H 193.631 2.07966 2.16079 0
M  V30 1963 H 191.184 1.11058 1.09981 0
M  V30 1964 H 191.919 -0.258299 3.2327 0
M  V30 1965 H 191.704 1.4699 3.63505 0
M  V30 1966 H 193.194 0.612768 4.1308 0
M  V30 1967 N 193.631 -1.12557 1.10312 0
M  V30 1968 C 194.561 -2.20341 0.772798 0
M  V30 1969 C 195.542 -1.68198 -0.25365 0
M  V30 1970 O 196.727 -1.93831 -0.119699 0
M  V30 1971 C 193.857 -3.46709 0.202443 0
M  V30 1972 C 192.811 -4.11996 1.15943 0
M  V30 1973 C 192.137 -5.328 0.450345 0
M  V30 1974 C 193.437 -4.5828 2.50552 0
M  V30 1975 H 195.131 -2.48229 1.674 0
M  V30 1976 H 192.677 -1.19308 0.806326 0
M  V30 1977 H 194.63 -4.2138 -0.0407752 0
M  V30 1978 H 193.354 -3.18245 -0.734001 0
M  V30 1979 H 192.013 -3.39305 1.38808 0
M  V30 1980 H 191.661 -5.00602 -0.490531 0
M  V30 1981 H 191.361 -5.7743 1.08851 0
M  V30 1982 H 192.885 -6.10219 0.215642 0
M  V30 1983 H 194.299 -5.2433 2.31843 0
M  V30 1984 H 192.696 -5.13683 3.10242 0
M  V30 1985 H 193.766 -3.72329 3.10643 0
M  V30 1986 N 195.109 -0.891671 -1.2995 0
M  V30 1987 C 196.337 -0.52866 -2.00032 0
M  V30 1988 C 196.752 0.884574 -1.66795 0
M  V30 1989 O 196.109 1.5827 -0.908669 0
M  V30 1990 C 196.16 -0.701814 -3.54622 0
M  V30 1991 O 195.881 -2.05942 -3.86678 0
M  V30 1992 C 197.382 -0.342683 -4.41973 0
M  V30 1993 H 194.602 -0.203659 -0.639347 0
M  V30 1994 H 197.146 -1.19881 -1.65677 0
M  V30 1995 H 195.301 -0.0789468 -3.8732 0
M  V30 1996 H 195.715 -2.08291 -4.81368 0
M  V30 1997 H 197.189 -0.514709 -5.49595 0
M  V30 1998 H 197.666 0.71975 -4.33262 0
M  V30 1999 H 198.272 -0.942154 -4.14733 0
M  V30 2000 N 196.587 1.43421 -0.653314 0
M  V30 2001 C 197.836 2.01032 -0.164076 0
M  V30 2002 C 198.149 1.52147 1.22926 0
M  V30 2003 O 199.355 2.02031 1.81371 0
M  V30 2004 C 197.811 3.59082 -0.24252 0
M  V30 2005 C 197.419 4.1696 -1.63855 0
M  V30 2006 C 199.163 4.24079 0.18911 0
M  V30 2007 C 197.07 5.67304 -1.67092 0
M  V30 2008 H 196 0.751798 -0.0575769 0
M  V30 2009 H 198.651 1.6439 -0.815362 0
M  V30 2010 H 197.033 3.93125 0.476276 0
M  V30 2011 H 198.207 3.94416 -2.38271 0
M  V30 2012 H 196.522 3.64335 -2.01616 0
M  V30 2013 H 199.119 5.34381 0.184775 0
M  V30 2014 H 199.462 3.98005 1.22056 0
M  V30 2015 H 199.995 3.94918 -0.477938 0
M  V30 2016 H 196.734 5.98145 -2.68146 0
M  V30 2017 H 196.254 5.91904 -0.970014 0
M  V30 2018 H 197.933 6.31344 -1.4147 0
M  V30 2019 N 198.065 0.39524 1.52563 0
M  V30 2020 C 199.314 -0.186321 2.00838 0
M  V30 2021 C 199.627 -1.47402 1.28577 0
M  V30 2022 O 200.833 -2.13599 1.67593 0
M  V30 2023 C 199.289 -0.382595 3.57861 0
M  V30 2024 C 198.897 0.892202 4.39026 0
M  V30 2025 C 200.641 -0.9202 4.14406 0
M  V30 2026 C 198.548 0.66388 5.87662 0
M  V30 2027 H 197.478 -0.0734041 0.750418 0
M  V30 2028 H 200.129 0.518552 1.76021 0
M  V30 2029 H 198.511 -1.14946 3.7895 0
M  V30 2030 H 199.685 1.66414 4.29701 0
M  V30 2031 H 198 1.35519 3.9373 0
M  V30 2032 H 200.597 -1.10683 5.23119 0
M  V30 2033 H 200.94 -1.89096 3.70875 0
M  V30 2034 H 201.473 -0.212751 3.97231 0
M  V30 2035 H 198.212 1.6058 6.35527 0
M  V30 2036 H 197.732 -0.0690193 5.9976 0
M  V30 2037 H 199.411 0.300699 6.46301 0
M  V30 2038 N 199.544 -1.57102 0.125237 0
M  V30 2039 C 200.792 -1.95021 -0.530198 0
M  V30 2040 C 201.113 -1.00982 -1.66816 0
M  V30 2041 O 200.383 -0.0672693 -1.95784 0
M  V30 2042 H 198.963 -0.720046 -0.198853 0
M  V30 2043 H 201.625 -1.93916 0.19564 0
M  V30 2044 H 200.721 -2.98211 -0.920681 0
M  V30 2045 N 201.022 0.148545 -1.56898 0
M  V30 2046 C 201.969 1.18345 -1.98149 0
M  V30 2047 C 202.939 1.42772 -0.848848 0
M  V30 2048 O 204.124 1.55132 -1.11079 0
M  V30 2049 C 201.264 2.51231 -2.36594 0
M  V30 2050 C 200.377 2.33991 -3.63142 0
M  V30 2051 C 199.512 3.59902 -3.90697 0
M  V30 2052 C 198.551 3.37692 -5.1052 0
M  V30 2053 N 197.688 4.5573 -5.34092 0
M  V30 2054 H 202.528 0.82467 -2.86362 0
M  V30 2055 H 200.065 0.395756 -1.41676 0
M  V30 2056 H 202.023 3.28713 -2.56912 0
M  V30 2057 H 200.653 2.85059 -1.51463 0
M  V30 2058 H 199.705 1.47572 -3.50609 0
M  V30 2059 H 201.017 2.13539 -4.5078 0
M  V30 2060 H 200.171 4.45813 -4.11505 0
M  V30 2061 H 198.91 3.83357 -3.01477 0
M  V30 2062 H 197.915 2.5017 -4.89587 0
M  V30 2063 H 199.14 3.15637 -6.0129 0
M  V30 2064 H 197.086 4.79361 -4.47827 0
M  V30 2065 H 197.003 4.38274 -6.15996 0
M  V30 2066 H 198.271 5.42858 -5.59397 0
M  V30 2067 N 202.5 1.5196 0.417844 0
M  V30 2068 C 203.73 1.69181 1.18581 0
M  V30 2069 C 204.138 0.397104 1.84986 0
M  V30 2070 O 203.481 -0.636011 1.72339 0
M  V30 2071 C 203.543 2.76497 2.29759 0
M  V30 2072 C 203.207 4.18514 1.83563 0
M  V30 2073 C 204.204 5.02648 1.32821 0
M  V30 2074 C 201.889 4.64708 1.90661 0
M  V30 2075 C 203.883 6.31044 0.897894 0
M  V30 2076 C 201.57 5.93096 1.47241 0
M  V30 2077 C 202.568 6.76093 0.968891 0
M  V30 2078 O 202.256 8.02078 0.540924 0
M  V30 2079 H 201.988 0.570457 0.362705 0
M  V30 2080 H 204.542 1.99249 0.498885 0
M  V30 2081 H 202.772 2.41786 3.01789 0
M  V30 2082 H 204.461 2.82403 2.91553 0
M  V30 2083 H 205.227 4.68154 1.26716 0
M  V30 2084 H 201.106 4.00216 2.28797 0
M  V30 2085 H 204.65 6.95776 0.504192 0
M  V30 2086 H 200.547 6.271 1.53022 0
M  V30 2087 H 201.315 8.15794 0.66502 0
M  V30 2088 N 203.978 -0.674533 1.42435 0
M  V30 2089 C 205.225 -1.43459 1.42919 0
M  V30 2090 C 205.553 -1.94446 0.0457312 0
M  V30 2091 O 204.808 -1.7132 -0.94593 0
M  V30 2092 C 205.107 -2.64767 2.40069 0
M  V30 2093 C 204.773 -2.3232 3.86443 0
M  V30 2094 C 203.435 -2.23182 4.26314 0
M  V30 2095 C 205.787 -2.05977 4.78773 0
M  V30 2096 C 203.115 -1.85827 5.56494 0
M  V30 2097 C 205.467 -1.70125 6.09295 0
M  V30 2098 C 204.131 -1.59498 6.48164 0
M  V30 2099 H 203.401 -0.524952 0.522978 0
M  V30 2100 H 206.048 -0.769097 1.75377 0
M  V30 2101 H 204.353 -3.36349 2.00939 0
M  V30 2102 H 206.05 -3.22949 2.37707 0
M  V30 2103 H 202.64 -2.40334 3.54877 0
M  V30 2104 H 206.824 -2.11969 4.48757 0
M  V30 2105 H 202.08 -1.76168 5.8547 0
M  V30 2106 H 206.254 -1.48767 6.80324 0
M  V30 2107 H 203.881 -1.30322 7.48946 0
M  V30 2108 N 205.456 -1.28612 -0.910864 0
M  V30 2109 C 206.686 -1.1862 -1.69153 0
M  V30 2110 C 207.094 0.257324 -1.87442 0
M  V30 2111 O 206.437 1.18543 -1.40332 0
M  V30 2112 C 206.499 -1.81606 -3.10257 0
M  V30 2113 C 206.163 -3.30864 -3.15243 0
M  V30 2114 C 207.16 -4.27256 -2.96223 0
M  V30 2115 C 204.845 -3.71871 -3.37664 0
M  V30 2116 C 206.839 -5.62631 -2.99541 0
M  V30 2117 C 204.526 -5.07371 -3.40614 0
M  V30 2118 C 205.524 -6.02561 -3.21573 0
M  V30 2119 O 205.212 -7.35589 -3.2429 0
M  V30 2120 H 204.944 -0.412633 -0.535453 0
M  V30 2121 H 207.498 -1.70306 -1.14827 0
M  V30 2122 H 205.728 -1.24418 -3.66138 0
M  V30 2123 H 207.417 -1.66092 -3.70362 0
M  V30 2124 H 208.183 -3.9691 -2.78725 0
M  V30 2125 H 204.062 -2.98241 -3.5153 0
M  V30 2126 H 207.606 -6.36907 -2.84597 0
M  V30 2127 H 203.503 -5.37366 -3.57642 0
M  V30 2128 H 204.271 -7.44252 -3.40633 0
M  V30 2129 N 206.934 1.1197 -1.10907 0
M  V30 2130 C 208.35 1.35591 -0.841852 0
M  V30 2131 C 208.55 1.94233 0.536246 0
M  V30 2132 O 207.606 2.1717 1.28816 0
M  V30 2133 C 208.919 2.29284 -1.94549 0
M  V30 2134 C 210.467 2.42862 -1.97451 0
M  V30 2135 C 210.942 3.39873 -3.07002 0
M  V30 2136 N 212.433 3.47433 -3.06341 0
M  V30 2137 C 213.168 4.22421 -3.87748 0
M  V30 2138 N 212.664 5.00432 -4.79103 0
M  V30 2139 N 214.457 4.17876 -3.75946 0
M  V30 2140 H 206.608 0.722664 -1.99728 0
M  V30 2141 H 208.871 0.380635 -0.868229 0
M  V30 2142 H 208.577 1.93378 -2.93765 0
M  V30 2143 H 208.451 3.29452 -1.83688 0
M  V30 2144 H 210.838 2.78046 -0.988645 0
M  V30 2145 H 210.919 1.42566 -2.12388 0
M  V30 2146 H 210.563 3.05417 -4.05811 0
M  V30 2147 H 210.493 4.40011 -2.89306 0
M  V30 2148 H 212.984 2.91784 -2.40147 0
M  V30 2149 H 213.297 5.55002 -5.37766 0
M  V30 2150 H 211.642 4.99612 -4.83128 0
M  V30 2151 H 214.833 3.56016 -3.03924 0
M  V30 2152 H 215.006 4.76061 -4.39624 0
M  V30 2153 N 208.412 0.89855 1.29475 0
M  V30 2154 C 209.359 0.373819 2.27753 0
M  V30 2155 C 210.329 -0.543444 1.56958 0
M  V30 2156 O 211.514 -0.468934 1.84948 0
M  V30 2157 C 208.654 -0.393648 3.42848 0
M  V30 2158 C 207.767 0.554379 4.28428 0
M  V30 2159 C 206.902 -0.230026 5.30702 0
M  V30 2160 C 205.941 0.712599 6.07938 0
M  V30 2161 N 205.078 -0.0373283 7.0209 0
M  V30 2162 H 209.918 1.21699 2.72017 0
M  V30 2163 H 207.455 0.611456 1.33789 0
M  V30 2164 H 209.413 -0.85466 4.08352 0
M  V30 2165 H 208.043 -1.20128 2.99615 0
M  V30 2166 H 207.095 1.13391 3.63107 0
M  V30 2167 H 208.407 1.27597 4.82204 0
M  V30 2168 H 207.561 -0.752288 6.02018 0
M  V30 2169 H 206.3 -0.984758 4.77654 0
M  V30 2170 H 205.305 1.24637 5.35486 0
M  V30 2171 H 206.53 1.46664 6.63074 0
M  V30 2172 H 204.476 -0.774348 6.51414 0
M  V30 2173 H 204.393 0.624374 7.53417 0
M  V30 2174 H 205.661 -0.539891 7.77628 0
M  V30 2175 N 209.89 -1.43072 0.660911 0
M  V30 2176 C 211.306 -1.56169 0.329173 0
M  V30 2177 C 211.506 -1.64317 -1.16629 0
M  V30 2178 O 210.562 -1.60245 -1.95135 0
M  V30 2179 C 211.875 -2.81873 1.04729 0
M  V30 2180 C 213.423 -2.95627 1.02828 0
M  V30 2181 C 213.898 -4.24174 1.72744 0
M  V30 2182 N 215.389 -4.31055 1.69545 0
M  V30 2183 C 216.124 -5.29304 2.20511 0
M  V30 2184 N 215.62 -6.33786 2.79799 0
M  V30 2185 N 217.413 -5.21008 2.10966 0
M  V30 2186 H 209.564 -1.36027 1.63127 0
M  V30 2187 H 211.827 -0.653823 0.686454 0
M  V30 2188 H 211.533 -2.81942 2.10242 0
M  V30 2189 H 211.407 -3.72338 0.603702 0
M  V30 2190 H 213.794 -2.95094 -0.0184742 0
M  V30 2191 H 213.875 -2.06431 1.51063 0
M  V30 2192 H 213.519 -4.25467 2.7738 0
M  V30 2193 H 213.449 -5.1228 1.2197 0
M  V30 2194 H 215.94 -3.56174 1.26288 0
M  V30 2195 H 216.253 -7.05086 3.16344 0
M  V30 2196 H 214.598 -6.34387 2.83863 0
M  V30 2197 H 217.789 -4.38301 1.64347 0
M  V30 2198 H 217.962 -5.97416 2.50993 0
M  V30 2199 N 211.368 -0.403325 -1.52352 0
M  V30 2200 C 212.779 0.0675782 -1.86578 0
M  V30 2201 C 213.13 1.44941 -1.32236 0
M  V30 2202 O 212.255 2.06112 -0.659307 0
M  V30 2203 C 212.85 0.129404 -3.38553 0
M  V30 2204 C 211.409 0.544629 -3.72439 0
M  V30 2205 C 210.556 -0.284551 -2.75836 0
M  V30 2206 H 213.507 -0.620631 -1.46061 0
M  V30 2207 H 213.528 0.94581 -3.68558 0
M  V30 2208 H 213.04 -0.87645 -3.78074 0
M  V30 2209 H 211.141 1.55734 -3.38493 0
M  V30 2210 H 211.254 0.293046 -4.78203 0
M  V30 2211 H 209.618 0.252258 -2.53448 0
M  V30 2212 H 210.401 -1.28865 -3.18196 0
M  V30 2213 N 212.846 1.57033 -0.133567 0
M  V30 2214 C 213.779 2.11824 0.848872 0
M  V30 2215 C 214.757 1.03833 1.2513 0
M  V30 2216 O 215.941 1.31579 1.34978 0
M  V30 2217 C 213.068 2.62692 2.138 0
M  V30 2218 C 212.114 3.82705 1.88253 0
M  V30 2219 S 212.947 5.2438 1.08563 0
M  V30 2220 C 214.103 5.78627 2.38624 0
M  V30 2221 H 214.336 2.94824 0.38289 0
M  V30 2222 H 211.869 1.5419 0.0804796 0
M  V30 2223 H 213.827 2.92652 2.87863 0
M  V30 2224 H 212.488 1.79847 2.57515 0
M  V30 2225 H 211.681 4.16496 2.83809 0
M  V30 2226 H 211.283 3.53437 1.22305 0
M  V30 2227 H 213.575 5.8924 3.34369 0
M  V30 2228 H 214.518 6.76443 2.09358 0
M  V30 2229 H 214.926 5.06783 2.48658 0
M  V30 2230 N 214.325 -0.140222 1.56975 0
M  V30 2231 C 215.288 -1.15689 1.97861 0
M  V30 2232 C 216.288 -1.3549 0.865974 0
M  V30 2233 O 217.478 -1.32367 1.13246 0
M  V30 2234 C 214.61 -2.51582 2.30042 0
M  V30 2235 H 215.803 -0.805971 2.88867 0
M  V30 2236 H 213.356 -0.383801 1.51515 0
M  V30 2237 H 214.091 -2.91632 1.41849 0
M  V30 2238 H 213.876 -2.38569 3.11171 0
M  V30 2239 H 215.366 -3.24792 2.62488 0
M  V30 2240 N 215.803 -1.52179 -0.40978 0
M  V30 2241 C 216.751 -1.76086 -1.51975 0
M  V30 2242 C 217.745 -0.627964 -1.57331 0
M  V30 2243 O 218.951 -0.809993 -1.60745 0
M  V30 2244 H 215.326 -0.556829 -0.505416 0
M  V30 2245 H 217.297 -2.69077 -1.28996 0
M  V30 2246 C 216.046 -1.92799 -2.8935 0
M  V30 2247 H 215.369 -2.79392 -2.85972 0
M  V30 2248 H 216.809 -2.13527 -3.66309 0
M  V30 2249 C 215.268 -0.694923 -3.29655 0
M  V30 2250 O 215.798 0.13751 -4.01465 0
M  V30 2251 N 214.004 -0.53101 -2.85707 0
M  V30 2252 H 213.551 -1.20952 -2.27439 0
M  V30 2253 H 213.509 0.292718 -3.13034 0
M  V30 2254 N 217.281 0.66697 -1.42791 0
M  V30 2255 C 218.529 1.42417 -1.43394 0
M  V30 2256 C 218.85 1.94925 -0.0542373 0
M  V30 2257 O 218.12 1.73564 0.908415 0
M  V30 2258 H 216.7 0.528515 -0.527902 0
M  V30 2259 H 219.362 0.787562 -1.78279 0
M  V30 2260 H 218.458 2.27333 -2.13837 0
M  V30 2261 N 218.759 1.29093 0.90403 0
M  V30 2262 C 219.689 1.16401 2.02418 0
M  V30 2263 C 220.67 0.0593085 1.69997 0
M  V30 2264 O 221.855 0.238021 1.92736 0
M  V30 2265 C 218.985 0.835233 3.37107 0
M  V30 2266 C 217.939 1.89578 3.83724 0
M  V30 2267 C 217.265 1.42041 5.15489 0
M  V30 2268 C 218.565 3.30394 4.04521 0
M  V30 2269 H 220.259 2.10109 2.13295 0
M  V30 2270 H 217.805 1.01157 1.02486 0
M  V30 2271 H 219.758 0.733169 4.14973 0
M  V30 2272 H 218.482 -0.137543 3.2631 0
M  V30 2273 H 217.141 1.98715 3.08071 0
M  V30 2274 H 216.789 0.436426 5.01103 0
M  V30 2275 H 216.489 2.12964 5.4765 0
M  V30 2276 H 218.013 1.33176 5.959 0
M  V30 2277 H 219.427 3.24123 4.72882 0
M  V30 2278 H 217.824 3.99237 4.48029 0
M  V30 2279 H 218.894 3.73692 3.09002 0
M  V30 2280 N 220.237 -1.11381 1.11499 0
M  V30 2281 C 221.2 -2.15622 0.777153 0
M  V30 2282 C 222.2 -1.59504 -0.203779 0
M  V30 2283 O 223.39 -1.74188 0.020782 0
M  V30 2284 C 220.522 -3.40556 0.153116 0
M  V30 2285 H 221.715 -2.47021 1.70061 0
M  V30 2286 H 219.268 -1.26577 0.916952 0
M  V30 2287 H 220.003 -3.14767 -0.780536 0
M  V30 2288 H 219.788 -3.8257 0.859238 0
M  V30 2289 H 221.278 -4.17546 -0.0671044 0
M  V30 2290 N 221.715 -0.905404 -1.28997 0
M  V30 2291 C 222.648 -0.331959 -2.25773 0
M  V30 2292 C 223.626 0.559099 -1.52685 0
M  V30 2293 O 224.81 0.50463 -1.8162 0
M  V30 2294 C 221.937 0.526276 -3.34586 0
M  V30 2295 C 220.983 -0.298249 -4.25456 0
M  V30 2296 S 221.816 -1.69968 -5.0781 0
M  V30 2297 C 222.972 -0.848519 -6.20122 0
M  V30 2298 H 223.205 -1.15222 -2.74064 0
M  V30 2299 H 220.738 -0.706112 -1.37308 0
M  V30 2300 H 222.696 1.01565 -3.97737 0
M  V30 2301 H 221.357 1.32084 -2.84978 0
M  V30 2302 H 220.55 0.357607 -5.0273 0
M  V30 2303 H 220.152 -0.720968 -3.66985 0
M  V30 2304 H 222.444 -0.0744325 -6.77459 0
M  V30 2305 H 223.387 -1.59353 -6.89937 0
M  V30 2306 H 223.795 -0.400383 -5.63078 0
M  V30 2307 N 223.193 1.4272 -0.668489 0
M  V30 2308 C 224.156 2.292 0.00448567 0
M  V30 2309 C 225.156 1.43001 0.735339 0
M  V30 2310 O 226.346 1.64461 0.57429 0
M  V30 2311 C 223.478 3.25375 1.01705 0
M  V30 2312 H 224.671 2.90199 -0.756608 0
M  V30 2313 H 222.224 1.50254 -0.430506 0
M  V30 2314 H 222.959 2.69301 1.80686 0
M  V30 2315 H 222.744 3.88944 0.496463 0
M  V30 2316 H 224.234 3.90245 1.48655 0
M  V30 2317 N 224.671 0.411399 1.52136 0
M  V30 2318 C 225.919 -0.163322 2.01439 0
M  V30 2319 C 226.24 -1.45453 1.29879 0
M  V30 2320 O 225.51 -1.91225 0.4254 0
M  V30 2321 H 224.09 -0.0633447 0.744309 0
M  V30 2322 H 226.752 0.548161 1.87033 0
M  V30 2323 H 225.848 -0.357817 3.10042 0
M  V30 2324 N 226.149 -1.5696 0.141893 0
M  V30 2325 C 227.374 -2.00754 -0.520838 0
M  V30 2326 C 227.799 -1.0213 -1.57959 0
M  V30 2327 O 227.157 0.00371324 -1.813 0
M  V30 2328 C 227.205 -3.43318 -1.10294 0
M  V30 2329 O 226.309 -3.47679 -2.21795 0
M  V30 2330 H 225.65 -0.651564 -0.127908 0
M  V30 2331 H 228.18 -2.03221 0.23712 0
M  V30 2332 H 228.19 -3.82012 -1.43287 0
M  V30 2333 H 226.865 -4.14608 -0.327574 0
M  V30 2334 H 225.442 -3.20824 -1.9007 0
M  V30 2335 N 227.627 0.131896 -1.57047 0
M  V30 2336 C 229.038 0.690407 -1.73465 0
M  V30 2337 C 229.389 1.8094 -0.758629 0
M  V30 2338 O 228.514 2.16282 0.0713813 0
M  V30 2339 C 229.109 1.25916 -3.14532 0
M  V30 2340 C 227.668 1.76409 -3.32501 0
M  V30 2341 C 226.815 0.658579 -2.69366 0
M  V30 2342 H 229.766 -0.0939144 -1.58422 0
M  V30 2343 H 229.787 2.12892 -3.15369 0
M  V30 2344 H 229.299 0.444515 -3.85546 0
M  V30 2345 H 227.4 2.60391 -2.66509 0
M  V30 2346 H 227.513 1.88241 -4.4057 0
M  V30 2347 H 225.877 1.08899 -2.30246 0
M  V30 2348 H 226.66 -0.14487 -3.42994 0
M  V30 2349 N 229.106 1.52395 0.401703 0
M  V30 2350 C 230.352 1.67065 1.14966 0
M  V30 2351 C 230.685 0.403052 1.89971 0
M  V30 2352 O 229.96 -0.598774 1.85054 0
M  V30 2353 C 230.243 2.8975 2.13815 0
M  V30 2354 C 230.096 4.26578 1.42658 0
M  V30 2355 C 231.415 3.07965 3.14397 0
M  V30 2356 H 228.534 0.607968 0.416587 0
M  V30 2357 H 231.176 1.84965 0.434511 0
M  V30 2358 H 229.326 2.74619 2.74803 0
M  V30 2359 H 230.998 4.53451 0.847329 0
M  V30 2360 H 229.241 4.27639 0.72849 0
M  V30 2361 H 229.912 5.08483 2.14823 0
M  V30 2362 H 232.388 3.22043 2.63491 0
M  V30 2363 H 231.264 3.95308 3.80819 0
M  V30 2364 H 231.525 2.21611 3.82545 0
M  V30 2365 N 230.584 -0.659388 1.43143 0
M  V30 2366 C 231.831 -1.41935 1.44433 0
M  V30 2367 C 232.159 -1.94387 0.0663522 0
M  V30 2368 O 231.414 -1.72314 -0.927706 0
M  V30 2369 C 231.713 -2.62206 2.42864 0
M  V30 2370 C 231.379 -2.28208 3.88886 0
M  V30 2371 C 230.041 -2.18647 4.28657 0
M  V30 2372 C 232.393 -2.00887 4.8093 0
M  V30 2373 C 229.721 -1.79914 5.58433 0
M  V30 2374 C 232.073 -1.63653 6.11065 0
M  V30 2375 C 230.737 -1.52614 6.49819 0
M  V30 2376 H 230.007 -0.519376 0.528517 0
M  V30 2377 H 232.654 -0.750453 1.76183 0
M  V30 2378 H 230.959 -3.34199 2.04495 0
M  V30 2379 H 232.656 -3.2041 2.41119 0
M  V30 2380 H 229.246 -2.36557 3.57406 0
M  V30 2381 H 233.43 -2.07198 4.5098 0
M  V30 2382 H 228.686 -1.69948 5.87305 0
M  V30 2383 H 232.86 -1.41543 6.81864 0
M  V30 2384 H 230.487 -1.22371 7.50286 0
M  V30 2385 N 232.062 -1.29571 -0.897171 0
M  V30 2386 C 232.992 -1.17473 -2.01798 0
M  V30 2387 C 233.973 -0.068323 -1.69963 0
M  V30 2388 O 235.158 -0.248239 -1.92607 0
M  V30 2389 C 232.288 -0.853099 -3.36659 0
M  V30 2390 C 231.242 -1.9161 -3.82713 0
M  V30 2391 C 230.568 -1.44773 -5.14728 0
M  V30 2392 C 231.868 -3.32535 -4.02763 0
M  V30 2393 H 233.562 -2.11237 -2.12177 0
M  V30 2394 H 231.108 -1.01699 -1.01948 0
M  V30 2395 H 233.061 -0.755165 -4.14578 0
M  V30 2396 H 231.785 0.120236 -3.26379 0
M  V30 2397 H 230.444 -2.00346 -3.07013 0
M  V30 2398 H 230.092 -0.462995 -5.00865 0
M  V30 2399 H 229.792 -2.15865 -5.46513 0
M  V30 2400 H 231.316 -1.36334 -5.95185 0
M  V30 2401 H 232.73 -3.26626 -4.71156 0
M  V30 2402 H 231.127 -4.01607 -4.45905 0
M  V30 2403 H 232.197 -3.75326 -3.07016 0
M  V30 2404 N 233.54 1.10788 -1.12088 0
M  V30 2405 C 234.765 1.87002 -0.896949 0
M  V30 2406 C 235.19 1.79933 0.548261 0
M  V30 2407 O 234.548 1.16662 1.38779 0
M  V30 2408 C 234.596 3.3349 -1.37174 0
M  V30 2409 O 233.7 4.08745 -0.547831 0
M  V30 2410 H 233.041 0.580397 -0.322545 0
M  V30 2411 H 235.571 1.39996 -1.49206 0
M  V30 2412 H 235.581 3.84339 -1.36922 0
M  V30 2413 H 234.256 3.37951 -2.42408 0
M  V30 2414 H 232.833 3.6776 -0.617034 0
M  V30 2415 N 235.018 0.912232 1.28515 0
M  V30 2416 C 236.243 0.559774 1.99703 0
M  V30 2417 C 236.668 -0.851393 1.67729 0
M  V30 2418 O 236.026 -1.56875 0.908834 0
M  V30 2419 C 236.074 0.773874 3.52198 0
M  V30 2420 O 235.178 -0.167842 4.12058 0
M  V30 2421 H 234.519 0.21723 0.627461 0
M  V30 2422 H 237.049 1.22725 1.63706 0
M  V30 2423 H 237.059 0.683386 4.02236 0
M  V30 2424 H 235.734 1.80261 3.74805 0
M  V30 2425 H 234.311 -0.0287509 3.72889 0
M  V30 2426 N 236.496 -1.42363 0.676048 0
M  V30 2427 C 237.426 -2.33497 0.0124832 0
M  V30 2428 C 238.407 -1.50748 -0.787981 0
M  V30 2429 O 239.592 -1.79346 -0.744884 0
M  V30 2430 C 236.722 -3.34377 -0.938582 0
M  V30 2431 C 235.676 -4.27289 -0.246622 0
M  V30 2432 C 235.002 -5.18386 -1.31071 0
M  V30 2433 C 236.302 -5.14916 0.875125 0
M  V30 2434 H 237.996 -2.89233 0.773593 0
M  V30 2435 H 235.542 -1.39073 0.37346 0
M  V30 2436 H 237.495 -3.97044 -1.41188 0
M  V30 2437 H 236.219 -2.76947 -1.73113 0
M  V30 2438 H 234.878 -3.66018 0.206456 0
M  V30 2439 H 234.526 -4.57282 -2.09528 0
M  V30 2440 H 234.226 -5.81378 -0.852839 0
M  V30 2441 H 235.75 -5.83929 -1.78492 0
M  V30 2442 H 237.164 -5.71262 0.482983 0
M  V30 2443 H 235.561 -5.86747 1.25887 0
M  V30 2444 H 236.631 -4.53242 1.72335 0
M  V30 2445 N 237.974 -0.419461 -1.51915 0
M  V30 2446 C 238.937 0.389116 -2.25873 0
M  V30 2447 C 239.937 0.964924 -1.28631 0
M  V30 2448 O 241.127 0.842179 -1.52489 0
M  V30 2449 C 238.259 1.54874 -3.03689 0
M  V30 2450 H 239.452 -0.258799 -2.98781 0
M  V30 2451 H 237.005 -0.172209 -1.55348 0
M  V30 2452 H 237.74 2.23323 -2.35154 0
M  V30 2453 H 237.525 1.14223 -3.75094 0
M  V30 2454 H 239.015 2.12046 -3.59759 0
M  V30 2455 N 239.452 1.56882 -0.150215 0
M  V30 2456 C 240.863 1.82995 0.370076 0
M  V30 2457 C 241.214 1.06907 1.64515 0
M  V30 2458 O 240.339 0.315369 2.1409 0
M  V30 2459 C 240.934 3.31942 0.678208 0
M  V30 2460 C 239.493 3.58625 1.14301 0
M  V30 2461 C 238.64 2.76792 0.167778 0
M  V30 2462 H 241.591 1.54209 -0.374858 0
M  V30 2463 H 241.612 3.48272 1.53254 0
M  V30 2464 H 241.124 3.87294 -0.249991 0
M  V30 2465 H 239.225 3.08664 2.08704 0
M  V30 2466 H 239.338 4.67073 1.06676 0
M  V30 2467 H 237.702 2.45972 0.661037 0
M  V30 2468 H 238.485 3.34916 -0.754069 0
M  V30 2469 N 240.93 -0.123565 1.57115 0
M  V30 2470 C 242.177 -0.832153 1.84612 0
M  V30 2471 C 242.505 -1.80093 0.734627 0
M  V30 2472 O 241.76 -1.93766 -0.27442 0
M  V30 2473 C 242.059 -1.62016 3.18568 0
M  V30 2474 C 241.725 -0.796084 4.43817 0
M  V30 2475 C 240.387 -0.568816 4.77826 0
M  V30 2476 C 242.739 -0.221364 5.2073 0
M  V30 2477 C 240.067 0.243499 5.86194 0
M  V30 2478 C 242.419 0.578117 6.29953 0
M  V30 2479 C 241.083 0.815744 6.62497 0
M  V30 2480 H 240.353 -0.304507 0.675542 0
M  V30 2481 H 243 -0.0947248 1.91266 0
M  V30 2482 H 241.305 -2.42837 3.0747 0
M  V30 2483 H 243.002 -2.17231 3.37064 0
M  V30 2484 H 239.592 -0.983307 4.17168 0
M  V30 2485 H 243.776 -0.384173 4.94811 0
M  V30 2486 H 239.032 0.436871 6.09837 0
M  V30 2487 H 243.206 1.03046 6.88734 0
M  V30 2488 H 240.833 1.44701 7.46301 0
M  V30 2489 N 242.408 -1.52605 -0.393616 0
M  V30 2490 C 243.356 -1.77688 -1.50099 0
M  V30 2491 C 244.35 -0.644615 -1.56656 0
M  V30 2492 O 245.556 -0.826997 -1.59877 0
M  V30 2493 H 241.931 -0.562159 -0.499481 0
M  V30 2494 H 243.902 -2.7043 -1.26135 0
M  V30 2495 C 242.651 -1.95858 -2.87289 0
M  V30 2496 H 241.974 -2.8241 -2.82992 0
M  V30 2497 H 243.414 -2.174 -3.64024 0
M  V30 2498 C 241.873 -0.729848 -3.28899 0
M  V30 2499 O 242.403 0.0949217 -4.01588 0
M  V30 2500 N 240.609 -0.561283 -2.85128 0
M  V30 2501 H 240.156 -1.23357 -2.26143 0
M  V30 2502 H 240.114 0.2595 -3.13327 0
M  V30 2503 N 243.887 0.651787 -1.4349 0
M  V30 2504 C 244.819 1.77725 -1.44729 0
M  V30 2505 C 245.832 1.59141 -0.343231 0
M  V30 2506 O 247.021 1.67835 -0.607751 0
M  V30 2507 C 244.121 3.15172 -1.24579 0
M  V30 2508 C 243.294 3.60402 -2.47849 0
M  V30 2509 C 242.353 4.76656 -2.22902 0
M  V30 2510 O 241.379 4.86022 -2.96263 0
M  V30 2511 N 242.581 5.66958 -1.24656 0
M  V30 2512 H 245.346 1.77141 -2.41746 0
M  V30 2513 H 242.907 0.835678 -1.38665 0
M  V30 2514 H 244.899 3.90634 -1.0577 0
M  V30 2515 H 243.469 3.1052 -0.360015 0
M  V30 2516 H 242.689 2.75369 -2.82073 0
M  V30 2517 H 243.977 3.87368 -3.29884 0
M  V30 2518 H 243.375 5.62065 -0.640265 0
M  V30 2519 H 241.932 6.42135 -1.1183 0
M  V30 2520 N 245.365 1.30045 0.890287 0
M  V30 2521 C 246.595 1.21296 1.67245 0
M  V30 2522 C 247.003 -0.227471 1.87828 0
M  V30 2523 O 246.346 -1.16296 1.422 0
M  V30 2524 C 246.408 1.86519 3.07329 0
M  V30 2525 C 246.072 3.35837 3.09939 0
M  V30 2526 C 247.069 4.31915 2.89389 0
M  V30 2527 C 244.754 3.77196 3.31706 0
M  V30 2528 C 246.748 5.67325 2.90552 0
M  V30 2529 C 244.435 5.12725 3.32499 0
M  V30 2530 C 245.433 6.076 3.11947 0
M  V30 2531 O 245.121 7.40655 3.12547 0
M  V30 2532 H 244.853 0.4211 0.528821 0
M  V30 2533 H 247.407 1.72111 1.12103 0
M  V30 2534 H 245.637 1.30228 3.64112 0
M  V30 2535 H 247.326 1.71963 3.67673 0
M  V30 2536 H 248.092 4.01294 2.72375 0
M  V30 2537 H 243.971 3.03796 3.4674 0
M  V30 2538 H 247.515 6.41354 2.74429 0
M  V30 2539 H 243.412 5.42988 3.49047 0
M  V30 2540 H 244.18 7.49577 3.28749 0
M  V30 2541 N 246.843 -1.10192 1.12674 0
M  V30 2542 C 247.773 -2.18652 0.819362 0
M  V30 2543 C 248.754 -1.68698 -0.217915 0
M  V30 2544 O 249.939 -1.94041 -0.0785581 0
M  V30 2545 C 247.069 -3.46202 0.27594 0
M  V30 2546 C 246.023 -4.09444 1.24656 0
M  V30 2547 C 245.349 -5.31725 0.563258 0
M  V30 2548 C 246.649 -4.52863 2.60217 0
M  V30 2549 H 248.343 -2.44622 1.72628 0
M  V30 2550 H 245.889 -1.17571 0.831451 0
M  V30 2551 H 247.842 -4.21372 0.0486149 0
M  V30 2552 H 246.566 -3.1973 -0.666331 0
M  V30 2553 H 245.225 -3.36284 1.45974 0
M  V30 2554 H 244.873 -5.0153 -0.384235 0
M  V30 2555 H 244.573 -5.74991 1.21075 0
M  V30 2556 H 246.097 -6.09624 0.34503 0
M  V30 2557 H 247.511 -5.19294 2.42913 0
M  V30 2558 H 245.908 -5.06986 3.21068 0
M  V30 2559 H 246.978 -3.65656 3.18471 0
M  V30 2560 N 248.321 -0.919034 -1.28029 0
M  V30 2561 C 249.568 -0.554934 -1.94748 0
M  V30 2562 C 249.896 0.90231 -1.72304 0
M  V30 2563 O 249.151 1.65767 -1.04018 0
M  V30 2564 C 249.45 -0.816855 -3.4794 0
M  V30 2565 C 249.116 -2.25448 -3.90492 0
M  V30 2566 C 247.778 -2.64752 -4.01821 0
M  V30 2567 C 250.13 -3.18977 -4.12193 0
M  V30 2568 C 247.458 -3.96727 -4.32232 0
M  V30 2569 C 249.81 -4.50523 -4.44086 0
M  V30 2570 C 248.474 -4.89673 -4.53626 0
M  V30 2571 H 247.744 -0.203065 -0.712633 0
M  V30 2572 H 250.391 -1.16136 -1.52265 0
M  V30 2573 H 248.696 -0.127677 -3.91592 0
M  V30 2574 H 250.393 -0.514238 -3.97689 0
M  V30 2575 H 246.983 -1.93952 -3.82205 0
M  V30 2576 H 251.167 -2.89817 -4.02889 0
M  V30 2577 H 246.423 -4.26754 -4.37825 0
M  V30 2578 H 250.597 -5.23005 -4.59825 0
M  V30 2579 H 248.224 -5.91969 -4.76946 0
M  V30 2580 N 249.799 1.42003 -0.683588 0
M  V30 2581 C 250.747 2.326 0.000815408 0
M  V30 2582 C 251.741 1.50308 0.781278 0
M  V30 2583 O 252.947 1.66322 0.688251 0
M  V30 2584 H 249.322 0.751758 0.0190616 0
M  V30 2585 H 251.293 2.88011 -0.780528 0
M  V30 2586 C 250.042 3.34978 0.93195 0
M  V30 2587 H 249.365 3.98345 0.340817 0
M  V30 2588 H 250.805 4.00936 1.37936 0
M  V30 2589 C 249.264 2.67925 2.04249 0
M  V30 2590 O 249.794 2.51788 3.12995 0
M  V30 2591 N 248 2.2681 1.81675 0
M  V30 2592 H 247.547 2.40135 0.932363 0
M  V30 2593 H 247.505 1.8228 2.56167 0
M  V30 2594 N 251.277 0.427512 1.51691 0
M  V30 2595 C 252.505 -0.141191 2.06418 0
M  V30 2596 C 252.92 -1.37303 1.29589 0
M  V30 2597 O 252.277 -1.79059 0.352732 0
M  V30 2598 C 252.328 -0.473266 3.58389 0
M  V30 2599 O 252.049 0.709673 4.32314 0
M  V30 2600 C 253.55 -1.09371 4.29596 0
M  V30 2601 H 250.77 -0.0122747 0.670888 0
M  V30 2602 H 253.314 0.603764 1.95384 0
M  V30 2603 H 251.469 -1.16812 3.69369 0
M  V30 2604 H 251.883 0.42807 5.2275 0
M  V30 2605 H 253.357 -1.27613 5.37046 0
M  V30 2606 H 253.834 -2.072 3.87253 0
M  V30 2607 H 254.44 -0.43853 4.23033 0
M  V30 2608 N 252.755 -1.56801 0.158532 0
M  V30 2609 C 254.002 -1.9649 -0.489679 0
M  V30 2610 C 254.33 -1.04394 -1.6411 0
M  V30 2611 O 253.585 -0.0754401 -1.95555 0
M  V30 2612 C 253.884 -3.4235 -1.02623 0
M  V30 2613 C 253.55 -4.50899 0.00794526 0
M  V30 2614 C 252.212 -4.80312 0.292207 0
M  V30 2615 C 254.564 -5.16333 0.710584 0
M  V30 2616 C 251.892 -5.72461 1.28472 0
M  V30 2617 C 254.244 -6.09553 1.69199 0
M  V30 2618 C 252.908 -6.37339 1.98383 0
M  V30 2619 H 252.178 -0.719009 -0.179186 0
M  V30 2620 H 254.825 -1.8989 0.247798 0
M  V30 2621 H 253.13 -3.45838 -1.84128 0
M  V30 2622 H 254.827 -3.70393 -1.53656 0
M  V30 2623 H 251.417 -4.28015 -0.22379 0
M  V30 2624 H 255.601 -4.93732 0.504174 0
M  V30 2625 H 250.857 -5.92278 1.51714 0
M  V30 2626 H 255.031 -6.59327 2.24189 0
M  V30 2627 H 252.658 -7.08546 2.7544 0
M  V30 2628 N 254.233 0.115231 -1.57178 0
M  V30 2629 C 255.481 0.820727 -1.84685 0
M  V30 2630 C 255.802 1.80237 -0.744279 0
M  V30 2631 O 255.072 1.94529 0.231375 0
M  V30 2632 H 253.652 0.306084 -0.681411 0
M  V30 2633 H 256.314 0.101656 -1.94635 0
M  V30 2634 H 255.41 1.36366 -2.80733 0
M  V30 2635 N 255.711 1.52812 0.385517 0
M  V30 2636 C 256.957 1.69225 1.12847 0
M  V30 2637 C 257.312 0.42864 1.87564 0
M  V30 2638 O 256.605 -0.57779 1.8268 0
M  V30 2639 C 256.799 2.86856 2.13187 0
M  V30 2640 C 256.628 4.24535 1.48325 0
M  V30 2641 C 255.398 4.89701 1.24585 0
M  V30 2642 C 257.596 5.05794 0.931501 0
M  V30 2643 N 255.578 6.11353 0.558644 0
M  V30 2644 C 256.949 6.1888 0.372552 0
M  V30 2645 C 259.004 4.90963 0.828248 0
M  V30 2646 C 257.707 7.18757 -0.279556 0
M  V30 2647 C 259.733 5.91095 0.189956 0
M  V30 2648 C 259.095 7.03489 -0.358207 0
M  V30 2649 H 255.194 0.67268 0.39878 0
M  V30 2650 H 257.778 1.9017 0.417528 0
M  V30 2651 H 255.949 2.67484 2.81614 0
M  V30 2652 H 257.681 2.92188 2.80014 0
M  V30 2653 H 254.436 4.48485 1.52178 0
M  V30 2654 H 254.86 6.76606 0.230983 0
M  V30 2655 H 259.502 4.04274 1.23784 0
M  V30 2656 H 257.22 8.05052 -0.701152 0
M  V30 2657 H 260.806 5.81694 0.111264 0
M  V30 2658 H 259.686 7.79642 -0.844314 0
M  V30 2659 N 257.189 -0.644168 1.43834 0
M  V30 2660 C 258.136 -1.75671 1.49694 0
M  V30 2661 C 259.106 -1.6246 0.345809 0
M  V30 2662 O 260.291 -1.82573 0.554234 0
M  V30 2663 C 257.431 -3.13867 1.43463 0
M  V30 2664 C 256.544 -3.38147 2.6885 0
M  V30 2665 C 255.679 -4.66241 2.54544 0
M  V30 2666 C 254.718 -4.83657 3.75157 0
M  V30 2667 N 253.855 -6.03016 3.59605 0
M  V30 2668 H 258.695 -1.69998 2.44754 0
M  V30 2669 H 256.232 -0.829458 1.21484 0
M  V30 2670 H 258.19 -3.9377 1.37843 0
M  V30 2671 H 256.82 -3.18588 0.519783 0
M  V30 2672 H 255.872 -2.52276 2.84712 0
M  V30 2673 H 257.184 -3.46899 3.58417 0
M  V30 2674 H 256.338 -5.54285 2.46683 0
M  V30 2675 H 255.077 -4.59826 1.62516 0
M  V30 2676 H 254.082 -3.94046 3.83416 0
M  V30 2677 H 255.307 -4.91896 4.68204 0
M  V30 2678 H 253.253 -5.97715 2.7032 0
M  V30 2679 H 253.17 -6.12766 4.42779 0
M  V30 2680 H 254.438 -6.93657 3.55613 0
M  V30 2681 N 258.668 -1.30515 -0.883378 0
M  V30 2682 C 259.916 -1.19194 -1.63209 0
M  V30 2683 C 260.237 0.253205 -1.93349 0
M  V30 2684 O 259.507 1.17025 -1.57105 0
M  V30 2685 H 258.087 -0.438148 -0.605009 0
M  V30 2686 H 260.749 -1.63663 -1.05832 0
M  V30 2687 H 259.845 -1.75396 -2.58153 0
M  V30 2688 N 260.146 1.09593 -1.13257 0
M  V30 2689 C 261.371 1.8604 -0.916732 0
M  V30 2690 C 261.796 1.80504 0.529146 0
M  V30 2691 O 261.154 1.18127 1.37534 0
M  V30 2692 C 261.202 3.32017 -1.40703 0
M  V30 2693 O 260.306 4.08141 -0.591153 0
M  V30 2694 H 259.647 0.576943 -0.328683 0
M  V30 2695 H 262.177 1.38405 -1.50682 0
M  V30 2696 H 262.187 3.82865 -1.4099 0
M  V30 2697 H 260.862 3.35361 -2.45979 0
M  V30 2698 H 259.439 3.67084 -0.656005 0
M  V30 2699 N 261.624 0.925811 1.2754 0
M  V30 2700 C 262.871 0.565255 1.94451 0
M  V30 2701 C 263.199 -0.89316 1.7278 0
M  V30 2702 O 262.454 -1.65213 1.04895 0
M  V30 2703 C 262.753 0.835296 3.47502 0
M  V30 2704 C 262.419 2.27515 3.89291 0
M  V30 2705 C 261.081 2.66879 4.00411 0
M  V30 2706 C 263.433 3.21158 4.10496 0
M  V30 2707 C 260.761 3.99014 4.30122 0
M  V30 2708 C 263.113 4.52871 4.4169 0
M  V30 2709 C 261.777 4.92072 4.51023 0
M  V30 2710 H 261.047 0.206841 0.711546 0
M  V30 2711 H 263.694 1.16942 1.51647 0
M  V30 2712 H 261.999 0.148442 3.91519 0
M  V30 2713 H 263.696 0.535322 3.97411 0
M  V30 2714 H 260.286 1.95976 3.81171 0
M  V30 2715 H 264.47 2.9195 4.01346 0
M  V30 2716 H 259.726 4.2907 4.35556 0
M  V30 2717 H 263.9 5.25436 4.57045 0
M  V30 2718 H 261.527 5.9449 4.738 0
M  V30 2719 N 263.102 -1.41638 0.69111 0
M  V30 2720 C 264.032 -2.3347 0.037248 0
M  V30 2721 C 265.013 -1.51575 -0.771947 0
M  V30 2722 O 266.198 -1.80126 -0.72582 0
M  V30 2723 C 263.328 -3.35354 -0.903064 0
M  V30 2724 C 262.282 -4.27526 -0.201288 0
M  V30 2725 C 261.608 -5.19747 -1.25565 0
M  V30 2726 C 262.908 -5.13959 0.929689 0
M  V30 2727 H 264.602 -2.88397 0.804227 0
M  V30 2728 H 262.148 -1.38669 0.388189 0
M  V30 2729 H 264.101 -3.98519 -1.36969 0
M  V30 2730 H 262.825 -2.78767 -1.70166 0
M  V30 2731 H 261.484 -3.65779 0.245265 0
M  V30 2732 H 261.132 -4.59479 -2.04666 0
M  V30 2733 H 260.832 -5.8225 -0.791128 0
M  V30 2734 H 262.356 -5.85789 -1.72288 0
M  V30 2735 H 263.77 -5.70718 0.543546 0
M  V30 2736 H 262.167 -5.85379 1.32103 0
M  V30 2737 H 263.237 -4.51389 1.77133 0
M  V30 2738 N 264.58 -0.43555 -1.51462 0
M  V30 2739 C 265.829 0.133007 -2.01261 0
M  V30 2740 C 266.142 1.43942 -1.32439 0
M  V30 2741 O 267.348 2.09081 -1.73198 0
M  V30 2742 C 265.804 0.287581 -3.58749 0
M  V30 2743 C 265.412 -1.00829 -4.36506 0
M  V30 2744 C 267.156 0.810004 -4.167 0
M  V30 2745 C 265.063 -0.819454 -5.85695 0
M  V30 2746 H 263.993 0.0534822 -0.752101 0
M  V30 2747 H 266.644 -0.565038 -1.74584 0
M  V30 2748 H 265.026 1.04859 -3.81865 0
M  V30 2749 H 266.2 -1.77749 -4.25138 0
M  V30 2750 H 264.515 -1.45911 -3.89999 0
M  V30 2751 H 267.112 0.967743 -5.2587 0
M  V30 2752 H 267.455 1.79196 -3.75758 0
M  V30 2753 H 267.988 0.107357 -3.97655 0
M  V30 2754 H 264.727 -1.77374 -6.31046 0
M  V30 2755 H 264.247 -0.0900208 -5.99732 0
M  V30 2756 H 265.926 -0.471949 -6.45276 0
M  V30 2757 N 266.058 1.56714 -0.166846 0
M  V30 2758 C 266.988 2.20754 0.760913 0
M  V30 2759 C 267.969 1.16178 1.24244 0
M  V30 2760 O 269.154 1.44592 1.29641 0
M  V30 2761 C 266.284 2.84478 1.99223 0
M  V30 2762 C 265.238 3.95053 1.64672 0
M  V30 2763 C 264.564 4.45805 2.95232 0
M  V30 2764 C 265.864 5.14865 0.878155 0
M  V30 2765 H 267.558 2.98537 0.22713 0
M  V30 2766 H 265.104 1.43596 0.107805 0
M  V30 2767 H 267.057 3.27951 2.64624 0
M  V30 2768 H 265.781 2.04056 2.55007 0
M  V30 2769 H 264.44 3.52228 1.01641 0
M  V30 2770 H 264.088 3.62181 3.49047 0
M  V30 2771 H 263.788 5.204 2.7287 0
M  V30 2772 H 265.312 4.91962 3.6167 0
M  V30 2773 H 266.726 5.55059 1.43466 0
M  V30 2774 H 265.123 5.95348 0.753738 0
M  V30 2775 H 266.193 4.84735 -0.126377 0
M  V30 2776 N 267.536 -0.106894 1.57237 0
M  V30 2777 C 268.784 -0.810921 1.85117 0
M  V30 2778 C 269.105 -1.7984 0.753827 0
M  V30 2779 O 268.375 -1.94649 -0.221056 0
M  V30 2780 H 266.955 -0.302466 0.683025 0
M  V30 2781 H 269.617 -0.0913324 1.94686 0
M  V30 2782 H 268.713 -1.34875 2.81452 0
M  V30 2783 N 269.014 -1.53014 -0.377408 0
M  V30 2784 C 270.239 -1.72818 -1.14668 0
M  V30 2785 C 270.664 -0.450725 -1.8262 0
M  V30 2786 O 270.022 0.59439 -1.7128 0
M  V30 2787 C 270.07 -2.88627 -2.16164 0
M  V30 2788 O 269.174 -2.56409 -3.22998 0
M  V30 2789 H 268.515 -0.574301 -0.333278 0
M  V30 2790 H 271.045 -1.99853 -0.438152 0
M  V30 2791 H 271.055 -3.14455 -2.59966 0
M  V30 2792 H 269.73 -3.81294 -1.66095 0
M  V30 2793 H 268.307 -2.4136 -2.84253 0
M  V30 2794 N 270.492 0.636531 -1.44174 0
M  V30 2795 C 271.422 1.76003 -1.53444 0
M  V30 2796 C 272.403 1.65619 -0.387841 0
M  V30 2797 O 273.588 1.84461 -0.607257 0
M  V30 2798 C 270.718 3.14511 -1.4731 0
M  V30 2799 C 269.672 3.39677 -2.60391 0
M  V30 2800 C 268.998 4.78159 -2.39308 0
M  V30 2801 C 270.298 3.32772 -4.02567 0
M  V30 2802 H 271.992 1.68501 -2.47483 0
M  V30 2803 H 269.538 0.809237 -1.19111 0
M  V30 2804 H 271.491 3.92878 -1.52397 0
M  V30 2805 H 270.215 3.22783 -0.49785 0
M  V30 2806 H 268.874 2.63688 -2.54684 0
M  V30 2807 H 268.522 4.83128 -1.39988 0
M  V30 2808 H 268.222 4.95956 -3.15122 0
M  V30 2809 H 269.746 5.58762 -2.46205 0
M  V30 2810 H 271.16 4.01051 -4.09672 0
M  V30 2811 H 269.557 3.62104 -4.7854 0
M  V30 2812 H 270.627 2.30669 -4.2652 0
M  V30 2813 N 271.97 1.30982 0.876444 0
M  V30 2814 C 272.9 1.20668 1.99903 0
M  V30 2815 C 273.881 0.095354 1.69833 0
M  V30 2816 O 275.066 0.27885 1.92188 0
M  V30 2817 C 272.196 0.90655 3.3526 0
M  V30 2818 C 271.15 1.97675 3.79617 0
M  V30 2819 C 270.476 1.52943 5.1236 0
M  V30 2820 C 271.776 3.389 3.97422 0
M  V30 2821 H 273.47 2.14586 2.0879 0
M  V30 2822 H 271.016 1.03308 1.00317 0
M  V30 2823 H 272.969 0.821025 4.13324 0
M  V30 2824 H 271.693 -0.0682969 3.26529 0
M  V30 2825 H 270.352 2.05205 3.03787 0
M  V30 2826 H 270 0.54262 5.00065 0
M  V30 2827 H 269.7 2.24532 5.43009 0
M  V30 2828 H 271.224 1.45786 5.92941 0
M  V30 2829 H 272.638 3.34081 4.659 0
M  V30 2830 H 271.035 4.0865 4.3946 0
M  V30 2831 H 272.105 3.80163 3.01006 0
M  V30 2832 N 273.449 -1.08991 1.13837 0
M  V30 2833 C 274.379 -2.17771 0.842507 0
M  V30 2834 C 275.36 -1.6892 -0.20001 0
M  V30 2835 O 276.545 -1.94113 -0.0579731 0
M  V30 2836 C 273.675 -3.4589 0.312644 0
M  V30 2837 C 272.629 -4.08099 1.28992 0
M  V30 2838 C 271.955 -5.31098 0.619623 0
M  V30 2839 C 273.255 -4.50077 2.65005 0
M  V30 2840 H 274.949 -2.42777 1.75213 0
M  V30 2841 H 272.495 -1.16682 0.843875 0
M  V30 2842 H 274.448 -4.21297 0.0933043 0
M  V30 2843 H 273.172 -3.20419 -0.632382 0
M  V30 2844 H 271.831 -3.34717 1.49533 0
M  V30 2845 H 271.479 -5.0191 -0.33102 0
M  V30 2846 H 271.179 -5.73674 1.27167 0
M  V30 2847 H 272.703 -6.09224 0.409669 0
M  V30 2848 H 274.117 -5.16688 2.48407 0
M  V30 2849 H 272.514 -5.03553 3.26427 0
M  V30 2850 H 273.584 -3.62257 3.22332 0
M  V30 2851 N 274.927 -0.932562 -1.27047 0
M  V30 2852 C 275.875 -0.42603 -2.28665 0
M  V30 2853 C 276.869 0.49219 -1.62092 0
M  V30 2854 O 278.075 0.371355 -1.76128 0
M  V30 2855 H 274.45 -0.119213 -0.742491 0
M  V30 2856 H 276.421 -1.29579 -2.68797 0
M  V30 2857 C 275.17 0.301426 -3.46391 0
M  V30 2858 H 274.493 -0.39595 -3.97834 0
M  V30 2859 H 275.933 0.6202 -4.1944 0
M  V30 2860 C 274.392 1.51616 -3.00856 0
M  V30 2861 O 274.922 2.61476 -3.04948 0
M  V30 2862 N 273.128 1.36969 -2.56296 0
M  V30 2863 H 272.675 0.475873 -2.53166 0
M  V30 2864 H 272.633 2.18368 -2.26192 0
M  V30 2865 N 276.405 1.4127 -0.698611 0
M  V30 2866 C 277.368 2.29158 -0.044132 0
M  V30 2867 C 278.368 1.44529 0.704841 0
M  V30 2868 O 279.558 1.65643 0.539276 0
M  V30 2869 C 276.69 3.27459 0.947809 0
M  V30 2870 H 277.883 2.88529 -0.817994 0
M  V30 2871 H 275.436 1.49307 -0.46228 0
M  V30 2872 H 276.171 2.73073 1.74933 0
M  V30 2873 H 275.956 3.8991 0.41385 0
M  V30 2874 H 277.446 3.93311 1.40344 0
M  V30 2875 N 277.883 0.443576 1.51229 0
M  V30 2876 C 279.123 -0.119889 2.04048 0
M  V30 2877 C 279.487 -1.39418 1.32009 0
M  V30 2878 O 280.688 -2.03829 1.75235 0
M  V30 2879 C 278.959 -0.327233 3.55899 0
M  V30 2880 S 280.518 -0.853208 4.30425 0
M  V30 2881 H 277.336 -0.028921 0.710412 0
M  V30 2882 H 279.938 0.604413 1.85922 0
M  V30 2883 H 278.642 0.606445 4.05895 0
M  V30 2884 H 278.173 -1.07844 3.7833 0
M  V30 2885 H 280.188 -2.13005 4.48155 0
M  V30 2886 N 279.361 -1.56624 0.175154 0
M  V30 2887 C 280.607 -1.9729 -0.469506 0
M  V30 2888 C 280.94 -1.06128 -1.62636 0
M  V30 2889 O 280.215 -0.109183 -1.94193 0
M  V30 2890 C 280.498 -3.47375 -0.948804 0
M  V30 2891 C 280.351 -4.49317 0.208491 0
M  V30 2892 C 281.67 -4.00652 -1.82116 0
M  V30 2893 H 278.789 -0.717317 -0.16919 0
M  V30 2894 H 281.431 -1.88184 0.262062 0
M  V30 2895 H 279.581 -3.55267 -1.57219 0
M  V30 2896 H 281.253 -4.53482 0.845682 0
M  V30 2897 H 279.496 -4.25121 0.863395 0
M  V30 2898 H 280.167 -5.51741 -0.169059 0
M  V30 2899 H 282.643 -3.95416 -1.2956 0
M  V30 2900 H 281.519 -5.06075 -2.12554 0
M  V30 2901 H 281.78 -3.44699 -2.7683 0
M  V30 2902 N 280.839 0.0985539 -1.57292 0
M  V30 2903 C 281.802 1.10402 -2.00858 0
M  V30 2904 C 282.802 1.33146 -0.901593 0
M  V30 2905 O 283.992 1.29318 -1.16716 0
M  V30 2906 C 281.124 2.45394 -2.36632 0
M  V30 2907 H 282.317 0.729099 -2.90902 0
M  V30 2908 H 279.87 0.343495 -1.52479 0
M  V30 2909 H 280.605 2.87769 -1.49531 0
M  V30 2910 H 280.39 2.30235 -3.17387 0
M  V30 2911 H 281.88 3.17718 -2.71007 0
M  V30 2912 N 282.317 1.53212 0.369288 0
M  V30 2913 C 283.565 1.68881 1.11012 0
M  V30 2914 C 283.886 0.441285 1.89941 0
M  V30 2915 O 283.156 -0.544623 1.88177 0
M  V30 2916 H 281.736 0.622569 0.412816 0
M  V30 2917 H 284.398 1.90391 0.416802 0
M  V30 2918 H 283.494 2.54822 1.80201 0
M  V30 2919 N 283.795 -0.628877 1.44509 0
M  V30 2920 C 285.02 -1.42048 1.5112 0
M  V30 2921 C 285.445 -1.87594 0.137818 0
M  V30 2922 O 284.803 -1.58873 -0.873437 0
M  V30 2923 C 284.851 -2.61541 2.48251 0
M  V30 2924 O 283.955 -3.61453 1.98559 0
M  V30 2925 H 283.296 -0.424942 0.510216 0
M  V30 2926 H 285.826 -0.767374 1.89664 0
M  V30 2927 H 285.836 -3.09057 2.66361 0
M  V30 2928 H 284.511 -2.27736 3.48007 0
M  V30 2929 H 283.088 -3.20731 1.90227 0
M  V30 2930 N 285.273 -1.31445 -0.869486 0
M  V30 2931 C 286.203 -1.21727 -1.99261 0
M  V30 2932 C 287.184 -0.104359 -1.6978 0
M  V30 2933 O 288.369 -0.289038 -1.92037 0
M  V30 2934 C 285.499 -0.924317 -3.34774 0
M  V30 2935 C 284.453 -1.99685 -3.78563 0
M  V30 2936 C 283.779 -1.55658 -5.11541 0
M  V30 2937 C 285.079 -3.41003 -3.95619 0
M  V30 2938 H 286.773 -2.1569 -2.07649 0
M  V30 2939 H 284.319 -1.03839 -0.997675 0
M  V30 2940 H 286.272 -0.842934 -4.12883 0
M  V30 2941 H 284.996 0.0509793 -3.2656 0
M  V30 2942 H 283.655 -2.06813 -3.02694 0
M  V30 2943 H 283.303 -0.569132 -4.9977 0
M  V30 2944 H 283.003 -2.27409 -5.41811 0
M  V30 2945 H 284.527 -1.48928 -5.92159 0
M  V30 2946 H 285.941 -3.36547 -4.64122 0
M  V30 2947 H 284.338 -4.10975 -4.37286 0
M  V30 2948 H 285.408 -3.81754 -2.98985 0
M  V30 2949 N 286.751 1.08385 -1.14413 0
M  V30 2950 C 287.684 2.14642 -0.774871 0
M  V30 2951 C 288.662 1.60761 0.243876 0
M  V30 2952 O 289.846 1.88031 0.132883 0
M  V30 2953 C 286.973 3.38366 -0.150491 0
M  V30 2954 C 286.019 4.10997 -1.13945 0
M  V30 2955 S 286.852 4.63797 -2.67679 0
M  V30 2956 C 288.008 5.90808 -2.06631 0
M  V30 2957 H 288.241 2.45633 -1.67487 0
M  V30 2958 H 285.774 1.20498 -0.96538 0
M  V30 2959 H 287.732 4.09996 0.203334 0
M  V30 2960 H 286.393 3.05572 0.72694 0
M  V30 2961 H 285.586 4.99783 -0.65059 0
M  V30 2962 H 285.188 3.4528 -1.43727 0
M  V30 2963 H 287.48 6.62411 -1.4219 0
M  V30 2964 H 288.423 6.4439 -2.93542 0
M  V30 2965 H 288.831 5.4383 -1.51357 0
M  V30 2966 N 288.23 0.939286 1.26551 0
M  V30 2967 C 289.646 0.641304 1.46149 0
M  V30 2968 C 289.846 -0.805964 1.84679 0
M  V30 2969 O 288.902 -1.58278 1.96734 0
M  V30 2970 C 290.215 1.6011 2.54529 0
M  V30 2971 C 291.763 1.6106 2.68382 0
M  V30 2972 C 292.238 2.55765 3.79932 0
M  V30 2973 N 293.729 2.5404 3.87322 0
M  V30 2974 C 294.464 3.24004 4.73085 0
M  V30 2975 N 293.96 4.03388 5.63249 0
M  V30 2976 N 295.753 3.12965 4.66914 0
M  V30 2977 H 287.904 1.87478 0.998285 0
M  V30 2978 H 290.167 0.805559 0.499779 0
M  V30 2979 H 289.873 2.63412 2.33039 0
M  V30 2980 H 289.747 1.35171 3.52149 0
M  V30 2981 H 292.134 0.584835 2.89247 0
M  V30 2982 H 292.215 1.90053 1.71212 0
M  V30 2983 H 291.859 3.58458 3.5982 0
M  V30 2984 H 291.789 2.24063 4.76554 0
M  V30 2985 H 294.28 1.96396 3.22858 0
M  V30 2986 H 294.593 4.5373 6.25579 0
M  V30 2987 H 292.938 4.07489 5.63008 0
M  V30 2988 H 296.129 2.50432 3.95476 0
M  V30 2989 H 296.302 3.67759 5.33533 0
M  V30 2990 N 289.708 -1.40897 0.706093 0
M  V30 2991 C 291.119 -1.84023 0.315052 0
M  V30 2992 C 291.47 -1.5906 -1.14866 0
M  V30 2993 O 290.595 -1.06651 -1.88293 0
M  V30 2994 C 291.19 -3.34055 0.565038 0
M  V30 2995 C 289.749 -3.7571 0.227806 0
M  V30 2996 C 288.896 -2.64204 0.842122 0
M  V30 2997 H 291.847 -1.303 0.905963 0
M  V30 2998 H 291.868 -3.80107 -0.172843 0
M  V30 2999 H 291.38 -3.52192 1.63042 0
M  V30 3000 H 289.481 -3.63172 -0.832895 0
M  V30 3001 H 289.594 -4.74103 0.690174 0
M  V30 3002 H 287.958 -2.53255 0.270893 0
M  V30 3003 H 288.741 -2.85155 1.91158 0
M  V30 3004 N 291.186 -0.45159 -1.50991 0
M  V30 3005 C 292.116 0.342898 -2.30969 0
M  V30 3006 C 293.097 1.00815 -1.37005 0
M  V30 3007 O 294.282 1.00907 -1.65926 0
M  V30 3008 C 291.412 1.43637 -3.16205 0
M  V30 3009 C 290.366 0.893818 -4.18563 0
M  V30 3010 C 289.692 2.08411 -4.92411 0
M  V30 3011 C 290.992 -0.0815568 -5.22236 0
M  V30 3012 H 292.686 -0.324556 -2.97636 0
M  V30 3013 H 290.232 -0.157531 -1.43136 0
M  V30 3014 H 292.185 1.9995 -3.70942 0
M  V30 3015 H 290.909 2.13232 -2.47386 0
M  V30 3016 H 289.568 0.352798 -3.64898 0
M  V30 3017 H 289.216 2.76658 -4.20082 0
M  V30 3018 H 288.916 1.72741 -5.61636 0
M  V30 3019 H 290.44 2.65251 -5.49976 0
M  V30 3020 H 291.854 0.391742 -5.7196 0
M  V30 3021 H 290.251 -0.351551 -5.99069 0
M  V30 3022 H 291.321 -1.01374 -4.74185 0
M  V30 3023 N 292.664 1.56529 -0.183458 0
M  V30 3024 C 293.912 1.96855 0.457452 0
M  V30 3025 C 294.233 1.07104 1.62953 0
M  V30 3026 O 293.503 0.139887 1.954 0
M  V30 3027 H 292.083 0.72693 0.171992 0
M  V30 3028 H 294.745 1.93056 -0.267476 0
M  V30 3029 H 293.841 3.01423 0.809368 0
M  V30 3030 N 294.142 -0.090211 1.57342 0
M  V30 3031 C 295.553 -0.644173 1.75235 0
M  V30 3032 C 295.904 -1.78865 0.806335 0
M  V30 3033 O 295.029 -2.16395 -0.0140128 0
M  V30 3034 C 295.624 -1.17532 3.1776 0
M  V30 3035 C 294.183 -1.67531 3.37061 0
M  V30 3036 C 293.33 -0.58693 2.71017 0
M  V30 3037 H 296.281 0.135884 1.58117 0
M  V30 3038 H 296.302 -2.04455 3.20902 0
M  V30 3039 H 295.814 -0.342138 3.86589 0
M  V30 3040 H 293.915 -2.53234 2.73319 0
M  V30 3041 H 294.028 -1.76493 4.45406 0
M  V30 3042 H 292.392 -1.02756 2.33052 0
M  V30 3043 H 293.175 0.235758 3.4249 0
M  V30 3044 N 295.62 -1.53406 -0.361157 0
M  V30 3045 C 296.568 -1.80832 -1.46296 0
M  V30 3046 C 297.562 -0.677699 -1.55253 0
M  V30 3047 O 298.768 -0.860723 -1.58087 0
M  V30 3048 H 295.143 -0.572627 -0.487445 0
M  V30 3049 H 297.114 -2.73045 -1.20371 0
M  V30 3050 C 295.863 -2.01907 -2.8307 0
M  V30 3051 H 295.186 -2.88349 -2.76938 0
M  V30 3052 H 296.626 -2.25072 -3.59331 0
M  V30 3053 C 295.085 -0.799449 -3.27277 0
M  V30 3054 O 295.615 0.00971761 -4.01699 0
M  V30 3055 N 293.821 -0.621637 -2.83873 0
M  V30 3056 H 293.368 -1.28126 -2.23476 0
M  V30 3057 H 293.326 0.19298 -3.13807 0
M  V30 3058 N 297.098 0.621204 -1.44841 0
M  V30 3059 C 298.03 1.74615 -1.48466 0
M  V30 3060 C 299.043 1.58377 -0.37691 0
M  V30 3061 O 300.232 1.66508 -0.643215 0
M  V30 3062 C 297.332 3.12459 -1.31236 0
M  V30 3063 C 296.505 3.55064 -2.55438 0
M  V30 3064 C 295.564 4.71821 -2.32963 0
M  V30 3065 O 294.59 4.79628 -3.06505 0
M  V30 3066 N 295.792 5.64186 -1.36654 0
M  V30 3067 H 298.557 1.71973 -2.45449 0
M  V30 3068 H 296.118 0.806077 -1.40407 0
M  V30 3069 H 298.11 3.88302 -1.14032 0
M  V30 3070 H 296.68 3.09686 -0.4258 0
M  V30 3071 H 295.9 2.69324 -2.87851 0
M  V30 3072 H 297.188 3.80284 -3.38026 0
M  V30 3073 H 296.586 5.6058 -0.759344 0
M  V30 3074 H 295.143 6.39618 -1.25425 0
M  V30 3075 N 298.576 1.31904 0.862503 0
M  V30 3076 C 299.804 1.24998 1.64873 0
M  V30 3077 C 300.219 -0.183425 1.87907 0
M  V30 3078 O 299.576 -1.11794 1.44251 0
M  V30 3079 C 299.627 1.99829 3.01248 0
M  V30 3080 O 299.348 3.37575 2.79239 0
M  V30 3081 C 300.849 1.99852 3.95694 0
M  V30 3082 H 298.069 0.431599 0.513773 0
M  V30 3083 H 300.613 1.73901 1.07604 0
M  V30 3084 H 298.768 1.54668 3.55185 0
M  V30 3085 H 299.182 3.75776 3.65914 0
M  V30 3086 H 300.656 2.56709 4.88676 0
M  V30 3087 H 301.133 0.982852 4.28062 0
M  V30 3088 H 301.739 2.44926 3.47694 0
M  V30 3089 N 300.054 -1.07777 1.14986 0
M  V30 3090 C 301.282 -1.84018 0.945773 0
M  V30 3091 C 301.697 -1.81897 -0.505863 0
M  V30 3092 O 301.054 -1.22726 -1.35072 0
M  V30 3093 C 301.105 -3.31287 1.44677 0
M  V30 3094 O 300.826 -3.33449 2.84154 0
M  V30 3095 C 302.327 -4.24311 1.28355 0
M  V30 3096 H 299.547 -0.580716 0.336169 0
M  V30 3097 H 302.091 -1.36077 1.52654 0
M  V30 3098 H 300.246 -3.76594 0.908625 0
M  V30 3099 H 300.66 -4.25427 3.06777 0
M  V30 3100 H 302.134 -5.2573 1.68261 0
M  V30 3101 H 302.611 -4.38612 0.227184 0
M  V30 3102 H 303.217 -3.84836 1.81056 0
M  V30 3103 N 301.532 -0.945985 -1.26051 0
M  V30 3104 C 302.757 -0.612525 -1.98149 0
M  V30 3105 C 303.182 0.806623 -1.69927 0
M  V30 3106 O 302.54 1.54411 -0.950108 0
M  V30 3107 C 302.588 -0.866981 -3.50023 0
M  V30 3108 O 301.692 0.0585333 -4.12358 0
M  V30 3109 H 301.033 -0.23379 -0.621481 0
M  V30 3110 H 303.563 -1.27023 -1.60395 0
M  V30 3111 H 303.573 -0.789792 -4.00283 0
M  V30 3112 H 302.248 -1.90135 -3.69894 0
M  V30 3113 H 300.825 -0.0701241 -3.72834 0
M  V30 3114 N 303.011 1.40521 -0.713556 0
M  V30 3115 C 303.958 2.30723 -0.059684 0
M  V30 3116 C 304.928 1.48079 0.752448 0
M  V30 3117 O 306.113 1.76823 0.71681 0
M  V30 3118 C 303.253 3.34274 0.857594 0
M  V30 3119 C 302.366 4.31986 0.0351536 0
M  V30 3120 C 301.501 5.22605 0.951724 0
M  V30 3121 C 300.54 6.11976 0.123253 0
M  V30 3122 N 299.677 6.9502 0.99459 0
M  V30 3123 H 304.517 2.86074 -0.834596 0
M  V30 3124 H 302.054 1.40879 -0.42326 0
M  V30 3125 H 304.012 3.92879 1.40364 0
M  V30 3126 H 302.642 2.8043 1.59871 0
M  V30 3127 H 301.694 3.7518 -0.628052 0
M  V30 3128 H 303.006 4.95101 -0.606347 0
M  V30 3129 H 302.16 5.86131 1.56638 0
M  V30 3130 H 300.899 4.59759 1.62705 0
M  V30 3131 H 299.904 5.47482 -0.50435 0
M  V30 3132 H 301.129 6.76881 -0.548539 0
M  V30 3133 H 299.075 6.34764 1.6556 0
M  V30 3134 H 298.992 7.54892 0.40908 0
M  V30 3135 H 300.26 7.62997 1.59549 0
M  V30 3136 N 304.489 0.459591 1.5075 0
M  V30 3137 C 305.714 -0.0996819 2.0716 0
M  V30 3138 C 306.139 -1.33761 1.32249 0
M  V30 3139 O 305.497 -1.77551 0.366786 0
M  V30 3140 C 305.545 -0.378226 3.58611 0
M  V30 3141 O 304.649 -1.46081 3.85661 0
M  V30 3142 H 303.99 0.00791392 0.663953 0
M  V30 3143 H 306.52 0.647329 1.9409 0
M  V30 3144 H 306.53 -0.622135 4.03229 0
M  V30 3145 H 305.205 0.526439 4.12555 0
M  V30 3146 H 303.782 -1.20511 3.5289 0
M  V30 3147 N 305.967 -1.56429 0.191757 0
M  V30 3148 C 306.914 -2.18936 -0.730454 0
M  V30 3149 C 307.884 -1.13557 -1.21219 0
M  V30 3150 O 309.069 -1.41794 -1.27668 0
M  V30 3151 C 306.209 -2.85013 -1.9458 0
M  V30 3152 C 305.322 -4.04909 -1.50574 0
M  V30 3153 C 304.457 -4.58853 -2.67634 0
M  V30 3154 C 303.496 -5.71114 -2.20217 0
M  V30 3155 N 302.633 -6.19478 -3.30442 0
M  V30 3156 H 307.473 -2.97389 -0.190664 0
M  V30 3157 H 305.01 -1.46869 -0.0823694 0
M  V30 3158 H 306.968 -3.21492 -2.65893 0
M  V30 3159 H 305.598 -2.09129 -2.45896 0
M  V30 3160 H 304.65 -3.74115 -0.688605 0
M  V30 3161 H 305.962 -4.86113 -1.11784 0
M  V30 3162 H 305.116 -4.97619 -3.47074 0
M  V30 3163 H 303.855 -3.76749 -3.09696 0
M  V30 3164 H 302.86 -5.31879 -1.3923 0
M  V30 3165 H 304.085 -6.55033 -1.79189 0
M  V30 3166 H 302.031 -5.40297 -3.72041 0
M  V30 3167 H 301.948 -6.95725 -2.9581 0
M  V30 3168 H 303.216 -6.62898 -4.10106 0
M  V30 3169 N 307.445 0.0818655 -1.57387 0
M  V30 3170 C 308.393 1.11712 -2.04018 0
M  V30 3171 C 309.387 1.40683 -0.94364 0
M  V30 3172 O 310.593 1.40209 -1.12878 0
M  V30 3173 H 306.968 0.377542 -0.650358 0
M  V30 3174 H 308.939 0.697614 -2.90131 0
M  V30 3175 C 307.688 2.42537 -2.49141 0
M  V30 3176 H 307.011 2.21092 -3.33104 0
M  V30 3177 H 308.451 3.13446 -2.85531 0
M  V30 3178 C 306.91 3.0778 -1.37014 0
M  V30 3179 O 307.44 3.95436 -0.706621 0
M  V30 3180 N 305.646 2.68242 -1.11779 0
M  V30 3181 H 305.193 1.97052 -1.65917 0
M  V30 3182 H 305.151 3.1222 -0.369594 0
M  V30 3183 N 308.923 1.53595 0.353017 0
M  V30 3184 C 309.87 1.80919 1.43308 0
M  V30 3185 C 310.84 0.654288 1.5267 0
M  V30 3186 O 312.025 0.897759 1.6836 0
M  V30 3187 C 309.165 2.01605 2.80089 0
M  V30 3188 C 308.278 3.29321 2.79593 0
M  V30 3189 C 307.413 3.40125 4.0803 0
M  V30 3190 C 306.452 4.61826 4.01725 0
M  V30 3191 N 305.589 4.69716 5.21834 0
M  V30 3192 H 310.429 2.73074 1.19308 0
M  V30 3193 H 307.966 1.35263 0.578131 0
M  V30 3194 H 309.924 2.11586 3.59565 0
M  V30 3195 H 308.554 1.12772 3.0246 0
M  V30 3196 H 307.606 3.28229 1.92276 0
M  V30 3197 H 308.918 4.18884 2.70809 0
M  V30 3198 H 308.072 3.49488 4.95927 0
M  V30 3199 H 306.811 2.48601 4.19582 0
M  V30 3200 H 305.816 4.52552 3.12213 0
M  V30 3201 H 307.041 5.54705 3.91764 0
M  V30 3202 H 304.987 3.81097 5.33948 0
M  V30 3203 H 304.904 5.53202 5.1527 0
M  V30 3204 H 306.172 4.83376 6.11529 0
M  V30 3205 N 310.401 -0.613514 1.45168 0
M  V30 3206 C 311.629 -1.39946 1.5239 0
M  V30 3207 C 312.044 -1.88167 0.154531 0
M  V30 3208 O 311.401 -1.61872 -0.842843 0
M  V30 3209 C 311.452 -2.60795 2.50337 0
M  V30 3210 O 311.173 -2.1458 3.81952 0
M  V30 3211 C 312.674 -3.53723 2.67198 0
M  V30 3212 H 309.894 -0.428593 0.516284 0
M  V30 3213 H 312.438 -0.748753 1.903 0
M  V30 3214 H 310.593 -3.21919 2.15515 0
M  V30 3215 H 311.007 -2.93055 4.34993 0
M  V30 3216 H 312.481 -4.35079 3.39721 0
M  V30 3217 H 312.958 -4.0368 1.73029 0
M  V30 3218 H 313.564 -2.98456 3.02992 0
M  V30 3219 N 311.879 -1.3236 -0.855495 0
M  V30 3220 C 313.127 -1.22629 -1.60644 0
M  V30 3221 C 313.448 0.212136 -1.93843 0
M  V30 3222 O 312.718 1.13666 -1.59552 0
M  V30 3223 H 311.298 -0.450882 -0.595579 0
M  V30 3224 H 313.96 -1.65871 -1.02337 0
M  V30 3225 H 313.056 -1.80832 -2.54374 0
M  V30 3226 N 313.357 1.07166 -1.15556 0
M  V30 3227 C 314.304 2.14417 -0.854055 0
M  V30 3228 C 315.274 1.64965 0.193806 0
M  V30 3229 O 316.459 1.90703 0.0609443 0
M  V30 3230 C 313.599 3.43304 -0.351574 0
M  V30 3231 C 312.712 4.06537 -1.46123 0
M  V30 3232 C 311.847 5.23266 -0.914677 0
M  V30 3233 C 310.886 5.78464 -2.00114 0
M  V30 3234 N 310.023 6.86521 -1.47083 0
M  V30 3235 H 314.863 2.39548 -1.77259 0
M  V30 3236 H 312.4 1.17543 -0.884425 0
M  V30 3237 H 314.358 4.17179 -0.0419409 0
M  V30 3238 H 312.988 3.18419 0.530037 0
M  V30 3239 H 312.04 3.30297 -1.88701 0
M  V30 3240 H 313.352 4.43567 -2.28144 0
M  V30 3241 H 312.506 6.04131 -0.557698 0
M  V30 3242 H 311.245 4.87658 -0.0636583 0
M  V30 3243 H 310.25 4.96243 -2.36692 0
M  V30 3244 H 311.475 6.16126 -2.85597 0
M  V30 3245 H 309.421 6.52849 -0.642198 0
M  V30 3246 H 309.338 7.22446 -2.22729 0
M  V30 3247 H 310.606 7.71087 -1.14215 0
M  V30 3248 N 314.835 0.952656 1.25548 0
M  V30 3249 C 316.063 0.623496 1.97282 0
M  V30 3250 C 316.478 -0.803987 1.70826 0
M  V30 3251 O 315.835 -1.53755 0.983147 0
M  V30 3252 C 315.886 0.870209 3.5087 0
M  V30 3253 O 315.607 2.24156 3.76412 0
M  V30 3254 C 317.108 0.553164 4.39835 0
M  V30 3255 H 314.328 0.233931 0.628902 0
M  V30 3256 H 316.872 1.27649 1.59768 0
M  V30 3257 H 315.027 0.263652 3.86502 0
M  V30 3258 H 315.441 2.31021 4.70882 0
M  V30 3259 H 316.915 0.776342 5.46513 0
M  V30 3260 H 317.392 -0.512215 4.36203 0
M  V30 3261 H 317.998 1.13896 4.09766 0
M  V30 3262 N 316.313 -1.40141 0.720998 0
M  V30 3263 C 317.223 -2.34486 0.0731031 0
M  V30 3264 C 318.239 -1.57587 -0.737723 0
M  V30 3265 O 319.415 -1.89949 -0.669429 0
M  V30 3266 C 316.48 -3.36528 -0.833656 0
M  V30 3267 C 315.541 -4.29298 -0.0121673 0
M  V30 3268 C 314.774 -5.26466 -0.875742 0
M  V30 3269 O 314.997 -5.29745 -2.11485 0
M  V30 3270 O 313.931 -6.01092 -0.31185 0
M  V30 3271 H 317.757 -2.9152 0.851444 0
M  V30 3272 H 315.342 -1.41427 0.481527 0
M  V30 3273 H 317.224 -3.99093 -1.35289 0
M  V30 3274 H 315.899 -2.81899 -1.59105 0
M  V30 3275 H 314.806 -3.70001 0.552262 0
M  V30 3276 H 316.139 -4.87094 0.707129 0
M  V30 3277 N 317.792 -0.46758 -1.50504 0
M  V30 3278 C 319.069 0.15003 -1.95024 0
M  V30 3279 C 319.449 1.57304 -1.40779 0
M  V30 3280 O 318.797 2.20281 -0.607319 0
M  V30 3281 C 319.007 0.0969324 -3.48865 0
M  V30 3282 C 320.355 0.287565 -4.23625 0
M  V30 3283 O 321.379 0.173678 -3.55776 0
M  V30 3284 O 320.238 0.517186 -5.44047 0
M  V30 3285 H 317.332 0.113582 -0.819163 0
M  V30 3286 H 319.878 -0.52773 -1.61286 0
M  V30 3287 H 318.65 -0.896732 -3.80886 0
M  V30 3288 H 318.273 0.816303 -3.8913 0
M  V30 3289 N 319.27 1.56325 -0.20005 0
M  V30 3290 C 320.547 1.89484 0.48529 0
M  V30 3291 C 320.927 1.1143 1.79294 0
M  V30 3292 O 320.275 0.216919 2.27468 0
M  V30 3293 C 320.485 3.41923 0.699243 0
M  V30 3294 C 321.833 4.12256 1.01638 0
M  V30 3295 O 322.857 3.47402 0.786792 0
M  V30 3296 O 321.716 5.26887 1.45095 0
M  V30 3297 H 318.81 0.787144 0.253639 0
M  V30 3298 H 321.356 1.67985 -0.240633 0
M  V30 3299 H 320.128 3.90658 -0.224008 0
M  V30 3300 H 319.751 3.69131 1.47744 0
M  V30 3301 N 320.748 -0.0735177 1.57428 0
M  V30 3302 C 321.973 -0.789787 1.91774 0
M  V30 3303 C 322.398 -1.70413 0.796306 0
M  V30 3304 O 321.756 -1.79555 -0.250961 0
M  V30 3305 C 321.804 -1.5609 3.25067 0
M  V30 3306 O 320.908 -2.67144 3.14178 0
M  V30 3307 H 320.249 -0.215582 0.628029 0
M  V30 3308 H 322.779 -0.0422781 2.04556 0
M  V30 3309 H 322.789 -1.94052 3.58898 0
M  V30 3310 H 321.464 -0.890015 4.06265 0
M  V30 3311 H 320.041 -2.32052 2.91901 0
M  V30 3312 N 322.226 -1.5378 -0.344866 0
M  V30 3313 C 323.451 -1.75211 -1.10977 0
M  V30 3314 C 323.876 -0.48936 -1.81623 0
M  V30 3315 O 323.234 0.557925 -1.72502 0
M  V30 3316 C 323.282 -2.93147 -2.09993 0
M  V30 3317 O 322.386 -2.63203 -3.17487 0
M  V30 3318 H 321.727 -0.581241 -0.321021 0
M  V30 3319 H 324.257 -2.00738 -0.395661 0
M  V30 3320 H 324.267 -3.19898 -2.53237 0
M  V30 3321 H 322.942 -3.84731 -1.5797 0
M  V30 3322 H 321.519 -2.47336 -2.79069 0
M  V30 3323 N 323.704 0.605807 -1.45491 0
M  V30 3324 C 325.115 1.18777 -1.44045 0
M  V30 3325 C 325.466 1.95471 -0.169001 0
M  V30 3326 O 324.591 2.0374 0.729324 0
M  V30 3327 C 325.186 2.16064 -2.60963 0
M  V30 3328 C 323.745 2.69633 -2.62631 0
M  V30 3329 C 322.892 1.45072 -2.36325 0
M  V30 3330 H 325.843 0.395017 -1.53705 0
M  V30 3331 H 325.864 2.9913 -2.35163 0
M  V30 3332 H 325.376 1.60217 -3.53486 0
M  V30 3333 H 323.477 3.29414 -1.74119 0
M  V30 3334 H 323.59 3.13944 -3.61906 0
M  V30 3335 H 321.954 1.74089 -1.85917 0
M  V30 3336 H 322.737 0.910899 -3.30995 0
M  V30 3337 N 325.182 1.32811 0.848464 0
M  V30 3338 C 326.129 1.22265 1.95755 0
M  V30 3339 C 327.099 0.103413 1.65778 0
M  V30 3340 O 328.284 0.280033 1.88734 0
M  V30 3341 C 325.424 0.958014 3.31536 0
M  V30 3342 C 324.537 2.16262 3.73971 0
M  V30 3343 C 323.672 1.83295 4.98575 0
M  V30 3344 C 322.711 3.00041 5.33518 0
M  V30 3345 N 321.848 2.67125 6.49299 0
M  V30 3346 H 326.688 2.17128 2.04107 0
M  V30 3347 H 324.225 1.07982 0.998913 0
M  V30 3348 H 326.183 0.785052 4.09747 0
M  V30 3349 H 324.813 0.046159 3.22767 0
M  V30 3350 H 323.865 2.44565 2.91362 0
M  V30 3351 H 325.177 3.03572 3.95785 0
M  V30 3352 H 324.331 1.62586 5.84509 0
M  V30 3353 H 323.07 0.932078 4.7871 0
M  V30 3354 H 322.075 3.21374 4.46093 0
M  V30 3355 H 323.3 3.90869 5.55336 0
M  V30 3356 H 321.246 1.79586 6.3094 0
M  V30 3357 H 321.163 3.47965 6.71161 0
M  V30 3358 H 322.431 2.49861 7.3837 0
M  V30 3359 N 326.66 -1.06551 1.16123 0
M  V30 3360 C 327.607 -2.13961 0.865414 0
M  V30 3361 C 328.577 -1.65066 -0.185055 0
M  V30 3362 O 329.762 -1.90732 -0.05083 0
M  V30 3363 C 326.902 -3.43113 0.369776 0
M  V30 3364 C 326.015 -4.05756 1.48276 0
M  V30 3365 C 325.15 -5.22773 0.942414 0
M  V30 3366 C 324.189 -5.77395 2.03179 0
M  V30 3367 N 323.326 -6.85731 1.50721 0
M  V30 3368 H 328.166 -2.38605 1.78527 0
M  V30 3369 H 325.703 -1.17072 0.890646 0
M  V30 3370 H 327.661 -4.17151 0.0640643 0
M  V30 3371 H 326.291 -3.18695 -0.513143 0
M  V30 3372 H 325.343 -3.29292 1.9045 0
M  V30 3373 H 326.655 -4.42351 2.30493 0
M  V30 3374 H 325.809 -6.03827 0.589729 0
M  V30 3375 H 324.548 -4.87618 0.0895191 0
M  V30 3376 H 323.553 -4.94981 2.3932 0
M  V30 3377 H 324.778 -6.14603 2.8886 0
M  V30 3378 H 322.724 -6.52499 0.676811 0
M  V30 3379 H 322.641 -7.21254 2.26557 0
M  V30 3380 H 323.909 -7.7047 1.18303 0
M  V30 3381 N 328.138 -0.959301 -1.25041 0
M  V30 3382 C 329.387 -0.612254 -1.92183 0
M  V30 3383 C 329.7 0.855347 -1.75907 0
M  V30 3384 O 330.906 1.31256 -2.37664 0
M  V30 3385 C 329.362 -1.04435 -3.44414 0
M  V30 3386 C 328.97 -2.53482 -3.69393 0
M  V30 3387 C 330.714 -0.770055 -4.17457 0
M  V30 3388 C 328.621 -2.90468 -5.15153 0
M  V30 3389 H 327.551 -0.225279 -0.719559 0
M  V30 3390 H 330.202 -1.16438 -1.41825 0
M  V30 3391 H 328.584 -0.4206 -3.9376 0
M  V30 3392 H 329.758 -3.20916 -3.30681 0
M  V30 3393 H 328.073 -2.78432 -3.0962 0
M  V30 3394 H 330.67 -1.02249 -5.24832 0
M  V30 3395 H 331.013 0.293611 -4.15263 0
M  V30 3396 H 331.546 -1.35437 -3.74034 0
M  V30 3397 H 328.285 -3.95871 -5.22462 0
M  V30 3398 H 327.805 -2.27711 -5.54894 0
M  V30 3399 H 329.484 -2.79914 -5.83315 0
M  V30 3400 N 329.616 1.39756 -0.72842 0
M  V30 3401 C 330.563 2.30647 -0.0841519 0
M  V30 3402 C 331.533 1.48869 0.7367 0
M  V30 3403 O 332.718 1.77574 0.698015 0
M  V30 3404 C 329.858 3.35165 0.822091 0
M  V30 3405 C 328.971 4.31999 -0.0106663 0
M  V30 3406 C 328.106 5.23585 0.896241 0
M  V30 3407 C 327.145 6.12072 0.0583381 0
M  V30 3408 N 326.282 6.96035 0.920818 0
M  V30 3409 H 331.122 2.85173 -0.864891 0
M  V30 3410 H 328.659 1.40422 -0.438179 0
M  V30 3411 H 330.617 3.94345 1.36189 0
M  V30 3412 H 329.247 2.8211 1.56888 0
M  V30 3413 H 328.299 3.74492 -0.66781 0
M  V30 3414 H 329.611 4.9443 -0.658825 0
M  V30 3415 H 328.765 5.87759 1.50412 0
M  V30 3416 H 327.504 4.61459 1.57819 0
M  V30 3417 H 326.509 5.46916 -0.562389 0
M  V30 3418 H 327.734 6.76261 -0.6203 0
M  V30 3419 H 325.68 6.36485 1.58818 0
M  V30 3420 H 325.597 7.55284 0.32899 0
M  V30 3421 H 326.865 7.64646 1.51447 0
M  V30 3422 N 331.094 0.475555 1.50254 0
M  V30 3423 C 332.322 -0.0754493 2.06762 0
M  V30 3424 C 332.737 -1.33111 1.33891 0
M  V30 3425 O 332.094 -1.77846 0.40952 0
M  V30 3426 C 332.145 -0.359008 3.59713 0
M  V30 3427 O 331.866 0.846851 4.29837 0
M  V30 3428 C 333.367 -0.956484 4.32858 0
M  V30 3429 H 330.587 0.00907525 0.670939 0
M  V30 3430 H 333.131 0.665618 1.93364 0
M  V30 3431 H 331.286 -1.05001 3.72899 0
M  V30 3432 H 331.7 0.594162 5.21124 0
M  V30 3433 H 333.174 -1.10463 5.40834 0
M  V30 3434 H 333.651 -1.94775 3.93649 0
M  V30 3435 H 334.257 -0.303723 4.24214 0
M  V30 3436 N 332.573 -1.56217 0.208337 0
M  V30 3437 C 333.52 -2.19699 -0.707192 0
M  V30 3438 C 334.49 -1.14836 -1.20008 0
M  V30 3439 O 335.675 -1.4314 -1.26157 0
M  V30 3440 C 332.815 -2.87061 -1.91546 0
M  V30 3441 C 331.928 -4.06483 -1.46271 0
M  V30 3442 C 331.063 -4.61665 -2.62752 0
M  V30 3443 C 330.102 -5.73417 -2.14147 0
M  V30 3444 N 329.239 -6.22948 -3.23853 0
M  V30 3445 H 334.079 -2.97575 -0.159111 0
M  V30 3446 H 331.616 -1.46948 -0.0667874 0
M  V30 3447 H 333.574 -3.24294 -2.62468 0
M  V30 3448 H 332.204 -2.11725 -2.43664 0
M  V30 3449 H 331.256 -3.74825 -0.648886 0
M  V30 3450 H 332.568 -4.87271 -1.06622 0
M  V30 3451 H 331.722 -5.01272 -3.41776 0
M  V30 3452 H 330.461 -3.80013 -3.05682 0
M  V30 3453 H 329.466 -5.33326 -1.33581 0
M  V30 3454 H 330.691 -6.56897 -1.72232 0
M  V30 3455 H 328.637 -5.44213 -3.6629 0
M  V30 3456 H 328.554 -6.98823 -2.88414 0
M  V30 3457 H 329.822 -6.6721 -4.03052 0
M  V30 3458 N 334.051 0.0651679 -1.57465 0
M  V30 3459 C 334.998 1.07675 -2.04144 0
M  V30 3460 C 335.968 1.38071 -0.923335 0
M  V30 3461 O 337.153 1.49026 -1.19146 0
M  V30 3462 C 334.293 2.38337 -2.49579 0
M  V30 3463 C 333.406 2.14413 -3.75035 0
M  V30 3464 C 332.541 3.38686 -4.09225 0
M  V30 3465 C 331.58 3.10156 -5.27702 0
M  V30 3466 N 330.717 4.26778 -5.57499 0
M  V30 3467 H 335.557 0.671716 -2.90331 0
M  V30 3468 H 333.094 0.3201 -1.43575 0
M  V30 3469 H 335.052 3.14632 -2.73975 0
M  V30 3470 H 333.682 2.7663 -1.6636 0
M  V30 3471 H 332.734 1.2878 -3.57939 0
M  V30 3472 H 334.046 1.89344 -4.61466 0
M  V30 3473 H 333.2 4.23373 -4.34558 0
M  V30 3474 H 331.939 3.66837 -3.21374 0
M  V30 3475 H 330.944 2.23866 -5.02159 0
M  V30 3476 H 332.169 2.8332 -6.17176 0
M  V30 3477 H 330.115 4.54948 -4.72608 0
M  V30 3478 H 330.032 4.05005 -6.38362 0
M  V30 3479 H 331.3 5.12443 -5.87386 0
M  V30 3480 N 335.529 1.53961 0.336706 0
M  V30 3481 C 336.754 1.75797 1.10046 0
M  V30 3482 C 337.179 0.498985 1.81361 0
M  V30 3483 O 336.537 -0.548769 1.72795 0
M  V30 3484 C 336.585 2.94257 2.08436 0
M  V30 3485 O 335.689 2.64883 3.16087 0
M  V30 3486 H 335.03 0.582936 0.317934 0
M  V30 3487 H 337.56 2.00945 0.38501 0
M  V30 3488 H 337.57 3.21237 2.51537 0
M  V30 3489 H 336.245 3.85564 1.55927 0
M  V30 3490 H 334.822 2.48812 2.77753 0
M  V30 3491 N 337.007 -0.598083 1.45811 0
M  V30 3492 C 338.235 -1.38322 1.53866 0
M  V30 3493 C 338.65 -1.87992 0.174479 0
M  V30 3494 O 338.007 -1.62756 -0.825627 0
M  V30 3495 C 338.058 -2.58125 2.53089 0
M  V30 3496 O 337.779 -2.10516 3.84206 0
M  V30 3497 C 339.28 -3.50869 2.70935 0
M  V30 3498 H 336.5 -0.423093 0.520801 0
M  V30 3499 H 339.044 -0.728527 1.91083 0
M  V30 3500 H 337.199 -3.19615 2.18917 0
M  V30 3501 H 337.613 -2.88425 4.38077 0
M  V30 3502 H 339.087 -4.31451 3.44317 0
M  V30 3503 H 339.564 -4.01822 1.77301 0
M  V30 3504 H 340.17 -2.95225 3.06141 0
M  V30 3505 N 338.485 -1.33259 -0.841409 0
M  V30 3506 C 339.731 -1.25766 -1.59857 0
M  V30 3507 C 340.086 0.175602 -1.91597 0
M  V30 3508 O 339.379 1.117 -1.55672 0
M  V30 3509 C 339.573 -2.06381 -2.9179 0
M  V30 3510 C 339.402 -3.57401 -2.72937 0
M  V30 3511 C 338.172 -4.26718 -2.70628 0
M  V30 3512 C 340.37 -4.51786 -2.45753 0
M  V30 3513 N 338.352 -5.63705 -2.43125 0
M  V30 3514 C 339.723 -5.76643 -2.27777 0
M  V30 3515 C 341.778 -4.40898 -2.31329 0
M  V30 3516 C 340.481 -6.91842 -1.96841 0
M  V30 3517 C 342.507 -5.55911 -2.01786 0
M  V30 3518 C 341.869 -6.79776 -1.8462 0
M  V30 3519 H 337.968 -0.515406 -0.588117 0
M  V30 3520 H 340.552 -1.67772 -0.987955 0
M  V30 3521 H 338.723 -1.667 -3.50807 0
M  V30 3522 H 340.455 -1.90678 -3.56965 0
M  V30 3523 H 337.21 -3.78968 -2.84043 0
M  V30 3524 H 337.634 -6.35911 -2.32265 0
M  V30 3525 H 342.276 -3.45772 -2.43314 0
M  V30 3526 H 339.994 -7.86968 -1.83594 0
M  V30 3527 H 343.58 -5.49421 -1.91384 0
M  V30 3528 H 342.46 -7.67266 -1.62088 0
M  V30 3529 N 339.963 1.05934 -1.16686 0
M  V30 3530 C 340.873 2.17014 -0.891183 0
M  V30 3531 C 341.889 1.73453 0.137907 0
M  V30 3532 O 343.065 2.01361 -0.039592 0
M  V30 3533 C 340.13 3.44384 -0.400099 0
M  V30 3534 C 339.191 4.02433 -1.49486 0
M  V30 3535 C 338.424 5.23723 -1.02711 0
M  V30 3536 O 338.647 5.7027 0.121716 0
M  V30 3537 O 337.581 5.7382 -1.81699 0
M  V30 3538 H 341.407 2.43113 -1.82015 0
M  V30 3539 H 338.992 1.15541 -0.947132 0
M  V30 3540 H 340.874 4.21189 -0.133392 0
M  V30 3541 H 339.549 3.19802 0.500817 0
M  V30 3542 H 338.456 3.27102 -1.81535 0
M  V30 3543 H 339.789 4.31317 -2.37121 0
M  V30 3544 N 341.441 0.965919 1.2453 0
M  V30 3545 C 342.388 0.49402 2.25451 0
M  V30 3546 C 343.358 -0.45948 1.59618 0
M  V30 3547 O 344.543 -0.370238 1.87173 0
M  V30 3548 C 341.683 -0.211359 3.44452 0
M  V30 3549 C 340.796 0.7807 4.24887 0
M  V30 3550 C 339.931 0.0516105 5.31175 0
M  V30 3551 C 338.97 1.03385 6.03306 0
M  V30 3552 N 338.107 0.334887 7.01301 0
M  V30 3553 H 342.947 1.35946 2.65184 0
M  V30 3554 H 340.484 0.681515 1.3036 0
M  V30 3555 H 342.442 -0.637 4.12308 0
M  V30 3556 H 341.072 -1.04077 3.05562 0
M  V30 3557 H 340.124 1.32479 3.56586 0
M  V30 3558 H 341.436 1.52978 4.74762 0
M  V30 3559 H 340.59 -0.432114 6.05159 0
M  V30 3560 H 339.329 -0.730179 4.82203 0
M  V30 3561 H 338.334 1.52847 5.28127 0
M  V30 3562 H 339.559 1.81606 6.54367 0
M  V30 3563 H 337.505 -0.427959 6.54603 0
M  V30 3564 H 337.422 1.02287 7.49048 0
M  V30 3565 H 338.69 -0.126928 7.79397 0
M  V30 3566 N 342.919 -1.39368 0.735821 0
M  V30 3567 C 344.165 -2.00794 0.284544 0
M  V30 3568 C 344.498 -1.58255 -1.12557 0
M  V30 3569 O 343.773 -0.811819 -1.76748 0
M  V30 3570 C 344.056 -3.58011 0.387337 0
M  V30 3571 C 343.909 -4.10566 1.83728 0
M  V30 3572 C 345.228 -4.395 -0.22975 0
M  V30 3573 H 342.347 -0.729501 0.104866 0
M  V30 3574 H 344.989 -1.65564 0.93213 0
M  V30 3575 H 343.139 -3.88154 -0.164006 0
M  V30 3576 H 344.811 -3.91139 2.44556 0
M  V30 3577 H 343.054 -3.64095 2.35833 0
M  V30 3578 H 343.725 -5.19702 1.86047 0
M  V30 3579 H 346.201 -4.15406 0.240257 0
M  V30 3580 H 345.077 -5.48752 -0.127485 0
M  V30 3581 H 345.338 -4.22062 -1.3159 0
M  V30 3582 N 344.397 -0.483516 -1.5 0
M  V30 3583 C 345.345 0.318061 -2.30415 0
M  V30 3584 C 346.339 0.978988 -1.38247 0
M  V30 3585 O 347.545 0.908673 -1.55381 0
M  V30 3586 H 343.92 0.121419 -0.742133 0
M  V30 3587 H 345.891 -0.380403 -2.95965 0
M  V30 3588 C 344.64 1.38013 -3.19136 0
M  V30 3589 H 343.963 0.880952 -3.89973 0
M  V30 3590 H 345.403 1.91332 -3.78375 0
M  V30 3591 C 343.862 2.38884 -2.37563 0
M  V30 3592 O 344.392 3.44412 -2.06744 0
M  V30 3593 N 342.598 2.10912 -1.99911 0
M  V30 3594 H 342.145 1.25118 -2.25174 0
M  V30 3595 H 342.103 2.78635 -1.45636 0
M  V30 3596 N 345.875 1.56104 -0.216619 0
M  V30 3597 C 346.822 2.2007 0.695531 0
M  V30 3598 C 347.792 1.15471 1.19397 0
M  V30 3599 O 348.977 1.43807 1.25396 0
M  V30 3600 C 346.117 2.88073 1.90021 0
M  V30 3601 C 345.23 4.07253 1.44113 0
M  V30 3602 C 344.365 4.63052 2.603 0
M  V30 3603 C 343.404 5.74545 2.11103 0
M  V30 3604 N 342.541 6.24656 3.20545 0
M  V30 3605 H 347.381 2.97655 0.143327 0
M  V30 3606 H 344.918 1.46982 0.0589934 0
M  V30 3607 H 346.876 3.25681 2.60745 0
M  V30 3608 H 345.506 2.13015 2.42538 0
M  V30 3609 H 344.558 3.75164 0.628999 0
M  V30 3610 H 345.87 4.8783 1.04036 0
M  V30 3611 H 345.024 5.03078 3.39113 0
M  V30 3612 H 343.763 3.81628 3.03663 0
M  V30 3613 H 342.768 5.34027 1.3075 0
M  V30 3614 H 343.993 6.57801 1.68746 0
M  V30 3615 H 341.939 5.46148 3.63399 0
M  V30 3616 H 341.856 7.00343 2.84704 0
M  V30 3617 H 343.124 6.69338 3.99508 0
M  V30 3618 N 347.353 -0.0568162 1.57498 0
M  V30 3619 C 348.583 -0.764515 1.91934 0
M  V30 3620 C 348.991 -1.70877 0.81227 0
M  V30 3621 O 348.334 -1.82351 -0.222213 0
M  V30 3622 C 348.396 -1.5994 3.21962 0
M  V30 3623 C 348.06 -0.822925 4.4953 0
M  V30 3624 C 349.057 -0.135464 5.19723 0
M  V30 3625 C 346.742 -0.785666 4.96117 0
M  V30 3626 C 348.736 0.578861 6.34766 0
M  V30 3627 C 346.423 -0.0675784 6.11063 0
M  V30 3628 C 347.421 0.613471 6.80239 0
M  V30 3629 O 347.109 1.31996 7.92989 0
M  V30 3630 H 346.841 -0.221647 0.63863 0
M  V30 3631 H 349.395 -0.0268218 2.05382 0
M  V30 3632 H 347.625 -2.38026 3.04763 0
M  V30 3633 H 349.314 -2.18715 3.41934 0
M  V30 3634 H 350.08 -0.155458 4.84751 0
M  V30 3635 H 345.959 -1.30524 4.42136 0
M  V30 3636 H 349.503 1.111 6.88696 0
M  V30 3637 H 345.4 -0.0455636 6.45484 0
M  V30 3638 H 346.168 1.23077 8.09194 0
M  V30 3639 N 348.832 -1.54138 -0.328536 0
M  V30 3640 C 349.762 -1.86167 -1.40939 0
M  V30 3641 C 350.743 -0.718044 -1.54202 0
M  V30 3642 O 351.928 -0.971328 -1.68163 0
M  V30 3643 C 349.058 -2.08461 -2.77779 0
M  V30 3644 C 348.012 -3.24299 -2.7931 0
M  V30 3645 C 347.338 -3.31955 -4.19178 0
M  V30 3646 C 348.638 -4.62065 -2.43502 0
M  V30 3647 H 350.332 -2.76689 -1.14383 0
M  V30 3648 H 347.878 -1.33132 -0.548806 0
M  V30 3649 H 349.831 -2.29453 -3.53454 0
M  V30 3650 H 348.555 -1.14684 -3.05802 0
M  V30 3651 H 347.214 -3.03187 -2.0609 0
M  V30 3652 H 346.862 -2.35745 -4.44335 0
M  V30 3653 H 346.562 -4.09805 -4.2111 0
M  V30 3654 H 348.086 -3.55175 -4.96672 0
M  V30 3655 H 349.5 -4.8297 -3.08889 0
M  V30 3656 H 347.897 -5.42429 -2.56693 0
M  V30 3657 H 348.967 -4.64652 -1.38659 0
M  V30 3658 N 350.31 0.590341 -1.46126 0
M  V30 3659 C 351.587 1.35029 -1.41515 0
M  V30 3660 C 351.967 2.10888 -0.0946472 0
M  V30 3661 O 351.315 2.08998 0.923693 0
M  V30 3662 C 351.525 2.28269 -2.63997 0
M  V30 3663 C 352.873 2.90338 -3.09821 0
M  V30 3664 O 353.897 2.38585 -2.64492 0
M  V30 3665 O 352.756 3.84321 -3.88535 0
M  V30 3666 H 349.85 0.606317 -0.562413 0
M  V30 3667 H 352.396 0.611994 -1.58281 0
M  V30 3668 H 351.168 1.71591 -3.51671 0
M  V30 3669 H 350.791 3.0945 -2.49652 0
M  V30 3670 N 351.788 1.33704 0.83433 0
M  V30 3671 C 353.035 1.25417 1.58987 0
M  V30 3672 C 353.363 -0.178869 1.93676 0
M  V30 3673 O 352.618 -1.13723 1.59265 0
M  V30 3674 C 352.917 2.07926 2.90692 0
M  V30 3675 C 352.583 3.57066 2.75345 0
M  V30 3676 C 351.245 3.97724 2.70867 0
M  V30 3677 C 353.597 4.51817 2.59828 0
M  V30 3678 C 350.925 5.31344 2.48778 0
M  V30 3679 C 353.277 5.85604 2.39272 0
M  V30 3680 C 351.941 6.25439 2.33199 0
M  V30 3681 H 351.211 0.458934 0.581774 0
M  V30 3682 H 353.858 1.65335 0.966261 0
M  V30 3683 H 352.163 1.608 3.57282 0
M  V30 3684 H 353.86 1.98868 3.48213 0
M  V30 3685 H 350.45 3.24785 2.79665 0
M  V30 3686 H 354.634 4.21311 2.62319 0
M  V30 3687 H 349.89 5.61241 2.42526 0
M  V30 3688 H 354.064 6.58623 2.2625 0
M  V30 3689 H 351.691 7.28914 2.15843 0
M  V30 3690 N 353.266 -1.05314 1.17247 0
M  V30 3691 C 354.491 -1.82509 0.985148 0
M  V30 3692 C 354.916 -1.82343 -0.461788 0
M  V30 3693 O 354.274 -1.23151 -1.33055 0
M  V30 3694 C 354.322 -3.26566 1.52929 0
M  V30 3695 O 353.426 -4.05666 0.742225 0
M  V30 3696 H 352.767 -0.564347 0.349869 0
M  V30 3697 H 355.297 -1.32718 1.55715 0
M  V30 3698 H 355.307 -3.77369 1.55103 0
M  V30 3699 H 353.982 -3.26001 2.58256 0
M  V30 3700 H 352.559 -3.64397 0.791794 0
M  V30 3701 N 354.744 -0.972509 -1.24016 0
M  V30 3702 C 355.674 -0.525548 -2.27509 0
M  V30 3703 C 356.655 0.437262 -1.64384 0
M  V30 3704 O 357.84 0.332343 -1.91335 0
M  V30 3705 C 354.97 0.180448 -3.46831 0
M  V30 3706 C 353.924 -0.698859 -4.22256 0
M  V30 3707 C 353.25 0.138903 -5.3452 0
M  V30 3708 C 354.55 -1.98582 -4.83076 0
M  V30 3709 H 356.244 -1.39058 -2.65148 0
M  V30 3710 H 353.79 -0.67009 -1.27459 0
M  V30 3711 H 355.743 0.504387 -4.18371 0
M  V30 3712 H 354.467 1.07987 -3.08231 0
M  V30 3713 H 353.126 -1.00614 -3.52523 0
M  V30 3714 H 352.774 1.03862 -4.9216 0
M  V30 3715 H 352.474 -0.446259 -5.85903 0
M  V30 3716 H 353.998 0.457404 -6.08884 0
M  V30 3717 H 355.412 -1.72715 -5.46665 0
M  V30 3718 H 353.809 -2.5181 -5.44713 0
M  V30 3719 H 354.879 -2.67769 -4.04262 0
M  V30 3720 N 356.222 1.38976 -0.743202 0
M  V30 3721 C 357.469 2.00343 -0.294752 0
M  V30 3722 C 357.797 1.58983 1.12047 0
M  V30 3723 O 357.052 0.813809 1.77977 0
M  V30 3724 C 357.351 3.55647 -0.353517 0
M  V30 3725 C 357.017 4.16685 -1.72292 0
M  V30 3726 C 355.679 4.3307 -2.09771 0
M  V30 3727 C 358.031 4.50464 -2.62168 0
M  V30 3728 C 355.359 4.80526 -3.36618 0
M  V30 3729 C 357.711 4.99332 -3.88395 0
M  V30 3730 C 356.375 5.13924 -4.25956 0
M  V30 3731 H 355.645 0.733108 -0.107857 0
M  V30 3732 H 358.292 1.6618 -0.951651 0
M  V30 3733 H 356.597 3.89884 0.386954 0
M  V30 3734 H 358.294 4.00998 0.0117269 0
M  V30 3735 H 354.884 4.04339 -1.42155 0
M  V30 3736 H 359.068 4.37416 -2.3448 0
M  V30 3737 H 354.324 4.90008 -3.65653 0
M  V30 3738 H 358.498 5.2444 -4.58187 0
M  V30 3739 H 356.125 5.50457 -5.2431 0
M  V30 3740 N 357.7 0.491464 1.49741 0
M  V30 3741 C 358.647 -0.292027 2.28945 0
M  V30 3742 C 359.617 -0.968973 1.34908 0
M  V30 3743 O 360.802 -0.97748 1.6386 0
M  V30 3744 C 357.942 -1.35617 3.17336 0
M  V30 3745 C 357.055 -0.691957 4.26422 0
M  V30 3746 C 356.19 -1.73572 5.02042 0
M  V30 3747 C 355.229 -1.05286 6.02977 0
M  V30 3748 N 354.366 -2.0404 6.71798 0
M  V30 3749 H 359.206 0.389654 2.95442 0
M  V30 3750 H 356.743 0.204003 1.45679 0
M  V30 3751 H 358.701 -1.98502 3.66951 0
M  V30 3752 H 357.331 -2.00674 2.52844 0
M  V30 3753 H 356.383 0.0499523 3.80367 0
M  V30 3754 H 357.695 -0.153946 4.98562 0
M  V30 3755 H 356.849 -2.43987 5.55478 0
M  V30 3756 H 355.588 -2.30757 4.29654 0
M  V30 3757 H 354.593 -0.334446 5.48782 0
M  V30 3758 H 355.818 -0.487636 6.77347 0
M  V30 3759 H 353.764 -2.60205 6.02187 0
M  V30 3760 H 353.681 -1.55279 7.39881 0
M  V30 3761 H 354.949 -2.73772 7.29842 0
M  V30 3762 N 359.178 -1.55987 0.224894 0
M  V30 3763 C 360.128 -2.17076 -0.697296 0
M  V30 3764 C 361.112 -1.12006 -1.15514 0
M  V30 3765 O 362.304 -1.37985 -1.10857 0
M  V30 3766 C 359.433 -2.85679 -1.90374 0
M  V30 3767 C 358.519 -3.97977 -1.46543 0
M  V30 3768 N 358.91 -5.00359 -0.739909 0
M  V30 3769 C 357.208 -4.10128 -1.75245 0
M  V30 3770 C 357.909 -5.79407 -0.515939 0
M  V30 3771 N 356.885 -5.32892 -1.07364 0
M  V30 3772 H 360.687 -2.93592 -0.134594 0
M  V30 3773 H 358.201 -1.62379 0.0262885 0
M  V30 3774 H 360.198 -3.27857 -2.57518 0
M  V30 3775 H 358.858 -2.1066 -2.47088 0
M  V30 3776 H 359.869 -5.16412 -0.392253 0
M  V30 3777 H 356.546 -3.46263 -2.33255 0
M  V30 3778 H 357.936 -6.71872 0.0617349 0
M  V30 3779 N 360.656 0.0484629 -1.57525 0
M  V30 3780 C 362.072 0.40375 -1.54409 0
M  V30 3781 C 362.272 1.77786 -0.948384 0
M  V30 3782 O 361.328 2.46189 -0.560983 0
M  V30 3783 C 362.641 0.323394 -2.98956 0
M  V30 3784 C 364.189 0.401892 -3.10409 0
M  V30 3785 C 364.664 0.351195 -4.56652 0
M  V30 3786 N 366.155 0.410576 -4.61377 0
M  V30 3787 C 366.89 0.393933 -5.72045 0
M  V30 3788 N 366.386 0.330724 -6.9201 0
M  V30 3789 N 368.179 0.442227 -5.60358 0
M  V30 3790 H 360.33 -0.851016 -1.94606 0
M  V30 3791 H 362.593 -0.321721 -0.89174 0
M  V30 3792 H 362.299 -0.62011 -3.4619 0
M  V30 3793 H 362.173 1.12463 -3.60044 0
M  V30 3794 H 364.56 1.33582 -2.63134 0
M  V30 3795 H 364.641 -0.428342 -2.52188 0
M  V30 3796 H 364.285 -0.578987 -5.04589 0
M  V30 3797 H 364.215 1.19928 -5.12762 0
M  V30 3798 H 366.706 0.462729 -3.75056 0
M  V30 3799 H 367.019 0.322592 -7.72126 0
M  V30 3800 H 365.364 0.29706 -6.94365 0
M  V30 3801 H 368.555 0.489464 -4.65534 0
M  V30 3802 H 368.728 0.425788 -6.466 0
M  V30 3803 N 362.134 1.5431 0.320358 0
M  V30 3804 C 363.382 1.72327 1.05583 0
M  V30 3805 C 363.703 0.50149 1.88441 0
M  V30 3806 O 362.973 -0.48448 1.89815 0
M  V30 3807 H 361.553 0.635387 0.3928 0
M  V30 3808 H 364.215 1.91621 0.356019 0
M  V30 3809 H 363.311 2.60426 1.72003 0
M  V30 3810 N 363.613 -0.582584 1.46437 0
M  V30 3811 C 364.86 -1.34079 1.51753 0
M  V30 3812 C 365.188 -1.93762 0.169299 0
M  V30 3813 O 364.443 -1.76989 -0.835062 0
M  V30 3814 C 364.742 -2.48964 2.56421 0
M  V30 3815 C 364.408 -2.07273 4.00436 0
M  V30 3816 C 363.07 -1.95618 4.39644 0
M  V30 3817 C 365.422 -1.75111 4.90903 0
M  V30 3818 C 362.75 -1.5006 5.67185 0
M  V30 3819 C 365.102 -1.31032 6.18881 0
M  V30 3820 C 363.766 -1.17954 6.56996 0
M  V30 3821 H 363.036 -0.49063 0.555304 0
M  V30 3822 H 365.683 -0.656007 1.79913 0
M  V30 3823 H 363.988 -3.22889 2.21923 0
M  V30 3824 H 365.685 -3.07178 2.57765 0
M  V30 3825 H 362.275 -2.17279 3.69443 0
M  V30 3826 H 366.459 -1.83001 4.61329 0
M  V30 3827 H 361.715 -1.38577 5.95488 0
M  V30 3828 H 365.889 -1.052 6.88408 0
M  V30 3829 H 363.516 -0.824279 7.55718 0
M  V30 3830 N 365.091 -1.34144 -0.827227 0
M  V30 3831 C 366.021 -1.28005 -1.95287 0
M  V30 3832 C 367.002 -0.158321 -1.69362 0
M  V30 3833 O 368.187 -0.349987 -1.9102 0
M  V30 3834 C 365.317 -1.03036 -3.31664 0
M  V30 3835 C 364.271 -2.11628 -3.72019 0
M  V30 3836 C 363.597 -1.71854 -5.0633 0
M  V30 3837 C 364.897 -3.53417 -3.8457 0
M  V30 3838 H 366.591 -2.22187 -2.00682 0
M  V30 3839 H 364.137 -1.0696 -0.964135 0
M  V30 3840 H 366.09 -0.973863 -4.09993 0
M  V30 3841 H 364.814 -0.0529391 -3.26557 0
M  V30 3842 H 363.473 -2.16339 -2.95961 0
M  V30 3843 H 363.121 -0.727841 -4.97706 0
M  V30 3844 H 362.821 -2.44531 -5.34302 0
M  V30 3845 H 364.345 -1.67692 -5.87122 0
M  V30 3846 H 365.759 -3.51142 -4.5318 0
M  V30 3847 H 364.156 -4.24679 -4.2399 0
M  V30 3848 H 365.226 -3.91072 -2.86689 0
M  V30 3849 N 366.569 1.04691 -1.17803 0
M  V30 3850 C 367.818 1.77176 -0.963931 0
M  V30 3851 C 368.131 1.88888 0.508015 0
M  V30 3852 O 369.337 2.58164 0.840465 0
M  V30 3853 C 367.793 3.18518 -1.67555 0
M  V30 3854 C 367.401 3.14919 -3.18637 0
M  V30 3855 C 369.145 3.95424 -1.54402 0
M  V30 3856 C 367.052 4.51081 -3.82466 0
M  V30 3857 H 365.982 0.664116 -0.357023 0
M  V30 3858 H 368.633 1.17303 -1.4111 0
M  V30 3859 H 367.015 3.78748 -1.15613 0
M  V30 3860 H 368.189 2.64178 -3.77554 0
M  V30 3861 H 366.504 2.51512 -3.31859 0
M  V30 3862 H 369.101 4.96106 -1.99456 0
M  V30 3863 H 369.444 4.13343 -0.495329 0
M  V30 3864 H 369.977 3.41754 -2.0359 0
M  V30 3865 H 366.716 4.38368 -4.87354 0
M  V30 3866 H 366.236 5.01951 -3.28337 0
M  V30 3867 H 367.915 5.2001 -3.84965 0
M  V30 3868 N 368.047 0.979072 1.23499 0
M  V30 3869 C 369.277 0.664237 1.95631 0
M  V30 3870 C 369.685 -0.772653 1.72704 0
M  V30 3871 O 369.028 -1.53141 1.01457 0
M  V30 3872 C 369.09 0.873115 3.48736 0
M  V30 3873 C 368.754 2.29182 3.95379 0
M  V30 3874 C 369.751 3.2704 4.04155 0
M  V30 3875 C 367.436 2.62256 4.28401 0
M  V30 3876 C 369.43 4.56052 4.45304 0
M  V30 3877 C 367.117 3.91491 4.69231 0
M  V30 3878 C 368.115 4.88201 4.77649 0
M  V30 3879 O 367.803 6.15129 5.17563 0
M  V30 3880 H 367.535 0.245915 0.629684 0
M  V30 3881 H 370.089 1.3127 1.57979 0
M  V30 3882 H 368.319 0.167476 3.86337 0
M  V30 3883 H 370.008 0.555642 4.02079 0
M  V30 3884 H 370.774 3.02819 3.78848 0
M  V30 3885 H 366.653 1.87692 4.21061 0
M  V30 3886 H 370.197 5.31538 4.51789 0
M  V30 3887 H 366.094 4.15508 4.93987 0
M  V30 3888 H 366.862 6.18862 5.35679 0
M  V30 3889 N 369.525 -1.3858 0.750561 0
M  V30 3890 C 370.455 -2.33102 0.136237 0
M  V30 3891 C 371.436 -1.54713 -0.706965 0
M  V30 3892 O 372.621 -1.83043 -0.648769 0
M  V30 3893 C 369.751 -3.38882 -0.760017 0
M  V30 3894 C 368.705 -4.27995 -0.0197785 0
M  V30 3895 C 368.031 -5.24605 -1.03408 0
M  V30 3896 C 369.331 -5.09554 1.14684 0
M  V30 3897 H 371.025 -2.84726 0.925822 0
M  V30 3898 H 368.571 -1.36898 0.446654 0
M  V30 3899 H 370.524 -4.0397 -1.19943 0
M  V30 3900 H 369.248 -2.85734 -1.58189 0
M  V30 3901 H 367.907 -3.64409 0.400184 0
M  V30 3902 H 367.555 -4.67746 -1.84994 0
M  V30 3903 H 367.255 -5.85081 -0.543464 0
M  V30 3904 H 368.779 -5.9257 -1.47288 0
M  V30 3905 H 370.193 -5.67899 0.785118 0
M  V30 3906 H 368.59 -5.7925 1.56812 0
M  V30 3907 H 369.66 -4.4347 1.96118 0
M  V30 3908 N 371.003 -0.499398 -1.49478 0
M  V30 3909 C 372.228 0.044722 -2.07352 0
M  V30 3910 C 372.653 1.30207 -1.35749 0
M  V30 3911 O 372.011 1.76516 -0.413732 0
M  V30 3912 C 372.059 0.283013 -3.59488 0
M  V30 3913 O 371.163 1.35804 -3.89398 0
M  V30 3914 H 370.504 -0.0255147 -0.66351 0
M  V30 3915 H 373.034 -0.698561 -1.92305 0
M  V30 3916 H 373.044 0.515007 -4.04737 0
M  V30 3917 H 371.719 -0.635636 -4.11014 0
M  V30 3918 H 370.296 1.11113 -3.55961 0
M  V30 3919 N 372.481 1.55866 -0.233164 0
M  V30 3920 C 373.729 1.9821 0.394593 0
M  V30 3921 C 374.05 1.12234 1.59463 0
M  V30 3922 O 373.32 0.201981 1.94856 0
M  V30 3923 H 371.9 0.732034 0.148778 0
M  V30 3924 H 374.562 1.92107 -0.32876 0
M  V30 3925 H 373.658 3.03845 0.713063 0
M  V30 3926 N 373.959 -0.0401083 1.57549 0
M  V30 3927 C 374.907 -1.06264 2.06908 0
M  V30 3928 C 375.901 -1.38132 0.980608 0
M  V30 3929 O 377.107 -1.37167 1.16556 0
M  V30 3930 H 373.482 -0.360166 0.660139 0
M  V30 3931 H 375.453 -0.620445 2.91878 0
M  V30 3932 C 374.202 -2.35846 2.55483 0
M  V30 3933 H 373.525 -2.12183 3.38849 0
M  V30 3934 H 374.965 -3.05765 2.93741 0
M  V30 3935 C 373.424 -3.0404 1.45126 0
M  V30 3936 O 373.954 -3.93424 0.811216 0
M  V30 3937 N 372.16 -2.65184 1.18852 0
M  V30 3938 H 371.707 -1.92584 1.71083 0
M  V30 3939 H 371.665 -3.1113 0.452244 0
M  V30 3940 N 375.437 -1.54477 -0.31217 0
M  V30 3941 C 376.683 -1.73483 -1.0503 0
M  V30 3942 C 377.016 -0.513125 -1.87298 0
M  V30 3943 O 376.291 0.489864 -1.8823 0
M  V30 3944 C 376.574 -3.01723 -1.96558 0
M  V30 3945 C 376.427 -4.3417 -1.17545 0
M  V30 3946 C 377.746 -3.25772 -2.95907 0
M  V30 3947 H 374.865 -0.631222 -0.380432 0
M  V30 3948 H 377.507 -1.87184 -0.325932 0
M  V30 3949 H 375.657 -2.90174 -2.58324 0
M  V30 3950 H 377.329 -4.5762 -0.581513 0
M  V30 3951 H 375.572 -4.31159 -0.477925 0
M  V30 3952 H 376.243 -5.20143 -1.84811 0
M  V30 3953 H 378.719 -3.36857 -2.44267 0
M  V30 3954 H 377.595 -4.16838 -3.57123 0
M  V30 3955 H 377.856 -2.43537 -3.68974 0
M  V30 3956 N 376.915 0.57481 -1.46744 0
M  V30 3957 C 378.164 1.32898 -1.51727 0
M  V30 3958 C 378.477 1.948 -0.176692 0
M  V30 3959 O 379.683 2.71299 -0.104385 0
M  V30 3960 C 378.139 2.40901 -2.67385 0
M  V30 3961 C 377.747 1.85266 -4.07898 0
M  V30 3962 C 379.491 3.17609 -2.81646 0
M  V30 3963 C 377.398 2.90945 -5.14883 0
M  V30 3964 H 376.328 0.499631 -0.564699 0
M  V30 3965 H 378.979 0.612536 -1.72975 0
M  V30 3966 H 377.361 3.15379 -2.39483 0
M  V30 3967 H 378.535 1.17278 -4.45626 0
M  V30 3968 H 376.85 1.21199 -3.98371 0
M  V30 3969 H 379.447 3.96493 -3.58744 0
M  V30 3970 H 379.79 3.70696 -1.89448 0
M  V30 3971 H 380.323 2.50239 -3.09233 0
M  V30 3972 H 377.062 2.42736 -6.089 0
M  V30 3973 H 376.582 3.57398 -4.81691 0
M  V30 3974 H 378.261 3.54755 -5.41071 0
M  V30 3975 N 378.394 1.34581 0.820102 0
M  V30 3976 C 379.327 1.20735 1.93644 0
M  V30 3977 C 380.305 0.0983343 1.62302 0
M  V30 3978 O 381.489 0.263997 1.86642 0
M  V30 3979 C 378.616 0.856037 3.27704 0
M  V30 3980 C 377.662 1.97521 3.78005 0
M  V30 3981 S 378.495 3.58906 3.97425 0
M  V30 3982 C 379.651 3.25822 5.34407 0
M  V30 3983 H 379.884 2.15231 2.05093 0
M  V30 3984 H 377.417 1.1964 0.97599 0
M  V30 3985 H 379.375 0.660133 4.05157 0
M  V30 3986 H 378.036 -0.0706253 3.14021 0
M  V30 3987 H 377.229 1.68321 4.75062 0
M  V30 3988 H 376.831 2.12875 3.07507 0
M  V30 3989 H 379.123 2.77812 6.17922 0
M  V30 3990 H 380.066 4.22029 5.68592 0
M  V30 3991 H 380.474 2.61932 5.00052 0
M  V30 3992 N 379.872 -1.04064 1.18357 0
M  V30 3993 C 381.119 -1.77265 0.978947 0
M  V30 3994 C 381.447 -1.88189 -0.491428 0
M  V30 3995 O 380.702 -1.38653 -1.38108 0
M  V30 3996 C 381.001 -3.20634 1.57888 0
M  V30 3997 C 380.667 -3.29743 3.07539 0
M  V30 3998 C 379.329 -3.31937 3.48384 0
M  V30 3999 C 381.681 -3.29841 4.03552 0
M  V30 4000 C 379.009 -3.3187 4.83818 0
M  V30 4001 C 381.361 -3.31313 5.38901 0
M  V30 4002 C 380.025 -3.31799 5.79194 0
M  V30 4003 H 379.295 -0.648659 0.358222 0
M  V30 4004 H 381.942 -1.22225 1.47422 0
M  V30 4005 H 380.247 -3.78675 1.00561 0
M  V30 4006 H 381.944 -3.75917 1.39598 0
M  V30 4007 H 378.534 -3.28757 2.74986 0
M  V30 4008 H 382.718 -3.27337 3.73047 0
M  V30 4009 H 377.974 -3.30562 5.14333 0
M  V30 4010 H 382.148 -3.30338 6.13066 0
M  V30 4011 H 379.775 -3.315 6.84114 0
M  V30 4012 N 381.35 -0.985608 -1.22978 0
M  V30 4013 C 382.28 -0.549649 -2.26939 0
M  V30 4014 C 383.261 0.419803 -1.64838 0
M  V30 4015 O 384.446 0.31203 -1.91677 0
M  V30 4016 C 381.576 0.143652 -3.47003 0
M  V30 4017 C 380.53 -0.743606 -4.21491 0
M  V30 4018 C 379.856 0.0822027 -5.34637 0
M  V30 4019 C 381.156 -2.03694 -4.80943 0
M  V30 4020 H 382.85 -1.41862 -2.63658 0
M  V30 4021 H 380.396 -0.683571 -1.26741 0
M  V30 4022 H 382.349 0.459985 -4.18882 0
M  V30 4023 H 381.073 1.04711 -3.09359 0
M  V30 4024 H 379.732 -1.04347 -3.51436 0
M  V30 4025 H 379.38 0.986359 -4.93234 0
M  V30 4026 H 379.08 -0.508377 -5.85397 0
M  V30 4027 H 380.604 0.392797 -6.09335 0
M  V30 4028 H 382.018 -1.78504 -5.44802 0
M  V30 4029 H 380.415 -2.57573 -5.42011 0
M  V30 4030 H 381.485 -2.72042 -4.01399 0
M  V30 4031 N 382.828 1.3818 -0.7579 0
M  V30 4032 C 384.076 1.99624 -0.315361 0
M  V30 4033 C 384.397 1.60464 1.10799 0
M  V30 4034 O 383.667 0.863507 1.75842 0
M  V30 4035 H 382.247 0.73831 -0.113611 0
M  V30 4036 H 384.909 1.68878 -0.972952 0
M  V30 4037 H 384.005 3.09754 -0.381931 0
M  V30 4038 N 384.306 0.507319 1.49211 0
M  V30 4039 C 385.553 -0.0349529 2.0247 0
M  V30 4040 C 385.881 -1.36409 1.38647 0
M  V30 4041 O 385.136 -1.88841 0.513566 0
M  V30 4042 C 385.435 -0.229513 3.56662 0
M  V30 4043 C 385.101 1.02241 4.39156 0
M  V30 4044 C 383.763 1.36557 4.61417 0
M  V30 4045 C 386.115 1.85428 4.871 0
M  V30 4046 C 383.443 2.53999 5.28868 0
M  V30 4047 C 385.795 3.02028 5.55843 0
M  V30 4048 C 384.459 3.36717 5.76349 0
M  V30 4049 H 383.729 -0.0127902 0.74089 0
M  V30 4050 H 386.376 0.668756 1.79443 0
M  V30 4051 H 384.681 -1.0158 3.78403 0
M  V30 4052 H 386.378 -0.663641 3.9547 0
M  V30 4053 H 382.968 0.745124 4.22073 0
M  V30 4054 H 387.152 1.6023 4.69723 0
M  V30 4055 H 382.408 2.81105 5.42946 0
M  V30 4056 H 386.582 3.66808 5.91967 0
M  V30 4057 H 384.209 4.27821 6.28389 0
M  V30 4058 N 385.784 -1.5574 0.241426 0
M  V30 4059 C 387.031 -1.9881 -0.384836 0
M  V30 4060 C 387.359 -1.12947 -1.58346 0
M  V30 4061 O 386.614 -0.178993 -1.9488 0
M  V30 4062 C 386.913 -3.47308 -0.843317 0
M  V30 4063 C 386.579 -4.50223 0.246946 0
M  V30 4064 C 385.241 -4.78088 0.546399 0
M  V30 4065 C 387.593 -5.11841 0.983282 0
M  V30 4066 C 384.921 -5.64846 1.58636 0
M  V30 4067 C 387.273 -5.99727 2.01272 0
M  V30 4068 C 385.937 -6.25927 2.31888 0
M  V30 4069 H 385.207 -0.727496 -0.140821 0
M  V30 4070 H 387.854 -1.8831 0.348106 0
M  V30 4071 H 386.159 -3.55112 -1.65537 0
M  V30 4072 H 387.856 -3.78017 -1.33806 0
M  V30 4073 H 384.446 -4.286 0.00340639 0
M  V30 4074 H 388.63 -4.90366 0.765182 0
M  V30 4075 H 383.886 -5.83403 1.82896 0
M  V30 4076 H 388.06 -6.46517 2.58823 0
M  V30 4077 H 385.687 -6.92949 3.12611 0
M  V30 4078 N 387.262 0.0317525 -1.57568 0
M  V30 4079 C 388.225 1.01783 -2.0536 0
M  V30 4080 C 389.225 1.29203 -0.957253 0
M  V30 4081 O 390.415 1.24251 -1.22095 0
M  V30 4082 C 387.547 2.35137 -2.46827 0
M  V30 4083 H 388.74 0.605062 -2.93733 0
M  V30 4084 H 386.293 0.278514 -1.53799 0
M  V30 4085 H 387.028 2.81168 -1.61602 0
M  V30 4086 H 386.813 2.16566 -3.26866 0
M  V30 4087 H 388.303 3.05938 -2.84239 0
M  V30 4088 N 388.74 1.54641 0.303973 0
M  V30 4089 C 390.151 1.64811 0.877163 0
M  V30 4090 C 390.502 0.554838 1.88191 0
M  V30 4091 O 389.627 -0.309033 2.14182 0
M  V30 4092 C 390.222 2.9876 1.59775 0
M  V30 4093 C 388.781 3.11061 2.11938 0
M  V30 4094 C 387.928 2.60479 0.951097 0
M  V30 4095 H 390.879 1.58493 0.0810486 0
M  V30 4096 H 390.9 2.90017 2.46314 0
M  V30 4097 H 390.412 3.7831 0.866226 0
M  V30 4098 H 388.513 2.36225 2.88146 0
M  V30 4099 H 388.626 4.17171 2.35595 0
M  V30 4100 H 386.99 2.16859 1.33583 0
M  V30 4101 H 387.773 3.42504 0.233581 0
M  V30 4102 N 390.218 -0.567019 1.47046 0
M  V30 4103 C 391.467 -1.32091 1.5243 0
M  V30 4104 C 391.78 -1.94704 0.187021 0
M  V30 4105 O 392.986 -2.7124 0.118771 0
M  V30 4106 C 391.442 -2.39479 2.68659 0
M  V30 4107 C 391.05 -1.831 4.08874 0
M  V30 4108 C 392.794 -3.16111 2.83327 0
M  V30 4109 C 390.701 -2.8821 5.16419 0
M  V30 4110 H 389.631 -0.496629 0.56734 0
M  V30 4111 H 392.282 -0.603354 1.73297 0
M  V30 4112 H 390.664 -3.14105 2.41152 0
M  V30 4113 H 391.838 -1.14913 4.46242 0
M  V30 4114 H 390.153 -1.19085 3.99008 0
M  V30 4115 H 392.75 -3.94585 3.60842 0
M  V30 4116 H 393.093 -3.69686 1.91411 0
M  V30 4117 H 393.626 -2.48595 3.10556 0
M  V30 4118 H 390.365 -2.39504 6.10179 0
M  V30 4119 H 389.885 -3.54839 4.8358 0
M  V30 4120 H 391.564 -3.51881 5.42945 0
M  V30 4121 N 391.696 -1.35014 -0.812953 0
M  V30 4122 C 392.945 -1.27269 -1.56479 0
M  V30 4123 C 393.258 0.152771 -1.95002 0
M  V30 4124 O 394.464 0.352451 -2.69203 0
M  V30 4125 C 392.92 -2.23159 -2.82362 0
M  V30 4126 C 392.528 -3.71016 -2.511 0
M  V30 4127 C 394.272 -2.24342 -3.60376 0
M  V30 4128 C 392.179 -4.58746 -3.73237 0
M  V30 4129 H 391.109 -0.472829 -0.587324 0
M  V30 4130 H 393.76 -1.6024 -0.894171 0
M  V30 4131 H 392.142 -1.83151 -3.51101 0
M  V30 4132 H 393.316 -4.1962 -1.90409 0
M  V30 4133 H 391.631 -3.72378 -1.86343 0
M  V30 4134 H 394.228 -2.87107 -4.51081 0
M  V30 4135 H 394.571 -1.24542 -3.97234 0
M  V30 4136 H 395.104 -2.62846 -2.98591 0
M  V30 4137 H 391.843 -5.59521 -3.41492 0
M  V30 4138 H 391.363 -4.14871 -4.33176 0
M  V30 4139 H 393.042 -4.73852 -4.40537 0
M  V30 4140 N 393.175 1.03435 -1.18907 0
M  V30 4141 C 394.422 1.76743 -0.988334 0
M  V30 4142 C 394.75 1.88447 0.481441 0
M  V30 4143 O 394.005 1.39383 1.37371 0
M  V30 4144 C 394.304 3.19792 -1.59586 0
M  V30 4145 C 393.97 3.28108 -3.09283 0
M  V30 4146 C 392.632 3.30084 -3.5014 0
M  V30 4147 C 394.984 3.27696 -4.05296 0
M  V30 4148 C 392.312 3.29299 -4.85571 0
M  V30 4149 C 394.664 3.28451 -5.4065 0
M  V30 4150 C 393.328 3.28723 -5.80946 0
M  V30 4151 H 392.598 0.64675 -0.361657 0
M  V30 4152 H 395.245 1.21442 -1.48068 0
M  V30 4153 H 393.55 3.78136 -1.02568 0
M  V30 4154 H 395.247 3.75171 -1.41589 0
M  V30 4155 H 391.837 3.27294 -2.76725 0
M  V30 4156 H 396.021 3.25354 -3.74778 0
M  V30 4157 H 391.277 3.2783 -5.16079 0
M  V30 4158 H 395.451 3.27082 -6.14809 0
M  V30 4159 H 393.078 3.27868 -6.85862 0
M  V30 4160 N 394.653 0.992116 1.22453 0
M  V30 4161 C 395.583 0.561677 2.26644 0
M  V30 4162 C 396.564 -0.411055 1.65059 0
M  V30 4163 O 397.749 -0.301861 1.9184 0
M  V30 4164 C 394.879 -0.125247 3.47074 0
M  V30 4165 C 393.833 0.765948 4.21091 0
M  V30 4166 C 393.159 -0.0538484 5.34673 0
M  V30 4167 C 394.459 2.06242 4.79856 0
M  V30 4168 H 396.153 1.43259 2.62902 0
M  V30 4169 H 393.699 0.690283 1.26377 0
M  V30 4170 H 395.652 -0.437764 4.1912 0
M  V30 4171 H 394.376 -1.03069 3.0991 0
M  V30 4172 H 393.035 1.0621 3.50878 0
M  V30 4173 H 392.683 -0.960188 4.9375 0
M  V30 4174 H 392.383 0.539415 5.85119 0
M  V30 4175 H 393.907 -0.360477 6.09535 0
M  V30 4176 H 395.321 1.8139 5.43848 0
M  V30 4177 H 393.718 2.60444 5.40638 0
M  V30 4178 H 394.788 2.74167 3.99951 0
M  V30 4179 N 396.131 -1.37776 0.765217 0
M  V30 4180 C 397.094 -2.28686 0.153416 0
M  V30 4181 C 398.094 -1.47727 -0.635081 0
M  V30 4182 O 399.284 -1.68027 -0.459632 0
M  V30 4183 C 396.416 -3.31608 -0.790495 0
M  V30 4184 H 397.609 -2.84297 0.954723 0
M  V30 4185 H 395.162 -1.46932 0.53299 0
M  V30 4186 H 395.897 -2.81109 -1.61705 0
M  V30 4187 H 395.682 -3.9144 -0.227348 0
M  V30 4188 H 397.172 -3.99559 -1.21419 0
M  V30 4189 N 397.609 -0.515225 -1.4894 0
M  V30 4190 C 399.02 -0.0710067 -1.86565 0
M  V30 4191 C 399.371 1.34733 -1.42623 0
M  V30 4192 O 398.496 2.00653 -0.810379 0
M  V30 4193 C 399.091 -0.122083 -3.3858 0
M  V30 4194 C 397.65 0.266863 -3.75453 0
M  V30 4195 C 396.797 -0.488376 -2.72966 0
M  V30 4196 H 399.748 -0.727266 -1.41055 0
M  V30 4197 H 399.769 0.669818 -3.74558 0
M  V30 4198 H 399.281 -1.15448 -3.70531 0
M  V30 4199 H 397.382 1.30196 -3.49113 0
M  V30 4200 H 397.495 -0.0624811 -4.79059 0
M  V30 4201 H 395.859 0.0635622 -2.54621 0
M  V30 4202 H 396.642 -1.52113 -3.07761 0
M  V30 4203 N 399.087 1.5561 -0.249682 0
M  V30 4204 C 400.317 2.03116 0.377803 0
M  V30 4205 C 400.725 1.12822 1.51881 0
M  V30 4206 O 400.068 0.13562 1.83199 0
M  V30 4207 C 400.13 3.46866 0.944693 0
M  V30 4208 C 399.794 4.56955 -0.0644259 0
M  V30 4209 C 400.791 5.12485 -0.874957 0
M  V30 4210 C 398.476 5.01936 -0.19132 0
M  V30 4211 C 400.47 6.11491 -1.79881 0
M  V30 4212 C 398.157 6.00773 -1.11868 0
M  V30 4213 C 399.155 6.5543 -1.92095 0
M  V30 4214 O 398.843 7.5234 -2.83267 0
M  V30 4215 H 398.575 0.669489 0.0935961 0
M  V30 4216 H 401.129 2.02004 -0.371966 0
M  V30 4217 H 399.359 3.45136 1.74407 0
M  V30 4218 H 401.048 3.77856 1.48255 0
M  V30 4219 H 401.814 4.78564 -0.787523 0
M  V30 4220 H 397.693 4.59055 0.423072 0
M  V30 4221 H 401.237 6.54078 -2.42543 0
M  V30 4222 H 397.134 6.34114 -1.20703 0
M  V30 4223 H 397.902 7.69966 -2.7766 0
M  V30 4224 N 400.565 -0.0233959 1.57583 0
M  V30 4225 C 401.528 -1.00693 2.05897 0
M  V30 4226 C 402.528 -1.28693 0.964092 0
M  V30 4227 O 403.718 -1.23602 1.22753 0
M  V30 4228 C 400.85 -2.33825 2.4807 0
M  V30 4229 H 402.043 -0.589476 2.9405 0
M  V30 4230 H 399.596 -0.270354 1.53944 0
M  V30 4231 H 400.331 -2.80307 1.6309 0
M  V30 4232 H 400.116 -2.1483 3.2801 0
M  V30 4233 H 401.606 -3.04426 2.85857 0
M  V30 4234 N 402.043 -1.548 -0.295768 0
M  V30 4235 C 402.99 -1.86113 -1.36494 0
M  V30 4236 C 403.96 -0.7105 -1.50137 0
M  V30 4237 O 405.145 -0.959626 -1.64912 0
M  V30 4238 C 402.285 -2.11861 -2.72413 0
M  V30 4239 C 401.398 -3.39471 -2.67177 0
M  V30 4240 C 400.533 -3.55035 -3.95125 0
M  V30 4241 C 399.572 -4.76418 -3.84308 0
M  V30 4242 N 398.709 -4.8876 -5.04042 0
M  V30 4243 H 403.549 -2.77314 -1.09091 0
M  V30 4244 H 401.086 -1.37315 -0.52753 0
M  V30 4245 H 403.044 -2.24786 -3.51464 0
M  V30 4246 H 401.674 -1.2392 -2.98066 0
M  V30 4247 H 400.726 -3.35139 -1.79962 0
M  V30 4248 H 402.038 -4.28646 -2.55076 0
M  V30 4249 H 401.192 -3.67653 -4.82614 0
M  V30 4250 H 399.931 -2.64002 -4.10066 0
M  V30 4251 H 398.936 -4.63827 -2.95202 0
M  V30 4252 H 400.161 -5.68863 -3.70906 0
M  V30 4253 H 398.107 -4.00652 -5.19436 0
M  V30 4254 H 398.024 -5.71945 -4.94384 0
M  V30 4255 H 399.292 -5.0574 -5.93167 0
M  V30 4256 N 403.521 0.559213 -1.47345 0
M  V30 4257 C 404.798 1.31997 -1.44348 0
M  V30 4258 C 405.178 2.1064 -0.139358 0
M  V30 4259 O 404.526 2.1091 0.879153 0
M  V30 4260 C 404.736 2.22618 -2.68779 0
M  V30 4261 C 406.084 2.83701 -3.1591 0
M  V30 4262 O 407.108 2.32921 -2.69493 0
M  V30 4263 O 405.967 3.75993 -3.966 0
M  V30 4264 H 403.061 0.594251 -0.575147 0
M  V30 4265 H 405.607 0.578282 -1.59543 0
M  V30 4266 H 404.379 1.64093 -3.55231 0
M  V30 4267 H 404.002 3.04085 -2.5616 0
M  V30 4268 N 404.999 1.35443 0.805782 0
M  V30 4269 C 405.931 1.24285 1.92577 0
M  V30 4270 C 406.944 0.165962 1.61952 0
M  V30 4271 O 408.133 0.419303 1.73505 0
M  V30 4272 C 405.233 0.891272 3.2697 0
M  V30 4273 C 404.406 2.06669 3.85495 0
M  V30 4274 C 403.465 1.69077 4.98297 0
M  V30 4275 O 402.491 2.4096 5.15681 0
M  V30 4276 N 403.693 0.614869 5.77234 0
M  V30 4277 H 406.458 2.20777 2.02676 0
M  V30 4278 H 404.019 1.28623 0.983243 0
M  V30 4279 H 406.011 0.621256 3.99903 0
M  V30 4280 H 404.581 0.016004 3.12596 0
M  V30 4281 H 403.801 2.50046 3.04747 0
M  V30 4282 H 405.089 2.85237 4.21328 0
M  V30 4283 H 404.487 0.017648 5.65697 0
M  V30 4284 H 403.044 0.404636 6.50543 0
M  V30 4285 N 406.477 -1.02803 1.19454 0
M  V30 4286 C 407.725 -1.75869 0.995722 0
M  V30 4287 C 408.046 -1.89138 -0.474543 0
M  V30 4288 O 407.316 -1.42558 -1.34366 0
M  V30 4289 H 405.896 -0.651511 0.365435 0
M  V30 4290 H 408.558 -1.24004 1.50363 0
M  V30 4291 H 407.654 -2.76661 1.44447 0
M  V30 4292 N 407.956 -0.998596 -1.21925 0
M  V30 4293 C 409.205 -0.673085 -1.90138 0
M  V30 4294 C 409.518 0.79895 -1.78539 0
M  V30 4295 O 410.724 1.23628 -2.4172 0
M  V30 4296 C 409.18 -1.15339 -3.40918 0
M  V30 4297 C 408.788 -2.65106 -3.61141 0
M  V30 4298 C 410.532 -0.902476 -4.14796 0
M  V30 4299 C 408.439 -3.0671 -5.05651 0
M  V30 4300 H 407.369 -0.248057 -0.712028 0
M  V30 4301 H 410.02 -1.20891 -1.38049 0
M  V30 4302 H 408.402 -0.545658 -3.92223 0
M  V30 4303 H 409.576 -3.31274 -3.20304 0
M  V30 4304 H 407.891 -2.88142 -3.00605 0
M  V30 4305 H 410.488 -1.18895 -5.21314 0
M  V30 4306 H 410.831 0.161349 -4.15987 0
M  V30 4307 H 411.364 -1.47269 -3.69536 0
M  V30 4308 H 408.103 -4.12292 -5.09603 0
M  V30 4309 H 407.623 -2.45249 -5.47369 0
M  V30 4310 H 409.302 -2.9833 -5.74115 0
M  V30 4311 N 409.434 1.37368 -0.772513 0
M  V30 4312 C 410.711 1.93839 -0.26188 0
M  V30 4313 C 411.091 1.7061 1.24319 0
M  V30 4314 O 410.439 1.05534 2.02669 0
M  V30 4315 C 410.649 3.43154 -0.636102 0
M  V30 4316 C 411.997 4.20249 -0.606324 0
M  V30 4317 O 413.021 3.5152 -0.575538 0
M  V30 4318 O 411.88 5.42809 -0.634086 0
M  V30 4319 H 408.974 0.82478 -0.0605555 0
M  V30 4320 H 411.52 1.4665 -0.853917 0
M  V30 4321 H 410.292 3.53647 -1.6748 0
M  V30 4322 H 409.915 3.97596 -0.0170516 0
M  V30 4323 N 410.912 0.523116 1.48665 0
M  V30 4324 C 411.822 -0.247406 2.33292 0
M  V30 4325 C 412.838 -0.945769 1.46052 0
M  V30 4326 O 414.014 -0.922253 1.79043 0
M  V30 4327 C 411.079 -1.28487 3.22012 0
M  V30 4328 C 410.14 -0.597592 4.2512 0
M  V30 4329 C 409.373 -1.58563 5.09601 0
M  V30 4330 O 409.596 -2.81763 4.95949 0
M  V30 4331 O 408.53 -1.12879 5.91221 0
M  V30 4332 H 412.356 0.445869 3.00409 0
M  V30 4333 H 409.941 0.284128 1.46673 0
M  V30 4334 H 411.823 -1.88459 3.7691 0
M  V30 4335 H 410.498 -1.96068 2.57564 0
M  V30 4336 H 409.405 0.0424407 3.74076 0
M  V30 4337 H 410.738 0.0361517 4.92187 0
M  V30 4338 N 412.39 -1.55475 0.257931 0
M  V30 4339 C 413.62 -2.03314 -0.367026 0
M  V30 4340 C 414.028 -1.13625 -1.51281 0
M  V30 4341 O 413.371 -0.145334 -1.83124 0
M  V30 4342 C 413.433 -3.47362 -0.926284 0
M  V30 4343 C 413.097 -4.56914 0.0886584 0
M  V30 4344 C 414.094 -5.12013 0.902123 0
M  V30 4345 C 411.779 -5.01827 0.217936 0
M  V30 4346 C 413.773 -6.10529 1.83122 0
M  V30 4347 C 411.46 -6.00172 1.15052 0
M  V30 4348 C 412.458 -6.54402 1.95568 0
M  V30 4349 O 412.146 -7.50827 2.87253 0
M  V30 4350 H 411.878 -0.669976 -0.0900443 0
M  V30 4351 H 414.432 -2.01804 0.382673 0
M  V30 4352 H 412.662 -3.46056 -1.72575 0
M  V30 4353 H 414.351 -3.78637 -1.46249 0
M  V30 4354 H 415.117 -4.78139 0.812891 0
M  V30 4355 H 410.996 -4.59272 -0.398721 0
M  V30 4356 H 414.54 -6.52783 2.46008 0
M  V30 4357 H 410.437 -6.33465 1.24064 0
M  V30 4358 H 411.205 -7.68483 2.81739 0
M  V30 4359 N 413.868 0.0150385 -1.57593 0
M  V30 4360 C 415.093 0.718067 -1.94573 0
M  V30 4361 C 415.518 1.6734 -0.859005 0
M  V30 4362 O 414.876 1.80362 0.184147 0
M  V30 4363 C 414.924 1.43918 -3.30636 0
M  V30 4364 O 414.028 2.55299 -3.23876 0
M  V30 4365 H 413.369 0.192125 -0.635597 0
M  V30 4366 H 415.899 -0.0336708 -2.04572 0
M  V30 4367 H 415.909 1.80598 -3.65853 0
M  V30 4368 H 414.584 0.738619 -4.09289 0
M  V30 4369 H 413.161 2.21058 -3.00312 0
M  V30 4370 N 415.346 1.54954 0.287554 0
M  V30 4371 C 416.309 1.86076 1.33823 0
M  V30 4372 C 417.309 0.734414 1.43049 0
M  V30 4373 O 418.499 1.00266 1.42452 0
M  V30 4374 C 415.631 2.05305 2.72144 0
M  V30 4375 H 416.824 2.79984 1.07465 0
M  V30 4376 H 414.377 1.47223 0.524902 0
M  V30 4377 H 415.112 1.1373 3.03704 0
M  V30 4378 H 414.897 2.873 2.66836 0
M  V30 4379 H 416.387 2.30706 3.48087 0
M  V30 4380 N 416.824 -0.551391 1.4764 0
M  V30 4381 C 417.787 -1.64007 1.60107 0
M  V30 4382 C 418.787 -1.53601 0.47576 0
M  V30 4383 O 419.977 -1.57655 0.740988 0
M  V30 4384 C 417.109 -3.03569 1.55108 0
M  V30 4385 H 418.302 -1.543 2.57161 0
M  V30 4386 H 415.855 -0.771776 1.35917 0
M  V30 4387 H 416.59 -3.18804 0.594519 0
M  V30 4388 H 416.375 -3.12532 2.36783 0
M  V30 4389 H 417.865 -3.82762 1.66982 0
M  V30 4390 N 418.302 -1.35869 -0.798587 0
M  V30 4391 C 419.549 -1.29588 -1.55606 0
M  V30 4392 C 419.877 0.127456 -1.94082 0
M  V30 4393 O 419.132 1.09461 -1.62225 0
M  V30 4394 C 419.431 -2.1556 -2.85077 0
M  V30 4395 C 419.097 -3.6424 -2.65781 0
M  V30 4396 C 417.759 -4.04766 -2.60227 0
M  V30 4397 C 420.111 -4.58547 -2.47758 0
M  V30 4398 C 417.439 -5.37753 -2.34603 0
M  V30 4399 C 419.791 -5.91742 -2.23662 0
M  V30 4400 C 418.455 -6.31402 -2.16534 0
M  V30 4401 H 417.725 -0.474197 -0.569402 0
M  V30 4402 H 420.372 -1.67839 -0.922086 0
M  V30 4403 H 418.677 -1.70216 -3.52893 0
M  V30 4404 H 420.374 -2.08031 -3.42818 0
M  V30 4405 H 416.964 -3.32086 -2.70956 0
M  V30 4406 H 421.148 -4.28117 -2.51056 0
M  V30 4407 H 416.404 -5.67474 -2.2756 0
M  V30 4408 H 420.578 -6.6439 -2.08708 0
M  V30 4409 H 418.205 -7.34381 -1.96441 0
M  V30 4410 N 419.78 1.02168 -1.19998 0
M  V30 4411 C 420.71 2.12488 -0.96804 0
M  V30 4412 C 421.691 1.69799 0.101185 0
M  V30 4413 O 422.876 1.94121 -0.0552993 0
M  V30 4414 C 420.006 3.43479 -0.513776 0
M  V30 4415 C 418.96 3.99884 -1.52566 0
M  V30 4416 C 418.286 5.26582 -0.928214 0
M  V30 4417 C 419.586 4.33861 -2.90795 0
M  V30 4418 H 421.28 2.32149 -1.89069 0
M  V30 4419 H 418.826 1.11564 -0.910468 0
M  V30 4420 H 420.779 4.20036 -0.338774 0
M  V30 4421 H 419.503 3.23561 0.444493 0
M  V30 4422 H 418.162 3.25429 -1.68794 0
M  V30 4423 H 417.81 5.02986 0.0378289 0
M  V30 4424 H 417.51 5.65284 -1.60397 0
M  V30 4425 H 419.034 6.05799 -0.764167 0
M  V30 4426 H 420.448 5.01327 -2.78109 0
M  V30 4427 H 418.845 4.83664 -3.55231 0
M  V30 4428 H 419.915 3.42848 -3.42904 0
M  V30 4429 N 421.258 1.00505 1.21394 0
M  V30 4430 C 422.188 0.585684 2.26035 0
M  V30 4431 C 423.169 -0.393525 1.65485 0
M  V30 4432 O 424.354 -0.281497 1.92149 0
M  V30 4433 C 421.484 -0.0884283 3.47187 0
M  V30 4434 C 420.438 0.810567 4.20254 0
M  V30 4435 C 419.764 0.00286382 5.347 0
M  V30 4436 C 421.064 2.1132 4.77641 0
M  V30 4437 H 422.758 1.46039 2.61368 0
M  V30 4438 H 420.304 0.703648 1.25638 0
M  V30 4439 H 422.257 -0.393286 4.19561 0
M  V30 4440 H 420.981 -0.997766 3.10986 0
M  V30 4441 H 419.64 1.09925 3.49731 0
M  V30 4442 H 419.288 -0.907765 4.94741 0
M  V30 4443 H 418.988 0.601444 5.84514 0
M  V30 4444 H 420.512 -0.295808 6.09883 0
M  V30 4445 H 421.926 1.87148 5.41893 0
M  V30 4446 H 420.323 2.66164 5.37845 0
M  V30 4447 H 421.393 2.78393 3.9702 0
M  V30 4448 N 422.737 -1.36956 0.779787 0
M  V30 4449 C 423.962 -2.04283 0.358224 0
M  V30 4450 C 424.387 -1.58422 -1.01411 0
M  V30 4451 O 423.745 -0.748179 -1.65142 0
M  V30 4452 C 423.793 -3.58152 0.419479 0
M  V30 4453 O 422.897 -4.08342 -0.577142 0
M  V30 4454 H 422.238 -0.645967 0.153698 0
M  V30 4455 H 424.768 -1.75108 1.05822 0
M  V30 4456 H 424.778 -4.07041 0.279636 0
M  V30 4457 H 423.453 -3.90886 1.42061 0
M  V30 4458 H 422.03 -3.70751 -0.399755 0
M  V30 4459 N 424.215 -0.530993 -1.48385 0
M  V30 4460 C 425.461 0.00274135 -2.028 0
M  V30 4461 C 425.794 1.33838 -1.40716 0
M  V30 4462 O 425.069 1.86465 -0.553277 0
M  V30 4463 C 425.352 0.123676 -3.59888 0
M  V30 4464 C 425.205 -1.2372 -4.3245 0
M  V30 4465 C 426.524 0.849967 -4.31814 0
M  V30 4466 H 423.643 -0.000477758 -0.737 0
M  V30 4467 H 426.285 -0.688217 -1.77098 0
M  V30 4468 H 424.435 0.712157 -3.81917 0
M  V30 4469 H 426.107 -1.86687 -4.21836 0
M  V30 4470 H 424.35 -1.81882 -3.93829 0
M  V30 4471 H 425.021 -1.10557 -5.40815 0
M  V30 4472 H 427.497 0.350572 -4.14621 0
M  V30 4473 H 426.373 0.903486 -5.41413 0
M  V30 4474 H 426.634 1.90047 -3.99167 0
M  V30 4475 N 425.693 1.55336 -0.266172 0
M  V30 4476 C 426.626 2.18256 0.666296 0
M  V30 4477 C 427.604 1.14064 1.1588 0
M  V30 4478 O 428.788 1.42546 1.23341 0
M  V30 4479 C 425.915 2.79867 1.90768 0
M  V30 4480 C 424.961 3.97283 1.55141 0
M  V30 4481 S 425.794 5.31694 0.637313 0
M  V30 4482 C 426.95 5.96769 1.88727 0
M  V30 4483 H 427.183 2.97008 0.131647 0
M  V30 4484 H 424.716 1.54317 -0.0504869 0
M  V30 4485 H 426.674 3.15996 2.62025 0
M  V30 4486 H 425.335 2.01025 2.41346 0
M  V30 4487 H 424.528 4.3905 2.4749 0
M  V30 4488 H 424.13 3.6253 0.919113 0
M  V30 4489 H 426.422 6.15458 2.83227 0
M  V30 4490 H 427.365 6.91752 1.51276 0
M  V30 4491 H 427.773 5.26034 2.04814 0
M  V30 4492 N 427.171 -0.0066808 1.57599 0
M  V30 4493 C 428.134 -0.985035 2.06953 0
M  V30 4494 C 429.134 -1.27663 0.977687 0
M  V30 4495 O 430.324 -1.22293 1.24057 0
M  V30 4496 C 427.456 -2.3118 2.50536 0
M  V30 4497 H 428.649 -0.558255 2.94658 0
M  V30 4498 H 426.202 -0.254011 1.54222 0
M  V30 4499 H 426.937 -2.78561 1.66054 0
M  V30 4500 H 426.722 -2.11338 3.3027 0
M  V30 4501 H 428.212 -3.01377 2.8907 0
M  V30 4502 N 428.649 -1.55105 -0.279332 0
M  V30 4503 C 429.896 -1.75412 -1.01177 0
M  V30 4504 C 430.224 -0.551728 -1.86511 0
M  V30 4505 O 429.479 0.465919 -1.90073 0
M  V30 4506 C 429.778 -3.0086 -1.92919 0
M  V30 4507 C 429.444 -4.33689 -1.23387 0
M  V30 4508 C 428.106 -4.69792 -1.04159 0
M  V30 4509 C 430.458 -5.15941 -0.738562 0
M  V30 4510 C 427.786 -5.85707 -0.341166 0
M  V30 4511 C 430.138 -6.32579 -0.0517636 0
M  V30 4512 C 428.802 -6.67326 0.152292 0
M  V30 4513 H 428.072 -0.641879 -0.370233 0
M  V30 4514 H 430.719 -1.89373 -0.284627 0
M  V30 4515 H 429.024 -2.81773 -2.72234 0
M  V30 4516 H 430.721 -3.13768 -2.49701 0
M  V30 4517 H 427.311 -4.05309 -1.39364 0
M  V30 4518 H 431.495 -4.8853 -0.874764 0
M  V30 4519 H 426.751 -6.11157 -0.172287 0
M  V30 4520 H 430.925 -6.9557 0.339828 0
M  V30 4521 H 428.552 -7.56998 0.697014 0
M  V30 4522 N 430.127 0.543554 -1.4793 0
M  V30 4523 C 431.373 1.30201 -1.55485 0
M  V30 4524 C 431.706 1.92925 -0.222201 0
M  V30 4525 O 430.981 1.78586 0.77053 0
M  V30 4526 C 431.264 2.40174 -2.68307 0
M  V30 4527 C 431.117 1.8223 -4.11233 0
M  V30 4528 C 432.436 3.42024 -2.76961 0
M  V30 4529 H 429.555 0.472036 -0.565996 0
M  V30 4530 H 432.197 0.606914 -1.80046 0
M  V30 4531 H 430.347 2.99463 -2.47495 0
M  V30 4532 H 432.019 1.27096 -4.43446 0
M  V30 4533 H 430.262 1.12832 -4.18869 0
M  V30 4534 H 430.933 2.61793 -4.85972 0
M  V30 4535 H 433.409 2.92672 -2.95774 0
M  V30 4536 H 432.285 4.16383 -3.57654 0
M  V30 4537 H 432.546 4.0173 -1.84568 0
M  V30 4538 N 431.605 1.3629 0.791371 0
M  V30 4539 C 432.882 1.20962 1.53712 0
M  V30 4540 C 433.262 -0.205021 2.10102 0
M  V30 4541 O 432.61 -1.21042 1.93807 0
M  V30 4542 C 432.82 2.29002 2.63361 0
M  V30 4543 C 434.168 2.65572 3.31295 0
M  V30 4544 O 435.192 2.2803 2.73643 0
M  V30 4545 O 434.051 3.3018 4.35481 0
M  V30 4546 H 431.145 0.47086 0.679867 0
M  V30 4547 H 433.691 1.48016 0.830021 0
M  V30 4548 H 432.463 3.2382 2.19674 0
M  V30 4549 H 432.086 2.03303 3.41692 0
M  V30 4550 N 433.083 -1.0153 1.20538 0
M  V30 4551 C 434.016 -2.09759 0.898695 0
M  V30 4552 C 434.994 -1.61909 -0.149733 0
M  V30 4553 O 436.178 -1.88486 -0.0230293 0
M  V30 4554 C 433.305 -3.36913 0.347512 0
M  V30 4555 C 432.351 -4.03655 1.37713 0
M  V30 4556 S 433.184 -4.47402 2.94265 0
M  V30 4557 C 434.34 -5.77756 2.40726 0
M  V30 4558 H 434.573 -2.3545 1.81523 0
M  V30 4559 H 432.106 -1.14665 1.03399 0
M  V30 4560 H 434.064 -4.10484 0.0360518 0
M  V30 4561 H 432.725 -3.09291 -0.547546 0
M  V30 4562 H 431.918 -4.9514 0.940872 0
M  V30 4563 H 431.52 -3.36313 1.63614 0
M  V30 4564 H 433.812 -6.52994 1.80569 0
M  V30 4565 H 434.755 -6.2618 3.30612 0
M  V30 4566 H 435.163 -5.34081 1.82806 0
M  V30 4567 N 434.561 -1.01147 -1.20859 0
M  V30 4568 C 435.808 -0.697865 -1.90095 0
M  V30 4569 C 436.136 0.772014 -1.78522 0
M  V30 4570 O 435.391 1.57595 -1.16027 0
M  V30 4571 C 435.69 -1.0727 -3.40922 0
M  V30 4572 C 435.356 -2.53792 -3.72693 0
M  V30 4573 C 434.018 -2.93829 -3.81075 0
M  V30 4574 C 436.37 -3.48674 -3.87397 0
M  V30 4575 C 433.698 -4.27696 -4.01613 0
M  V30 4576 C 436.05 -4.82223 -4.09444 0
M  V30 4577 C 434.714 -5.21973 -4.16054 0
M  V30 4578 H 433.984 -0.255367 -0.695607 0
M  V30 4579 H 436.631 -1.27111 -1.43231 0
M  V30 4580 H 434.936 -0.417799 -3.89566 0
M  V30 4581 H 436.633 -0.807818 -3.92779 0
M  V30 4582 H 433.223 -2.21768 -3.66765 0
M  V30 4583 H 437.407 -3.18904 -3.80281 0
M  V30 4584 H 432.663 -4.58055 -4.04964 0
M  V30 4585 H 436.837 -5.55672 -4.19763 0
M  V30 4586 H 434.464 -6.25717 -4.31721 0
M  V30 4587 N 436.039 1.36541 -0.78704 0
M  V30 4588 C 437.002 2.28413 -0.189778 0
M  V30 4589 C 438.002 1.48719 0.611499 0
M  V30 4590 O 439.192 1.68737 0.432842 0
M  V30 4591 C 436.324 3.32824 0.737638 0
M  V30 4592 H 437.517 2.82743 -0.999831 0
M  V30 4593 H 435.07 1.46065 -0.556298 0
M  V30 4594 H 435.805 2.83646 1.57212 0
M  V30 4595 H 435.59 3.91752 0.165044 0
M  V30 4596 H 437.08 4.0144 1.15047 0
M  V30 4597 N 437.518 0.538854 1.48102 0
M  V30 4598 C 438.934 0.19732 1.58376 0
M  V30 4599 C 439.134 -1.29971 1.5398 0
M  V30 4600 O 438.19 -2.07861 1.43352 0
M  V30 4601 C 439.503 0.807716 2.89649 0
M  V30 4602 C 441.051 0.77726 3.03196 0
M  V30 4603 C 441.526 1.36639 4.37143 0
M  V30 4604 N 443.017 1.32875 4.43732 0
M  V30 4605 C 443.752 1.7544 5.45901 0
M  V30 4606 N 443.248 2.25776 6.54979 0
M  V30 4607 N 445.041 1.66623 5.36836 0
M  V30 4608 H 437.192 1.5117 1.49202 0
M  V30 4609 H 439.455 0.629327 0.708979 0
M  V30 4610 H 439.161 1.85909 2.98548 0
M  V30 4611 H 439.035 0.289975 3.76084 0
M  V30 4612 H 441.422 -0.265374 2.93904 0
M  V30 4613 H 441.503 1.33256 2.18349 0
M  V30 4614 H 441.147 2.408 4.47189 0
M  V30 4615 H 441.077 0.786689 5.20691 0
M  V30 4616 H 443.568 0.96037 3.65493 0
M  V30 4617 H 443.881 2.56226 7.29087 0
M  V30 4618 H 442.226 2.29775 6.55918 0
M  V30 4619 H 445.417 1.27089 4.50517 0
M  V30 4620 H 445.59 2.00115 6.16326 0
M  V30 4621 N 438.996 -1.55193 0.274407 0
M  V30 4622 C 440.407 -1.85358 -0.223488 0
M  V30 4623 C 440.758 -1.19642 -1.555 0
M  V30 4624 O 439.883 -0.484498 -2.10907 0
M  V30 4625 C 440.478 -3.36282 -0.412285 0
M  V30 4626 C 439.037 -3.66574 -0.854413 0
M  V30 4627 C 438.184 -2.7725 0.0527056 0
M  V30 4628 H 441.135 -1.50743 0.496215 0
M  V30 4629 H 441.156 -3.59349 -1.25094 0
M  V30 4630 H 440.668 -3.84083 0.556965 0
M  V30 4631 H 438.769 -3.24273 -1.83516 0
M  V30 4632 H 438.882 -4.74073 -0.692226 0
M  V30 4633 H 437.246 -2.50447 -0.463484 0
M  V30 4634 H 438.029 -3.27865 1.01783 0
M  V30 4635 N 440.474 -0.00167713 -1.576 0
M  V30 4636 C 441.699 0.69739 -1.95323 0
M  V30 4637 C 442.124 1.6642 -0.876706 0
M  V30 4638 O 441.482 1.80548 0.165007 0
M  V30 4639 C 441.53 1.40403 -3.32144 0
M  V30 4640 O 440.634 2.5185 -3.26566 0
M  V30 4641 H 439.975 0.185373 -0.637599 0
M  V30 4642 H 442.505 -0.0553665 -2.04525 0
M  V30 4643 H 442.515 1.76707 -3.67748 0
M  V30 4644 H 441.19 0.695167 -4.10049 0
M  V30 4645 H 439.767 2.17861 -3.0264 0
M  V30 4646 N 441.952 1.55251 0.271103 0
M  V30 4647 C 443.198 1.76207 1.00394 0
M  V30 4648 C 443.531 0.562604 1.85872 0
M  V30 4649 O 442.806 -0.439785 1.89463 0
M  V30 4650 C 443.089 3.06828 1.8849 0
M  V30 4651 C 442.942 4.37134 1.05992 0
M  V30 4652 C 444.261 3.33503 2.87165 0
M  V30 4653 H 441.38 0.641086 0.363562 0
M  V30 4654 H 444.022 1.87982 0.276189 0
M  V30 4655 H 442.172 2.96921 2.5054 0
M  V30 4656 H 443.844 4.59001 0.459978 0
M  V30 4657 H 442.087 4.32275 0.363443 0
M  V30 4658 H 442.758 5.2486 1.70955 0
M  V30 4659 H 445.234 3.43215 2.3525 0
M  V30 4660 H 444.11 4.2616 3.45946 0
M  V30 4661 H 444.371 2.53235 3.62387 0
M  V30 4662 N 443.43 -0.535701 1.48216 0
M  V30 4663 C 444.678 -1.28928 1.55634 0
M  V30 4664 C 444.999 -1.93645 0.229514 0
M  V30 4665 O 444.269 -1.81038 -0.74846 0
M  V30 4666 H 442.849 -0.47884 0.573342 0
M  V30 4667 H 445.511 -0.623853 1.84646 0
M  V30 4668 H 444.607 -2.07157 2.33436 0
M  V30 4669 N 444.908 -1.36708 -0.784132 0
M  V30 4670 C 445.838 -1.34153 -1.91116 0
M  V30 4671 C 446.819 -0.212121 -1.68772 0
M  V30 4672 O 448.004 -0.410581 -1.8981 0
M  V30 4673 C 445.134 -1.13535 -3.28218 0
M  V30 4674 C 444.088 -2.23356 -3.65097 0
M  V30 4675 C 443.414 -1.87875 -5.00607 0
M  V30 4676 C 444.714 -3.65473 -3.73131 0
M  V30 4677 H 446.408 -2.28459 -1.93512 0
M  V30 4678 H 443.954 -1.09973 -0.929618 0
M  V30 4679 H 445.907 -1.10381 -4.06687 0
M  V30 4680 H 444.631 -0.156804 -3.26223 0
M  V30 4681 H 443.29 -2.25645 -2.88929 0
M  V30 4682 H 442.938 -0.885814 -4.95139 0
M  V30 4683 H 442.638 -2.61406 -5.26252 0
M  V30 4684 H 444.162 -1.86286 -5.81489 0
M  V30 4685 H 445.576 -3.65382 -4.41779 0
M  V30 4686 H 443.973 -4.37953 -4.10265 0
M  V30 4687 H 445.043 -3.99995 -2.74102 0
M  V30 4688 N 446.386 1.0089 -1.21074 0
M  V30 4689 C 447.635 1.74019 -1.01981 0
M  V30 4690 C 447.948 1.90408 0.447665 0
M  V30 4691 O 449.154 2.60707 0.757906 0
M  V30 4692 C 447.61 3.13026 -1.77603 0
M  V30 4693 C 447.218 3.04623 -3.28495 0
M  V30 4694 C 448.962 3.90312 -1.66904 0
M  V30 4695 C 446.869 4.38685 -3.96623 0
M  V30 4696 H 445.799 0.652422 -0.377971 0
M  V30 4697 H 448.45 1.12755 -1.44771 0
M  V30 4698 H 446.832 3.74878 -1.27604 0
M  V30 4699 H 448.006 2.52032 -3.85767 0
M  V30 4700 H 446.321 2.40827 -3.39693 0
M  V30 4701 H 448.918 4.8951 -2.15138 0
M  V30 4702 H 449.261 4.11558 -0.62658 0
M  V30 4703 H 449.794 3.35104 -2.14359 0
M  V30 4704 H 446.533 4.22641 -5.01054 0
M  V30 4705 H 446.053 4.91252 -3.4414 0
M  V30 4706 H 447.732 5.075 -4.01314 0
M  V30 4707 N 447.864 1.01787 1.20321 0
M  V30 4708 C 448.827 0.593972 2.2137 0
M  V30 4709 C 449.827 -0.336553 1.57239 0
M  V30 4710 O 451.017 -0.125069 1.7375 0
M  V30 4711 C 448.149 -0.132433 3.40643 0
M  V30 4712 H 449.342 1.48791 2.60387 0
M  V30 4713 H 446.895 0.807803 1.33807 0
M  V30 4714 H 447.63 -1.04123 3.0713 0
M  V30 4715 H 447.415 0.53605 3.88418 0
M  V30 4716 H 448.905 -0.416314 4.1552 0
M  V30 4717 N 449.342 -1.36122 0.79427 0
M  V30 4718 C 450.29 -2.31871 0.184023 0
M  V30 4719 C 451.284 -1.56041 -0.659365 0
M  V30 4720 O 452.49 -1.71266 -0.553906 0
M  V30 4721 H 448.865 -0.750896 0.0407373 0
M  V30 4722 H 450.836 -2.80898 1.00693 0
M  V30 4723 C 449.585 -3.41324 -0.662813 0
M  V30 4724 H 448.908 -3.99793 -0.0231944 0
M  V30 4725 H 450.348 -4.10629 -1.05639 0
M  V30 4726 C 448.807 -2.83308 -1.82313 0
M  V30 4727 O 449.337 -2.75863 -2.91997 0
M  V30 4728 N 447.543 -2.40529 -1.63077 0
M  V30 4729 H 447.09 -2.46785 -0.738591 0
M  V30 4730 H 447.048 -2.02059 -2.40872 0
M  V30 4731 N 450.82 -0.546701 -1.47814 0
M  V30 4732 C 452.045 -0.021268 -2.07389 0
M  V30 4733 C 452.47 1.25822 -1.39822 0
M  V30 4734 O 451.828 1.75111 -0.46968 0
M  V30 4735 C 451.876 0.168502 -3.60206 0
M  V30 4736 O 450.98 1.23347 -3.93522 0
M  V30 4737 H 450.321 -0.0466108 -0.662362 0
M  V30 4738 H 452.851 -0.759387 -1.89985 0
M  V30 4739 H 452.861 0.385982 -4.0617 0
M  V30 4740 H 451.536 -0.766075 -4.08784 0
M  V30 4741 H 450.113 0.997319 -3.59316 0
M  V30 4742 N 452.299 1.55045 -0.282633 0
M  V30 4743 C 453.246 2.22822 0.601566 0
M  V30 4744 C 454.216 1.20431 1.14392 0
M  V30 4745 O 455.401 1.48996 1.19184 0
M  V30 4746 C 452.541 2.95873 1.77632 0
M  V30 4747 C 451.654 4.12999 1.26711 0
M  V30 4748 C 450.789 4.73676 2.40426 0
M  V30 4749 C 449.828 5.82981 1.86545 0
M  V30 4750 N 448.965 6.3769 2.93762 0
M  V30 4751 H 453.805 2.97995 0.0169528 0
M  V30 4752 H 451.342 1.471 -0.00339964 0
M  V30 4753 H 453.3 3.36447 2.46697 0
M  V30 4754 H 451.93 2.2311 2.33285 0
M  V30 4755 H 450.982 3.77494 0.469314 0
M  V30 4756 H 452.294 4.91803 0.832518 0
M  V30 4757 H 451.448 5.17008 3.17471 0
M  V30 4758 H 450.187 3.94164 2.87203 0
M  V30 4759 H 449.192 5.39092 1.07983 0
M  V30 4760 H 450.417 6.64366 1.40694 0
M  V30 4761 H 448.363 5.61069 3.39908 0
M  V30 4762 H 448.28 7.11788 2.54744 0
M  V30 4763 H 449.548 6.8568 3.7076 0
M  V30 4764 N 453.777 0.010035 1.57597 0
M  V30 4765 C 455.007 -0.682422 1.95004 0
M  V30 4766 C 455.415 -1.67278 0.884014 0
M  V30 4767 O 454.758 -1.83129 -0.144672 0
M  V30 4768 C 454.82 -1.46141 3.28456 0
M  V30 4769 C 454.484 -0.631523 4.52615 0
M  V30 4770 C 455.481 0.0850905 5.1983 0
M  V30 4771 C 453.166 -0.574539 4.99003 0
M  V30 4772 C 455.16 0.847566 6.3174 0
M  V30 4773 C 452.847 0.191655 6.10799 0
M  V30 4774 C 453.845 0.901432 6.77025 0
M  V30 4775 O 453.533 1.65511 7.86677 0
M  V30 4776 H 453.265 -0.194361 0.647456 0
M  V30 4777 H 455.819 0.060312 2.05311 0
M  V30 4778 H 454.049 -2.24885 3.14585 0
M  V30 4779 H 455.738 -2.04016 3.50902 0
M  V30 4780 H 456.504 0.0502812 4.84974 0
M  V30 4781 H 452.383 -1.11654 4.47274 0
M  V30 4782 H 455.927 1.4021 6.83364 0
M  V30 4783 H 451.824 0.228249 6.45096 0
M  V30 4784 H 452.592 1.57287 8.03245 0
M  V30 4785 N 455.255 -1.55392 -0.262866 0
M  V30 4786 C 456.504 -1.75679 -0.990943 0
M  V30 4787 C 456.817 -0.57097 -1.87081 0
M  V30 4788 O 458.023 -0.656486 -2.63444 0
M  V30 4789 C 456.479 -3.10964 -1.81188 0
M  V30 4790 C 456.087 -4.37146 -0.980188 0
M  V30 4791 C 457.831 -3.40597 -2.53365 0
M  V30 4792 C 455.738 -5.63466 -1.7961 0
M  V30 4793 H 454.668 -0.654868 -0.373716 0
M  V30 4794 H 457.319 -1.81841 -0.246203 0
M  V30 4795 H 455.701 -2.98867 -2.59797 0
M  V30 4796 H 456.875 -4.60187 -0.237558 0
M  V30 4797 H 455.19 -4.14731 -0.372497 0
M  V30 4798 H 457.787 -4.32186 -3.14833 0
M  V30 4799 H 458.13 -2.6119 -3.24169 0
M  V30 4800 H 458.663 -3.53838 -1.81779 0
M  V30 4801 H 455.402 -6.4565 -1.13209 0
M  V30 4802 H 454.922 -5.44552 -2.51443 0
M  V30 4803 H 456.601 -6.02139 -2.36723 0
M  V30 4804 N 456.733 0.527833 -1.48498 0
M  V30 4805 C 458.149 0.856571 -1.34666 0
M  V30 4806 C 458.349 1.98271 -0.35931 0
M  V30 4807 O 457.405 2.51551 0.218703 0
M  V30 4808 C 458.718 1.22207 -2.74747 0
M  V30 4809 C 460.266 1.33183 -2.83251 0
M  V30 4810 C 460.741 1.73075 -4.24039 0
M  V30 4811 N 462.232 1.80174 -4.26722 0
M  V30 4812 C 462.967 2.1243 -5.32598 0
M  V30 4813 N 462.463 2.43096 -6.4875 0
M  V30 4814 N 464.256 2.13454 -5.19994 0
M  V30 4815 H 456.407 -0.215174 -2.11307 0
M  V30 4816 H 458.67 -0.0336281 -0.947403 0
M  V30 4817 H 458.376 0.468195 -3.4857 0
M  V30 4818 H 458.25 2.17173 -3.08409 0
M  V30 4819 H 460.637 2.07647 -2.09683 0
M  V30 4820 H 460.718 0.363333 -2.53206 0
M  V30 4821 H 460.362 0.991712 -4.98124 0
M  V30 4822 H 460.292 2.70979 -4.51529 0
M  V30 4823 H 462.783 1.58744 -3.42942 0
M  V30 4824 H 463.096 2.6682 -7.25277 0
M  V30 4825 H 461.441 2.40611 -6.52021 0
M  V30 4826 H 464.632 1.88956 -4.28268 0
M  V30 4827 H 464.805 2.38261 -6.02608 0
M  V30 4828 N 458.211 1.37122 0.776871 0
M  V30 4829 C 459.622 1.28667 1.35284 0
M  V30 4830 C 459.973 -0.0680035 1.96082 0
M  V30 4831 O 459.098 -0.969743 1.93455 0
M  V30 4832 C 459.693 2.32997 2.45963 0
M  V30 4833 C 458.252 2.28191 2.99342 0
M  V30 4834 C 457.399 2.17101 1.72517 0
M  V30 4835 H 460.35 1.47819 0.577527 0
M  V30 4836 H 460.371 1.97366 3.2531 0
M  V30 4837 H 459.883 3.3158 2.01684 0
M  V30 4838 H 457.984 1.33115 3.4801 0
M  V30 4839 H 458.097 3.21397 3.55304 0
M  V30 4840 H 456.461 1.63562 1.95242 0
M  V30 4841 H 457.244 3.17591 1.30348 0
M  V30 4842 N 459.689 -1.00246 1.21608 0
M  V30 4843 C 461.105 -1.26435 0.973975 0
M  V30 4844 C 461.305 -1.98642 -0.338143 0
M  V30 4845 O 460.361 -2.29026 -1.06317 0
M  V30 4846 C 461.674 -2.08551 2.16626 0
M  V30 4847 C 463.222 -2.21769 2.20879 0
M  V30 4848 C 463.697 -3.07267 3.39633 0
M  V30 4849 N 465.188 -3.14855 3.39736 0
M  V30 4850 C 465.923 -3.81274 4.28273 0
M  V30 4851 N 465.419 -4.497 5.27012 0
M  V30 4852 N 467.212 -3.7794 4.16074 0
M  V30 4853 H 459.363 -0.518089 2.05984 0
M  V30 4854 H 461.626 -0.291368 0.902113 0
M  V30 4855 H 461.332 -1.62847 3.11727 0
M  V30 4856 H 461.206 -3.09303 2.15897 0
M  V30 4857 H 463.593 -2.66691 1.26332 0
M  V30 4858 H 463.674 -1.20478 2.25652 0
M  V30 4859 H 463.318 -2.63047 4.34475 0
M  V30 4860 H 463.248 -4.08678 3.321 0
M  V30 4861 H 465.739 -2.66147 2.6828 0
M  V30 4862 H 466.052 -4.98092 5.90867 0
M  V30 4863 H 464.397 -4.48479 5.30935 0
M  V30 4864 H 467.588 -3.23638 3.38195 0
M  V30 4865 H 467.761 -4.29424 4.85282 0
M  V30 4866 N 461.167 -1.02423 -1.1978 0
M  V30 4867 C 462.416 -0.713265 -1.88667 0
M  V30 4868 C 462.729 0.7609 -1.80193 0
M  V30 4869 O 463.935 1.18473 -2.44288 0
M  V30 4870 C 462.391 -1.22545 -3.38394 0
M  V30 4871 C 461.999 -2.72706 -3.55437 0
M  V30 4872 C 463.743 -0.990257 -4.12788 0
M  V30 4873 C 461.65 -3.17367 -4.99031 0
M  V30 4874 H 460.58 -0.263105 -0.706606 0
M  V30 4875 H 463.231 -1.23792 -1.35454 0
M  V30 4876 H 461.613 -0.628732 -3.90977 0
M  V30 4877 H 462.787 -3.37993 -3.13205 0
M  V30 4878 H 461.102 -2.94453 -2.94425 0
M  V30 4879 H 463.699 -1.29926 -5.18675 0
M  V30 4880 H 464.042 0.0730761 -4.16236 0
M  V30 4881 H 464.575 -1.55074 -3.66329 0
M  V30 4882 H 461.314 -4.23009 -5.00743 0
M  V30 4883 H 460.834 -2.56805 -5.42044 0
M  V30 4884 H 462.513 -3.10441 -5.67658 0
M  V30 4885 N 462.645 1.35699 -0.801477 0
M  V30 4886 C 463.577 2.28598 -0.166028 0
M  V30 4887 C 464.59 1.50044 0.631721 0
M  V30 4888 O 465.779 1.72339 0.464921 0
M  V30 4889 C 462.879 3.29625 0.787451 0
M  V30 4890 C 462.052 4.37384 0.037171 0
M  V30 4891 C 461.111 5.183 0.908375 0
M  V30 4892 O 460.137 5.68053 0.361189 0
M  V30 4893 N 461.339 5.35912 2.23112 0
M  V30 4894 H 464.104 2.83771 -0.964071 0
M  V30 4895 H 461.665 1.47994 -0.656469 0
M  V30 4896 H 463.657 3.80648 1.37439 0
M  V30 4897 H 462.227 2.75004 1.48632 0
M  V30 4898 H 461.447 3.87364 -0.730935 0
M  V30 4899 H 462.735 5.0653 -0.480109 0
M  V30 4900 H 462.133 4.97125 2.69968 0
M  V30 4901 H 460.69 5.90133 2.76741 0
M  V30 4902 N 464.123 0.554532 1.47522 0
M  V30 4903 C 465.353 0.0342074 2.06572 0
M  V30 4904 C 465.761 -1.26375 1.40805 0
M  V30 4905 O 465.104 -1.7683 0.49769 0
M  V30 4906 C 465.166 -0.235096 3.5873 0
M  V30 4907 C 464.83 0.973024 4.46521 0
M  V30 4908 C 465.827 1.8779 4.848 0
M  V30 4909 C 463.512 1.18694 4.88075 0
M  V30 4910 C 465.506 2.98039 5.63428 0
M  V30 4911 C 463.193 2.29254 5.66468 0
M  V30 4912 C 464.191 3.18757 6.04055 0
M  V30 4913 O 463.879 4.27401 6.8087 0
M  V30 4914 H 463.611 0.041587 0.67472 0
M  V30 4915 H 466.165 0.766748 1.90552 0
M  V30 4916 H 464.395 -1.02191 3.72953 0
M  V30 4917 H 466.084 -0.700477 3.9981 0
M  V30 4918 H 466.85 1.72467 4.53299 0
M  V30 4919 H 462.729 0.49947 4.58286 0
M  V30 4920 H 466.273 3.67926 5.92685 0
M  V30 4921 H 462.17 2.4455 5.97382 0
M  V30 4922 H 462.938 4.25415 6.9926 0
M  V30 4923 N 465.601 -1.54893 0.290851 0
M  V30 4924 C 466.848 -1.99933 -0.321391 0
M  V30 4925 C 467.176 -1.17927 -1.54672 0
M  V30 4926 O 466.431 -0.240902 -1.94212 0
M  V30 4927 C 466.73 -3.49815 -0.732397 0
M  V30 4928 C 466.396 -4.4921 0.390056 0
M  V30 4929 C 465.058 -4.76107 0.698223 0
M  V30 4930 C 467.41 -5.08453 1.14562 0
M  V30 4931 C 464.738 -5.59514 1.76526 0
M  V30 4932 C 467.09 -5.9302 2.2025 0
M  V30 4933 C 465.754 -6.18232 2.51684 0
M  V30 4934 H 465.024 -0.731608 -0.117605 0
M  V30 4935 H 467.671 -1.87107 0.407839 0
M  V30 4936 H 465.976 -3.60199 -1.54155 0
M  V30 4937 H 467.673 -3.82083 -1.21712 0
M  V30 4938 H 464.263 -4.28372 0.13976 0
M  V30 4939 H 468.447 -4.87683 0.920801 0
M  V30 4940 H 463.703 -5.77289 2.01364 0
M  V30 4941 H 467.877 -6.37955 2.7926 0
M  V30 4942 H 465.504 -6.82653 3.34499 0
M  V30 4943 N 467.08 -0.0183926 -1.57589 0
M  V30 4944 C 468.327 0.662562 -1.91354 0
M  V30 4945 C 468.655 1.72747 -0.893788 0
M  V30 4946 O 467.91 1.9545 0.0988509 0
M  V30 4947 C 468.209 1.32676 -3.31861 0
M  V30 4948 C 467.875 0.393267 -4.49182 0
M  V30 4949 C 466.537 0.136302 -4.81007 0
M  V30 4950 C 468.889 -0.248366 -5.20608 0
M  V30 4951 C 466.217 -0.770282 -5.81621 0
M  V30 4952 C 468.569 -1.14294 -6.22189 0
M  V30 4953 C 467.233 -1.4089 -6.52462 0
M  V30 4954 H 466.503 0.242448 -0.700214 0
M  V30 4955 H 469.15 -0.0778629 -1.91342 0
M  V30 4956 H 467.455 2.14168 -3.28084 0
M  V30 4957 H 469.152 1.86001 -3.55253 0
M  V30 4958 H 465.742 0.603723 -4.24327 0
M  V30 4959 H 469.926 -0.062883 -4.9626 0
M  V30 4960 H 465.182 -0.984154 -6.03427 0
M  V30 4961 H 469.356 -1.64637 -6.76659 0
M  V30 4962 H 466.983 -2.11306 -7.30242 0
M  V30 4963 N 468.558 1.5553 0.254621 0
M  V30 4964 C 469.783 1.81383 1.00573 0
M  V30 4965 C 470.208 0.594419 1.78461 0
M  V30 4966 O 469.566 -0.456403 1.75461 0
M  V30 4967 C 469.614 3.04892 1.92545 0
M  V30 4968 O 468.718 2.81266 3.01601 0
M  V30 4969 H 468.059 0.598969 0.286587 0
M  V30 4970 H 470.589 2.02703 0.277952 0
M  V30 4971 H 470.599 3.34119 2.34155 0
M  V30 4972 H 469.274 3.93287 1.3527 0
M  V30 4973 H 467.851 2.63185 2.64174 0
M  V30 4974 N 470.036 -0.519951 1.48776 0
M  V30 4975 C 471.283 -1.27522 1.57303 0
M  V30 4976 C 471.611 -1.92869 0.251328 0
M  V30 4977 O 470.866 -1.80372 -0.759243 0
M  V30 4978 C 471.165 -2.37864 2.6675 0
M  V30 4979 C 470.831 -1.90103 4.08867 0
M  V30 4980 C 469.493 -1.76795 4.47546 0
M  V30 4981 C 471.845 -1.54133 4.97888 0
M  V30 4982 C 469.173 -1.25868 5.73039 0
M  V30 4983 C 471.525 -1.04665 6.23881 0
M  V30 4984 C 470.189 -0.899823 6.61407 0
M  V30 4985 H 469.459 -0.466636 0.575614 0
M  V30 4986 H 472.106 -0.579109 1.82534 0
M  V30 4987 H 470.411 -3.13186 2.35418 0
M  V30 4988 H 472.108 -2.95969 2.70561 0
M  V30 4989 H 468.698 -2.01414 3.78326 0
M  V30 4990 H 472.882 -1.6327 4.68675 0
M  V30 4991 H 468.138 -1.13196 6.0083 0
M  V30 4992 H 472.312 -0.759074 6.92251 0
M  V30 4993 H 469.939 -0.503011 7.58534 0
M  V30 4994 N 471.514 -1.37532 -0.769588 0
M  V30 4995 C 472.477 -1.33292 -1.86456 0
M  V30 4996 C 473.477 -0.236537 -1.59051 0
M  V30 4997 O 474.667 -0.492511 -1.67093 0
M  V30 4998 C 471.799 -1.07118 -3.23633 0
M  V30 4999 H 472.992 -2.30692 -1.91628 0
M  V30 5000 H 470.545 -1.22593 -0.969572 0
M  V30 5001 H 471.28 -0.102578 -3.24138 0
M  V30 5002 H 471.065 -1.86479 -3.44917 0
M  V30 5003 H 472.555 -1.06806 -4.03711 0
M  V30 5004 N 472.992 0.995999 -1.22138 0
M  V30 5005 C 474.241 1.72928 -1.03821 0
M  V30 5006 C 474.554 1.90872 0.427444 0
M  V30 5007 O 475.76 2.61496 0.730212 0
M  V30 5008 C 474.216 3.11124 -1.80913 0
M  V30 5009 C 473.824 3.01122 -3.31707 0
M  V30 5010 C 475.568 3.8852 -1.71035 0
M  V30 5011 C 473.475 4.34453 -4.01253 0
M  V30 5012 H 472.405 0.648376 -0.384869 0
M  V30 5013 H 475.056 1.11213 -1.45959 0
M  V30 5014 H 473.438 3.73503 -1.31573 0
M  V30 5015 H 474.612 2.47926 -3.88419 0
M  V30 5016 H 472.927 2.3721 -3.42228 0
M  V30 5017 H 475.524 4.872 -2.20318 0
M  V30 5018 H 475.867 4.1087 -0.670196 0
M  V30 5019 H 476.4 3.32812 -2.17902 0
M  V30 5020 H 473.139 4.17303 -5.05508 0
M  V30 5021 H 472.659 4.87574 -3.49331 0
M  V30 5022 H 474.338 5.03215 -4.06674 0
M  V30 5023 N 474.47 1.03057 1.19235 0
M  V30 5024 C 475.403 0.557384 2.21288 0
M  V30 5025 C 476.381 -0.402675 1.57535 0
M  V30 5026 O 477.565 -0.319376 1.85775 0
M  V30 5027 C 474.692 -0.187041 3.38183 0
M  V30 5028 C 473.738 0.72471 4.20298 0
M  V30 5029 S 474.571 2.20187 4.88137 0
M  V30 5030 C 475.727 1.46801 6.08441 0
M  V30 5031 H 475.96 1.42207 2.61083 0
M  V30 5032 H 473.493 0.840651 1.29508 0
M  V30 5033 H 475.451 -0.610405 4.05936 0
M  V30 5034 H 474.112 -1.02748 2.96819 0
M  V30 5035 H 473.305 0.149911 5.03777 0
M  V30 5036 H 472.907 1.08647 3.57871 0
M  V30 5037 H 475.199 0.755522 6.73274 0
M  V30 5038 H 476.142 2.27946 6.70407 0
M  V30 5039 H 476.55 0.964762 5.56195 0
M  V30 5040 N 475.948 -1.35272 0.808662 0
M  V30 5041 C 477.195 -1.98709 0.390003 0
M  V30 5042 C 477.523 -1.64148 -1.04335 0
M  V30 5043 O 476.778 -0.897797 -1.73891 0
M  V30 5044 C 477.077 -3.53556 0.522798 0
M  V30 5045 C 476.743 -4.0799 1.91977 0
M  V30 5046 C 475.405 -4.22568 2.30195 0
M  V30 5047 C 477.757 -4.37442 2.83361 0
M  V30 5048 C 475.085 -4.63918 3.59162 0
M  V30 5049 C 477.437 -4.80232 4.11776 0
M  V30 5050 C 476.101 -4.93016 4.49991 0
M  V30 5051 H 475.371 -0.727127 0.142712 0
M  V30 5052 H 478.018 -1.6145 1.02985 0
M  V30 5053 H 476.323 -3.91287 -0.200494 0
M  V30 5054 H 478.02 -4.00598 0.179608 0
M  V30 5055 H 474.61 -3.97096 1.61284 0
M  V30 5056 H 478.794 -4.25731 2.55083 0
M  V30 5057 H 474.05 -4.72005 3.88615 0
M  V30 5058 H 478.224 -5.01982 4.82687 0
M  V30 5059 H 475.851 -5.24814 5.49976 0
M  V30 5060 N 477.426 -0.562348 -1.47226 0
M  V30 5061 C 478.374 0.195476 -2.31777 0
M  V30 5062 C 479.368 0.90433 -1.43242 0
M  V30 5063 O 480.574 0.825031 -1.59979 0
M  V30 5064 H 476.949 0.0819095 -0.747526 0
M  V30 5065 H 478.92 -0.536753 -2.93533 0
M  V30 5066 C 477.669 1.20902 -3.26003 0
M  V30 5067 H 476.992 0.672997 -3.94095 0
M  V30 5068 H 478.432 1.71006 -3.87986 0
M  V30 5069 C 476.891 2.25955 -2.49891 0
M  V30 5070 O 477.421 3.32969 -2.2471 0
M  V30 5071 N 475.627 2.00019 -2.1081 0
M  V30 5072 H 475.174 1.13006 -2.31489 0
M  V30 5073 H 475.132 2.70523 -1.60201 0
M  V30 5074 N 478.904 1.54736 -0.299062 0
M  V30 5075 C 480.152 1.99706 0.31017 0
M  V30 5076 C 480.473 1.18896 1.54559 0
M  V30 5077 O 479.743 0.284445 1.93824 0
M  V30 5078 H 478.323 0.737686 0.117596 0
M  V30 5079 H 480.985 1.9054 -0.409943 0
M  V30 5080 H 480.081 3.06596 0.58355 0
M  V30 5081 N 480.382 0.0267497 1.57577 0
M  V30 5082 C 481.628 -0.653371 1.91987 0
M  V30 5083 C 481.961 -1.71915 0.903263 0
M  V30 5084 O 481.236 -1.94358 -0.0743387 0
M  V30 5085 C 481.519 -1.272 3.36886 0
M  V30 5086 C 481.372 -0.215938 4.49281 0
M  V30 5087 C 482.691 -2.19069 3.81703 0
M  V30 5088 H 479.81 -0.236047 0.698177 0
M  V30 5089 H 482.452 0.0835236 1.89816 0
M  V30 5090 H 480.602 -1.90005 3.38866 0
M  V30 5091 H 482.274 0.41449 4.59434 0
M  V30 5092 H 480.517 0.458855 4.31366 0
M  V30 5093 H 481.188 -0.688347 5.47691 0
M  V30 5094 H 483.664 -1.66253 3.81444 0
M  V30 5095 H 482.54 -2.59307 4.83788 0
M  V30 5096 H 482.801 -3.08087 3.17072 0
M  V30 5097 N 481.861 -1.55662 -0.24637 0
M  V30 5098 C 483.101 -1.79283 -0.981685 0
M  V30 5099 C 483.465 -0.596356 -1.82504 0
M  V30 5100 O 484.666 -0.711342 -2.59217 0
M  V30 5101 C 482.937 -3.07648 -1.819 0
M  V30 5102 S 484.496 -3.52491 -2.61334 0
M  V30 5103 H 481.314 -0.629676 -0.330196 0
M  V30 5104 H 483.916 -1.93901 -0.249498 0
M  V30 5105 H 482.62 -3.92794 -1.18915 0
M  V30 5106 H 482.151 -2.95768 -2.59393 0
M  V30 5107 H 484.166 -3.13866 -3.84321 0
M  V30 5108 N 483.339 0.512053 -1.4905 0
M  V30 5109 C 484.289 1.61142 -1.61298 0
M  V30 5110 C 485.273 1.53908 -0.46916 0
M  V30 5111 O 486.465 1.61625 -0.721547 0
M  V30 5112 C 483.594 2.998 -1.67256 0
M  V30 5113 C 482.68 3.12072 -2.87179 0
M  V30 5114 N 483.071 2.94263 -4.11391 0
M  V30 5115 C 481.369 3.43156 -2.84886 0
M  V30 5116 C 482.07 3.10426 -4.91946 0
M  V30 5117 N 481.046 3.38808 -4.251 0
M  V30 5118 H 484.848 1.46011 -2.55065 0
M  V30 5119 H 482.362 0.717934 -1.45669 0
M  V30 5120 H 484.359 3.78794 -1.74128 0
M  V30 5121 H 483.019 3.1601 -0.746195 0
M  V30 5122 H 484.03 2.70661 -4.41546 0
M  V30 5123 H 480.707 3.65611 -2.01581 0
M  V30 5124 H 482.097 3.01243 -6.00585 0
M  V30 5125 N 484.817 1.37938 0.762283 0
M  V30 5126 C 485.747 1.37176 1.88958 0
M  V30 5127 C 486.728 0.238945 1.68413 0
M  V30 5128 O 487.913 0.440726 1.89133 0
M  V30 5129 C 485.043 1.18742 3.2637 0
M  V30 5130 C 483.997 2.29136 3.61498 0
M  V30 5131 C 483.323 1.95816 4.97554 0
M  V30 5132 C 484.623 3.71363 3.6727 0
M  V30 5133 H 486.317 2.31509 1.89853 0
M  V30 5134 H 483.863 1.11438 0.912005 0
M  V30 5135 H 485.816 1.16837 4.04879 0
M  V30 5136 H 484.54 0.208683 3.25933 0
M  V30 5137 H 483.199 2.30213 2.85303 0
M  V30 5138 H 482.847 0.964475 4.93667 0
M  V30 5139 H 482.547 2.69745 5.22026 0
M  V30 5140 H 484.071 1.95513 5.78452 0
M  V30 5141 H 485.485 3.72364 4.35911 0
M  V30 5142 H 483.882 4.44425 4.03245 0
M  V30 5143 H 484.952 4.04305 2.67704 0
M  V30 5144 N 486.295 -0.989507 1.22664 0
M  V30 5145 C 487.225 -2.09847 1.02404 0
M  V30 5146 C 488.206 -1.70007 -0.0561303 0
M  V30 5147 O 489.391 -1.93906 0.106748 0
M  V30 5148 C 486.521 -3.41996 0.604663 0
M  V30 5149 C 485.475 -3.95699 1.63115 0
M  V30 5150 C 484.801 -5.23936 1.0675 0
M  V30 5151 C 486.101 -4.25999 3.02196 0
M  V30 5152 H 487.795 -2.27054 1.95158 0
M  V30 5153 H 485.341 -1.09111 0.939727 0
M  V30 5154 H 487.294 -4.1899 0.45002 0
M  V30 5155 H 486.018 -3.24626 -0.35855 0
M  V30 5156 H 484.677 -3.2084 1.77362 0
M  V30 5157 H 484.325 -5.02909 0.0955422 0
M  V30 5158 H 484.025 -5.60833 1.75328 0
M  V30 5159 H 485.549 -6.0356 0.924516 0
M  V30 5160 H 486.963 -4.93777 2.91303 0
M  V30 5161 H 485.36 -4.74076 3.67929 0
M  V30 5162 H 486.43 -3.33636 3.51873 0
M  V30 5163 N 487.773 -1.03688 -1.18687 0
M  V30 5164 C 489.013 -0.746858 -1.90267 0
M  V30 5165 C 489.377 0.712075 -1.78307 0
M  V30 5166 O 490.578 1.11553 -2.44559 0
M  V30 5167 C 488.849 -1.19543 -3.36815 0
M  V30 5168 S 490.408 -1.03047 -4.26529 0
M  V30 5169 H 487.226 -0.271663 -0.657054 0
M  V30 5170 H 489.828 -1.32838 -1.43437 0
M  V30 5171 H 488.532 -2.2527 -3.43047 0
M  V30 5172 H 488.063 -0.607533 -3.88681 0
M  V30 5173 H 490.078 0.0543232 -4.9617 0
M  V30 5174 N 489.251 1.34841 -0.815825 0
M  V30 5175 C 490.662 1.80937 -0.46029 0
M  V30 5176 C 491.013 1.67685 1.01863 0
M  V30 5177 O 490.138 1.21277 1.79223 0
M  V30 5178 C 490.733 3.28509 -0.828708 0
M  V30 5179 C 489.292 3.72712 -0.525644 0
M  V30 5180 C 488.439 2.56676 -1.04941 0
M  V30 5181 H 491.39 1.22688 -1.00664 0
M  V30 5182 H 491.411 3.80279 -0.129757 0
M  V30 5183 H 490.923 3.38122 -1.90513 0
M  V30 5184 H 489.024 3.68642 0.541666 0
M  V30 5185 H 489.137 4.67119 -1.06474 0
M  V30 5186 H 487.501 2.50302 -0.471286 0
M  V30 5187 H 488.284 2.69063 -2.13214 0
M  V30 5188 N 490.729 0.570148 1.46925 0
M  V30 5189 C 491.659 -0.158274 2.32963 0
M  V30 5190 C 492.64 -0.896093 1.44583 0
M  V30 5191 O 493.825 -0.874022 1.7342 0
M  V30 5192 C 490.955 -1.18055 3.26619 0
M  V30 5193 C 489.909 -0.558379 4.24342 0
M  V30 5194 C 489.235 -1.68623 5.07415 0
M  V30 5195 C 490.535 0.496295 5.19937 0
M  V30 5196 H 492.229 0.560046 2.94115 0
M  V30 5197 H 489.775 0.270775 1.41431 0
M  V30 5198 H 491.728 -1.69841 3.85658 0
M  V30 5199 H 490.452 -1.92899 2.63548 0
M  V30 5200 H 489.111 -0.0617157 3.66548 0
M  V30 5201 H 488.759 -2.42402 4.40738 0
M  V30 5202 H 488.459 -1.27564 5.73586 0
M  V30 5203 H 489.983 -2.20709 5.69315 0
M  V30 5204 H 491.397 0.0640052 5.73264 0
M  V30 5205 H 489.794 0.82649 5.94381 0
M  V30 5206 H 490.864 1.38735 4.6463 0
M  V30 5207 N 492.207 -1.54576 0.307264 0
M  V30 5208 C 493.17 -2.22423 -0.553224 0
M  V30 5209 C 494.17 -1.21231 -1.05639 0
M  V30 5210 O 495.36 -1.45923 -0.951419 0
M  V30 5211 C 492.492 -2.91552 -1.76664 0
M  V30 5212 H 493.685 -2.99874 0.0396484 0
M  V30 5213 H 491.238 -1.56192 0.0581629 0
M  V30 5214 H 491.973 -2.18196 -2.39918 0
M  V30 5215 H 491.758 -3.65738 -1.41343 0
M  V30 5216 H 493.248 -3.43292 -2.37783 0
M  V30 5217 N 493.685 -0.035106 -1.57561 0
M  V30 5218 C 494.617 0.973604 -2.07494 0
M  V30 5219 C 495.63 1.28504 -0.999534 0
M  V30 5220 O 496.819 1.24864 -1.27559 0
M  V30 5221 C 493.919 2.29945 -2.48955 0
M  V30 5222 C 493.092 2.1723 -3.79644 0
M  V30 5223 C 492.151 3.328 -4.07592 0
M  V30 5224 O 491.177 3.09418 -4.77754 0
M  V30 5225 N 492.379 4.56779 -3.58236 0
M  V30 5226 H 495.144 0.547525 -2.94656 0
M  V30 5227 H 492.705 0.151515 -1.61189 0
M  V30 5228 H 494.697 3.06097 -2.64739 0
M  V30 5229 H 493.267 2.64173 -1.67126 0
M  V30 5230 H 492.487 1.25768 -3.73599 0
M  V30 5231 H 493.775 2.05945 -4.65257 0
M  V30 5232 H 493.173 4.78668 -3.01485 0
M  V30 5233 H 491.73 5.30079 -3.79288 0
M  V30 5234 N 495.163 1.55791 0.238111 0
M  V30 5235 C 496.44 1.68798 0.98826 0
M  V30 5236 C 496.82 0.577562 2.03045 0
M  V30 5237 O 496.168 -0.41778 2.24648 0
M  V30 5238 C 496.378 3.09454 1.61367 0
M  V30 5239 C 497.726 3.68335 2.11221 0
M  V30 5240 O 498.75 3.1231 1.71292 0
M  V30 5241 O 497.609 4.6657 2.84561 0
M  V30 5242 H 494.703 0.686881 0.460568 0
M  V30 5243 H 497.249 1.68118 0.231202 0
M  V30 5244 H 496.021 3.81726 0.860295 0
M  V30 5245 H 495.644 3.14182 2.4367 0
M  V30 5246 N 496.642 -0.504142 1.49319 0
M  V30 5247 C 497.872 -1.28071 1.62116 0
M  V30 5248 C 498.28 -1.86955 0.290566 0
M  V30 5249 O 497.623 -1.68415 -0.733616 0
M  V30 5250 C 497.685 -2.4521 2.62893 0
M  V30 5251 C 497.349 -2.07218 4.0732 0
M  V30 5252 C 498.346 -1.61375 4.94221 0
M  V30 5253 C 496.031 -2.16949 4.53033 0
M  V30 5254 C 498.025 -1.25763 6.2487 0
M  V30 5255 C 495.712 -1.80949 5.83696 0
M  V30 5256 C 496.71 -1.3543 6.69438 0
M  V30 5257 O 496.398 -0.99915 7.97667 0
M  V30 5258 H 496.13 -0.394763 0.54876 0
M  V30 5259 H 498.684 -0.612118 1.96067 0
M  V30 5260 H 496.914 -3.15134 2.24115 0
M  V30 5261 H 498.603 -3.0724 2.65252 0
M  V30 5262 H 499.369 -1.53306 4.60133 0
M  V30 5263 H 495.248 -2.5133 3.86463 0
M  V30 5264 H 498.792 -0.901631 6.91749 0
M  V30 5265 H 494.689 -1.88667 6.17313 0
M  V30 5266 H 495.457 -1.13089 8.1065 0
M  V30 5267 N 498.12 -1.38341 -0.754957 0
M  V30 5268 C 499.348 -1.37704 -1.54419 0
M  V30 5269 C 499.763 0.0335243 -1.8877 0
M  V30 5270 O 499.12 0.999773 -1.52679 0
M  V30 5271 C 499.171 -2.23136 -2.84416 0
M  V30 5272 O 498.892 -3.58697 -2.51531 0
M  V30 5273 C 500.393 -2.30664 -3.78562 0
M  V30 5274 H 497.613 -0.471061 -0.477852 0
M  V30 5275 H 500.157 -1.81902 -0.934446 0
M  V30 5276 H 498.312 -1.82403 -3.41772 0
M  V30 5277 H 498.726 -4.03665 -3.34896 0
M  V30 5278 H 500.2 -2.9473 -4.66732 0
M  V30 5279 H 500.677 -1.3199 -4.18898 0
M  V30 5280 H 501.283 -2.71781 -3.27131 0
M  V30 5281 N 499.598 0.982988 -1.23187 0
M  V30 5282 C 500.823 1.76455 -1.08988 0
M  V30 5283 C 501.248 1.84726 0.354691 0
M  V30 5284 O 500.606 1.30699 1.25649 0
M  V30 5285 C 500.654 3.17094 -1.71708 0
M  V30 5286 O 499.758 4.00648 -0.977477 0
M  V30 5287 H 499.099 0.542988 -0.382177 0
M  V30 5288 H 501.629 1.23413 -1.63188 0
M  V30 5289 H 501.639 3.67684 -1.76841 0
M  V30 5290 H 500.314 3.10389 -2.76823 0
M  V30 5291 H 498.891 3.59161 -1.0029 0
M  V30 5292 N 501.076 1.04316 1.18135 0
M  V30 5293 C 502.006 0.657299 2.24058 0
M  V30 5294 C 502.987 -0.340678 1.66654 0
M  V30 5295 O 504.172 -0.220223 1.92947 0
M  V30 5296 C 501.302 0.0220715 3.47293 0
M  V30 5297 C 500.256 0.943857 4.17463 0
M  V30 5298 C 499.582 0.172973 5.3442 0
M  V30 5299 C 500.882 2.26409 4.70677 0
M  V30 5300 H 502.576 1.5428 2.56589 0
M  V30 5301 H 500.122 0.743263 1.23335 0
M  V30 5302 H 502.075 -0.259607 4.206 0
M  V30 5303 H 500.799 -0.898323 3.14003 0
M  V30 5304 H 499.458 1.20996 3.46057 0
M  V30 5305 H 499.106 -0.749907 4.97379 0
M  V30 5306 H 498.806 0.787098 5.82304 0
M  V30 5307 H 500.33 -0.101628 6.10515 0
M  V30 5308 H 501.744 2.04294 5.35665 0
M  V30 5309 H 500.141 2.8314 5.29105 0
M  V30 5310 H 501.211 2.90883 3.87962 0
M  V30 5311 N 502.554 -1.34406 0.822964 0
M  V30 5312 C 503.8 -1.98578 0.411666 0
M  V30 5313 C 504.133 -1.65093 -1.02264 0
M  V30 5314 O 503.408 -0.92258 -1.71227 0
M  V30 5315 C 503.691 -3.54823 0.614235 0
M  V30 5316 C 503.544 -3.9805 2.09466 0
M  V30 5317 C 504.863 -4.40071 0.050221 0
M  V30 5318 H 501.982 -0.721355 0.151047 0
M  V30 5319 H 504.624 -1.59301 1.03554 0
M  V30 5320 H 502.774 -3.88411 0.0831774 0
M  V30 5321 H 504.446 -3.74795 2.68936 0
M  V30 5322 H 502.689 -3.4836 2.5851 0
M  V30 5323 H 503.36 -5.06819 2.18721 0
M  V30 5324 H 505.836 -4.13037 0.503953 0
M  V30 5325 H 504.712 -5.48452 0.221759 0
M  V30 5326 H 504.973 -4.29576 -1.04482 0
M  V30 5327 N 504.032 -0.577932 -1.46621 0
M  V30 5328 C 504.962 0.145917 -2.33044 0
M  V30 5329 C 505.943 0.888412 -1.45056 0
M  V30 5330 O 507.128 0.864812 -1.73881 0
M  V30 5331 C 504.258 1.16322 -3.27241 0
M  V30 5332 C 503.212 0.535868 -4.24632 0
M  V30 5333 C 502.538 1.65929 -5.08303 0
M  V30 5334 C 503.838 -0.523861 -5.19666 0
M  V30 5335 H 505.532 -0.575636 -2.93814 0
M  V30 5336 H 503.078 -0.278272 -1.41286 0
M  V30 5337 H 505.031 1.67793 -3.86553 0
M  V30 5338 H 503.755 1.91498 -2.64567 0
M  V30 5339 H 502.414 0.0422759 -3.66576 0
M  V30 5340 H 502.062 2.40061 -4.42018 0
M  V30 5341 H 501.762 1.2452 -5.74255 0
M  V30 5342 H 503.286 2.17686 -5.70478 0
M  V30 5343 H 504.7 -0.0944059 -5.73222 0
M  V30 5344 H 503.097 -0.858 -5.93935 0
M  V30 5345 H 504.167 -1.41197 -4.63887 0
M  V30 5346 N 505.51 1.54411 -0.315457 0
M  V30 5347 C 506.74 2.04536 0.291315 0
M  V30 5348 C 507.148 1.19162 1.4696 0
M  V30 5349 O 506.491 0.213199 1.82459 0
M  V30 5350 C 506.553 3.5056 0.796725 0
M  V30 5351 C 506.217 4.5627 -0.258178 0
M  V30 5352 C 507.214 5.08312 -1.09153 0
M  V30 5353 C 504.899 5.00672 -0.404036 0
M  V30 5354 C 506.893 6.03312 -2.05655 0
M  V30 5355 C 504.58 5.95488 -1.37248 0
M  V30 5356 C 505.578 6.46693 -2.19721 0
M  V30 5357 O 505.266 7.39648 -3.14921 0
M  V30 5358 H 504.998 0.672856 0.0651165 0
M  V30 5359 H 507.552 2.00244 -0.457308 0
M  V30 5360 H 505.782 3.52223 1.59612 0
M  V30 5361 H 507.471 3.83804 1.32096 0
M  V30 5362 H 508.237 4.74793 -0.98979 0
M  V30 5363 H 504.116 4.60436 0.22799 0
M  V30 5364 H 507.66 6.43203 -2.70067 0
M  V30 5365 H 503.557 6.28424 -1.47489 0
M  V30 5366 H 504.325 7.57496 -3.10067 0
M  V30 5367 N 506.988 0.0434614 1.5754 0
M  V30 5368 C 507.951 -0.918696 2.09982 0
M  V30 5369 C 508.951 -1.24488 1.01781 0
M  V30 5370 O 510.141 -1.18284 1.27885 0
M  V30 5371 C 507.273 -2.23093 2.57764 0
M  V30 5372 H 508.466 -0.464229 2.96285 0
M  V30 5373 H 506.019 -0.204818 1.54952 0
M  V30 5374 H 506.754 -2.73137 1.74832 0
M  V30 5375 H 506.539 -2.00724 3.36827 0
M  V30 5376 H 508.029 -2.92028 2.98512 0
M  V30 5377 N 508.466 -1.55915 -0.229846 0
M  V30 5378 C 509.712 -1.78807 -0.956868 0
M  V30 5379 C 510.045 -0.611687 -1.84315 0
M  V30 5380 O 509.32 0.389398 -1.90562 0
M  V30 5381 C 509.603 -3.11718 -1.80288 0
M  V30 5382 C 509.456 -4.3979 -0.943649 0
M  V30 5383 C 510.775 -3.40999 -2.78222 0
M  V30 5384 H 507.894 -0.6505 -0.346437 0
M  V30 5385 H 510.536 -1.88648 -0.226252 0
M  V30 5386 H 508.686 -3.03459 -2.42579 0
M  V30 5387 H 510.358 -4.60059 -0.338121 0
M  V30 5388 H 508.601 -4.33086 -0.248705 0
M  V30 5389 H 509.272 -5.29208 -1.5698 0
M  V30 5390 H 511.748 -3.49332 -2.26067 0
M  V30 5391 H 510.624 -4.35183 -3.34526 0
M  V30 5392 H 510.885 -2.62754 -3.55546 0
M  V30 5393 N 509.944 0.496216 -1.49584 0
M  V30 5394 C 511.191 1.25003 -1.59312 0
M  V30 5395 C 511.519 1.92445 -0.28198 0
M  V30 5396 O 510.774 1.81557 0.730452 0
M  V30 5397 C 511.073 2.3359 -2.705 0
M  V30 5398 C 510.739 1.83574 -4.11839 0
M  V30 5399 C 509.401 1.69653 -4.50302 0
M  V30 5400 C 511.753 1.46193 -5.00277 0
M  V30 5401 C 509.081 1.16736 -5.74969 0
M  V30 5402 C 511.433 0.947265 -6.25468 0
M  V30 5403 C 510.097 0.794485 -6.62755 0
M  V30 5404 H 509.367 0.45742 -0.582965 0
M  V30 5405 H 512.014 0.549996 -1.83432 0
M  V30 5406 H 510.319 3.09401 -2.40371 0
M  V30 5407 H 512.016 2.91627 -2.75235 0
M  V30 5408 H 508.606 1.9537 -3.81482 0
M  V30 5409 H 512.79 1.55793 -4.71214 0
M  V30 5410 H 508.046 1.03623 -6.02555 0
M  V30 5411 H 512.22 0.648846 -6.93371 0
M  V30 5412 H 509.847 0.382271 -7.59238 0
M  V30 5413 N 511.423 1.38739 0.74761 0
M  V30 5414 C 512.67 1.35274 1.50689 0
M  V30 5415 C 512.998 -0.0553359 1.94421 0
M  V30 5416 O 512.253 -1.03365 1.66175 0
M  V30 5417 C 512.552 2.25992 2.7688 0
M  V30 5418 C 512.218 3.73854 2.5208 0
M  V30 5419 C 510.88 4.14145 2.45025 0
M  V30 5420 C 513.232 4.67427 2.30568 0
M  V30 5421 C 510.56 5.4609 2.14483 0
M  V30 5422 C 512.912 5.99635 2.01545 0
M  V30 5423 C 511.576 6.39004 1.92951 0
M  V30 5424 H 510.846 0.495003 0.55141 0
M  V30 5425 H 513.493 1.71145 0.859158 0
M  V30 5426 H 511.798 1.83196 3.46333 0
M  V30 5427 H 513.495 2.20611 3.34861 0
M  V30 5428 H 510.085 3.41913 2.58444 0
M  V30 5429 H 514.269 4.3714 2.34994 0
M  V30 5430 H 509.525 5.75528 2.06342 0
M  V30 5431 H 513.699 6.71678 1.83906 0
M  V30 5432 H 511.326 7.41165 1.6905 0
M  V30 5433 N 512.901 -0.976442 1.23707 0
M  V30 5434 C 514.149 -1.71487 1.06942 0
M  V30 5435 C 514.47 -1.9098 -0.393897 0
M  V30 5436 O 513.74 -1.48128 -1.28198 0
M  V30 5437 H 512.32 -0.635425 0.392739 0
M  V30 5438 H 514.982 -1.17515 1.55487 0
M  V30 5439 H 514.078 -2.70286 1.56051 0
M  V30 5440 N 514.379 -1.04941 -1.1758 0
M  V30 5441 C 515.309 -0.669172 -2.23706 0
M  V30 5442 C 516.29 0.331835 -1.66832 0
M  V30 5443 O 517.475 0.209988 -1.93061 0
M  V30 5444 C 514.605 -0.0404889 -3.47276 0
M  V30 5445 C 513.559 -0.965983 -4.16957 0
M  V30 5446 C 512.885 -0.201312 -5.34321 0
M  V30 5447 C 514.185 -2.28902 -4.69469 0
M  V30 5448 H 515.879 -1.55639 -2.55767 0
M  V30 5449 H 513.425 -0.749793 -1.22939 0
M  V30 5450 H 515.378 0.237298 -4.20731 0
M  V30 5451 H 514.102 0.881658 -3.14475 0
M  V30 5452 H 512.761 -1.22829 -3.45411 0
M  V30 5453 H 512.409 0.723519 -4.97769 0
M  V30 5454 H 512.109 -0.817968 -5.81879 0
M  V30 5455 H 513.633 0.0692499 -6.10561 0
M  V30 5456 H 515.047 -2.07132 -5.34574 0
M  V30 5457 H 513.444 -2.85942 -5.27596 0
M  V30 5458 H 514.514 -2.92937 -3.86414 0
M  V30 5459 N 515.857 1.33968 -0.830081 0
M  V30 5460 C 517.105 1.97672 -0.420734 0
M  V30 5461 C 517.426 1.66111 1.02138 0
M  V30 5462 O 516.696 0.955503 1.71017 0
M  V30 5463 H 515.276 0.73125 -0.152587 0
M  V30 5464 H 517.938 1.63483 -1.0611 0
M  V30 5465 H 517.034 3.07294 -0.545588 0
M  V30 5466 N 517.335 0.585699 1.46312 0
M  V30 5467 C 518.582 0.0724211 2.0237 0
M  V30 5468 C 518.91 -1.28868 1.45683 0
M  V30 5469 O 518.165 -1.85853 0.612945 0
M  V30 5470 C 518.464 -0.0401312 3.57377 0
M  V30 5471 C 518.13 1.25376 4.33119 0
M  V30 5472 C 516.792 1.60824 4.5353 0
M  V30 5473 C 519.144 2.10987 4.76586 0
M  V30 5474 C 516.472 2.81676 5.14661 0
M  V30 5475 C 518.824 3.31068 5.39052 0
M  V30 5476 C 517.488 3.66794 5.5769 0
M  V30 5477 H 516.758 0.0265007 0.740526 0
M  V30 5478 H 519.405 0.762935 1.75646 0
M  V30 5479 H 517.71 -0.813791 3.83255 0
M  V30 5480 H 519.407 -0.453078 3.98432 0
M  V30 5481 H 515.997 0.967808 4.1753 0
M  V30 5482 H 520.181 1.84904 4.60569 0
M  V30 5483 H 515.437 3.0949 5.27282 0
M  V30 5484 H 519.611 3.97672 5.71691 0
M  V30 5485 H 517.238 4.60529 6.04828 0
M  V30 5486 N 518.813 -1.54241 0.323641 0
M  V30 5487 C 520.061 -2.00174 -0.278359 0
M  V30 5488 C 520.382 -1.2134 -1.52648 0
M  V30 5489 O 519.652 -0.315244 -1.93347 0
M  V30 5490 H 518.232 -0.739463 -0.105845 0
M  V30 5491 H 520.894 -1.89864 0.440204 0
M  V30 5492 H 519.99 -3.07486 -0.5347 0
M  V30 5493 N 520.291 -0.0518155 -1.57515 0
M  V30 5494 C 521.516 0.634896 -1.97443 0
M  V30 5495 C 521.941 1.63546 -0.929207 0
M  V30 5496 O 521.299 1.80981 0.107484 0
M  V30 5497 C 521.347 1.29765 -3.36442 0
M  V30 5498 O 520.451 2.41333 -3.34413 0
M  V30 5499 H 519.792 0.164994 -0.643174 0
M  V30 5500 H 522.322 -0.120407 -2.04245 0
M  V30 5501 H 522.332 1.64918 -3.73184 0
M  V30 5502 H 521.007 0.564361 -4.12053 0
M  V30 5503 H 519.584 2.08122 -3.09418 0
M  V30 5504 N 521.769 1.56035 0.221574 0
M  V30 5505 C 523.015 1.79312 0.947372 0
M  V30 5506 C 523.348 0.621453 1.83988 0
M  V30 5507 O 522.623 -0.379287 1.90766 0
M  V30 5508 C 522.906 3.1267 1.78633 0
M  V30 5509 C 522.759 4.40284 0.920312 0
M  V30 5510 C 524.078 3.4247 2.7641 0
M  V30 5511 H 521.197 0.652328 0.342982 0
M  V30 5512 H 523.839 1.88765 0.216244 0
M  V30 5513 H 521.989 3.04741 2.40967 0
M  V30 5514 H 523.661 4.60232 0.313718 0
M  V30 5515 H 521.904 4.33212 0.225734 0
M  V30 5516 H 522.575 5.30033 1.54171 0
M  V30 5517 H 525.051 3.50526 2.24211 0
M  V30 5518 H 523.927 4.3695 3.32213 0
M  V30 5519 H 524.188 2.64635 3.54148 0
M  V30 5520 N 523.247 -0.488276 1.49845 0
M  V30 5521 C 524.472 -1.26997 1.63971 0
M  V30 5522 C 524.897 -1.85427 0.315994 0
M  V30 5523 O 524.255 -1.66475 -0.718032 0
M  V30 5524 C 524.303 -2.36689 2.72049 0
M  V30 5525 O 523.407 -3.40882 2.32107 0
M  V30 5526 H 522.748 -0.374376 0.548396 0
M  V30 5527 H 525.278 -0.583104 1.96115 0
M  V30 5528 H 525.288 -2.82262 2.94605 0
M  V30 5529 H 523.963 -1.93529 3.68129 0
M  V30 5530 H 522.54 -3.01139 2.19931 0
M  V30 5531 N 524.725 -1.39134 -0.740242 0
M  V30 5532 C 525.95 -1.39518 -1.53459 0
M  V30 5533 C 526.375 0.00968883 -1.88098 0
M  V30 5534 O 525.733 0.995312 -1.51536 0
M  V30 5535 C 525.781 -2.26981 -2.802 0
M  V30 5536 O 524.885 -1.69609 -3.75908 0
M  V30 5537 H 524.226 -0.475328 -0.463637 0
M  V30 5538 H 526.756 -1.83064 -0.913717 0
M  V30 5539 H 526.766 -2.41309 -3.28989 0
M  V30 5540 H 525.441 -3.29081 -2.5432 0
M  V30 5541 H 524.018 -1.64495 -3.34658 0
M  V30 5542 N 526.204 0.969867 -1.24223 0
M  V30 5543 C 527.45 1.7151 -1.08223 0
M  V30 5544 C 527.783 1.90478 0.37838 0
M  V30 5545 O 527.058 1.4647 1.27971 0
M  V30 5546 C 527.341 3.10714 -1.82013 0
M  V30 5547 C 527.194 2.9925 -3.35811 0
M  V30 5548 C 528.513 4.10332 -1.59108 0
M  V30 5549 H 525.632 0.622499 -0.394543 0
M  V30 5550 H 528.274 1.1284 -1.52863 0
M  V30 5551 H 526.424 3.608 -1.44068 0
M  V30 5552 H 528.096 2.56608 -3.83341 0
M  V30 5553 H 526.339 2.35512 -3.64303 0
M  V30 5554 H 527.01 3.97857 -3.82641 0
M  V30 5555 H 529.486 3.69097 -1.92111 0
M  V30 5556 H 528.362 5.05804 -2.13198 0
M  V30 5557 H 528.623 4.38926 -0.528832 0
M  V30 5558 N 527.682 1.05563 1.17022 0
M  V30 5559 C 528.612 0.681026 2.23348 0
M  V30 5560 C 529.593 -0.322983 1.67005 0
M  V30 5561 O 530.778 -0.199746 1.9317 0
M  V30 5562 C 527.908 0.0589053 3.4725 0
M  V30 5563 C 526.862 0.988082 4.16438 0
M  V30 5564 C 526.188 0.229646 5.34207 0
M  V30 5565 C 527.488 2.31388 4.68249 0
M  V30 5566 H 529.182 1.56993 2.54938 0
M  V30 5567 H 526.728 0.756302 1.2254 0
M  V30 5568 H 528.681 -0.214982 4.20851 0
M  V30 5569 H 527.405 -0.864968 3.14938 0
M  V30 5570 H 526.064 1.24659 3.44754 0
M  V30 5571 H 525.712 -0.697111 4.98146 0
M  V30 5572 H 525.412 0.848815 5.81437 0
M  V30 5573 H 526.936 -0.0368694 6.10589 0
M  V30 5574 H 528.35 2.09964 5.33468 0
M  V30 5575 H 526.747 2.88736 5.26072 0
M  V30 5576 H 527.817 2.94982 3.84855 0
M  V30 5577 N 529.16 -1.33526 0.837174 0
M  V30 5578 C 530.407 -1.97837 0.432064 0
M  V30 5579 C 530.735 -1.66324 -1.00829 0
M  V30 5580 O 529.99 -0.93448 -1.71948 0
M  V30 5581 C 530.289 -3.52367 0.597675 0
M  V30 5582 C 529.955 -4.03826 2.00587 0
M  V30 5583 C 528.617 -4.1759 2.39106 0
M  V30 5584 C 530.969 -4.31333 2.92576 0
M  V30 5585 C 528.297 -4.56195 3.68921 0
M  V30 5586 C 530.649 -4.7139 4.2187 0
M  V30 5587 C 529.313 -4.8336 4.60347 0
M  V30 5588 H 528.583 -0.723937 0.158104 0
M  V30 5589 H 531.23 -1.5923 1.06387 0
M  V30 5590 H 529.535 -3.91624 -0.117452 0
M  V30 5591 H 531.232 -4.00126 0.26454 0
M  V30 5592 H 527.822 -3.93586 1.69671 0
M  V30 5593 H 532.006 -4.20224 2.64056 0
M  V30 5594 H 527.262 -4.63655 3.9854 0
M  V30 5595 H 531.436 -4.91631 4.93226 0
M  V30 5596 H 529.063 -5.1303 5.60985 0
M  V30 5597 N 530.638 -0.59345 -1.46 0
M  V30 5598 C 531.548 0.135817 -2.34207 0
M  V30 5599 C 532.564 0.875008 -1.50398 0
M  V30 5600 O 533.74 0.835778 -1.83239 0
M  V30 5601 C 530.805 1.12977 -3.27776 0
M  V30 5602 C 529.866 0.394081 -4.27487 0
M  V30 5603 C 529.099 1.34068 -5.16586 0
M  V30 5604 O 529.322 2.5778 -5.08828 0
M  V30 5605 O 528.256 0.845426 -5.95933 0
M  V30 5606 H 532.082 -0.588691 -2.9794 0
M  V30 5607 H 529.667 -0.353784 -1.45151 0
M  V30 5608 H 531.549 1.70261 -3.85473 0
M  V30 5609 H 530.224 1.83556 -2.66625 0
M  V30 5610 H 529.131 -0.220869 -3.73447 0
M  V30 5611 H 530.464 -0.270939 -4.91454 0
M  V30 5612 N 532.116 1.54067 -0.331816 0
M  V30 5613 C 533.344 2.05131 0.269996 0
M  V30 5614 C 533.759 1.20749 1.45138 0
M  V30 5615 O 533.116 0.240069 1.80914 0
M  V30 5616 C 533.167 3.54728 0.696456 0
M  V30 5617 O 532.888 4.35906 -0.43794 0
M  V30 5618 C 534.389 4.21916 1.36021 0
M  V30 5619 H 531.609 0.668807 0.0542042 0
M  V30 5620 H 534.153 1.98777 -0.4804 0
M  V30 5621 H 532.308 3.61342 1.39681 0
M  V30 5622 H 532.722 5.24404 -0.100334 0
M  V30 5623 H 534.196 5.28015 1.60947 0
M  V30 5624 H 534.673 3.73538 2.31011 0
M  V30 5625 H 535.279 4.19463 0.702212 0
M  V30 5626 N 533.594 0.0601682 1.57485 0
M  V30 5627 C 534.524 -0.90889 2.15085 0
M  V30 5628 C 535.505 -1.31838 1.07484 0
M  V30 5629 O 536.69 -1.3915 1.35466 0
M  V30 5630 C 533.82 -2.18059 2.7031 0
M  V30 5631 C 532.774 -1.91088 3.82974 0
M  V30 5632 C 532.1 -3.24789 4.24754 0
M  V30 5633 C 533.4 -1.22535 5.07723 0
M  V30 5634 H 535.094 -0.429093 2.96309 0
M  V30 5635 H 532.64 -0.204952 1.42534 0
M  V30 5636 H 534.593 -2.86258 3.09248 0
M  V30 5637 H 533.317 -2.6826 1.8629 0
M  V30 5638 H 531.976 -1.25297 3.44523 0
M  V30 5639 H 531.624 -3.72809 3.37672 0
M  V30 5640 H 531.324 -3.07538 5.00694 0
M  V30 5641 H 532.848 -3.94205 4.66299 0
M  V30 5642 H 534.262 -1.80783 5.4405 0
M  V30 5643 H 532.659 -1.1558 5.88864 0
M  V30 5644 H 533.729 -0.202692 4.84476 0
M  V30 5645 N 535.072 -1.5615 -0.213296 0
M  V30 5646 C 536.005 -1.88115 -1.29182 0
M  V30 5647 C 536.983 -0.739348 -1.44819 0
M  V30 5648 O 538.167 -0.988541 -1.605 0
M  V30 5649 C 535.294 -2.09541 -2.66102 0
M  V30 5650 C 534.34 -3.32236 -2.67436 0
M  V30 5651 S 535.173 -4.87915 -2.20679 0
M  V30 5652 C 536.329 -5.12387 -3.59458 0
M  V30 5653 H 536.562 -2.793 -1.01876 0
M  V30 5654 H 534.095 -1.48692 -0.415934 0
M  V30 5655 H 536.053 -2.22568 -3.44925 0
M  V30 5656 H 534.714 -1.19138 -2.90628 0
M  V30 5657 H 533.907 -3.44297 -3.6807 0
M  V30 5658 H 533.509 -3.18108 -1.96681 0
M  V30 5659 H 535.801 -5.01791 -4.55205 0
M  V30 5660 H 536.744 -6.14236 -3.52306 0
M  V30 5661 H 537.152 -4.40089 -3.53528 0
M  V30 5662 N 536.55 0.480323 -1.50102 0
M  V30 5663 C 537.827 1.24159 -1.51142 0
M  V30 5664 C 538.207 2.09605 -0.250818 0
M  V30 5665 O 537.555 2.15274 0.766118 0
M  V30 5666 C 537.765 2.08057 -2.80202 0
M  V30 5667 C 539.113 2.66556 -3.30504 0
M  V30 5668 O 540.137 2.18308 -2.81461 0
M  V30 5669 O 538.996 3.54442 -4.15973 0
M  V30 5670 H 536.09 0.562928 -0.605839 0
M  V30 5671 H 538.636 0.492899 -1.62384 0
M  V30 5672 H 537.408 1.45032 -3.6343 0
M  V30 5673 H 537.031 2.90079 -2.71919 0
M  V30 5674 N 538.028 1.39524 0.732853 0
M  V30 5675 C 538.958 1.41153 1.86005 0
M  V30 5676 C 539.939 0.274614 1.67869 0
M  V30 5677 O 541.124 0.480745 1.88155 0
M  V30 5678 C 538.254 1.25638 3.23778 0
M  V30 5679 C 537.208 2.36752 3.56556 0
M  V30 5680 C 536.534 2.06326 4.93289 0
M  V30 5681 C 537.834 3.79069 3.5931 0
M  V30 5682 H 539.528 2.35484 1.84899 0
M  V30 5683 H 537.074 1.13348 0.888162 0
M  V30 5684 H 539.027 1.25398 4.0231 0
M  V30 5685 H 537.751 0.277772 3.25417 0
M  V30 5686 H 536.41 2.36213 2.80355 0
M  V30 5687 H 536.058 1.06897 4.9151 0
M  V30 5688 H 535.758 2.80757 5.16187 0
M  V30 5689 H 537.282 2.07739 5.74175 0
M  V30 5690 H 538.696 3.81526 4.27914 0
M  V30 5691 H 537.093 4.52878 3.93728 0
M  V30 5692 H 538.163 4.09893 2.59068 0
M  V30 5693 N 539.506 -0.963266 1.24736 0
M  V30 5694 C 540.752 -1.70933 1.09131 0
M  V30 5695 C 541.085 -1.90676 -0.368273 0
M  V30 5696 O 540.36 -1.47147 -1.27193 0
M  V30 5697 C 540.643 -3.09744 1.83658 0
M  V30 5698 C 540.496 -2.97465 3.37394 0
M  V30 5699 C 541.815 -4.09483 1.61282 0
M  V30 5700 H 538.934 -0.620398 0.397838 0
M  V30 5701 H 541.576 -1.12028 1.53459 0
M  V30 5702 H 539.726 -3.60031 1.4598 0
M  V30 5703 H 541.398 -2.54571 3.84696 0
M  V30 5704 H 539.641 -2.33576 3.65547 0
M  V30 5705 H 540.312 -3.95822 3.84745 0
M  V30 5706 H 542.788 -3.68073 1.94066 0
M  V30 5707 H 541.664 -5.04666 2.15878 0
M  V30 5708 H 541.925 -4.38639 0.552102 0
M  V30 5709 N 540.985 -1.06182 -1.16461 0
M  V30 5710 C 542.233 -0.776326 -1.86595 0
M  V30 5711 C 542.554 0.69921 -1.82033 0
M  V30 5712 O 541.824 1.50579 -1.2531 0
M  V30 5713 H 540.404 -0.284184 -0.690832 0
M  V30 5714 H 543.066 -1.34308 -1.41235 0
M  V30 5715 H 542.162 -1.10022 -2.92064 0
M  V30 5716 N 542.463 1.3308 -0.844243 0
M  V30 5717 C 543.426 2.27403 -0.286485 0
M  V30 5718 C 544.426 1.51179 0.547872 0
M  V30 5719 O 545.616 1.70421 0.360886 0
M  V30 5720 C 542.748 3.35653 0.595813 0
M  V30 5721 H 543.941 2.78248 -1.11885 0
M  V30 5722 H 541.494 1.43574 -0.617749 0
M  V30 5723 H 542.229 2.90058 1.4504 0
M  V30 5724 H 542.014 3.921 -0.00125994 0
M  V30 5725 H 543.504 4.05958 0.979168 0
M  V30 5726 N 543.941 0.601185 1.45683 0
M  V30 5727 C 545.352 0.179659 1.85834 0
M  V30 5728 C 545.703 -1.26189 1.50236 0
M  V30 5729 O 544.828 -1.95587 0.925987 0
M  V30 5730 C 545.423 0.319277 3.37292 0
M  V30 5731 C 543.982 -0.0475092 3.7637 0
M  V30 5732 C 543.129 0.646692 2.69654 0
M  V30 5733 H 546.08 0.808268 1.36575 0
M  V30 5734 H 546.101 -0.4503 3.77826 0
M  V30 5735 H 545.613 1.36855 3.6317 0
M  V30 5736 H 543.714 -1.0962 3.5611 0
M  V30 5737 H 543.827 0.34168 4.7788 0
M  V30 5738 H 542.191 0.0849971 2.54558 0
M  V30 5739 H 542.974 1.69797 2.98369 0
M  V30 5740 N 545.419 -1.53889 0.339982 0
M  V30 5741 C 546.835 -1.59595 -0.0120752 0
M  V30 5742 C 547.035 -1.35605 -1.49042 0
M  V30 5743 O 546.091 -1.14856 -2.24865 0
M  V30 5744 C 547.404 -2.9774 0.420898 0
M  V30 5745 C 548.952 -3.1077 0.37294 0
M  V30 5746 C 549.427 -4.51286 0.781327 0
M  V30 5747 N 550.918 -4.57325 0.735374 0
M  V30 5748 C 551.653 -5.64194 1.02336 0
M  V30 5749 N 551.149 -6.7893 1.37933 0
M  V30 5750 N 552.942 -5.54051 0.947838 0
M  V30 5751 H 545.093 -1.67738 1.30299 0
M  V30 5752 H 547.356 -0.785385 0.530918 0
M  V30 5753 H 547.062 -3.20349 1.45152 0
M  V30 5754 H 546.936 -3.76639 -0.205721 0
M  V30 5755 H 549.323 -2.87886 -0.648505 0
M  V30 5756 H 549.404 -2.33939 1.03472 0
M  V30 5757 H 549.048 -4.74905 1.80077 0
M  V30 5758 H 548.978 -5.26511 0.0970679 0
M  V30 5759 H 551.469 -3.74931 0.472773 0
M  V30 5760 H 551.782 -7.56392 1.58402 0
M  V30 5761 H 550.127 -6.80386 1.41774 0
M  V30 5762 H 553.318 -4.63293 0.669115 0
M  V30 5763 H 553.491 -6.37246 1.17563 0
M  V30 5764 N 546.897 -0.0685191 -1.57451 0
M  V30 5765 C 548.144 0.601348 -1.93365 0
M  V30 5766 C 548.472 1.69816 -0.948294 0
M  V30 5767 O 547.727 1.95666 0.0366199 0
M  V30 5768 C 548.026 1.22051 -3.35914 0
M  V30 5769 C 547.692 0.250165 -4.50205 0
M  V30 5770 C 546.354 -0.0167954 -4.81197 0
M  V30 5771 C 548.706 -0.413867 -5.19554 0
M  V30 5772 C 546.034 -0.95493 -5.78876 0
M  V30 5773 C 548.386 -1.3403 -6.18238 0
M  V30 5774 C 547.05 -1.61576 -6.47649 0
M  V30 5775 H 546.32 0.220049 -0.707573 0
M  V30 5776 H 548.967 -0.138697 -1.90997 0
M  V30 5777 H 547.272 2.03622 -3.34732 0
M  V30 5778 H 548.969 1.74605 -3.6099 0
M  V30 5779 H 545.559 0.468421 -4.26033 0
M  V30 5780 H 549.743 -0.220733 -4.95809 0
M  V30 5781 H 544.999 -1.17563 -5.99991 0
M  V30 5782 H 549.173 -1.86081 -6.71079 0
M  V30 5783 H 546.8 -2.34431 -7.2315 0
M  V30 5784 N 548.375 1.56261 0.205012 0
M  V30 5785 C 549.6 1.84491 0.947512 0
M  V30 5786 C 550.025 0.650894 1.76479 0
M  V30 5787 O 549.383 -0.40035 1.76824 0
M  V30 5788 C 549.431 3.10863 1.82747 0
M  V30 5789 O 548.535 2.90719 2.925 0
M  V30 5790 H 547.876 0.607783 0.267386 0
M  V30 5791 H 550.406 2.03485 0.213323 0
M  V30 5792 H 550.416 3.41399 2.23407 0
M  V30 5793 H 549.091 3.97392 1.2269 0
M  V30 5794 H 547.668 2.71457 2.55667 0
M  V30 5795 N 549.853 -0.472356 1.50355 0
M  V30 5796 C 551.078 -1.25251 1.65309 0
M  V30 5797 C 551.503 -1.85081 0.335643 0
M  V30 5798 O 550.861 -1.67227 -0.700335 0
M  V30 5799 C 550.909 -2.3379 2.74544 0
M  V30 5800 O 550.013 -3.38401 2.35709 0
M  V30 5801 H 549.354 -0.368539 0.552336 0
M  V30 5802 H 551.884 -0.562271 1.96722 0
M  V30 5803 H 551.894 -2.79121 2.97583 0
M  V30 5804 H 550.569 -1.89614 3.70161 0
M  V30 5805 H 549.146 -2.9879 2.23112 0
M  V30 5806 N 551.331 -1.39911 -0.725443 0
M  V30 5807 C 552.294 -1.39156 -1.82121 0
M  V30 5808 C 553.294 -0.287018 -1.58218 0
M  V30 5809 O 554.484 -0.545421 -1.65441 0
M  V30 5810 C 551.616 -1.1736 -3.20062 0
M  V30 5811 H 552.809 -2.36672 -1.84191 0
M  V30 5812 H 550.362 -1.25615 -0.930079 0
M  V30 5813 H 551.097 -0.205648 -3.23647 0
M  V30 5814 H 550.882 -1.97358 -3.3881 0
M  V30 5815 H 552.372 -1.19596 -4.00108 0
M  V30 5816 N 552.809 0.956637 -1.25245 0
M  V30 5817 C 554.055 1.70352 -1.10036 0
M  V30 5818 C 554.388 1.90869 0.358156 0
M  V30 5819 O 553.663 1.47819 1.26411 0
M  V30 5820 C 553.946 3.08766 -1.85298 0
M  V30 5821 C 553.799 2.95672 -3.38966 0
M  V30 5822 C 555.118 4.08622 -1.63451 0
M  V30 5823 H 552.237 0.618279 -0.401123 0
M  V30 5824 H 554.879 1.11212 -1.54051 0
M  V30 5825 H 553.029 3.59252 -1.47887 0
M  V30 5826 H 554.701 2.52527 -3.86041 0
M  V30 5827 H 552.944 2.31634 -3.6678 0
M  V30 5828 H 553.615 3.93776 -3.86839 0
M  V30 5829 H 556.091 3.67038 -1.96015 0
M  V30 5830 H 554.967 5.03514 -2.18551 0
M  V30 5831 H 555.228 4.3834 -0.575357 0
M  V30 5832 N 554.287 1.06798 1.15896 0
M  V30 5833 C 555.535 0.786211 1.8618 0
M  V30 5834 C 555.856 -0.689547 1.82401 0
M  V30 5835 O 555.126 -1.49913 1.26107 0
M  V30 5836 H 553.706 0.287843 0.689315 0
M  V30 5837 H 556.368 1.35055 1.40521 0
M  V30 5838 H 555.464 1.1157 2.91477 0
M  V30 5839 N 555.766 -1.3263 0.851289 0
M  V30 5840 C 556.696 -2.31449 0.308771 0
M  V30 5841 C 557.677 -1.59531 -0.590255 0
M  V30 5842 O 558.862 -1.87351 -0.511205 0
M  V30 5843 C 555.992 -3.43586 -0.506548 0
M  V30 5844 C 554.946 -4.26963 0.297753 0
M  V30 5845 C 554.272 -5.30831 -0.642094 0
M  V30 5846 C 555.572 -4.99643 1.52166 0
M  V30 5847 H 557.266 -2.77074 1.13447 0
M  V30 5848 H 554.812 -1.33207 0.546971 0
M  V30 5849 H 556.765 -4.11754 -0.896474 0
M  V30 5850 H 555.489 -2.96681 -1.36558 0
M  V30 5851 H 554.148 -3.60437 0.669391 0
M  V30 5852 H 553.796 -4.8018 -1.49788 0
M  V30 5853 H 553.496 -5.87501 -0.107968 0
M  V30 5854 H 555.02 -6.01862 -1.02927 0
M  V30 5855 H 556.434 -5.6051 1.20421 0
M  V30 5856 H 554.831 -5.66022 1.99347 0
M  V30 5857 H 555.901 -4.27701 2.28474 0
M  V30 5858 N 557.244 -0.608902 -1.45362 0
M  V30 5859 C 558.49 -0.104762 -2.02529 0
M  V30 5860 C 558.823 1.26191 -1.47613 0
M  V30 5861 O 558.098 1.8327 -0.65134 0
M  V30 5862 C 558.381 -0.0672661 -3.60037 0
M  V30 5863 C 558.234 -1.4647 -4.25284 0
M  V30 5864 C 559.553 0.619877 -4.35713 0
M  V30 5865 H 556.672 -0.0395438 -0.735938 0
M  V30 5866 H 559.314 -0.781126 -1.73201 0
M  V30 5867 H 557.464 0.50871 -3.85155 0
M  V30 5868 H 559.136 -2.08785 -4.11347 0
M  V30 5869 H 557.379 -2.02502 -3.83634 0
M  V30 5870 H 558.05 -1.39069 -5.34195 0
M  V30 5871 H 560.526 0.130297 -4.15896 0
M  V30 5872 H 559.402 0.615224 -5.45441 0
M  V30 5873 H 559.663 1.68621 -4.0868 0
M  V30 5874 N 558.722 1.53707 -0.348139 0
M  V30 5875 C 559.95 2.05406 0.248224 0
M  V30 5876 C 560.365 1.22282 1.43849 0
M  V30 5877 O 559.722 0.259244 1.80649 0
M  V30 5878 C 559.773 3.55446 0.658793 0
M  V30 5879 O 559.494 4.35417 -0.484149 0
M  V30 5880 C 560.995 4.23335 1.31539 0
M  V30 5881 H 558.215 0.669344 0.0471075 0
M  V30 5882 H 560.759 1.98257 -0.501456 0
M  V30 5883 H 558.914 3.62803 1.35841 0
M  V30 5884 H 559.328 5.24268 -0.155949 0
M  V30 5885 H 560.802 5.29692 1.55338 0
M  V30 5886 H 561.279 3.75967 2.27036 0
M  V30 5887 H 561.885 4.20184 0.657683 0
M  V30 5888 N 560.2 0.0768682 1.57412 0
M  V30 5889 C 561.449 -0.590679 1.92857 0
M  V30 5890 C 561.762 -1.70461 0.959293 0
M  V30 5891 O 562.968 -2.43207 1.20675 0
M  V30 5892 C 561.424 -1.10204 3.42612 0
M  V30 5893 C 561.032 -0.0188447 4.47996 0
M  V30 5894 C 562.776 -1.74336 3.87049 0
M  V30 5895 C 560.683 -0.544536 5.88888 0
M  V30 5896 H 559.613 -0.224411 0.71983 0
M  V30 5897 H 562.264 0.149924 1.82887 0
M  V30 5898 H 560.646 -1.89577 3.47673 0
M  V30 5899 H 561.82 0.755936 4.54557 0
M  V30 5900 H 560.135 0.526555 4.13057 0
M  V30 5901 H 562.732 -2.14708 4.89699 0
M  V30 5902 H 563.075 -2.60537 3.24694 0
M  V30 5903 H 563.608 -1.01577 3.84613 0
M  V30 5904 H 560.347 0.280426 6.549 0
M  V30 5905 H 559.867 -1.28673 5.85836 0
M  V30 5906 H 561.546 -1.01933 6.3892 0
M  V30 5907 N 561.678 -1.56367 -0.196722 0
M  V30 5908 C 562.924 -1.80796 -0.918725 0
M  V30 5909 C 563.257 -0.650645 -1.82976 0
M  V30 5910 O 562.532 0.348889 -1.91345 0
M  V30 5911 C 562.815 -3.15472 -1.73636 0
M  V30 5912 C 562.668 -4.41693 -0.85015 0
M  V30 5913 C 563.987 -3.46824 -2.70927 0
M  V30 5914 H 561.106 -0.657702 -0.332561 0
M  V30 5915 H 563.748 -1.89086 -0.186186 0
M  V30 5916 H 561.898 -3.08536 -2.36088 0
M  V30 5917 H 563.57 -4.60673 -0.240459 0
M  V30 5918 H 561.813 -4.33517 -0.156785 0
M  V30 5919 H 562.484 -5.32419 -1.45719 0
M  V30 5920 H 564.96 -3.54049 -2.18607 0
M  V30 5921 H 563.836 -4.4218 -3.25219 0
M  V30 5922 H 564.097 -2.70236 -3.49893 0
M  V30 5923 N 563.156 0.464375 -1.50603 0
M  V30 5924 C 564.066 1.58723 -1.72754 0
M  V30 5925 C 565.082 1.62925 -0.610844 0
M  V30 5926 O 566.258 1.8067 -0.889963 0
M  V30 5927 C 563.323 2.94897 -1.82309 0
M  V30 5928 C 562.384 3.0103 -3.06071 0
M  V30 5929 C 561.617 4.30708 -3.1516 0
M  V30 5930 O 561.84 5.2159 -2.30868 0
M  V30 5931 O 560.774 4.42571 -4.0794 0
M  V30 5932 H 564.6 1.42954 -2.67951 0
M  V30 5933 H 562.185 0.644579 -1.3478 0
M  V30 5934 H 564.067 3.75764 -1.90735 0
M  V30 5935 H 562.742 3.10851 -0.902967 0
M  V30 5936 H 561.649 2.19217 -3.03142 0
M  V30 5937 H 562.982 2.90014 -3.97684 0
M  V30 5938 N 564.634 1.40294 0.718013 0
M  V30 5939 C 565.874 1.39888 1.49032 0
M  V30 5940 C 566.238 -0.000462935 1.92 0
M  V30 5941 O 567.439 -0.129622 2.68487 0
M  V30 5942 C 565.71 2.35868 2.68516 0
M  V30 5943 S 567.269 2.53799 3.57954 0
M  V30 5944 H 564.087 0.495849 0.509563 0
M  V30 5945 H 566.689 1.76541 0.839846 0
M  V30 5946 H 565.393 3.36375 2.35117 0
M  V30 5947 H 564.924 2.0049 3.38478 0
M  V30 5948 H 566.939 1.78859 4.62843 0
M  V30 5949 N 566.112 -0.949982 1.2575 0
M  V30 5950 C 567.36 -1.6918 1.10555 0
M  V30 5951 C 567.681 -1.91773 -0.353298 0
M  V30 5952 O 566.951 -1.50814 -1.25027 0
M  V30 5953 H 565.531 -0.626952 0.406129 0
M  V30 5954 H 568.193 -1.1419 1.57945 0
M  V30 5955 H 567.289 -2.66915 1.61749 0
M  V30 5956 N 567.59 -1.07411 -1.15328 0
M  V30 5957 C 569.001 -0.820261 -1.67716 0
M  V30 5958 C 569.352 0.654539 -1.8496 0
M  V30 5959 O 568.477 1.50664 -1.55337 0
M  V30 5960 C 569.072 -1.48242 -3.04647 0
M  V30 5961 C 567.631 -1.27606 -3.5411 0
M  V30 5962 C 566.778 -1.5517 -2.29821 0
M  V30 5963 H 569.729 -1.23608 -0.995332 0
M  V30 5964 H 569.75 -0.903984 -3.69606 0
M  V30 5965 H 569.262 -2.55578 -2.92064 0
M  V30 5966 H 567.363 -0.222948 -3.71932 0
M  V30 5967 H 567.476 -1.99667 -4.35511 0
M  V30 5968 H 565.84 -0.972747 -2.35393 0
M  V30 5969 H 566.623 -2.63689 -2.19824 0
M  V30 5970 N 569.068 1.32177 -0.85831 0
M  V30 5971 C 570.314 1.97417 -0.46417 0
M  V30 5972 C 570.647 1.67746 0.978514 0
M  V30 5973 O 569.922 0.967654 1.68721 0
M  V30 5974 C 570.205 3.53069 -0.708094 0
M  V30 5975 C 570.058 3.92357 -2.19946 0
M  V30 5976 C 571.377 4.39783 -0.166881 0
M  V30 5977 H 568.496 0.717097 -0.17012 0
M  V30 5978 H 571.138 1.56499 -1.07741 0
M  V30 5979 H 569.288 3.88054 -0.186128 0
M  V30 5980 H 570.96 3.67533 -2.78779 0
M  V30 5981 H 569.203 3.41384 -2.67656 0
M  V30 5982 H 569.874 5.00841 -2.32082 0
M  V30 5983 H 572.35 4.11556 -0.613285 0
M  V30 5984 H 571.226 5.47671 -0.367093 0
M  V30 5985 H 571.487 4.32196 0.930559 0
M  V30 5986 N 570.547 0.616602 1.45037 0
M  V30 5987 C 571.477 -0.0840787 2.33349 0
M  V30 5988 C 572.458 -0.849641 1.4736 0
M  V30 5989 O 573.643 -0.818407 1.76113 0
M  V30 5990 C 570.773 -1.07604 3.3021 0
M  V30 5991 C 569.727 -0.423096 4.25904 0
M  V30 5992 C 569.053 -1.52394 5.12523 0
M  V30 5993 C 570.353 0.661457 5.18095 0
M  V30 5994 H 572.047 0.653333 2.92185 0
M  V30 5995 H 569.593 0.315634 1.40498 0
M  V30 5996 H 571.546 -1.57485 3.90866 0
M  V30 5997 H 570.27 -1.84416 2.69552 0
M  V30 5998 H 568.929 0.05493 3.66559 0
M  V30 5999 H 568.577 -2.28257 4.48227 0
M  V30 6000 H 568.277 -1.09251 5.77354 0
M  V30 6001 H 569.801 -2.02485 5.76049 0
M  V30 6002 H 571.215 0.246353 5.7277 0
M  V30 6003 H 569.612 1.01517 5.91451 0
M  V30 6004 H 570.682 1.53446 4.59981 0
M  V30 6005 N 572.025 -1.5352 0.356285 0
M  V30 6006 C 572.955 -2.28372 -0.486661 0
M  V30 6007 C 573.936 -1.30432 -1.09185 0
M  V30 6008 O 575.121 -1.59291 -1.11085 0
M  V30 6009 C 572.251 -3.06604 -1.63129 0
M  V30 6010 C 571.205 -4.12154 -1.15381 0
M  V30 6011 C 570.531 -4.78415 -2.38796 0
M  V30 6012 C 571.831 -5.21724 -0.245179 0
M  V30 6013 H 573.525 -2.99083 0.137797 0
M  V30 6014 H 571.071 -1.43841 0.0677134 0
M  V30 6015 H 573.024 -3.57712 -2.22755 0
M  V30 6016 H 571.748 -2.33568 -2.28284 0
M  V30 6017 H 570.407 -3.61978 -0.580294 0
M  V30 6018 H 570.055 -4.01959 -3.02387 0
M  V30 6019 H 569.755 -5.49734 -2.07524 0
M  V30 6020 H 571.279 -5.32313 -2.99125 0
M  V30 6021 H 572.693 -5.68391 -0.748646 0
M  V30 6022 H 571.09 -6.00095 -0.0237608 0
M  V30 6023 H 572.16 -4.79596 0.715229 0
M  V30 6024 N 573.503 -0.0852151 -1.57369 0
M  V30 6025 C 574.751 0.579658 -1.93609 0
M  V30 6026 C 575.072 1.69332 -0.967043 0
M  V30 6027 O 574.342 1.95892 -0.0174215 0
M  V30 6028 H 572.922 0.217113 -0.714752 0
M  V30 6029 H 575.584 -0.146226 -1.94351 0
M  V30 6030 H 574.68 0.996276 -2.95771 0
M  V30 6031 N 574.981 1.5647 0.188427 0
M  V30 6032 C 576.392 1.70864 0.752494 0
M  V30 6033 C 576.743 0.692905 1.83557 0
M  V30 6034 O 575.868 -0.149307 2.15884 0
M  V30 6035 C 576.463 3.09789 1.37173 0
M  V30 6036 C 575.022 3.25925 1.88281 0
M  V30 6037 C 574.169 2.66817 0.755259 0
M  V30 6038 H 577.12 1.58657 -0.0367408 0
M  V30 6039 H 577.141 3.07489 2.24122 0
M  V30 6040 H 576.653 3.83693 0.583219 0
M  V30 6041 H 574.754 2.56948 2.6983 0
M  V30 6042 H 574.867 4.33498 2.04001 0
M  V30 6043 H 573.231 2.2617 1.17128 0
M  V30 6044 H 574.014 3.43294 -0.0211237 0
M  V30 6045 N 576.459 -0.456382 1.50847 0
M  V30 6046 C 577.87 -1.03685 1.55262 0
M  V30 6047 C 578.221 -1.92779 0.364771 0
M  V30 6048 O 577.346 -2.10043 -0.52068 0
M  V30 6049 C 577.941 -1.88718 2.81374 0
M  V30 6050 C 576.5 -2.41847 2.88422 0
M  V30 6051 C 575.647 -1.20564 2.49719 0
M  V30 6052 H 578.598 -0.238399 1.56899 0
M  V30 6053 H 578.619 -2.73957 2.6406 0
M  V30 6054 H 578.131 -1.23847 3.67809 0
M  V30 6055 H 576.232 -3.10228 2.06372 0
M  V30 6056 H 576.345 -2.75947 3.9165 0
M  V30 6057 H 574.709 -1.54504 2.02486 0
M  V30 6058 H 575.492 -0.573326 3.38479 0
M  V30 6059 N 577.937 -1.40673 -0.710563 0
M  V30 6060 C 578.867 -1.44095 -1.83736 0
M  V30 6061 C 579.848 -0.301286 -1.67411 0
M  V30 6062 O 581.033 -0.510618 -1.87367 0
M  V30 6063 C 578.163 -1.30773 -3.21738 0
M  V30 6064 C 577.117 -2.42395 -3.52745 0
M  V30 6065 C 576.443 -2.14147 -4.89944 0
M  V30 6066 C 577.743 -3.84738 -3.53234 0
M  V30 6067 H 579.437 -2.38396 -1.81129 0
M  V30 6068 H 576.983 -1.14746 -0.870017 0
M  V30 6069 H 578.936 -1.31783 -4.00264 0
M  V30 6070 H 577.66 -0.329507 -3.24934 0
M  V30 6071 H 576.319 -2.40643 -2.76562 0
M  V30 6072 H 575.967 -1.14703 -4.89747 0
M  V30 6073 H 575.667 -2.88934 -5.11655 0
M  V30 6074 H 577.191 -2.16848 -5.70797 0
M  V30 6075 H 578.605 -3.88286 -4.2179 0
M  V30 6076 H 577.002 -4.59085 -3.86473 0
M  V30 6077 H 578.072 -4.13962 -2.52514 0
M  V30 6078 N 579.415 0.9433 -1.26252 0
M  V30 6079 C 580.378 2.02326 -1.07689 0
M  V30 6080 C 581.378 1.60779 -0.0259174 0
M  V30 6081 O 582.568 1.72108 -0.269134 0
M  V30 6082 C 579.7 3.34886 -0.63752 0
M  V30 6083 H 580.893 2.20225 -2.0357 0
M  V30 6084 H 578.446 1.12197 -1.08819 0
M  V30 6085 H 579.181 3.22684 0.323377 0
M  V30 6086 H 578.966 3.66393 -1.39637 0
M  V30 6087 H 580.456 4.14231 -0.529418 0
M  V30 6088 N 580.893 1.08022 1.14757 0
M  V30 6089 C 582.141 0.805913 1.85336 0
M  V30 6090 C 582.462 -0.670162 1.83122 0
M  V30 6091 O 581.732 -1.48567 1.2769 0
M  V30 6092 H 580.312 0.295138 0.686223 0
M  V30 6093 H 582.974 1.36538 1.3908 0
M  V30 6094 H 582.07 1.14655 2.90277 0
M  V30 6095 N 582.371 -1.3172 0.865308 0
M  V30 6096 C 583.318 -2.2863 0.315736 0
M  V30 6097 C 584.288 -1.55524 -0.583213 0
M  V30 6098 O 585.473 -1.83694 -0.51585 0
M  V30 6099 C 582.613 -3.41735 -0.480773 0
M  V30 6100 C 581.726 -4.297 0.445167 0
M  V30 6101 C 580.861 -5.29944 -0.365012 0
M  V30 6102 C 579.9 -6.09554 0.557651 0
M  V30 6103 N 579.037 -7.01768 -0.215994 0
M  V30 6104 H 583.877 -2.75026 1.14736 0
M  V30 6105 H 581.414 -1.35302 0.577209 0
M  V30 6106 H 583.372 -4.06045 -0.958306 0
M  V30 6107 H 582.002 -2.96461 -1.27714 0
M  V30 6108 H 581.054 -3.65875 1.04113 0
M  V30 6109 H 582.366 -4.85295 1.15284 0
M  V30 6110 H 581.52 -5.99908 -0.905255 0
M  V30 6111 H 580.259 -4.74994 -1.106 0
M  V30 6112 H 579.264 -5.38485 1.10969 0
M  V30 6113 H 580.489 -6.66591 1.29742 0
M  V30 6114 H 578.435 -6.49232 -0.939878 0
M  V30 6115 H 578.352 -7.54762 0.432431 0
M  V30 6116 H 579.62 -7.76002 -0.737618 0
M  V30 6117 N 583.85 -0.624285 -1.44708 0
M  V30 6118 C 584.779 0.0717025 -2.3339 0
M  V30 6119 C 585.76 0.841814 -1.47809 0
M  V30 6120 O 586.946 0.809056 -1.76544 0
M  V30 6121 C 584.076 1.05852 -3.30776 0
M  V30 6122 C 583.029 0.400503 -4.26122 0
M  V30 6123 C 582.356 1.49674 -5.13324 0
M  V30 6124 C 583.656 -0.688924 -5.17737 0
M  V30 6125 H 585.35 -0.668819 -2.91834 0
M  V30 6126 H 582.896 -0.32308 -1.40329 0
M  V30 6127 H 584.849 1.5541 -3.91696 0
M  V30 6128 H 583.572 1.82984 -2.70526 0
M  V30 6129 H 582.231 -0.0743687 -3.66525 0
M  V30 6130 H 581.88 2.25877 -4.49431 0
M  V30 6131 H 581.58 1.06188 -5.77926 0
M  V30 6132 H 583.104 1.99427 -5.77115 0
M  V30 6133 H 584.518 -0.276724 -5.72632 0
M  V30 6134 H 582.915 -1.04652 -5.90904 0
M  V30 6135 H 583.985 -1.55884 -4.5916 0
M  V30 6136 N 585.328 1.53329 -0.364422 0
M  V30 6137 C 586.574 2.01537 0.225969 0
M  V30 6138 C 586.907 1.25128 1.48515 0
M  V30 6139 O 586.182 0.344653 1.91422 0
M  V30 6140 C 586.465 3.56339 0.519092 0
M  V30 6141 C 586.318 4.43441 -0.753639 0
M  V30 6142 C 587.637 4.19833 1.32015 0
M  V30 6143 H 584.756 0.732573 0.0806548 0
M  V30 6144 H 587.398 1.83597 -0.489084 0
M  V30 6145 H 585.548 3.71756 1.12825 0
M  V30 6146 H 587.22 4.39823 -1.39116 0
M  V30 6147 H 585.463 4.11457 -1.37424 0
M  V30 6148 H 586.134 5.49699 -0.503517 0
M  V30 6149 H 588.61 4.08242 0.804859 0
M  V30 6150 H 587.486 5.28177 1.49399 0
M  V30 6151 H 587.747 3.75821 2.32832 0
M  V30 6152 N 586.806 0.0935595 1.57322 0
M  V30 6153 C 588.083 -0.612692 1.85756 0
M  V30 6154 C 588.463 -1.86439 0.99013 0
M  V30 6155 O 587.811 -2.28416 0.0621362 0
M  V30 6156 C 588.021 -0.929547 3.36393 0
M  V30 6157 C 589.369 -1.29366 4.04413 0
M  V30 6158 O 590.393 -1.02061 3.41265 0
M  V30 6159 O 589.252 -1.80498 5.15832 0
M  V30 6160 H 586.346 -0.306444 0.768128 0
M  V30 6161 H 588.892 0.126141 1.69231 0
M  V30 6162 H 587.664 -0.0414766 3.91278 0
M  V30 6163 H 587.287 -1.72441 3.5826 0
M  V30 6164 N 588.284 -1.56567 -0.180126 0
M  V30 6165 C 589.214 -1.98753 -1.22553 0
M  V30 6166 C 590.195 -0.86175 -1.46656 0
M  V30 6167 O 591.38 -1.12719 -1.58139 0
M  V30 6168 C 588.51 -2.33988 -2.56645 0
M  V30 6169 C 587.464 -3.49445 -2.47128 0
M  V30 6170 C 586.79 -3.70397 -3.8563 0
M  V30 6171 C 588.09 -4.83171 -1.98352 0
M  V30 6172 H 589.784 -2.86332 -0.874896 0
M  V30 6173 H 587.33 -1.37757 -0.419414 0
M  V30 6174 H 589.283 -2.62097 -3.29974 0
M  V30 6175 H 588.007 -1.43309 -2.93479 0
M  V30 6176 H 586.666 -3.2145 -1.76254 0
M  V30 6177 H 586.314 -2.77023 -4.19842 0
M  V30 6178 H 586.014 -4.48077 -3.80132 0
M  V30 6179 H 587.538 -4.00897 -4.60558 0
M  V30 6180 H 588.952 -5.10213 -2.61449 0
M  V30 6181 H 587.349 -5.64425 -2.03823 0
M  V30 6182 H 588.419 -4.75753 -0.937402 0
M  V30 6183 N 589.762 0.448376 -1.51087 0
M  V30 6184 C 590.99 1.22143 -1.66999 0
M  V30 6185 C 591.405 1.85283 -0.362699 0
M  V30 6186 O 590.762 1.70236 0.65772 0
M  V30 6187 C 590.813 2.31357 -2.7777 0
M  V30 6188 O 590.534 1.70801 -4.03434 0
M  V30 6189 C 592.035 3.21836 -3.04855 0
M  V30 6190 H 589.255 0.368558 -0.560719 0
M  V30 6191 H 591.799 0.532618 -1.97442 0
M  V30 6192 H 589.954 2.95973 -2.49958 0
M  V30 6193 H 590.368 2.42895 -4.64868 0
M  V30 6194 H 591.842 3.94627 -3.85971 0
M  V30 6195 H 592.319 3.81949 -2.16821 0
M  V30 6196 H 592.925 2.62933 -3.34285 0
M  V30 6197 N 591.24 1.41047 0.703093 0
M  V30 6198 C 592.488 1.39723 1.4602 0
M  V30 6199 C 592.809 0.00461257 1.94999 0
M  V30 6200 O 592.079 -0.952292 1.71196 0
M  V30 6201 H 590.659 0.514281 0.541779 0
M  V30 6202 H 593.321 1.76217 0.832678 0
M  V30 6203 H 592.417 2.07982 2.32701 0
M  V30 6204 N 592.718 -0.936591 1.26751 0
M  V30 6205 C 593.628 -2.06949 1.10496 0
M  V30 6206 C 594.644 -1.7396 0.037271 0
M  V30 6207 O 595.82 -1.99941 0.241944 0
M  V30 6208 C 592.885 -3.38612 0.744491 0
M  V30 6209 C 591.946 -3.85355 1.89209 0
M  V30 6210 C 591.179 -5.10735 1.54873 0
M  V30 6211 O 591.402 -5.68602 0.452546 0
M  V30 6212 O 590.336 -5.52632 2.38499 0
M  V30 6213 H 594.162 -2.23571 2.05547 0
M  V30 6214 H 591.747 -1.05428 1.05855 0
M  V30 6215 H 593.629 -4.17711 0.556396 0
M  V30 6216 H 592.304 -3.23218 -0.176582 0
M  V30 6217 H 591.211 -3.07182 2.13518 0
M  V30 6218 H 592.544 -4.05277 2.79305 0
M  V30 6219 N 594.196 -1.08629 -1.14182 0
M  V30 6220 C 595.426 -0.837673 -1.88856 0
M  V30 6221 C 595.834 0.614024 -1.78959 0
M  V30 6222 O 595.177 1.43384 -1.14833 0
M  V30 6223 C 595.239 -1.18355 -3.39459 0
M  V30 6224 C 594.903 -2.63848 -3.73139 0
M  V30 6225 C 595.9 -3.62099 -3.73069 0
M  V30 6226 C 593.585 -2.99761 -4.03049 0
M  V30 6227 C 595.579 -4.94292 -4.02435 0
M  V30 6228 C 593.266 -4.32147 -4.32078 0
M  V30 6229 C 594.264 -5.29223 -4.31755 0
M  V30 6230 O 593.952 -6.59229 -4.60079 0
M  V30 6231 H 593.684 -0.301609 -0.604986 0
M  V30 6232 H 596.238 -1.44961 -1.45518 0
M  V30 6233 H 594.468 -0.514628 -3.8326 0
M  V30 6234 H 596.157 -0.915391 -3.95443 0
M  V30 6235 H 596.923 -3.35698 -3.50046 0
M  V30 6236 H 592.802 -2.2484 -4.02453 0
M  V30 6237 H 596.346 -5.70055 -4.02098 0
M  V30 6238 H 592.243 -4.58296 -4.54571 0
M  V30 6239 H 593.011 -6.64578 -4.77785 0
M  V30 6240 N 595.674 1.31259 -0.872281 0
M  V30 6241 C 596.621 2.28459 -0.327857 0
M  V30 6242 C 597.591 1.55831 0.574957 0
M  V30 6243 O 598.776 1.83965 0.506101 0
M  V30 6244 C 595.916 3.41985 0.462644 0
M  V30 6245 C 595.029 4.29458 -0.467949 0
M  V30 6246 C 594.164 5.30131 0.336903 0
M  V30 6247 C 593.203 6.0925 -0.58997 0
M  V30 6248 N 592.34 7.01872 0.178775 0
M  V30 6249 H 597.18 2.74414 -1.16193 0
M  V30 6250 H 594.717 1.34994 -0.584376 0
M  V30 6251 H 596.675 4.06547 0.936759 0
M  V30 6252 H 595.305 2.97134 1.2614 0
M  V30 6253 H 594.357 3.65318 -1.06052 0
M  V30 6254 H 595.669 4.84677 -1.17856 0
M  V30 6255 H 594.823 6.0038 0.873427 0
M  V30 6256 H 593.562 4.75573 1.08079 0
M  V30 6257 H 592.567 5.37889 -1.13823 0
M  V30 6258 H 593.792 6.65894 -1.33275 0
M  V30 6259 H 591.738 6.49721 0.905435 0
M  V30 6260 H 591.655 7.54522 -0.472452 0
M  V30 6261 H 592.923 7.76382 0.696454 0
M  V30 6262 N 597.152 0.631951 1.44375 0
M  V30 6263 C 598.382 0.143658 2.061 0
M  V30 6264 C 598.79 -1.18733 1.47306 0
M  V30 6265 O 598.133 -1.73943 0.590724 0
M  V30 6266 C 598.195 -0.0446102 3.59472 0
M  V30 6267 C 597.859 1.20835 4.40736 0
M  V30 6268 C 598.856 2.13224 4.74164 0
M  V30 6269 C 596.541 1.44399 4.81097 0
M  V30 6270 C 598.535 3.27487 5.46838 0
M  V30 6271 C 596.222 2.58959 5.53519 0
M  V30 6272 C 597.22 3.50329 5.86309 0
M  V30 6273 O 596.908 4.62891 6.57257 0
M  V30 6274 H 596.64 0.0772939 0.671567 0
M  V30 6275 H 599.194 0.866677 1.8622 0
M  V30 6276 H 597.424 -0.822783 3.77845 0
M  V30 6277 H 599.113 -0.487561 4.02961 0
M  V30 6278 H 599.879 1.96253 4.4352 0
M  V30 6279 H 595.758 0.741696 4.54994 0
M  V30 6280 H 599.302 3.98826 5.72349 0
M  V30 6281 H 595.199 2.75873 5.83579 0
M  V30 6282 H 595.967 4.61883 6.75726 0
M  V30 6283 N 598.631 -1.53133 0.372548 0
M  V30 6284 C 599.564 -2.22328 -0.514361 0
M  V30 6285 C 600.542 -1.21776 -1.07747 0
M  V30 6286 O 601.726 -1.50704 -1.13228 0
M  V30 6287 C 598.853 -2.92343 -1.71035 0
M  V30 6288 C 597.899 -4.07026 -1.27405 0
M  V30 6289 S 598.732 -5.34821 -0.269526 0
M  V30 6290 C 599.888 -6.08352 -1.47168 0
M  V30 6291 H 600.121 -2.9721 0.0732683 0
M  V30 6292 H 597.654 -1.53603 0.156673 0
M  V30 6293 H 599.612 -3.33296 -2.39634 0
M  V30 6294 H 598.273 -2.17173 -2.26925 0
M  V30 6295 H 597.466 -4.55056 -2.16656 0
M  V30 6296 H 597.068 -3.68001 -0.66719 0
M  V30 6297 H 599.36 -6.33507 -2.40157 0
M  V30 6298 H 600.303 -7.0053 -1.03263 0
M  V30 6299 H 600.711 -5.38893 -1.6809 0
M  V30 6300 N 600.109 -0.101901 -1.5727 0
M  V30 6301 C 601.339 0.567568 -1.98651 0
M  V30 6302 C 601.747 1.61839 -0.980037 0
M  V30 6303 O 601.09 1.83661 0.0376564 0
M  V30 6304 C 601.152 1.26742 -3.36417 0
M  V30 6305 C 600.816 0.366561 -4.55528 0
M  V30 6306 C 601.813 -0.388022 -5.1845 0
M  V30 6307 C 599.498 0.282629 -5.01504 0
M  V30 6308 C 601.492 -1.21445 -6.25724 0
M  V30 6309 C 599.179 -0.547443 -6.08643 0
M  V30 6310 C 600.177 -1.29462 -6.70618 0
M  V30 6311 O 599.865 -2.11095 -7.7569 0
M  V30 6312 H 599.597 0.156282 -0.657687 0
M  V30 6313 H 602.151 -0.179912 -2.04611 0
M  V30 6314 H 600.381 2.06162 -3.27161 0
M  V30 6315 H 602.07 1.8321 -3.622 0
M  V30 6316 H 602.836 -0.332949 -4.83856 0
M  V30 6317 H 598.715 0.853868 -4.53023 0
M  V30 6318 H 602.259 -1.79814 -6.74027 0
M  V30 6319 H 598.156 -0.603971 -6.42668 0
M  V30 6320 H 598.924 -2.03851 -7.92709 0
M  V30 6321 N 601.587 1.56661 0.17182 0
M  V30 6322 C 602.52 1.91474 1.24149 0
M  V30 6323 C 603.498 0.777485 1.42807 0
M  V30 6324 O 604.682 1.03075 1.57822 0
M  V30 6325 C 601.809 2.16523 2.60453 0
M  V30 6326 C 600.855 3.39209 2.58533 0
M  V30 6327 S 601.688 4.93594 2.07665 0
M  V30 6328 C 602.844 5.21737 3.45747 0
M  V30 6329 H 603.077 2.81903 0.944346 0
M  V30 6330 H 600.61 1.49743 0.376364 0
M  V30 6331 H 602.568 2.31635 3.38903 0
M  V30 6332 H 601.229 1.26802 2.87368 0
M  V30 6333 H 600.422 3.53935 3.58812 0
M  V30 6334 H 600.024 3.2321 1.88178 0
M  V30 6335 H 602.316 5.13684 4.41741 0
M  V30 6336 H 603.259 6.23361 3.35896 0
M  V30 6337 H 603.667 4.49307 3.41736 0
M  V30 6338 N 603.065 -0.440357 1.51323 0
M  V30 6339 C 604.29 -1.21716 1.67928 0
M  V30 6340 C 604.715 -1.84328 0.374826 0
M  V30 6341 O 604.073 -1.68675 -0.664706 0
M  V30 6342 C 604.121 -2.27914 2.79442 0
M  V30 6343 O 603.225 -3.33325 2.42834 0
M  V30 6344 H 602.566 -0.35674 0.560029 0
M  V30 6345 H 605.096 -0.520417 1.97871 0
M  V30 6346 H 605.106 -2.72746 3.03436 0
M  V30 6347 H 603.781 -1.8172 3.741 0
M  V30 6348 H 602.358 -2.9399 2.294 0
M  V30 6349 N 604.543 -1.41418 -0.695603 0
M  V30 6350 C 605.783 -1.42241 -1.46788 0
M  V30 6351 C 606.147 -0.0300827 -1.91976 0
M  V30 6352 O 607.348 0.0868914 -2.6866 0
M  V30 6353 C 605.619 -2.4011 -2.6473 0
M  V30 6354 S 607.178 -2.59462 -3.53871 0
M  V30 6355 H 603.996 -0.503893 -0.50161 0
M  V30 6356 H 606.598 -1.77855 -0.811654 0
M  V30 6357 H 605.302 -3.40073 -2.29736 0
M  V30 6358 H 604.833 -2.05849 -3.35246 0
M  V30 6359 H 606.848 -1.862 -4.59939 0
M  V30 6360 N 606.021 0.929856 -1.27246 0
M  V30 6361 C 607.269 1.674 -1.13233 0
M  V30 6362 C 607.59 1.92311 0.322744 0
M  V30 6363 O 606.86 1.52784 1.22612 0
M  V30 6364 H 605.44 0.620411 -0.416052 0
M  V30 6365 H 608.102 1.11663 -1.59741 0
M  V30 6366 H 607.198 2.64308 -1.65975 0
M  V30 6367 N 607.499 1.09233 1.13605 0
M  V30 6368 C 608.462 0.733553 2.17144 0
M  V30 6369 C 609.462 -0.235873 1.59061 0
M  V30 6370 O 610.652 -0.0143167 1.74194 0
M  V30 6371 C 607.784 0.084471 3.40795 0
M  V30 6372 H 608.977 1.65049 2.50397 0
M  V30 6373 H 606.53 0.891264 1.28399 0
M  V30 6374 H 607.265 -0.843795 3.1313 0
M  V30 6375 H 607.05 0.781985 3.84223 0
M  V30 6376 H 608.54 -0.151216 4.17326 0
M  V30 6377 N 608.977 -1.30795 0.87923 0
M  V30 6378 C 610.226 -1.95636 0.490875 0
M  V30 6379 C 610.539 -1.70214 -0.963674 0
M  V30 6380 O 611.745 -2.28991 -1.45861 0
M  V30 6381 C 610.201 -3.50271 0.826929 0
M  V30 6382 C 609.809 -3.84521 2.29886 0
M  V30 6383 C 611.553 -4.21456 0.507494 0
M  V30 6384 C 609.46 -5.32309 2.57685 0
M  V30 6385 H 608.39 -0.732238 0.179841 0
M  V30 6386 H 611.041 -1.48829 1.07341 0
M  V30 6387 H 609.423 -3.9562 0.173542 0
M  V30 6388 H 610.597 -3.50102 2.99609 0
M  V30 6389 H 608.912 -3.26425 2.58526 0
M  V30 6390 H 611.509 -5.30199 0.692293 0
M  V30 6391 H 611.852 -4.12614 -0.552718 0
M  V30 6392 H 612.385 -3.81772 1.11782 0
M  V30 6393 H 609.124 -5.46195 3.62424 0
M  V30 6394 H 608.644 -5.68048 1.92566 0
M  V30 6395 H 610.323 -5.99678 2.42889 0
M  V30 6396 N 610.455 -0.639598 -1.44038 0
M  V30 6397 C 611.701 -0.147698 -2.02261 0
M  V30 6398 C 612.034 1.23031 -1.50256 0
M  V30 6399 O 611.309 1.81847 -0.690068 0
M  V30 6400 C 611.592 -0.14362 -3.59813 0
M  V30 6401 C 611.445 -1.55458 -4.22082 0
M  V30 6402 C 612.764 0.527317 -4.36929 0
M  V30 6403 H 609.883 -0.0551453 -0.734934 0
M  V30 6404 H 612.525 -0.817688 -1.71505 0
M  V30 6405 H 610.675 0.426898 -3.86147 0
M  V30 6406 H 612.347 -2.17464 -4.06826 0
M  V30 6407 H 610.59 -2.10594 -3.79253 0
M  V30 6408 H 611.261 -1.50369 -5.31124 0
M  V30 6409 H 613.737 0.0420504 -4.16079 0
M  V30 6410 H 612.613 0.499389 -5.46624 0
M  V30 6411 H 612.874 1.59914 -4.12165 0
M  V30 6412 N 611.933 1.52934 -0.380664 0
M  V30 6413 C 613.179 2.01765 0.20458 0
M  V30 6414 C 613.512 1.26696 1.47179 0
M  V30 6415 O 612.787 0.364936 1.91046 0
M  V30 6416 C 613.07 3.56869 0.481269 0
M  V30 6417 C 612.923 4.42617 -0.800629 0
M  V30 6418 C 614.242 4.2121 1.27554 0
M  V30 6419 H 611.361 0.733388 0.0728803 0
M  V30 6420 H 614.003 1.83068 -0.50853 0
M  V30 6421 H 612.153 3.72932 1.08875 0
M  V30 6422 H 613.825 4.38323 -1.43773 0
M  V30 6423 H 612.068 4.09977 -1.4178 0
M  V30 6424 H 612.739 5.49134 -0.561791 0
M  V30 6425 H 615.215 4.09072 0.761514 0
M  V30 6426 H 614.091 5.29732 1.43788 0
M  V30 6427 H 614.352 3.78269 2.28833 0
M  V30 6428 N 613.412 0.11024 1.57214 0
M  V30 6429 C 614.375 -0.828808 2.1369 0
M  V30 6430 C 615.375 -1.20059 1.06969 0
M  V30 6431 O 616.565 -1.12754 1.32786 0
M  V30 6432 C 613.697 -2.11959 2.66994 0
M  V30 6433 H 614.89 -0.338146 2.97988 0
M  V30 6434 H 612.443 -0.138913 1.55681 0
M  V30 6435 H 613.178 -2.65476 1.8626 0
M  V30 6436 H 612.963 -1.86258 3.45037 0
M  V30 6437 H 614.453 -2.79105 3.10629 0
M  V30 6438 N 614.89 -1.56749 -0.16351 0
M  V30 6439 C 615.853 -1.96121 -1.18613 0
M  V30 6440 C 616.853 -0.845765 -1.36761 0
M  V30 6441 O 618.043 -1.11268 -1.34033 0
M  V30 6442 C 615.175 -2.26282 -2.54969 0
M  V30 6443 H 616.368 -2.87639 -0.848764 0
M  V30 6444 H 613.921 -1.50928 -0.406251 0
M  V30 6445 H 614.656 -1.37504 -2.93706 0
M  V30 6446 H 614.441 -3.07595 -2.43162 0
M  V30 6447 H 615.931 -2.57638 -3.28653 0
M  V30 6448 N 616.368 0.432326 -1.51554 0
M  V30 6449 C 617.593 1.20824 -1.68571 0
M  V30 6450 C 618.018 1.84126 -0.384596 0
M  V30 6451 O 617.376 1.69025 0.655751 0
M  V30 6452 C 617.424 2.26429 -2.80646 0
M  V30 6453 O 616.528 3.32032 -2.44598 0
M  V30 6454 H 615.869 0.353765 -0.561913 0
M  V30 6455 H 618.399 0.509916 -1.98144 0
M  V30 6456 H 618.409 2.71133 -3.04878 0
M  V30 6457 H 617.084 1.79733 -3.75058 0
M  V30 6458 H 615.661 2.92769 -2.30956 0
M  V30 6459 N 617.846 1.41785 0.688094 0
M  V30 6460 C 619.092 1.41753 1.4503 0
M  V30 6461 C 619.425 0.0290745 1.94178 0
M  V30 6462 O 618.7 -0.944456 1.7003 0
M  V30 6463 C 618.983 2.43069 2.65686 0
M  V30 6464 C 618.836 3.91053 2.22256 0
M  V30 6465 C 620.155 2.41543 3.67893 0
M  V30 6466 H 617.274 0.516202 0.526027 0
M  V30 6467 H 619.916 1.73111 0.783105 0
M  V30 6468 H 618.066 2.1646 3.2261 0
M  V30 6469 H 619.738 4.28594 1.70602 0
M  V30 6470 H 617.981 4.05559 1.53963 0
M  V30 6471 H 618.652 4.57501 3.08863 0
M  V30 6472 H 621.128 2.65175 3.20658 0
M  V30 6473 H 620.004 3.14434 4.49914 0
M  V30 6474 H 620.265 1.43666 4.18106 0
M  V30 6475 N 619.324 -0.923095 1.27737 0
M  V30 6476 C 620.57 -1.67409 1.15524 0
M  V30 6477 C 620.925 -1.90124 -0.295072 0
M  V30 6478 O 620.218 -1.48382 -1.21216 0
M  V30 6479 C 620.412 -3.04125 1.8773 0
M  V30 6480 C 620.241 -2.94752 3.39634 0
M  V30 6481 C 619.011 -2.96783 4.0896 0
M  V30 6482 C 621.209 -2.73524 4.35533 0
M  V30 6483 N 619.191 -2.779 5.47398 0
M  V30 6484 C 620.562 -2.63391 5.61271 0
M  V30 6485 C 622.617 -2.58447 4.2557 0
M  V30 6486 C 621.32 -2.3972 6.78179 0
M  V30 6487 C 623.346 -2.36154 5.42204 0
M  V30 6488 C 622.708 -2.26768 6.669 0
M  V30 6489 H 618.807 -0.619196 0.477619 0
M  V30 6490 H 621.391 -1.09094 1.61266 0
M  V30 6491 H 619.562 -3.60545 1.44436 0
M  V30 6492 H 621.294 -3.6819 1.67982 0
M  V30 6493 H 618.049 -3.07186 3.60463 0
M  V30 6494 H 618.473 -2.71576 6.20141 0
M  V30 6495 H 623.115 -2.6446 3.2988 0
M  V30 6496 H 620.833 -2.32447 7.73947 0
M  V30 6497 H 624.419 -2.25367 5.36378 0
M  V30 6498 H 623.299 -2.09751 7.55628 0
M  V30 6499 N 620.802 -1.09834 -1.13024 0
M  V30 6500 C 621.732 -0.763451 -2.20666 0
M  V30 6501 C 622.713 0.260778 -1.68089 0
M  V30 6502 O 623.898 0.127915 -1.93778 0
M  V30 6503 C 621.028 -0.187744 -3.46792 0
M  V30 6504 C 619.982 -1.14196 -4.12484 0
M  V30 6505 C 619.308 -0.427755 -5.32986 0
M  V30 6506 C 620.608 -2.48607 -4.59338 0
M  V30 6507 H 622.302 -1.66347 -2.48936 0
M  V30 6508 H 619.848 -0.801261 -1.19649 0
M  V30 6509 H 621.801 0.0586375 -4.21359 0
M  V30 6510 H 620.525 0.747485 -3.17931 0
M  V30 6511 H 619.184 -1.37369 -3.3989 0
M  V30 6512 H 618.832 0.511747 -5.0039 0
M  V30 6513 H 618.532 -1.06403 -5.77886 0
M  V30 6514 H 620.056 -0.189772 -6.10305 0
M  V30 6515 H 621.47 -2.29618 -5.25308 0
M  V30 6516 H 619.867 -3.08062 -5.14993 0
M  V30 6517 H 620.937 -3.09062 -3.73642 0
M  V30 6518 N 622.28 1.30327 -0.886154 0
M  V30 6519 C 623.21 2.30549 -0.370028 0
M  V30 6520 C 624.191 1.61039 0.547751 0
M  V30 6521 O 625.376 1.8864 0.461353 0
M  V30 6522 C 622.506 3.44808 0.415275 0
M  V30 6523 C 621.46 4.26024 -0.41085 0
M  V30 6524 C 620.786 5.32347 0.501128 0
M  V30 6525 C 622.086 4.95433 -1.65359 0
M  V30 6526 H 623.78 2.73969 -1.20754 0
M  V30 6527 H 621.326 1.3171 -0.582097 0
M  V30 6528 H 623.279 4.13986 0.78699 0
M  V30 6529 H 622.003 3.00197 1.28644 0
M  V30 6530 H 620.662 3.58535 -0.764719 0
M  V30 6531 H 620.31 4.83982 1.37004 0
M  V30 6532 H 620.01 5.87581 -0.0478356 0
M  V30 6533 H 621.534 6.0438 0.869333 0
M  V30 6534 H 622.948 5.5712 -1.35239 0
M  V30 6535 H 621.345 5.60537 -2.14284 0
M  V30 6536 H 622.415 4.21493 -2.39733 0
M  V30 6537 N 623.758 0.647228 1.43697 0
M  V30 6538 C 625.007 0.155552 2.01099 0
M  V30 6539 C 625.32 -1.23569 1.51624 0
M  V30 6540 O 626.526 -1.82226 2.01261 0
M  V30 6541 C 624.982 0.227296 3.59182 0
M  V30 6542 C 624.59 1.62086 4.17651 0
M  V30 6543 C 626.334 -0.207085 4.23995 0
M  V30 6544 C 624.241 1.64685 5.68008 0
M  V30 6545 H 623.171 0.0543895 0.752036 0
M  V30 6546 H 625.822 0.808386 1.64734 0
M  V30 6547 H 624.204 -0.492937 3.9292 0
M  V30 6548 H 625.378 2.36597 3.95422 0
M  V30 6549 H 623.693 2.0007 3.65186 0
M  V30 6550 H 626.29 -0.207426 5.34298 0
M  V30 6551 H 626.633 -1.23742 3.97484 0
M  V30 6552 H 627.166 0.461193 3.95118 0
M  V30 6553 H 623.905 2.65608 5.99277 0
M  V30 6554 H 623.425 0.944914 5.9231 0
M  V30 6555 H 625.104 1.38792 6.31938 0
M  V30 6556 N 625.236 -1.5273 0.388769 0
M  V30 6557 C 626.484 -2.01174 -0.193208 0
M  V30 6558 C 626.805 -1.27705 -1.47365 0
M  V30 6559 O 626.075 -0.396966 -1.91836 0
M  V30 6560 H 624.655 -0.743287 -0.0743871 0
M  V30 6561 H 627.317 -1.87826 0.520336 0
M  V30 6562 H 626.413 -3.09477 -0.403803 0
M  V30 6563 N 626.714 -0.118576 -1.57153 0
M  V30 6564 C 627.662 0.849114 -2.16547 0
M  V30 6565 C 628.656 1.27567 -1.11458 0
M  V30 6566 O 629.862 1.24746 -1.29763 0
M  V30 6567 H 626.237 0.291935 -0.693021 0
M  V30 6568 H 628.208 0.323693 -2.96639 0
M  V30 6569 C 626.957 2.08951 -2.77912 0
M  V30 6570 H 626.28 1.77021 -3.58474 0
M  V30 6571 H 627.72 2.74666 -3.23008 0
M  V30 6572 C 626.179 2.87899 -1.74974 0
M  V30 6573 O 626.709 3.83268 -1.20285 0
M  V30 6574 N 624.915 2.51884 -1.44924 0
M  V30 6575 H 624.462 1.74397 -1.89587 0
M  V30 6576 H 624.42 3.05003 -0.762921 0
M  V30 6577 N 628.193 1.56834 0.155195 0
M  V30 6578 C 629.156 1.96748 1.17571 0
M  V30 6579 C 630.156 0.853006 1.3631 0
M  V30 6580 O 631.346 1.11978 1.33441 0
M  V30 6581 C 628.478 2.27631 2.53765 0
M  V30 6582 H 629.671 2.88085 0.833498 0
M  V30 6583 H 627.224 1.51141 0.398242 0
M  V30 6584 H 627.959 1.39059 2.92973 0
M  V30 6585 H 627.744 3.0888 2.41527 0
M  V30 6586 H 629.234 2.59377 3.27282 0
M  V30 6587 N 629.671 -0.424282 1.51781 0
M  V30 6588 C 630.92 -1.16961 1.64326 0
M  V30 6589 C 631.233 -1.92035 0.371749 0
M  V30 6590 O 632.439 -2.68873 0.37676 0
M  V30 6591 C 630.895 -2.12782 2.90262 0
M  V30 6592 C 630.503 -1.43295 4.24465 0
M  V30 6593 C 632.247 -2.87667 3.12166 0
M  V30 6594 C 630.154 -2.37676 5.41538 0
M  V30 6595 H 629.084 -0.440293 0.612093 0
M  V30 6596 H 631.735 -0.435431 1.78259 0
M  V30 6597 H 630.117 -2.8969 2.69992 0
M  V30 6598 H 631.291 -0.718564 4.55163 0
M  V30 6599 H 629.606 -0.805118 4.08542 0
M  V30 6600 H 632.203 -3.58395 3.96808 0
M  V30 6601 H 632.546 -3.49758 2.25776 0
M  V30 6602 H 633.079 -2.17863 3.32837 0
M  V30 6603 H 629.818 -1.80255 6.30229 0
M  V30 6604 H 629.338 -3.07132 5.15199 0
M  V30 6605 H 631.017 -2.98529 5.74012 0
M  V30 6606 N 631.149 -1.42148 -0.680565 0
M  V30 6607 C 632.097 -1.45401 -1.81552 0
M  V30 6608 C 633.091 -0.33036 -1.66147 0
M  V30 6609 O 634.297 -0.503103 -1.72826 0
M  V30 6610 H 630.672 -0.455265 -0.59853 0
M  V30 6611 H 632.643 -2.41024 -1.75926 0
M  V30 6612 C 631.392 -1.36769 -3.19671 0
M  V30 6613 H 630.715 -2.22525 -3.32149 0
M  V30 6614 H 632.155 -1.43106 -3.9912 0
M  V30 6615 C 630.614 -0.0817752 -3.36801 0
M  V30 6616 O 631.144 0.867707 -3.92216 0
M  V30 6617 N 629.35 -0.000799811 -2.906 0
M  V30 6618 H 628.897 -0.774231 -2.4569 0
M  V30 6619 H 628.855 0.858961 -3.02439 0
M  V30 6620 N 632.627 0.916307 -1.28225 0
M  V30 6621 C 633.857 1.69654 -1.17902 0
M  V30 6622 C 634.265 1.87331 0.265268 0
M  V30 6623 O 633.608 1.39828 1.19137 0
M  V30 6624 C 633.67 3.11024 -1.80289 0
M  V30 6625 C 633.334 3.16643 -3.29525 0
M  V30 6626 C 634.331 2.98032 -4.25997 0
M  V30 6627 C 632.016 3.39238 -3.70436 0
M  V30 6628 C 634.01 3.01924 -5.61356 0
M  V30 6629 C 631.697 3.42762 -5.05922 0
M  V30 6630 C 632.695 3.24125 -6.01192 0
M  V30 6631 O 632.383 3.27406 -7.34208 0
M  V30 6632 H 632.115 0.537197 -0.41036 0
M  V30 6633 H 634.669 1.15547 -1.69817 0
M  V30 6634 H 632.899 3.66662 -1.22865 0
M  V30 6635 H 634.588 3.71063 -1.6452 0
M  V30 6636 H 635.354 2.80405 -3.95725 0
M  V30 6637 H 631.233 3.52791 -2.96749 0
M  V30 6638 H 634.777 2.87295 -6.35694 0
M  V30 6639 H 630.674 3.59916 -5.35846 0
M  V30 6640 H 631.442 3.43784 -7.42802 0
M  V30 6641 N 634.105 1.10431 1.1244 0
M  V30 6642 C 635.521 0.836096 1.35947 0
M  V30 6643 C 635.721 -0.544475 1.94004 0
M  V30 6644 O 634.777 -1.29735 2.16622 0
M  V30 6645 C 636.09 1.93575 2.30107 0
M  V30 6646 C 637.638 1.9642 2.43697 0
M  V30 6647 C 638.113 3.05559 3.41171 0
M  V30 6648 N 639.604 3.04865 3.48728 0
M  V30 6649 C 640.339 3.85954 4.24061 0
M  V30 6650 N 639.835 4.76977 5.02458 0
M  V30 6651 N 641.628 3.74172 4.19466 0
M  V30 6652 H 633.779 1.9942 0.731124 0
M  V30 6653 H 636.042 0.866607 0.384312 0
M  V30 6654 H 635.748 2.92943 1.94621 0
M  V30 6655 H 635.622 1.8229 3.30227 0
M  V30 6656 H 638.009 0.97685 2.78463 0
M  V30 6657 H 638.09 2.11782 1.43465 0
M  V30 6658 H 637.734 4.04513 3.07135 0
M  V30 6659 H 637.664 2.87438 4.41234 0
M  V30 6660 H 640.155 2.38908 2.92799 0
M  V30 6661 H 640.468 5.35409 5.57277 0
M  V30 6662 H 638.813 4.81006 5.01655 0
M  V30 6663 H 642.004 3.02412 3.57302 0
M  V30 6664 H 642.177 4.37602 4.77921 0
M  V30 6665 N 635.583 -1.29855 0.893053 0
M  V30 6666 C 636.513 -2.3035 0.382249 0
M  V30 6667 C 637.494 -1.61328 -0.539203 0
M  V30 6668 O 638.679 -1.88882 -0.451342 0
M  V30 6669 C 635.809 -3.45024 -0.396983 0
M  V30 6670 C 634.763 -4.258 0.433437 0
M  V30 6671 C 634.089 -5.32605 -0.472889 0
M  V30 6672 C 635.389 -4.94549 1.67984 0
M  V30 6673 H 637.083 -2.73325 1.22205 0
M  V30 6674 H 634.629 -1.314 0.589073 0
M  V30 6675 H 636.582 -4.14398 -0.765024 0
M  V30 6676 H 635.306 -3.00875 -1.2705 0
M  V30 6677 H 633.965 -3.58125 0.783723 0
M  V30 6678 H 633.613 -4.84702 -1.34435 0
M  V30 6679 H 633.313 -5.87547 0.0789958 0
M  V30 6680 H 634.837 -6.04832 -0.837269 0
M  V30 6681 H 636.251 -5.56395 1.38192 0
M  V30 6682 H 634.648 -5.59393 2.17254 0
M  V30 6683 H 635.718 -4.20215 2.41965 0
M  V30 6684 N 637.061 -0.65484 -1.43351 0
M  V30 6685 C 637.991 0.0221809 -2.33489 0
M  V30 6686 C 638.972 0.810272 -1.49561 0
M  V30 6687 O 640.157 0.771426 -1.78221 0
M  V30 6688 C 637.287 0.988117 -3.32947 0
M  V30 6689 C 636.241 0.310026 -4.26876 0
M  V30 6690 C 635.567 1.38752 -5.16384 0
M  V30 6691 C 636.867 -0.798589 -5.16159 0
M  V30 6692 H 638.561 -0.730571 -2.9035 0
M  V30 6693 H 636.107 -0.352773 -1.39612 0
M  V30 6694 H 638.06 1.47067 -3.94904 0
M  V30 6695 H 636.784 1.77205 -2.74346 0
M  V30 6696 H 635.443 -0.152097 -3.66284 0
M  V30 6697 H 635.091 2.16293 -4.54121 0
M  V30 6698 H 634.791 0.939051 -5.80048 0
M  V30 6699 H 636.315 1.87141 -5.81215 0
M  V30 6700 H 637.729 -0.398126 -5.71916 0
M  V30 6701 H 636.126 -1.17163 -5.88552 0
M  V30 6702 H 637.196 -1.65588 -4.55751 0
M  V30 6703 N 638.539 1.52521 -0.396863 0
M  V30 6704 C 639.502 2.2527 0.422604 0
M  V30 6705 C 640.502 1.27184 0.983913 0
M  V30 6706 O 641.692 1.51222 0.864723 0
M  V30 6707 C 638.824 3.01356 1.59365 0
M  V30 6708 H 640.017 2.99133 -0.214416 0
M  V30 6709 H 637.57 1.55587 -0.149128 0
M  V30 6710 H 638.305 2.31813 2.26789 0
M  V30 6711 H 638.09 3.73357 1.19779 0
M  V30 6712 H 639.58 3.56571 2.17363 0
M  V30 6713 N 640.017 0.126909 1.57088 0
M  V30 6714 C 640.964 -0.82036 2.15728 0
M  V30 6715 C 641.934 -1.25811 1.08447 0
M  V30 6716 O 643.119 -1.33422 1.36393 0
M  V30 6717 C 640.259 -2.06199 2.76724 0
M  V30 6718 C 639.372 -1.67188 3.98337 0
M  V30 6719 C 638.507 -2.86378 4.47393 0
M  V30 6720 C 637.546 -2.43644 5.61519 0
M  V30 6721 N 636.683 -3.55775 6.05284 0
M  V30 6722 H 641.523 -0.313472 2.96347 0
M  V30 6723 H 639.06 -0.14303 1.46403 0
M  V30 6724 H 641.018 -2.78959 3.10222 0
M  V30 6725 H 639.648 -2.54333 1.98782 0
M  V30 6726 H 638.7 -0.842714 3.70948 0
M  V30 6727 H 640.012 -1.31789 4.81075 0
M  V30 6728 H 639.166 -3.67353 4.82842 0
M  V30 6729 H 637.905 -3.25009 3.63621 0
M  V30 6730 H 636.91 -1.61104 5.25667 0
M  V30 6731 H 638.135 -2.06122 6.47063 0
M  V30 6732 H 636.081 -3.94065 5.24451 0
M  V30 6733 H 635.998 -3.24325 6.82898 0
M  V30 6734 H 637.266 -4.37166 6.45373 0
M  V30 6735 N 641.495 -1.56914 -0.146875 0
M  V30 6736 C 642.405 -2.0154 -1.20079 0
M  V30 6737 C 643.421 -0.930838 -1.47008 0
M  V30 6738 O 644.597 -1.24032 -1.58676 0
M  V30 6739 C 641.662 -2.38715 -2.51428 0
M  V30 6740 C 640.723 -3.6112 -2.32145 0
M  V30 6741 C 639.956 -3.96512 -3.57231 0
M  V30 6742 O 640.179 -3.32566 -4.63418 0
M  V30 6743 O 639.113 -4.89758 -3.49887 0
M  V30 6744 H 642.939 -2.91506 -0.851924 0
M  V30 6745 H 640.524 -1.45106 -0.355607 0
M  V30 6746 H 642.406 -2.63485 -3.28867 0
M  V30 6747 H 641.081 -1.51903 -2.85845 0
M  V30 6748 H 639.988 -3.41536 -1.52656 0
M  V30 6749 H 641.321 -4.48549 -2.02644 0
M  V30 6750 N 642.974 0.416227 -1.52004 0
M  V30 6751 C 644.39 0.754319 -1.40649 0
M  V30 6752 C 644.59 1.95059 -0.505392 0
M  V30 6753 O 643.646 2.5248 0.0315057 0
M  V30 6754 C 644.959 1.0149 -2.83055 0
M  V30 6755 C 646.507 1.11805 -2.9235 0
M  V30 6756 C 646.982 1.41144 -4.35709 0
M  V30 6757 N 648.473 1.48024 -4.38911 0
M  V30 6758 C 649.208 1.72338 -5.46889 0
M  V30 6759 N 648.704 1.94303 -6.64995 0
M  V30 6760 N 650.497 1.74294 -5.34395 0
M  V30 6761 H 642.648 -0.371324 -2.09129 0
M  V30 6762 H 644.911 -0.103811 -0.942299 0
M  V30 6763 H 644.617 0.208345 -3.51082 0
M  V30 6764 H 644.491 1.93697 -3.23668 0
M  V30 6765 H 646.878 1.91521 -2.24508 0
M  V30 6766 H 646.959 0.17451 -2.55204 0
M  V30 6767 H 646.603 0.619484 -5.04108 0
M  V30 6768 H 646.533 2.36739 -4.70385 0
M  V30 6769 H 649.024 1.32868 -3.53772 0
M  V30 6770 H 649.337 2.12286 -7.43071 0
M  V30 6771 H 647.682 1.91582 -6.68073 0
M  V30 6772 H 650.873 1.56667 -4.41104 0
M  V30 6773 H 651.046 1.92904 -6.18621 0
M  V30 6774 N 644.452 1.42507 0.673017 0
M  V30 6775 C 645.399 1.46124 1.78651 0
M  V30 6776 C 646.369 0.313007 1.63124 0
M  V30 6777 O 647.554 0.517337 1.83653 0
M  V30 6778 C 644.694 1.3711 3.16694 0
M  V30 6779 C 643.807 2.61983 3.43495 0
M  V30 6780 C 642.942 2.45098 4.71275 0
M  V30 6781 C 641.981 3.65336 4.91117 0
M  V30 6782 N 641.118 3.47383 6.10139 0
M  V30 6783 H 645.958 2.4128 1.74895 0
M  V30 6784 H 643.495 1.19788 0.853766 0
M  V30 6785 H 645.453 1.29881 3.96468 0
M  V30 6786 H 644.083 0.45549 3.1957 0
M  V30 6787 H 643.135 2.79571 2.57961 0
M  V30 6788 H 644.447 3.51355 3.5405 0
M  V30 6789 H 643.601 2.35466 5.59143 0
M  V30 6790 H 642.34 1.53219 4.63007 0
M  V30 6791 H 641.345 3.754 4.0169 0
M  V30 6792 H 642.57 4.58199 5.01229 0
M  V30 6793 H 640.516 2.58222 6.0304 0
M  V30 6794 H 640.433 4.30344 6.21563 0
M  V30 6795 H 641.701 3.41565 7.00681 0
M  V30 6796 N 645.93 -0.909495 1.28709 0
M  V30 6797 C 646.84 -2.04558 1.14861 0
M  V30 6798 C 647.856 -1.73842 0.0741621 0
M  V30 6799 O 649.032 -1.99383 0.2843 0
M  V30 6800 C 646.097 -3.36957 0.816148 0
M  V30 6801 C 645.158 -3.81255 1.97341 0
M  V30 6802 C 644.391 -5.07335 1.65671 0
M  V30 6803 O 644.614 -5.67514 0.573053 0
M  V30 6804 O 643.548 -5.47449 2.50167 0
M  V30 6805 H 647.374 -2.19161 2.10243 0
M  V30 6806 H 644.959 -1.03159 1.08068 0
M  V30 6807 H 646.841 -4.16436 0.644873 0
M  V30 6808 H 645.516 -3.2352 -0.107983 0
M  V30 6809 H 644.423 -3.02584 2.19986 0
M  V30 6810 H 645.756 -3.99261 2.87839 0
M  V30 6811 N 647.408 -1.11026 -1.11852 0
M  V30 6812 C 648.318 -0.777252 -2.2135 0
M  V30 6813 C 649.334 0.227821 -1.72502 0
M  V30 6814 O 650.51 0.0650587 -2.01295 0
M  V30 6815 C 647.575 -0.220668 -3.45997 0
M  V30 6816 C 646.636 -1.2838 -4.09655 0
M  V30 6817 C 645.869 -0.753678 -5.28352 0
M  V30 6818 O 646.092 0.417779 -5.68868 0
M  V30 6819 O 645.026 -1.51647 -5.82483 0
M  V30 6820 H 648.852 -1.69141 -2.5224 0
M  V30 6821 H 646.437 -0.885836 -1.20305 0
M  V30 6822 H 648.319 0.0855756 -4.21313 0
M  V30 6823 H 646.994 0.666262 -3.16769 0
M  V30 6824 H 645.901 -1.64299 -3.3609 0
M  V30 6825 H 647.234 -2.14396 -4.43052 0
M  V30 6826 N 648.886 1.2938 -0.899927 0
M  V30 6827 C 649.834 2.29675 -0.367698 0
M  V30 6828 C 650.828 1.60787 0.533282 0
M  V30 6829 O 652.034 1.75126 0.416058 0
M  V30 6830 H 648.409 0.745284 -0.100279 0
M  V30 6831 H 650.38 2.72008 -1.22696 0
M  V30 6832 C 649.129 3.45512 0.389483 0
M  V30 6833 H 648.452 3.98713 -0.294575 0
M  V30 6834 H 649.892 4.17725 0.726744 0
M  V30 6835 C 648.351 2.969 1.59223 0
M  V30 6836 O 648.881 2.98195 2.69152 0
M  V30 6837 N 647.087 2.52728 1.43447 0
M  V30 6838 H 646.634 2.51873 0.540148 0
M  V30 6839 H 646.592 2.20561 2.24054 0
M  V30 6840 N 650.364 0.662433 1.43002 0
M  V30 6841 C 651.327 -0.0142016 2.29196 0
M  V30 6842 C 652.327 -0.741394 1.42688 0
M  V30 6843 O 653.517 -0.581257 1.64216 0
M  V30 6844 C 650.649 -1.03084 3.24941 0
M  V30 6845 H 651.842 0.7443 2.90517 0
M  V30 6846 H 649.395 0.424133 1.50435 0
M  V30 6847 H 650.13 -1.81826 2.68533 0
M  V30 6848 H 649.915 -0.512946 3.8873 0
M  V30 6849 H 651.405 -1.50308 3.89612 0
M  V30 6850 N 651.842 -1.52309 0.404946 0
M  V30 6851 C 653.258 -1.59503 0.0556255 0
M  V30 6852 C 653.458 -1.41805 -1.43156 0
M  V30 6853 O 652.514 -1.2429 -2.19792 0
M  V30 6854 C 653.827 -2.95687 0.546801 0
M  V30 6855 C 655.375 -3.08909 0.504413 0
M  V30 6856 C 655.85 -4.47566 0.97203 0
M  V30 6857 N 657.341 -4.53795 0.928679 0
M  V30 6858 C 658.076 -5.59346 1.26174 0
M  V30 6859 N 657.572 -6.72469 1.66604 0
M  V30 6860 N 659.365 -5.49532 1.18198 0
M  V30 6861 H 651.516 -1.6206 1.37296 0
M  V30 6862 H 653.779 -0.762161 0.563751 0
M  V30 6863 H 653.485 -3.13905 1.58609 0
M  V30 6864 H 653.359 -3.77172 -0.0457905 0
M  V30 6865 H 655.746 -2.90378 -0.525819 0
M  V30 6866 H 655.827 -2.2934 1.13301 0
M  V30 6867 H 655.471 -4.6684 2.00057 0
M  V30 6868 H 655.401 -5.25625 0.320292 0
M  V30 6869 H 657.892 -3.72588 0.631369 0
M  V30 6870 H 658.205 -7.48993 1.9034 0
M  V30 6871 H 656.55 -6.73761 1.70504 0
M  V30 6872 H 659.741 -4.60038 0.865011 0
M  V30 6873 H 659.914 -6.31687 1.44485 0
M  V30 6874 N 653.32 -0.135238 -1.57019 0
M  V30 6875 C 654.252 0.839675 -2.13265 0
M  V30 6876 C 655.265 1.21887 -1.07923 0
M  V30 6877 O 656.454 1.16499 -1.35241 0
M  V30 6878 C 653.554 2.13647 -2.63075 0
M  V30 6879 C 652.727 1.92646 -3.92691 0
M  V30 6880 C 651.786 3.06205 -4.27931 0
M  V30 6881 O 650.812 2.78409 -4.96465 0
M  V30 6882 N 652.014 4.33072 -3.86561 0
M  V30 6883 H 654.779 0.359026 -2.97542 0
M  V30 6884 H 652.34 0.0486979 -1.61827 0
M  V30 6885 H 654.332 2.88641 -2.8367 0
M  V30 6886 H 652.902 2.5301 -1.83588 0
M  V30 6887 H 652.122 1.01754 -3.80841 0
M  V30 6888 H 653.41 1.75939 -4.77413 0
M  V30 6889 H 652.808 4.58526 -3.31316 0
M  V30 6890 H 651.365 5.04885 -4.12231 0
M  V30 6891 N 654.798 1.5699 0.138552 0
M  V30 6892 C 655.745 1.98899 1.17081 0
M  V30 6893 C 656.715 0.857922 1.42228 0
M  V30 6894 O 657.9 1.12065 1.54422 0
M  V30 6895 C 655.04 2.38189 2.4972 0
M  V30 6896 C 654.153 3.64624 2.31674 0
M  V30 6897 C 653.288 3.9298 3.57407 0
M  V30 6898 C 652.327 5.1266 3.34435 0
M  V30 6899 N 651.464 5.36983 4.5232 0
M  V30 6900 H 656.304 2.86881 0.80642 0
M  V30 6901 H 653.841 1.41925 0.386727 0
M  V30 6902 H 655.799 2.59 3.2707 0
M  V30 6903 H 654.429 1.53275 2.84089 0
M  V30 6904 H 653.481 3.51542 1.45337 0
M  V30 6905 H 654.793 4.52131 2.10664 0
M  V30 6906 H 653.947 4.14335 4.43183 0
M  V30 6907 H 652.686 3.03912 3.8143 0
M  V30 6908 H 651.691 4.9117 2.47048 0
M  V30 6909 H 652.916 6.03288 3.11802 0
M  V30 6910 H 650.862 4.50871 4.76499 0
M  V30 6911 H 650.779 6.18775 4.34343 0
M  V30 6912 H 652.047 5.62842 5.39285 0
M  V30 6913 N 656.276 -0.40816 1.52223 0
M  V30 6914 C 657.504 -1.17672 1.70179 0
M  V30 6915 C 657.919 -1.84257 0.411696 0
M  V30 6916 O 657.276 -1.7192 -0.612354 0
M  V30 6917 C 657.327 -2.23911 2.83806 0
M  V30 6918 O 657.048 -1.60044 4.0782 0
M  V30 6919 C 658.549 -3.1364 3.13281 0
M  V30 6920 H 655.769 -0.353562 0.570293 0
M  V30 6921 H 658.313 -0.480083 1.98785 0
M  V30 6922 H 656.468 -2.89242 2.57717 0
M  V30 6923 H 656.882 -2.30484 4.71145 0
M  V30 6924 H 658.356 -3.84255 3.96298 0
M  V30 6925 H 658.833 -3.76066 2.26872 0
M  V30 6926 H 659.439 -2.53977 3.41139 0
M  V30 6927 N 657.755 -1.42862 -0.66545 0
M  V30 6928 C 659.171 -1.25993 -0.979687 0
M  V30 6929 C 659.371 -0.170831 -2.00775 0
M  V30 6930 O 658.427 0.454827 -2.4837 0
M  V30 6931 C 659.74 -2.62005 -1.47559 0
M  V30 6932 C 661.288 -2.69437 -1.59288 0
M  V30 6933 C 661.763 -4.05838 -2.12272 0
M  V30 6934 N 663.254 -4.0784 -2.19592 0
M  V30 6935 C 663.989 -5.10205 -2.61684 0
M  V30 6936 N 663.485 -6.22949 -3.03161 0
M  V30 6937 N 665.278 -4.9756 -2.61516 0
M  V30 6938 H 657.429 -2.12395 0.0150493 0
M  V30 6939 H 659.692 -0.946355 -0.0558187 0
M  V30 6940 H 659.398 -3.42605 -0.794654 0
M  V30 6941 H 659.272 -2.86566 -2.45275 0
M  V30 6942 H 661.659 -1.89178 -2.26486 0
M  V30 6943 H 661.74 -2.48655 -0.600374 0
M  V30 6944 H 661.384 -4.86559 -1.4568 0
M  V30 6945 H 661.314 -4.23977 -3.12331 0
M  V30 6946 H 663.805 -3.26452 -1.90361 0
M  V30 6947 H 664.118 -6.96899 -3.33993 0
M  V30 6948 H 662.463 -6.2644 -3.00995 0
M  V30 6949 H 665.654 -4.08551 -2.28481 0
M  V30 6950 H 665.827 -5.77468 -2.93999 0
M  V30 6951 N 659.233 0.902656 -1.29189 0
M  V30 6952 C 660.143 2.03946 -1.15944 0
M  V30 6953 C 661.159 1.738 -0.0833803 0
M  V30 6954 O 662.335 1.9923 -0.29487 0
M  V30 6955 C 659.4 3.36519 -0.834006 0
M  V30 6956 C 658.461 3.80203 -1.9936 0
M  V30 6957 C 657.694 5.06449 -1.68359 0
M  V30 6958 O 657.917 5.67202 -0.603141 0
M  V30 6959 O 656.851 5.46114 -2.53067 0
M  V30 6960 H 660.677 2.18043 -2.11403 0
M  V30 6961 H 658.262 1.02584 -1.08613 0
M  V30 6962 H 660.144 4.16089 -0.666949 0
M  V30 6963 H 658.819 3.23573 0.0908245 0
M  V30 6964 H 657.726 3.01413 -2.21588 0
M  V30 6965 H 659.059 3.97729 -2.89952 0
M  V30 6966 N 660.711 1.11618 1.11262 0
M  V30 6967 C 661.936 0.889013 1.8738 0
M  V30 6968 C 662.361 -0.555884 1.79698 0
M  V30 6969 O 661.719 -1.39272 1.16073 0
M  V30 6970 C 661.767 1.35759 3.34069 0
M  V30 6971 O 660.871 0.530499 4.08974 0
M  V30 6972 H 660.212 0.320082 0.581759 0
M  V30 6973 H 662.742 1.48611 1.40627 0
M  V30 6974 H 662.752 1.35291 3.84916 0
M  V30 6975 H 661.427 2.40973 3.38976 0
M  V30 6976 H 660.004 0.601439 3.68018 0
M  V30 6977 N 662.189 -1.289 0.906776 0
M  V30 6978 C 663.099 -2.31256 0.394707 0
M  V30 6979 C 664.115 -1.66231 -0.514121 0
M  V30 6980 O 665.291 -1.97347 -0.401994 0
M  V30 6981 C 662.356 -3.44792 -0.363191 0
M  V30 6982 C 661.417 -4.25391 0.578012 0
M  V30 6983 C 660.65 -5.33506 -0.143811 0
M  V30 6984 O 660.873 -5.53786 -1.36665 0
M  V30 6985 O 659.807 -5.99673 0.5173 0
M  V30 6986 H 663.633 -2.77051 1.24405 0
M  V30 6987 H 661.218 -1.33466 0.671346 0
M  V30 6988 H 663.1 -4.139 -0.791503 0
M  V30 6989 H 661.775 -3.01093 -1.18848 0
M  V30 6990 H 660.682 -3.58899 1.05558 0
M  V30 6991 H 662.015 -4.72752 1.36992 0
M  V30 6992 N 663.667 -0.670007 -1.42649 0
M  V30 6993 C 665.078 -0.268118 -1.84765 0
M  V30 6994 C 665.429 1.18877 -1.56086 0
M  V30 6995 O 664.554 1.90947 -1.01825 0
M  V30 6996 C 665.149 -0.47984 -3.35385 0
M  V30 6997 C 663.708 -0.132116 -3.76168 0
M  V30 6998 C 662.855 -0.774611 -2.66261 0
M  V30 6999 H 665.806 -0.872509 -1.32563 0
M  V30 7000 H 665.827 0.269522 -3.79544 0
M  V30 7001 H 665.339 -1.54026 -3.56227 0
M  V30 7002 H 663.44 0.92505 -3.60934 0
M  V30 7003 H 663.553 -0.569294 -4.75706 0
M  V30 7004 H 661.917 -0.206353 -2.53863 0
M  V30 7005 H 662.7 -1.83839 -2.89928 0
M  V30 7006 N 665.145 1.52092 -0.413018 0
M  V30 7007 C 666.075 2.30021 0.401567 0
M  V30 7008 C 667.056 1.34395 1.04269 0
M  V30 7009 O 668.241 1.63304 1.05097 0
M  V30 7010 C 665.371 3.12447 1.51638 0
M  V30 7011 C 664.325 4.16153 1.00005 0
M  V30 7012 C 663.651 4.86948 2.20875 0
M  V30 7013 C 664.951 5.22275 0.0513757 0
M  V30 7014 H 666.645 2.98365 -0.248704 0
M  V30 7015 H 664.191 1.4349 -0.121052 0
M  V30 7016 H 666.144 3.65733 2.09326 0
M  V30 7017 H 664.868 2.41879 2.19458 0
M  V30 7018 H 663.527 3.63882 0.445549 0
M  V30 7019 H 663.175 4.12905 2.8726 0
M  V30 7020 H 662.875 5.57057 1.86978 0
M  V30 7021 H 664.399 5.43048 2.79162 0
M  V30 7022 H 665.813 5.70778 0.537176 0
M  V30 7023 H 664.21 5.9977 -0.198977 0
M  V30 7024 H 665.28 4.76611 -0.892736 0
M  V30 7025 N 666.623 0.143563 1.56945 0
M  V30 7026 C 667.848 -0.518701 2.00809 0
M  V30 7027 C 668.273 -1.5785 1.02298 0
M  V30 7028 O 667.631 -1.813 -0.0017839 0
M  V30 7029 C 667.679 -1.09929 3.43436 0
M  V30 7030 O 666.783 -2.21425 3.47915 0
M  V30 7031 H 666.124 -0.127215 0.6517 0
M  V30 7032 H 668.654 0.239283 2.03196 0
M  V30 7033 H 668.664 -1.4288 3.82164 0
M  V30 7034 H 667.339 -0.323162 4.14643 0
M  V30 7035 H 665.916 -1.89728 3.21026 0
M  V30 7036 N 668.101 -1.57061 -0.130224 0
M  V30 7037 C 669.048 -1.99517 -1.16024 0
M  V30 7038 C 670.018 -0.865452 -1.41771 0
M  V30 7039 O 671.203 -1.12882 -1.53826 0
M  V30 7040 C 668.343 -2.3951 -2.48453 0
M  V30 7041 C 667.456 -3.65848 -2.29737 0
M  V30 7042 C 666.591 -3.9487 -3.55318 0
M  V30 7043 C 665.63 -5.14426 -3.31711 0
M  V30 7044 N 664.767 -5.39375 -4.49466 0
M  V30 7045 H 669.607 -2.87305 -0.791194 0
M  V30 7046 H 667.144 -1.42129 -0.379195 0
M  V30 7047 H 669.102 -2.60731 -3.25692 0
M  V30 7048 H 667.732 -1.54779 -2.83272 0
M  V30 7049 H 666.784 -3.52307 -1.4347 0
M  V30 7050 H 668.096 -4.53241 -2.08263 0
M  V30 7051 H 667.25 -4.16679 -4.4098 0
M  V30 7052 H 665.989 -3.05931 -3.79813 0
M  V30 7053 H 664.994 -4.92473 -2.44439 0
M  V30 7054 H 666.219 -6.04933 -3.08598 0
M  V30 7055 H 664.165 -4.53391 -4.74102 0
M  V30 7056 H 664.082 -6.21069 -4.31055 0
M  V30 7057 H 665.35 -5.65694 -5.36293 0
M  V30 7058 N 669.579 0.400081 -1.52437 0
M  V30 7059 C 670.804 1.17221 -1.71096 0
M  V30 7060 C 671.229 1.83269 -0.423565 0
M  V30 7061 O 670.587 1.70378 0.619751 0
M  V30 7062 C 670.635 2.20425 -2.85386 0
M  V30 7063 O 669.739 3.26769 -2.51586 0
M  V30 7064 H 669.08 0.341766 -0.569291 0
M  V30 7065 H 671.61 0.467772 -1.99181 0
M  V30 7066 H 671.62 2.64605 -3.10561 0
M  V30 7067 H 670.295 1.71737 -3.78786 0
M  V30 7068 H 668.872 2.87804 -2.37114 0
M  V30 7069 N 671.057 1.43213 0.657864 0
M  V30 7070 C 672.004 1.48011 1.77092 0
M  V30 7071 C 672.974 0.330291 1.62783 0
M  V30 7072 O 674.159 0.536787 1.83094 0
M  V30 7073 C 671.299 1.40461 3.15222 0
M  V30 7074 C 670.412 2.65612 3.40697 0
M  V30 7075 C 669.547 2.50083 4.68649 0
M  V30 7076 C 668.586 3.70525 4.87214 0
M  V30 7077 N 667.723 3.53835 6.0642 0
M  V30 7078 H 672.563 2.43121 1.72326 0
M  V30 7079 H 670.1 1.20687 0.841013 0
M  V30 7080 H 672.058 1.34079 3.95068 0
M  V30 7081 H 670.688 0.489359 3.19069 0
M  V30 7082 H 669.74 2.82292 2.54982 0
M  V30 7083 H 671.052 3.5509 3.50303 0
M  V30 7084 H 670.206 2.41383 5.56614 0
M  V30 7085 H 668.945 1.58121 4.61356 0
M  V30 7086 H 667.95 3.79639 3.97686 0
M  V30 7087 H 669.175 4.63489 4.96341 0
M  V30 7088 H 667.121 2.64604 6.00267 0
M  V30 7089 H 667.038 4.36912 6.16963 0
M  V30 7090 H 668.306 3.48978 6.97019 0
M  V30 7091 N 672.536 -0.895792 1.29666 0
M  V30 7092 C 673.486 -1.98736 1.1175 0
M  V30 7093 C 674.47 -1.6086 0.0357834 0
M  V30 7094 O 675.662 -1.75111 0.257926 0
M  V30 7095 C 672.791 -3.33845 0.800156 0
M  V30 7096 C 671.877 -3.78068 1.9216 0
M  V30 7097 N 672.268 -3.94489 3.16563 0
M  V30 7098 C 670.566 -4.07376 1.81552 0
M  V30 7099 C 671.267 -4.31819 3.89753 0
M  V30 7100 N 670.243 -4.41081 3.17724 0
M  V30 7101 H 674.045 -2.09507 2.06117 0
M  V30 7102 H 671.559 -1.08488 1.20848 0
M  V30 7103 H 673.556 -4.11757 0.652841 0
M  V30 7104 H 672.216 -3.24417 -0.135551 0
M  V30 7105 H 673.227 -3.79914 3.51974 0
M  V30 7106 H 669.904 -4.06483 0.952787 0
M  V30 7107 H 671.294 -4.52337 4.96831 0
M  V30 7108 N 674.014 -1.12206 -1.10668 0
M  V30 7109 C 675.239 -0.898938 -1.86906 0
M  V30 7110 C 675.664 0.546346 -1.79991 0
M  V30 7111 O 675.022 1.38655 -1.1681 0
M  V30 7112 C 675.07 -1.37529 -3.33344 0
M  V30 7113 O 674.174 -0.55218 -4.08687 0
M  V30 7114 H 673.515 -0.323163 -0.580053 0
M  V30 7115 H 676.045 -1.49355 -1.39837 0
M  V30 7116 H 676.055 -1.3733 -3.84193 0
M  V30 7117 H 674.73 -2.42767 -3.37693 0
M  V30 7118 H 673.307 -0.620947 -3.67694 0
M  V30 7119 N 675.492 1.28418 -0.913599 0
M  V30 7120 C 676.402 2.31043 -0.406965 0
M  V30 7121 C 677.418 1.66501 0.505298 0
M  V30 7122 O 678.594 1.97558 0.391522 0
M  V30 7123 C 675.659 3.4498 0.344901 0
M  V30 7124 C 674.72 4.25078 -0.600563 0
M  V30 7125 C 673.953 5.33575 0.115516 0
M  V30 7126 O 674.176 5.54503 1.33727 0
M  V30 7127 O 673.11 5.9939 -0.549095 0
M  V30 7128 H 676.936 2.76387 -1.25873 0
M  V30 7129 H 674.521 1.33109 -0.678415 0
M  V30 7130 H 676.403 4.14314 0.769542 0
M  V30 7131 H 675.078 3.01719 1.1725 0
M  V30 7132 H 673.985 3.58334 -1.0746 0
M  V30 7133 H 675.318 4.72018 -1.39497 0
M  V30 7134 N 676.97 0.677563 1.42291 0
M  V30 7135 C 678.247 0.129803 1.95169 0
M  V30 7136 C 678.627 -1.35605 1.61786 0
M  V30 7137 O 677.975 -2.09361 0.915444 0
M  V30 7138 C 678.185 0.401889 3.46678 0
M  V30 7139 C 679.533 0.319889 4.23393 0
M  V30 7140 O 680.557 0.33579 3.54614 0
M  V30 7141 O 679.416 0.264459 5.4586 0
M  V30 7142 H 676.51 0.00447433 0.826988 0
M  V30 7143 H 679.056 0.752483 1.52105 0
M  V30 7144 H 677.828 1.43108 3.64192 0
M  V30 7145 H 677.451 -0.252662 3.96796 0
M  V30 7146 N 678.448 -1.51871 0.421078 0
M  V30 7147 C 679.694 -2.02237 -0.151014 0
M  V30 7148 C 680.027 -1.30554 -1.43768 0
M  V30 7149 O 679.302 -0.41546 -1.90011 0
M  V30 7150 C 679.585 -3.5802 -0.386482 0
M  V30 7151 C 679.438 -4.40339 0.9177 0
M  V30 7152 C 680.757 -4.24444 -1.16342 0
M  V30 7153 H 677.876 -0.735062 -0.0534102 0
M  V30 7154 H 680.518 -1.81656 0.556888 0
M  V30 7155 H 678.668 -3.75688 -0.989494 0
M  V30 7156 H 680.34 -4.34357 1.55344 0
M  V30 7157 H 678.583 -4.06073 1.526 0
M  V30 7158 H 679.254 -5.47451 0.707187 0
M  V30 7159 H 681.73 -4.10948 -0.652788 0
M  V30 7160 H 680.606 -5.33358 -1.29693 0
M  V30 7161 H 680.867 -3.84204 -2.18724 0
M  V30 7162 N 679.926 -0.151884 -1.56866 0
M  V30 7163 C 680.874 0.80299 -2.183 0
M  V30 7164 C 681.868 1.25174 -1.14139 0
M  V30 7165 O 683.074 1.21966 -1.3238 0
M  V30 7166 H 679.449 0.277169 -0.699057 0
M  V30 7167 H 681.42 0.260699 -2.97259 0
M  V30 7168 C 680.169 2.03009 -2.82281 0
M  V30 7169 H 679.492 1.69377 -3.62148 0
M  V30 7170 H 680.932 2.67753 -3.28762 0
M  V30 7171 C 679.391 2.84123 -1.81041 0
M  V30 7172 O 679.921 3.8063 -1.28388 0
M  V30 7173 N 678.127 2.48753 -1.50234 0
M  V30 7174 H 677.674 1.70337 -1.93244 0
M  V30 7175 H 677.632 3.03316 -0.827445 0
M  V30 7176 N 681.404 1.57128 0.121893 0
M  V30 7177 C 682.65 1.84974 0.831418 0
M  V30 7178 C 682.983 0.737204 1.79663 0
M  V30 7179 O 682.258 -0.257199 1.92792 0
M  V30 7180 C 682.541 3.23397 1.58386 0
M  V30 7181 C 682.394 4.45246 0.638445 0
M  V30 7182 C 683.713 3.59355 2.54071 0
M  V30 7183 H 680.832 0.67282 0.300803 0
M  V30 7184 H 683.474 1.89759 0.0957587 0
M  V30 7185 H 681.624 3.19449 2.21098 0
M  V30 7186 H 683.296 4.61295 0.0203925 0
M  V30 7187 H 681.539 4.33771 -0.05023 0
M  V30 7188 H 682.21 5.38765 1.20151 0
M  V30 7189 H 684.686 3.64075 2.01465 0
M  V30 7190 H 683.562 4.57193 3.03752 0
M  V30 7191 H 683.823 2.86622 3.36601 0
M  V30 7192 N 682.882 -0.391992 1.52647 0
M  V30 7193 C 683.829 -1.47866 1.77213 0
M  V30 7194 C 684.799 -1.54286 0.615223 0
M  V30 7195 O 685.984 -1.7059 0.854622 0
M  V30 7196 C 683.124 -2.85129 1.94411 0
M  V30 7197 C 682.237 -2.87883 3.22098 0
M  V30 7198 C 681.372 -4.16553 3.29631 0
M  V30 7199 C 680.411 -4.13348 4.51453 0
M  V30 7200 N 679.548 -5.33619 4.56284 0
M  V30 7201 H 684.388 -1.26219 2.6995 0
M  V30 7202 H 681.925 -0.612367 1.33748 0
M  V30 7203 H 683.883 -3.64833 2.02367 0
M  V30 7204 H 682.513 -3.05232 1.05038 0
M  V30 7205 H 681.565 -2.00567 3.23229 0
M  V30 7206 H 682.877 -2.81382 4.11856 0
M  V30 7207 H 682.031 -5.0466 3.36753 0
M  V30 7208 H 680.77 -4.25773 2.37842 0
M  V30 7209 H 679.775 -3.23629 4.44459 0
M  V30 7210 H 681 -4.05754 5.44555 0
M  V30 7211 H 678.946 -5.43474 3.67385 0
M  V30 7212 H 678.863 -5.29182 5.3991 0
M  V30 7213 H 680.131 -6.23632 4.67657 0
M  V30 7214 N 684.36 -1.4356 -0.65026 0
M  V30 7215 C 685.606 -1.45549 -1.41221 0
M  V30 7216 C 685.939 -0.0805472 -1.94033 0
M  V30 7217 O 685.214 0.899043 -1.72475 0
M  V30 7218 C 685.497 -2.50028 -2.59148 0
M  V30 7219 C 685.35 -3.96808 -2.1181 0
M  V30 7220 C 686.669 -2.51212 -3.61359 0
M  V30 7221 H 683.788 -0.529967 -0.512156 0
M  V30 7222 H 686.43 -1.75127 -0.736933 0
M  V30 7223 H 684.58 -2.24937 -3.16758 0
M  V30 7224 H 686.252 -4.32966 -1.59178 0
M  V30 7225 H 684.495 -4.09498 -1.43156 0
M  V30 7226 H 685.166 -4.6553 -2.96625 0
M  V30 7227 H 687.642 -2.73583 -3.13515 0
M  V30 7228 H 686.518 -3.26252 -4.41419 0
M  V30 7229 H 686.779 -1.54701 -4.1415 0
M  V30 7230 N 685.838 0.888903 -1.30139 0
M  V30 7231 C 687.063 1.67884 -1.21777 0
M  V30 7232 C 687.488 1.86848 0.216689 0
M  V30 7233 O 686.846 1.39659 1.15608 0
M  V30 7234 C 686.894 3.03483 -1.94757 0
M  V30 7235 O 685.998 3.92294 -1.27198 0
M  V30 7236 H 685.339 0.513144 -0.421402 0
M  V30 7237 H 687.869 1.10968 -1.71893 0
M  V30 7238 H 687.879 3.53553 -2.03627 0
M  V30 7239 H 686.554 2.89 -2.99085 0
M  V30 7240 H 685.131 3.50732 -1.26655 0
M  V30 7241 N 687.317 1.12792 1.10072 0
M  V30 7242 C 688.265 0.794523 2.18609 0
M  V30 7243 C 689.259 -0.220271 1.67962 0
M  V30 7244 O 690.465 -0.0780938 1.79831 0
M  V30 7245 H 686.84 0.239123 0.712969 0
M  V30 7246 H 688.811 1.71823 2.43966 0
M  V30 7247 C 687.56 0.269548 3.46654 0
M  V30 7248 H 686.883 1.04171 3.8599 0
M  V30 7249 H 688.323 0.0746242 4.23934 0
M  V30 7250 C 686.782 -1.00333 3.21613 0
M  V30 7251 O 687.312 -2.08042 3.4363 0
M  V30 7252 N 685.518 -0.931763 2.75257 0
M  V30 7253 H 685.065 -0.0551197 2.57541 0
M  V30 7254 H 685.023 -1.78405 2.58881 0
M  V30 7255 N 688.795 -1.27931 0.920396 0
M  V30 7256 C 689.758 -2.25345 0.41858 0
M  V30 7257 C 690.758 -1.54116 -0.458798 0
M  V30 7258 O 691.948 -1.72235 -0.260912 0
M  V30 7259 C 689.08 -3.38556 -0.399104 0
M  V30 7260 H 690.273 -2.71251 1.27918 0
M  V30 7261 H 687.826 -1.39728 0.700406 0
M  V30 7262 H 688.561 -2.98021 -1.27882 0
M  V30 7263 H 688.346 -3.91426 0.229863 0
M  V30 7264 H 689.836 -4.10976 -0.740817 0
M  V30 7265 N 690.273 -0.685099 -1.4193 0
M  V30 7266 C 691.205 0.0258679 -2.29185 0
M  V30 7267 C 692.218 0.755076 -1.44231 0
M  V30 7268 O 693.407 0.60752 -1.67844 0
M  V30 7269 C 690.507 1.06055 -3.21878 0
M  V30 7270 C 689.68 0.403088 -4.35539 0
M  V30 7271 C 688.739 1.33895 -5.0888 0
M  V30 7272 O 687.765 0.835326 -5.63037 0
M  V30 7273 N 688.967 2.6718 -5.15359 0
M  V30 7274 H 691.732 -0.723201 -2.90843 0
M  V30 7275 H 689.293 -0.53031 -1.52968 0
M  V30 7276 H 691.285 1.68813 -3.6781 0
M  V30 7277 H 689.855 1.71126 -2.616 0
M  V30 7278 H 689.075 -0.404185 -3.92122 0
M  V30 7279 H 690.363 -0.0545098 -5.08771 0
M  V30 7280 H 689.761 3.10626 -4.72788 0
M  V30 7281 H 688.318 3.25159 -5.64903 0
M  V30 7282 N 691.751 1.51645 -0.429126 0
M  V30 7283 C 692.976 2.06917 0.141399 0
M  V30 7284 C 693.401 1.29527 1.36398 0
M  V30 7285 O 692.759 0.33094 1.78254 0
M  V30 7286 C 692.807 3.57776 0.4504 0
M  V30 7287 O 691.911 3.82639 1.53821 0
M  V30 7288 H 691.252 0.663978 0.0054647 0
M  V30 7289 H 693.782 1.95355 -0.608093 0
M  V30 7290 H 693.792 4.01894 0.703249 0
M  V30 7291 H 692.467 4.13532 -0.443213 0
M  V30 7292 H 691.044 3.5039 1.27597 0
M  V30 7293 N 693.229 0.160201 1.56784 0
M  V30 7294 C 694.475 -0.48831 1.96833 0
M  V30 7295 C 694.808 -1.63641 1.04571 0
M  V30 7296 O 694.083 -1.94289 0.0906481 0
M  V30 7297 C 694.366 -0.981908 3.46454 0
M  V30 7298 C 694.219 0.165607 4.49495 0
M  V30 7299 C 695.538 -1.85931 3.98896 0
M  V30 7300 H 692.657 -0.176027 0.71567 0
M  V30 7301 H 695.299 0.244093 1.88426 0
M  V30 7302 H 693.449 -1.60602 3.5375 0
M  V30 7303 H 695.121 0.802372 4.54268 0
M  V30 7304 H 693.364 0.822789 4.25926 0
M  V30 7305 H 694.035 -0.221699 5.51555 0
M  V30 7306 H 696.511 -1.33327 3.94161 0
M  V30 7307 H 695.387 -2.17373 5.04024 0
M  V30 7308 H 695.648 -2.80106 3.42042 0
M  V30 7309 N 694.707 -1.5719 -0.113559 0
M  V30 7310 C 695.935 -1.89328 -0.834422 0
M  V30 7311 C 696.35 -0.752018 -1.73177 0
M  V30 7312 O 695.707 0.276912 -1.80387 0
M  V30 7313 C 695.758 -3.20962 -1.66329 0
M  V30 7314 O 695.479 -4.30695 -0.802069 0
M  V30 7315 C 696.98 -3.6684 -2.48884 0
M  V30 7316 H 694.2 -0.626769 -0.239587 0
M  V30 7317 H 696.744 -2.04273 -0.0963195 0
M  V30 7318 H 694.899 -3.0767 -2.35409 0
M  V30 7319 H 695.313 -5.06175 -1.37431 0
M  V30 7320 H 696.787 -4.61692 -3.02563 0
M  V30 7321 H 697.264 -2.93765 -3.26495 0
M  V30 7322 H 697.87 -3.82938 -1.85036 0
M  V30 7323 N 696.185 0.383891 -1.52853 0
M  V30 7324 C 697.41 1.154 -1.7233 0
M  V30 7325 C 697.835 1.82809 -0.44298 0
M  V30 7326 O 697.193 1.71026 0.601645 0
M  V30 7327 C 697.241 2.17386 -2.87708 0
M  V30 7328 O 696.345 3.24082 -2.55038 0
M  V30 7329 H 695.686 0.335709 -0.572883 0
M  V30 7330 H 698.216 0.44662 -1.99666 0
M  V30 7331 H 698.226 2.61296 -3.1335 0
M  V30 7332 H 696.901 1.6771 -3.80587 0
M  V30 7333 H 695.478 2.85273 -2.40153 0
M  V30 7334 N 697.663 1.43903 0.642637 0
M  V30 7335 C 698.573 1.52349 1.78401 0
M  V30 7336 C 699.589 0.409869 1.69104 0
M  V30 7337 O 700.765 0.665548 1.90085 0
M  V30 7338 C 697.83 1.45408 3.14734 0
M  V30 7339 C 696.891 2.67528 3.35749 0
M  V30 7340 C 696.124 2.60909 4.65577 0
M  V30 7341 O 696.347 1.6627 5.45628 0
M  V30 7342 O 695.281 3.5158 4.88544 0
M  V30 7343 H 699.107 2.48752 1.7423 0
M  V30 7344 H 696.692 1.26021 0.802439 0
M  V30 7345 H 698.574 1.44019 3.96026 0
M  V30 7346 H 697.249 0.521437 3.19473 0
M  V30 7347 H 696.156 2.74487 2.5418 0
M  V30 7348 H 697.489 3.598 3.35864 0
M  V30 7349 N 699.141 -0.881989 1.30609 0
M  V30 7350 C 700.557 -1.16576 1.09005 0
M  V30 7351 C 700.757 -2.00961 -0.14727 0
M  V30 7352 O 699.813 -2.38117 -0.840036 0
M  V30 7353 C 701.126 -1.86954 2.35518 0
M  V30 7354 C 702.674 -1.99706 2.41011 0
M  V30 7355 C 703.149 -2.73497 3.67374 0
M  V30 7356 N 704.64 -2.8104 3.68199 0
M  V30 7357 C 705.375 -3.38718 4.62664 0
M  V30 7358 N 704.871 -3.97421 5.67475 0
M  V30 7359 N 706.664 -3.36561 4.50203 0
M  V30 7360 H 698.815 -0.319398 2.09985 0
M  V30 7361 H 701.078 -0.204058 0.925778 0
M  V30 7362 H 700.784 -1.32393 3.2583 0
M  V30 7363 H 700.658 -2.87317 2.44395 0
M  V30 7364 H 703.045 -2.53436 1.51176 0
M  V30 7365 H 703.126 -0.984218 2.36108 0
M  V30 7366 H 702.77 -2.20438 4.57569 0
M  V30 7367 H 702.7 -3.75163 3.6954 0
M  V30 7368 H 705.191 -2.39365 2.92426 0
M  V30 7369 H 705.504 -4.39507 6.35652 0
M  V30 7370 H 703.849 -3.95832 5.71264 0
M  V30 7371 H 707.04 -2.8993 3.67503 0
M  V30 7372 H 707.213 -3.81215 5.24003 0
M  V30 7373 N 700.619 -1.13374 -1.09472 0
M  V30 7374 C 701.529 -0.824029 -2.19652 0
M  V30 7375 C 702.545 0.19118 -1.72947 0
M  V30 7376 O 703.721 0.0223464 -2.01388 0
M  V30 7377 C 700.786 -0.294009 -3.45451 0
M  V30 7378 C 699.847 -1.3704 -4.0684 0
M  V30 7379 C 699.08 -0.86558 -5.26634 0
M  V30 7380 O 699.303 0.29702 -5.69626 0
M  V30 7381 O 698.237 -1.63968 -5.79136 0
M  V30 7382 H 702.063 -1.74454 -2.48595 0
M  V30 7383 H 699.648 -0.911155 -1.18399 0
M  V30 7384 H 701.53 -0.00381039 -4.214 0
M  V30 7385 H 700.205 0.598921 -3.18111 0
M  V30 7386 H 699.112 -1.71391 -3.3253 0
M  V30 7387 H 700.445 -2.23746 -4.38405 0
M  V30 7388 N 702.098 1.27442 -0.927168 0
M  V30 7389 C 703.326 1.98498 -0.583622 0
M  V30 7390 C 703.741 1.69171 0.838241 0
M  V30 7391 O 703.098 0.951969 1.55704 0
M  V30 7392 C 703.149 3.52552 -0.799341 0
M  V30 7393 O 702.87 3.80851 -2.16527 0
M  V30 7394 C 704.371 4.4086 -0.464436 0
M  V30 7395 H 701.591 0.633487 -0.221213 0
M  V30 7396 H 704.135 1.62308 -1.24404 0
M  V30 7397 H 702.29 3.86955 -0.185728 0
M  V30 7398 H 702.704 4.75441 -2.21487 0
M  V30 7399 H 704.178 5.47967 -0.666075 0
M  V30 7400 H 704.655 4.35082 0.599995 0
M  V30 7401 H 705.261 4.11977 -1.05617 0
M  V30 7402 N 703.576 0.692616 1.41565 0
M  V30 7403 C 704.524 0.0139952 2.32596 0
M  V30 7404 C 705.518 -0.771691 1.50802 0
M  V30 7405 O 706.724 -0.677646 1.66757 0
M  V30 7406 H 703.099 -0.0142745 0.751865 0
M  V30 7407 H 705.07 0.798851 2.87508 0
M  V30 7408 C 703.819 -0.910602 3.35564 0
M  V30 7409 H 703.142 -0.315446 3.98554 0
M  V30 7410 H 704.582 -1.3538 4.01806 0
M  V30 7411 C 703.041 -2.02539 2.6922 0
M  V30 7412 O 703.571 -3.11386 2.53775 0
M  V30 7413 N 701.777 -1.80227 2.27962 0
M  V30 7414 H 701.324 -0.917054 2.40724 0
M  V30 7415 H 701.282 -2.55001 1.83907 0
M  V30 7416 N 705.054 -1.51416 0.437162 0
M  V30 7417 C 706.303 -2.01275 -0.130865 0
M  V30 7418 C 706.616 -1.32593 -1.438 0
M  V30 7419 O 707.822 -1.7342 -2.08897 0
M  V30 7420 C 706.278 -3.5878 -0.283763 0
M  V30 7421 C 705.886 -4.36399 1.01293 0
M  V30 7422 C 707.63 -4.16786 -0.805569 0
M  V30 7423 C 705.537 -5.85608 0.825687 0
M  V30 7424 H 704.467 -0.752157 -0.0526818 0
M  V30 7425 H 707.118 -1.74524 0.566896 0
M  V30 7426 H 705.5 -3.81976 -1.04452 0
M  V30 7427 H 706.674 -4.24948 1.78201 0
M  V30 7428 H 704.989 -3.89843 1.46326 0
M  V30 7429 H 707.586 -5.25972 -0.962146 0
M  V30 7430 H 707.929 -3.75949 -1.78796 0
M  V30 7431 H 708.462 -3.97666 -0.103125 0
M  V30 7432 H 705.201 -6.30857 1.78045 0
M  V30 7433 H 704.721 -5.99723 0.0964029 0
M  V30 7434 H 706.4 -6.45226 0.478815 0
M  V30 7435 O 706.571 -0.309557 -1.58506 0
M  V30 7436 H 707.262 0.253272 -1.92037 0
M  V30 END ATOM
M  V30 BEGIN BOND
M  V30 END BOND
M  V30 END CTAB
M  END
$$$$
