drugbank_target|Q89ZI2 O-GlcNAcase BT_4395 (DB00428; DB07432; DB08255)
 OpenBabel12092120503D

  0  0  0     0  0            999 V3000
M  V30 BEGIN CTAB
M  V30 COUNTS 11855 12001 0 0 0
M  V30 BEGIN ATOM
M  V30 1 H -0.908 1.98254 -0.117106 0
M  V30 2 N 0 1.576 0 0
M  V30 3 C 0.933 2.03868 1.02534 0
M  V30 4 C 1.911 0.928543 1.3348 0
M  V30 5 O 3.095 1.19667 1.45644 0
M  V30 6 C 0.222 2.43627 2.35294 0
M  V30 7 C -0.732 3.65373 2.2001 0
M  V30 8 S 0.101 5.13292 1.52614 0
M  V30 9 C 1.257 5.56322 2.86805 0
M  V30 10 H 1.49 2.90518 0.631377 0
M  V30 11 H -0.977 1.52953 0.210867 0
M  V30 12 H 0.981 2.67203 3.11629 0
M  V30 13 H -0.358 1.57376 2.7183 0
M  V30 14 H -1.165 3.90944 3.18086 0
M  V30 15 H -1.563 3.418 1.51819 0
M  V30 16 H 0.729 5.58782 3.83104 0
M  V30 17 H 1.672 6.56266 2.65933 0
M  V30 18 H 2.08 4.83886 2.90714 0
M  V30 19 N 1.4781 -0.272755 1.55222 0
M  V30 20 C 2.4251 -1.33716 1.88119 0
M  V30 21 C 3.3951 -1.49066 0.73271 0
M  V30 22 O 4.5801 -1.63469 0.984002 0
M  V30 23 C 1.7201 -2.69238 2.15882 0
M  V30 24 C 0.8331 -2.62108 3.43399 0
M  V30 25 C -0.0319 -3.89811 3.60861 0
M  V30 26 C -0.9929 -3.77193 4.8207 0
M  V30 27 N -1.8559 -4.9673 4.96189 0
M  V30 28 H 2.9841 -1.04962 2.78903 0
M  V30 29 H 0.5211 -0.507088 1.38083 0
M  V30 30 H 2.4791 -3.48089 2.29978 0
M  V30 31 H 1.1091 -2.96194 1.28331 0
M  V30 32 H 0.1611 -1.74967 3.37773 0
M  V30 33 H 1.4731 -2.48685 4.32386 0
M  V30 34 H 0.6271 -4.77103 3.74777 0
M  V30 35 H -0.6339 -4.06102 2.7006 0
M  V30 36 H -1.6289 -2.88284 4.68159 0
M  V30 37 H -0.4039 -3.62421 5.74307 0
M  V30 38 H -2.4579 -5.13431 4.08319 0
M  V30 39 H -2.5409 -4.85839 5.79221 0
M  V30 40 H -1.2729 -5.85594 5.1449 0
M  V30 41 N 2.9562 -1.48159 -0.537278 0
M  V30 42 C 3.9042 -1.62573 -1.66352 0
M  V30 43 C 4.8982 -0.492366 -1.62087 0
M  V30 44 O 6.1042 -0.670847 -1.67032 0
M  V30 45 H 2.4792 -0.511992 -0.550789 0
M  V30 46 H 4.4502 -2.57176 -1.51337 0
M  V30 47 C 3.1992 -1.67583 -3.04649 0
M  V30 48 H 2.5222 -2.54151 -3.08622 0
M  V30 49 H 3.9622 -1.81713 -3.83088 0
M  V30 50 C 2.4212 -0.413039 -3.34358 0
M  V30 51 O 2.9512 0.477259 -3.98855 0
M  V30 52 N 1.1572 -0.286961 -2.8918 0
M  V30 53 H 0.7042 -1.01241 -2.36871 0
M  V30 54 H 0.6622 0.556963 -3.09427 0
M  V30 55 N 4.4343 0.785586 -1.36625 0
M  V30 56 C 5.3823 1.91978 -1.31329 0
M  V30 57 C 6.3763 1.68162 -0.204416 0
M  V30 58 O 7.5823 1.76122 -0.371645 0
M  V30 59 H 3.9573 0.631087 -0.408942 0
M  V30 60 H 5.9283 1.93562 -2.27104 0
M  V30 61 C 4.6773 3.29055 -1.12329 0
M  V30 62 H 4.0003 3.4795 -1.96903 0
M  V30 63 H 5.4403 4.08756 -1.12671 0
M  V30 64 C 3.8993 3.36461 0.171861 0
M  V30 65 O 4.4293 3.84576 1.16035 0
M  V30 66 N 2.6353 2.89782 0.217846 0
M  V30 67 H 2.1823 2.50819 -0.587183 0
M  V30 68 H 2.1403 2.95119 1.08408 0
M  V30 69 N 5.9124 1.20967 1.01018 0
M  V30 70 C 6.8594 0.964281 2.09691 0
M  V30 71 C 7.8294 -0.107853 1.65749 0
M  V30 72 O 9.0144 0.0381987 1.90762 0
M  V30 73 C 6.1544 0.52943 3.41015 0
M  V30 74 C 5.2674 1.67043 3.98398 0
M  V30 75 C 4.4024 1.18525 5.17808 0
M  V30 76 C 3.4414 2.29892 5.67288 0
M  V30 77 N 2.5784 1.82546 6.77954 0
M  V30 78 H 7.4184 1.89463 2.30017 0
M  V30 79 H 4.9554 0.944289 1.1279 0
M  V30 80 H 6.9134 0.258588 4.16398 0
M  V30 81 H 5.5434 -0.363919 3.20742 0
M  V30 82 H 4.5954 2.05603 3.20049 0
M  V30 83 H 5.9074 2.50877 4.31117 0
M  V30 84 H 5.0614 0.870762 6.00419 0
M  V30 85 H 3.8004 0.316887 4.86669 0
M  V30 86 H 2.8054 2.6215 4.83278 0
M  V30 87 H 4.0304 3.17216 6.00459 0
M  V30 88 H 1.9764 0.980454 6.48632 0
M  V30 89 H 1.8934 2.59956 7.09901 0
M  V30 90 H 3.1614 1.54115 7.64113 0
M  V30 91 N 7.3905 -1.2043 1.01659 0
M  V30 92 C 8.6395 -1.89118 0.701237 0
M  V30 93 C 8.9525 -1.79705 -0.772358 0
M  V30 94 O 10.1585 -2.43528 -1.20026 0
M  V30 95 C 8.6145 -3.39168 1.20388 0
M  V30 96 C 8.2225 -3.57166 2.70438 0
M  V30 97 C 9.9665 -4.1341 0.963953 0
M  V30 98 C 7.8735 -5.01042 3.14183 0
M  V30 99 H 6.8035 -0.708267 0.2586 0
M  V30 100 H 9.4545 -1.36239 1.22927 0
M  V30 101 H 7.8365 -3.91369 0.603824 0
M  V30 102 H 9.0105 -3.15351 3.35992 0
M  V30 103 H 7.3255 -2.96294 2.92572 0
M  V30 104 H 9.9225 -5.19491 1.26621 0
M  V30 105 H 10.2655 -4.16181 -0.099578 0
M  V30 106 H 10.7985 -3.67309 1.52738 0
M  V30 107 H 7.5375 -5.03426 4.19812 0
M  V30 108 H 7.0575 -5.43668 2.53348 0
M  V30 109 H 8.7365 -5.69623 3.0682 0
M  V30 110 N 8.8686 -0.792821 -1.36206 0
M  V30 111 C 10.0986 -0.378275 -2.03107 0
M  V30 112 C 10.5066 1.01119 -1.59911 0
M  V30 113 O 9.8496 1.66052 -0.785658 0
M  V30 114 C 9.9116 -0.366535 -3.57627 0
M  V30 115 C 9.5756 -1.70416 -4.24037 0
M  V30 116 C 10.5726 -2.6602 -4.46687 0
M  V30 117 C 8.2576 -1.98439 -4.6144 0
M  V30 118 C 10.2516 -3.8784 -5.05825 0
M  V30 119 C 7.9386 -3.20525 -5.20295 0
M  V30 120 C 8.9366 -4.15044 -5.42427 0
M  V30 121 O 8.6246 -5.34978 -6.00045 0
M  V30 122 H 8.3566 -0.153543 -0.658332 0
M  V30 123 H 10.9106 -1.07383 -1.75094 0
M  V30 124 H 9.1406 0.385539 -3.84773 0
M  V30 125 H 10.8296 0.0238088 -4.05893 0
M  V30 126 H 11.5956 -2.45658 -4.18183 0
M  V30 127 H 7.4746 -1.25686 -4.43536 0
M  V30 128 H 11.0186 -4.61628 -5.23015 0
M  V30 129 H 6.9156 -3.40764 -5.48225 0
M  V30 130 H 7.6836 -5.36088 -6.18508 0
M  V30 131 N 10.3467 1.47872 -0.545128 0
M  V30 132 C 11.2767 2.32661 0.197793 0
M  V30 133 C 12.2577 1.43041 0.920504 0
M  V30 134 O 13.4427 1.71912 0.90333 0
M  V30 135 C 10.5727 3.24569 1.23582 0
M  V30 136 C 9.5267 4.23333 0.630323 0
M  V30 137 C 8.8527 5.0448 1.77211 0
M  V30 138 C 10.1527 5.20704 -0.407974 0
M  V30 139 H 11.8467 2.95024 -0.510045 0
M  V30 140 H 9.3927 1.4187 -0.246731 0
M  V30 141 H 11.3457 3.8272 1.76362 0
M  V30 142 H 10.0697 2.60236 1.97344 0
M  V30 143 H 8.7287 3.6639 0.123922 0
M  V30 144 H 8.3767 4.36561 2.49847 0
M  V30 145 H 8.0767 5.71339 1.37281 0
M  V30 146 H 9.6007 5.65487 2.3034 0
M  V30 147 H 11.0147 5.7329 0.033305 0
M  V30 148 H 9.4117 5.95699 -0.725486 0
M  V30 149 H 10.4817 4.66917 -1.30828 0
M  V30 150 N 11.8248 0.280983 1.55075 0
M  V30 151 C 12.7548 -0.597469 2.25727 0
M  V30 152 C 13.7358 -1.15417 1.24952 0
M  V30 153 O 14.9208 -1.18722 1.53684 0
M  V30 154 C 12.0508 -1.7789 2.98283 0
M  V30 155 C 11.0048 -1.35347 4.06036 0
M  V30 156 C 10.3308 -2.61846 4.66198 0
M  V30 157 C 11.6308 -0.499354 5.19907 0
M  V30 158 H 13.3248 -0.00824265 2.99399 0
M  V30 159 H 10.8708 -0.0025244 1.44 0
M  V30 160 H 12.8238 -2.39937 3.46422 0
M  V30 161 H 11.5478 -2.39405 2.22155 0
M  V30 162 H 10.2068 -0.756156 3.58717 0
M  V30 163 H 9.8548 -3.21632 3.86732 0
M  V30 164 H 9.5548 -2.3409 5.38958 0
M  V30 165 H 11.0788 -3.24732 5.1709 0
M  V30 166 H 12.4928 -1.02498 5.64063 0
M  V30 167 H 10.8898 -0.316424 5.99265 0
M  V30 168 H 11.9598 0.480459 4.82514 0
M  V30 169 N 13.3029 -1.57598 0.00835791 0
M  V30 170 C 14.5509 -1.90551 -0.6734 0
M  V30 171 C 14.8719 -0.883301 -1.73847 0
M  V30 172 O 14.1419 0.0781442 -1.95744 0
M  V30 173 H 12.7219 -0.703312 -0.251717 0
M  V30 174 H 15.3839 -1.94833 0.0512592 0
M  V30 175 H 14.4799 -2.9056 -1.13935 0
M  V30 176 N 14.781 0.264519 -1.55364 0
M  V30 177 C 15.744 1.31046 -1.88042 0
M  V30 178 C 16.744 1.41943 -0.755569 0
M  V30 179 O 17.934 1.40947 -1.02369 0
M  V30 180 C 15.066 2.69067 -2.09323 0
M  V30 181 H 16.259 1.03297 -2.81549 0
M  V30 182 H 13.812 0.502989 -1.47986 0
M  V30 183 H 14.547 3.01982 -1.18226 0
M  V30 184 H 14.332 2.62542 -2.91229 0
M  V30 185 H 15.822 3.44623 -2.35848 0
M  V30 186 N 16.2591 1.48442 0.529413 0
M  V30 187 C 17.4991 1.58086 1.29569 0
M  V30 188 C 17.8631 0.249302 1.90375 0
M  V30 189 O 19.0641 0.220738 2.67892 0
M  V30 190 C 17.3351 2.68793 2.35552 0
M  V30 191 S 18.8941 2.98207 3.21898 0
M  V30 192 H 15.7121 0.557922 0.440732 0
M  V30 193 H 18.3141 1.85966 0.603059 0
M  V30 194 H 17.0181 3.64102 1.89363 0
M  V30 195 H 16.5491 2.42817 3.09522 0
M  V30 196 H 18.5641 2.37548 4.35644 0
M  V30 197 N 17.7372 -0.778329 1.37039 0
M  V30 198 C 18.6672 -1.90546 1.34962 0
M  V30 199 C 19.6482 -1.68681 0.219274 0
M  V30 200 O 20.8332 -1.89634 0.418624 0
M  V30 201 C 17.9632 -3.27734 1.14925 0
M  V30 202 C 16.9172 -3.64147 2.24902 0
M  V30 203 C 16.2432 -4.99806 1.89996 0
M  V30 204 C 17.5432 -3.71579 3.67051 0
M  V30 205 H 19.2372 -1.92541 2.29277 0
M  V30 206 H 16.7832 -0.924948 1.10366 0
M  V30 207 H 18.7362 -4.06215 1.12104 0
M  V30 208 H 17.4602 -3.26154 0.170631 0
M  V30 209 H 16.1192 -2.8797 2.26868 0
M  V30 210 H 15.7672 -4.94759 0.906796 0
M  V30 211 H 15.4672 -5.25139 2.63634 0
M  V30 212 H 16.9912 -5.80694 1.88749 0
M  V30 213 H 18.4052 -4.40227 3.67251 0
M  V30 214 H 16.8022 -4.08405 4.39688 0
M  V30 215 H 17.8722 -2.72404 4.01154 0
M  V30 216 N 19.2153 -1.21501 -1.00376 0
M  V30 217 C 20.1453 -0.999478 -2.11028 0
M  V30 218 C 21.1263 0.0759671 -1.6993 0
M  V30 219 O 22.3113 -0.0841106 -1.94018 0
M  V30 220 C 19.4413 -0.564709 -3.42678 0
M  V30 221 C 18.3953 -1.58486 -3.97576 0
M  V30 222 C 17.7213 -1.00628 -5.25146 0
M  V30 223 C 19.0213 -2.97204 -4.29496 0
M  V30 224 H 20.7153 -1.92495 -2.29317 0
M  V30 225 H 18.2613 -0.92693 -1.102 0
M  V30 226 H 20.2143 -0.401091 -4.19487 0
M  V30 227 H 18.9383 0.396411 -3.24185 0
M  V30 228 H 17.5973 -1.73606 -3.22888 0
M  V30 229 H 17.2453 -0.0368439 -5.02987 0
M  V30 230 H 16.9453 -1.68771 -5.62841 0
M  V30 231 H 18.4693 -0.854015 -6.04598 0
M  V30 232 H 19.8833 -2.8552 -4.97143 0
M  V30 233 H 18.2803 -3.62372 -4.78338 0
M  V30 234 H 19.3503 -3.47956 -3.3772 0
M  V30 235 N 20.6934 1.19889 -1.02296 0
M  V30 236 C 21.9334 1.91125 -0.724602 0
M  V30 237 C 22.2974 1.77464 0.732835 0
M  V30 238 O 23.4984 2.43241 1.144 0
M  V30 239 C 21.7694 3.38187 -1.15604 0
M  V30 240 S 23.3284 4.27702 -0.980621 0
M  V30 241 H 20.1464 0.66018 -0.263976 0
M  V30 242 H 22.7484 1.44978 -1.31155 0
M  V30 243 H 21.4524 3.45653 -2.21251 0
M  V30 244 H 20.9834 3.89363 -0.562131 0
M  V30 245 H 22.9984 4.96073 0.112225 0
M  V30 246 N 22.1715 0.800033 1.35784 0
M  V30 247 C 23.1345 0.211565 2.28221 0
M  V30 248 C 24.1345 -0.59728 1.49296 0
M  V30 249 O 25.3245 -0.416721 1.69142 0
M  V30 250 C 22.4565 -0.705846 3.33513 0
M  V30 251 H 23.6495 1.02677 2.81776 0
M  V30 252 H 21.2025 0.570211 1.45528 0
M  V30 253 H 21.9375 -1.54498 2.85133 0
M  V30 254 H 21.7225 -0.127655 3.91892 0
M  V30 255 H 23.2125 -1.11211 4.02519 0
M  V30 256 N 23.6496 -1.47581 0.552962 0
M  V30 257 C 24.8956 -2.02782 0.0273648 0
M  V30 258 C 25.2286 -1.42687 -1.31734 0
M  V30 259 O 24.5036 -0.580897 -1.85623 0
M  V30 260 C 24.7866 -3.60031 -0.0702371 0
M  V30 261 C 24.6396 -4.30566 1.30126 0
M  V30 262 C 25.9586 -4.33028 -0.785771 0
M  V30 263 H 23.0776 -0.736912 0.0114185 0
M  V30 264 H 25.7196 -1.76056 0.714432 0
M  V30 265 H 23.8696 -3.82932 -0.655382 0
M  V30 266 H 25.5416 -4.19018 1.92929 0
M  V30 267 H 23.7846 -3.91086 1.87709 0
M  V30 268 H 24.4556 -5.39114 1.18573 0
M  V30 269 H 26.9316 -4.15095 -0.288982 0
M  V30 270 H 25.8076 -5.42695 -0.823013 0
M  V30 271 H 26.0686 -4.01945 -1.841 0
M  V30 272 N 25.1277 -0.289203 -1.54924 0
M  V30 273 C 26.3557 0.326463 -2.04308 0
M  V30 274 C 26.7707 1.48413 -1.16701 0
M  V30 275 O 26.1277 1.81507 -0.190087 0
M  V30 276 C 26.1787 0.794014 -3.52672 0
M  V30 277 O 25.8997 -0.317564 -4.36948 0
M  V30 278 C 27.4007 1.47605 -4.18004 0
M  V30 279 H 24.6207 0.0726272 -0.667058 0
M  V30 280 H 27.1647 -0.425401 -2.00026 0
M  V30 281 H 25.3197 1.49593 -3.57352 0
M  V30 282 H 25.7337 0.0443186 -5.24481 0
M  V30 283 H 27.2077 1.75447 -5.23376 0
M  V30 284 H 27.6847 2.41224 -3.67025 0
M  V30 285 H 28.2907 0.81762 -4.17367 0
M  V30 286 N 26.6058 1.57591 -0.0167156 0
M  V30 287 C 27.8338 1.95575 0.675128 0
M  V30 288 C 28.2488 0.892542 1.6637 0
M  V30 289 O 27.6058 -0.126912 1.82058 0
M  V30 290 C 27.6568 3.33608 1.39239 0
M  V30 291 O 27.3778 4.3585 0.443444 0
M  V30 292 C 28.8788 3.86151 2.17721 0
M  V30 293 H 26.0988 0.644423 0.186978 0
M  V30 294 H 28.6428 2.0437 -0.0728 0
M  V30 295 H 26.7978 3.2607 2.09182 0
M  V30 296 H 27.2118 5.158 0.951358 0
M  V30 297 H 28.6858 4.85114 2.63379 0
M  V30 298 H 29.1628 3.19738 3.01105 0
M  V30 299 H 29.7688 3.96918 1.52761 0
M  V30 300 N 28.0839 -0.256276 1.55502 0
M  V30 301 C 29.3309 -0.985619 1.76895 0
M  V30 302 C 29.6589 -1.85671 0.579355 0
M  V30 303 O 28.9139 -1.90744 -0.437651 0
M  V30 304 C 29.2129 -1.88432 3.03691 0
M  V30 305 C 28.8789 -1.16936 4.35473 0
M  V30 306 C 27.5409 -0.97173 4.71286 0
M  V30 307 C 29.8929 -0.661889 5.1698 0
M  V30 308 C 27.2209 -0.254179 5.86149 0
M  V30 309 C 29.5729 0.042149 6.32586 0
M  V30 310 C 28.2369 0.25134 6.67027 0
M  V30 311 H 27.5069 -0.360663 0.647304 0
M  V30 312 H 30.1539 -0.256483 1.89775 0
M  V30 313 H 28.4589 -2.68021 2.85783 0
M  V30 314 H 30.1559 -2.45015 3.1744 0
M  V30 315 H 26.7459 -1.33332 4.07333 0
M  V30 316 H 30.9299 -0.802145 4.89775 0
M  V30 317 H 26.1859 -0.0815408 6.11346 0
M  V30 318 H 30.3599 0.443049 6.94989 0
M  V30 319 H 27.9869 0.809314 7.5588 0
M  V30 320 N 29.562 -1.4872 -0.521534 0
M  V30 321 C 30.525 -1.63379 -1.60748 0
M  V30 322 C 31.525 -0.50661 -1.52611 0
M  V30 323 O 32.715 -0.772601 -1.5613 0
M  V30 324 C 29.847 -1.61192 -3.00383 0
M  V30 325 H 31.04 -2.60217 -1.49087 0
M  V30 326 H 28.593 -1.37444 -0.744235 0
M  V30 327 H 29.328 -0.65863 -3.17541 0
M  V30 328 H 29.113 -2.43032 -3.07698 0
M  V30 329 H 30.603 -1.7466 -3.7932 0
M  V30 330 N 31.0401 0.771051 -1.3745 0
M  V30 331 C 31.9721 1.89352 -1.29146 0
M  V30 332 C 32.9851 1.61477 -0.207124 0
M  V30 333 O 34.1741 1.72382 -0.463324 0
M  V30 334 C 31.2741 3.24596 -0.974195 0
M  V30 335 C 30.4471 3.80111 -2.16413 0
M  V30 336 C 29.5061 4.93832 -1.81703 0
M  V30 337 O 28.5321 5.09382 -2.54006 0
M  V30 338 N 29.7341 5.75483 -0.761573 0
M  V30 339 H 32.4991 1.96991 -2.25864 0
M  V30 340 H 30.0601 0.950191 -1.31084 0
M  V30 341 H 32.0521 3.98193 -0.722828 0
M  V30 342 H 30.6221 3.12454 -0.0955527 0
M  V30 343 H 29.8421 2.98284 -2.57721 0
M  V30 344 H 31.1301 4.13932 -2.95867 0
M  V30 345 H 30.5281 5.65469 -0.161609 0
M  V30 346 H 29.0851 6.49302 -0.570064 0
M  V30 347 N 32.5182 1.22032 0.997298 0
M  V30 348 C 33.4662 0.983634 2.10778 0
M  V30 349 C 34.4602 -0.0717564 1.69248 0
M  V30 350 O 35.6662 0.080304 1.79821 0
M  V30 351 H 32.0412 0.300877 0.689186 0
M  V30 352 H 34.0122 1.92606 2.27916 0
M  V30 353 C 32.7612 0.57326 3.42942 0
M  V30 354 H 32.0842 1.37702 3.75338 0
M  V30 355 H 33.5242 0.447031 4.21637 0
M  V30 356 C 31.9832 -0.7167 3.29188 0
M  V30 357 O 32.5132 -1.77027 3.60589 0
M  V30 358 N 30.7192 -0.686167 2.82383 0
M  V30 359 H 30.2662 0.171507 2.57028 0
M  V30 360 H 30.2242 -1.54955 2.73562 0
M  V30 361 N 33.9963 -1.19345 1.0293 0
M  V30 362 C 35.2423 -1.89318 0.727083 0
M  V30 363 C 35.5753 -1.79446 -0.742483 0
M  V30 364 O 34.8503 -1.1871 -1.54072 0
M  V30 365 C 35.1333 -3.40238 1.17942 0
M  V30 366 C 34.9863 -3.58979 2.71024 0
M  V30 367 C 36.3053 -4.33479 0.760548 0
M  V30 368 H 33.4243 -0.687475 0.265606 0
M  V30 369 H 36.0663 -1.40477 1.2793 0
M  V30 370 H 34.2163 -3.81964 0.709608 0
M  V30 371 H 35.8883 -3.26421 3.25955 0
M  V30 372 H 34.1313 -3.02018 3.11396 0
M  V30 373 H 34.8023 -4.64823 2.9773 0
M  V30 374 H 37.2783 -3.99469 1.16464 0
M  V30 375 H 36.1543 -5.37664 1.10493 0
M  V30 376 H 36.4153 -4.40813 -0.337063 0
M  V30 377 N 35.4744 -0.807222 -1.35358 0
M  V30 378 C 36.6994 -0.399309 -2.0352 0
M  V30 379 C 37.1244 0.981986 -1.60433 0
M  V30 380 O 36.4824 1.63601 -0.781299 0
M  V30 381 C 36.5304 -0.491552 -3.57234 0
M  V30 382 O 35.6344 0.494754 -4.09421 0
M  V30 383 H 34.9754 -0.166682 -0.642739 0
M  V30 384 H 37.5054 -1.09328 -1.72941 0
M  V30 385 H 37.5154 -0.361588 -4.06395 0
M  V30 386 H 36.1904 -1.49907 -3.87944 0
M  V30 387 H 34.7674 0.324977 -3.71481 0
M  V30 388 N 36.9525 1.47285 -0.560781 0
M  V30 389 C 37.8825 2.32857 0.173105 0
M  V30 390 C 38.8635 1.44009 0.905281 0
M  V30 391 O 40.0485 1.7286 0.885046 0
M  V30 392 C 37.1785 3.25861 1.20133 0
M  V30 393 C 36.1325 4.23978 0.585388 0
M  V30 394 C 35.4585 5.06332 1.7185 0
M  V30 395 C 36.7585 5.20242 -0.463178 0
M  V30 396 H 38.4525 2.94466 -0.541307 0
M  V30 397 H 35.9985 1.41601 -0.261764 0
M  V30 398 H 37.9515 3.84569 1.72293 0
M  V30 399 H 36.6755 2.62315 1.94573 0
M  V30 400 H 35.3345 3.66501 0.085054 0
M  V30 401 H 34.9825 4.39186 2.45203 0
M  V30 402 H 34.6825 5.72762 1.31213 0
M  V30 403 H 36.2065 5.67899 2.24329 0
M  V30 404 H 37.6205 5.73293 -0.027502 0
M  V30 405 H 36.0175 5.94896 -0.788627 0
M  V30 406 H 37.0875 4.65504 -1.35773 0
M  V30 407 N 38.4306 0.297415 1.54768 0
M  V30 408 C 39.3626 -0.613881 2.20826 0
M  V30 409 C 40.3756 -1.10032 1.19987 0
M  V30 410 O 41.5646 -1.01839 1.46598 0
M  V30 411 C 38.6646 -1.852 2.83821 0
M  V30 412 C 37.8376 -1.50865 4.10559 0
M  V30 413 C 36.8966 -2.60154 4.57391 0
M  V30 414 O 35.9226 -2.25398 5.2267 0
M  V30 415 N 37.1246 -3.90629 4.29406 0
M  V30 416 H 39.8896 -0.048389 2.99661 0
M  V30 417 H 37.4506 0.11946 1.61459 0
M  V30 418 H 39.4426 -2.57652 3.12086 0
M  V30 419 H 38.0126 -2.32597 2.08847 0
M  V30 420 H 37.2326 -0.616925 3.89343 0
M  V30 421 H 38.5206 -1.25458 4.9309 0
M  V30 422 H 37.9186 -4.21677 3.77101 0
M  V30 423 H 36.4756 -4.59391 4.62388 0
M  V30 424 N 39.9087 -1.5758 0.0250728 0
M  V30 425 C 41.3197 -1.79476 -0.514323 0
M  V30 426 C 41.6707 -0.934956 -1.72491 0
M  V30 427 O 40.7957 -0.144245 -2.15919 0
M  V30 428 C 41.3907 -3.25503 -0.939842 0
M  V30 429 C 39.9497 -3.48408 -1.42438 0
M  V30 430 C 39.0967 -2.74583 -0.387201 0
M  V30 431 H 42.0477 -1.567 0.25113 0
M  V30 432 H 42.0687 -3.34992 -1.80445 0
M  V30 433 H 41.5807 -3.88056 -0.0585628 0
M  V30 434 H 39.6817 -2.91103 -2.32572 0
M  V30 435 H 39.7947 -4.57119 -1.43455 0
M  V30 436 H 38.1587 -2.39942 -0.854409 0
M  V30 437 H 38.9417 -3.39849 0.485543 0
M  V30 438 N 41.3868 0.248026 -1.55636 0
M  V30 439 C 42.7978 0.817177 -1.67866 0
M  V30 440 C 43.1488 1.86069 -0.622322 0
M  V30 441 O 42.2738 2.15157 0.231618 0
M  V30 442 C 42.8688 1.489 -3.04326 0
M  V30 443 C 41.4278 2.00587 -3.185 0
M  V30 444 C 40.5748 0.856573 -2.63739 0
M  V30 445 H 43.5258 0.0238579 -1.58682 0
M  V30 446 H 43.5468 2.35698 -2.98708 0
M  V30 447 H 43.0588 0.729279 -3.81186 0
M  V30 448 H 41.1598 2.79443 -2.4646 0
M  V30 449 H 41.2728 2.20402 -4.25393 0
M  V30 450 H 39.6368 1.25678 -2.21534 0
M  V30 451 H 40.4198 0.109953 -3.43124 0
M  V30 452 N 42.8649 1.48995 0.513639 0
M  V30 453 C 44.2759 1.5119 1.09537 0
M  V30 454 C 44.6269 0.290906 1.94031 0
M  V30 455 O 43.7519 -0.60049 2.07902 0
M  V30 456 C 44.3469 2.73964 1.99322 0
M  V30 457 C 42.9059 2.78978 2.52682 0
M  V30 458 C 42.0529 2.44934 1.30009 0
M  V30 459 H 45.0039 1.55875 0.298125 0
M  V30 460 H 45.0249 2.53409 2.83838 0
M  V30 461 H 44.5369 3.62813 1.37799 0
M  V30 462 H 42.6379 1.94378 3.1788 0
M  V30 463 H 42.7509 3.8083 2.90698 0
M  V30 464 H 41.1149 1.9644 1.62122 0
M  V30 465 H 41.8979 3.36043 0.702131 0
M  V30 466 N 44.343 -0.763751 1.37857 0
M  V30 467 C 45.275 -1.88664 1.30148 0
M  V30 468 C 46.288 -1.61365 0.215685 0
M  V30 469 O 47.477 -1.72134 0.472459 0
M  V30 470 C 44.577 -3.24075 0.991396 0
M  V30 471 C 43.75 -3.78958 2.18426 0
M  V30 472 C 42.809 -4.92862 1.8432 0
M  V30 473 O 41.835 -5.08027 2.56704 0
M  V30 474 N 43.037 -5.75071 0.792081 0
M  V30 475 H 45.802 -1.95791 2.26905 0
M  V30 476 H 43.363 -0.943226 1.31586 0
M  V30 477 H 45.355 -3.97804 0.743935 0
M  V30 478 H 43.925 -3.12399 0.112122 0
M  V30 479 H 43.145 -2.96913 2.59299 0
M  V30 480 H 44.433 -4.12357 2.98058 0
M  V30 481 H 43.831 -5.65375 0.191595 0
M  V30 482 H 42.388 -6.48991 0.60449 0
M  V30 483 N 45.8211 -1.22559 -0.990812 0
M  V30 484 C 46.7531 -0.955325 -2.08342 0
M  V30 485 C 47.7661 0.0668408 -1.62663 0
M  V30 486 O 48.9551 -0.167421 -1.77713 0
M  V30 487 C 46.0551 -0.415566 -3.36342 0
M  V30 488 C 45.2281 -1.49544 -4.11042 0
M  V30 489 C 44.2871 -0.962399 -5.17324 0
M  V30 490 O 43.3131 -1.64907 -5.44788 0
M  V30 491 N 44.5151 0.215134 -5.80101 0
M  V30 492 H 47.2801 -1.89596 -2.32106 0
M  V30 493 H 44.8411 -1.13276 -1.15673 0
M  V30 494 H 46.8331 -0.0442386 -4.04676 0
M  V30 495 H 45.4031 0.430232 -3.09625 0
M  V30 496 H 44.6231 -2.04 -3.37309 0
M  V30 497 H 45.9111 -2.22195 -4.57719 0
M  V30 498 H 45.3091 0.789779 -5.6016 0
M  V30 499 H 43.8661 0.527826 -6.49659 0
M  V30 500 N 47.2992 1.18797 -1.03562 0
M  V30 501 C 48.2292 2.24472 -0.643019 0
M  V30 502 C 49.2102 1.66433 0.351283 0
M  V30 503 O 50.3952 1.92803 0.232505 0
M  V30 504 C 47.5252 3.473 4.24935e-05 0
M  V30 505 C 46.4792 4.18055 -0.917257 0
M  V30 506 C 45.8052 5.34519 -0.138941 0
M  V30 507 C 47.1052 4.72109 -2.23407 0
M  V30 508 H 48.7992 2.57566 -1.52643 0
M  V30 509 H 46.3452 1.23806 -0.735394 0
M  V30 510 H 48.2982 4.20426 0.286383 0
M  V30 511 H 47.0222 3.13424 0.918299 0
M  V30 512 H 45.6812 3.46821 -1.1879 0
M  V30 513 H 45.3292 4.96891 0.781562 0
M  V30 514 H 45.0292 5.82794 -0.750005 0
M  V30 515 H 46.5532 6.10438 0.1405 0
M  V30 516 H 47.9672 5.36955 -2.00879 0
M  V30 517 H 46.3642 5.30897 -2.79765 0
M  V30 518 H 47.4342 3.89807 -2.88407 0
M  V30 519 N 48.7773 0.814389 1.34928 0
M  V30 520 C 50.0263 0.394871 1.97797 0
M  V30 521 C 50.3393 -1.04555 1.65311 0
M  V30 522 O 51.5453 -1.56856 2.21604 0
M  V30 523 C 50.0013 0.655103 3.53888 0
M  V30 524 C 49.6093 2.10858 3.95276 0
M  V30 525 C 51.3533 0.301329 4.23429 0
M  V30 526 C 49.2603 2.31415 5.44244 0
M  V30 527 H 48.1903 0.143913 0.740139 0
M  V30 528 H 50.8413 0.999544 1.53888 0
M  V30 529 H 49.2233 -0.0196253 3.95995 0
M  V30 530 H 50.3973 2.82176 3.64298 0
M  V30 531 H 48.7123 2.42297 3.38646 0
M  V30 532 H 51.3093 0.432869 5.32945 0
M  V30 533 H 51.6523 -0.75331 4.09428 0
M  V30 534 H 52.1853 0.930288 3.86769 0
M  V30 535 H 48.9243 3.35353 5.63222 0
M  V30 536 H 48.4443 1.6463 5.76764 0
M  V30 537 H 50.1233 2.13352 6.10811 0
M  V30 538 N 50.2554 -1.46986 0.568584 0
M  V30 539 C 51.5014 -2.02741 0.0488709 0
M  V30 540 C 51.8344 -1.44077 -1.30214 0
M  V30 541 O 51.1094 -0.600552 -1.84996 0
M  V30 542 C 51.3924 -3.60086 -0.032047 0
M  V30 543 C 51.2454 -4.29162 1.34686 0
M  V30 544 C 52.5644 -4.33838 -0.739798 0
M  V30 545 H 49.6834 -0.736749 0.0192338 0
M  V30 546 H 52.3254 -1.75289 0.733065 0
M  V30 547 H 50.4754 -3.83606 -0.61473 0
M  V30 548 H 52.1474 -4.16948 1.97362 0
M  V30 549 H 50.3904 -3.89073 1.91846 0
M  V30 550 H 51.0614 -5.37826 1.24285 0
M  V30 551 H 53.5374 -4.15378 -0.244939 0
M  V30 552 H 52.4134 -5.43537 -0.765406 0
M  V30 553 H 52.6744 -4.03875 -1.79827 0
M  V30 554 N 51.7335 -0.305618 -1.54608 0
M  V30 555 C 52.6655 0.602161 -2.21149 0
M  V30 556 C 53.6785 1.09394 -1.20569 0
M  V30 557 O 54.8675 1.0106 -1.47136 0
M  V30 558 C 51.9675 1.83692 -2.84799 0
M  V30 559 C 51.1405 1.48686 -4.11353 0
M  V30 560 C 50.1995 2.57725 -4.58764 0
M  V30 561 O 49.2255 2.22623 -5.23858 0
M  V30 562 N 50.4275 3.88346 -4.31471 0
M  V30 563 H 53.1925 0.0324966 -2.99682 0
M  V30 564 H 50.7535 -0.128021 -1.61393 0
M  V30 565 H 52.7455 2.55994 -3.13448 0
M  V30 566 H 51.3155 2.31486 -2.10078 0
M  V30 567 H 50.5355 0.596269 -3.89664 0
M  V30 568 H 51.8235 1.22842 -4.93748 0
M  V30 569 H 51.2215 4.19671 -3.79331 0
M  V30 570 H 49.7785 4.56932 -4.64818 0
M  V30 571 N 53.2116 1.57565 -0.0334293 0
M  V30 572 C 54.1596 2.1164 0.96496 0
M  V30 573 C 55.1536 1.04398 1.33407 0
M  V30 574 O 56.3596 1.22828 1.3158 0
M  V30 575 H 52.7346 0.676222 0.32898 0
M  V30 576 H 54.7056 2.94455 0.483614 0
M  V30 577 C 53.4546 2.66207 2.23672 0
M  V30 578 H 52.7776 3.48378 1.96145 0
M  V30 579 H 54.2176 3.07685 2.9173 0
M  V30 580 C 52.6766 1.59151 2.96939 0
M  V30 581 O 53.2066 0.993858 3.89211 0
M  V30 582 N 51.4126 1.31093 2.59351 0
M  V30 583 H 50.9596 1.7988 1.84393 0
M  V30 584 H 50.9176 0.596889 3.08682 0
M  V30 585 N 54.6897 -0.239769 1.55765 0
M  V30 586 C 55.6367 -1.29696 1.90913 0
M  V30 587 C 56.6067 -1.47478 0.764164 0
M  V30 588 O 57.7917 -1.61345 1.01845 0
M  V30 589 C 54.9317 -2.64598 2.21544 0
M  V30 590 C 54.0447 -2.54765 3.48882 0
M  V30 591 C 53.1797 -3.82069 3.69049 0
M  V30 592 C 52.2187 -3.66883 4.89963 0
M  V30 593 N 51.3557 -4.86094 5.06614 0
M  V30 594 H 56.1957 -0.990224 2.81067 0
M  V30 595 H 53.7327 -0.477684 1.39128 0
M  V30 596 H 55.6907 -3.43132 2.3731 0
M  V30 597 H 54.3207 -2.93405 1.34585 0
M  V30 598 H 53.3727 -1.67763 3.41409 0
M  V30 599 H 54.6847 -2.39457 4.37563 0
M  V30 600 H 53.8387 -4.69046 3.84812 0
M  V30 601 H 52.5777 -4.00282 2.78614 0
M  V30 602 H 51.5827 -2.78289 4.74168 0
M  V30 603 H 52.8077 -3.50157 5.81865 0
M  V30 604 H 50.7537 -5.04655 4.19117 0
M  V30 605 H 50.6707 -4.73443 5.89396 0
M  V30 606 H 51.9387 -5.74549 5.26795 0
M  V30 607 N 56.1678 -1.49265 -0.50573 0
M  V30 608 C 57.3958 -1.62215 -1.28429 0
M  V30 609 C 57.8108 -0.291697 -1.86533 0
M  V30 610 O 57.1678 0.722233 -1.67601 0
M  V30 611 C 57.2188 -2.68735 -2.41793 0
M  V30 612 O 56.9398 -3.96619 -1.86078 0
M  V30 613 C 58.4408 -2.92346 -3.3324 0
M  V30 614 H 55.6608 -0.546239 -0.389697 0
M  V30 615 H 58.2048 -1.95265 -0.607609 0
M  V30 616 H 56.3598 -2.38476 -3.053 0
M  V30 617 H 56.7738 -4.55256 -2.60465 0
M  V30 618 H 58.2478 -3.70623 -4.09075 0
M  V30 619 H 58.7248 -2.02081 -3.89948 0
M  V30 620 H 59.3308 -3.24003 -2.75503 0
M  V30 621 N 57.6459 0.756429 -1.3826 0
M  V30 622 C 58.8949 1.51082 -1.3363 0
M  V30 623 C 59.2079 1.95467 0.0720068 0
M  V30 624 O 60.4139 2.7043 0.240834 0
M  V30 625 C 58.8699 2.72893 -2.34644 0
M  V30 626 C 58.4779 2.35544 -3.81081 0
M  V30 627 C 60.2219 3.50791 -2.39052 0
M  V30 628 C 58.1289 3.53948 -4.73787 0
M  V30 629 H 57.0589 0.56727 -0.49671 0
M  V30 630 H 59.7099 0.827147 -1.638 0
M  V30 631 H 58.0919 3.43227 -1.97513 0
M  V30 632 H 59.2659 1.72894 -4.27135 0
M  V30 633 H 57.5809 1.70786 -3.79764 0
M  V30 634 H 60.1779 4.38823 -3.05513 0
M  V30 635 H 60.5209 3.91745 -1.40861 0
M  V30 636 H 61.0539 2.87467 -2.74968 0
M  V30 637 H 57.7929 3.18064 -5.73163 0
M  V30 638 H 57.3129 4.15651 -4.32428 0
M  V30 639 H 58.9919 4.20566 -4.91663 0
M  V30 640 N 59.124 1.23083 0.984299 0
M  V30 641 C 60.401 0.9689 1.69917 0
M  V30 642 C 60.781 -0.513604 2.04757 0
M  V30 643 O 60.129 -1.48383 1.73767 0
M  V30 644 C 60.339 1.87518 2.94343 0
M  V30 645 C 61.687 2.13636 3.6694 0
M  V30 646 O 62.711 1.85036 3.04368 0
M  V30 647 O 61.57 2.62119 4.79537 0
M  V30 648 H 58.664 0.365095 0.742048 0
M  V30 649 H 61.21 1.34107 1.03987 0
M  V30 650 H 59.982 2.87756 2.65164 0
M  V30 651 H 59.605 1.50514 3.6801 0
M  V30 652 N 60.6021 -1.18246 1.0419 0
M  V30 653 C 61.5321 -2.24127 0.654914 0
M  V30 654 C 62.5131 -1.66617 -0.342451 0
M  V30 655 O 63.6981 -1.92924 -0.222277 0
M  V30 656 C 60.8281 -3.47295 0.0183757 0
M  V30 657 C 59.7821 -4.17563 0.939414 0
M  V30 658 C 59.1081 -5.34438 0.167286 0
M  V30 659 C 60.4081 -4.70917 2.25908 0
M  V30 660 H 62.1021 -2.56753 1.54007 0
M  V30 661 H 59.6481 -1.23414 0.74195 0
M  V30 662 H 61.6011 -4.20572 -0.264082 0
M  V30 663 H 60.3251 -3.13907 -0.901664 0
M  V30 664 H 58.9841 -3.46186 1.20628 0
M  V30 665 H 58.6321 -4.97298 -0.7552 0
M  V30 666 H 58.3321 -5.82388 0.780901 0
M  V30 667 H 59.8561 -6.10504 -0.108125 0
M  V30 668 H 61.2701 -5.35882 2.03724 0
M  V30 669 H 59.6671 -5.29406 2.82577 0
M  V30 670 H 60.7371 -3.88272 2.9047 0
M  V30 671 N 62.0802 -0.821533 -1.34494 0
M  V30 672 C 63.4912 -0.467956 -1.8074 0
M  V30 673 C 63.8422 1.01151 -1.68116 0
M  V30 674 O 62.9672 1.78707 -1.22036 0
M  V30 675 C 63.5622 -0.842627 -3.28154 0
M  V30 676 C 62.1212 -0.541439 -3.72485 0
M  V30 677 C 61.2682 -1.06028 -2.56229 0
M  V30 678 H 64.2192 -1.01183 -1.22261 0
M  V30 679 H 64.2402 -0.145876 -3.8022 0
M  V30 680 H 63.7522 -1.91945 -3.37311 0
M  V30 681 H 61.8532 0.526034 -3.68868 0
M  V30 682 H 61.9662 -1.08453 -4.66663 0
M  V30 683 H 60.3302 -0.481892 -2.501 0
M  V30 684 H 61.1132 -2.14352 -2.68157 0
M  V30 685 N 63.5583 1.46682 -0.576371 0
M  V30 686 C 64.5213 2.28707 0.150239 0
M  V30 687 C 65.5213 1.38035 0.824794 0
M  V30 688 O 66.7113 1.60476 0.677719 0
M  V30 689 C 63.8433 3.18248 1.22192 0
M  V30 690 H 65.0363 2.94423 -0.570521 0
M  V30 691 H 62.5893 1.52688 -0.334078 0
M  V30 692 H 63.3243 2.57265 1.97447 0
M  V30 693 H 63.1093 3.85 0.742812 0
M  V30 694 H 64.5993 3.80001 1.73172 0
M  V30 695 N 65.0364 0.313813 1.54444 0
M  V30 696 C 66.2824 -0.292108 2.00685 0
M  V30 697 C 66.6154 -1.52548 1.20177 0
M  V30 698 O 65.8904 -1.92452 0.281531 0
M  V30 699 C 66.1734 -0.635968 3.5444 0
M  V30 700 C 66.0264 0.607437 4.4568 0
M  V30 701 C 67.3454 -1.45747 4.15266 0
M  V30 702 H 64.4644 -0.104697 0.729526 0
M  V30 703 H 67.1064 0.428457 1.85106 0
M  V30 704 H 65.2564 -1.24986 3.67846 0
M  V30 705 H 66.9284 1.24581 4.44159 0
M  V30 706 H 65.1714 1.23822 4.15753 0
M  V30 707 H 65.8424 0.322515 5.51057 0
M  V30 708 H 68.3184 -0.938645 4.05375 0
M  V30 709 H 67.1944 -1.66683 5.2298 0
M  V30 710 H 67.4554 -2.45063 3.67963 0
M  V30 711 N 66.5145 -1.57545 0.0417849 0
M  V30 712 C 67.7445 -1.96339 -0.642995 0
M  V30 713 C 68.1525 -0.917536 -1.65463 0
M  V30 714 O 67.4955 0.107747 -1.83384 0
M  V30 715 C 67.5575 -3.31333 -1.39494 0
M  V30 716 C 67.2215 -4.53796 -0.540204 0
M  V30 717 C 68.2185 -5.19553 0.189806 0
M  V30 718 C 65.9035 -5.0006 -0.473886 0
M  V30 719 C 67.8975 -6.29904 0.974674 0
M  V30 720 C 65.5845 -6.10289 0.314677 0
M  V30 721 C 66.5825 -6.75072 1.03765 0
M  V30 722 O 66.2705 -7.83183 1.81327 0
M  V30 723 H 66.0025 -0.651241 -0.181277 0
M  V30 724 H 68.5565 -2.05148 0.101665 0
M  V30 725 H 66.7865 -3.19052 -2.18502 0
M  V30 726 H 68.4755 -3.54942 -1.96904 0
M  V30 727 H 69.2415 -4.84774 0.147981 0
M  V30 728 H 65.1205 -4.49433 -1.0262 0
M  V30 729 H 68.6645 -6.80401 1.5395 0
M  V30 730 H 64.5615 -6.44506 0.358174 0
M  V30 731 H 65.3295 -7.99913 1.73438 0
M  V30 732 N 67.9926 0.231505 -1.5589 0
M  V30 733 C 68.9246 1.31006 -1.8807 0
M  V30 734 C 69.9376 1.43539 -0.768145 0
M  V30 735 O 71.1266 1.44614 -1.04638 0
M  V30 736 C 68.2266 2.68688 -2.06543 0
M  V30 737 C 67.3996 2.78228 -3.37502 0
M  V30 738 C 66.4586 3.96857 -3.4553 0
M  V30 739 O 65.4846 3.85662 -4.18633 0
M  V30 740 N 66.6866 5.1072 -2.75944 0
M  V30 741 H 69.4516 1.03731 -2.81176 0
M  V30 742 H 67.0126 0.421573 -1.56315 0
M  V30 743 H 69.0046 3.46412 -2.09239 0
M  V30 744 H 67.5746 2.88605 -1.20109 0
M  V30 745 H 66.7946 1.87059 -3.46991 0
M  V30 746 H 68.0826 2.81564 -4.23791 0
M  V30 747 H 67.4806 5.2271 -2.16311 0
M  V30 748 H 66.0376 5.86523 -2.84314 0
M  V30 749 N 69.4707 1.49531 0.497807 0
M  V30 750 C 70.4007 1.6935 1.60757 0
M  V30 751 C 71.3817 0.542218 1.61227 0
M  V30 752 O 72.5667 0.778417 1.77917 0
M  V30 753 C 69.6967 1.76298 2.99226 0
M  V30 754 C 68.6507 2.91248 3.13622 0
M  V30 755 C 67.9767 2.83312 4.53474 0
M  V30 756 C 69.2767 4.3214 2.93346 0
M  V30 757 H 70.9707 2.62263 1.44425 0
M  V30 758 H 68.5167 1.26208 0.693367 0
M  V30 759 H 70.4697 1.88749 3.76765 0
M  V30 760 H 69.1937 0.799871 3.16654 0
M  V30 761 H 67.8527 2.78404 2.38509 0
M  V30 762 H 67.5007 1.84902 4.67782 0
M  V30 763 H 67.2007 3.60465 4.64046 0
M  V30 764 H 68.7247 2.97775 5.33069 0
M  V30 765 H 70.1387 4.45649 3.60652 0
M  V30 766 H 68.5357 5.1054 3.15387 0
M  V30 767 H 69.6057 4.46363 1.89441 0
M  V30 768 N 70.9488 -0.749086 1.3866 0
M  V30 769 C 71.8968 -1.88428 1.36373 0
M  V30 770 C 72.8908 -1.67561 0.248929 0
M  V30 771 O 74.0968 -1.75074 0.41821 0
M  V30 772 H 70.4718 -0.620023 0.42553 0
M  V30 773 H 72.4428 -1.87473 2.32156 0
M  V30 774 C 71.1918 -3.25961 1.21014 0
M  V30 775 H 70.5148 -3.42607 2.06059 0
M  V30 776 H 71.9548 -4.05625 1.23469 0
M  V30 777 C 70.4138 -3.36799 -0.0825941 0
M  V30 778 O 70.9438 -3.87517 -1.05797 0
M  V30 779 N 69.1498 -2.90258 -0.140939 0
M  V30 780 H 68.6968 -2.49174 0.653477 0
M  V30 781 H 68.6548 -2.97889 -1.00545 0
M  V30 782 N 72.4269 -1.23603 -0.977757 0
M  V30 783 C 73.6749 -1.06759 -1.71601 0
M  V30 784 C 73.9959 0.395929 -1.90938 0
M  V30 785 O 73.2659 1.28356 -1.47992 0
M  V30 786 H 71.8459 -0.392062 -0.635843 0
M  V30 787 H 74.5079 -1.55362 -1.1768 0
M  V30 788 H 73.6039 -1.55763 -2.70452 0
M  V30 789 N 73.905 1.17692 -1.04816 0
M  V30 790 C 75.153 1.87488 -0.754497 0
M  V30 791 C 75.474 1.81205 0.720407 0
M  V30 792 O 74.744 1.23544 1.52032 0
M  V30 793 H 73.324 0.694101 -0.276102 0
M  V30 794 H 75.986 1.42793 -1.32651 0
M  V30 795 H 75.082 2.93328 -1.06606 0
M  V30 796 N 75.3831 0.828654 1.34056 0
M  V30 797 C 76.2931 0.256725 2.33191 0
M  V30 798 C 77.3091 -0.611898 1.62886 0
M  V30 799 O 78.4851 -0.51844 1.94613 0
M  V30 800 C 75.5501 -0.567238 3.42028 0
M  V30 801 C 74.6111 0.324458 4.28072 0
M  V30 802 C 73.8441 -0.460274 5.31712 0
M  V30 803 O 74.0671 -1.693 5.44696 0
M  V30 804 O 73.0011 0.160391 6.01686 0
M  V30 805 H 76.8271 1.07739 2.83947 0
M  V30 806 H 74.4121 0.59093 1.37217 0
M  V30 807 H 76.2941 -1.03582 4.08471 0
M  V30 808 H 74.9691 -1.36513 2.93506 0
M  V30 809 H 73.8761 0.840659 3.64532 0
M  V30 810 H 75.2091 1.08685 4.8005 0
M  V30 811 N 76.8612 -1.46375 0.584142 0
M  V30 812 C 77.7712 -2.34115 -0.150728 0
M  V30 813 C 78.7872 -1.49838 -0.884567 0
M  V30 814 O 79.9632 -1.82704 -0.847429 0
M  V30 815 C 77.0282 -3.2705 -1.15062 0
M  V30 816 C 76.0892 -4.27228 -0.421293 0
M  V30 817 C 75.3222 -5.15722 -1.37355 0
M  V30 818 O 75.5452 -5.07176 -2.61014 0
M  V30 819 O 74.4792 -5.95383 -0.883355 0
M  V30 820 H 78.3052 -2.98309 0.569708 0
M  V30 821 H 75.8902 -1.45373 0.344535 0
M  V30 822 H 77.7722 -3.84381 -1.72712 0
M  V30 823 H 76.4472 -2.65451 -1.8525 0
M  V30 824 H 75.3542 -3.7358 0.197085 0
M  V30 825 H 76.6872 -4.91616 0.239641 0
M  V30 826 N 78.3393 -0.321999 -1.54275 0
M  V30 827 C 79.3023 0.531975 -2.22941 0
M  V30 828 C 80.3023 1.04478 -1.22234 0
M  V30 829 O 81.4923 0.937452 -1.46825 0
M  V30 830 C 78.6243 1.73874 -2.93224 0
M  V30 831 H 79.8173 -0.0682612 -2.99822 0
M  V30 832 H 77.3703 -0.0730644 -1.56129 0
M  V30 833 H 78.1053 2.37825 -2.20476 0
M  V30 834 H 77.8903 1.37847 -3.6707 0
M  V30 835 H 79.3803 2.34496 -3.45545 0
M  V30 836 N 79.8174 1.5752 -0.0501392 0
M  V30 837 C 80.7654 2.12651 0.942459 0
M  V30 838 C 81.7594 1.05807 1.32292 0
M  V30 839 O 82.9654 1.24217 1.3027 0
M  V30 840 H 79.3404 0.679673 0.321789 0
M  V30 841 H 81.3114 2.94951 0.452356 0
M  V30 842 C 80.0604 2.68565 2.20836 0
M  V30 843 H 79.3834 3.50439 1.92439 0
M  V30 844 H 80.8234 3.10761 2.8845 0
M  V30 845 C 79.2824 1.62291 2.95234 0
M  V30 846 O 79.8124 1.03508 3.88135 0
M  V30 847 N 78.0184 1.33836 2.57946 0
M  V30 848 H 77.5654 1.81826 1.82475 0
M  V30 849 H 77.5234 0.629595 3.08032 0
M  V30 850 N 81.2955 -0.223234 1.56011 0
M  V30 851 C 82.7065 -0.790368 1.69145 0
M  V30 852 C 83.0575 -1.85055 0.651845 0
M  V30 853 O 82.1825 -2.15498 -0.197359 0
M  V30 854 C 82.7775 -1.4404 3.06656 0
M  V30 855 C 81.3365 -1.95494 3.2165 0
M  V30 856 C 80.4835 -0.814506 2.65068 0
M  V30 857 H 83.4345 0.00139011 1.587 0
M  V30 858 H 83.4555 -2.30916 3.0242 0
M  V30 859 H 82.9675 -0.668543 3.82298 0
M  V30 860 H 81.0685 -2.75487 2.50874 0
M  V30 861 H 81.1815 -2.13607 4.28846 0
M  V30 862 H 79.5455 -1.22137 2.23505 0
M  V30 863 H 80.3285 -0.0553515 3.43255 0
M  V30 864 N 82.7736 -1.49793 -0.48987 0
M  V30 865 C 83.7236 -1.63673 -1.5873 0
M  V30 866 C 84.7076 -0.491956 -1.53195 0
M  V30 867 O 85.8996 -0.745461 -1.60536 0
M  V30 868 C 83.0286 -1.71689 -2.97284 0
M  V30 869 C 82.1146 -2.91781 -3.07774 0
M  V30 870 N 82.5056 -4.15714 -2.88124 0
M  V30 871 C 80.8036 -2.89949 -3.38889 0
M  V30 872 C 81.5046 -4.965 -3.03088 0
M  V30 873 N 80.4806 -4.30083 -3.3246 0
M  V30 874 H 84.2826 -2.57204 -1.42208 0
M  V30 875 H 81.7966 -1.46719 -0.69623 0
M  V30 876 H 83.7936 -1.79732 -3.76168 0
M  V30 877 H 82.4536 -0.793024 -3.14867 0
M  V30 878 H 83.4646 -4.45515 -2.64077 0
M  V30 879 H 80.1416 -2.06987 -3.62578 0
M  V30 880 H 81.5316 -6.04991 -2.92294 0
M  V30 881 N 84.2517 0.741722 -1.39055 0
M  V30 882 C 85.2147 1.83733 -1.37021 0
M  V30 883 C 86.2147 1.58542 -0.268534 0
M  V30 884 O 87.4047 1.66067 -0.526076 0
M  V30 885 C 84.5367 3.2141 -1.13617 0
M  V30 886 H 85.7297 1.86941 -2.34506 0
M  V30 887 H 83.2827 0.944676 -1.24521 0
M  V30 888 H 84.0177 3.23865 -0.167863 0
M  V30 889 H 83.8027 3.4109 -1.93391 0
M  V30 890 H 85.2927 4.01477 -1.14918 0
M  V30 891 N 85.7298 1.2412 0.971189 0
M  V30 892 C 86.9758 1.08041 1.71625 0
M  V30 893 C 87.3088 -0.380407 1.90438 0
M  V30 894 O 86.5838 -1.28127 1.46334 0
M  V30 895 C 86.8668 1.81682 3.10908 0
M  V30 896 C 86.7198 3.35493 2.99608 0
M  V30 897 C 88.0388 1.58671 4.10501 0
M  V30 898 H 85.1578 0.39388 0.622919 0
M  V30 899 H 87.7998 1.52743 1.13003 0
M  V30 900 H 85.9498 1.43684 3.60953 0
M  V30 901 H 87.6218 3.83068 2.57015 0
M  V30 902 H 85.8648 3.64052 2.35899 0
M  V30 903 H 86.5358 3.82217 3.98264 0
M  V30 904 H 89.0118 1.91719 3.69301 0
M  V30 905 H 87.8878 2.1266 5.06031 0
M  V30 906 H 88.1488 0.524161 4.38982 0
M  V30 907 N 87.2079 -1.17134 1.05439 0
M  V30 908 C 88.1549 -2.21235 0.657539 0
M  V30 909 C 89.1249 -1.62551 -0.341543 0
M  V30 910 O 90.3099 -1.89379 -0.232393 0
M  V30 911 C 87.4499 -3.45076 0.0410575 0
M  V30 912 C 86.5629 -4.18042 1.08927 0
M  V30 913 C 85.6979 -5.29376 0.439848 0
M  V30 914 C 84.7369 -5.94132 1.4722 0
M  V30 915 N 83.8739 -6.96975 0.846756 0
M  V30 916 H 88.7139 -2.54534 1.54972 0
M  V30 917 H 86.2509 -1.25028 0.775006 0
M  V30 918 H 88.2089 -4.15862 -0.33383 0
M  V30 919 H 86.8389 -3.12353 -0.814568 0
M  V30 920 H 85.8909 -3.45945 1.58196 0
M  V30 921 H 87.2029 -4.62306 1.87282 0
M  V30 922 H 86.3569 -6.06699 0.0115125 0
M  V30 923 H 85.0959 -4.86251 -0.375656 0
M  V30 924 H 84.1009 -5.15538 1.91052 0
M  V30 925 H 85.3259 -6.39337 2.28965 0
M  V30 926 H 83.2719 -6.5598 0.0518075 0
M  V30 927 H 83.1889 -7.39565 1.5678 0
M  V30 928 H 84.4569 -7.78239 0.443277 0
M  V30 929 N 88.686 -0.835752 -1.33615 0
M  V30 930 C 89.932 -0.430596 -1.98176 0
M  V30 931 C 90.265 1.00684 -1.66061 0
M  V30 932 O 89.54 1.70339 -0.938877 0
M  V30 933 C 89.823 -0.648065 -3.5422 0
M  V30 934 C 89.676 -2.13255 -3.96033 0
M  V30 935 C 90.995 -0.0922113 -4.40003 0
M  V30 936 H 88.114 -0.157924 -0.719881 0
M  V30 937 H 90.756 -1.05069 -1.58305 0
M  V30 938 H 88.906 -0.120237 -3.88314 0
M  V30 939 H 90.578 -2.725 -3.72211 0
M  V30 940 H 88.821 -2.61823 -3.45878 0
M  V30 941 H 89.492 -2.23547 -5.04708 0
M  V30 942 H 91.968 -0.543343 -4.12537 0
M  V30 943 H 90.844 -0.274083 -5.48215 0
M  V30 944 H 91.105 1.00378 -4.30554 0
M  V30 945 N 90.1641 1.46063 -0.591896 0
M  V30 946 C 91.0941 2.33172 0.123673 0
M  V30 947 C 92.0751 1.45897 0.87453 0
M  V30 948 O 93.2601 1.74698 0.848181 0
M  V30 949 C 90.3901 3.28336 1.13194 0
M  V30 950 C 89.3441 4.25124 0.495324 0
M  V30 951 C 88.6701 5.09863 1.61071 0
M  V30 952 C 89.9701 5.19143 -0.573425 0
M  V30 953 H 91.6641 2.93252 -0.603646 0
M  V30 954 H 89.2101 1.41014 -0.291741 0
M  V30 955 H 91.1631 3.88137 1.64097 0
M  V30 956 H 89.8871 2.66383 1.88965 0
M  V30 957 H 88.5461 3.66599 0.00729452 0
M  V30 958 H 88.1941 4.44288 2.35832 0
M  V30 959 H 87.8941 5.75417 1.19035 0
M  V30 960 H 89.4181 5.72529 2.12233 0
M  V30 961 H 90.8321 5.73106 -0.1491 0
M  V30 962 H 89.2291 5.93089 -0.914636 0
M  V30 963 H 90.2991 4.62519 -1.45617 0
M  V30 964 N 91.6422 0.330177 1.54103 0
M  V30 965 C 92.5892 -0.532762 2.24567 0
M  V30 966 C 93.5592 -1.10635 1.23892 0
M  V30 967 O 94.7442 -1.14546 1.5259 0
M  V30 968 C 91.8842 -1.6845 3.01195 0
M  V30 969 C 90.9972 -1.13951 4.167 0
M  V30 970 C 90.1322 -2.25746 4.80845 0
M  V30 971 C 89.1712 -1.6853 5.88442 0
M  V30 972 N 88.3082 -2.74014 6.46421 0
M  V30 973 H 93.1482 0.0746905 2.97906 0
M  V30 974 H 90.6852 0.048632 1.4702 0
M  V30 975 H 92.6432 -2.36234 3.43874 0
M  V30 976 H 91.2732 -2.26314 2.30178 0
M  V30 977 H 90.3252 -0.35301 3.78758 0
M  V30 978 H 91.6372 -0.680892 4.94131 0
M  V30 979 H 90.7912 -3.01422 5.26526 0
M  V30 980 H 89.5302 -2.74947 4.0281 0
M  V30 981 H 88.5352 -0.913543 5.42157 0
M  V30 982 H 89.7602 -1.20198 6.68378 0
M  V30 983 H 87.7062 -3.22494 5.71256 0
M  V30 984 H 87.6232 -2.32735 7.19285 0
M  V30 985 H 88.8912 -3.49499 6.96757 0
M  V30 986 N 93.1203 -1.57491 0.0584922 0
M  V30 987 C 94.0303 -2.15448 -0.928414 0
M  V30 988 C 95.0463 -1.11416 -1.3365 0
M  V30 989 O 96.2223 -1.4362 -1.41193 0
M  V30 990 C 93.2873 -2.69393 -2.18239 0
M  V30 991 C 92.3483 -3.88249 -1.83196 0
M  V30 992 C 91.5813 -4.39613 -3.02616 0
M  V30 993 O 91.8043 -3.90023 -4.16219 0
M  V30 994 O 90.7383 -5.31111 -2.83204 0
M  V30 995 H 94.5643 -3.00112 -0.465483 0
M  V30 996 H 92.1493 -1.48499 -0.163826 0
M  V30 997 H 94.0313 -3.04026 -2.91798 0
M  V30 998 H 92.7063 -1.87796 -2.63656 0
M  V30 999 H 91.6133 -3.58492 -1.06931 0
M  V30 1000 H 92.9463 -4.71098 -1.42573 0
M  V30 1001 N 94.5984 0.214957 -1.56127 0
M  V30 1002 C 95.5284 1.2695 -1.95974 0
M  V30 1003 C 96.5094 1.48539 -0.828868 0
M  V30 1004 O 97.6944 1.60611 -1.09168 0
M  V30 1005 C 94.8244 2.61794 -2.28214 0
M  V30 1006 C 93.7784 2.54851 -3.43853 0
M  V30 1007 C 93.1044 3.93785 -3.61715 0
M  V30 1008 C 94.4044 2.09065 -4.78632 0
M  V30 1009 H 96.0984 0.93846 -2.84312 0
M  V30 1010 H 93.6444 0.449996 -1.36788 0
M  V30 1011 H 95.5974 3.35731 -2.54682 0
M  V30 1012 H 94.3214 2.96599 -1.36736 0
M  V30 1013 H 92.9804 1.8337 -3.17444 0
M  V30 1014 H 92.6284 4.25908 -2.67602 0
M  V30 1015 H 92.3284 3.90019 -4.39498 0
M  V30 1016 H 93.8524 4.69374 -3.90539 0
M  V30 1017 H 95.2664 2.7275 -5.04262 0
M  V30 1018 H 93.6634 2.16346 -5.59745 0
M  V30 1019 H 94.7334 1.04315 -4.73547 0
M  V30 1020 N 96.0765 1.50051 0.48192 0
M  V30 1021 C 97.0065 1.71046 1.58951 0
M  V30 1022 C 97.9875 0.559288 1.60642 0
M  V30 1023 O 99.1725 0.797243 1.77081 0
M  V30 1024 C 96.3025 1.79462 2.97339 0
M  V30 1025 C 95.2565 2.94558 3.10515 0
M  V30 1026 C 94.5825 2.88105 4.50444 0
M  V30 1027 C 95.8825 4.35227 2.88747 0
M  V30 1028 H 97.5765 2.6378 1.41635 0
M  V30 1029 H 95.1225 1.26936 0.679942 0
M  V30 1030 H 97.0755 1.92734 3.74742 0
M  V30 1031 H 95.7995 0.833412 3.15788 0
M  V30 1032 H 94.4585 2.80918 2.35543 0
M  V30 1033 H 94.1065 1.89853 4.65795 0
M  V30 1034 H 93.8065 3.65366 4.60197 0
M  V30 1035 H 95.3305 3.03412 5.29881 0
M  V30 1036 H 96.7445 4.49449 3.55905 0
M  V30 1037 H 95.1415 5.13856 3.09955 0
M  V30 1038 H 96.2115 4.48347 1.84696 0
M  V30 1039 N 97.5546 -0.734337 1.39446 0
M  V30 1040 C 98.7796 -1.52866 1.40167 0
M  V30 1041 C 99.2046 -1.881 -0.00171513 0
M  V30 1042 O 98.5626 -1.51957 -0.988879 0
M  V30 1043 C 98.6106 -2.79235 2.28167 0
M  V30 1044 O 97.7146 -3.75185 1.71201 0
M  V30 1045 H 97.0556 -0.461618 0.477289 0
M  V30 1046 H 99.5856 -0.905949 1.8345 0
M  V30 1047 H 99.5956 -3.27963 2.42702 0
M  V30 1048 H 98.2706 -2.52923 3.30156 0
M  V30 1049 H 96.8476 -3.33958 1.65912 0
M  V30 1050 N 99.0327 -1.24633 -0.964593 0
M  V30 1051 C 100.281 -1.08573 -1.70459 0
M  V30 1052 C 100.602 0.375655 -1.91347 0
M  V30 1053 O 99.8717 1.26779 -1.49345 0
M  V30 1054 H 98.4517 -0.398784 -0.631649 0
M  V30 1055 H 101.114 -1.56601 -1.16026 0
M  V30 1056 H 100.21 -1.58623 -2.68785 0
M  V30 1057 N 100.511 1.16574 -1.06058 0
M  V30 1058 C 101.458 2.20883 -0.669263 0
M  V30 1059 C 102.428 1.62729 0.332918 0
M  V30 1060 O 103.613 1.895 0.222346 0
M  V30 1061 C 100.753 3.45049 -0.0593572 0
M  V30 1062 C 99.8658 4.17458 -1.11143 0
M  V30 1063 C 99.0008 5.29135 -0.467916 0
M  V30 1064 C 98.0398 5.93343 -1.50369 0
M  V30 1065 N 97.1768 6.96516 -0.883706 0
M  V30 1066 H 102.017 2.53709 -1.5632 0
M  V30 1067 H 99.5538 1.24616 -0.781625 0
M  V30 1068 H 101.512 4.16033 0.311771 0
M  V30 1069 H 100.142 3.12781 0.797992 0
M  V30 1070 H 99.1938 3.45101 -1.60029 0
M  V30 1071 H 100.506 4.61307 -1.89731 0
M  V30 1072 H 99.6598 6.06684 -0.0436871 0
M  V30 1073 H 98.3988 4.86443 0.349864 0
M  V30 1074 H 97.4038 5.14517 -1.93784 0
M  V30 1075 H 98.6288 6.38114 -2.32352 0
M  V30 1076 H 96.5748 6.55943 -0.086595 0
M  V30 1077 H 96.4918 7.38723 -1.607 0
M  V30 1078 H 97.7598 7.77993 -0.484543 0
M  V30 1079 N 101.989 0.842826 1.3317 0
M  V30 1080 C 102.921 0.236245 2.27979 0
M  V30 1081 C 103.934 -0.585282 1.51915 0
M  V30 1082 O 105.123 -0.411705 1.73687 0
M  V30 1083 C 102.223 -0.685717 3.3189 0
M  V30 1084 C 101.396 0.0973448 4.37292 0
M  V30 1085 C 100.455 -0.748565 5.20848 0
M  V30 1086 O 99.4809 -0.186339 5.68895 0
M  V30 1087 N 100.683 -2.06527 5.42519 0
M  V30 1088 H 103.448 1.05088 2.80672 0
M  V30 1089 H 101.009 0.701667 1.45905 0
M  V30 1090 H 103.001 -1.25669 3.84694 0
M  V30 1091 H 101.571 -1.40105 2.79445 0
M  V30 1092 H 100.791 0.849706 3.84933 0
M  V30 1093 H 102.079 0.635643 5.04814 0
M  V30 1094 H 101.477 -2.54554 5.05192 0
M  V30 1095 H 100.034 -2.58464 5.98364 0
M  V30 1096 N 103.467 -1.45747 0.599634 0
M  V30 1097 C 104.692 -2.07178 0.0960198 0
M  V30 1098 C 105.117 -1.44268 -1.207 0
M  V30 1099 O 104.475 -0.532503 -1.73303 0
M  V30 1100 C 104.523 -3.60579 -0.0385348 0
M  V30 1101 O 103.627 -3.97713 -1.0908 0
M  V30 1102 H 102.968 -0.660251 0.0704593 0
M  V30 1103 H 105.498 -1.87124 0.827385 0
M  V30 1104 H 105.508 -4.07298 -0.239304 0
M  V30 1105 H 104.183 -4.05756 0.912947 0
M  V30 1106 H 102.76 -3.62678 -0.867135 0
M  V30 1107 N 104.945 -0.338344 -1.53925 0
M  V30 1108 C 106.17 0.263987 -2.05713 0
M  V30 1109 C 106.595 1.43847 -1.21201 0
M  V30 1110 O 105.953 1.79904 -0.224535 0
M  V30 1111 C 106.001 0.662 -3.54471 0
M  V30 1112 O 105.105 1.76265 -3.72833 0
M  V30 1113 H 104.446 0.0448722 -0.662482 0
M  V30 1114 H 106.976 -0.491048 -1.9862 0
M  V30 1115 H 106.986 0.940594 -3.9701 0
M  V30 1116 H 105.661 -0.196937 -4.15433 0
M  V30 1117 H 104.238 1.48173 -3.42198 0
M  V30 1118 N 106.423 1.57458 -0.0668435 0
M  V30 1119 C 107.37 2.12439 0.902122 0
M  V30 1120 C 108.34 1.03565 1.2986 0
M  V30 1121 O 109.525 1.312 1.38532 0
M  V30 1122 C 106.665 2.6865 2.16614 0
M  V30 1123 C 105.778 3.91663 1.82274 0
M  V30 1124 C 104.913 4.36134 3.0325 0
M  V30 1125 C 103.952 5.51808 2.64904 0
M  V30 1126 N 103.089 5.9126 3.78624 0
M  V30 1127 H 107.929 2.94934 0.426382 0
M  V30 1128 H 105.466 1.4575 0.198819 0
M  V30 1129 H 107.424 2.99346 2.90599 0
M  V30 1130 H 106.054 1.88928 2.61737 0
M  V30 1131 H 105.106 3.6746 0.983719 0
M  V30 1132 H 106.418 4.75693 1.50059 0
M  V30 1133 H 105.572 4.68465 3.85519 0
M  V30 1134 H 104.311 3.50948 3.38655 0
M  V30 1135 H 103.316 5.19133 1.81055 0
M  V30 1136 H 104.541 6.38722 2.30675 0
M  V30 1137 H 102.487 5.09024 4.138 0
M  V30 1138 H 102.404 6.70018 3.5016 0
M  V30 1139 H 103.672 6.28212 4.61486 0
M  V30 1140 N 107.901 -0.206675 1.56239 0
M  V30 1141 C 108.848 -1.25617 1.93621 0
M  V30 1142 C 109.818 -1.45824 0.795274 0
M  V30 1143 O 111.003 -1.59148 1.05245 0
M  V30 1144 C 108.143 -2.59839 2.27107 0
M  V30 1145 C 107.256 -2.47308 3.54207 0
M  V30 1146 C 106.391 -3.74155 3.7707 0
M  V30 1147 C 105.43 -3.56407 4.97635 0
M  V30 1148 N 104.567 -4.75238 5.1681 0
M  V30 1149 H 109.407 -0.930383 2.83104 0
M  V30 1150 H 106.944 -0.448065 1.4011 0
M  V30 1151 H 108.902 -3.38021 2.44535 0
M  V30 1152 H 107.532 -2.90485 1.40778 0
M  V30 1153 H 106.584 -1.60483 3.4489 0
M  V30 1154 H 107.896 -2.30122 4.42544 0
M  V30 1155 H 107.05 -4.60778 3.94675 0
M  V30 1156 H 105.789 -3.94282 2.87042 0
M  V30 1157 H 104.794 -2.68168 4.79964 0
M  V30 1158 H 106.019 -3.37736 5.89161 0
M  V30 1159 H 103.965 -4.95651 4.29728 0
M  V30 1160 H 103.882 -4.60835 5.99306 0
M  V30 1161 H 105.15 -5.63246 5.38864 0
M  V30 1162 N 109.379 -1.50304 -0.473955 0
M  V30 1163 C 110.627 -1.60832 -1.22382 0
M  V30 1164 C 110.948 -0.30939 -1.9253 0
M  V30 1165 O 110.218 0.67296 -1.83978 0
M  V30 1166 H 108.798 -0.592652 -0.454723 0
M  V30 1167 H 111.46 -1.87068 -0.546968 0
M  V30 1168 H 110.556 -2.41803 -1.97327 0
M  V30 1169 N 110.857 0.726932 -1.39834 0
M  V30 1170 C 111.79 1.8501 -1.33592 0
M  V30 1171 C 112.768 1.61262 -0.208191 0
M  V30 1172 O 113.952 1.84422 -0.389981 0
M  V30 1173 C 111.079 3.21143 -1.07633 0
M  V30 1174 C 110.125 3.63737 -2.22705 0
M  V30 1175 S 110.958 3.72167 -3.85035 0
M  V30 1176 C 112.114 5.11077 -3.61318 0
M  V30 1177 H 112.347 1.90022 -2.28646 0
M  V30 1178 H 109.88 0.892595 -1.25985 0
M  V30 1179 H 111.838 3.99747 -0.933415 0
M  V30 1180 H 110.499 3.13776 -0.142526 0
M  V30 1181 H 109.692 4.62551 -2.00155 0
M  V30 1182 H 109.294 2.9236 -2.33242 0
M  V30 1183 H 111.586 5.97656 -3.19083 0
M  V30 1184 H 112.529 5.38658 -4.59623 0
M  V30 1185 H 112.937 4.81135 -2.95245 0
M  V30 1186 N 112.336 1.25143 0.95797 0
M  V30 1187 C 113.266 1.07711 2.07173 0
M  V30 1188 C 114.247 -0.0128462 1.70095 0
M  V30 1189 O 115.432 0.156061 1.93572 0
M  V30 1190 C 112.562 0.691503 3.40346 0
M  V30 1191 C 111.516 1.73132 3.9142 0
M  V30 1192 C 110.842 1.20049 5.21049 0
M  V30 1193 C 112.142 3.1294 4.1817 0
M  V30 1194 H 113.836 2.00873 2.22014 0
M  V30 1195 H 111.382 0.967191 1.06684 0
M  V30 1196 H 113.335 0.556505 4.17709 0
M  V30 1197 H 112.059 -0.275819 3.25433 0
M  V30 1198 H 110.718 1.8547 3.16222 0
M  V30 1199 H 110.366 0.223499 5.02503 0
M  V30 1200 H 110.066 1.89545 5.56189 0
M  V30 1201 H 111.59 1.07782 6.01012 0
M  V30 1202 H 113.004 3.03775 4.86203 0
M  V30 1203 H 111.401 3.79875 4.64559 0
M  V30 1204 H 112.471 3.6025 3.24573 0
M  V30 1205 N 113.814 -1.1601 1.06675 0
M  V30 1206 C 115.063 -1.85973 0.780818 0
M  V30 1207 C 115.376 -1.82819 -0.695444 0
M  V30 1208 O 116.582 -2.484 -1.09589 0
M  V30 1209 C 115.038 -3.33757 1.34665 0
M  V30 1210 C 114.646 -3.45374 2.85343 0
M  V30 1211 C 116.39 -4.0895 1.13843 0
M  V30 1212 C 114.297 -4.87266 3.35151 0
M  V30 1213 H 113.227 -0.696661 0.288407 0
M  V30 1214 H 115.878 -1.30903 1.28595 0
M  V30 1215 H 114.26 -3.88456 0.769274 0
M  V30 1216 H 115.434 -3.00816 3.49065 0
M  V30 1217 H 113.749 -2.83619 3.04876 0
M  V30 1218 H 116.346 -5.13654 1.4854 0
M  V30 1219 H 116.689 -4.16229 0.0770282 0
M  V30 1220 H 117.222 -3.605 1.68179 0
M  V30 1221 H 113.961 -4.85168 4.40786 0
M  V30 1222 H 113.481 -5.32433 2.76179 0
M  V30 1223 H 115.16 -5.56097 3.30704 0
M  V30 1224 N 115.292 -0.849877 -1.32721 0
M  V30 1225 C 116.517 -0.463856 -2.02146 0
M  V30 1226 C 116.942 0.930449 -1.63476 0
M  V30 1227 O 116.3 1.61033 -0.832952 0
M  V30 1228 C 116.348 -0.604955 -3.55489 0
M  V30 1229 O 115.452 0.36425 -4.10788 0
M  V30 1230 H 114.793 -0.187046 -0.637111 0
M  V30 1231 H 117.323 -1.14775 -1.69375 0
M  V30 1232 H 117.333 -0.490696 -4.05038 0
M  V30 1233 H 116.008 -1.62174 -3.82978 0
M  V30 1234 H 114.585 0.206628 -3.72327 0
M  V30 1235 N 116.77 1.45427 -0.607355 0
M  V30 1236 C 118.019 2.01452 -0.100036 0
M  V30 1237 C 118.332 1.48159 1.27704 0
M  V30 1238 O 119.538 1.96159 1.87707 0
M  V30 1239 C 117.994 3.59672 -0.128158 0
M  V30 1240 C 117.602 4.21962 -1.50507 0
M  V30 1241 C 119.346 4.23262 0.323932 0
M  V30 1242 C 117.253 5.72333 -1.48959 0
M  V30 1243 H 116.183 0.75325 -0.0336299 0
M  V30 1244 H 118.834 1.66901 -0.76265 0
M  V30 1245 H 117.216 3.91411 0.601105 0
M  V30 1246 H 118.39 4.01796 -2.25602 0
M  V30 1247 H 116.705 3.70565 -1.89923 0
M  V30 1248 H 119.302 5.33522 0.354691 0
M  V30 1249 H 119.645 3.93921 1.34656 0
M  V30 1250 H 120.178 3.96239 -0.352056 0
M  V30 1251 H 116.917 6.06373 -2.48981 0
M  V30 1252 H 116.437 5.94691 -0.781214 0
M  V30 1253 H 118.116 6.35525 -1.21313 0
M  V30 1254 N 118.248 0.346503 1.53744 0
M  V30 1255 C 119.496 -0.248612 2.00565 0
M  V30 1256 C 119.817 -1.5083 1.23593 0
M  V30 1257 O 119.087 -1.92858 0.343912 0
M  V30 1258 H 117.667 -0.0948564 0.740953 0
M  V30 1259 H 120.329 0.468341 1.89189 0
M  V30 1260 H 119.425 -0.488994 3.08245 0
M  V30 1261 N 119.726 -1.57421 0.075193 0
M  V30 1262 C 120.636 -2.1642 -0.905511 0
M  V30 1263 C 121.652 -1.12828 -1.32461 0
M  V30 1264 O 122.828 -1.45109 -1.39661 0
M  V30 1265 C 119.893 -2.71693 -2.15369 0
M  V30 1266 C 118.954 -3.90171 -1.79068 0
M  V30 1267 C 118.187 -4.42798 -2.97936 0
M  V30 1268 O 118.41 -3.94416 -4.12058 0
M  V30 1269 O 117.344 -5.34085 -2.77555 0
M  V30 1270 H 121.17 -3.00588 -0.433626 0
M  V30 1271 H 118.755 -1.48664 -0.148067 0
M  V30 1272 H 120.637 -3.07104 -2.88557 0
M  V30 1273 H 119.312 -1.90582 -2.61649 0
M  V30 1274 H 118.219 -3.59606 -1.03122 0
M  V30 1275 H 119.552 -4.72584 -1.37569 0
M  V30 1276 N 121.204 0.198386 -1.56346 0
M  V30 1277 C 122.151 1.24589 -1.94284 0
M  V30 1278 C 123.121 1.454 -0.802997 0
M  V30 1279 O 124.306 1.58588 -1.06087 0
M  V30 1280 C 121.446 2.58631 -2.28482 0
M  V30 1281 C 120.559 2.45426 -3.55514 0
M  V30 1282 C 119.694 3.7215 -3.79049 0
M  V30 1283 C 118.733 3.53763 -4.99518 0
M  V30 1284 N 117.87 4.72491 -5.19323 0
M  V30 1285 H 122.71 0.915356 -2.83593 0
M  V30 1286 H 120.247 0.440629 -1.40346 0
M  V30 1287 H 122.205 3.3672 -2.46324 0
M  V30 1288 H 120.835 2.89734 -1.42317 0
M  V30 1289 H 119.887 1.58652 -3.45737 0
M  V30 1290 H 121.199 2.27772 -4.43758 0
M  V30 1291 H 120.353 4.58679 -3.97113 0
M  V30 1292 H 119.092 3.92754 -2.89129 0
M  V30 1293 H 118.097 2.65619 -4.8138 0
M  V30 1294 H 119.322 3.34607 -5.90944 0
M  V30 1295 H 117.268 4.93365 -4.3235 0
M  V30 1296 H 117.185 4.5765 -6.01741 0
M  V30 1297 H 118.453 5.6038 -5.41843 0
M  V30 1298 N 122.682 1.50554 0.465978 0
M  V30 1299 C 123.93 1.61479 1.21528 0
M  V30 1300 C 124.251 0.319596 1.92363 0
M  V30 1301 O 123.521 -0.663194 1.84333 0
M  V30 1302 H 122.101 0.595055 0.451573 0
M  V30 1303 H 124.763 1.87355 0.53704 0
M  V30 1304 H 123.859 2.42846 1.96042 0
M  V30 1305 N 124.16 -0.719506 1.40217 0
M  V30 1306 C 125.437 -1.47221 1.28784 0
M  V30 1307 C 125.817 -2.10883 -0.0956067 0
M  V30 1308 O 125.165 -1.99833 -1.10811 0
M  V30 1309 C 125.375 -2.5111 2.42373 0
M  V30 1310 C 126.723 -3.17053 2.82423 0
M  V30 1311 O 127.747 -2.61429 2.41937 0
M  V30 1312 O 126.606 -4.17742 3.52355 0
M  V30 1313 H 123.7 -0.654491 0.50554 0
M  V30 1314 H 126.246 -0.752014 1.52128 0
M  V30 1315 H 125.018 -2.02556 3.34793 0
M  V30 1316 H 124.641 -3.3067 2.20778 0
M  V30 1317 N 125.638 -1.25649 -0.95132 0
M  V30 1318 C 126.585 -1.06323 -2.04851 0
M  V30 1319 C 127.555 0.0286491 -1.66075 0
M  V30 1320 O 128.74 -0.12917 -1.90362 0
M  V30 1321 C 125.88 -0.691529 -3.381 0
M  V30 1322 C 124.993 -1.85861 -3.89974 0
M  V30 1323 C 124.128 -1.43096 -5.11563 0
M  V30 1324 C 123.167 -2.56696 -5.55674 0
M  V30 1325 N 122.304 -2.14684 -6.68472 0
M  V30 1326 H 127.144 -2.00222 -2.20715 0
M  V30 1327 H 124.681 -0.997027 -1.08156 0
M  V30 1328 H 126.639 -0.456963 -4.1469 0
M  V30 1329 H 125.269 0.210474 -3.22113 0
M  V30 1330 H 124.321 -2.20639 -3.09875 0
M  V30 1331 H 125.633 -2.71161 -4.18657 0
M  V30 1332 H 124.787 -1.15624 -5.9558 0
M  V30 1333 H 123.526 -0.548722 -4.84603 0
M  V30 1334 H 122.531 -2.84909 -4.7022 0
M  V30 1335 H 123.756 -3.45503 -5.8464 0
M  V30 1336 H 121.702 -1.28881 -6.43215 0
M  V30 1337 H 121.619 -2.9353 -6.96689 0
M  V30 1338 H 122.887 -1.90397 -7.5589 0
M  V30 1339 N 127.117 1.15442 -1.07289 0
M  V30 1340 C 128.342 1.90638 -0.816828 0
M  V30 1341 C 128.767 1.77445 0.624083 0
M  V30 1342 O 128.125 1.10671 1.43602 0
M  V30 1343 C 128.173 3.39008 -1.22906 0
M  V30 1344 O 127.277 4.10701 -0.373975 0
M  V30 1345 H 126.618 0.593555 -0.297638 0
M  V30 1346 H 129.148 1.46198 -1.43134 0
M  V30 1347 H 129.158 3.89801 -1.20497 0
M  V30 1348 H 127.833 3.47929 -2.27856 0
M  V30 1349 H 126.41 3.70046 -0.460499 0
M  V30 1350 N 128.595 0.856903 1.32268 0
M  V30 1351 C 129.841 0.462069 1.97466 0
M  V30 1352 C 130.174 -0.980298 1.67642 0
M  V30 1353 O 129.449 -1.68824 0.965858 0
M  V30 1354 C 129.732 0.704336 3.53145 0
M  V30 1355 C 129.585 2.19529 3.9259 0
M  V30 1356 C 130.904 0.1622 4.39801 0
M  V30 1357 H 128.023 0.169357 0.717278 0
M  V30 1358 H 130.665 1.07574 1.56614 0
M  V30 1359 H 128.815 0.181999 3.88073 0
M  V30 1360 H 130.487 2.78387 3.67829 0
M  V30 1361 H 128.73 2.67292 3.41668 0
M  V30 1362 H 129.401 2.31549 5.01088 0
M  V30 1363 H 131.877 0.608905 4.11621 0
M  V30 1364 H 130.753 0.361265 5.4771 0
M  V30 1365 H 131.014 -0.935158 4.32096 0
M  V30 1366 N 130.073 -1.45103 0.615059 0
M  V30 1367 C 131.489 -1.57137 0.279322 0
M  V30 1368 C 131.689 -1.60523 -1.21797 0
M  V30 1369 O 130.745 -1.53956 -2.00134 0
M  V30 1370 C 132.058 -2.85062 0.957083 0
M  V30 1371 C 133.606 -2.98749 0.933706 0
M  V30 1372 C 134.081 -4.29455 1.59162 0
M  V30 1373 N 135.572 -4.36231 1.55746 0
M  V30 1374 C 136.307 -5.36051 2.0356 0
M  V30 1375 N 135.803 -6.42367 2.59494 0
M  V30 1376 N 137.596 -5.27456 1.94284 0
M  V30 1377 H 129.747 -1.41148 1.58717 0
M  V30 1378 H 132.01 -0.675331 0.665306 0
M  V30 1379 H 131.716 -2.88488 2.01166 0
M  V30 1380 H 131.59 -3.7407 0.48494 0
M  V30 1381 H 133.977 -2.94886 -0.112347 0
M  V30 1382 H 134.058 -2.11132 1.44419 0
M  V30 1383 H 133.702 -4.34077 2.63704 0
M  V30 1384 H 133.632 -5.15901 1.0561 0
M  V30 1385 H 136.123 -3.60011 1.14893 0
M  V30 1386 H 136.436 -7.14793 2.93752 0
M  V30 1387 H 134.781 -6.43097 2.63537 0
M  V30 1388 H 137.972 -4.43308 1.5032 0
M  V30 1389 H 138.145 -6.05099 2.3186 0
M  V30 1390 N 131.551 -0.354651 -1.53558 0
M  V30 1391 C 132.498 0.496968 -2.25386 0
M  V30 1392 C 133.468 1.0865 -1.25636 0
M  V30 1393 O 134.653 1.12104 -1.54394 0
M  V30 1394 C 131.793 1.63637 -3.03837 0
M  V30 1395 C 130.906 1.07307 -4.18461 0
M  V30 1396 C 130.041 2.18068 -4.84376 0
M  V30 1397 C 129.08 1.59147 -5.91049 0
M  V30 1398 N 128.217 2.63695 -6.50699 0
M  V30 1399 H 133.057 -0.122075 -2.9775 0
M  V30 1400 H 130.594 -0.0720154 -1.46924 0
M  V30 1401 H 132.552 2.30734 -3.47589 0
M  V30 1402 H 131.182 2.22623 -2.33749 0
M  V30 1403 H 130.234 0.292708 -3.79272 0
M  V30 1404 H 131.546 0.602193 -4.95152 0
M  V30 1405 H 130.7 2.93007 -5.31255 0
M  V30 1406 H 129.439 2.68504 -4.07133 0
M  V30 1407 H 128.444 0.827175 -5.43542 0
M  V30 1408 H 129.669 1.09549 -6.70206 0
M  V30 1409 H 127.615 3.13365 -5.76315 0
M  V30 1410 H 127.532 2.21263 -7.22896 0
M  V30 1411 H 128.8 3.3837 -7.02229 0
M  V30 1412 N 133.029 1.57378 -0.0835403 0
M  V30 1413 C 134.259 1.97975 0.590713 0
M  V30 1414 C 134.667 0.961083 1.62972 0
M  V30 1415 O 134.01 -0.0590879 1.83605 0
M  V30 1416 C 134.072 3.34915 1.3066 0
M  V30 1417 C 133.736 4.55069 0.419698 0
M  V30 1418 C 134.733 5.18868 -0.32749 0
M  V30 1419 C 132.418 5.0114 0.341137 0
M  V30 1420 C 134.412 6.27098 -1.14134 0
M  V30 1421 C 132.099 6.0924 -0.476374 0
M  V30 1422 C 133.097 6.72083 -1.21627 0
M  V30 1423 O 132.785 7.781 -2.02028 0
M  V30 1424 H 132.517 0.655818 0.163947 0
M  V30 1425 H 135.071 2.04807 -0.156021 0
M  V30 1426 H 133.301 3.24733 2.09966 0
M  V30 1427 H 134.99 3.60037 1.87424 0
M  V30 1428 H 135.756 4.84211 -0.276459 0
M  V30 1429 H 131.635 4.51996 0.90668 0
M  V30 1430 H 135.179 6.7608 -1.71935 0
M  V30 1431 H 131.076 6.43329 -0.528927 0
M  V30 1432 H 131.844 7.95034 -1.94586 0
M  V30 1433 N 134.507 -0.190092 1.56449 0
M  V30 1434 C 135.732 -0.929864 1.85387 0
M  V30 1435 C 136.157 -1.7585 0.667704 0
M  V30 1436 O 135.515 -1.77198 -0.383459 0
M  V30 1437 C 135.563 -1.79773 3.12593 0
M  V30 1438 O 134.667 -2.89713 2.93496 0
M  V30 1439 H 134.008 -0.261574 0.610307 0
M  V30 1440 H 136.538 -0.193896 2.03679 0
M  V30 1441 H 136.548 -2.20139 3.43515 0
M  V30 1442 H 135.223 -1.18892 3.98544 0
M  V30 1443 H 133.8 -2.53065 2.73884 0
M  V30 1444 N 135.985 -1.50799 -0.457987 0
M  V30 1445 C 137.401 -1.38515 -0.792819 0
M  V30 1446 C 137.601 -0.451409 -1.96379 0
M  V30 1447 O 136.657 0.10112 -2.52297 0
M  V30 1448 C 137.97 -2.80149 -1.09258 0
M  V30 1449 C 139.518 -2.89156 -1.19825 0
M  V30 1450 C 139.993 -4.31651 -1.53106 0
M  V30 1451 N 141.484 -4.34662 -1.60072 0
M  V30 1452 C 142.219 -5.41928 -1.87354 0
M  V30 1453 N 141.715 -6.59384 -2.12568 0
M  V30 1454 N 143.508 -5.29385 -1.88965 0
M  V30 1455 H 135.659 -2.10073 0.313511 0
M  V30 1456 H 137.922 -0.944803 0.0777862 0
M  V30 1457 H 137.628 -3.50374 -0.305084 0
M  V30 1458 H 137.502 -3.18204 -2.02549 0
M  V30 1459 H 139.889 -2.19141 -1.97639 0
M  V30 1460 H 139.97 -2.54626 -0.244821 0
M  V30 1461 H 139.614 -5.02208 -0.758266 0
M  V30 1462 H 139.544 -4.63678 -2.49621 0
M  V30 1463 H 142.035 -3.49973 -1.42573 0
M  V30 1464 H 142.348 -7.36934 -2.32696 0
M  V30 1465 H 140.693 -6.62535 -2.09933 0
M  V30 1466 H 143.884 -4.36616 -1.68772 0
M  V30 1467 H 144.057 -6.13066 -2.09891 0
M  V30 1468 N 137.463 0.71206 -1.40597 0
M  V30 1469 C 138.395 1.83704 -1.37061 0
M  V30 1470 C 139.408 1.60453 -0.275426 0
M  V30 1471 O 140.597 1.70262 -0.53602 0
M  V30 1472 C 137.697 3.20172 -1.11099 0
M  V30 1473 C 136.87 3.7059 -2.3234 0
M  V30 1474 C 135.929 4.85681 -2.02485 0
M  V30 1475 O 134.955 4.9815 -2.75382 0
M  V30 1476 N 136.157 5.71735 -1.00497 0
M  V30 1477 H 138.922 1.87235 -2.34016 0
M  V30 1478 H 136.483 0.893739 -1.34996 0
M  V30 1479 H 138.475 3.94768 -0.891064 0
M  V30 1480 H 137.045 3.11767 -0.227989 0
M  V30 1481 H 136.265 2.87085 -2.7014 0
M  V30 1482 H 137.553 4.01011 -3.13157 0
M  V30 1483 H 136.951 5.64275 -0.401298 0
M  V30 1484 H 135.508 6.463 -0.844942 0
M  V30 1485 N 138.941 1.26152 0.944643 0
M  V30 1486 C 140.19 1.10883 1.68487 0
M  V30 1487 C 140.503 -0.348153 1.92477 0
M  V30 1488 O 141.709 -0.621459 2.64292 0
M  V30 1489 C 140.165 1.93624 3.03377 0
M  V30 1490 C 139.773 3.43875 2.87148 0
M  V30 1491 C 141.517 1.86954 3.81115 0
M  V30 1492 C 139.424 4.18875 4.1749 0
M  V30 1493 H 138.354 0.41135 0.631907 0
M  V30 1494 H 141.005 1.50433 1.05082 0
M  V30 1495 H 139.387 1.46904 3.67743 0
M  V30 1496 H 140.561 3.98338 2.31653 0
M  V30 1497 H 138.876 3.51744 2.22856 0
M  V30 1498 H 141.473 2.40275 4.77673 0
M  V30 1499 H 141.816 0.839518 4.07747 0
M  V30 1500 H 142.349 2.31477 3.23517 0
M  V30 1501 H 139.088 5.22332 3.96043 0
M  V30 1502 H 138.608 3.69193 4.72712 0
M  V30 1503 H 140.287 4.27134 4.85968 0
M  V30 1504 N 140.419 -1.14872 1.07899 0
M  V30 1505 C 141.83 -1.67367 0.827363 0
M  V30 1506 C 142.181 -1.85236 -0.646693 0
M  V30 1507 O 141.306 -1.55974 -1.50004 0
M  V30 1508 C 141.901 -3.04016 1.49532 0
M  V30 1509 C 140.46 -3.53566 1.29106 0
M  V30 1510 C 139.607 -2.29161 1.56143 0
M  V30 1511 H 142.558 -0.990083 1.24028 0
M  V30 1512 H 142.579 -3.69219 0.919643 0
M  V30 1513 H 142.091 -2.90978 2.56814 0
M  V30 1514 H 140.192 -3.71835 0.238713 0
M  V30 1515 H 140.305 -4.34661 2.01511 0
M  V30 1516 H 138.669 -2.34978 0.982717 0
M  V30 1517 H 139.452 -2.18705 2.64619 0
M  V30 1518 N 141.898 -0.863906 -1.31812 0
M  V30 1519 C 143.175 -0.39275 -1.91616 0
M  V30 1520 C 143.555 1.12461 -1.7865 0
M  V30 1521 O 142.903 1.95045 -1.19037 0
M  V30 1522 C 143.113 -0.867385 -3.38049 0
M  V30 1523 C 144.461 -0.889966 -4.15168 0
M  V30 1524 O 145.485 -0.812635 -3.46806 0
M  V30 1525 O 144.344 -1.00079 -5.37258 0
M  V30 1526 H 141.438 -0.116358 -0.818773 0
M  V30 1527 H 143.984 -0.951418 -1.40521 0
M  V30 1528 H 142.756 -1.91081 -3.41473 0
M  V30 1529 H 142.379 -0.286687 -3.96565 0
M  V30 1530 N 143.376 1.44774 -0.622745 0
M  V30 1531 C 144.326 2.2774 0.108889 0
M  V30 1532 C 145.31 1.38189 0.824175 0
M  V30 1533 O 146.502 1.62063 0.711664 0
M  V30 1534 C 143.631 3.25353 1.09546 0
M  V30 1535 C 142.717 4.22392 0.380232 0
M  V30 1536 N 143.108 5.02388 -0.586535 0
M  V30 1537 C 141.406 4.41588 0.625792 0
M  V30 1538 C 142.107 5.72894 -1.00834 0
M  V30 1539 N 141.083 5.42479 -0.348878 0
M  V30 1540 H 144.885 2.86993 -0.63341 0
M  V30 1541 H 142.399 1.5611 -0.447589 0
M  V30 1542 H 144.396 3.83538 1.63414 0
M  V30 1543 H 143.056 2.6766 1.83815 0
M  V30 1544 H 144.067 5.0885 -0.963975 0
M  V30 1545 H 140.744 3.95003 1.352 0
M  V30 1546 H 142.134 6.47158 -1.80656 0
M  V30 1547 N 144.854 0.36279 1.53368 0
M  V30 1548 C 145.801 -0.485008 2.25646 0
M  V30 1549 C 146.771 -1.07982 1.2621 0
M  V30 1550 O 147.956 -1.11284 1.54986 0
M  V30 1551 C 145.096 -1.62023 3.04701 0
M  V30 1552 C 144.209 -1.05086 4.19024 0
M  V30 1553 C 143.344 -2.15496 4.85525 0
M  V30 1554 C 142.383 -1.5601 5.91884 0
M  V30 1555 N 141.52 -2.60241 6.52088 0
M  V30 1556 H 146.36 0.137864 2.97681 0
M  V30 1557 H 143.897 0.0798061 1.46883 0
M  V30 1558 H 145.855 -2.28887 3.48807 0
M  V30 1559 H 144.485 -2.2138 2.34927 0
M  V30 1560 H 143.537 -0.27259 3.79422 0
M  V30 1561 H 144.849 -0.575926 4.95464 0
M  V30 1562 H 144.003 -2.90186 5.32801 0
M  V30 1563 H 142.742 -2.66341 4.08551 0
M  V30 1564 H 141.747 -0.798338 5.43973 0
M  V30 1565 H 142.972 -1.05994 6.70777 0
M  V30 1566 H 140.918 -3.10304 5.77968 0
M  V30 1567 H 140.835 -2.17426 7.24059 0
M  V30 1568 H 142.103 -3.34641 7.04014 0
M  V30 1569 N 146.332 -1.57332 0.0918853 0
M  V30 1570 C 147.242 -2.17368 -0.882505 0
M  V30 1571 C 148.258 -1.14226 -1.31257 0
M  V30 1572 O 149.434 -1.46582 -1.38115 0
M  V30 1573 C 146.499 -2.73962 -2.12476 0
M  V30 1574 C 145.56 -3.92048 -1.7492 0
M  V30 1575 C 144.793 -4.45933 -2.93223 0
M  V30 1576 O 145.016 -3.98764 -4.07852 0
M  V30 1577 O 143.95 -5.36999 -2.71875 0
M  V30 1578 H 147.776 -3.01031 -0.40172 0
M  V30 1579 H 145.361 -1.48813 -0.132291 0
M  V30 1580 H 147.243 -3.10147 -2.85283 0
M  V30 1581 H 145.918 -1.93347 -2.59613 0
M  V30 1582 H 144.825 -3.6068 -0.993025 0
M  V30 1583 H 146.158 -4.74017 -1.32548 0
M  V30 1584 N 147.81 0.181792 -1.56548 0
M  V30 1585 C 149.058 0.89832 -1.81038 0
M  V30 1586 C 149.379 1.83232 -0.667164 0
M  V30 1587 O 148.649 1.93372 0.313673 0
M  V30 1588 H 147.229 0.33471 -0.667816 0
M  V30 1589 H 149.891 0.184116 -1.94028 0
M  V30 1590 H 148.987 1.4815 -2.74696 0
M  V30 1591 N 149.288 1.51039 0.449983 0
M  V30 1592 C 150.518 1.66627 1.22143 0
M  V30 1593 C 150.926 0.357776 1.85786 0
M  V30 1594 O 150.269 -0.672424 1.70951 0
M  V30 1595 C 150.331 2.71562 2.35573 0
M  V30 1596 C 149.995 4.14526 1.92399 0
M  V30 1597 C 150.992 4.99717 1.43453 0
M  V30 1598 C 148.677 4.60559 2.00475 0
M  V30 1599 C 150.671 6.28998 1.03155 0
M  V30 1600 C 148.358 5.8984 1.59788 0
M  V30 1601 C 149.356 6.73886 1.11208 0
M  V30 1602 O 149.044 8.0075 0.710935 0
M  V30 1603 H 148.776 0.562635 0.374724 0
M  V30 1604 H 151.33 1.98146 0.541036 0
M  V30 1605 H 149.56 2.3533 3.06849 0
M  V30 1606 H 151.249 2.76156 2.97478 0
M  V30 1607 H 152.015 4.65361 1.36618 0
M  V30 1608 H 147.894 3.95273 2.37235 0
M  V30 1609 H 151.438 6.9455 0.651663 0
M  V30 1610 H 147.335 6.23713 1.66289 0
M  V30 1611 H 148.103 8.142 0.837913 0
M  V30 1612 N 150.766 -0.704594 1.40972 0
M  V30 1613 C 151.996 -1.49138 1.42974 0
M  V30 1614 C 152.404 -1.89175 0.0308406 0
M  V30 1615 O 151.747 -1.56734 -0.958138 0
M  V30 1616 C 151.809 -2.79016 2.26694 0
M  V30 1617 C 151.473 -2.61236 3.74973 0
M  V30 1618 C 152.47 -2.27773 4.67349 0
M  V30 1619 C 150.155 -2.77158 4.18914 0
M  V30 1620 C 152.149 -2.10457 6.01653 0
M  V30 1621 C 149.836 -2.59459 5.53285 0
M  V30 1622 C 150.834 -2.26158 6.4447 0
M  V30 1623 O 150.522 -2.08605 7.76363 0
M  V30 1624 H 150.254 -0.466443 0.489292 0
M  V30 1625 H 152.808 -0.8758 1.85793 0
M  V30 1626 H 151.038 -3.42947 1.78673 0
M  V30 1627 H 152.727 -3.40782 2.20504 0
M  V30 1628 H 153.493 -2.15095 4.34694 0
M  V30 1629 H 149.372 -3.02064 3.48251 0
M  V30 1630 H 152.916 -1.84387 6.72791 0
M  V30 1631 H 148.813 -2.71725 5.85522 0
M  V30 1632 H 149.581 -2.23439 7.87412 0
M  V30 1633 N 152.244 -1.26651 -0.937939 0
M  V30 1634 C 153.174 -1.10993 -2.05433 0
M  V30 1635 C 154.155 -0.0142161 -1.70094 0
M  V30 1636 O 155.34 -0.186837 -1.93299 0
M  V30 1637 C 152.47 -0.745561 -3.39203 0
M  V30 1638 C 151.424 -1.79337 -3.88616 0
M  V30 1639 C 150.75 -1.28324 -5.19073 0
M  V30 1640 C 152.05 -3.19553 -4.13138 0
M  V30 1641 H 153.744 -2.0438 -2.1879 0
M  V30 1642 H 151.29 -0.984041 -1.05131 0
M  V30 1643 H 153.243 -0.622888 -4.16771 0
M  V30 1644 H 151.967 0.22401 -3.25831 0
M  V30 1645 H 150.626 -1.90477 -3.13231 0
M  V30 1646 H 150.274 -0.303414 -5.02084 0
M  V30 1647 H 149.974 -1.98369 -5.53103 0
M  V30 1648 H 151.498 -1.1733 -5.99221 0
M  V30 1649 H 152.912 -3.11471 -4.81309 0
M  V30 1650 H 151.309 -3.87218 -4.58457 0
M  V30 1651 H 152.379 -3.65368 -3.18801 0
M  V30 1652 N 153.722 1.14298 -1.08507 0
M  V30 1653 C 154.947 1.8976 -0.837001 0
M  V30 1654 C 155.372 1.78097 0.605228 0
M  V30 1655 O 154.73 1.12188 1.4242 0
M  V30 1656 C 154.778 3.37685 -1.26495 0
M  V30 1657 O 153.882 4.10281 -0.417514 0
M  V30 1658 H 153.223 0.590365 -0.303917 0
M  V30 1659 H 155.753 1.44672 -1.44676 0
M  V30 1660 H 155.763 3.88501 -1.24625 0
M  V30 1661 H 154.438 3.45492 -2.31534 0
M  V30 1662 H 153.015 3.69536 -0.499722 0
M  V30 1663 N 155.201 0.870884 1.31352 0
M  V30 1664 C 156.447 0.482987 1.96965 0
M  V30 1665 C 156.78 -0.962462 1.68672 0
M  V30 1666 O 156.055 -1.6779 0.98371 0
M  V30 1667 C 156.338 0.741752 3.52378 0
M  V30 1668 C 156.191 2.2368 3.9024 0
M  V30 1669 C 157.51 0.208838 4.39604 0
M  V30 1670 H 154.629 0.176955 0.715441 0
M  V30 1671 H 157.271 1.09229 1.55464 0
M  V30 1672 H 155.421 0.223149 3.87859 0
M  V30 1673 H 157.093 2.82273 3.64856 0
M  V30 1674 H 155.336 2.70901 3.38814 0
M  V30 1675 H 156.007 2.3685 4.98604 0
M  V30 1676 H 158.483 0.652529 4.10952 0
M  V30 1677 H 157.359 0.419336 5.47296 0
M  V30 1678 H 157.62 -0.889275 4.33064 0
M  V30 1679 N 156.679 -1.44442 0.630414 0
M  V30 1680 C 157.627 -2.32437 -0.0871428 0
M  V30 1681 C 158.621 -1.47304 -0.836525 0
M  V30 1682 O 159.827 -1.63653 -0.749506 0
M  V30 1683 H 156.202 -0.750533 -0.0469495 0
M  V30 1684 H 158.173 -2.90709 0.673096 0
M  V30 1685 C 156.922 -3.31288 -1.05563 0
M  V30 1686 H 156.245 -3.96805 -0.488426 0
M  V30 1687 H 157.685 -3.9554 -1.52721 0
M  V30 1688 C 156.144 -2.6016 -2.14052 0
M  V30 1689 O 156.674 -2.39997 -3.22124 0
M  V30 1690 N 154.88 -2.19911 -1.89967 0
M  V30 1691 H 154.427 -2.36509 -1.02085 0
M  V30 1692 H 154.385 -1.72646 -2.62756 0
M  V30 1693 N 158.157 -0.370918 -1.53173 0
M  V30 1694 C 159.067 0.480823 -2.2962 0
M  V30 1695 C 160.083 1.08789 -1.35798 0
M  V30 1696 O 161.259 1.09768 -1.68858 0
M  V30 1697 C 158.324 1.60227 -3.07454 0
M  V30 1698 C 157.385 1.0222 -4.16953 0
M  V30 1699 C 156.618 2.0902 -4.91066 0
M  V30 1700 O 156.841 3.30222 -4.65091 0
M  V30 1701 O 155.775 1.71778 -5.76867 0
M  V30 1702 H 159.601 -0.141421 -3.03371 0
M  V30 1703 H 157.186 -0.135146 -1.48787 0
M  V30 1704 H 159.068 2.25417 -3.56041 0
M  V30 1705 H 157.743 2.20982 -2.36535 0
M  V30 1706 H 156.65 0.334064 -3.72605 0
M  V30 1707 H 157.983 0.459131 -4.90054 0
M  V30 1708 N 159.635 1.57281 -0.100228 0
M  V30 1709 C 160.582 2.14305 0.856858 0
M  V30 1710 C 161.552 1.06296 1.27634 0
M  V30 1711 O 162.737 1.34109 1.35718 0
M  V30 1712 C 159.877 2.73184 2.10866 0
M  V30 1713 C 158.99 3.95442 1.73925 0
M  V30 1714 C 158.125 4.42468 2.93931 0
M  V30 1715 C 157.164 5.57303 2.5314 0
M  V30 1716 N 156.301 5.99158 3.65997 0
M  V30 1717 H 161.141 2.95772 0.363726 0
M  V30 1718 H 158.678 1.46139 0.167858 0
M  V30 1719 H 160.636 3.05442 2.84185 0
M  V30 1720 H 159.266 1.94437 2.57671 0
M  V30 1721 H 158.318 3.69464 0.905554 0
M  V30 1722 H 159.63 4.78769 1.39935 0
M  V30 1723 H 158.784 4.76537 3.75496 0
M  V30 1724 H 157.523 3.58052 3.31134 0
M  V30 1725 H 156.528 5.22857 1.70003 0
M  V30 1726 H 157.753 6.43471 2.17075 0
M  V30 1727 H 155.699 5.17687 4.02909 0
M  V30 1728 H 155.616 6.77295 3.35869 0
M  V30 1729 H 156.884 6.3786 4.48057 0
M  V30 1730 N 161.113 -0.173488 1.56642 0
M  V30 1731 C 162.023 -1.23482 1.99473 0
M  V30 1732 C 163.039 -1.48567 0.905752 0
M  V30 1733 O 164.215 -1.60758 1.21321 0
M  V30 1734 C 161.28 -2.55444 2.34413 0
M  V30 1735 C 160.341 -2.38241 3.57127 0
M  V30 1736 C 159.574 -3.63909 3.90392 0
M  V30 1737 O 159.797 -4.68996 3.24653 0
M  V30 1738 O 158.731 -3.58149 4.83749 0
M  V30 1739 H 162.557 -0.901279 2.90018 0
M  V30 1740 H 160.142 -0.380185 1.44482 0
M  V30 1741 H 162.024 -3.33292 2.57865 0
M  V30 1742 H 160.699 -2.88382 1.4703 0
M  V30 1743 H 159.606 -1.58431 3.38896 0
M  V30 1744 H 160.939 -2.10228 4.45045 0
M  V30 1745 N 162.591 -1.51276 -0.441967 0
M  V30 1746 C 163.84 -1.6295 -1.18871 0
M  V30 1747 C 164.153 -0.349312 -1.92456 0
M  V30 1748 O 165.359 -0.345355 -2.69295 0
M  V30 1749 C 163.815 -2.87759 -2.16155 0
M  V30 1750 C 163.423 -4.22764 -1.48239 0
M  V30 1751 C 165.167 -3.08788 -2.91291 0
M  V30 1752 C 163.074 -5.38728 -2.4398 0
M  V30 1753 H 162.004 -0.606913 -0.447406 0
M  V30 1754 H 164.655 -1.77739 -0.456205 0
M  V30 1755 H 163.037 -2.66593 -2.92821 0
M  V30 1756 H 164.211 -4.54293 -0.771635 0
M  V30 1757 H 162.526 -4.07575 -0.852741 0
M  V30 1758 H 165.123 -3.92599 -3.63002 0
M  V30 1759 H 165.466 -2.21679 -3.5237 0
M  V30 1760 H 165.999 -3.30272 -2.21733 0
M  V30 1761 H 162.738 -6.28082 -1.87598 0
M  V30 1762 H 162.258 -5.1158 -3.13123 0
M  V30 1763 H 163.937 -5.70489 -3.05207 0
M  V30 1764 N 164.069 0.697108 -1.41344 0
M  V30 1765 C 165.315 1.4593 -1.40827 0
M  V30 1766 C 165.648 1.94193 -0.0167098 0
M  V30 1767 O 164.923 1.69425 0.955263 0
M  V30 1768 C 165.206 2.67229 -2.41373 0
M  V30 1769 C 165.059 2.24741 -3.8963 0
M  V30 1770 C 166.378 3.69423 -2.39196 0
M  V30 1771 H 163.497 0.529303 -0.512842 0
M  V30 1772 H 166.139 0.794112 -1.72609 0
M  V30 1773 H 164.289 3.23982 -2.14401 0
M  V30 1774 H 165.961 1.73327 -4.27499 0
M  V30 1775 H 164.204 1.56542 -4.0457 0
M  V30 1776 H 164.875 3.1177 -4.55525 0
M  V30 1777 H 167.351 3.2234 -2.63128 0
M  V30 1778 H 166.227 4.51907 -3.11563 0
M  V30 1779 H 166.488 4.19012 -1.41001 0
M  V30 1780 N 165.547 1.27147 0.931209 0
M  V30 1781 C 166.477 1.12081 2.04842 0
M  V30 1782 C 167.458 0.0232364 1.70084 0
M  V30 1783 O 168.643 0.197085 1.93197 0
M  V30 1784 C 165.773 0.76354 3.38803 0
M  V30 1785 C 164.727 1.81396 3.87659 0
M  V30 1786 C 164.053 1.31075 5.18385 0
M  V30 1787 C 165.353 3.21739 4.11438 0
M  V30 1788 H 167.047 2.05537 2.17703 0
M  V30 1789 H 164.593 0.989603 1.04608 0
M  V30 1790 H 166.546 0.644982 4.16435 0
M  V30 1791 H 165.27 -0.206727 3.25945 0
M  V30 1792 H 163.929 1.92136 3.12217 0
M  V30 1793 H 163.577 0.330037 5.01916 0
M  V30 1794 H 163.277 2.013 5.52044 0
M  V30 1795 H 164.801 1.20506 5.98591 0
M  V30 1796 H 166.215 3.14019 4.79651 0
M  V30 1797 H 164.612 3.89644 4.56397 0
M  V30 1798 H 165.682 3.67054 3.16859 0
M  V30 1799 N 167.025 -1.13721 1.09112 0
M  V30 1800 C 167.988 -2.17222 0.731241 0
M  V30 1801 C 168.988 -1.59035 -0.237566 0
M  V30 1802 O 170.178 -1.74192 -0.0161704 0
M  V30 1803 C 167.31 -3.40804 0.0808443 0
M  V30 1804 H 168.503 -2.50573 1.64783 0
M  V30 1805 H 166.056 -1.28493 0.889897 0
M  V30 1806 H 166.791 -3.1304 -0.847127 0
M  V30 1807 H 166.576 -3.84306 0.777896 0
M  V30 1808 H 168.066 -4.1731 -0.155657 0
M  V30 1809 N 168.503 -0.877838 -1.30888 0
M  V30 1810 C 169.751 -0.491723 -1.96027 0
M  V30 1811 C 170.072 0.960827 -1.69685 0
M  V30 1812 O 169.342 1.67462 -1.01654 0
M  V30 1813 H 167.922 -0.17885 -0.725273 0
M  V30 1814 H 170.584 -1.11935 -1.59551 0
M  V30 1815 H 169.68 -0.656016 -3.05128 0
M  V30 1816 N 169.982 1.44106 -0.638065 0
M  V30 1817 C 170.93 2.3248 0.0748149 0
M  V30 1818 C 171.924 1.47746 0.828702 0
M  V30 1819 O 173.13 1.64049 0.740816 0
M  V30 1820 H 169.505 0.750771 0.0429686 0
M  V30 1821 H 171.476 2.90348 -0.688504 0
M  V30 1822 C 170.225 3.31843 1.03805 0
M  V30 1823 H 169.548 3.97059 0.467375 0
M  V30 1824 H 170.988 3.96345 1.50622 0
M  V30 1825 C 169.447 2.61291 2.1267 0
M  V30 1826 O 169.977 2.41702 3.20847 0
M  V30 1827 N 168.183 2.20915 1.88798 0
M  V30 1828 H 167.73 2.37047 1.00829 0
M  V30 1829 H 167.688 1.74038 2.61836 0
M  V30 1830 N 171.46 0.379036 1.52974 0
M  V30 1831 C 172.737 -0.263479 1.93817 0
M  V30 1832 C 173.117 -1.65244 1.31368 0
M  V30 1833 O 172.465 -2.23448 0.477856 0
M  V30 1834 C 172.675 -0.300166 3.47707 0
M  V30 1835 C 174.023 -0.534061 4.21228 0
M  V30 1836 O 175.047 -0.38081 3.54159 0
M  V30 1837 O 173.906 -0.833501 5.40106 0
M  V30 1838 H 171 -0.161149 0.811147 0
M  V30 1839 H 173.546 0.432798 1.64088 0
M  V30 1840 H 172.318 0.673138 3.85467 0
M  V30 1841 H 171.941 -1.04179 3.83709 0
M  V30 1842 N 172.938 -1.57226 0.108567 0
M  V30 1843 C 173.848 -2.18292 -0.859401 0
M  V30 1844 C 174.864 -1.15612 -1.30038 0
M  V30 1845 O 176.04 -1.48039 -1.36552 0
M  V30 1846 C 173.105 -2.762 -2.09558 0
M  V30 1847 C 172.166 -3.93881 -1.70752 0
M  V30 1848 C 171.399 -4.49018 -2.88477 0
M  V30 1849 O 171.622 -4.03068 -4.036 0
M  V30 1850 O 170.556 -5.39852 -2.66164 0
M  V30 1851 H 174.382 -3.01441 -0.369769 0
M  V30 1852 H 171.967 -1.48945 -0.1165 0
M  V30 1853 H 173.849 -3.13156 -2.81978 0
M  V30 1854 H 172.524 -1.96089 -2.57548 0
M  V30 1855 H 171.431 -3.61713 -0.954714 0
M  V30 1856 H 172.764 -4.75396 -1.27513 0
M  V30 1857 N 174.416 0.165178 -1.56732 0
M  V30 1858 C 175.832 0.517174 -1.50988 0
M  V30 1859 C 176.032 1.84331 -0.813894 0
M  V30 1860 O 175.088 2.49672 -0.37682 0
M  V30 1861 C 176.401 0.544261 -2.95733 0
M  V30 1862 C 177.949 0.631039 -3.06573 0
M  V30 1863 C 178.424 0.68896 -4.52788 0
M  V30 1864 N 179.915 0.751683 -4.5706 0
M  V30 1865 C 180.65 0.817177 -5.67547 0
M  V30 1866 N 180.146 0.843129 -6.8765 0
M  V30 1867 N 181.939 0.856668 -5.55534 0
M  V30 1868 H 174.09 -0.704318 -2.00382 0
M  V30 1869 H 176.353 -0.254687 -0.913148 0
M  V30 1870 H 176.059 -0.361607 -3.49836 0
M  V30 1871 H 175.933 1.3886 -3.5071 0
M  V30 1872 H 178.32 1.52733 -2.52501 0
M  V30 1873 H 178.401 -0.240095 -2.54671 0
M  V30 1874 H 178.045 -0.2031 -5.07494 0
M  V30 1875 H 177.975 1.57633 -5.02454 0
M  V30 1876 H 180.466 0.739661 -3.70591 0
M  V30 1877 H 180.779 0.894448 -7.67606 0
M  V30 1878 H 179.124 0.811304 -6.90248 0
M  V30 1879 H 182.315 0.833437 -4.60621 0
M  V30 1880 H 182.488 0.904247 -6.4166 0
M  V30 1881 N 175.894 1.51508 0.433938 0
M  V30 1882 C 177.142 1.6402 1.18075 0
M  V30 1883 C 177.463 0.360328 1.91642 0
M  V30 1884 O 176.733 -0.623945 1.85698 0
M  V30 1885 H 175.313 0.6045 0.43885 0
M  V30 1886 H 177.975 1.88452 0.497178 0
M  V30 1887 H 177.071 2.46949 1.90847 0
M  V30 1888 N 177.372 -0.689602 1.41712 0
M  V30 1889 C 178.6 -1.47827 1.44758 0
M  V30 1890 C 179.015 -1.88721 0.0545703 0
M  V30 1891 O 178.372 -1.57176 -0.927463 0
M  V30 1892 C 178.423 -2.73698 2.3616 0
M  V30 1893 O 178.144 -2.34524 3.7004 0
M  V30 1894 C 179.645 -3.67389 2.48072 0
M  V30 1895 H 176.865 -0.455357 0.49284 0
M  V30 1896 H 179.409 -0.848574 1.86063 0
M  V30 1897 H 177.564 -3.32891 1.98148 0
M  V30 1898 H 177.978 -3.15701 4.18847 0
M  V30 1899 H 179.452 -4.52475 3.16181 0
M  V30 1900 H 179.929 -4.12284 1.51388 0
M  V30 1901 H 180.535 -3.14097 2.86746 0
M  V30 1902 N 178.85 -1.27639 -0.924453 0
M  V30 1903 C 180.08 -1.16819 -1.70402 0
M  V30 1904 C 180.488 0.277191 -1.87158 0
M  V30 1905 O 179.831 1.20025 -1.39067 0
M  V30 1906 C 179.893 -1.78305 -3.12166 0
M  V30 1907 C 179.557 -3.27502 -3.18734 0
M  V30 1908 C 180.554 -4.2409 -3.00738 0
M  V30 1909 C 178.239 -3.68269 -3.4159 0
M  V30 1910 C 180.233 -5.59422 -3.05492 0
M  V30 1911 C 177.92 -5.0373 -3.45977 0
M  V30 1912 C 178.918 -5.99116 -3.27946 0
M  V30 1913 O 178.606 -7.32108 -3.32074 0
M  V30 1914 H 178.338 -0.406931 -0.539799 0
M  V30 1915 H 180.892 -1.69078 -1.16626 0
M  V30 1916 H 179.122 -1.20528 -3.67437 0
M  V30 1917 H 180.811 -1.62154 -3.72103 0
M  V30 1918 H 181.577 -3.93931 -2.82919 0
M  V30 1919 H 177.456 -2.94496 -3.54673 0
M  V30 1920 H 181 -6.33852 -2.91337 0
M  V30 1921 H 176.897 -5.33543 -3.63321 0
M  V30 1922 H 177.665 -7.40598 -3.48507 0
M  V30 1923 N 180.328 1.1314 -1.09713 0
M  V30 1924 C 181.558 1.88048 -0.855656 0
M  V30 1925 C 181.966 1.79537 0.596919 0
M  V30 1926 O 181.309 1.16196 1.42282 0
M  V30 1927 C 181.371 3.38314 -1.21589 0
M  V30 1928 C 181.035 3.70605 -2.67397 0
M  V30 1929 C 182.032 3.69596 -3.65643 0
M  V30 1930 C 179.717 4.0017 -3.03593 0
M  V30 1931 C 181.711 3.977 -4.9811 0
M  V30 1932 C 179.398 4.27935 -4.36251 0
M  V30 1933 C 180.396 4.26685 -5.33318 0
M  V30 1934 O 180.084 4.53767 -6.63589 0
M  V30 1935 H 179.816 0.60208 -0.307368 0
M  V30 1936 H 182.37 1.44128 -1.46343 0
M  V30 1937 H 180.6 3.82752 -0.551177 0
M  V30 1938 H 182.289 3.94552 -0.953083 0
M  V30 1939 H 183.055 3.46826 -3.39023 0
M  V30 1940 H 178.934 4.00289 -2.2867 0
M  V30 1941 H 182.478 3.9664 -5.73866 0
M  V30 1942 H 178.375 4.50178 -4.62613 0
M  V30 1943 H 179.143 4.71422 -6.69107 0
M  V30 1944 N 181.806 0.884767 1.30421 0
M  V30 1945 C 182.769 0.356277 2.26414 0
M  V30 1946 C 183.769 -0.501124 1.52792 0
M  V30 1947 O 184.959 -0.30831 1.7145 0
M  V30 1948 C 182.091 -0.492316 3.37326 0
M  V30 1949 H 183.284 1.20389 2.74675 0
M  V30 1950 H 180.837 0.661607 1.41607 0
M  V30 1951 H 181.572 -1.36052 2.94381 0
M  V30 1952 H 181.357 0.121832 3.91911 0
M  V30 1953 H 182.847 -0.853871 4.08777 0
M  V30 1954 N 183.284 -1.43765 0.645699 0
M  V30 1955 C 184.214 -2.33471 -0.0370477 0
M  V30 1956 C 185.195 -1.49042 -0.819779 0
M  V30 1957 O 186.38 -1.77726 -0.782758 0
M  V30 1958 C 183.51 -3.32311 -1.0093 0
M  V30 1959 C 182.464 -4.2667 -0.337201 0
M  V30 1960 C 181.79 -5.1549 -1.42037 0
M  V30 1961 C 183.09 -5.16657 0.765706 0
M  V30 1962 H 184.784 -2.90809 0.712069 0
M  V30 1963 H 182.33 -1.39834 0.343876 0
M  V30 1964 H 184.283 -3.9396 -1.49578 0
M  V30 1965 H 183.007 -2.73213 -1.78948 0
M  V30 1966 H 181.666 -3.66374 0.128771 0
M  V30 1967 H 181.314 -4.52735 -2.1918 0
M  V30 1968 H 181.014 -5.79438 -0.975966 0
M  V30 1969 H 182.538 -5.80012 -1.90838 0
M  V30 1970 H 183.952 -5.72158 0.361702 0
M  V30 1971 H 182.349 -5.89286 1.13413 0
M  V30 1972 H 183.419 -4.56796 1.62683 0
M  V30 1973 N 184.763 -0.387143 -1.52771 0
M  V30 1974 C 185.695 0.484089 -2.2403 0
M  V30 1975 C 186.708 1.02849 -1.26198 0
M  V30 1976 O 187.897 0.931186 -1.52286 0
M  V30 1977 C 184.997 1.68337 -2.94136 0
M  V30 1978 C 184.17 1.26672 -4.18656 0
M  V30 1979 C 183.229 2.33045 -4.7178 0
M  V30 1980 O 182.255 1.94541 -5.34923 0
M  V30 1981 N 183.457 3.64929 -4.5145 0
M  V30 1982 H 186.222 -0.126404 -2.99433 0
M  V30 1983 H 183.783 -0.213392 -1.60488 0
M  V30 1984 H 185.775 2.39019 -3.26577 0
M  V30 1985 H 184.345 2.20025 -2.22053 0
M  V30 1986 H 183.565 0.388878 -3.92277 0
M  V30 1987 H 184.853 0.964964 -4.99566 0
M  V30 1988 H 184.251 3.98974 -4.01044 0
M  V30 1989 H 182.808 4.31651 -4.88386 0
M  V30 1990 N 186.241 1.57166 -0.116904 0
M  V30 1991 C 187.469 1.99473 0.549383 0
M  V30 1992 C 187.884 0.996541 1.60357 0
M  V30 1993 O 187.241 -0.0108731 1.82497 0
M  V30 1994 C 187.292 3.41788 1.17741 0
M  V30 1995 O 187.013 4.37788 0.165362 0
M  V30 1996 C 188.514 3.99216 1.92722 0
M  V30 1997 H 185.734 0.655009 0.145616 0
M  V30 1998 H 188.278 2.03494 -0.202625 0
M  V30 1999 H 186.433 3.38713 1.88021 0
M  V30 2000 H 186.847 5.20806 0.621403 0
M  V30 2001 H 188.321 5.00882 2.31995 0
M  V30 2002 H 188.798 3.3824 2.80161 0
M  V30 2003 H 189.404 4.0583 1.27209 0
M  V30 2004 N 187.719 -0.156864 1.56817 0
M  V30 2005 C 188.966 -0.871125 1.82805 0
M  V30 2006 C 189.294 -1.81611 0.696262 0
M  V30 2007 O 188.549 -1.93141 -0.315459 0
M  V30 2008 C 188.848 -1.68737 3.1506 0
M  V30 2009 C 188.514 -0.890045 4.42028 0
M  V30 2010 C 187.176 -0.670042 4.76512 0
M  V30 2011 C 189.528 -0.331769 5.20143 0
M  V30 2012 C 186.856 0.119104 5.86579 0
M  V30 2013 C 189.208 0.444365 6.31037 0
M  V30 2014 C 187.872 0.675035 6.64078 0
M  V30 2015 H 187.142 -0.318767 0.668931 0
M  V30 2016 H 189.789 -0.135274 1.91022 0
M  V30 2017 H 188.094 -2.49304 3.0225 0
M  V30 2018 H 189.791 -2.24331 3.3238 0
M  V30 2019 H 186.381 -1.07157 4.14988 0
M  V30 2020 H 190.565 -0.489043 4.93885 0
M  V30 2021 H 185.821 0.307417 6.10627 0
M  V30 2022 H 189.995 0.884139 6.90765 0
M  V30 2023 H 187.622 1.28839 7.49203 0
M  V30 2024 N 189.197 -1.51736 -0.425897 0
M  V30 2025 C 190.16 -1.73271 -1.50032 0
M  V30 2026 C 191.16 -0.602639 -1.4908 0
M  V30 2027 O 192.35 -0.87033 -1.509 0
M  V30 2028 C 189.482 -1.79969 -2.89523 0
M  V30 2029 H 190.675 -2.69172 -1.32237 0
M  V30 2030 H 188.228 -1.41899 -0.65532 0
M  V30 2031 H 188.963 -0.859241 -3.1271 0
M  V30 2032 H 188.748 -2.62109 -2.91619 0
M  V30 2033 H 190.238 -1.9843 -3.67444 0
M  V30 2034 N 190.675 0.682077 -1.42076 0
M  V30 2035 C 191.607 1.80755 -1.40926 0
M  V30 2036 C 192.62 1.59833 -0.309398 0
M  V30 2037 O 193.809 1.69087 -0.572014 0
M  V30 2038 C 190.909 3.17744 -1.17865 0
M  V30 2039 C 190.082 3.65578 -2.40149 0
M  V30 2040 C 189.141 4.81277 -2.12742 0
M  V30 2041 O 188.167 4.92197 -2.85887 0
M  V30 2042 N 189.369 5.69474 -1.12602 0
M  V30 2043 H 192.134 1.82229 -2.37935 0
M  V30 2044 H 189.695 0.864903 -1.36861 0
M  V30 2045 H 191.687 3.9279 -0.9746 0
M  V30 2046 H 190.257 3.11214 -0.294068 0
M  V30 2047 H 189.477 2.81291 -2.76169 0
M  V30 2048 H 190.765 3.94278 -3.21593 0
M  V30 2049 H 190.163 5.63297 -0.520899 0
M  V30 2050 H 188.72 6.44363 -0.981842 0
M  V30 2051 N 192.153 1.28127 0.917671 0
M  V30 2052 C 193.083 1.14248 2.03641 0
M  V30 2053 C 194.064 0.0412748 1.7005 0
M  V30 2054 O 195.249 0.217566 1.92977 0
M  V30 2055 C 192.379 0.799431 3.37974 0
M  V30 2056 C 191.333 1.85497 3.85713 0
M  V30 2057 C 190.659 1.36565 5.16966 0
M  V30 2058 C 191.959 3.26085 4.08002 0
M  V30 2059 H 193.653 2.07835 2.15511 0
M  V30 2060 H 191.199 1.00064 1.03553 0
M  V30 2061 H 193.152 0.689114 4.15727 0
M  V30 2062 H 191.876 -0.172145 3.26146 0
M  V30 2063 H 190.535 1.95437 3.10161 0
M  V30 2064 H 190.183 0.383253 5.01538 0
M  V30 2065 H 189.883 2.07143 5.49878 0
M  V30 2066 H 191.407 1.26848 5.97279 0
M  V30 2067 H 192.821 3.19089 4.76293 0
M  V30 2068 H 191.218 3.94462 4.52238 0
M  V30 2069 H 192.288 3.70394 3.12948 0
M  V30 2070 N 193.631 -1.12557 1.10312 0
M  V30 2071 C 194.561 -2.20341 0.772798 0
M  V30 2072 C 195.542 -1.68198 -0.25365 0
M  V30 2073 O 196.727 -1.93831 -0.119699 0
M  V30 2074 C 193.857 -3.46709 0.202443 0
M  V30 2075 C 192.811 -4.11996 1.15943 0
M  V30 2076 C 192.137 -5.328 0.450345 0
M  V30 2077 C 193.437 -4.5828 2.50552 0
M  V30 2078 H 195.131 -2.48229 1.674 0
M  V30 2079 H 192.677 -1.19308 0.806326 0
M  V30 2080 H 194.63 -4.2138 -0.0407752 0
M  V30 2081 H 193.354 -3.18245 -0.734001 0
M  V30 2082 H 192.013 -3.39305 1.38808 0
M  V30 2083 H 191.661 -5.00602 -0.490531 0
M  V30 2084 H 191.361 -5.7743 1.08851 0
M  V30 2085 H 192.885 -6.10219 0.215642 0
M  V30 2086 H 194.299 -5.2433 2.31843 0
M  V30 2087 H 192.696 -5.13683 3.10242 0
M  V30 2088 H 193.766 -3.72329 3.10643 0
M  V30 2089 N 195.109 -0.891671 -1.2995 0
M  V30 2090 C 196.056 -0.361736 -2.27948 0
M  V30 2091 C 197.026 0.551761 -1.56668 0
M  V30 2092 O 198.211 0.478736 -1.84696 0
M  V30 2093 C 195.351 0.411825 -3.42634 0
M  V30 2094 C 194.464 -0.531651 -4.28716 0
M  V30 2095 C 193.599 0.258167 -5.30572 0
M  V30 2096 C 192.638 -0.680349 -6.08307 0
M  V30 2097 N 191.775 0.0745613 -7.0206 0
M  V30 2098 H 196.615 -1.20254 -2.72659 0
M  V30 2099 H 194.152 -0.604352 -1.34112 0
M  V30 2100 H 196.11 0.876304 -4.07893 0
M  V30 2101 H 194.74 1.21715 -2.98974 0
M  V30 2102 H 193.792 -1.11463 -3.63703 0
M  V30 2103 H 195.104 -1.25038 -4.82874 0
M  V30 2104 H 194.258 0.784204 -6.0161 0
M  V30 2105 H 192.997 1.01008 -4.77126 0
M  V30 2106 H 192.002 -1.21796 -5.3614 0
M  V30 2107 H 193.227 -1.43145 -6.63842 0
M  V30 2108 H 191.173 0.808883 -6.50994 0
M  V30 2109 H 191.09 -0.584409 -7.53738 0
M  V30 2110 H 192.358 0.581123 -7.77331 0
M  V30 2111 N 196.587 1.43421 -0.653314 0
M  V30 2112 C 197.864 1.95361 -0.0966581 0
M  V30 2113 C 198.244 1.59461 1.38331 0
M  V30 2114 O 197.592 0.879777 2.10884 0
M  V30 2115 C 197.802 3.47311 -0.342988 0
M  V30 2116 C 199.15 4.23875 -0.24798 0
M  V30 2117 O 200.174 3.55133 -0.275553 0
M  V30 2118 O 199.033 5.4623 -0.171771 0
M  V30 2119 H 196.127 0.826945 0.00956291 0
M  V30 2120 H 198.673 1.5336 -0.726558 0
M  V30 2121 H 197.445 3.66569 -1.36906 0
M  V30 2122 H 197.068 3.9631 0.319975 0
M  V30 2123 N 198.065 0.39524 1.52563 0
M  V30 2124 C 199.313 -0.184678 2.01254 0
M  V30 2125 C 199.634 -1.46822 1.28329 0
M  V30 2126 O 198.904 -1.91666 0.405094 0
M  V30 2127 H 197.484 -0.0712355 0.743596 0
M  V30 2128 H 200.146 0.528293 1.87603 0
M  V30 2129 H 199.242 -0.390681 3.09645 0
M  V30 2130 N 199.544 -1.57102 0.125237 0
M  V30 2131 C 200.491 -2.15641 -0.822655 0
M  V30 2132 C 201.461 -1.08313 -1.25927 0
M  V30 2133 O 202.646 -1.36251 -1.33567 0
M  V30 2134 C 199.786 -2.76504 -2.06494 0
M  V30 2135 C 198.899 -3.98158 -1.67612 0
M  V30 2136 C 198.034 -4.47088 -2.86854 0
M  V30 2137 C 197.073 -5.6126 -2.44242 0
M  V30 2138 N 196.21 -6.04905 -3.56419 0
M  V30 2139 H 201.05 -2.96313 -0.316625 0
M  V30 2140 H 198.587 -1.46388 -0.144588 0
M  V30 2141 H 200.545 -3.09925 -2.79289 0
M  V30 2142 H 199.175 -1.98512 -2.54545 0
M  V30 2143 H 198.227 -3.70858 -0.846661 0
M  V30 2144 H 199.539 -4.80934 -1.32301 0
M  V30 2145 H 198.693 -4.82451 -3.67867 0
M  V30 2146 H 197.432 -3.63275 -3.25396 0
M  V30 2147 H 196.437 -5.25495 -1.61663 0
M  V30 2148 H 197.662 -6.46843 -2.0681 0
M  V30 2149 H 195.608 -5.24032 -3.94623 0
M  V30 2150 H 195.525 -6.82552 -3.25051 0
M  V30 2151 H 196.793 -6.44907 -4.37853 0
M  V30 2152 N 201.022 0.148545 -1.56898 0
M  V30 2153 C 201.952 1.18524 -2.01182 0
M  V30 2154 C 202.933 1.4489 -0.891123 0
M  V30 2155 O 204.118 1.55836 -1.15882 0
M  V30 2156 C 201.248 2.51879 -2.39112 0
M  V30 2157 C 200.202 2.40038 -3.54353 0
M  V30 2158 C 199.528 3.78089 -3.78091 0
M  V30 2159 C 200.828 1.88577 -4.87069 0
M  V30 2160 H 202.522 0.817029 -2.88036 0
M  V30 2161 H 200.068 0.391575 -1.38574 0
M  V30 2162 H 202.021 3.24627 -2.68692 0
M  V30 2163 H 200.745 2.90532 -1.49193 0
M  V30 2164 H 199.404 1.69742 -3.24936 0
M  V30 2165 H 199.052 4.14175 -2.85426 0
M  V30 2166 H 198.752 3.71028 -4.55645 0
M  V30 2167 H 200.276 4.52387 -4.10095 0
M  V30 2168 H 201.69 2.51117 -5.15377 0
M  V30 2169 H 200.087 1.9241 -5.68417 0
M  V30 2170 H 201.157 0.84136 -4.77545 0
M  V30 2171 N 202.5 1.5196 0.417844 0
M  V30 2172 C 203.911 1.57851 0.997 0
M  V30 2173 C 204.262 0.413714 1.91789 0
M  V30 2174 O 203.387 -0.467057 2.113 0
M  V30 2175 C 203.982 2.86085 1.81496 0
M  V30 2176 C 202.541 2.94483 2.34428 0
M  V30 2177 C 201.688 2.52707 1.14169 0
M  V30 2178 H 204.639 1.57455 0.198392 0
M  V30 2179 H 204.66 2.70947 2.67148 0
M  V30 2180 H 204.172 3.70842 1.14446 0
M  V30 2181 H 202.273 2.142 3.04875 0
M  V30 2182 H 202.386 3.98546 2.65891 0
M  V30 2183 H 200.75 2.06353 1.49301 0
M  V30 2184 H 201.533 3.39828 0.486999 0
M  V30 2185 N 203.978 -0.674533 1.42435 0
M  V30 2186 C 204.888 -1.81751 1.48337 0
M  V30 2187 C 205.904 -1.69975 0.372099 0
M  V30 2188 O 207.08 -1.91521 0.62304 0
M  V30 2189 C 204.145 -3.17895 1.38361 0
M  V30 2190 C 203.206 -3.41625 2.59982 0
M  V30 2191 C 202.439 -4.71274 2.50473 0
M  V30 2192 O 202.662 -5.49197 1.54075 0
M  V30 2193 O 201.596 -4.96254 3.4061 0
M  V30 2194 H 205.422 -1.79728 2.44809 0
M  V30 2195 H 203.007 -0.830312 1.24202 0
M  V30 2196 H 204.889 -3.99136 1.35161 0
M  V30 2197 H 203.564 -3.20555 0.450144 0
M  V30 2198 H 202.471 -2.60231 2.68757 0
M  V30 2199 H 203.804 -3.43796 3.52229 0
M  V30 2200 N 205.456 -1.28612 -0.910864 0
M  V30 2201 C 206.702 -1.16106 -1.66274 0
M  V30 2202 C 207.035 0.289113 -1.92036 0
M  V30 2203 O 206.31 1.21 -1.52281 0
M  V30 2204 C 206.593 -1.96309 -3.01885 0
M  V30 2205 C 206.446 -3.49405 -2.8326 0
M  V30 2206 C 207.765 -1.78076 -4.02463 0
M  V30 2207 H 204.884 -0.423152 -0.603417 0
M  V30 2208 H 207.526 -1.57961 -1.05586 0
M  V30 2209 H 205.676 -1.60742 -3.53687 0
M  V30 2210 H 207.348 -3.94894 -2.38446 0
M  V30 2211 H 205.591 -3.74893 -2.18261 0
M  V30 2212 H 206.262 -4.00784 -3.79574 0
M  V30 2213 H 208.738 -2.0912 -3.59733 0
M  V30 2214 H 207.614 -2.36561 -4.95308 0
M  V30 2215 H 207.875 -0.733008 -4.35981 0
M  V30 2216 N 206.934 1.1197 -1.10907 0
M  V30 2217 C 207.844 2.21433 -0.774896 0
M  V30 2218 C 208.86 1.72478 0.229657 0
M  V30 2219 O 210.036 2.01288 0.0672008 0
M  V30 2220 C 207.101 3.4602 -0.216986 0
M  V30 2221 C 206.162 4.09791 -1.27944 0
M  V30 2222 C 205.395 5.28431 -0.748055 0
M  V30 2223 O 205.618 5.68823 0.423833 0
M  V30 2224 O 204.552 5.82644 -1.51027 0
M  V30 2225 H 208.378 2.5242 -1.68873 0
M  V30 2226 H 205.963 1.20399 -0.884555 0
M  V30 2227 H 207.845 4.21304 0.090059 0
M  V30 2228 H 206.52 3.16698 0.669633 0
M  V30 2229 H 205.427 3.36265 -1.63941 0
M  V30 2230 H 206.76 4.4328 -2.13925 0
M  V30 2231 N 208.412 0.89855 1.29475 0
M  V30 2232 C 209.661 0.519863 1.94885 0
M  V30 2233 C 209.974 -0.9383 1.71625 0
M  V30 2234 O 211.18 -1.42445 2.31131 0
M  V30 2235 C 209.636 0.878836 3.49005 0
M  V30 2236 C 209.244 2.35569 3.81066 0
M  V30 2237 C 210.988 0.570004 4.20656 0
M  V30 2238 C 208.895 2.65558 5.28425 0
M  V30 2239 H 207.825 0.190692 0.729488 0
M  V30 2240 H 210.476 1.09539 1.47219 0
M  V30 2241 H 208.858 0.232253 3.95318 0
M  V30 2242 H 210.032 3.04773 3.45616 0
M  V30 2243 H 208.347 2.63343 3.22552 0
M  V30 2244 H 210.944 0.770925 5.29113 0
M  V30 2245 H 211.287 -0.491404 4.1339 0
M  V30 2246 H 211.82 1.17438 3.8007 0
M  V30 2247 H 208.559 3.70493 5.40754 0
M  V30 2248 H 208.079 2.00977 5.65127 0
M  V30 2249 H 209.758 2.51765 5.96006 0
M  V30 2250 N 209.89 -1.43072 0.660911 0
M  V30 2251 C 210.837 -2.30785 -0.0259884 0
M  V30 2252 C 211.807 -1.45184 -0.806888 0
M  V30 2253 O 212.992 -1.74041 -0.781943 0
M  V30 2254 C 210.132 -3.30861 -0.981067 0
M  V30 2255 C 209.245 -4.31558 -0.195458 0
M  V30 2256 C 208.38 -5.18712 -1.14503 0
M  V30 2257 C 207.419 -6.11097 -0.350299 0
M  V30 2258 N 206.556 -6.90849 -1.25186 0
M  V30 2259 H 211.396 -2.88975 0.727846 0
M  V30 2260 H 208.933 -1.42353 0.370682 0
M  V30 2261 H 210.891 -3.87399 -1.54849 0
M  V30 2262 H 209.521 -2.74304 -1.70169 0
M  V30 2263 H 208.573 -3.77252 0.488374 0
M  V30 2264 H 209.885 -4.9701 0.422176 0
M  V30 2265 H 209.039 -5.79914 -1.78284 0
M  V30 2266 H 207.778 -4.53404 -1.79656 0
M  V30 2267 H 206.783 -5.48976 0.300808 0
M  V30 2268 H 208.008 -6.7845 0.296941 0
M  V30 2269 H 205.954 -6.28182 -1.89005 0
M  V30 2270 H 205.871 -7.52854 -0.688971 0
M  V30 2271 H 207.139 -7.5655 -1.87757 0
M  V30 2272 N 211.368 -0.403325 -1.52352 0
M  V30 2273 C 212.645 0.232611 -1.94212 0
M  V30 2274 C 213.025 1.63133 -1.33981 0
M  V30 2275 O 212.373 2.22659 -0.513344 0
M  V30 2276 C 212.583 0.244811 -3.4814 0
M  V30 2277 C 213.931 0.46698 -4.22024 0
M  V30 2278 O 214.955 0.324419 -3.5472 0
M  V30 2279 O 213.814 0.74747 -5.41364 0
M  V30 2280 H 210.908 0.148223 -0.813609 0
M  V30 2281 H 213.454 -0.458848 -1.63379 0
M  V30 2282 H 212.226 -0.734378 -3.84347 0
M  V30 2283 H 211.849 0.980611 -3.85318 0
M  V30 2284 N 212.846 1.57033 -0.133567 0
M  V30 2285 C 214.076 1.99754 0.527429 0
M  V30 2286 C 214.484 1.01245 1.59832 0
M  V30 2287 O 213.827 -0.000645496 1.837 0
M  V30 2288 C 213.889 3.38903 1.19939 0
M  V30 2289 C 213.553 4.56174 0.274709 0
M  V30 2290 C 214.55 5.17563 -0.492398 0
M  V30 2291 C 212.235 5.01972 0.18153 0
M  V30 2292 C 214.229 6.2315 -1.34027 0
M  V30 2293 C 211.916 6.07416 -0.669958 0
M  V30 2294 C 212.914 6.67874 -1.42947 0
M  V30 2295 O 212.602 7.71279 -2.2668 0
M  V30 2296 H 212.334 0.660702 0.142999 0
M  V30 2297 H 214.888 2.04207 -0.221099 0
M  V30 2298 H 213.118 3.31248 1.99528 0
M  V30 2299 H 214.807 3.65818 1.75875 0
M  V30 2300 H 215.573 4.83087 -0.430367 0
M  V30 2301 H 211.452 4.54652 0.762422 0
M  V30 2302 H 214.996 6.70268 -1.93357 0
M  V30 2303 H 210.893 6.41321 -0.73333 0
M  V30 2304 H 211.661 7.88441 -2.1978 0
M  V30 2305 N 214.325 -0.140222 1.56975 0
M  V30 2306 C 215.736 -0.699596 1.73097 0
M  V30 2307 C 216.087 -1.8134 0.749022 0
M  V30 2308 O 215.212 -2.16241 -0.0828503 0
M  V30 2309 C 215.807 -1.27582 3.1386 0
M  V30 2310 C 214.366 -1.78169 3.31561 0
M  V30 2311 C 213.513 -0.672855 2.69013 0
M  V30 2312 H 216.464 0.0855115 1.58469 0
M  V30 2313 H 216.485 -2.14561 3.14235 0
M  V30 2314 H 215.997 -0.464955 3.85305 0
M  V30 2315 H 214.098 -2.61801 2.65124 0
M  V30 2316 H 214.211 -1.90574 4.39566 0
M  V30 2317 H 212.575 -1.10118 2.29665 0
M  V30 2318 H 213.358 0.126679 3.43066 0
M  V30 2319 N 215.803 -1.52179 -0.40978 0
M  V30 2320 C 217.028 -1.70347 -1.18308 0
M  V30 2321 C 217.453 -0.411887 -1.83535 0
M  V30 2322 O 216.811 0.630587 -1.6998 0
M  V30 2323 C 216.859 -2.83977 -2.22238 0
M  V30 2324 O 215.963 -2.495 -3.28365 0
M  V30 2325 H 215.304 -0.567103 -0.345384 0
M  V30 2326 H 217.834 -1.98879 -0.480445 0
M  V30 2327 H 217.844 -3.0887 -2.66577 0
M  V30 2328 H 216.519 -3.77685 -1.74146 0
M  V30 2329 H 215.096 -2.35277 -2.89308 0
M  V30 2330 N 217.281 0.66697 -1.42791 0
M  V30 2331 C 218.527 1.4291 -1.43891 0
M  V30 2332 C 218.86 1.94114 -0.0578972 0
M  V30 2333 O 218.135 1.71414 0.91911 0
M  V30 2334 C 218.418 2.62049 -2.46987 0
M  V30 2335 C 218.271 2.16426 -3.94309 0
M  V30 2336 C 219.59 3.64266 -2.46978 0
M  V30 2337 H 216.709 0.518306 -0.523954 0
M  V30 2338 H 219.351 0.757321 -1.74255 0
M  V30 2339 H 217.501 3.19361 -2.21225 0
M  V30 2340 H 219.173 1.64221 -4.31079 0
M  V30 2341 H 217.416 1.47925 -4.078 0
M  V30 2342 H 218.087 3.02038 -4.62036 0
M  V30 2343 H 220.563 3.16686 -2.69906 0
M  V30 2344 H 219.439 4.45196 -3.21079 0
M  V30 2345 H 219.7 4.15927 -1.49857 0
M  V30 2346 N 218.759 1.29093 0.90403 0
M  V30 2347 C 220.175 1.07011 1.1841 0
M  V30 2348 C 220.375 -0.181358 2.00682 0
M  V30 2349 O 219.431 -0.880331 2.36657 0
M  V30 2350 C 220.744 2.32311 1.90924 0
M  V30 2351 C 222.292 2.37587 2.03768 0
M  V30 2352 C 222.767 3.62679 2.79693 0
M  V30 2353 N 224.258 3.63376 2.87249 0
M  V30 2354 C 224.993 4.56848 3.46522 0
M  V30 2355 N 224.489 5.60648 4.06996 0
M  V30 2356 N 226.282 4.44426 3.44154 0
M  V30 2357 H 218.433 2.09412 0.354993 0
M  V30 2358 H 220.696 0.922181 0.219742 0
M  V30 2359 H 220.402 3.23536 1.37905 0
M  V30 2360 H 220.276 2.39483 2.91424 0
M  V30 2361 H 222.663 1.46853 2.55965 0
M  V30 2362 H 222.744 2.34403 1.02415 0
M  V30 2363 H 222.388 4.53762 2.28173 0
M  V30 2364 H 222.318 3.63119 3.81381 0
M  V30 2365 H 224.809 2.88321 2.44293 0
M  V30 2366 H 225.122 6.28101 4.50232 0
M  V30 2367 H 223.467 5.64463 4.05471 0
M  V30 2368 H 226.658 3.62529 2.96126 0
M  V30 2369 H 226.831 5.17457 3.90054 0
M  V30 2370 N 220.237 -1.11381 1.11499 0
M  V30 2371 C 221.467 -1.86663 0.885464 0
M  V30 2372 C 221.875 -1.80464 -0.568281 0
M  V30 2373 O 221.218 -1.18445 -1.40415 0
M  V30 2374 C 221.28 -3.36337 1.26956 0
M  V30 2375 C 220.944 -3.66304 2.73259 0
M  V30 2376 C 221.941 -3.63733 3.71476 0
M  V30 2377 C 219.626 -3.9529 3.09921 0
M  V30 2378 C 221.62 -3.89725 5.04374 0
M  V30 2379 C 219.307 -4.20941 4.43004 0
M  V30 2380 C 220.305 -4.18147 5.40039 0
M  V30 2381 O 219.993 -4.43153 6.70724 0
M  V30 2382 H 219.725 -0.597114 0.316908 0
M  V30 2383 H 222.279 -1.41782 1.48617 0
M  V30 2384 H 220.509 -3.81826 0.611999 0
M  V30 2385 H 222.198 -3.92986 1.01573 0
M  V30 2386 H 222.964 -3.41389 3.44498 0
M  V30 2387 H 218.843 -3.966 2.35009 0
M  V30 2388 H 222.387 -3.8746 5.80104 0
M  V30 2389 H 218.284 -4.42761 4.69716 0
M  V30 2390 H 219.052 -4.60717 6.76522 0
M  V30 2391 N 221.715 -0.905404 -1.28997 0
M  V30 2392 C 223.131 -0.60233 -1.47798 0
M  V30 2393 C 223.331 0.854645 -1.82478 0
M  V30 2394 O 222.387 1.63439 -1.92468 0
M  V30 2395 C 223.7 -1.53306 -2.58685 0
M  V30 2396 C 225.248 -1.53887 -2.72558 0
M  V30 2397 C 225.723 -2.45602 -3.86579 0
M  V30 2398 N 227.214 -2.43681 -3.93921 0
M  V30 2399 C 227.949 -3.11347 -4.81509 0
M  V30 2400 N 227.445 -3.88313 -5.73746 0
M  V30 2401 N 229.238 -3.00476 -4.75048 0
M  V30 2402 H 221.389 -1.84765 -1.04764 0
M  V30 2403 H 223.652 -0.792025 -0.520961 0
M  V30 2404 H 223.358 -2.57141 -2.39941 0
M  V30 2405 H 223.232 -1.25787 -3.55609 0
M  V30 2406 H 225.619 -0.507941 -2.90696 0
M  V30 2407 H 225.7 -1.85447 -1.76191 0
M  V30 2408 H 225.344 -3.48792 -3.69197 0
M  V30 2409 H 225.274 -2.11349 -4.82327 0
M  V30 2410 H 227.765 -1.87767 -3.27951 0
M  V30 2411 H 228.078 -4.36985 -6.37389 0
M  V30 2412 H 226.423 -3.92419 -5.73614 0
M  V30 2413 H 229.614 -2.39858 -4.01977 0
M  V30 2414 H 229.787 -3.53485 -5.43095 0
M  V30 2415 N 223.193 1.4272 -0.668489 0
M  V30 2416 C 224.441 2.01226 -0.187769 0
M  V30 2417 C 224.762 1.53092 1.2078 0
M  V30 2418 O 224.032 0.74993 1.80977 0
M  V30 2419 H 222.612 0.744041 -0.0664272 0
M  V30 2420 H 225.274 1.74723 -0.863583 0
M  V30 2421 H 224.37 3.11556 -0.184166 0
M  V30 2422 N 224.671 0.411399 1.52136 0
M  V30 2423 C 225.917 -0.163888 2.02137 0
M  V30 2424 C 226.25 -1.44597 1.29636 0
M  V30 2425 O 225.525 -1.90272 0.403353 0
M  V30 2426 C 225.808 -0.40927 3.57767 0
M  V30 2427 C 225.661 0.889643 4.40914 0
M  V30 2428 C 226.98 -1.19042 4.23694 0
M  V30 2429 H 224.099 -0.0580896 0.734707 0
M  V30 2430 H 226.741 0.54531 1.82007 0
M  V30 2431 H 224.891 -1.0134 3.7505 0
M  V30 2432 H 226.563 1.52575 4.35337 0
M  V30 2433 H 224.806 1.50011 4.07037 0
M  V30 2434 H 225.477 0.672314 5.4789 0
M  V30 2435 H 227.953 -0.678942 4.10524 0
M  V30 2436 H 226.829 -1.33086 5.32522 0
M  V30 2437 H 227.09 -2.21166 3.82803 0
M  V30 2438 N 226.149 -1.5696 0.141893 0
M  V30 2439 C 227.395 -1.9625 -0.511248 0
M  V30 2440 C 227.728 -1.02654 -1.64851 0
M  V30 2441 O 227.003 -0.0679676 -1.94381 0
M  V30 2442 C 227.286 -3.45285 -1.02227 0
M  V30 2443 C 227.139 -4.49658 0.113138 0
M  V30 2444 C 228.458 -3.96698 -1.90574 0
M  V30 2445 H 225.577 -0.713567 -0.184367 0
M  V30 2446 H 228.219 -1.88698 0.222087 0
M  V30 2447 H 226.369 -3.51852 -1.64719 0
M  V30 2448 H 228.041 -4.55174 0.749302 0
M  V30 2449 H 226.284 -4.26857 0.773026 0
M  V30 2450 H 226.955 -5.51258 -0.286053 0
M  V30 2451 H 229.431 -3.92578 -1.37918 0
M  V30 2452 H 228.307 -5.01453 -2.2324 0
M  V30 2453 H 228.568 -3.3875 -2.84079 0
M  V30 2454 N 227.627 0.131896 -1.57047 0
M  V30 2455 C 228.537 1.1815 -2.02676 0
M  V30 2456 C 229.553 1.46113 -0.944824 0
M  V30 2457 O 230.729 1.57485 -1.25541 0
M  V30 2458 C 227.794 2.49139 -2.41103 0
M  V30 2459 C 226.855 2.28688 -3.63318 0
M  V30 2460 C 226.088 3.53431 -3.99903 0
M  V30 2461 O 226.311 4.60223 -3.36973 0
M  V30 2462 O 225.245 3.45198 -4.93074 0
M  V30 2463 H 229.071 0.824069 -2.92306 0
M  V30 2464 H 226.656 0.341745 -1.45439 0
M  V30 2465 H 228.538 3.26338 -2.66611 0
M  V30 2466 H 227.213 2.84382 -1.54624 0
M  V30 2467 H 226.12 1.4939 -3.42977 0
M  V30 2468 H 227.453 1.98355 -4.50462 0
M  V30 2469 N 229.106 1.52395 0.401703 0
M  V30 2470 C 230.354 1.66488 1.14569 0
M  V30 2471 C 230.675 0.400897 1.90835 0
M  V30 2472 O 229.945 -0.584415 1.8698 0
M  V30 2473 H 228.525 0.613672 0.425929 0
M  V30 2474 H 231.187 1.89464 0.457093 0
M  V30 2475 H 230.283 2.50942 1.85566 0
M  V30 2476 N 230.584 -0.659388 1.43143 0
M  V30 2477 C 231.831 -1.41935 1.44433 0
M  V30 2478 C 232.159 -1.94387 0.0663522 0
M  V30 2479 O 231.414 -1.72314 -0.927706 0
M  V30 2480 C 231.713 -2.62206 2.42864 0
M  V30 2481 C 231.379 -2.28208 3.88886 0
M  V30 2482 C 230.041 -2.18647 4.28657 0
M  V30 2483 C 232.393 -2.00887 4.8093 0
M  V30 2484 C 229.721 -1.79914 5.58433 0
M  V30 2485 C 232.073 -1.63653 6.11065 0
M  V30 2486 C 230.737 -1.52614 6.49819 0
M  V30 2487 H 230.007 -0.519376 0.528517 0
M  V30 2488 H 232.654 -0.750453 1.76183 0
M  V30 2489 H 230.959 -3.34199 2.04495 0
M  V30 2490 H 232.656 -3.2041 2.41119 0
M  V30 2491 H 229.246 -2.36557 3.57406 0
M  V30 2492 H 233.43 -2.07198 4.5098 0
M  V30 2493 H 228.686 -1.69948 5.87305 0
M  V30 2494 H 232.86 -1.41543 6.81864 0
M  V30 2495 H 230.487 -1.22371 7.50286 0
M  V30 2496 N 232.062 -1.29571 -0.897171 0
M  V30 2497 C 233.292 -1.20408 -1.67886 0
M  V30 2498 C 233.7 0.237429 -1.87704 0
M  V30 2499 O 233.043 1.17048 -1.41582 0
M  V30 2500 C 233.105 -1.84887 -3.08314 0
M  V30 2501 C 232.769 -3.34189 -3.11716 0
M  V30 2502 C 233.766 -4.30374 -2.91675 0
M  V30 2503 C 231.451 -3.75431 -3.33701 0
M  V30 2504 C 233.445 -5.65776 -2.93557 0
M  V30 2505 C 231.132 -5.10955 -3.35214 0
M  V30 2506 C 232.13 -6.05938 -3.15164 0
M  V30 2507 O 231.818 -7.38987 -3.1647 0
M  V30 2508 H 231.55 -0.418289 -0.531046 0
M  V30 2509 H 234.104 -1.71514 -1.13014 0
M  V30 2510 H 232.334 -1.28295 -3.64798 0
M  V30 2511 H 234.023 -1.70011 -3.6858 0
M  V30 2512 H 234.789 -3.99844 -2.74499 0
M  V30 2513 H 230.668 -3.01953 -3.48347 0
M  V30 2514 H 234.212 -6.39889 -2.77826 0
M  V30 2515 H 230.109 -5.4113 -3.51922 0
M  V30 2516 H 230.877 -7.47823 -3.3272 0
M  V30 2517 N 233.54 1.10788 -1.12088 0
M  V30 2518 C 234.788 1.8231 -0.872205 0
M  V30 2519 C 235.109 1.85419 0.603709 0
M  V30 2520 O 234.379 1.32963 1.43867 0
M  V30 2521 H 232.959 0.675137 -0.319686 0
M  V30 2522 H 235.621 1.34068 -1.41463 0
M  V30 2523 H 234.717 2.85955 -1.25045 0
M  V30 2524 N 235.018 0.912232 1.28515 0
M  V30 2525 C 236.246 0.560416 1.99166 0
M  V30 2526 C 236.661 -0.857927 1.68182 0
M  V30 2527 O 236.018 -1.56805 0.933733 0
M  V30 2528 C 236.069 0.758142 3.53461 0
M  V30 2529 O 235.79 2.12067 3.83352 0
M  V30 2530 C 237.291 0.412954 4.41372 0
M  V30 2531 H 234.511 0.213805 0.636026 0
M  V30 2532 H 237.055 1.22502 1.63749 0
M  V30 2533 H 235.21 0.140556 3.87145 0
M  V30 2534 H 235.624 2.15923 4.77993 0
M  V30 2535 H 237.098 0.60208 5.48707 0
M  V30 2536 H 237.575 -0.65073 4.34353 0
M  V30 2537 H 238.181 1.00802 4.13182 0
M  V30 2538 N 236.496 -1.42363 0.676048 0
M  V30 2539 C 237.907 -1.84649 0.275948 0
M  V30 2540 C 238.258 -1.56588 -1.18214 0
M  V30 2541 O 237.383 -1.02634 -1.90513 0
M  V30 2542 C 237.978 -3.35178 0.494053 0
M  V30 2543 C 236.537 -3.76109 0.148061 0
M  V30 2544 C 235.684 -2.65931 0.785891 0
M  V30 2545 H 238.635 -1.32192 0.878121 0
M  V30 2546 H 238.656 -3.79655 -0.25343 0
M  V30 2547 H 238.168 -3.55571 1.55535 0
M  V30 2548 H 236.269 -3.61323 -0.909742 0
M  V30 2549 H 236.382 -4.7546 0.589454 0
M  V30 2550 H 234.746 -2.53773 0.217113 0
M  V30 2551 H 235.529 -2.89146 1.85067 0
M  V30 2552 N 237.974 -0.419461 -1.51915 0
M  V30 2553 C 239.22 0.145505 -2.02879 0
M  V30 2554 C 239.575 1.41926 -1.29903 0
M  V30 2555 O 238.868 1.87383 -0.399782 0
M  V30 2556 C 239.062 0.437067 -3.54717 0
M  V30 2557 C 238.891 -0.806877 -4.42402 0
M  V30 2558 C 237.661 -1.33514 -4.87342 0
M  V30 2559 C 239.859 -1.68796 -4.85811 0
M  V30 2560 N 237.841 -2.53349 -5.59185 0
M  V30 2561 C 239.212 -2.73247 -5.56539 0
M  V30 2562 C 241.267 -1.70449 -4.67816 0
M  V30 2563 C 239.97 -3.79276 -6.11181 0
M  V30 2564 C 241.996 -2.75403 -5.23361 0
M  V30 2565 C 241.358 -3.78575 -5.9402 0
M  V30 2566 H 237.457 0.0145424 -0.781865 0
M  V30 2567 H 240.041 -0.576126 -1.85981 0
M  V30 2568 H 238.212 1.12774 -3.71667 0
M  V30 2569 H 239.944 0.99182 -3.92358 0
M  V30 2570 H 236.699 -0.891657 -4.65131 0
M  V30 2571 H 237.123 -3.14066 -5.99743 0
M  V30 2572 H 241.765 -0.920209 -4.12664 0
M  V30 2573 H 239.483 -4.58554 -6.65397 0
M  V30 2574 H 243.069 -2.77603 -5.113 0
M  V30 2575 H 241.949 -4.58453 -6.36231 0
M  V30 2576 N 239.452 1.56882 -0.150215 0
M  V30 2577 C 240.677 2.01027 0.510184 0
M  V30 2578 C 241.102 1.02966 1.57415 0
M  V30 2579 O 240.46 0.00590158 1.81299 0
M  V30 2580 C 240.508 3.43899 1.08472 0
M  V30 2581 O 239.612 3.4885 2.19948 0
M  V30 2582 H 238.953 0.652233 0.124451 0
M  V30 2583 H 241.483 2.03093 -0.247894 0
M  V30 2584 H 241.493 3.82766 1.41259 0
M  V30 2585 H 240.168 4.14776 0.305582 0
M  V30 2586 H 238.745 3.21827 1.88366 0
M  V30 2587 N 240.93 -0.123565 1.57115 0
M  V30 2588 C 241.88 -1.1575 1.96433 0
M  V30 2589 C 242.864 -1.37313 0.838686 0
M  V30 2590 O 244.056 -1.38482 1.10235 0
M  V30 2591 C 241.185 -2.48526 2.36833 0
M  V30 2592 C 240.271 -2.30457 3.5602 0
M  V30 2593 N 240.662 -1.8219 4.71848 0
M  V30 2594 C 238.96 -2.61129 3.61563 0
M  V30 2595 C 239.661 -1.77721 5.53886 0
M  V30 2596 N 238.637 -2.21899 4.96248 0
M  V30 2597 H 242.439 -0.776797 2.83449 0
M  V30 2598 H 239.953 -0.331364 1.58983 0
M  V30 2599 H 241.95 -3.233 2.63216 0
M  V30 2600 H 240.61 -2.87358 1.5118 0
M  V30 2601 H 241.621 -1.51805 4.95152 0
M  V30 2602 H 238.298 -3.03678 2.86507 0
M  V30 2603 H 239.688 -1.41697 6.56789 0
M  V30 2604 N 242.408 -1.52605 -0.393616 0
M  V30 2605 C 243.34 -1.73303 -1.49995 0
M  V30 2606 C 244.353 -0.613473 -1.50799 0
M  V30 2607 O 245.542 -0.889049 -1.54784 0
M  V30 2608 C 242.642 -1.77245 -2.88855 0
M  V30 2609 C 241.815 -3.06483 -3.12069 0
M  V30 2610 C 240.874 -3.02033 -4.30886 0
M  V30 2611 O 239.9 -3.75907 -4.27414 0
M  V30 2612 N 241.102 -2.20897 -5.36828 0
M  V30 2613 H 243.867 -2.68756 -1.32629 0
M  V30 2614 H 241.428 -1.51036 -0.583083 0
M  V30 2615 H 243.42 -1.7178 -3.66434 0
M  V30 2616 H 241.99 -0.891993 -2.99603 0
M  V30 2617 H 241.21 -3.25474 -2.22396 0
M  V30 2618 H 242.498 -3.91947 -3.2443 0
M  V30 2619 H 241.896 -1.60336 -5.42502 0
M  V30 2620 H 240.453 -2.21275 -6.13091 0
M  V30 2621 N 243.887 0.651787 -1.4349 0
M  V30 2622 C 244.85 1.74647 -1.48429 0
M  V30 2623 C 245.85 1.56513 -0.368817 0
M  V30 2624 O 247.04 1.62385 -0.630623 0
M  V30 2625 C 244.172 3.13533 -1.33827 0
M  V30 2626 H 245.365 1.71649 -2.4592 0
M  V30 2627 H 242.918 0.863573 -1.30277 0
M  V30 2628 H 243.653 3.22142 -0.37349 0
M  V30 2629 H 243.438 3.28101 -2.14691 0
M  V30 2630 H 244.928 3.93356 -1.40218 0
M  V30 2631 N 245.365 1.30045 0.890287 0
M  V30 2632 C 246.781 1.08261 1.17268 0
M  V30 2633 C 246.981 -0.160063 2.00863 0
M  V30 2634 O 246.037 -0.855181 2.37577 0
M  V30 2635 C 247.35 2.34323 1.8845 0
M  V30 2636 C 248.898 2.39735 2.01237 0
M  V30 2637 C 249.373 3.65625 2.7583 0
M  V30 2638 N 250.864 3.66402 2.83379 0
M  V30 2639 C 251.599 4.60498 3.41657 0
M  V30 2640 N 251.095 5.64933 4.01026 0
M  V30 2641 N 252.888 4.48051 3.39421 0
M  V30 2642 H 245.039 2.09777 0.332762 0
M  V30 2643 H 247.302 0.92446 0.209948 0
M  V30 2644 H 247.008 3.2498 1.34465 0
M  V30 2645 H 246.882 2.4256 2.88867 0
M  V30 2646 H 249.269 1.4956 2.54393 0
M  V30 2647 H 249.35 2.35476 0.999232 0
M  V30 2648 H 248.994 4.56156 2.23347 0
M  V30 2649 H 248.924 3.67144 3.77509 0
M  V30 2650 H 251.415 2.90896 2.41222 0
M  V30 2651 H 251.728 6.32841 4.43545 0
M  V30 2652 H 250.073 5.68732 3.99461 0
M  V30 2653 H 253.264 3.65649 2.92264 0
M  V30 2654 H 253.437 5.21565 3.84544 0
M  V30 2655 N 246.843 -1.10192 1.12674 0
M  V30 2656 C 247.773 -2.18652 0.819362 0
M  V30 2657 C 248.754 -1.68698 -0.217915 0
M  V30 2658 O 249.939 -1.94041 -0.0785581 0
M  V30 2659 C 247.069 -3.46202 0.27594 0
M  V30 2660 C 246.023 -4.09444 1.24656 0
M  V30 2661 C 245.349 -5.31725 0.563258 0
M  V30 2662 C 246.649 -4.52863 2.60217 0
M  V30 2663 H 248.343 -2.44622 1.72628 0
M  V30 2664 H 245.889 -1.17571 0.831451 0
M  V30 2665 H 247.842 -4.21372 0.0486149 0
M  V30 2666 H 246.566 -3.1973 -0.666331 0
M  V30 2667 H 245.225 -3.36284 1.45974 0
M  V30 2668 H 244.873 -5.0153 -0.384235 0
M  V30 2669 H 244.573 -5.74991 1.21075 0
M  V30 2670 H 246.097 -6.09624 0.34503 0
M  V30 2671 H 247.511 -5.19294 2.42913 0
M  V30 2672 H 245.908 -5.06986 3.21068 0
M  V30 2673 H 246.978 -3.65656 3.18471 0
M  V30 2674 N 248.321 -0.919034 -1.28029 0
M  V30 2675 C 249.546 -0.570357 -1.99403 0
M  V30 2676 C 249.971 0.842486 -1.68178 0
M  V30 2677 O 249.329 1.56391 -0.917141 0
M  V30 2678 C 249.377 -0.792541 -3.51783 0
M  V30 2679 O 248.481 0.145988 -4.12142 0
M  V30 2680 H 247.822 -0.220555 -0.6263 0
M  V30 2681 H 250.352 -1.23592 -1.63053 0
M  V30 2682 H 250.362 -0.704708 -4.01868 0
M  V30 2683 H 249.037 -1.82247 -3.73844 0
M  V30 2684 H 247.614 0.00897528 -3.72899 0
M  V30 2685 N 249.799 1.42003 -0.683588 0
M  V30 2686 C 250.731 2.29183 0.0283068 0
M  V30 2687 C 251.744 1.4415 0.756611 0
M  V30 2688 O 252.933 1.67779 0.609306 0
M  V30 2689 C 250.033 3.21765 1.06398 0
M  V30 2690 C 249.206 4.35496 0.407723 0
M  V30 2691 C 248.265 5.08737 1.34437 0
M  V30 2692 O 247.291 5.62948 0.841318 0
M  V30 2693 N 248.493 5.15075 2.67728 0
M  V30 2694 H 251.258 2.9092 -0.720105 0
M  V30 2695 H 248.819 1.53025 -0.528682 0
M  V30 2696 H 250.811 3.6763 1.69204 0
M  V30 2697 H 249.381 2.61418 1.71404 0
M  V30 2698 H 248.601 3.92165 -0.400012 0
M  V30 2699 H 249.889 5.08776 -0.0490956 0
M  V30 2700 H 249.287 4.72457 3.11129 0
M  V30 2701 H 247.844 5.64556 3.2576 0
M  V30 2702 N 251.277 0.427512 1.51691 0
M  V30 2703 C 252.207 -0.3796 2.30394 0
M  V30 2704 C 253.188 -1.02982 1.35384 0
M  V30 2705 O 254.373 -1.03534 1.643 0
M  V30 2706 C 251.503 -1.48649 3.1388 0
M  V30 2707 C 250.457 -0.960294 4.17088 0
M  V30 2708 C 249.783 -2.16219 4.89033 0
M  V30 2709 C 251.083 -0.00153679 5.223 0
M  V30 2710 H 252.777 0.277164 2.98114 0
M  V30 2711 H 250.323 0.134739 1.43368 0
M  V30 2712 H 252.276 -2.05826 3.67714 0
M  V30 2713 H 251 -2.1714 2.43962 0
M  V30 2714 H 249.659 -0.410806 3.64291 0
M  V30 2715 H 249.307 -2.83307 4.15628 0
M  V30 2716 H 249.007 -1.81654 5.58816 0
M  V30 2717 H 250.531 -2.73968 5.45687 0
M  V30 2718 H 251.945 -0.482687 5.71264 0
M  V30 2719 H 250.342 0.256199 5.99553 0
M  V30 2720 H 251.412 0.938174 4.75738 0
M  V30 2721 N 252.755 -1.56801 0.158532 0
M  V30 2722 C 253.702 -2.17337 -0.776729 0
M  V30 2723 C 254.672 -1.1096 -1.23601 0
M  V30 2724 O 255.857 -1.39054 -1.30647 0
M  V30 2725 C 252.997 -2.80822 -2.00582 0
M  V30 2726 C 252.11 -4.01624 -1.59129 0
M  V30 2727 C 251.245 -4.53072 -2.77306 0
M  V30 2728 C 250.284 -5.66314 -2.32282 0
M  V30 2729 N 249.421 -6.12329 -3.43508 0
M  V30 2730 H 254.261 -2.96918 -0.253701 0
M  V30 2731 H 251.798 -1.46661 -0.113504 0
M  V30 2732 H 253.756 -3.15779 -2.72652 0
M  V30 2733 H 252.386 -2.03866 -2.50277 0
M  V30 2734 H 251.438 -3.72571 -0.767806 0
M  V30 2735 H 252.75 -4.83633 -1.2207 0
M  V30 2736 H 251.904 -4.90145 -3.57551 0
M  V30 2737 H 250.643 -3.70095 -3.17617 0
M  V30 2738 H 249.648 -5.28806 -1.5048 0
M  V30 2739 H 250.873 -6.51085 -1.93043 0
M  V30 2740 H 248.819 -5.32284 -3.83418 0
M  V30 2741 H 248.736 -6.89293 -3.105 0
M  V30 2742 H 250.004 -6.5405 -4.24075 0
M  V30 2743 N 254.233 0.115231 -1.57178 0
M  V30 2744 C 255.48 0.822351 -1.8505 0
M  V30 2745 C 255.808 1.79701 -0.744168 0
M  V30 2746 O 255.063 1.93909 0.26414 0
M  V30 2747 C 255.362 1.60324 -3.19423 0
M  V30 2748 C 255.028 0.772536 -4.44233 0
M  V30 2749 C 253.69 0.543468 -4.78121 0
M  V30 2750 C 256.042 0.193746 -5.2084 0
M  V30 2751 C 253.37 -0.274583 -5.86057 0
M  V30 2752 C 255.722 -0.611517 -6.29637 0
M  V30 2753 C 254.386 -0.850867 -6.62055 0
M  V30 2754 H 253.656 0.30092 -0.677147 0
M  V30 2755 H 256.303 0.0845802 -1.91313 0
M  V30 2756 H 254.608 2.41203 -3.08753 0
M  V30 2757 H 256.305 2.1544 -3.38211 0
M  V30 2758 H 252.895 0.96117 -4.17683 0
M  V30 2759 H 257.079 0.357926 -4.95008 0
M  V30 2760 H 252.335 -0.469206 -6.09597 0
M  V30 2761 H 256.509 -1.06697 -6.88178 0
M  V30 2762 H 254.136 -1.48657 -7.45523 0
M  V30 2763 N 255.711 1.52812 0.385517 0
M  V30 2764 C 256.941 1.71658 1.14966 0
M  V30 2765 C 257.349 0.436253 1.84102 0
M  V30 2766 O 256.692 -0.599313 1.73649 0
M  V30 2767 C 256.754 2.81309 2.23843 0
M  V30 2768 C 256.418 4.22313 1.74644 0
M  V30 2769 C 257.415 5.05352 1.22129 0
M  V30 2770 C 255.1 4.68648 1.80761 0
M  V30 2771 C 257.094 6.32807 0.763838 0
M  V30 2772 C 254.781 5.96086 1.34627 0
M  V30 2773 C 255.779 6.77996 0.825264 0
M  V30 2774 O 255.467 8.03045 0.370669 0
M  V30 2775 H 255.199 0.578022 0.350523 0
M  V30 2776 H 257.753 2.00263 0.456509 0
M  V30 2777 H 255.983 2.48133 2.96592 0
M  V30 2778 H 257.672 2.88524 2.85497 0
M  V30 2779 H 258.438 4.70736 1.16758 0
M  V30 2780 H 254.317 4.04979 2.20256 0
M  V30 2781 H 257.861 6.96689 0.356494 0
M  V30 2782 H 253.758 6.30205 1.39686 0
M  V30 2783 H 254.526 8.17021 0.491829 0
M  V30 2784 N 257.189 -0.644168 1.43834 0
M  V30 2785 C 258.437 -1.40117 1.45642 0
M  V30 2786 C 258.758 -1.94814 0.0852413 0
M  V30 2787 O 258.028 -1.74988 -0.880688 0
M  V30 2788 H 256.608 -0.52005 0.536243 0
M  V30 2789 H 259.27 -0.7591 1.7951 0
M  V30 2790 H 258.366 -2.23902 2.17427 0
M  V30 2791 N 258.668 -1.30515 -0.883378 0
M  V30 2792 C 259.615 -1.17032 -1.98927 0
M  V30 2793 C 260.585 -0.0594241 -1.65994 0
M  V30 2794 O 261.77 -0.229895 -1.8941 0
M  V30 2795 C 258.91 -0.869777 -3.33959 0
M  V30 2796 C 258.023 -2.06271 -3.79574 0
M  V30 2797 C 257.158 -1.70011 -5.03259 0
M  V30 2798 C 256.197 -2.8579 -5.41286 0
M  V30 2799 N 255.334 -2.49816 -6.56153 0
M  V30 2800 H 260.174 -2.1164 -2.09792 0
M  V30 2801 H 257.711 -1.05296 -1.02719 0
M  V30 2802 H 259.669 -0.676138 -4.11685 0
M  V30 2803 H 258.299 0.0394332 -3.22776 0
M  V30 2804 H 257.351 -2.36755 -2.97744 0
M  V30 2805 H 258.663 -2.92971 -4.03694 0
M  V30 2806 H 257.817 -1.47032 -5.88614 0
M  V30 2807 H 256.556 -0.804829 -4.81013 0
M  V30 2808 H 255.561 -3.09434 -4.54456 0
M  V30 2809 H 256.786 -3.76008 -5.65504 0
M  V30 2810 H 254.732 -1.62795 -6.35479 0
M  V30 2811 H 254.649 -3.30048 -6.8015 0
M  V30 2812 H 255.917 -2.30197 -7.44735 0
M  V30 2813 N 260.146 1.09593 -1.13257 0
M  V30 2814 C 261.094 2.18271 -0.803783 0
M  V30 2815 C 262.088 1.68054 0.213148 0
M  V30 2816 O 263.294 1.79862 0.0704699 0
M  V30 2817 H 259.669 0.711949 -0.242143 0
M  V30 2818 H 261.64 2.43235 -1.72856 0
M  V30 2819 C 260.389 3.46536 -0.28424 0
M  V30 2820 H 259.712 3.85545 -1.05807 0
M  V30 2821 H 261.152 4.23899 -0.0925945 0
M  V30 2822 C 259.611 3.22036 0.989684 0
M  V30 2823 O 260.141 3.44509 2.06584 0
M  V30 2824 N 258.347 2.7565 0.920086 0
M  V30 2825 H 257.894 2.57562 0.0442019 0
M  V30 2826 H 257.852 2.59635 1.77306 0
M  V30 2827 N 261.624 0.925811 1.2754 0
M  V30 2828 C 262.571 0.422045 2.26908 0
M  V30 2829 C 263.541 -0.510029 1.58076 0
M  V30 2830 O 264.726 -0.429599 1.85901 0
M  V30 2831 C 261.866 -0.320837 3.43605 0
M  V30 2832 C 260.979 0.64513 4.27156 0
M  V30 2833 C 260.114 -0.117405 5.3107 0
M  V30 2834 C 259.153 0.841391 6.0629 0
M  V30 2835 N 258.29 0.111604 7.02011 0
M  V30 2836 H 263.13 1.27441 2.69375 0
M  V30 2837 H 260.667 0.639697 1.32462 0
M  V30 2838 H 262.625 -0.76785 4.10073 0
M  V30 2839 H 261.255 -1.13745 3.02096 0
M  V30 2840 H 260.307 1.21067 3.6062 0
M  V30 2841 H 261.619 1.37797 4.79389 0
M  V30 2842 H 260.773 -0.624422 6.03478 0
M  V30 2843 H 259.512 -0.883219 4.79636 0
M  V30 2844 H 258.517 1.35967 5.32722 0
M  V30 2845 H 259.742 1.60696 6.59813 0
M  V30 2846 H 257.688 -0.635999 6.5291 0
M  V30 2847 H 257.605 0.784044 7.51923 0
M  V30 2848 H 258.873 -0.374823 7.78598 0
M  V30 2849 N 263.102 -1.41638 0.69111 0
M  V30 2850 C 264.035 -2.28183 -0.0274913 0
M  V30 2851 C 265.013 -1.41984 -0.792424 0
M  V30 2852 O 266.197 -1.71415 -0.784169 0
M  V30 2853 C 263.324 -3.22135 -1.04628 0
M  V30 2854 C 262.37 -4.24848 -0.375037 0
M  V30 2855 S 263.203 -5.28231 0.879321 0
M  V30 2856 C 264.359 -6.25748 -0.137983 0
M  V30 2857 H 264.592 -2.88782 0.706553 0
M  V30 2858 H 262.125 -1.46709 0.481222 0
M  V30 2859 H 264.083 -3.76797 -1.62894 0
M  V30 2860 H 262.744 -2.6064 -1.75287 0
M  V30 2861 H 261.937 -4.90837 -1.14433 0
M  V30 2862 H 261.539 -3.73758 0.134434 0
M  V30 2863 H 263.831 -6.70188 -0.992659 0
M  V30 2864 H 264.774 -7.06417 0.487867 0
M  V30 2865 H 265.182 -5.62363 -0.490762 0
M  V30 2866 N 264.58 -0.43555 -1.51462 0
M  V30 2867 C 265.528 0.391205 -2.29287 0
M  V30 2868 C 266.522 1.02247 -1.35062 0
M  V30 2869 O 267.728 0.957646 -1.52411 0
M  V30 2870 H 264.103 0.144968 -0.737895 0
M  V30 2871 H 266.074 -0.286051 -2.97026 0
M  V30 2872 C 264.823 1.48096 -3.14583 0
M  V30 2873 H 264.146 1.00457 -3.86973 0
M  V30 2874 H 265.586 2.03273 -3.72097 0
M  V30 2875 C 264.045 2.46321 -2.29843 0
M  V30 2876 O 264.575 3.50815 -1.95682 0
M  V30 2877 N 262.781 2.17166 -1.931 0
M  V30 2878 H 262.328 1.32218 -2.21079 0
M  V30 2879 H 262.286 2.83127 -1.36698 0
M  V30 2880 N 266.058 1.56714 -0.166846 0
M  V30 2881 C 267.286 2.0112 0.485644 0
M  V30 2882 C 267.701 1.04705 1.57106 0
M  V30 2883 O 267.058 0.0471923 1.82439 0
M  V30 2884 C 267.109 3.45361 1.06808 0
M  V30 2885 O 266.83 4.38092 0.0259995 0
M  V30 2886 C 268.331 4.05145 1.79924 0
M  V30 2887 H 265.551 0.65931 0.124704 0
M  V30 2888 H 268.095 2.02746 -0.267262 0
M  V30 2889 H 266.25 3.44524 1.7715 0
M  V30 2890 H 266.664 5.22519 0.455398 0
M  V30 2891 H 268.138 5.08009 2.15942 0
M  V30 2892 H 268.615 3.46982 2.69258 0
M  V30 2893 H 269.221 4.09672 1.14234 0
M  V30 2894 N 267.536 -0.106894 1.57237 0
M  V30 2895 C 268.766 -0.825191 1.89405 0
M  V30 2896 C 269.174 -1.73374 0.757496 0
M  V30 2897 O 268.517 -1.81552 -0.280115 0
M  V30 2898 C 268.579 -1.70102 3.1671 0
M  V30 2899 C 268.243 -0.965523 4.46684 0
M  V30 2900 C 269.24 -0.300741 5.19029 0
M  V30 2901 C 266.925 -0.943105 4.93367 0
M  V30 2902 C 268.919 0.376622 6.36286 0
M  V30 2903 C 266.606 -0.261949 6.10538 0
M  V30 2904 C 267.604 0.396748 6.81847 0
M  V30 2905 O 267.292 1.06701 7.96787 0
M  V30 2906 H 267.024 -0.241852 0.631255 0
M  V30 2907 H 269.578 -0.0921491 2.05193 0
M  V30 2908 H 267.808 -2.47601 2.97036 0
M  V30 2909 H 269.497 -2.29483 3.34802 0
M  V30 2910 H 270.263 -0.309599 4.84011 0
M  V30 2911 H 266.142 -1.44524 4.3776 0
M  V30 2912 H 269.686 0.891334 6.91882 0
M  V30 2913 H 265.583 -0.250896 6.45012 0
M  V30 2914 H 266.351 0.972707 8.127 0
M  V30 2915 N 269.014 -1.53014 -0.377408 0
M  V30 2916 C 270.263 -1.67845 -1.11853 0
M  V30 2917 C 270.576 -0.430625 -1.90801 0
M  V30 2918 O 271.782 -0.459261 -2.67587 0
M  V30 2919 C 270.238 -2.96668 -2.03756 0
M  V30 2920 C 269.846 -4.28671 -1.30175 0
M  V30 2921 C 271.59 -3.20865 -2.77932 0
M  V30 2922 C 269.497 -5.48591 -2.20911 0
M  V30 2923 H 268.427 -0.625343 -0.421263 0
M  V30 2924 H 271.078 -1.79514 -0.380409 0
M  V30 2925 H 269.46 -2.78773 -2.8125 0
M  V30 2926 H 270.634 -4.57157 -0.578259 0
M  V30 2927 H 268.949 -4.10825 -0.679108 0
M  V30 2928 H 271.546 -4.07642 -3.46024 0
M  V30 2929 H 271.889 -2.36424 -3.4265 0
M  V30 2930 H 272.422 -3.39379 -2.07525 0
M  V30 2931 H 269.161 -6.35474 -1.6079 0
M  V30 2932 H 268.681 -5.244 -2.91144 0
M  V30 2933 H 270.36 -5.8292 -2.80736 0
M  V30 2934 N 270.492 0.636531 -1.44174 0
M  V30 2935 C 271.722 1.42146 -1.49927 0
M  V30 2936 C 272.13 1.88812 -0.121063 0
M  V30 2937 O 271.473 1.61126 0.882267 0
M  V30 2938 C 271.535 2.67883 -2.39748 0
M  V30 2939 C 271.199 2.43048 -3.8701 0
M  V30 2940 C 272.196 2.05216 -4.77684 0
M  V30 2941 C 269.881 2.56856 -4.3166 0
M  V30 2942 C 271.875 1.81512 -6.11009 0
M  V30 2943 C 269.562 2.32766 -5.65034 0
M  V30 2944 C 270.56 1.95152 -6.54526 0
M  V30 2945 O 270.248 1.71326 -7.85431 0
M  V30 2946 H 269.98 0.442567 -0.51099 0
M  V30 2947 H 272.534 0.786158 -1.8976 0
M  V30 2948 H 270.764 3.34032 -1.94832 0
M  V30 2949 H 272.453 3.29874 -2.36513 0
M  V30 2950 H 273.219 1.94111 -4.44462 0
M  V30 2951 H 269.098 2.85104 -3.62266 0
M  V30 2952 H 272.642 1.52077 -6.80822 0
M  V30 2953 H 268.539 2.43479 -5.97819 0
M  V30 2954 H 269.307 1.85616 -7.97176 0
M  V30 2955 N 271.97 1.30982 0.876444 0
M  V30 2956 C 273.218 1.20058 1.62575 0
M  V30 2957 C 273.539 -0.242947 1.93481 0
M  V30 2958 O 272.809 -1.1619 1.57724 0
M  V30 2959 H 271.389 0.44135 0.602677 0
M  V30 2960 H 274.051 1.64222 1.04962 0
M  V30 2961 H 273.147 1.76762 2.57219 0
M  V30 2962 N 273.449 -1.08991 1.13837 0
M  V30 2963 C 274.86 -1.62746 0.914917 0
M  V30 2964 C 275.211 -1.88403 -0.547594 0
M  V30 2965 O 274.336 -1.63706 -1.41525 0
M  V30 2966 C 274.931 -2.95662 1.65437 0
M  V30 2967 C 273.49 -3.46225 1.47666 0
M  V30 2968 C 272.637 -2.20562 1.6807 0
M  V30 2969 H 275.588 -0.922946 1.29102 0
M  V30 2970 H 275.609 -3.63825 1.11407 0
M  V30 2971 H 275.121 -2.76956 2.71877 0
M  V30 2972 H 273.222 -3.70046 0.435478 0
M  V30 2973 H 273.335 -4.23368 2.24268 0
M  V30 2974 H 271.699 -2.29439 1.10589 0
M  V30 2975 H 272.482 -2.0437 2.7584 0
M  V30 2976 N 274.927 -0.932562 -1.27047 0
M  V30 2977 C 275.874 -0.434072 -2.26681 0
M  V30 2978 C 276.844 0.501639 -1.58344 0
M  V30 2979 O 278.029 0.419734 -1.86126 0
M  V30 2980 C 275.169 0.30261 -3.43771 0
M  V30 2981 C 274.282 -0.667774 -4.26808 0
M  V30 2982 C 273.417 0.0892393 -5.31125 0
M  V30 2983 C 272.456 -0.873532 -6.05835 0
M  V30 2984 N 271.593 -0.148832 -7.01942 0
M  V30 2985 H 276.433 -1.28868 -2.68695 0
M  V30 2986 H 273.97 -0.646713 -1.32121 0
M  V30 2987 H 275.928 0.746092 -4.10474 0
M  V30 2988 H 274.558 1.12142 -3.02695 0
M  V30 2989 H 273.61 -1.22978 -3.59973 0
M  V30 2990 H 274.922 -1.40337 -4.78651 0
M  V30 2991 H 274.076 0.592409 -6.03801 0
M  V30 2992 H 272.815 0.85777 -4.80097 0
M  V30 2993 H 271.82 -1.38791 -5.31994 0
M  V30 2994 H 273.045 -1.64193 -6.58952 0
M  V30 2995 H 270.991 0.601365 -6.53238 0
M  V30 2996 H 270.908 -0.82391 -7.51497 0
M  V30 2997 H 272.176 0.333527 -7.78786 0
M  V30 2998 N 276.405 1.4127 -0.698611 0
M  V30 2999 C 277.682 1.94955 -0.158762 0
M  V30 3000 C 278.062 1.63781 1.33188 0
M  V30 3001 O 277.41 0.946423 2.07979 0
M  V30 3002 C 277.62 3.46044 -0.453309 0
M  V30 3003 C 278.968 4.22872 -0.382707 0
M  V30 3004 O 279.992 3.54076 -0.388396 0
M  V30 3005 O 278.851 5.45407 -0.345463 0
M  V30 3006 H 275.945 0.82683 -0.0167505 0
M  V30 3007 H 278.491 1.50971 -0.77498 0
M  V30 3008 H 277.263 3.62028 -1.48498 0
M  V30 3009 H 276.886 3.97128 0.19373 0
M  V30 3010 N 277.883 0.443576 1.51229 0
M  V30 3011 C 279.16 -0.181038 1.9476 0
M  V30 3012 C 279.54 -1.59523 1.38259 0
M  V30 3013 O 278.888 -2.2122 0.572198 0
M  V30 3014 C 279.098 -0.152422 3.48667 0
M  V30 3015 C 280.446 -0.354923 4.23114 0
M  V30 3016 O 281.47 -0.230257 3.55455 0
M  V30 3017 O 280.329 -0.603674 5.43156 0
M  V30 3018 H 277.423 -0.1266 0.817252 0
M  V30 3019 H 279.969 0.502004 1.62105 0
M  V30 3020 H 278.741 0.836022 3.82265 0
M  V30 3021 H 278.364 -0.878107 3.87782 0
M  V30 3022 N 279.361 -1.56624 0.175154 0
M  V30 3023 C 280.772 -1.83561 -0.340916 0
M  V30 3024 C 281.123 -1.09511 -1.62794 0
M  V30 3025 O 280.248 -0.349389 -2.13561 0
M  V30 3026 C 280.843 -3.32979 -0.625313 0
M  V30 3027 C 279.402 -3.60399 -1.08581 0
M  V30 3028 C 278.549 -2.77024 -0.123722 0
M  V30 3029 H 281.5 -1.53593 0.399344 0
M  V30 3030 H 281.521 -3.50666 -1.47694 0
M  V30 3031 H 281.033 -3.86847 0.311575 0
M  V30 3032 H 279.134 -3.11945 -2.03767 0
M  V30 3033 H 279.247 -4.68711 -0.992317 0
M  V30 3034 H 277.611 -2.46993 -0.621821 0
M  V30 3035 H 278.394 -3.33674 0.807256 0
M  V30 3036 N 280.839 0.0985539 -1.57292 0
M  V30 3037 C 282.069 0.815135 -1.8984 0
M  V30 3038 C 282.477 1.7297 -0.766679 0
M  V30 3039 O 281.82 1.81698 0.270483 0
M  V30 3040 C 281.882 1.6842 -3.17608 0
M  V30 3041 C 281.546 0.94182 -4.4719 0
M  V30 3042 C 282.543 0.273212 -5.19182 0
M  V30 3043 C 280.228 0.916927 -4.9386 0
M  V30 3044 C 282.222 -0.410361 -6.36078 0
M  V30 3045 C 279.909 0.229567 -6.10669 0
M  V30 3046 C 280.907 -0.432902 -6.81627 0
M  V30 3047 O 280.595 -1.10925 -7.9621 0
M  V30 3048 H 280.327 0.238501 -0.632529 0
M  V30 3049 H 282.881 0.0812659 -2.05239 0
M  V30 3050 H 281.111 2.46022 -2.98345 0
M  V30 3051 H 282.8 2.27704 -3.36015 0
M  V30 3052 H 283.566 0.283927 -4.84168 0
M  V30 3053 H 279.445 1.42201 -4.3852 0
M  V30 3054 H 282.989 -0.928013 -6.914 0
M  V30 3055 H 278.886 0.216686 -6.45136 0
M  V30 3056 H 279.654 -1.01579 -8.12172 0
M  V30 3057 N 282.317 1.53212 0.369288 0
M  V30 3058 C 283.267 1.75769 1.45222 0
M  V30 3059 C 284.251 0.612136 1.48801 0
M  V30 3060 O 285.443 0.870674 1.54105 0
M  V30 3061 C 282.572 1.94769 2.82701 0
M  V30 3062 C 281.658 3.15315 2.83615 0
M  V30 3063 N 282.049 4.37295 2.54178 0
M  V30 3064 C 280.347 3.15962 3.14776 0
M  V30 3065 C 281.048 5.19015 2.62675 0
M  V30 3066 N 280.024 4.55142 2.97232 0
M  V30 3067 H 283.826 2.67691 1.2132 0
M  V30 3068 H 281.34 1.51787 0.577438 0
M  V30 3069 H 283.337 2.09056 3.60696 0
M  V30 3070 H 281.997 1.04073 3.07569 0
M  V30 3071 H 283.008 4.65091 2.27839 0
M  V30 3072 H 279.685 2.35144 3.44983 0
M  V30 3073 H 281.075 6.26305 2.43294 0
M  V30 3074 N 283.795 -0.628877 1.44509 0
M  V30 3075 C 285.02 -1.42048 1.5112 0
M  V30 3076 C 285.445 -1.87594 0.137818 0
M  V30 3077 O 284.803 -1.58873 -0.873437 0
M  V30 3078 C 284.851 -2.61541 2.48251 0
M  V30 3079 O 283.955 -3.61453 1.98559 0
M  V30 3080 H 283.296 -0.424942 0.510216 0
M  V30 3081 H 285.826 -0.767374 1.89664 0
M  V30 3082 H 285.836 -3.09057 2.66361 0
M  V30 3083 H 284.511 -2.27736 3.48007 0
M  V30 3084 H 283.088 -3.20731 1.90227 0
M  V30 3085 N 285.273 -1.31445 -0.869486 0
M  V30 3086 C 286.236 -1.19094 -1.9583 0
M  V30 3087 C 287.236 -0.117906 -1.60367 0
M  V30 3088 O 288.426 -0.367208 -1.70286 0
M  V30 3089 C 285.558 -0.828165 -3.30688 0
M  V30 3090 H 286.751 -2.15842 -2.08212 0
M  V30 3091 H 284.304 -1.15063 -1.05784 0
M  V30 3092 H 285.039 0.138142 -3.24006 0
M  V30 3093 H 284.824 -1.6038 -3.578 0
M  V30 3094 H 286.314 -0.765658 -4.10521 0
M  V30 3095 N 286.751 1.08385 -1.14413 0
M  V30 3096 C 288.162 1.62258 -0.923535 0
M  V30 3097 C 288.513 1.88691 0.537595 0
M  V30 3098 O 287.638 1.64454 1.40655 0
M  V30 3099 C 288.233 2.94781 -1.67002 0
M  V30 3100 C 286.792 3.45437 -1.495 0
M  V30 3101 C 285.939 2.19668 -1.69238 0
M  V30 3102 H 288.89 0.916086 -1.2959 0
M  V30 3103 H 288.911 3.63229 -1.13334 0
M  V30 3104 H 288.423 2.7551 -2.73342 0
M  V30 3105 H 286.524 3.6981 -0.455097 0
M  V30 3106 H 286.637 4.22173 -2.2651 0
M  V30 3107 H 285.001 2.28849 -1.11804 0
M  V30 3108 H 285.784 2.02905 -2.7692 0
M  V30 3109 N 288.23 0.939286 1.26551 0
M  V30 3110 C 289.178 0.43815 2.28436 0
M  V30 3111 C 290.172 -0.483587 1.62351 0
M  V30 3112 O 291.378 -0.362009 1.76322 0
M  V30 3113 H 287.753 0.123149 0.741848 0
M  V30 3114 H 289.724 1.31002 2.68106 0
M  V30 3115 C 288.473 -0.283052 3.46546 0
M  V30 3116 H 287.796 0.417043 3.97619 0
M  V30 3117 H 289.236 -0.597948 4.19763 0
M  V30 3118 C 287.695 -1.50018 3.01656 0
M  V30 3119 O 288.225 -2.59855 3.0633 0
M  V30 3120 N 286.431 -1.35608 2.57019 0
M  V30 3121 H 285.978 -0.46244 2.53415 0
M  V30 3122 H 285.936 -2.17165 2.27347 0
M  V30 3123 N 289.708 -1.40897 0.706093 0
M  V30 3124 C 290.954 -2.01849 0.250681 0
M  V30 3125 C 291.309 -1.5496 -1.14041 0
M  V30 3126 O 290.602 -0.755566 -1.76073 0
M  V30 3127 C 290.796 -3.5646 0.259099 0
M  V30 3128 C 290.625 -4.18357 1.64947 0
M  V30 3129 C 289.395 -4.522 2.25485 0
M  V30 3130 C 291.593 -4.43856 2.598 0
M  V30 3131 N 289.575 -4.9944 3.56977 0
M  V30 3132 C 290.946 -4.92986 3.75985 0
M  V30 3133 C 293.001 -4.25882 2.57933 0
M  V30 3134 C 291.704 -5.2603 4.90597 0
M  V30 3135 C 293.73 -4.6002 3.71665 0
M  V30 3136 C 293.092 -5.09331 4.86581 0
M  V30 3137 H 289.191 -0.769843 0.137353 0
M  V30 3138 H 291.775 -1.71278 0.925845 0
M  V30 3139 H 289.946 -3.86481 -0.385592 0
M  V30 3140 H 291.678 -4.04144 -0.21213 0
M  V30 3141 H 288.433 -4.3901 1.77671 0
M  V30 3142 H 288.857 -5.27454 4.24407 0
M  V30 3143 H 293.499 -3.86986 1.70298 0
M  V30 3144 H 291.217 -5.63843 5.78884 0
M  V30 3145 H 294.803 -4.47762 3.71484 0
M  V30 3146 H 293.683 -5.35251 5.73129 0
M  V30 3147 N 291.186 -0.45159 -1.50991 0
M  V30 3148 C 292.602 -0.104647 -1.59257 0
M  V30 3149 C 292.802 1.38728 -1.4614 0
M  V30 3150 O 291.858 2.15866 -1.30989 0
M  V30 3151 C 293.171 -0.637468 -2.93865 0
M  V30 3152 C 294.719 -0.599166 -3.07212 0
M  V30 3153 C 295.194 -1.1092 -4.44366 0
M  V30 3154 N 296.685 -1.06778 -4.50725 0
M  V30 3155 C 297.42 -1.43314 -5.55201 0
M  V30 3156 N 296.916 -1.87204 -6.67028 0
M  V30 3157 N 298.709 -1.3504 -5.45638 0
M  V30 3158 H 290.86 -1.42214 -1.57762 0
M  V30 3159 H 293.123 -0.586921 -0.744465 0
M  V30 3160 H 292.829 -1.68187 -3.08879 0
M  V30 3161 H 292.703 -0.0702139 -3.77135 0
M  V30 3162 H 295.09 0.436277 -2.91857 0
M  V30 3163 H 295.171 -1.20299 -2.25747 0
M  V30 3164 H 294.815 -2.14318 -4.60467 0
M  V30 3165 H 294.745 -0.481773 -5.24392 0
M  V30 3166 H 297.236 -0.745643 -3.70471 0
M  V30 3167 H 297.549 -2.13282 -7.42786 0
M  V30 3168 H 295.894 -1.91142 -6.68199 0
M  V30 3169 H 299.085 -1.00607 -4.57161 0
M  V30 3170 H 299.258 -1.63841 -6.26945 0
M  V30 3171 N 292.664 1.56529 -0.183458 0
M  V30 3172 C 293.594 2.21549 0.737456 0
M  V30 3173 C 294.575 1.17489 1.23005 0
M  V30 3174 O 295.76 1.45959 1.281 0
M  V30 3175 C 292.89 2.86575 1.96194 0
M  V30 3176 C 291.844 3.96778 1.60473 0
M  V30 3177 C 291.17 4.48911 2.90487 0
M  V30 3178 C 292.47 5.15767 0.823497 0
M  V30 3179 H 294.164 2.98761 0.195453 0
M  V30 3180 H 291.71 1.43702 0.0925686 0
M  V30 3181 H 293.663 3.30739 2.61131 0
M  V30 3182 H 292.387 2.06749 2.52828 0
M  V30 3183 H 291.046 3.53286 0.978997 0
M  V30 3184 H 290.694 3.65862 3.45186 0
M  V30 3185 H 290.394 5.23265 2.67335 0
M  V30 3186 H 291.918 4.95771 3.56432 0
M  V30 3187 H 293.332 5.56549 1.37571 0
M  V30 3188 H 291.729 5.96114 0.690551 0
M  V30 3189 H 292.799 4.84574 -0.177782 0
M  V30 3190 N 294.142 -0.090211 1.57342 0
M  V30 3191 C 295.553 -0.644173 1.75235 0
M  V30 3192 C 295.904 -1.78865 0.806335 0
M  V30 3193 O 295.029 -2.16395 -0.0140128 0
M  V30 3194 C 295.624 -1.17532 3.1776 0
M  V30 3195 C 294.183 -1.67531 3.37061 0
M  V30 3196 C 293.33 -0.58693 2.71017 0
M  V30 3197 H 296.281 0.135884 1.58117 0
M  V30 3198 H 296.302 -2.04455 3.20902 0
M  V30 3199 H 295.814 -0.342138 3.86589 0
M  V30 3200 H 293.915 -2.53234 2.73319 0
M  V30 3201 H 294.028 -1.76493 4.45406 0
M  V30 3202 H 292.392 -1.02756 2.33052 0
M  V30 3203 H 293.175 0.235758 3.4249 0
M  V30 3204 N 295.62 -1.53406 -0.361157 0
M  V30 3205 C 296.85 -1.73465 -1.1222 0
M  V30 3206 C 297.258 -0.465486 -1.83384 0
M  V30 3207 O 296.601 0.571611 -1.7458 0
M  V30 3208 C 296.663 -2.84834 -2.19339 0
M  V30 3209 C 296.327 -4.25038 -1.67903 0
M  V30 3210 C 297.324 -5.07231 -1.14074 0
M  V30 3211 C 295.009 -4.71464 -1.73282 0
M  V30 3212 C 297.003 -6.33942 -0.663068 0
M  V30 3213 C 294.69 -5.98153 -1.25127 0
M  V30 3214 C 295.688 -6.79223 -0.717296 0
M  V30 3215 O 295.376 -8.03533 -0.242865 0
M  V30 3216 H 295.108 -0.583526 -0.341283 0
M  V30 3217 H 297.662 -2.00964 -0.424591 0
M  V30 3218 H 295.892 -2.5282 -2.92607 0
M  V30 3219 H 297.581 -2.9303 -2.80871 0
M  V30 3220 H 298.347 -4.72534 -1.09254 0
M  V30 3221 H 294.226 -4.08432 -2.13786 0
M  V30 3222 H 297.77 -6.97167 -0.245612 0
M  V30 3223 H 293.667 -6.32347 -1.29642 0
M  V30 3224 H 294.435 -8.177 -0.361786 0
M  V30 3225 N 297.098 0.621204 -1.44841 0
M  V30 3226 C 298.509 1.20298 -1.42777 0
M  V30 3227 C 298.86 1.95639 -0.148259 0
M  V30 3228 O 297.985 2.02955 0.750892 0
M  V30 3229 C 298.58 2.1882 -2.58657 0
M  V30 3230 C 297.139 2.72403 -2.59756 0
M  V30 3231 C 296.286 1.4757 -2.34773 0
M  V30 3232 H 299.237 0.411297 -1.53278 0
M  V30 3233 H 299.258 3.01607 -2.31977 0
M  V30 3234 H 298.77 1.63957 -3.51766 0
M  V30 3235 H 296.871 3.31242 -1.70615 0
M  V30 3236 H 296.984 3.17765 -3.58556 0
M  V30 3237 H 295.348 1.76051 -1.8406 0
M  V30 3238 H 296.131 0.945954 -3.3001 0
M  V30 3239 N 298.576 1.31904 0.862503 0
M  V30 3240 C 299.853 1.12644 1.59908 0
M  V30 3241 C 300.233 -0.316104 2.0872 0
M  V30 3242 O 299.581 -1.31145 1.87118 0
M  V30 3243 C 299.791 2.1472 2.7513 0
M  V30 3244 C 301.139 2.47637 3.44907 0
M  V30 3245 O 302.163 2.13205 2.85346 0
M  V30 3246 O 301.022 3.06632 4.52371 0
M  V30 3247 H 298.116 0.43416 0.703871 0
M  V30 3248 H 300.662 1.43408 0.907314 0
M  V30 3249 H 299.434 3.1172 2.3653 0
M  V30 3250 H 299.057 1.84905 3.51989 0
M  V30 3251 N 300.054 -1.07777 1.14986 0
M  V30 3252 C 301.001 -2.14867 0.842672 0
M  V30 3253 C 301.971 -1.6486 -0.202552 0
M  V30 3254 O 303.156 -1.90668 -0.0710568 0
M  V30 3255 C 300.296 -3.43486 0.333363 0
M  V30 3256 C 299.409 -4.07306 1.43965 0
M  V30 3257 C 298.544 -5.23744 0.886914 0
M  V30 3258 C 297.583 -5.79517 1.97043 0
M  V30 3259 N 296.72 -6.87291 1.4344 0
M  V30 3260 H 301.56 -2.40485 1.75986 0
M  V30 3261 H 299.097 -1.1801 0.878179 0
M  V30 3262 H 301.055 -4.17195 0.0198163 0
M  V30 3263 H 299.685 -3.18133 -0.546916 0
M  V30 3264 H 298.737 -3.31293 1.86946 0
M  V30 3265 H 300.049 -4.44771 2.25788 0
M  V30 3266 H 299.203 -6.04419 0.525651 0
M  V30 3267 H 297.942 -4.87685 0.0377957 0
M  V30 3268 H 296.947 -4.97491 2.34057 0
M  V30 3269 H 298.172 -6.17632 2.82325 0
M  V30 3270 H 296.118 -6.5318 0.607567 0
M  V30 3271 H 296.035 -7.23617 2.18895 0
M  V30 3272 H 297.303 -7.71682 1.10124 0
M  V30 3273 N 301.532 -0.945985 -1.26051 0
M  V30 3274 C 302.442 -0.465633 -2.29933 0
M  V30 3275 C 303.458 0.462761 -1.67733 0
M  V30 3276 O 304.634 0.341118 -1.9849 0
M  V30 3277 C 301.699 0.256994 -3.45746 0
M  V30 3278 C 300.76 -0.708549 -4.23412 0
M  V30 3279 C 299.993 -0.0203135 -5.33696 0
M  V30 3280 O 300.216 1.19571 -5.57726 0
M  V30 3281 O 299.15 -0.701459 -5.97799 0
M  V30 3282 H 302.976 -1.32866 -2.73094 0
M  V30 3283 H 300.561 -0.712071 -1.31339 0
M  V30 3284 H 302.443 0.663852 -4.16138 0
M  V30 3285 H 301.118 1.09533 -3.04605 0
M  V30 3286 H 300.025 -1.16545 -3.55483 0
M  V30 3287 H 301.358 -1.51465 -4.68315 0
M  V30 3288 N 303.011 1.40521 -0.713556 0
M  V30 3289 C 303.974 2.29098 -0.0684347 0
M  V30 3290 C 304.974 1.45268 0.689472 0
M  V30 3291 O 306.164 1.66205 0.521677 0
M  V30 3292 C 303.296 3.28446 0.913024 0
M  V30 3293 H 304.489 2.87645 -0.84855 0
M  V30 3294 H 302.042 1.48809 -0.47809 0
M  V30 3295 H 302.777 2.74913 1.72027 0
M  V30 3296 H 302.562 3.90327 0.372472 0
M  V30 3297 H 304.052 3.94777 1.36165 0
M  V30 3298 N 304.489 0.459591 1.5075 0
M  V30 3299 C 305.452 -0.329093 2.26825 0
M  V30 3300 C 306.452 -0.930481 1.31144 0
M  V30 3301 O 307.642 -0.801453 1.54669 0
M  V30 3302 C 304.774 -1.46768 3.07688 0
M  V30 3303 H 305.967 0.337924 2.9799 0
M  V30 3304 H 303.52 0.213336 1.54837 0
M  V30 3305 H 304.255 -2.17009 2.40993 0
M  V30 3306 H 304.04 -1.04238 3.77991 0
M  V30 3307 H 305.53 -2.02433 3.65254 0
M  V30 3308 N 305.967 -1.56429 0.191757 0
M  V30 3309 C 306.899 -2.16154 -0.762245 0
M  V30 3310 C 307.912 -1.12247 -1.17917 0
M  V30 3311 O 309.101 -1.39353 -1.11548 0
M  V30 3312 C 306.201 -2.70606 -2.04024 0
M  V30 3313 C 305.374 -3.99381 -1.78364 0
M  V30 3314 C 304.433 -4.38692 -2.90578 0
M  V30 3315 O 303.459 -5.06179 -2.6033 0
M  V30 3316 N 304.661 -4.01922 -4.18854 0
M  V30 3317 H 307.426 -2.98643 -0.251526 0
M  V30 3318 H 304.987 -1.61897 0.00967373 0
M  V30 3319 H 306.979 -2.93891 -2.78227 0
M  V30 3320 H 305.549 -1.9259 -2.46227 0
M  V30 3321 H 304.769 -3.84262 -0.879581 0
M  V30 3322 H 306.057 -4.83445 -1.58614 0
M  V30 3323 H 305.455 -3.47631 -4.46283 0
M  V30 3324 H 304.012 -4.30165 -4.89695 0
M  V30 3325 N 307.445 0.0818655 -1.57387 0
M  V30 3326 C 308.375 1.09885 -2.06028 0
M  V30 3327 C 309.356 1.4098 -0.951774 0
M  V30 3328 O 310.541 1.50781 -1.22387 0
M  V30 3329 C 307.671 2.4151 -2.4958 0
M  V30 3330 C 306.625 2.24792 -3.64215 0
M  V30 3331 C 305.951 3.61712 -3.93787 0
M  V30 3332 C 307.251 1.67749 -4.94629 0
M  V30 3333 H 308.945 0.694128 -2.91243 0
M  V30 3334 H 306.491 0.332448 -1.4011 0
M  V30 3335 H 308.444 3.12939 -2.82219 0
M  V30 3336 H 307.168 2.83943 -1.61381 0
M  V30 3337 H 305.827 1.55807 -3.31843 0
M  V30 3338 H 305.475 4.01697 -3.02735 0
M  V30 3339 H 305.175 3.51368 -4.70971 0
M  V30 3340 H 306.699 4.34587 -4.28913 0
M  V30 3341 H 308.113 2.29032 -5.25564 0
M  V30 3342 H 306.51 1.68128 -5.76067 0
M  V30 3343 H 307.58 0.638059 -4.80684 0
M  V30 3344 N 308.923 1.53595 0.353017 0
M  V30 3345 C 309.855 1.77219 1.45348 0
M  V30 3346 C 310.868 0.65324 1.49119 0
M  V30 3347 O 312.057 0.929775 1.52373 0
M  V30 3348 C 309.157 1.84841 2.84055 0
M  V30 3349 C 308.33 3.14649 3.03833 0
M  V30 3350 C 307.389 3.13351 4.22727 0
M  V30 3351 O 306.415 3.87107 4.17297 0
M  V30 3352 N 307.617 2.35052 5.30783 0
M  V30 3353 H 310.382 2.72178 1.25457 0
M  V30 3354 H 307.943 1.52528 0.542833 0
M  V30 3355 H 309.935 1.81435 3.61751 0
M  V30 3356 H 308.505 0.971114 2.97133 0
M  V30 3357 H 307.725 3.31256 2.13689 0
M  V30 3358 H 309.013 4.00411 3.13925 0
M  V30 3359 H 308.411 1.74663 5.38061 0
M  V30 3360 H 306.968 2.37453 6.07009 0
M  V30 3361 N 310.401 -0.613514 1.45168 0
M  V30 3362 C 311.311 -1.75296 1.55912 0
M  V30 3363 C 312.327 -1.68244 0.443856 0
M  V30 3364 O 313.503 -1.88706 0.70371 0
M  V30 3365 C 310.568 -3.1174 1.5172 0
M  V30 3366 C 309.629 -3.30291 2.74238 0
M  V30 3367 C 308.862 -4.60226 2.70236 0
M  V30 3368 O 309.085 -5.42168 1.77229 0
M  V30 3369 O 308.019 -4.81361 3.61352 0
M  V30 3370 H 311.845 -1.69183 2.52212 0
M  V30 3371 H 309.43 -0.776886 1.27612 0
M  V30 3372 H 311.312 -3.93044 1.51968 0
M  V30 3373 H 309.987 -3.18357 0.585697 0
M  V30 3374 H 308.894 -2.48598 2.79553 0
M  V30 3375 H 310.227 -3.28547 3.66494 0
M  V30 3376 N 311.879 -1.3236 -0.855495 0
M  V30 3377 C 312.809 -1.23833 -1.97958 0
M  V30 3378 C 313.79 -0.122361 -1.69659 0
M  V30 3379 O 314.975 -0.30939 -1.9172 0
M  V30 3380 C 312.105 -0.959772 -3.33775 0
M  V30 3381 C 311.059 -2.03689 -3.76424 0
M  V30 3382 C 310.385 -1.61075 -5.09862 0
M  V30 3383 C 311.685 -3.4518 -3.9198 0
M  V30 3384 H 313.379 -2.1788 -2.0535 0
M  V30 3385 H 310.925 -1.04891 -0.986605 0
M  V30 3386 H 312.878 -0.886678 -4.11966 0
M  V30 3387 H 311.602 0.0163404 -3.26596 0
M  V30 3388 H 310.261 -2.10012 -3.00484 0
M  V30 3389 H 309.909 -0.622107 -4.99138 0
M  V30 3390 H 309.609 -2.33143 -5.39368 0
M  V30 3391 H 311.133 -1.55201 -5.90546 0
M  V30 3392 H 312.547 -3.4145 -4.60526 0
M  V30 3393 H 310.944 -4.1559 -4.32903 0
M  V30 3394 H 312.014 -3.84903 -2.94919 0
M  V30 3395 N 313.357 1.07166 -1.15556 0
M  V30 3396 C 314.603 1.80065 -0.932984 0
M  V30 3397 C 314.936 1.86586 0.53845 0
M  V30 3398 O 314.211 1.35098 1.39924 0
M  V30 3399 C 314.494 3.25022 -1.55025 0
M  V30 3400 C 314.347 3.26634 -3.09242 0
M  V30 3401 C 315.666 4.22341 -1.2376 0
M  V30 3402 H 312.785 0.653697 -0.340366 0
M  V30 3403 H 315.427 1.25389 -1.4275 0
M  V30 3404 H 313.577 3.71712 -1.12972 0
M  V30 3405 H 315.249 2.88173 -3.60214 0
M  V30 3406 H 313.492 2.65539 -3.43033 0
M  V30 3407 H 314.163 4.28854 -3.47546 0
M  V30 3408 H 316.639 3.8405 -1.60139 0
M  V30 3409 H 315.515 5.22053 -1.69564 0
M  V30 3410 H 315.776 4.41828 -0.154938 0
M  V30 3411 N 314.835 0.952656 1.25548 0
M  V30 3412 C 315.798 0.475794 2.24207 0
M  V30 3413 C 316.798 -0.419428 1.55234 0
M  V30 3414 O 317.988 -0.216994 1.72843 0
M  V30 3415 C 315.12 -0.312814 3.39462 0
M  V30 3416 H 316.313 1.34779 2.67908 0
M  V30 3417 H 313.866 0.735739 1.37901 0
M  V30 3418 H 314.601 -1.20257 3.01179 0
M  V30 3419 H 314.386 0.329404 3.90714 0
M  V30 3420 H 315.876 -0.635986 4.12729 0
M  V30 3421 N 316.313 -1.40141 0.720998 0
M  V30 3422 C 317.559 -2.01084 0.263231 0
M  V30 3423 C 317.892 -1.57052 -1.14229 0
M  V30 3424 O 317.167 -0.793027 -1.77599 0
M  V30 3425 C 317.45 -3.58401 0.349344 0
M  V30 3426 C 317.303 -4.12491 1.79363 0
M  V30 3427 C 318.622 -4.39231 -0.276351 0
M  V30 3428 H 315.741 -0.730572 0.0971228 0
M  V30 3429 H 318.383 -1.66543 0.914518 0
M  V30 3430 H 316.533 -3.87958 -0.205165 0
M  V30 3431 H 318.205 -3.93711 2.40394 0
M  V30 3432 H 316.448 -3.66576 2.31958 0
M  V30 3433 H 317.119 -5.21646 1.80524 0
M  V30 3434 H 319.595 -4.15637 0.196184 0
M  V30 3435 H 318.471 -5.48586 -0.185681 0
M  V30 3436 H 318.732 -4.20643 -1.36059 0
M  V30 3437 N 317.792 -0.46758 -1.50504 0
M  V30 3438 C 318.755 0.317059 -2.26996 0
M  V30 3439 C 319.755 0.923513 -1.31635 0
M  V30 3440 O 320.945 0.793239 -1.55091 0
M  V30 3441 C 318.077 1.45134 -3.08462 0
M  V30 3442 H 319.27 -0.353723 -2.97807 0
M  V30 3443 H 316.823 -0.221545 -1.54722 0
M  V30 3444 H 317.558 2.15728 -2.4214 0
M  V30 3445 H 317.343 1.02232 -3.78538 0
M  V30 3446 H 318.833 2.00493 -3.66323 0
M  V30 3447 N 319.27 1.56325 -0.20005 0
M  V30 3448 C 320.218 2.20666 0.735482 0
M  V30 3449 C 321.212 1.17934 1.21605 0
M  V30 3450 O 322.418 1.36068 1.17837 0
M  V30 3451 H 318.793 0.70725 0.255542 0
M  V30 3452 H 320.764 2.9792 0.169166 0
M  V30 3453 C 319.513 2.88391 1.94232 0
M  V30 3454 H 318.836 3.67185 1.58161 0
M  V30 3455 H 320.276 3.3684 2.57517 0
M  V30 3456 C 318.735 1.89692 2.78421 0
M  V30 3457 O 319.265 1.40032 3.76502 0
M  V30 3458 N 317.471 1.57813 2.44015 0
M  V30 3459 H 317.018 1.9839 1.64314 0
M  V30 3460 H 316.976 0.920325 3.00628 0
M  V30 3461 N 320.748 -0.0735177 1.57428 0
M  V30 3462 C 321.658 -1.10547 2.06922 0
M  V30 3463 C 322.674 -1.42506 0.998402 0
M  V30 3464 O 323.85 -1.52717 1.31299 0
M  V30 3465 C 320.915 -2.40019 2.50184 0
M  V30 3466 C 319.976 -2.15046 3.71556 0
M  V30 3467 C 319.209 -3.38345 4.12745 0
M  V30 3468 O 319.432 -4.47399 3.53822 0
M  V30 3469 O 318.366 -3.2666 5.05546 0
M  V30 3470 H 322.192 -0.715013 2.95163 0
M  V30 3471 H 319.777 -0.287531 1.46607 0
M  V30 3472 H 321.659 -3.16218 2.78539 0
M  V30 3473 H 320.334 -2.78447 1.65072 0
M  V30 3474 H 319.241 -1.36558 3.48285 0
M  V30 3475 H 320.574 -1.81499 4.57514 0
M  V30 3476 N 322.226 -1.5378 -0.344866 0
M  V30 3477 C 323.174 -1.82373 -1.4437 0
M  V30 3478 C 324.168 -0.694128 -1.54526 0
M  V30 3479 O 325.374 -0.877442 -1.57165 0
M  V30 3480 H 321.749 -0.577765 -0.481344 0
M  V30 3481 H 323.72 -2.74306 -1.17468 0
M  V30 3482 C 322.469 -2.04898 -2.80913 0
M  V30 3483 H 321.792 -2.9127 -2.73865 0
M  V30 3484 H 323.232 -2.28871 -3.56923 0
M  V30 3485 C 321.691 -0.834116 -3.26411 0
M  V30 3486 O 322.221 -0.0328885 -4.01687 0
M  V30 3487 N 320.427 -0.65171 -2.83198 0
M  V30 3488 H 319.974 -1.30489 -2.22104 0
M  V30 3489 H 319.932 0.159686 -3.13994 0
M  V30 3490 N 323.704 0.605807 -1.45491 0
M  V30 3491 C 324.614 1.74466 -1.56839 0
M  V30 3492 C 325.63 1.68006 -0.452772 0
M  V30 3493 O 326.806 1.8833 -0.713708 0
M  V30 3494 C 323.871 3.10931 -1.53371 0
M  V30 3495 C 322.932 3.28832 -2.75986 0
M  V30 3496 C 322.165 4.58787 -2.72673 0
M  V30 3497 O 322.388 5.4122 -1.80102 0
M  V30 3498 O 321.322 4.79438 -3.63899 0
M  V30 3499 H 325.148 1.67843 -2.53106 0
M  V30 3500 H 322.733 0.770108 -1.28022 0
M  V30 3501 H 324.615 3.92233 -1.54051 0
M  V30 3502 H 323.29 3.18042 -0.602572 0
M  V30 3503 H 322.197 2.47112 -2.80867 0
M  V30 3504 H 323.53 3.26599 -3.68231 0
M  V30 3505 N 325.182 1.32811 0.848464 0
M  V30 3506 C 326.428 1.23907 1.60546 0
M  V30 3507 C 326.761 -0.197161 1.93197 0
M  V30 3508 O 326.036 -1.13596 1.5788 0
M  V30 3509 C 326.319 2.10489 2.92175 0
M  V30 3510 C 326.172 3.62522 2.66266 0
M  V30 3511 C 327.491 1.97075 3.93509 0
M  V30 3512 H 324.61 0.451459 0.58254 0
M  V30 3513 H 327.252 1.62818 0.979296 0
M  V30 3514 H 325.402 1.77434 3.45614 0
M  V30 3515 H 327.074 4.05821 2.19334 0
M  V30 3516 H 325.317 3.84879 2.00126 0
M  V30 3517 H 325.988 4.18437 3.6002 0
M  V30 3518 H 328.464 2.26045 3.49346 0
M  V30 3519 H 327.34 2.59923 4.83457 0
M  V30 3520 H 327.601 0.940186 4.31987 0
M  V30 3521 N 326.66 -1.06551 1.16123 0
M  V30 3522 C 327.937 -1.76097 0.85142 0
M  V30 3523 C 328.317 -2.00802 -0.6513 0
M  V30 3524 O 327.665 -1.63302 -1.59827 0
M  V30 3525 C 327.875 -3.06384 1.67122 0
M  V30 3526 C 329.223 -3.80585 1.88255 0
M  V30 3527 O 330.247 -3.16218 1.63966 0
M  V30 3528 O 329.106 -4.96212 2.2899 0
M  V30 3529 H 326.2 -0.765102 0.313923 0
M  V30 3530 H 328.746 -1.12844 1.26745 0
M  V30 3531 H 327.518 -2.84071 2.69108 0
M  V30 3532 H 327.141 -3.77371 1.25206 0
M  V30 3533 N 328.138 -0.959301 -1.25041 0
M  V30 3534 C 329.385 -0.616611 -1.92884 0
M  V30 3535 C 329.713 0.847036 -1.75087 0
M  V30 3536 O 328.968 1.62374 -1.09239 0
M  V30 3537 C 329.267 -0.927136 -3.45165 0
M  V30 3538 C 328.933 -2.37757 -3.83122 0
M  V30 3539 C 327.595 -2.77402 -3.93194 0
M  V30 3540 C 329.947 -3.31929 -4.01836 0
M  V30 3541 C 327.275 -4.10277 -4.19392 0
M  V30 3542 C 329.627 -4.64423 -4.29528 0
M  V30 3543 C 328.291 -5.03857 -4.37818 0
M  V30 3544 H 327.561 -0.225634 -0.705812 0
M  V30 3545 H 330.208 -1.20921 -1.48493 0
M  V30 3546 H 328.513 -0.252195 -3.90987 0
M  V30 3547 H 330.21 -0.6405 -3.95852 0
M  V30 3548 H 326.8 -2.06013 -3.75841 0
M  V30 3549 H 330.984 -3.02488 -3.93465 0
M  V30 3550 H 326.24 -4.40467 -4.24027 0
M  V30 3551 H 330.414 -5.37369 -4.42953 0
M  V30 3552 H 328.041 -6.06843 -4.57871 0
M  V30 3553 N 329.616 1.39756 -0.72842 0
M  V30 3554 C 330.862 2.00942 -0.273892 0
M  V30 3555 C 331.195 1.57656 1.13394 0
M  V30 3556 O 330.47 0.802434 1.77176 0
M  V30 3557 C 330.753 3.58211 -0.368346 0
M  V30 3558 C 330.606 4.11534 -1.81548 0
M  V30 3559 C 331.925 4.39372 0.253054 0
M  V30 3560 H 329.044 0.730047 -0.100996 0
M  V30 3561 H 331.686 1.66056 -0.923337 0
M  V30 3562 H 329.836 3.88061 0.184588 0
M  V30 3563 H 331.508 3.92431 -2.42478 0
M  V30 3564 H 329.751 3.65341 -2.33898 0
M  V30 3565 H 330.422 5.20682 -1.83288 0
M  V30 3566 H 332.898 4.15527 -0.218224 0
M  V30 3567 H 331.774 5.48677 0.156585 0
M  V30 3568 H 332.035 4.21358 1.33826 0
M  V30 3569 N 331.094 0.475555 1.50254 0
M  V30 3570 C 332.34 -0.0701075 2.03279 0
M  V30 3571 C 332.695 -1.37007 1.35081 0
M  V30 3572 O 331.988 -1.8577 0.469052 0
M  V30 3573 C 332.182 -0.305114 3.56095 0
M  V30 3574 C 332.011 0.970515 4.39103 0
M  V30 3575 C 330.781 1.51509 4.82051 0
M  V30 3576 C 332.979 1.8671 4.79212 0
M  V30 3577 N 330.961 2.73928 5.49397 0
M  V30 3578 C 332.332 2.93715 5.46014 0
M  V30 3579 C 334.387 1.87695 4.61167 0
M  V30 3580 C 333.09 4.01699 5.96683 0
M  V30 3581 C 335.116 2.94637 5.12779 0
M  V30 3582 C 334.478 4.00361 5.79561 0
M  V30 3583 H 330.577 0.014486 0.781866 0
M  V30 3584 H 333.161 0.644755 1.83714 0
M  V30 3585 H 331.332 -0.989019 3.75597 0
M  V30 3586 H 333.064 -0.845516 3.95769 0
M  V30 3587 H 329.819 1.06367 4.61501 0
M  V30 3588 H 330.243 3.36109 5.87673 0
M  V30 3589 H 334.885 1.07273 4.08965 0
M  V30 3590 H 332.603 4.82934 6.4792 0
M  V30 3591 H 336.189 2.96388 5.00645 0
M  V30 3592 H 335.069 4.81751 6.18778 0
M  V30 3593 N 332.573 -1.56217 0.208337 0
M  V30 3594 C 333.536 -2.18455 -0.693557 0
M  V30 3595 C 334.536 -1.14268 -1.13135 0
M  V30 3596 O 335.726 -1.39577 -1.0423 0
M  V30 3597 C 332.858 -2.79727 -1.94848 0
M  V30 3598 H 334.051 -2.99519 -0.15114 0
M  V30 3599 H 331.604 -1.56245 -0.041287 0
M  V30 3600 H 332.339 -2.02497 -2.53309 0
M  V30 3601 H 332.124 -3.56009 -1.64316 0
M  V30 3602 H 333.614 -3.27475 -2.59133 0
M  V30 3603 N 334.051 0.0651679 -1.57465 0
M  V30 3604 C 335.3 0.761916 -1.86756 0
M  V30 3605 C 335.613 1.78406 -0.801925 0
M  V30 3606 O 336.819 2.53084 -0.982885 0
M  V30 3607 C 335.275 1.40603 -3.31299 0
M  V30 3608 C 334.883 0.422115 -4.46007 0
M  V30 3609 C 336.627 2.08476 -3.69781 0
M  V30 3610 C 334.534 1.07252 -5.81593 0
M  V30 3611 H 333.464 0.288308 -0.696702 0
M  V30 3612 H 336.115 0.015344 -1.83494 0
M  V30 3613 H 334.497 2.20109 -3.29193 0
M  V30 3614 H 335.671 -0.343613 -4.59517 0
M  V30 3615 H 333.986 -0.152527 -4.16121 0
M  V30 3616 H 336.583 2.57925 -4.68379 0
M  V30 3617 H 336.926 2.88712 -2.99919 0
M  V30 3618 H 337.459 1.35792 -3.73905 0
M  V30 3619 H 334.198 0.310342 -6.54765 0
M  V30 3620 H 333.718 1.80895 -5.71872 0
M  V30 3621 H 335.397 1.59043 -6.27148 0
M  V30 3622 N 335.529 1.53961 0.336706 0
M  V30 3623 C 336.479 1.7881 1.41461 0
M  V30 3624 C 337.463 0.643561 1.47469 0
M  V30 3625 O 338.655 0.903166 1.52223 0
M  V30 3626 C 335.784 2.00722 2.78506 0
M  V30 3627 C 334.87 3.2126 2.76862 0
M  V30 3628 N 335.261 4.42588 2.44845 0
M  V30 3629 C 333.559 3.22568 3.08004 0
M  V30 3630 C 334.26 5.2447 2.51607 0
M  V30 3631 N 333.236 4.61344 2.87511 0
M  V30 3632 H 337.038 2.70205 1.15615 0
M  V30 3633 H 334.552 1.52978 0.545112 0
M  V30 3634 H 336.549 2.1666 3.5618 0
M  V30 3635 H 335.209 1.10573 3.05293 0
M  V30 3636 H 336.22 4.69819 2.17922 0
M  V30 3637 H 332.897 2.42409 3.39918 0
M  V30 3638 H 334.287 6.31324 2.29955 0
M  V30 3639 N 337.007 -0.598083 1.45811 0
M  V30 3640 C 338.418 -1.18011 1.44673 0
M  V30 3641 C 338.769 -1.95378 0.179364 0
M  V30 3642 O 337.894 -2.04124 -0.718509 0
M  V30 3643 C 338.489 -2.14677 2.62105 0
M  V30 3644 C 337.048 -2.68236 2.64057 0
M  V30 3645 C 336.195 -1.43816 2.37091 0
M  V30 3646 H 339.146 -0.38686 1.53913 0
M  V30 3647 H 339.167 -2.97878 2.36746 0
M  V30 3648 H 338.679 -1.5834 3.5433 0
M  V30 3649 H 336.78 -3.28486 1.75864 0
M  V30 3650 H 336.893 -3.12021 3.63566 0
M  V30 3651 H 335.257 -1.731 1.86838 0
M  V30 3652 H 336.04 -0.893333 3.31473 0
M  V30 3653 N 338.485 -1.33259 -0.841409 0
M  V30 3654 C 339.733 -1.24326 -1.59334 0
M  V30 3655 C 340.054 0.191564 -1.94057 0
M  V30 3656 O 339.324 1.11967 -1.60749 0
M  V30 3657 H 337.904 -0.457174 -0.590763 0
M  V30 3658 H 340.566 -1.66947 -1.00571 0
M  V30 3659 H 339.662 -1.8352 -2.52442 0
M  V30 3660 N 339.963 1.05934 -1.16686 0
M  V30 3661 C 340.895 2.13468 -0.834503 0
M  V30 3662 C 341.908 1.62013 0.15984 0
M  V30 3663 O 343.097 1.7838 -0.0654228 0
M  V30 3664 C 340.197 3.3817 -0.222361 0
M  V30 3665 C 339.37 4.18928 -1.25771 0
M  V30 3666 C 338.429 5.21985 -0.664703 0
M  V30 3667 O 337.455 5.53334 -1.33453 0
M  V30 3668 N 338.657 5.77919 0.546834 0
M  V30 3669 H 341.422 2.42578 -1.75999 0
M  V30 3670 H 338.983 1.21967 -1.06469 0
M  V30 3671 H 340.975 4.04266 0.187472 0
M  V30 3672 H 339.545 3.06655 0.606758 0
M  V30 3673 H 338.765 3.48433 -1.84358 0
M  V30 3674 H 340.053 4.69687 -1.95631 0
M  V30 3675 H 339.451 5.54721 1.10912 0
M  V30 3676 H 338.008 6.45573 0.898829 0
M  V30 3677 N 341.441 0.965919 1.2453 0
M  V30 3678 C 342.718 0.543777 1.87889 0
M  V30 3679 C 343.098 -0.97909 1.87021 0
M  V30 3680 O 342.446 -1.84969 1.3416 0
M  V30 3681 C 342.656 1.13327 3.30088 0
M  V30 3682 C 344.004 1.21707 4.06783 0
M  V30 3683 O 345.028 1.08566 3.39252 0
M  V30 3684 O 343.887 1.42456 5.27606 0
M  V30 3685 H 340.981 0.181054 0.806938 0
M  V30 3686 H 343.527 1.06007 1.32516 0
M  V30 3687 H 342.299 2.17612 3.25209 0
M  V30 3688 H 341.922 0.600911 3.93033 0
M  V30 3689 N 342.919 -1.39368 0.735821 0
M  V30 3690 C 344.168 -1.99733 0.281004 0
M  V30 3691 C 344.481 -1.59055 -1.13846 0
M  V30 3692 O 345.687 -2.12262 -1.69284 0
M  V30 3693 C 344.143 -3.57057 0.451462 0
M  V30 3694 C 343.751 -4.06697 1.87886 0
M  V30 3695 C 345.495 -4.2446 0.0584616 0
M  V30 3696 C 343.402 -5.56598 1.99883 0
M  V30 3697 H 342.332 -0.747163 0.101311 0
M  V30 3698 H 344.983 -1.59357 0.909819 0
M  V30 3699 H 343.365 -3.95234 -0.246263 0
M  V30 3700 H 344.539 -3.79853 2.60861 0
M  V30 3701 H 342.854 -3.5196 2.22515 0
M  V30 3702 H 345.451 -5.34549 0.127099 0
M  V30 3703 H 345.794 -4.04444 -0.986433 0
M  V30 3704 H 346.327 -3.9146 0.707374 0
M  V30 3705 H 343.066 -5.81494 3.02564 0
M  V30 3706 H 342.586 -5.85242 1.31346 0
M  V30 3707 H 344.265 -6.22022 1.78039 0
M  V30 3708 N 344.397 -0.483516 -1.5 0
M  V30 3709 C 345.344 0.304164 -2.28787 0
M  V30 3710 C 346.314 0.976114 -1.34392 0
M  V30 3711 O 347.499 0.986156 -1.63339 0
M  V30 3712 C 344.639 1.37298 -3.16612 0
M  V30 3713 C 343.752 0.714561 -4.26049 0
M  V30 3714 C 342.887 1.76232 -5.01114 0
M  V30 3715 C 341.926 1.08483 -6.0241 0
M  V30 3716 N 341.063 2.076 -6.70706 0
M  V30 3717 H 345.903 -0.373981 -2.95644 0
M  V30 3718 H 343.44 -0.196275 -1.45785 0
M  V30 3719 H 345.398 2.00445 -3.65893 0
M  V30 3720 H 344.028 2.02012 -2.51776 0
M  V30 3721 H 343.08 -0.0297798 -3.80388 0
M  V30 3722 H 344.392 0.180383 -4.98474 0
M  V30 3723 H 343.546 2.46929 -5.54176 0
M  V30 3724 H 342.285 2.33033 -4.28424 0
M  V30 3725 H 341.29 0.363545 -5.48597 0
M  V30 3726 H 342.515 0.523551 -6.77079 0
M  V30 3727 H 340.461 2.63394 -6.00799 0
M  V30 3728 H 340.378 1.59201 -7.39047 0
M  V30 3729 H 341.646 2.77639 -7.2838 0
M  V30 3730 N 345.875 1.56104 -0.216619 0
M  V30 3731 C 347.121 1.99219 0.410301 0
M  V30 3732 C 347.476 1.10169 1.57735 0
M  V30 3733 O 346.769 0.150598 1.91007 0
M  V30 3734 C 346.963 3.45923 0.898464 0
M  V30 3735 C 346.792 4.49163 -0.219748 0
M  V30 3736 C 345.562 5.00642 -0.684516 0
M  V30 3737 C 347.76 5.03751 -1.03629 0
M  V30 3738 N 345.742 5.87579 -1.7783 0
M  V30 3739 C 347.113 5.87566 -1.97904 0
M  V30 3740 C 349.168 4.86128 -1.07629 0
M  V30 3741 C 347.871 6.5564 -2.95851 0
M  V30 3742 C 349.897 5.54958 -2.04392 0
M  V30 3743 C 349.259 6.38536 -2.97407 0
M  V30 3744 H 345.358 0.773206 0.11695 0
M  V30 3745 H 347.942 1.9193 -0.327258 0
M  V30 3746 H 346.113 3.53669 1.6054 0
M  V30 3747 H 347.845 3.75963 1.49779 0
M  V30 3748 H 344.6 4.72807 -0.27399 0
M  V30 3749 H 345.024 6.3575 -2.32705 0
M  V30 3750 H 349.666 4.21168 -0.371099 0
M  V30 3751 H 347.384 7.19785 -3.67335 0
M  V30 3752 H 350.97 5.43289 -2.08154 0
M  V30 3753 H 349.85 6.90858 -3.71059 0
M  V30 3754 N 347.353 -0.0568162 1.57498 0
M  V30 3755 C 348.301 -1.08452 2.05769 0
M  V30 3756 C 349.295 -1.39164 0.965903 0
M  V30 3757 O 350.501 -1.38395 1.15095 0
M  V30 3758 H 346.876 -0.367148 0.656282 0
M  V30 3759 H 348.847 -0.651368 2.91204 0
M  V30 3760 C 347.596 -2.38543 2.52968 0
M  V30 3761 H 346.919 -2.15765 3.36579 0
M  V30 3762 H 348.359 -3.08863 2.90481 0
M  V30 3763 C 346.818 -3.05562 1.41893 0
M  V30 3764 O 347.348 -3.94262 0.769442 0
M  V30 3765 N 345.554 -2.6643 1.16032 0
M  V30 3766 H 345.101 -1.94387 1.6903 0
M  V30 3767 H 345.059 -3.11593 0.419219 0
M  V30 3768 N 348.832 -1.54138 -0.328536 0
M  V30 3769 C 349.779 -1.83176 -1.40411 0
M  V30 3770 C 350.749 -0.678494 -1.5161 0
M  V30 3771 O 351.934 -0.92443 -1.6691 0
M  V30 3772 C 349.074 -2.06035 -2.76846 0
M  V30 3773 C 348.187 -3.33727 -2.74318 0
M  V30 3774 C 347.322 -3.46574 -4.02567 0
M  V30 3775 C 346.361 -4.68159 -3.94327 0
M  V30 3776 N 345.498 -4.77959 -5.14296 0
M  V30 3777 H 350.338 -2.74938 -1.14948 0
M  V30 3778 H 347.875 -1.36166 -0.556538 0
M  V30 3779 H 349.833 -2.1728 -3.56153 0
M  V30 3780 H 348.463 -1.1757 -3.00628 0
M  V30 3781 H 347.515 -3.31246 -1.8703 0
M  V30 3782 H 348.827 -4.23139 -2.64111 0
M  V30 3783 H 347.981 -3.57333 -4.90304 0
M  V30 3784 H 346.72 -2.55245 -4.15574 0
M  V30 3785 H 345.725 -4.57461 -3.04974 0
M  V30 3786 H 346.95 -5.60868 -3.82889 0
M  V30 3787 H 344.896 -3.89544 -5.27818 0
M  V30 3788 H 344.813 -5.6133 -5.06404 0
M  V30 3789 H 346.081 -4.93044 -6.03761 0
M  V30 3790 N 350.31 0.590341 -1.46126 0
M  V30 3791 C 351.22 1.72793 -1.58681 0
M  V30 3792 C 352.236 1.67516 -0.470566 0
M  V30 3793 O 353.412 1.87562 -0.733642 0
M  V30 3794 C 350.477 3.09287 -1.5666 0
M  V30 3795 C 349.538 3.25886 -2.79458 0
M  V30 3796 C 348.771 4.55869 -2.77524 0
M  V30 3797 O 348.994 5.3928 -1.85832 0
M  V30 3798 O 347.928 4.75552 -3.68964 0
M  V30 3799 H 351.754 1.65149 -2.54872 0
M  V30 3800 H 349.339 0.756486 -1.28832 0
M  V30 3801 H 351.221 3.90577 -1.58202 0
M  V30 3802 H 349.896 3.17385 -0.636271 0
M  V30 3803 H 348.803 2.44119 -2.83472 0
M  V30 3804 H 350.136 3.22675 -3.71674 0
M  V30 3805 N 351.788 1.33704 0.83433 0
M  V30 3806 C 353.065 1.16011 1.57483 0
M  V30 3807 C 353.445 -0.27176 2.09343 0
M  V30 3808 O 352.793 -1.27146 1.89858 0
M  V30 3809 C 353.003 2.20507 2.70514 0
M  V30 3810 C 354.351 2.54898 3.39577 0
M  V30 3811 O 355.375 2.19209 2.80759 0
M  V30 3812 O 354.234 3.16158 4.45765 0
M  V30 3813 H 351.328 0.448992 0.694503 0
M  V30 3814 H 353.874 1.453 0.876691 0
M  V30 3815 H 352.646 3.16667 2.29865 0
M  V30 3816 H 352.269 1.92329 3.47987 0
M  V30 3817 N 353.266 -1.05314 1.17247 0
M  V30 3818 C 354.682 -1.30452 0.919473 0
M  V30 3819 C 354.882 -1.9703 -0.42209 0
M  V30 3820 O 353.938 -2.24311 -1.15935 0
M  V30 3821 C 355.251 -2.17551 2.07586 0
M  V30 3822 C 356.799 -2.30937 2.11275 0
M  V30 3823 C 357.274 -3.21396 3.26296 0
M  V30 3824 N 358.765 -3.28981 3.26076 0
M  V30 3825 C 359.5 -3.99095 4.11716 0
M  V30 3826 N 358.996 -4.71648 5.07465 0
M  V30 3827 N 360.789 -3.95247 3.9967 0
M  V30 3828 H 352.94 -0.604988 2.03602 0
M  V30 3829 H 355.203 -0.329368 0.888944 0
M  V30 3830 H 354.909 -1.75921 3.0454 0
M  V30 3831 H 354.783 -3.18182 2.02584 0
M  V30 3832 H 357.17 -2.71809 1.14907 0
M  V30 3833 H 357.251 -1.2994 2.20339 0
M  V30 3834 H 356.895 -2.81238 4.22927 0
M  V30 3835 H 356.825 -4.22395 3.14467 0
M  V30 3836 H 359.316 -2.77286 2.5675 0
M  V30 3837 H 359.629 -5.22705 5.6921 0
M  V30 3838 H 357.974 -4.70594 5.11435 0
M  V30 3839 H 361.165 -3.37691 3.24164 0
M  V30 3840 H 361.338 -4.4962 4.66632 0
M  V30 3841 N 354.744 -0.972509 -1.24016 0
M  V30 3842 C 356.021 -0.553733 -1.87598 0
M  V30 3843 C 356.401 0.969158 -1.87538 0
M  V30 3844 O 355.749 1.84255 -1.35139 0
M  V30 3845 C 355.959 -1.15076 -3.29482 0
M  V30 3846 C 357.307 -1.23862 -4.06132 0
M  V30 3847 O 358.331 -1.10363 -3.38672 0
M  V30 3848 O 357.19 -1.45252 -5.26844 0
M  V30 3849 H 354.284 -0.185331 -0.805966 0
M  V30 3850 H 356.83 -1.06709 -1.31952 0
M  V30 3851 H 355.602 -2.19333 -3.2405 0
M  V30 3852 H 355.225 -0.621746 -3.92709 0
M  V30 3853 N 356.222 1.38976 -0.743202 0
M  V30 3854 C 357.152 2.33171 -0.123873 0
M  V30 3855 C 358.133 1.54336 0.71516 0
M  V30 3856 O 359.318 1.82696 0.658467 0
M  V30 3857 C 356.448 3.38474 0.777978 0
M  V30 3858 C 355.402 4.27979 0.0424758 0
M  V30 3859 C 354.728 5.2405 1.06189 0
M  V30 3860 C 356.028 5.10155 -1.1198 0
M  V30 3861 H 357.722 2.85213 -0.910709 0
M  V30 3862 H 355.268 1.37133 -0.439388 0
M  V30 3863 H 357.221 4.03328 1.22084 0
M  V30 3864 H 355.945 2.84891 1.59702 0
M  V30 3865 H 354.604 3.64616 -0.380853 0
M  V30 3866 H 354.252 4.66758 1.87472 0
M  V30 3867 H 353.952 5.84785 0.574485 0
M  V30 3868 H 355.476 5.9178 1.50428 0
M  V30 3869 H 356.89 5.68307 -0.75499 0
M  V30 3870 H 355.287 5.80073 -1.53738 0
M  V30 3871 H 356.357 4.44504 -1.93764 0
M  V30 3872 N 357.7 0.491464 1.49741 0
M  V30 3873 C 358.63 -0.28154 2.31796 0
M  V30 3874 C 359.611 -0.971473 1.3963 0
M  V30 3875 O 360.796 -0.964719 1.68543 0
M  V30 3876 C 357.926 -1.35203 3.19902 0
M  V30 3877 C 356.88 -0.782529 4.20786 0
M  V30 3878 C 356.206 -1.95283 4.97764 0
M  V30 3879 C 357.506 0.21999 5.21837 0
M  V30 3880 H 359.2 0.403355 2.96671 0
M  V30 3881 H 356.746 0.195425 1.42668 0
M  V30 3882 H 358.699 -1.90045 3.76113 0
M  V30 3883 H 357.423 -2.06598 2.52953 0
M  V30 3884 H 356.082 -0.255928 3.65706 0
M  V30 3885 H 355.73 -2.65423 4.2727 0
M  V30 3886 H 355.43 -1.57789 5.66018 0
M  V30 3887 H 356.954 -2.50577 5.56816 0
M  V30 3888 H 358.368 -0.23996 5.72798 0
M  V30 3889 H 356.765 0.51026 5.97927 0
M  V30 3890 H 357.835 1.13911 4.7133 0
M  V30 3891 N 359.178 -1.55987 0.224894 0
M  V30 3892 C 360.108 -2.23426 -0.678457 0
M  V30 3893 C 361.089 -1.20709 -1.19847 0
M  V30 3894 O 362.274 -1.49304 -1.24186 0
M  V30 3895 C 359.404 -2.91676 -1.88527 0
M  V30 3896 C 358.358 -4.00893 -1.49896 0
M  V30 3897 C 357.684 -4.56455 -2.78483 0
M  V30 3898 C 358.984 -5.17769 -0.686461 0
M  V30 3899 H 360.678 -2.99175 -0.116173 0
M  V30 3900 H 358.224 -1.43897 -0.054436 0
M  V30 3901 H 360.177 -3.37547 -2.5227 0
M  V30 3902 H 358.901 -2.1338 -2.47258 0
M  V30 3903 H 357.56 -3.55758 -0.884985 0
M  V30 3904 H 357.208 -3.74886 -3.35365 0
M  V30 3905 H 356.908 -5.30169 -2.53368 0
M  V30 3906 H 358.432 -5.05047 -3.43162 0
M  V30 3907 H 359.846 -5.60001 -1.22767 0
M  V30 3908 H 358.243 -5.97735 -0.532259 0
M  V30 3909 H 359.313 -4.83932 0.306196 0
M  V30 3910 N 360.656 0.0484629 -1.57525 0
M  V30 3911 C 361.619 1.03956 -2.04269 0
M  V30 3912 C 362.619 1.30211 -0.943496 0
M  V30 3913 O 363.809 1.25539 -1.20771 0
M  V30 3914 C 360.941 2.37742 -2.44319 0
M  V30 3915 H 362.134 0.636182 -2.93075 0
M  V30 3916 H 359.687 0.294811 -1.53494 0
M  V30 3917 H 360.422 2.82866 -1.5861 0
M  V30 3918 H 360.207 2.20021 -3.24551 0
M  V30 3919 H 361.697 3.08936 -2.80978 0
M  V30 3920 N 362.134 1.5431 0.320358 0
M  V30 3921 C 363.081 1.83918 1.39438 0
M  V30 3922 C 364.051 0.686525 1.51248 0
M  V30 3923 O 365.236 0.933269 1.66417 0
M  V30 3924 C 362.376 2.075 2.75749 0
M  V30 3925 C 361.489 3.35177 2.72544 0
M  V30 3926 C 360.624 3.48704 4.00723 0
M  V30 3927 C 359.663 4.70244 3.91838 0
M  V30 3928 N 358.8 4.80679 5.11754 0
M  V30 3929 H 363.64 2.75544 1.13489 0
M  V30 3930 H 361.177 1.36459 0.549309 0
M  V30 3931 H 363.135 2.19166 3.54996 0
M  V30 3932 H 361.765 1.19163 3 0
M  V30 3933 H 360.817 3.32233 1.85271 0
M  V30 3934 H 362.129 4.24534 2.61863 0
M  V30 3935 H 361.283 3.59928 4.88402 0
M  V30 3936 H 360.022 2.57445 4.14214 0
M  V30 3937 H 359.027 4.59072 3.02544 0
M  V30 3938 H 360.252 5.6289 3.7991 0
M  V30 3939 H 358.198 3.92337 5.25745 0
M  V30 3940 H 358.115 5.64007 5.0342 0
M  V30 3941 H 359.383 4.96239 6.01138 0
M  V30 3942 N 363.613 -0.582584 1.46437 0
M  V30 3943 C 364.86 -1.34079 1.51753 0
M  V30 3944 C 365.188 -1.93762 0.169299 0
M  V30 3945 O 364.443 -1.76989 -0.835062 0
M  V30 3946 C 364.742 -2.48964 2.56421 0
M  V30 3947 C 364.408 -2.07273 4.00436 0
M  V30 3948 C 363.07 -1.95618 4.39644 0
M  V30 3949 C 365.422 -1.75111 4.90903 0
M  V30 3950 C 362.75 -1.5006 5.67185 0
M  V30 3951 C 365.102 -1.31032 6.18881 0
M  V30 3952 C 363.766 -1.17954 6.56996 0
M  V30 3953 H 363.036 -0.49063 0.555304 0
M  V30 3954 H 365.683 -0.656007 1.79913 0
M  V30 3955 H 363.988 -3.22889 2.21923 0
M  V30 3956 H 365.685 -3.07178 2.57765 0
M  V30 3957 H 362.275 -2.17279 3.69443 0
M  V30 3958 H 366.459 -1.83001 4.61329 0
M  V30 3959 H 361.715 -1.38577 5.95488 0
M  V30 3960 H 365.889 -1.052 6.88408 0
M  V30 3961 H 363.516 -0.824279 7.55718 0
M  V30 3962 N 365.091 -1.34144 -0.827227 0
M  V30 3963 C 366.001 -1.27428 -1.96975 0
M  V30 3964 C 367.017 -0.182728 -1.73038 0
M  V30 3965 O 368.193 -0.408426 -1.97215 0
M  V30 3966 C 365.258 -1.02526 -3.31194 0
M  V30 3967 C 364.319 -2.20796 -3.68168 0
M  V30 3968 C 363.552 -1.97073 -4.95982 0
M  V30 3969 O 363.775 -0.926822 -5.6282 0
M  V30 3970 O 362.709 -2.83912 -5.30733 0
M  V30 3971 H 366.535 -2.23537 -2.05584 0
M  V30 3972 H 364.12 -1.14307 -0.961989 0
M  V30 3973 H 366.002 -0.904026 -4.11589 0
M  V30 3974 H 364.677 -0.0945389 -3.23562 0
M  V30 3975 H 363.584 -2.38477 -2.88235 0
M  V30 3976 H 364.917 -3.12243 -3.8048 0
M  V30 3977 N 366.569 1.04691 -1.17803 0
M  V30 3978 C 367.516 2.12557 -0.899343 0
M  V30 3979 C 368.486 1.65339 0.158771 0
M  V30 3980 O 369.671 1.90789 0.0204797 0
M  V30 3981 C 366.811 3.42481 -0.424315 0
M  V30 3982 C 365.924 4.03346 -1.54713 0
M  V30 3983 C 365.059 5.21208 -1.02546 0
M  V30 3984 C 364.098 5.74089 -2.12339 0
M  V30 3985 N 363.235 6.83247 -1.61612 0
M  V30 3986 H 368.075 2.35734 -1.823 0
M  V30 3987 H 365.612 1.1564 -0.909159 0
M  V30 3988 H 367.57 4.16996 -0.130421 0
M  V30 3989 H 366.2 3.19471 0.462377 0
M  V30 3990 H 365.252 3.2622 -1.95664 0
M  V30 3991 H 366.564 4.38628 -2.37501 0
M  V30 3992 H 365.718 6.02812 -0.685718 0
M  V30 3993 H 364.457 4.87414 -0.167084 0
M  V30 3994 H 363.462 4.91111 -2.47165 0
M  V30 3995 H 364.687 6.0993 -2.98601 0
M  V30 3996 H 362.633 6.5134 -0.780533 0
M  V30 3997 H 362.55 7.17559 -2.38003 0
M  V30 3998 H 363.818 7.68491 -1.30545 0
M  V30 3999 N 368.047 0.979072 1.23499 0
M  V30 4000 C 368.98 0.463027 2.23453 0
M  V30 4001 C 369.958 -0.469128 1.55685 0
M  V30 4002 O 371.142 -0.397882 1.84253 0
M  V30 4003 C 368.269 -0.330308 3.37086 0
M  V30 4004 C 367.315 0.545795 4.22993 0
M  V30 4005 S 368.148 1.99285 4.97037 0
M  V30 4006 C 369.304 1.20862 6.1412 0
M  V30 4007 H 369.537 1.31005 2.6688 0
M  V30 4008 H 367.07 0.784965 1.32957 0
M  V30 4009 H 369.028 -0.782027 4.02982 0
M  V30 4010 H 367.689 -1.15244 2.92194 0
M  V30 4011 H 366.882 -0.0638928 5.03959 0
M  V30 4012 H 366.484 0.933705 3.62157 0
M  V30 4013 H 368.776 0.469284 6.75873 0
M  V30 4014 H 369.719 1.99307 6.79472 0
M  V30 4015 H 370.127 0.727992 5.59786 0
M  V30 4016 N 369.525 -1.3858 0.750561 0
M  V30 4017 C 370.755 -2.04175 0.31564 0
M  V30 4018 C 371.163 -1.56726 -1.05989 0
M  V30 4019 O 370.506 -0.734225 -1.68389 0
M  V30 4020 C 370.568 -3.58585 0.256389 0
M  V30 4021 C 370.232 -4.29077 1.57296 0
M  V30 4022 C 371.229 -4.54656 2.52159 0
M  V30 4023 C 368.914 -4.67324 1.84156 0
M  V30 4024 C 370.908 -5.17512 3.72103 0
M  V30 4025 C 368.595 -5.29905 3.04374 0
M  V30 4026 C 369.593 -5.54933 3.98168 0
M  V30 4027 O 369.281 -6.16212 5.16273 0
M  V30 4028 H 369.013 -0.662742 0.133226 0
M  V30 4029 H 371.567 -1.78313 1.01948 0
M  V30 4030 H 369.797 -3.83406 -0.503677 0
M  V30 4031 H 371.486 -4.05628 -0.148612 0
M  V30 4032 H 372.252 -4.25539 2.32683 0
M  V30 4033 H 368.131 -4.47191 1.11988 0
M  V30 4034 H 371.675 -5.36963 4.45327 0
M  V30 4035 H 367.572 -5.58444 3.23745 0
M  V30 4036 H 368.34 -6.34701 5.16815 0
M  V30 4037 N 371.003 -0.499398 -1.49478 0
M  V30 4038 C 371.935 0.316575 -2.27003 0
M  V30 4039 C 372.948 0.932047 -1.33479 0
M  V30 4040 O 374.137 0.815658 -1.58774 0
M  V30 4041 C 371.237 1.46055 -3.05812 0
M  V30 4042 C 370.41 0.952679 -4.26899 0
M  V30 4043 C 369.469 1.97407 -4.87767 0
M  V30 4044 O 368.495 1.54326 -5.4788 0
M  V30 4045 N 369.697 3.30436 -4.77276 0
M  V30 4046 H 372.462 -0.348168 -2.97671 0
M  V30 4047 H 370.023 -0.33185 -1.58463 0
M  V30 4048 H 372.015 2.14135 -3.43407 0
M  V30 4049 H 370.585 2.02948 -2.37762 0
M  V30 4050 H 369.805 0.0968248 -3.94081 0
M  V30 4051 H 371.093 0.59174 -5.05347 0
M  V30 4052 H 370.491 3.68126 -4.29534 0
M  V30 4053 H 369.048 3.94235 -5.19059 0
M  V30 4054 N 372.481 1.55866 -0.233164 0
M  V30 4055 C 373.411 2.23783 0.666599 0
M  V30 4056 C 374.392 1.21343 1.19205 0
M  V30 4057 O 375.577 1.4996 1.23392 0
M  V30 4058 C 372.707 2.92671 1.86978 0
M  V30 4059 C 371.661 4.01682 1.47768 0
M  V30 4060 C 370.987 4.57926 2.76058 0
M  V30 4061 C 372.287 5.18126 0.658993 0
M  V30 4062 H 373.981 2.99232 0.100306 0
M  V30 4063 H 371.527 1.43924 0.046804 0
M  V30 4064 H 373.48 3.3888 2.50476 0
M  V30 4065 H 372.204 2.14688 2.46123 0
M  V30 4066 H 370.863 3.56222 0.866106 0
M  V30 4067 H 370.511 3.76659 3.33372 0
M  V30 4068 H 370.211 5.31505 2.50552 0
M  V30 4069 H 371.735 5.06859 3.40479 0
M  V30 4070 H 373.149 5.60644 1.19795 0
M  V30 4071 H 371.546 5.98009 0.500552 0
M  V30 4072 H 372.616 4.83763 -0.331856 0
M  V30 4073 N 373.959 -0.0401083 1.57549 0
M  V30 4074 C 375.207 -0.731677 1.8839 0
M  V30 4075 C 375.528 -1.76481 0.829425 0
M  V30 4076 O 374.798 -1.95411 -0.1383 0
M  V30 4077 H 373.378 -0.273225 0.695239 0
M  V30 4078 H 376.04 -0.00867725 1.94898 0
M  V30 4079 H 375.136 -1.22816 2.86919 0
M  V30 4080 N 375.437 -1.54477 -0.31217 0
M  V30 4081 C 376.683 -1.73483 -1.0503 0
M  V30 4082 C 377.016 -0.513125 -1.87298 0
M  V30 4083 O 376.291 0.489864 -1.8823 0
M  V30 4084 C 376.574 -3.01723 -1.96558 0
M  V30 4085 C 376.427 -4.3417 -1.17545 0
M  V30 4086 C 377.746 -3.25772 -2.95907 0
M  V30 4087 H 374.865 -0.631222 -0.380432 0
M  V30 4088 H 377.507 -1.87184 -0.325932 0
M  V30 4089 H 375.657 -2.90174 -2.58324 0
M  V30 4090 H 377.329 -4.5762 -0.581513 0
M  V30 4091 H 375.572 -4.31159 -0.477925 0
M  V30 4092 H 376.243 -5.20143 -1.84811 0
M  V30 4093 H 378.719 -3.36857 -2.44267 0
M  V30 4094 H 377.595 -4.16838 -3.57123 0
M  V30 4095 H 377.856 -2.43537 -3.68974 0
M  V30 4096 N 376.915 0.57481 -1.46744 0
M  V30 4097 C 378.331 0.898981 -1.31873 0
M  V30 4098 C 378.531 1.99313 -0.29605 0
M  V30 4099 O 377.587 2.50728 0.298621 0
M  V30 4100 C 378.9 1.30886 -2.7072 0
M  V30 4101 C 380.448 1.42127 -2.78871 0
M  V30 4102 C 380.923 1.86478 -4.18318 0
M  V30 4103 N 382.414 1.93658 -4.20774 0
M  V30 4104 C 383.149 2.29267 -5.2557 0
M  V30 4105 N 382.645 2.63612 -6.40688 0
M  V30 4106 N 384.438 2.29889 -5.1294 0
M  V30 4107 H 376.589 -0.147839 -2.11885 0
M  V30 4108 H 378.852 -0.00347013 -0.947994 0
M  V30 4109 H 378.558 0.578853 -3.46904 0
M  V30 4110 H 378.432 2.26874 -3.01343 0
M  V30 4111 H 380.819 2.14213 -2.0297 0
M  V30 4112 H 380.9 0.443705 -2.51922 0
M  V30 4113 H 380.544 1.14968 -4.94717 0
M  V30 4114 H 380.474 2.85207 -4.42679 0
M  V30 4115 H 382.965 1.69574 -3.37718 0
M  V30 4116 H 383.278 2.89759 -7.16421 0
M  V30 4117 H 381.623 2.61232 -6.44036 0
M  V30 4118 H 384.814 2.02485 -4.22039 0
M  V30 4119 H 384.987 2.57312 -5.94722 0
M  V30 4120 N 378.394 1.34581 0.820102 0
M  V30 4121 C 379.619 1.30333 1.61332 0
M  V30 4122 C 380.044 -0.119339 1.87721 0
M  V30 4123 O 379.402 -1.08197 1.45475 0
M  V30 4124 C 379.45 2.10258 2.92957 0
M  V30 4125 O 378.554 1.47404 3.85157 0
M  V30 4126 H 377.895 0.447488 0.490561 0
M  V30 4127 H 380.425 1.77425 1.01889 0
M  V30 4128 H 380.435 2.21718 3.42498 0
M  V30 4129 H 379.11 3.13693 2.73074 0
M  V30 4130 H 377.687 1.44703 3.43679 0
M  V30 4131 N 379.872 -1.04064 1.18357 0
M  V30 4132 C 381.119 -1.77265 0.978947 0
M  V30 4133 C 381.447 -1.88189 -0.491428 0
M  V30 4134 O 380.702 -1.38653 -1.38108 0
M  V30 4135 C 381.001 -3.20634 1.57888 0
M  V30 4136 C 380.667 -3.29743 3.07539 0
M  V30 4137 C 379.329 -3.31937 3.48384 0
M  V30 4138 C 381.681 -3.29841 4.03552 0
M  V30 4139 C 379.009 -3.3187 4.83818 0
M  V30 4140 C 381.361 -3.31313 5.38901 0
M  V30 4141 C 380.025 -3.31799 5.79194 0
M  V30 4142 H 379.295 -0.648659 0.358222 0
M  V30 4143 H 381.942 -1.22225 1.47422 0
M  V30 4144 H 380.247 -3.78675 1.00561 0
M  V30 4145 H 381.944 -3.75917 1.39598 0
M  V30 4146 H 378.534 -3.28757 2.74986 0
M  V30 4147 H 382.718 -3.27337 3.73047 0
M  V30 4148 H 377.974 -3.30562 5.14333 0
M  V30 4149 H 382.148 -3.30338 6.13066 0
M  V30 4150 H 379.775 -3.315 6.84114 0
M  V30 4151 N 381.35 -0.985608 -1.22978 0
M  V30 4152 C 382.313 -0.535071 -2.22867 0
M  V30 4153 C 383.313 0.378123 -1.56291 0
M  V30 4154 O 384.503 0.171092 -1.73358 0
M  V30 4155 C 381.635 0.222702 -3.40172 0
M  V30 4156 H 382.828 -1.41835 -2.6424 0
M  V30 4157 H 380.381 -0.772042 -1.35901 0
M  V30 4158 H 381.116 1.12229 -3.04262 0
M  V30 4159 H 380.901 -0.43288 -3.89703 0
M  V30 4160 H 382.391 0.526335 -4.1427 0
M  V30 4161 N 382.828 1.3818 -0.7579 0
M  V30 4162 C 384.074 2.00316 -0.316453 0
M  V30 4163 C 384.407 1.60026 1.10025 0
M  V30 4164 O 383.682 0.839835 1.75434 0
M  V30 4165 C 383.965 3.57349 -0.444245 0
M  V30 4166 C 383.818 4.07591 -1.90236 0
M  V30 4167 C 385.137 4.3981 0.1598 0
M  V30 4168 H 382.256 0.727741 -0.116459 0
M  V30 4169 H 384.898 1.6406 -0.958352 0
M  V30 4170 H 383.048 3.88365 0.102233 0
M  V30 4171 H 384.72 3.87199 -2.50748 0
M  V30 4172 H 382.963 3.60297 -2.41595 0
M  V30 4173 H 383.634 5.16677 -1.94291 0
M  V30 4174 H 386.11 4.14971 -0.306314 0
M  V30 4175 H 384.986 5.48885 0.0401675 0
M  V30 4176 H 385.247 4.24102 1.24859 0
M  V30 4177 N 384.306 0.507319 1.49211 0
M  V30 4178 C 385.553 -0.0349529 2.0247 0
M  V30 4179 C 385.881 -1.36409 1.38647 0
M  V30 4180 O 385.136 -1.88841 0.513566 0
M  V30 4181 C 385.435 -0.229513 3.56662 0
M  V30 4182 C 385.101 1.02241 4.39156 0
M  V30 4183 C 383.763 1.36557 4.61417 0
M  V30 4184 C 386.115 1.85428 4.871 0
M  V30 4185 C 383.443 2.53999 5.28868 0
M  V30 4186 C 385.795 3.02028 5.55843 0
M  V30 4187 C 384.459 3.36717 5.76349 0
M  V30 4188 H 383.729 -0.0127902 0.74089 0
M  V30 4189 H 386.376 0.668756 1.79443 0
M  V30 4190 H 384.681 -1.0158 3.78403 0
M  V30 4191 H 386.378 -0.663641 3.9547 0
M  V30 4192 H 382.968 0.745124 4.22073 0
M  V30 4193 H 387.152 1.6023 4.69723 0
M  V30 4194 H 382.408 2.81105 5.42946 0
M  V30 4195 H 386.582 3.66808 5.91967 0
M  V30 4196 H 384.209 4.27821 6.28389 0
M  V30 4197 N 385.784 -1.5574 0.241426 0
M  V30 4198 C 387.031 -1.9881 -0.384836 0
M  V30 4199 C 387.359 -1.12947 -1.58346 0
M  V30 4200 O 386.614 -0.178993 -1.9488 0
M  V30 4201 C 386.913 -3.47308 -0.843317 0
M  V30 4202 C 386.579 -4.50223 0.246946 0
M  V30 4203 C 385.241 -4.78088 0.546399 0
M  V30 4204 C 387.593 -5.11841 0.983282 0
M  V30 4205 C 384.921 -5.64846 1.58636 0
M  V30 4206 C 387.273 -5.99727 2.01272 0
M  V30 4207 C 385.937 -6.25927 2.31888 0
M  V30 4208 H 385.207 -0.727496 -0.140821 0
M  V30 4209 H 387.854 -1.8831 0.348106 0
M  V30 4210 H 386.159 -3.55112 -1.65537 0
M  V30 4211 H 387.856 -3.78017 -1.33806 0
M  V30 4212 H 384.446 -4.286 0.00340639 0
M  V30 4213 H 388.63 -4.90366 0.765182 0
M  V30 4214 H 383.886 -5.83403 1.82896 0
M  V30 4215 H 388.06 -6.46517 2.58823 0
M  V30 4216 H 385.687 -6.92949 3.12611 0
M  V30 4217 N 387.262 0.0317525 -1.57568 0
M  V30 4218 C 388.539 0.758366 -1.803 0
M  V30 4219 C 388.919 1.93718 -0.838845 0
M  V30 4220 O 388.267 2.28187 0.119571 0
M  V30 4221 C 388.477 1.19392 -3.27943 0
M  V30 4222 C 389.825 1.61094 -3.92854 0
M  V30 4223 O 390.849 1.28857 -3.32076 0
M  V30 4224 O 389.708 2.20918 -4.99858 0
M  V30 4225 H 386.802 0.366514 -0.741348 0
M  V30 4226 H 389.348 0.00873765 -1.69698 0
M  V30 4227 H 388.12 0.352275 -3.89711 0
M  V30 4228 H 387.743 2.00365 -3.43424 0
M  V30 4229 N 388.74 1.54641 0.303973 0
M  V30 4230 C 390.017 1.64455 1.05896 0
M  V30 4231 C 390.397 0.490923 2.05312 0
M  V30 4232 O 389.745 -0.512685 2.22674 0
M  V30 4233 C 389.955 3.02331 1.74347 0
M  V30 4234 C 391.303 3.59045 2.26653 0
M  V30 4235 O 392.327 3.04764 1.84384 0
M  V30 4236 O 391.186 4.54081 3.04093 0
M  V30 4237 H 388.28 0.666729 0.489287 0
M  V30 4238 H 390.826 1.66986 0.302298 0
M  V30 4239 H 389.598 3.77734 1.02142 0
M  V30 4240 H 389.221 3.03565 2.56777 0
M  V30 4241 N 390.218 -0.567019 1.47046 0
M  V30 4242 C 391.467 -1.32091 1.5243 0
M  V30 4243 C 391.78 -1.94704 0.187021 0
M  V30 4244 O 392.986 -2.7124 0.118771 0
M  V30 4245 C 391.442 -2.39479 2.68659 0
M  V30 4246 C 391.05 -1.831 4.08874 0
M  V30 4247 C 392.794 -3.16111 2.83327 0
M  V30 4248 C 390.701 -2.8821 5.16419 0
M  V30 4249 H 389.631 -0.496629 0.56734 0
M  V30 4250 H 392.282 -0.603354 1.73297 0
M  V30 4251 H 390.664 -3.14105 2.41152 0
M  V30 4252 H 391.838 -1.14913 4.46242 0
M  V30 4253 H 390.153 -1.19085 3.99008 0
M  V30 4254 H 392.75 -3.94585 3.60842 0
M  V30 4255 H 393.093 -3.69686 1.91411 0
M  V30 4256 H 393.626 -2.48595 3.10556 0
M  V30 4257 H 390.365 -2.39504 6.10179 0
M  V30 4258 H 389.885 -3.54839 4.8358 0
M  V30 4259 H 391.564 -3.51881 5.42945 0
M  V30 4260 N 391.696 -1.35014 -0.812953 0
M  V30 4261 C 392.921 -1.31187 -1.60639 0
M  V30 4262 C 393.346 0.109382 -1.87782 0
M  V30 4263 O 392.704 1.07424 -1.46047 0
M  V30 4264 C 392.752 -2.11809 -2.91838 0
M  V30 4265 O 391.856 -1.49444 -3.8437 0
M  V30 4266 H 391.197 -0.450084 -0.488181 0
M  V30 4267 H 393.727 -1.77963 -1.00947 0
M  V30 4268 H 393.737 -2.23531 -3.41318 0
M  V30 4269 H 392.412 -3.15137 -2.71407 0
M  V30 4270 H 390.989 -1.46524 -3.42907 0
M  V30 4271 N 393.175 1.03435 -1.18907 0
M  V30 4272 C 394.423 1.76394 -0.986382 0
M  V30 4273 C 394.744 1.88883 0.484567 0
M  V30 4274 O 394.014 1.41843 1.3512 0
M  V30 4275 H 392.594 0.65344 -0.361975 0
M  V30 4276 H 395.256 1.248 -1.49703 0
M  V30 4277 H 394.352 2.77424 -1.42978 0
M  V30 4278 N 394.653 0.992116 1.22453 0
M  V30 4279 C 395.563 0.55065 2.28046 0
M  V30 4280 C 396.579 -0.400189 1.69335 0
M  V30 4281 O 397.755 -0.267215 1.99619 0
M  V30 4282 C 394.82 -0.128496 3.46462 0
M  V30 4283 C 393.881 0.865208 4.20491 0
M  V30 4284 C 393.114 0.218377 5.33253 0
M  V30 4285 O 393.337 -0.987894 5.6178 0
M  V30 4286 O 392.271 0.922845 5.94783 0
M  V30 4287 H 396.097 1.4291 2.67975 0
M  V30 4288 H 393.682 0.760326 1.28606 0
M  V30 4289 H 395.564 -0.508947 4.18315 0
M  V30 4290 H 394.239 -0.981526 3.0846 0
M  V30 4291 H 393.146 1.29658 3.50913 0
M  V30 4292 H 394.479 1.68741 4.62371 0
M  V30 4293 N 396.131 -1.37776 0.765217 0
M  V30 4294 C 397.379 -1.99454 0.325943 0
M  V30 4295 C 397.7 -1.61049 -1.09947 0
M  V30 4296 O 396.97 -0.872821 -1.75381 0
M  V30 4297 H 395.55 -0.737697 0.117525 0
M  V30 4298 H 398.212 -1.68359 0.981895 0
M  V30 4299 H 397.308 -3.09547 0.398353 0
M  V30 4300 N 397.609 -0.515225 -1.4894 0
M  V30 4301 C 398.837 0.0206034 -2.0689 0
M  V30 4302 C 399.252 1.29514 -1.37374 0
M  V30 4303 O 398.609 1.76698 -0.456529 0
M  V30 4304 C 398.66 0.26351 -3.60538 0
M  V30 4305 O 398.381 -0.960517 -4.27441 0
M  V30 4306 C 399.882 0.841383 -4.35242 0
M  V30 4307 H 397.102 -0.0268608 -0.670462 0
M  V30 4308 H 399.646 -0.716651 -1.91532 0
M  V30 4309 H 397.801 0.950777 -3.75552 0
M  V30 4310 H 398.215 -0.73212 -5.19365 0
M  V30 4311 H 399.689 0.96085 -5.43573 0
M  V30 4312 H 400.166 1.8427 -3.98674 0
M  V30 4313 H 400.772 0.191143 -4.2487 0
M  V30 4314 N 399.087 1.5561 -0.249682 0
M  V30 4315 C 400.035 2.22894 0.664906 0
M  V30 4316 C 401.029 1.21743 1.17792 0
M  V30 4317 O 402.235 1.39748 1.13449 0
M  V30 4318 H 398.61 0.715022 0.232912 0
M  V30 4319 H 400.581 2.98307 0.0742998 0
M  V30 4320 C 399.33 2.94424 1.84959 0
M  V30 4321 H 398.653 3.72031 1.46399 0
M  V30 4322 H 400.093 3.44862 2.4667 0
M  V30 4323 C 398.552 1.98454 2.72245 0
M  V30 4324 O 399.082 1.51939 3.71857 0
M  V30 4325 N 397.288 1.65496 2.38871 0
M  V30 4326 H 396.835 2.03517 1.57919 0
M  V30 4327 H 396.793 1.0155 2.97548 0
M  V30 4328 N 400.565 -0.0233959 1.57583 0
M  V30 4329 C 401.976 -0.56927 1.77809 0
M  V30 4330 C 402.327 -1.75284 0.881472 0
M  V30 4331 O 401.452 -2.1626 0.0777805 0
M  V30 4332 C 402.047 -1.03949 3.22459 0
M  V30 4333 C 400.606 -1.53084 3.43864 0
M  V30 4334 C 399.753 -0.471454 2.73263 0
M  V30 4335 H 402.704 0.202825 1.57399 0
M  V30 4336 H 402.725 -1.90661 3.29285 0
M  V30 4337 H 402.237 -0.177865 3.87692 0
M  V30 4338 H 400.338 -2.41414 2.83814 0
M  V30 4339 H 400.451 -1.57443 4.52491 0
M  V30 4340 H 398.815 -0.927788 2.37201 0
M  V30 4341 H 399.598 0.380808 3.41181 0
M  V30 4342 N 402.043 -1.548 -0.295768 0
M  V30 4343 C 402.975 -1.82492 -1.3867 0
M  V30 4344 C 403.988 -0.708134 -1.46592 0
M  V30 4345 O 405.177 -0.985686 -1.48817 0
M  V30 4346 C 402.277 -1.95256 -2.76999 0
M  V30 4347 C 401.45 -3.25709 -2.91946 0
M  V30 4348 C 400.509 -3.28824 -4.10806 0
M  V30 4349 O 399.535 -4.02328 -4.02643 0
M  V30 4350 N 400.737 -2.5459 -5.21694 0
M  V30 4351 H 403.502 -2.76646 -1.15269 0
M  V30 4352 H 401.063 -1.54438 -0.485849 0
M  V30 4353 H 403.055 -1.94736 -3.54768 0
M  V30 4354 H 401.625 -1.08072 -2.93324 0
M  V30 4355 H 400.845 -3.38959 -2.01247 0
M  V30 4356 H 402.133 -4.11786 -2.98847 0
M  V30 4357 H 401.531 -1.94512 -5.31208 0
M  V30 4358 H 400.088 -2.59818 -5.97778 0
M  V30 4359 N 403.521 0.559213 -1.47345 0
M  V30 4360 C 404.468 1.66645 -1.59682 0
M  V30 4361 C 405.438 1.60168 -0.43994 0
M  V30 4362 O 406.623 1.79031 -0.659736 0
M  V30 4363 C 403.763 3.04969 -1.61518 0
M  V30 4364 C 402.876 3.21897 -2.88108 0
M  V30 4365 C 402.011 4.50608 -2.81294 0
M  V30 4366 C 401.05 4.60961 -4.02717 0
M  V30 4367 N 400.187 5.81024 -3.94151 0
M  V30 4368 H 405.027 1.55439 -2.54249 0
M  V30 4369 H 402.564 0.757219 -1.26113 0
M  V30 4370 H 404.522 3.85064 -1.60566 0
M  V30 4371 H 403.152 3.15015 -0.704645 0
M  V30 4372 H 402.204 2.35248 -2.98936 0
M  V30 4373 H 403.516 3.25412 -3.78032 0
M  V30 4374 H 402.67 5.3896 -2.7858 0
M  V30 4375 H 401.409 4.49568 -1.89049 0
M  V30 4376 H 400.414 3.71021 -4.05738 0
M  V30 4377 H 401.639 4.63761 -4.96087 0
M  V30 4378 H 399.585 5.80938 -3.04708 0
M  V30 4379 H 399.502 5.85909 -4.77752 0
M  V30 4380 H 400.77 6.71744 -3.9545 0
M  V30 4381 N 404.999 1.35443 0.805782 0
M  V30 4382 C 405.931 1.24285 1.92577 0
M  V30 4383 C 406.944 0.165962 1.61952 0
M  V30 4384 O 408.133 0.419303 1.73505 0
M  V30 4385 C 405.233 0.891272 3.2697 0
M  V30 4386 C 404.406 2.06669 3.85495 0
M  V30 4387 C 403.465 1.69077 4.98297 0
M  V30 4388 O 402.491 2.4096 5.15681 0
M  V30 4389 N 403.693 0.614869 5.77234 0
M  V30 4390 H 406.458 2.20777 2.02676 0
M  V30 4391 H 404.019 1.28623 0.983243 0
M  V30 4392 H 406.011 0.621256 3.99903 0
M  V30 4393 H 404.581 0.016004 3.12596 0
M  V30 4394 H 403.801 2.50046 3.04747 0
M  V30 4395 H 405.089 2.85237 4.21328 0
M  V30 4396 H 404.487 0.017648 5.65697 0
M  V30 4397 H 403.044 0.404636 6.50543 0
M  V30 4398 N 406.477 -1.02803 1.19454 0
M  V30 4399 C 407.44 -2.09264 0.934955 0
M  V30 4400 C 408.44 -1.60576 -0.0849015 0
M  V30 4401 O 409.63 -1.73554 0.149933 0
M  V30 4402 C 406.762 -3.38482 0.40531 0
M  V30 4403 H 407.955 -2.33726 1.87916 0
M  V30 4404 H 405.508 -1.19426 1.00832 0
M  V30 4405 H 406.243 -3.19689 -0.544899 0
M  V30 4406 H 406.028 -3.75142 1.14065 0
M  V30 4407 H 407.518 -4.16894 0.242806 0
M  V30 4408 N 407.956 -0.998596 -1.21925 0
M  V30 4409 C 408.866 -0.562736 -2.27751 0
M  V30 4410 C 409.882 0.391203 -1.69545 0
M  V30 4411 O 411.058 0.256625 -1.99758 0
M  V30 4412 C 408.123 0.11012 -3.46525 0
M  V30 4413 C 407.184 -0.887495 -4.20026 0
M  V30 4414 C 406.417 -0.246654 -5.3313 0
M  V30 4415 O 406.64 0.958088 -5.62296 0
M  V30 4416 O 405.574 -0.954374 -5.94286 0
M  V30 4417 H 409.4 -1.44329 -2.67213 0
M  V30 4418 H 406.985 -0.767135 -1.28201 0
M  V30 4419 H 408.867 0.486756 -4.18579 0
M  V30 4420 H 407.542 0.965154 -3.08976 0
M  V30 4421 H 406.449 -1.31517 -3.5022 0
M  V30 4422 H 407.782 -1.71191 -4.6147 0
M  V30 4423 N 409.434 1.37368 -0.772513 0
M  V30 4424 C 410.364 2.32856 -0.173304 0
M  V30 4425 C 411.345 1.55818 0.682262 0
M  V30 4426 O 412.53 1.84052 0.619566 0
M  V30 4427 C 409.66 3.40048 0.706007 0
M  V30 4428 C 408.614 4.27973 -0.0483144 0
M  V30 4429 C 407.94 5.26184 0.950491 0
M  V30 4430 C 409.24 5.07665 -1.22776 0
M  V30 4431 H 410.934 2.83217 -0.971002 0
M  V30 4432 H 408.48 1.3617 -0.468377 0
M  V30 4433 H 410.433 4.05827 1.13501 0
M  V30 4434 H 409.157 2.88214 1.53623 0
M  V30 4435 H 407.816 3.63726 -0.458107 0
M  V30 4436 H 407.464 4.7063 1.77529 0
M  V30 4437 H 407.164 5.85872 0.450314 0
M  V30 4438 H 408.688 5.94838 1.37842 0
M  V30 4439 H 410.102 5.66578 -0.875366 0
M  V30 4440 H 408.499 5.76681 -1.66007 0
M  V30 4441 H 409.569 4.40294 -2.03149 0
M  V30 4442 N 410.912 0.523116 1.48665 0
M  V30 4443 C 411.842 -0.23231 2.32342 0
M  V30 4444 C 412.823 -0.941637 1.41659 0
M  V30 4445 O 414.008 -0.928751 1.70552 0
M  V30 4446 C 411.138 -1.28387 3.22698 0
M  V30 4447 C 410.092 -0.693098 4.22351 0
M  V30 4448 C 409.418 -1.8468 5.01794 0
M  V30 4449 C 410.718 0.33063 5.21252 0
M  V30 4450 H 412.412 0.466192 2.95748 0
M  V30 4451 H 409.958 0.225643 1.42221 0
M  V30 4452 H 411.911 -1.82024 3.80059 0
M  V30 4453 H 410.635 -2.01186 2.57278 0
M  V30 4454 H 409.294 -0.178299 3.66166 0
M  V30 4455 H 408.942 -2.56301 4.32804 0
M  V30 4456 H 408.642 -1.45747 5.69238 0
M  V30 4457 H 410.166 -2.38709 5.62006 0
M  V30 4458 H 411.58 -0.118407 5.73178 0
M  V30 4459 H 409.977 0.636974 5.9671 0
M  V30 4460 H 411.047 1.23883 4.68808 0
M  V30 4461 N 412.39 -1.55475 0.257931 0
M  V30 4462 C 413.338 -2.23244 -0.653076 0
M  V30 4463 C 414.332 -1.22366 -1.17144 0
M  V30 4464 O 415.538 -1.40347 -1.12706 0
M  V30 4465 H 411.913 -0.716247 -0.229117 0
M  V30 4466 H 413.884 -2.98343 -0.0584788 0
M  V30 4467 C 412.633 -2.95401 -1.83395 0
M  V30 4468 H 411.956 -3.72802 -1.44424 0
M  V30 4469 H 413.396 -3.46165 -2.44838 0
M  V30 4470 C 411.855 -1.99895 -2.71189 0
M  V30 4471 O 412.385 -1.53909 -3.71046 0
M  V30 4472 N 410.591 -1.6676 -2.3799 0
M  V30 4473 H 410.138 -2.04352 -1.56837 0
M  V30 4474 H 410.096 -1.03127 -2.97005 0
M  V30 4475 N 413.868 0.0150385 -1.57593 0
M  V30 4476 C 415.098 0.713359 -1.93894 0
M  V30 4477 C 415.506 1.68663 -0.857289 0
M  V30 4478 O 414.849 1.82876 0.173788 0
M  V30 4479 C 414.911 1.51348 -3.26089 0
M  V30 4480 C 414.575 0.703451 -4.51554 0
M  V30 4481 C 415.572 -0.00237924 -5.199 0
M  V30 4482 C 413.257 0.653854 -4.98026 0
M  V30 4483 C 415.251 -0.746955 -6.33008 0
M  V30 4484 C 412.938 -0.0944578 -6.11027 0
M  V30 4485 C 413.936 -0.793609 -6.78374 0
M  V30 4486 O 413.624 -1.52974 -7.89211 0
M  V30 4487 H 413.356 0.204637 -0.644282 0
M  V30 4488 H 415.91 -0.0276411 -2.05381 0
M  V30 4489 H 414.14 2.29862 -3.10967 0
M  V30 4490 H 415.829 2.09572 -3.47612 0
M  V30 4491 H 416.595 0.0268803 -4.84993 0
M  V30 4492 H 412.474 1.18756 -4.45441 0
M  V30 4493 H 416.018 -1.2932 -6.85509 0
M  V30 4494 H 411.915 -0.125591 -6.45378 0
M  V30 4495 H 412.683 -1.44488 -8.05646 0
M  V30 4496 N 415.346 1.54954 0.287554 0
M  V30 4497 C 416.595 1.74081 1.01877 0
M  V30 4498 C 416.908 0.541135 1.87966 0
M  V30 4499 O 418.114 0.614491 2.64455 0
M  V30 4500 C 416.57 3.08042 1.86113 0
M  V30 4501 C 416.178 4.35531 1.04961 0
M  V30 4502 C 417.922 3.36523 2.58752 0
M  V30 4503 C 415.829 5.60538 1.88551 0
M  V30 4504 H 414.759 0.64884 0.384087 0
M  V30 4505 H 417.41 1.81426 0.275101 0
M  V30 4506 H 415.792 2.94696 2.64519 0
M  V30 4507 H 416.966 4.59751 0.31074 0
M  V30 4508 H 415.281 4.14085 0.43843 0
M  V30 4509 H 417.878 4.27122 3.21668 0
M  V30 4510 H 418.221 2.56 3.28283 0
M  V30 4511 H 418.754 3.50901 1.87386 0
M  V30 4512 H 415.493 6.43767 1.23466 0
M  V30 4513 H 415.013 5.40483 2.60074 0
M  V30 4514 H 416.692 5.98297 2.46273 0
M  V30 4515 N 416.824 -0.551391 1.4764 0
M  V30 4516 C 418.101 -1.31229 1.45046 0
M  V30 4517 C 418.481 -2.10563 0.150527 0
M  V30 4518 O 417.829 -2.11374 -0.867956 0
M  V30 4519 C 418.039 -2.21189 2.69956 0
M  V30 4520 C 419.387 -2.82021 3.1741 0
M  V30 4521 O 420.411 -2.31488 2.70724 0
M  V30 4522 O 419.27 -3.73885 3.98588 0
M  V30 4523 H 416.364 -0.591193 0.578291 0
M  V30 4524 H 418.91 -0.569813 1.59847 0
M  V30 4525 H 417.682 -1.62207 3.56096 0
M  V30 4526 H 417.305 -3.02722 2.57769 0
M  V30 4527 N 418.302 -1.35869 -0.798587 0
M  V30 4528 C 419.212 -1.31578 -1.94228 0
M  V30 4529 C 420.228 -0.21939 -1.72611 0
M  V30 4530 O 421.404 -0.450167 -1.96305 0
M  V30 4531 C 418.469 -1.09528 -3.28944 0
M  V30 4532 C 417.53 -2.28556 -3.63402 0
M  V30 4533 C 416.763 -2.07549 -4.9169 0
M  V30 4534 O 416.986 -1.046 -5.60727 0
M  V30 4535 O 415.92 -2.95106 -5.24591 0
M  V30 4536 H 419.746 -2.27847 -2.00796 0
M  V30 4537 H 417.331 -1.16322 -0.937526 0
M  V30 4538 H 419.213 -0.991127 -4.09579 0
M  V30 4539 H 417.888 -0.16315 -3.23289 0
M  V30 4540 H 416.795 -2.44538 -2.83112 0
M  V30 4541 H 418.128 -3.20244 -3.73771 0
M  V30 4542 N 419.78 1.02168 -1.19998 0
M  V30 4543 C 420.727 2.10601 -0.944228 0
M  V30 4544 C 421.697 1.65639 0.123664 0
M  V30 4545 O 422.882 1.9079 -0.0199941 0
M  V30 4546 C 420.022 3.41504 -0.496865 0
M  V30 4547 C 419.135 3.99973 -1.63234 0
M  V30 4548 C 418.27 5.18915 -1.13579 0
M  V30 4549 C 417.309 5.69456 -2.24468 0
M  V30 4550 N 416.446 6.79665 -1.76068 0
M  V30 4551 H 421.286 2.31814 -1.8726 0
M  V30 4552 H 418.823 1.13686 -0.933483 0
M  V30 4553 H 420.781 4.16626 -0.218843 0
M  V30 4554 H 419.411 3.2038 0.394508 0
M  V30 4555 H 418.463 3.21997 -2.0254 0
M  V30 4556 H 419.775 4.33492 -2.46752 0
M  V30 4557 H 418.929 6.01222 -0.813429 0
M  V30 4558 H 417.668 4.8695 -0.270434 0
M  V30 4559 H 416.673 4.85757 -2.57526 0
M  V30 4560 H 417.898 6.03459 -3.11472 0
M  V30 4561 H 415.844 6.49538 -0.918516 0
M  V30 4562 H 415.761 7.12349 -2.5317 0
M  V30 4563 H 417.029 7.65549 -1.46817 0
M  V30 4564 N 421.258 1.00505 1.21394 0
M  V30 4565 C 422.505 0.687774 1.90462 0
M  V30 4566 C 422.833 -0.78147 1.7811 0
M  V30 4567 O 422.088 -1.58208 1.1519 0
M  V30 4568 C 422.387 1.0546 3.41486 0
M  V30 4569 C 422.053 2.51812 3.74034 0
M  V30 4570 C 420.715 2.91804 3.82628 0
M  V30 4571 C 423.067 3.46614 3.8924 0
M  V30 4572 C 420.395 4.2556 4.03876 0
M  V30 4573 C 422.747 4.80044 4.11995 0
M  V30 4574 C 421.411 5.19759 4.18816 0
M  V30 4575 H 420.681 0.251674 0.696951 0
M  V30 4576 H 423.328 1.26349 1.43903 0
M  V30 4577 H 421.633 0.397133 3.89782 0
M  V30 4578 H 423.33 0.786976 3.93202 0
M  V30 4579 H 419.92 2.1982 3.67936 0
M  V30 4580 H 424.104 3.16883 3.81967 0
M  V30 4581 H 419.36 4.55901 4.07387 0
M  V30 4582 H 423.534 5.53439 4.22704 0
M  V30 4583 H 421.161 6.23418 4.35033 0
M  V30 4584 N 422.737 -1.36956 0.779787 0
M  V30 4585 C 423.7 -2.2851 0.177662 0
M  V30 4586 C 424.7 -1.48393 -0.619377 0
M  V30 4587 O 425.89 -1.68505 -0.441785 0
M  V30 4588 C 423.022 -3.32428 -0.755279 0
M  V30 4589 H 424.215 -2.83269 0.984823 0
M  V30 4590 H 421.768 -1.46358 0.548544 0
M  V30 4591 H 422.503 -2.82808 -1.58714 0
M  V30 4592 H 422.288 -3.91659 -0.185817 0
M  V30 4593 H 423.778 -4.00824 -1.17174 0
M  V30 4594 N 424.215 -0.530993 -1.48385 0
M  V30 4595 C 425.147 0.268353 -2.27624 0
M  V30 4596 C 426.16 0.903525 -1.35426 0
M  V30 4597 O 427.349 0.781796 -1.60469 0
M  V30 4598 C 424.449 1.39535 -3.08842 0
M  V30 4599 C 423.622 0.861913 -4.28824 0
M  V30 4600 C 422.681 1.87016 -4.91845 0
M  V30 4601 O 421.707 1.4267 -5.5103 0
M  V30 4602 N 422.909 3.20238 -4.84178 0
M  V30 4603 H 425.674 -0.41123 -2.96865 0
M  V30 4604 H 423.235 -0.365387 -1.57723 0
M  V30 4605 H 425.227 2.06803 -3.47871 0
M  V30 4606 H 423.797 1.97859 -2.42014 0
M  V30 4607 H 423.017 0.0132126 -3.94198 0
M  V30 4608 H 424.305 0.484415 -5.06489 0
M  V30 4609 H 423.703 3.58932 -4.37246 0
M  V30 4610 H 422.26 3.83136 -5.27305 0
M  V30 4611 N 425.693 1.55336 -0.266172 0
M  V30 4612 C 426.939 1.99692 0.353681 0
M  V30 4613 C 427.272 1.1543 1.56172 0
M  V30 4614 O 426.547 0.222218 1.93226 0
M  V30 4615 C 426.83 3.52316 0.74466 0
M  V30 4616 C 426.683 4.47337 -0.470101 0
M  V30 4617 C 428.002 4.10588 1.58447 0
M  V30 4618 H 425.121 0.725961 0.12708 0
M  V30 4619 H 427.763 1.86336 -0.371333 0
M  V30 4620 H 425.913 3.63829 1.36239 0
M  V30 4621 H 427.585 4.4778 -1.10864 0
M  V30 4622 H 425.828 4.19364 -1.10978 0
M  V30 4623 H 426.499 5.51788 -0.15291 0
M  V30 4624 H 428.975 4.02297 1.06286 0
M  V30 4625 H 427.851 5.17607 1.82686 0
M  V30 4626 H 428.112 3.60253 2.56262 0
M  V30 4627 N 427.171 -0.0066808 1.57599 0
M  V30 4628 C 428.118 -1.00024 2.08 0
M  V30 4629 C 429.088 -1.34549 0.973943 0
M  V30 4630 O 430.273 -1.44502 1.24595 0
M  V30 4631 C 427.413 -2.2891 2.58252 0
M  V30 4632 C 426.526 -2.00346 3.82734 0
M  V30 4633 C 425.661 -3.23265 4.21513 0
M  V30 4634 C 424.7 -2.90357 5.3885 0
M  V30 4635 N 423.837 -4.05793 5.72954 0
M  V30 4636 H 428.677 -0.563499 2.92624 0
M  V30 4637 H 426.214 -0.266592 1.44664 0
M  V30 4638 H 428.172 -3.04247 2.85464 0
M  V30 4639 H 426.802 -2.70265 1.76512 0
M  V30 4640 H 425.854 -1.15406 3.62471 0
M  V30 4641 H 427.166 -1.72086 4.68175 0
M  V30 4642 H 426.32 -4.06953 4.49971 0
M  V30 4643 H 425.059 -3.54657 3.34768 0
M  V30 4644 H 424.064 -2.05075 5.10122 0
M  V30 4645 H 425.289 -2.60219 6.27266 0
M  V30 4646 H 423.235 -4.37094 4.89167 0
M  V30 4647 H 423.152 -3.81034 6.52954 0
M  V30 4648 H 424.42 -4.90289 6.06001 0
M  V30 4649 N 428.649 -1.55105 -0.279332 0
M  V30 4650 C 430.06 -1.66186 -0.850832 0
M  V30 4651 C 430.411 -0.584707 -1.87285 0
M  V30 4652 O 429.536 0.274919 -2.14647 0
M  V30 4653 C 430.131 -3.01264 -1.55001 0
M  V30 4654 C 428.69 -3.14394 -2.06963 0
M  V30 4655 C 427.837 -2.61959 -0.909536 0
M  V30 4656 H 430.788 -1.58602 -0.0558235 0
M  V30 4657 H 430.809 -2.93899 -2.41669 0
M  V30 4658 H 430.321 -3.7964 -0.805931 0
M  V30 4659 H 428.422 -2.4078 -2.84352 0
M  V30 4660 H 428.535 -4.20867 -2.28928 0
M  V30 4661 H 426.899 -2.18957 -1.30116 0
M  V30 4662 H 427.682 -3.42833 -0.179062 0
M  V30 4663 N 430.127 0.543554 -1.4793 0
M  V30 4664 C 431.404 1.30458 -1.4574 0
M  V30 4665 C 431.784 2.1048 -0.161692 0
M  V30 4666 O 431.132 2.11831 0.856734 0
M  V30 4667 C 431.342 2.19754 -2.71126 0
M  V30 4668 C 432.69 2.80334 -3.18901 0
M  V30 4669 O 433.714 2.30049 -2.71948 0
M  V30 4670 O 432.573 3.71766 -4.00565 0
M  V30 4671 H 429.667 0.588117 -0.581418 0
M  V30 4672 H 432.213 0.561328 -1.60147 0
M  V30 4673 H 430.985 1.60316 -3.56952 0
M  V30 4674 H 430.608 3.01351 -2.59371 0
M  V30 4675 N 431.605 1.3629 0.791371 0
M  V30 4676 C 432.854 1.29742 1.54434 0
M  V30 4677 C 433.167 -0.121729 1.95221 0
M  V30 4678 O 434.373 -0.309579 2.69729 0
M  V30 4679 C 432.829 2.27623 2.78776 0
M  V30 4680 C 432.437 3.74963 2.45166 0
M  V30 4681 C 434.181 2.30047 3.56761 0
M  V30 4682 C 432.088 4.64626 3.65891 0
M  V30 4683 H 431.018 0.482113 0.579727 0
M  V30 4684 H 433.669 1.61642 0.868565 0
M  V30 4685 H 432.051 1.88714 3.48142 0
M  V30 4686 H 433.225 4.22596 1.83709 0
M  V30 4687 H 431.54 3.75295 1.80396 0
M  V30 4688 H 434.137 2.94247 4.46456 0
M  V30 4689 H 434.48 1.30846 3.95203 0
M  V30 4690 H 435.013 2.67563 2.94372 0
M  V30 4691 H 431.752 5.64883 3.32547 0
M  V30 4692 H 431.272 4.2171 4.26521 0
M  V30 4693 H 432.951 4.80801 4.32943 0
M  V30 4694 N 433.083 -1.0153 1.20538 0
M  V30 4695 C 434.031 -2.12215 0.952235 0
M  V30 4696 C 435.025 -1.69123 -0.0968735 0
M  V30 4697 O 436.231 -1.7992 0.0536006 0
M  V30 4698 H 432.606 -0.693576 0.290613 0
M  V30 4699 H 434.577 -2.3075 1.89201 0
M  V30 4700 C 433.326 -3.43755 0.522287 0
M  V30 4701 H 432.649 -3.7734 1.32115 0
M  V30 4702 H 434.089 -4.22254 0.384389 0
M  V30 4703 C 432.548 -3.28088 -0.765489 0
M  V30 4704 O 433.078 -3.57921 -1.8236 0
M  V30 4705 N 431.284 -2.81333 -0.728011 0
M  V30 4706 H 430.831 -2.57255 0.133332 0
M  V30 4707 H 430.789 -2.71232 -1.58999 0
M  V30 4708 N 434.561 -1.01147 -1.20859 0
M  V30 4709 C 435.493 -0.535546 -2.22855 0
M  V30 4710 C 436.506 0.379323 -1.58319 0
M  V30 4711 O 437.695 0.178489 -1.77605 0
M  V30 4712 C 434.795 0.240962 -3.38042 0
M  V30 4713 C 433.968 -0.674562 -4.32167 0
M  V30 4714 C 433.027 0.053467 -5.26173 0
M  V30 4715 O 432.053 -0.567339 -5.66366 0
M  V30 4716 N 433.255 1.32997 -5.65059 0
M  V30 4717 H 436.02 -1.41268 -2.64317 0
M  V30 4718 H 433.581 -0.888386 -1.35349 0
M  V30 4719 H 435.573 0.737115 -3.97931 0
M  V30 4720 H 434.143 1.01935 -2.95513 0
M  V30 4721 H 433.363 -1.35111 -3.70322 0
M  V30 4722 H 434.651 -1.2974 -4.91981 0
M  V30 4723 H 434.049 1.85536 -5.34409 0
M  V30 4724 H 432.606 1.77095 -6.2728 0
M  V30 4725 N 436.039 1.36541 -0.78704 0
M  V30 4726 C 436.969 2.32659 -0.197992 0
M  V30 4727 C 437.95 1.56533 0.665697 0
M  V30 4728 O 439.135 1.84698 0.60001 0
M  V30 4729 C 436.265 3.40778 0.669901 0
M  V30 4730 C 435.219 4.27897 -0.0937039 0
M  V30 4731 C 434.545 5.27163 0.894629 0
M  V30 4732 C 435.845 5.06334 -1.28154 0
M  V30 4733 H 437.539 2.82171 -1.00099 0
M  V30 4734 H 435.085 1.35665 -0.482793 0
M  V30 4735 H 437.038 4.07008 1.09191 0
M  V30 4736 H 435.762 2.89827 1.50558 0
M  V30 4737 H 434.421 3.6322 -0.49666 0
M  V30 4738 H 434.069 4.72486 1.72527 0
M  V30 4739 H 433.769 5.86317 0.388149 0
M  V30 4740 H 435.293 5.96266 1.31525 0
M  V30 4741 H 436.707 5.65617 -0.93541 0
M  V30 4742 H 435.104 5.74888 -1.72115 0
M  V30 4743 H 436.174 4.38114 -2.07807 0
M  V30 4744 N 437.518 0.538854 1.48102 0
M  V30 4745 C 438.764 0.00801365 2.02798 0
M  V30 4746 C 439.097 -1.3309 1.41424 0
M  V30 4747 O 438.372 -1.86169 0.563158 0
M  V30 4748 C 438.655 -0.104589 3.59948 0
M  V30 4749 C 438.508 1.26012 4.31788 0
M  V30 4750 C 439.827 -0.827055 4.32259 0
M  V30 4751 H 436.946 0.00438624 0.736987 0
M  V30 4752 H 439.588 0.6976 1.7673 0
M  V30 4753 H 437.738 -0.691893 3.82289 0
M  V30 4754 H 439.41 1.88922 4.2084 0
M  V30 4755 H 437.653 1.83968 3.92859 0
M  V30 4756 H 438.324 1.13424 5.40221 0
M  V30 4757 H 440.8 -0.328578 4.14801 0
M  V30 4758 H 439.676 -0.87476 5.41885 0
M  V30 4759 H 439.937 -1.87927 4.0017 0
M  V30 4760 N 438.996 -1.55193 0.274407 0
M  V30 4761 C 439.929 -2.18606 -0.654712 0
M  V30 4762 C 440.907 -1.14677 -1.15273 0
M  V30 4763 O 442.091 -1.43198 -1.22583 0
M  V30 4764 C 439.218 -2.80875 -1.89281 0
M  V30 4765 C 438.264 -3.981 -1.53032 0
M  V30 4766 S 439.097 -5.32025 -0.609107 0
M  V30 4767 C 440.253 -5.97761 -1.85559 0
M  V30 4768 H 440.486 -2.97074 -0.115894 0
M  V30 4769 H 438.019 -1.54288 0.05867 0
M  V30 4770 H 439.977 -3.17381 -2.60345 0
M  V30 4771 H 438.638 -2.02302 -2.40277 0
M  V30 4772 H 437.831 -4.40356 -2.45158 0
M  V30 4773 H 437.433 -3.63013 -0.899874 0
M  V30 4774 H 439.725 -6.16951 -2.7996 0
M  V30 4775 H 440.668 -6.92545 -1.47605 0
M  V30 4776 H 441.076 -5.27113 -2.02021 0
M  V30 4777 N 440.474 -0.00167713 -1.576 0
M  V30 4778 C 441.714 0.687302 -1.92498 0
M  V30 4779 C 442.078 1.70844 -0.876144 0
M  V30 4780 O 443.279 2.44792 -1.11043 0
M  V30 4781 C 441.55 1.31217 -3.32441 0
M  V30 4782 S 443.109 2.02604 -3.89226 0
M  V30 4783 H 439.927 0.226985 -0.673794 0
M  V30 4784 H 442.529 -0.0587666 -1.95412 0
M  V30 4785 H 441.233 0.556164 -4.06614 0
M  V30 4786 H 440.764 2.09613 -3.32905 0
M  V30 4787 H 442.779 3.30137 -3.70438 0
M  V30 4788 N 441.952 1.55251 0.271103 0
M  V30 4789 C 443.363 1.66635 0.842007 0
M  V30 4790 C 443.714 0.594631 1.86972 0
M  V30 4791 O 442.839 -0.263532 2.14789 0
M  V30 4792 C 443.434 3.02082 1.53401 0
M  V30 4793 C 441.993 3.15487 2.05293 0
M  V30 4794 C 441.14 2.62438 0.895631 0
M  V30 4795 H 444.091 1.58629 0.0474117 0
M  V30 4796 H 444.112 2.95176 2.40107 0
M  V30 4797 H 443.624 3.80062 0.785786 0
M  V30 4798 H 441.725 2.42284 2.83071 0
M  V30 4799 H 441.838 4.22075 2.26693 0
M  V30 4800 H 440.202 2.19644 1.28953 0
M  V30 4801 H 440.985 3.42923 0.160878 0
M  V30 4802 N 443.43 -0.535701 1.48216 0
M  V30 4803 C 444.658 -1.31671 1.59594 0
M  V30 4804 C 445.073 -1.87083 0.254056 0
M  V30 4805 O 444.43 -1.66112 -0.755854 0
M  V30 4806 C 444.481 -2.47158 2.63809 0
M  V30 4807 O 444.202 -1.94032 3.92789 0
M  V30 4808 C 445.703 -3.39062 2.85573 0
M  V30 4809 H 442.923 -0.400623 0.538277 0
M  V30 4810 H 445.467 -0.646827 1.94001 0
M  V30 4811 H 443.622 -3.10043 2.32276 0
M  V30 4812 H 444.036 -2.69585 4.49916 0
M  V30 4813 H 445.51 -4.16459 3.62306 0
M  V30 4814 H 445.987 -3.93941 1.94184 0
M  V30 4815 H 446.593 -2.81975 3.18387 0
M  V30 4816 N 444.908 -1.36708 -0.784132 0
M  V30 4817 C 445.818 -1.3363 -1.92822 0
M  V30 4818 C 446.834 -0.237686 -1.72369 0
M  V30 4819 O 448.01 -0.470962 -1.95816 0
M  V30 4820 C 445.075 -1.13011 -3.27764 0
M  V30 4821 C 444.136 -2.32397 -3.60957 0
M  V30 4822 C 443.369 -2.12752 -4.89461 0
M  V30 4823 O 443.592 -1.10541 -5.59586 0
M  V30 4824 O 442.526 -3.00653 -5.21432 0
M  V30 4825 H 446.352 -2.29964 -1.98369 0
M  V30 4826 H 443.937 -1.1731 -0.925136 0
M  V30 4827 H 445.819 -1.03451 -4.08504 0
M  V30 4828 H 444.494 -0.19743 -3.23097 0
M  V30 4829 H 443.401 -2.47527 -2.80502 0
M  V30 4830 H 444.734 -3.2419 -3.70354 0
M  V30 4831 N 446.386 1.0089 -1.21074 0
M  V30 4832 C 447.616 1.77933 -1.04993 0
M  V30 4833 C 448.024 1.84847 0.403495 0
M  V30 4834 O 447.367 1.30606 1.29181 0
M  V30 4835 C 447.429 3.23541 -1.56722 0
M  V30 4836 C 447.093 3.40214 -3.05129 0
M  V30 4837 C 448.09 3.2881 -4.02716 0
M  V30 4838 C 445.775 3.65781 -3.44252 0
M  V30 4839 C 447.769 3.42732 -5.37414 0
M  V30 4840 C 445.456 3.79346 -4.79103 0
M  V30 4841 C 446.454 3.67827 -5.75493 0
M  V30 4842 O 446.142 3.80965 -7.07899 0
M  V30 4843 H 445.874 0.566157 -0.369381 0
M  V30 4844 H 448.428 1.27826 -1.60779 0
M  V30 4845 H 446.658 3.74766 -0.953285 0
M  V30 4846 H 448.347 3.82245 -1.36543 0
M  V30 4847 H 449.113 3.08986 -3.73835 0
M  V30 4848 H 444.992 3.73831 -2.69762 0
M  V30 4849 H 448.536 3.33658 -6.12632 0
M  V30 4850 H 444.433 3.98672 -5.07672 0
M  V30 4851 H 445.201 3.97937 -7.15254 0
M  V30 4852 N 447.864 1.01787 1.20321 0
M  V30 4853 C 448.812 0.58254 2.25187 0
M  V30 4854 C 449.806 -0.379359 1.65098 0
M  V30 4855 O 451.012 -0.249142 1.78267 0
M  V30 4856 H 447.387 0.170078 0.732514 0
M  V30 4857 H 449.358 1.47788 2.59232 0
M  V30 4858 C 448.107 -0.0620885 3.47645 0
M  V30 4859 H 447.43 0.669069 3.94162 0
M  V30 4860 H 448.87 -0.329784 4.22716 0
M  V30 4861 C 447.329 -1.3053 3.10586 0
M  V30 4862 O 447.859 -2.39848 3.22236 0
M  V30 4863 N 446.065 -1.18988 2.65123 0
M  V30 4864 H 445.612 -0.300341 2.55843 0
M  V30 4865 H 445.57 -2.02267 2.40698 0
M  V30 4866 N 449.342 -1.36122 0.79427 0
M  V30 4867 C 450.289 -2.29982 0.194101 0
M  V30 4868 C 451.259 -1.52214 -0.664833 0
M  V30 4869 O 452.444 -1.80702 -0.612498 0
M  V30 4870 C 449.584 -3.38706 -0.661244 0
M  V30 4871 C 448.697 -4.31456 0.216766 0
M  V30 4872 C 447.832 -5.27265 -0.645411 0
M  V30 4873 C 446.871 -6.11653 0.233756 0
M  V30 4874 N 446.008 -6.99636 -0.587682 0
M  V30 4875 H 450.848 -2.80722 0.999965 0
M  V30 4876 H 448.385 -1.38172 0.504677 0
M  V30 4877 H 450.343 -4.00394 -1.17219 0
M  V30 4878 H 448.973 -2.89274 -1.43249 0
M  V30 4879 H 448.025 -3.7088 0.845724 0
M  V30 4880 H 449.337 -4.90724 0.893973 0
M  V30 4881 H 448.491 -5.94266 -1.22198 0
M  V30 4882 H 447.23 -4.68463 -1.35623 0
M  V30 4883 H 446.235 -5.4361 0.82269 0
M  V30 4884 H 447.46 -6.72531 0.942247 0
M  V30 4885 H 445.406 -6.43337 -1.2827 0
M  V30 4886 H 445.323 -7.55993 0.0317402 0
M  V30 4887 H 446.591 -7.71001 -1.14792 0
M  V30 4888 N 450.82 -0.546701 -1.47814 0
M  V30 4889 C 452.045 -0.021268 -2.07389 0
M  V30 4890 C 452.47 1.25822 -1.39822 0
M  V30 4891 O 451.828 1.75111 -0.46968 0
M  V30 4892 C 451.876 0.168502 -3.60206 0
M  V30 4893 O 450.98 1.23347 -3.93522 0
M  V30 4894 H 450.321 -0.0466108 -0.662362 0
M  V30 4895 H 452.851 -0.759387 -1.89985 0
M  V30 4896 H 452.861 0.385982 -4.0617 0
M  V30 4897 H 451.536 -0.766075 -4.08784 0
M  V30 4898 H 450.113 0.997319 -3.59316 0
M  V30 4899 N 452.299 1.55045 -0.282633 0
M  V30 4900 C 453.545 2.0078 0.325436 0
M  V30 4901 C 453.9 1.1676 1.52921 0
M  V30 4902 O 453.193 0.231475 1.90197 0
M  V30 4903 C 453.387 3.49422 0.750938 0
M  V30 4904 C 453.216 4.47827 -0.410056 0
M  V30 4905 C 451.986 4.97288 -0.896239 0
M  V30 4906 C 454.184 4.98903 -1.24902 0
M  V30 4907 N 452.166 5.79508 -2.02591 0
M  V30 4908 C 453.537 5.78644 -2.22646 0
M  V30 4909 C 455.592 4.81126 -1.2815 0
M  V30 4910 C 454.295 6.42502 -3.23393 0
M  V30 4911 C 456.321 5.45789 -2.27745 0
M  V30 4912 C 455.683 6.25348 -3.24222 0
M  V30 4913 H 451.782 0.77747 0.08405 0
M  V30 4914 H 454.366 1.90369 -0.408368 0
M  V30 4915 H 452.537 3.60159 1.45395 0
M  V30 4916 H 454.269 3.81978 1.33698 0
M  V30 4917 H 451.024 4.71219 -0.474277 0
M  V30 4918 H 451.448 6.25308 -2.59459 0
M  V30 4919 H 456.09 4.19215 -0.549397 0
M  V30 4920 H 453.808 7.03558 -3.97533 0
M  V30 4921 H 457.394 5.33972 -2.31009 0
M  V30 4922 H 456.274 6.74498 -4.00027 0
M  V30 4923 N 453.777 0.010035 1.57597 0
M  V30 4924 C 455.002 -0.687021 1.95691 0
M  V30 4925 C 455.427 -1.65952 0.885519 0
M  V30 4926 O 454.785 -1.80633 -0.15543 0
M  V30 4927 C 454.833 -1.3864 3.32884 0
M  V30 4928 O 453.937 -2.50115 3.27897 0
M  V30 4929 H 453.278 -0.181989 0.638573 0
M  V30 4930 H 455.808 0.0662122 2.04493 0
M  V30 4931 H 455.818 -1.74754 3.6868 0
M  V30 4932 H 454.493 -0.673411 4.10412 0
M  V30 4933 H 453.07 -2.16253 3.03791 0
M  V30 4934 N 455.255 -1.55392 -0.262866 0
M  V30 4935 C 456.203 -1.8977 -1.345 0
M  V30 4936 C 457.197 -0.775063 -1.50629 0
M  V30 4937 O 458.403 -0.959519 -1.52293 0
M  V30 4938 H 454.778 -0.602467 -0.450041 0
M  V30 4939 H 456.749 -2.80147 -1.02762 0
M  V30 4940 C 455.498 -2.19501 -2.69657 0
M  V30 4941 H 454.821 -3.05378 -2.5804 0
M  V30 4942 H 456.261 -2.47469 -3.44289 0
M  V30 4943 C 454.72 -1.00597 -3.21531 0
M  V30 4944 O 455.25 -0.245768 -4.00947 0
M  V30 4945 N 453.456 -0.800911 -2.79345 0
M  V30 4946 H 453.003 -1.42079 -2.14875 0
M  V30 4947 H 452.961 -0.00697996 -3.14399 0
M  V30 4948 N 456.733 0.527833 -1.48498 0
M  V30 4949 C 458.144 1.10975 -1.50138 0
M  V30 4950 C 458.495 1.943 -0.272378 0
M  V30 4951 O 457.62 2.07319 0.620301 0
M  V30 4952 C 458.215 2.01927 -2.72049 0
M  V30 4953 C 456.774 2.55332 -2.76554 0
M  V30 4954 C 455.921 1.32341 -2.43683 0
M  V30 4955 H 458.872 0.312986 -1.55583 0
M  V30 4956 H 458.893 2.86244 -2.50689 0
M  V30 4957 H 458.405 1.41254 -3.61481 0
M  V30 4958 H 456.506 3.19721 -1.91336 0
M  V30 4959 H 456.619 2.94319 -3.78038 0
M  V30 4960 H 454.983 1.63989 -1.94884 0
M  V30 4961 H 455.766 0.734165 -3.35358 0
M  V30 4962 N 458.211 1.37122 0.776871 0
M  V30 4963 C 459.159 1.32549 1.91138 0
M  V30 4964 C 460.153 0.215119 1.68029 0
M  V30 4965 O 461.359 0.382852 1.75881 0
M  V30 4966 H 457.734 0.412952 0.62847 0
M  V30 4967 H 459.705 2.28332 1.92112 0
M  V30 4968 C 458.454 1.14422 3.28333 0
M  V30 4969 H 457.777 1.99115 3.46689 0
M  V30 4970 H 459.217 1.15272 4.0803 0
M  V30 4971 C 457.676 -0.150434 3.36564 0
M  V30 4972 O 458.206 -1.13584 3.85307 0
M  V30 4973 N 456.412 -0.19939 2.89915 0
M  V30 4974 H 455.959 0.603142 2.5044 0
M  V30 4975 H 455.917 -1.06526 2.95803 0
M  V30 4976 N 459.689 -1.00246 1.21608 0
M  V30 4977 C 460.937 -1.73717 1.0328 0
M  V30 4978 C 461.258 -1.90102 -0.434318 0
M  V30 4979 O 460.528 -1.45376 -1.31311 0
M  V30 4980 H 459.108 -0.643613 0.379172 0
M  V30 4981 H 461.77 -1.20787 1.52959 0
M  V30 4982 H 460.866 -2.73535 1.50283 0
M  V30 4983 N 461.167 -1.02423 -1.1978 0
M  V30 4984 C 462.115 -0.594474 -2.24875 0
M  V30 4985 C 463.109 0.370598 -1.65296 0
M  V30 4986 O 464.315 0.239684 -1.78397 0
M  V30 4987 H 460.69 -0.173961 -0.731602 0
M  V30 4988 H 462.661 -1.4916 -2.58445 0
M  V30 4989 C 461.41 0.0436512 -3.47673 0
M  V30 4990 H 460.733 -0.689963 -3.93801 0
M  V30 4991 H 462.173 0.307362 -4.22884 0
M  V30 4992 C 460.632 1.28881 -3.11274 0
M  V30 4993 O 461.162 2.38135 -3.23503 0
M  V30 4994 N 459.368 1.1758 -2.6575 0
M  V30 4995 H 458.915 0.286769 -2.55999 0
M  V30 4996 H 458.873 2.00988 -2.41767 0
M  V30 4997 N 462.645 1.35699 -0.801477 0
M  V30 4998 C 463.875 2.02862 -0.3912 0
M  V30 4999 C 464.283 1.60552 1.00099 0
M  V30 5000 O 463.626 0.796215 1.65548 0
M  V30 5001 C 463.688 3.57386 -0.389299 0
M  V30 5002 C 463.352 4.22943 -1.73113 0
M  V30 5003 C 464.349 4.44984 -2.68859 0
M  V30 5004 C 462.034 4.60167 -2.01373 0
M  V30 5005 C 464.028 5.03345 -3.91053 0
M  V30 5006 C 461.715 5.18243 -3.23832 0
M  V30 5007 C 462.713 5.39773 -4.1849 0
M  V30 5008 O 462.401 5.96626 -5.38788 0
M  V30 5009 H 462.133 0.657341 -0.157732 0
M  V30 5010 H 464.687 1.74407 -1.08496 0
M  V30 5011 H 462.917 3.85011 0.361031 0
M  V30 5012 H 464.606 4.059 -0.0020365 0
M  V30 5013 H 465.372 4.1661 -2.48316 0
M  V30 5014 H 461.251 4.42726 -1.28508 0
M  V30 5015 H 464.795 5.20065 -4.64949 0
M  V30 5016 H 460.692 5.46044 -3.44248 0
M  V30 5017 H 461.46 6.15082 -5.40015 0
M  V30 5018 N 464.123 0.554532 1.47522 0
M  V30 5019 C 465.053 -0.182974 2.32782 0
M  V30 5020 C 466.034 -0.911377 1.43624 0
M  V30 5021 O 467.219 -0.892366 1.72483 0
M  V30 5022 C 464.349 -1.21513 3.25349 0
M  V30 5023 C 463.303 -0.603355 4.23726 0
M  V30 5024 C 462.629 -1.73995 5.05598 0
M  V30 5025 C 463.929 0.441121 5.20434 0
M  V30 5026 H 465.623 0.52882 2.94693 0
M  V30 5027 H 463.169 0.255759 1.41711 0
M  V30 5028 H 465.122 -1.73922 3.83835 0
M  V30 5029 H 463.846 -1.95683 2.61487 0
M  V30 5030 H 462.505 -0.10059 3.66462 0
M  V30 5031 H 462.153 -2.47063 4.38143 0
M  V30 5032 H 461.853 -1.3364 5.72201 0
M  V30 5033 H 463.377 -2.26735 5.66942 0
M  V30 5034 H 464.791 0.00319931 5.733 0
M  V30 5035 H 463.188 0.763402 5.95224 0
M  V30 5036 H 464.258 1.33799 4.66075 0
M  V30 5037 N 465.601 -1.54893 0.290851 0
M  V30 5038 C 466.829 -2.04343 -0.324288 0
M  V30 5039 C 467.244 -1.16859 -1.48289 0
M  V30 5040 O 466.601 -0.192018 -1.81487 0
M  V30 5041 C 466.652 -3.52756 -0.79026 0
M  V30 5042 O 466.373 -4.36913 0.322213 0
M  V30 5043 C 467.874 -4.18161 -1.4716 0
M  V30 5044 H 465.094 -0.667135 -0.0719173 0
M  V30 5045 H 467.638 -1.99981 0.427529 0
M  V30 5046 H 465.793 -3.57511 -1.49213 0
M  V30 5047 H 466.207 -5.24486 -0.0387372 0
M  V30 5048 H 467.681 -5.23562 -1.7489 0
M  V30 5049 H 468.158 -3.67282 -2.40834 0
M  V30 5050 H 468.764 -4.17454 -0.813178 0
M  V30 5051 N 467.08 -0.0183926 -1.57589 0
M  V30 5052 C 468.308 0.673046 -1.95647 0
M  V30 5053 C 468.723 1.66275 -0.894312 0
M  V30 5054 O 468.08 1.82072 0.124975 0
M  V30 5055 C 468.131 1.38884 -3.33756 0
M  V30 5056 O 467.852 0.438806 -4.35897 0
M  V30 5057 C 469.353 2.1731 -3.86383 0
M  V30 5058 H 466.573 0.186292 -0.644621 0
M  V30 5059 H 469.117 -0.0749748 -2.04363 0
M  V30 5060 H 467.272 2.08835 -3.26293 0
M  V30 5061 H 467.686 0.945869 -5.15901 0
M  V30 5062 H 469.16 2.62863 -4.85394 0
M  V30 5063 H 469.637 3.00764 -3.20059 0
M  V30 5064 H 470.243 1.52339 -3.97081 0
M  V30 5065 N 468.558 1.5553 0.254621 0
M  V30 5066 C 469.488 1.9268 1.31897 0
M  V30 5067 C 470.469 0.790797 1.506 0
M  V30 5068 O 471.654 1.05045 1.63337 0
M  V30 5069 C 468.784 2.21477 2.67517 0
M  V30 5070 C 467.738 3.37256 2.63519 0
M  V30 5071 C 467.064 3.51576 4.02862 0
M  V30 5072 C 468.364 4.73157 2.21179 0
M  V30 5073 H 470.058 2.81832 1.01051 0
M  V30 5074 H 467.604 1.35599 0.484662 0
M  V30 5075 H 469.557 2.46055 3.42104 0
M  V30 5076 H 468.281 1.29144 2.99982 0
M  V30 5077 H 466.94 3.12675 1.9139 0
M  V30 5078 H 466.588 2.56676 4.32581 0
M  V30 5079 H 466.288 4.2943 4.01078 0
M  V30 5080 H 467.812 3.78467 4.79161 0
M  V30 5081 H 469.226 4.97158 2.85494 0
M  V30 5082 H 467.623 5.54058 2.30521 0
M  V30 5083 H 468.693 4.70739 1.16332 0
M  V30 5084 N 470.036 -0.519951 1.48776 0
M  V30 5085 C 471.284 -1.2727 1.56993 0
M  V30 5086 C 471.605 -1.9339 0.25004 0
M  V30 5087 O 470.875 -1.81822 -0.729216 0
M  V30 5088 H 469.455 -0.472732 0.578389 0
M  V30 5089 H 472.117 -0.604234 1.85297 0
M  V30 5090 H 471.213 -2.04669 2.3562 0
M  V30 5091 N 471.514 -1.37532 -0.769588 0
M  V30 5092 C 472.791 -1.23392 -1.51768 0
M  V30 5093 C 473.171 0.17157 -2.10402 0
M  V30 5094 O 472.519 1.17943 -1.95708 0
M  V30 5095 C 472.729 -2.33163 -2.59685 0
M  V30 5096 C 474.077 -2.70809 -3.27028 0
M  V30 5097 O 475.101 -2.32355 -2.69981 0
M  V30 5098 O 473.96 -3.37066 -4.30173 0
M  V30 5099 H 471.054 -0.481617 -0.67229 0
M  V30 5100 H 473.6 -1.49318 -0.806368 0
M  V30 5101 H 472.372 -3.27273 -2.14494 0
M  V30 5102 H 471.995 -2.08713 -3.38415 0
M  V30 5103 N 472.992 0.995999 -1.22138 0
M  V30 5104 C 473.939 2.08551 -0.988687 0
M  V30 5105 C 474.909 1.65864 0.0885021 0
M  V30 5106 O 476.094 1.90704 -0.0604589 0
M  V30 5107 C 473.234 3.40374 -0.569191 0
M  V30 5108 C 472.347 3.96421 -1.71681 0
M  V30 5109 C 471.482 5.1639 -1.2456 0
M  V30 5110 C 470.521 5.64567 -2.36497 0
M  V30 5111 N 469.658 6.75777 -1.90445 0
M  V30 5112 H 474.498 2.2779 -1.92135 0
M  V30 5113 H 472.035 1.1168 -0.957388 0
M  V30 5114 H 473.993 4.16068 -0.307166 0
M  V30 5115 H 472.623 3.21145 0.326462 0
M  V30 5116 H 471.675 3.17628 -2.09324 0
M  V30 5117 H 472.987 4.2816 -2.55891 0
M  V30 5118 H 472.141 5.99362 -0.940774 0
M  V30 5119 H 470.88 4.86266 -0.373662 0
M  V30 5120 H 469.885 4.80185 -2.67772 0
M  V30 5121 H 471.11 5.96716 -3.24202 0
M  V30 5122 H 469.056 6.47443 -1.05609 0
M  V30 5123 H 468.973 7.06818 -2.68223 0
M  V30 5124 H 470.241 7.62262 -1.63022 0
M  V30 5125 N 474.47 1.03057 1.19235 0
M  V30 5126 C 475.4 0.633497 2.24742 0
M  V30 5127 C 476.381 -0.358335 1.66283 0
M  V30 5128 O 477.566 -0.240676 1.92703 0
M  V30 5129 C 474.696 -0.0147648 3.47297 0
M  V30 5130 C 473.65 0.899527 4.18441 0
M  V30 5131 C 472.976 0.116281 5.34574 0
M  V30 5132 C 474.276 2.21404 4.73051 0
M  V30 5133 H 475.97 1.5155 2.58211 0
M  V30 5134 H 473.516 0.73014 1.24117 0
M  V30 5135 H 475.469 -0.304202 4.20301 0
M  V30 5136 H 474.193 -0.931577 3.13032 0
M  V30 5137 H 472.852 1.17319 3.47321 0
M  V30 5138 H 472.5 -0.802619 4.96555 0
M  V30 5139 H 472.2 0.725293 5.83107 0
M  V30 5140 H 473.724 -0.166376 6.10373 0
M  V30 5141 H 475.138 1.98601 5.37802 0
M  V30 5142 H 473.535 2.77512 5.32078 0
M  V30 5143 H 474.605 2.86752 3.91026 0
M  V30 5144 N 475.948 -1.35272 0.808662 0
M  V30 5145 C 476.896 -2.31663 0.208606 0
M  V30 5146 C 477.89 -1.56731 -0.642778 0
M  V30 5147 O 479.096 -1.71843 -0.53571 0
M  V30 5148 H 475.471 -0.750421 0.0486993 0
M  V30 5149 H 477.442 -2.79814 1.03666 0
M  V30 5150 C 476.191 -3.42008 -0.626573 0
M  V30 5151 H 475.514 -3.99795 0.0192103 0
M  V30 5152 H 476.954 -4.11727 -1.01278 0
M  V30 5153 C 475.413 -2.85226 -1.79298 0
M  V30 5154 O 475.943 -2.78945 -2.89055 0
M  V30 5155 N 474.149 -2.42245 -1.60516 0
M  V30 5156 H 473.696 -2.47554 -0.712375 0
M  V30 5157 H 473.654 -2.04603 -2.38715 0
M  V30 5158 N 477.426 -0.562348 -1.47226 0
M  V30 5159 C 478.837 -0.130325 -1.86245 0
M  V30 5160 C 479.188 1.30128 -1.46838 0
M  V30 5161 O 478.313 1.97974 -0.873805 0
M  V30 5162 C 478.908 -0.229738 -3.3802 0
M  V30 5163 C 477.467 0.14728 -3.76112 0
M  V30 5164 C 476.614 -0.574971 -2.71274 0
M  V30 5165 H 479.565 -0.771773 -1.3867 0
M  V30 5166 H 479.586 0.550316 -3.76499 0
M  V30 5167 H 479.098 -1.27178 -3.66671 0
M  V30 5168 H 477.199 1.19023 -3.53078 0
M  V30 5169 H 477.312 -0.214858 -4.78618 0
M  V30 5170 H 475.676 -0.0174756 -2.54694 0
M  V30 5171 H 476.459 -1.61827 -3.02766 0
M  V30 5172 N 478.904 1.54736 -0.299062 0
M  V30 5173 C 480.129 2.04975 0.316254 0
M  V30 5174 C 480.554 1.17501 1.46885 0
M  V30 5175 O 479.912 0.178678 1.80417 0
M  V30 5176 C 479.96 3.52672 0.751997 0
M  V30 5177 O 479.064 3.68226 1.85697 0
M  V30 5178 H 478.405 0.661126 0.0617175 0
M  V30 5179 H 480.935 1.99805 -0.440341 0
M  V30 5180 H 480.945 3.94488 1.04133 0
M  V30 5181 H 479.62 4.158 -0.0911482 0
M  V30 5182 H 478.197 3.38316 1.56834 0
M  V30 5183 N 480.382 0.0267497 1.57577 0
M  V30 5184 C 481.631 -0.651736 1.9088 0
M  V30 5185 C 481.944 -1.73427 0.904576 0
M  V30 5186 O 483.15 -2.46923 1.12877 0
M  V30 5187 C 481.606 -1.21048 3.38933 0
M  V30 5188 C 481.214 -0.161362 4.47709 0
M  V30 5189 C 482.958 -1.86562 3.81307 0
M  V30 5190 C 480.865 -0.731611 5.86857 0
M  V30 5191 H 479.795 -0.247198 0.712326 0
M  V30 5192 H 482.446 0.0916641 1.83271 0
M  V30 5193 H 480.828 -2.00542 3.41466 0
M  V30 5194 H 482.002 0.61094 4.56732 0
M  V30 5195 H 480.317 0.394877 4.14523 0
M  V30 5196 H 482.914 -2.30178 4.8262 0
M  V30 5197 H 483.257 -2.70735 3.16241 0
M  V30 5198 H 483.79 -1.13762 3.81186 0
M  V30 5199 H 480.529 0.0719329 6.55461 0
M  V30 5200 H 480.049 -1.47245 5.81445 0
M  V30 5201 H 481.728 -1.22208 6.35354 0
M  V30 5202 N 481.861 -1.55662 -0.24637 0
M  V30 5203 C 482.793 -1.86811 -1.32794 0
M  V30 5204 C 483.806 -0.754413 -1.44265 0
M  V30 5205 O 484.995 -1.03253 -1.45606 0
M  V30 5206 C 482.095 -2.0397 -2.70646 0
M  V30 5207 C 481.268 -3.34832 -2.81436 0
M  V30 5208 C 480.327 -3.41727 -4.00136 0
M  V30 5209 O 479.353 -4.14934 -3.89639 0
M  V30 5210 N 480.555 -2.71058 -5.1333 0
M  V30 5211 H 483.32 -2.80174 -1.06409 0
M  V30 5212 H 480.881 -1.55906 -0.43647 0
M  V30 5213 H 482.873 -2.05924 -3.48393 0
M  V30 5214 H 481.443 -1.1735 -2.89738 0
M  V30 5215 H 480.663 -3.4519 -1.90361 0
M  V30 5216 H 481.951 -4.21085 -2.85595 0
M  V30 5217 H 481.349 -2.11314 -5.2475 0
M  V30 5218 H 479.906 -2.78704 -5.89209 0
M  V30 5219 N 483.339 0.512053 -1.4905 0
M  V30 5220 C 484.588 1.26343 -1.57227 0
M  V30 5221 C 484.901 1.93876 -0.259155 0
M  V30 5222 O 486.107 2.70612 -0.219358 0
M  V30 5223 C 484.563 2.29343 -2.77362 0
M  V30 5224 C 484.171 1.67799 -4.15388 0
M  V30 5225 C 485.915 3.05378 -2.94864 0
M  V30 5226 C 483.822 2.68845 -5.2676 0
M  V30 5227 H 482.752 0.475231 -0.585382 0
M  V30 5228 H 485.403 0.53862 -1.75417 0
M  V30 5229 H 483.785 3.04938 -2.52643 0
M  V30 5230 H 484.959 0.982715 -4.50199 0
M  V30 5231 H 483.274 1.04194 -4.03153 0
M  V30 5232 H 485.871 3.80921 -3.75238 0
M  V30 5233 H 486.214 3.62327 -2.05 0
M  V30 5234 H 486.747 2.36898 -3.19569 0
M  V30 5235 H 483.486 2.16692 -6.18647 0
M  V30 5236 H 483.006 3.36647 -4.96416 0
M  V30 5237 H 484.685 3.31487 -5.5563 0
M  V30 5238 N 484.817 1.37938 0.762283 0
M  V30 5239 C 485.75 1.2884 1.88349 0
M  V30 5240 C 486.728 0.167084 1.61739 0
M  V30 5241 O 487.912 0.34292 1.85355 0
M  V30 5242 C 485.039 0.994257 3.23778 0
M  V30 5243 C 484.085 2.13376 3.69287 0
M  V30 5244 S 484.918 3.75439 3.81845 0
M  V30 5245 C 486.074 3.48195 5.20107 0
M  V30 5246 H 486.307 2.23736 1.95779 0
M  V30 5247 H 483.84 1.23672 0.924368 0
M  V30 5248 H 485.798 0.83138 4.01993 0
M  V30 5249 H 484.459 0.0626251 3.14038 0
M  V30 5250 H 483.652 1.88319 4.67495 0
M  V30 5251 H 483.254 2.25726 2.98201 0
M  V30 5252 H 485.546 3.0377 6.05583 0
M  V30 5253 H 486.489 4.45765 5.50181 0
M  V30 5254 H 486.897 2.82905 4.88493 0
M  V30 5255 N 486.295 -0.989507 1.22664 0
M  V30 5256 C 487.541 -1.73298 1.06487 0
M  V30 5257 C 487.896 -1.88292 -0.395438 0
M  V30 5258 O 487.189 -1.41748 -1.28911 0
M  V30 5259 C 487.383 -3.13649 1.71345 0
M  V30 5260 C 487.212 -3.12341 3.23532 0
M  V30 5261 C 485.982 -3.18044 3.92653 0
M  V30 5262 C 488.18 -2.96226 4.20422 0
M  V30 5263 N 486.162 -3.06526 5.31898 0
M  V30 5264 C 487.533 -2.92773 5.4652 0
M  V30 5265 C 489.588 -2.80642 4.11271 0
M  V30 5266 C 488.291 -2.75332 6.64519 0
M  V30 5267 C 490.317 -2.64563 5.28924 0
M  V30 5268 C 489.679 -2.618 6.53942 0
M  V30 5269 H 485.778 -0.643643 0.444126 0
M  V30 5270 H 488.362 -1.17489 1.55256 0
M  V30 5271 H 486.533 -3.67694 1.25122 0
M  V30 5272 H 488.265 -3.76577 1.48229 0
M  V30 5273 H 485.02 -3.25861 3.43673 0
M  V30 5274 H 485.444 -3.04067 6.04874 0
M  V30 5275 H 490.086 -2.81574 3.15398 0
M  V30 5276 H 487.804 -2.73145 7.60538 0
M  V30 5277 H 491.39 -2.53482 5.23677 0
M  V30 5278 H 490.27 -2.49511 7.43447 0
M  V30 5279 N 487.773 -1.03688 -1.18687 0
M  V30 5280 C 489.001 -0.757918 -1.92518 0
M  V30 5281 C 489.416 0.684398 -1.75959 0
M  V30 5282 O 488.773 1.46617 -1.08673 0
M  V30 5283 C 488.824 -1.10985 -3.44042 0
M  V30 5284 O 488.545 -2.49554 -3.60076 0
M  V30 5285 C 490.046 -0.854844 -4.3498 0
M  V30 5286 H 487.266 -0.276699 -0.611293 0
M  V30 5287 H 489.81 -1.38352 -1.50595 0
M  V30 5288 H 487.965 -0.529279 -3.83767 0
M  V30 5289 H 488.379 -2.6291 -4.53849 0
M  V30 5290 H 489.853 -1.15098 -5.39867 0
M  V30 5291 H 490.33 0.210507 -4.38695 0
M  V30 5292 H 490.936 -1.41853 -4.00946 0
M  V30 5293 N 489.251 1.34841 -0.815825 0
M  V30 5294 C 490.499 1.98107 -0.399744 0
M  V30 5295 C 490.82 1.65019 1.03894 0
M  V30 5296 O 490.09 0.937311 1.72021 0
M  V30 5297 H 488.67 0.732827 -0.144823 0
M  V30 5298 H 491.332 1.64599 -1.0437 0
M  V30 5299 H 490.428 3.07856 -0.512965 0
M  V30 5300 N 490.729 0.570148 1.46925 0
M  V30 5301 C 492.006 -0.0153259 1.95594 0
M  V30 5302 C 492.386 -1.47232 1.51281 0
M  V30 5303 O 491.734 -2.15574 0.757624 0
M  V30 5304 C 491.944 0.143624 3.48704 0
M  V30 5305 C 493.292 0.00494484 4.246 0
M  V30 5306 O 494.316 0.0718214 3.56128 0
M  V30 5307 O 493.175 -0.141175 5.46318 0
M  V30 5308 H 490.269 -0.0568819 0.825041 0
M  V30 5309 H 492.815 0.637583 1.57267 0
M  V30 5310 H 491.587 1.15699 3.73804 0
M  V30 5311 H 491.21 -0.5463 3.93829 0
M  V30 5312 N 492.207 -1.54576 0.307264 0
M  V30 5313 C 493.623 -1.59534 -0.0459251 0
M  V30 5314 C 493.823 -1.32414 -1.51884 0
M  V30 5315 O 492.879 -1.1006 -2.27251 0
M  V30 5316 C 494.192 -2.98566 0.357649 0
M  V30 5317 C 495.74 -3.11491 0.306937 0
M  V30 5318 C 496.215 -4.52842 0.685427 0
M  V30 5319 N 497.706 -4.58782 0.638203 0
M  V30 5320 C 498.441 -5.66238 0.903458 0
M  V30 5321 N 497.937 -6.81703 1.23501 0
M  V30 5322 N 499.73 -5.55937 0.830102 0
M  V30 5323 H 491.881 -1.70464 1.26712 0
M  V30 5324 H 494.144 -0.79647 0.514139 0
M  V30 5325 H 493.85 -3.23356 1.38325 0
M  V30 5326 H 493.724 -3.76117 -0.285565 0
M  V30 5327 H 496.111 -2.86446 -0.709424 0
M  V30 5328 H 496.192 -2.36081 0.984861 0
M  V30 5329 H 495.836 -4.78618 1.69963 0
M  V30 5330 H 495.766 -5.26598 -0.0146346 0
M  V30 5331 H 498.257 -3.75849 0.393138 0
M  V30 5332 H 498.57 -7.59582 1.42322 0
M  V30 5333 H 496.915 -6.8324 1.27311 0
M  V30 5334 H 500.106 -4.64608 0.570693 0
M  V30 5335 H 500.279 -6.39597 1.04019 0
M  V30 5336 N 493.685 -0.035106 -1.57561 0
M  V30 5337 C 494.931 0.64318 -1.92331 0
M  V30 5338 C 495.264 1.71434 -0.912368 0
M  V30 5339 O 494.539 1.94395 0.0640303 0
M  V30 5340 C 494.822 1.25411 -3.37556 0
M  V30 5341 C 494.675 0.192109 -4.4939 0
M  V30 5342 C 495.994 2.17041 -3.82859 0
M  V30 5343 H 493.113 0.232341 -0.699419 0
M  V30 5344 H 495.755 -0.0935889 -1.89769 0
M  V30 5345 H 493.905 1.88205 -3.39869 0
M  V30 5346 H 495.577 -0.438849 -4.59208 0
M  V30 5347 H 493.82 -0.481725 -4.31117 0
M  V30 5348 H 494.491 0.659292 -5.48049 0
M  V30 5349 H 496.967 1.64228 -3.8232 0
M  V30 5350 H 495.843 2.56738 -4.85157 0
M  V30 5351 H 496.104 3.06401 -3.18702 0
M  V30 5352 N 495.163 1.55791 0.238111 0
M  V30 5353 C 496.412 1.77234 0.962868 0
M  V30 5354 C 496.725 0.600661 1.86149 0
M  V30 5355 O 497.931 0.698315 2.62366 0
M  V30 5356 C 496.387 3.13808 1.76218 0
M  V30 5357 C 495.995 4.3865 0.910518 0
M  V30 5358 C 497.739 3.44585 2.47914 0
M  V30 5359 C 495.646 5.66252 1.70623 0
M  V30 5360 H 494.576 0.660731 0.36325 0
M  V30 5361 H 497.227 1.8221 0.217242 0
M  V30 5362 H 495.609 3.02963 2.55009 0
M  V30 5363 H 496.783 4.60507 0.164316 0
M  V30 5364 H 495.098 4.15271 0.30647 0
M  V30 5365 H 497.695 4.3714 3.07917 0
M  V30 5366 H 498.038 2.66314 3.19973 0
M  V30 5367 H 498.571 3.56685 1.76127 0
M  V30 5368 H 495.31 6.47369 1.02923 0
M  V30 5369 H 494.83 5.48483 2.42748 0
M  V30 5370 H 496.509 6.05829 2.27114 0
M  V30 5371 N 496.642 -0.504142 1.49319 0
M  V30 5372 C 497.867 -1.28729 1.62615 0
M  V30 5373 C 498.292 -1.85752 0.296309 0
M  V30 5374 O 497.65 -1.65704 -0.735649 0
M  V30 5375 C 497.698 -2.39561 2.69524 0
M  V30 5376 O 496.802 -3.43324 2.28478 0
M  V30 5377 H 496.143 -0.380172 0.544395 0
M  V30 5378 H 498.673 -0.603872 1.95485 0
M  V30 5379 H 498.683 -2.8537 2.91595 0
M  V30 5380 H 497.358 -1.97423 3.66056 0
M  V30 5381 H 495.935 -3.03455 2.16725 0
M  V30 5382 N 498.12 -1.38341 -0.754957 0
M  V30 5383 C 499.397 -1.24995 -1.50451 0
M  V30 5384 C 499.777 0.149244 -2.10572 0
M  V30 5385 O 499.125 1.15861 -1.96948 0
M  V30 5386 C 499.335 -2.35904 -2.57197 0
M  V30 5387 C 500.683 -2.74262 -3.24138 0
M  V30 5388 O 501.707 -2.35205 -2.67501 0
M  V30 5389 O 500.566 -3.4161 -4.26574 0
M  V30 5390 H 497.66 -0.48872 -0.667144 0
M  V30 5391 H 500.206 -1.50165 -0.790486 0
M  V30 5392 H 498.978 -3.2953 -2.11011 0
M  V30 5393 H 498.601 -2.12291 -3.36182 0
M  V30 5394 N 499.598 0.982988 -1.23187 0
M  V30 5395 C 500.847 1.71817 -1.05649 0
M  V30 5396 C 501.16 1.91315 0.407176 0
M  V30 5397 O 502.366 2.62256 0.702436 0
M  V30 5398 C 500.822 3.09188 -1.84203 0
M  V30 5399 C 500.43 2.97586 -3.34882 0
M  V30 5400 C 502.174 3.86684 -1.75146 0
M  V30 5401 C 500.081 4.30173 -4.05839 0
M  V30 5402 H 499.011 0.644258 -0.391724 0
M  V30 5403 H 501.662 1.09659 -1.4713 0
M  V30 5404 H 500.044 3.72087 -1.35527 0
M  V30 5405 H 501.218 2.43793 -3.91026 0
M  V30 5406 H 499.533 2.33567 -3.44725 0
M  V30 5407 H 502.13 4.84836 -2.25473 0
M  V30 5408 H 502.473 4.10136 -0.713737 0
M  V30 5409 H 503.006 3.30482 -2.21419 0
M  V30 5410 H 499.745 4.11918 -5.09906 0
M  V30 5411 H 499.265 4.83841 -3.54482 0
M  V30 5412 H 500.944 4.98873 -4.11989 0
M  V30 5413 N 501.076 1.04316 1.18135 0
M  V30 5414 C 502.304 0.768117 1.92113 0
M  V30 5415 C 502.719 -0.675057 1.76319 0
M  V30 5416 O 502.076 -1.46038 1.09449 0
M  V30 5417 C 502.127 1.12808 3.43448 0
M  V30 5418 O 501.848 2.5146 3.58747 0
M  V30 5419 C 503.349 0.8779 4.3452 0
M  V30 5420 H 500.569 0.279937 0.609817 0
M  V30 5421 H 503.113 1.39149 1.49859 0
M  V30 5422 H 501.268 0.549623 3.83481 0
M  V30 5423 H 501.682 2.65313 4.52448 0
M  V30 5424 H 503.156 1.17959 5.39249 0
M  V30 5425 H 503.633 -0.187239 4.38801 0
M  V30 5426 H 504.239 1.43977 4.00188 0
M  V30 5427 N 502.554 -1.34406 0.822964 0
M  V30 5428 C 503.97 -1.51275 0.508727 0
M  V30 5429 C 504.17 -1.76776 -0.967083 0
M  V30 5430 O 503.226 -1.81871 -1.75155 0
M  V30 5431 C 504.539 -2.67765 1.36829 0
M  V30 5432 C 506.087 -2.81647 1.36542 0
M  V30 5433 C 506.562 -4.01181 2.20947 0
M  V30 5434 N 508.053 -4.08388 2.18571 0
M  V30 5435 C 508.788 -5.00036 2.80627 0
M  V30 5436 N 508.284 -5.96906 3.51674 0
M  V30 5437 N 510.077 -4.92908 2.70181 0
M  V30 5438 H 502.228 -1.16113 1.77852 0
M  V30 5439 H 504.491 -0.56947 0.757897 0
M  V30 5440 H 504.197 -2.55551 2.41633 0
M  V30 5441 H 504.071 -3.62779 1.03303 0
M  V30 5442 H 506.458 -2.93303 0.325163 0
M  V30 5443 H 506.539 -1.87443 1.74066 0
M  V30 5444 H 506.183 -3.90286 3.25022 0
M  V30 5445 H 506.113 -4.94599 1.80774 0
M  V30 5446 H 508.604 -3.39051 1.66891 0
M  V30 5447 H 508.917 -6.63468 3.96271 0
M  V30 5448 H 507.262 -5.9703 3.5578 0
M  V30 5449 H 510.453 -4.1619 2.14251 0
M  V30 5450 H 510.626 -5.64137 3.18831 0
M  V30 5451 N 504.032 -0.577932 -1.46621 0
M  V30 5452 C 505.309 0.00495287 -1.95599 0
M  V30 5453 C 505.689 1.46428 -1.5206 0
M  V30 5454 O 505.037 2.1517 -0.769046 0
M  V30 5455 C 505.247 -0.162114 -3.48623 0
M  V30 5456 C 506.595 -0.0274623 -4.24591 0
M  V30 5457 O 507.619 -0.0907067 -3.56084 0
M  V30 5458 O 506.478 0.1122 -5.46385 0
M  V30 5459 H 503.572 0.0525057 -0.825332 0
M  V30 5460 H 506.118 -0.645914 -1.56927 0
M  V30 5461 H 504.89 -1.17679 -3.73185 0
M  V30 5462 H 504.513 0.525407 -3.94113 0
M  V30 5463 N 505.51 1.54411 -0.315457 0
M  V30 5464 C 506.758 2.00023 0.288971 0
M  V30 5465 C 507.079 1.20529 1.5329 0
M  V30 5466 O 506.349 0.304986 1.93511 0
M  V30 5467 H 504.929 0.738891 0.109766 0
M  V30 5468 H 507.591 1.90094 -0.430129 0
M  V30 5469 H 506.687 3.07198 0.550999 0
M  V30 5470 N 506.988 0.0434614 1.5754 0
M  V30 5471 C 508.237 -0.631454 1.91561 0
M  V30 5472 C 508.55 -1.72457 0.92292 0
M  V30 5473 O 509.756 -2.45712 1.15489 0
M  V30 5474 C 508.212 -1.17447 3.40197 0
M  V30 5475 C 507.82 -0.113867 4.47855 0
M  V30 5476 C 509.564 -1.82507 3.83264 0
M  V30 5477 C 507.471 -0.669326 5.876 0
M  V30 5478 H 506.401 -0.239629 0.714908 0
M  V30 5479 H 509.052 0.111097 1.83163 0
M  V30 5480 H 507.434 -1.96909 3.43574 0
M  V30 5481 H 508.608 0.659348 4.56058 0
M  V30 5482 H 506.923 0.438821 4.14081 0
M  V30 5483 H 509.52 -2.25047 4.85034 0
M  V30 5484 H 509.863 -2.67365 3.19095 0
M  V30 5485 H 510.396 -1.09712 3.82372 0
M  V30 5486 H 507.135 0.141449 6.55347 0
M  V30 5487 H 506.655 -1.4107 5.82974 0
M  V30 5488 H 508.334 -1.15463 6.36614 0
M  V30 5489 N 508.466 -1.55915 -0.229846 0
M  V30 5490 C 509.691 -1.8296 -0.976743 0
M  V30 5491 C 510.116 -0.622735 -1.77493 0
M  V30 5492 O 509.474 0.428431 -1.76165 0
M  V30 5493 C 509.522 -3.07916 -1.8767 0
M  V30 5494 O 508.626 -2.86028 -2.97088 0
M  V30 5495 H 507.967 -0.603453 -0.277021 0
M  V30 5496 H 510.497 -2.0312 -0.245669 0
M  V30 5497 H 510.507 -3.37802 -2.2881 0
M  V30 5498 H 509.182 -3.95389 -1.28996 0
M  V30 5499 H 507.759 -2.67355 -2.59954 0
M  V30 5500 N 509.944 0.496216 -1.49584 0
M  V30 5501 C 511.19 1.24918 -1.60521 0
M  V30 5502 C 511.545 1.90197 -0.290352 0
M  V30 5503 O 510.838 1.77967 0.709813 0
M  V30 5504 C 511.032 2.3359 -2.705 0
M  V30 5505 C 510.861 1.78969 -4.12553 0
M  V30 5506 C 509.631 1.60057 -4.79281 0
M  V30 5507 C 511.829 1.29883 -4.97629 0
M  V30 5508 N 509.811 1.00415 -6.05632 0
M  V30 5509 C 511.182 0.824057 -6.14499 0
M  V30 5510 C 513.237 1.18501 -4.83593 0
M  V30 5511 C 511.94 0.246721 -7.18877 0
M  V30 5512 C 513.966 0.621634 -5.88124 0
M  V30 5513 C 513.328 0.157116 -7.04225 0
M  V30 5514 H 509.427 0.446896 -0.641722 0
M  V30 5515 H 512.011 0.555456 -1.86609 0
M  V30 5516 H 510.182 3.00418 -2.46178 0
M  V30 5517 H 511.914 3.00628 -2.70933 0
M  V30 5518 H 508.669 1.84562 -4.36158 0
M  V30 5519 H 509.093 0.725074 -6.73106 0
M  V30 5520 H 513.735 1.53012 -3.94141 0
M  V30 5521 H 511.453 -0.110651 -8.08024 0
M  V30 5522 H 515.039 0.536279 -5.79323 0
M  V30 5523 H 513.919 -0.272009 -7.83728 0
M  V30 5524 N 511.423 1.38739 0.74761 0
M  V30 5525 C 512.672 1.3459 1.50228 0
M  V30 5526 C 512.985 -0.0595592 1.95509 0
M  V30 5527 O 514.191 -0.22361 2.70578 0
M  V30 5528 C 512.647 2.36377 2.71393 0
M  V30 5529 C 512.255 3.82573 2.33113 0
M  V30 5530 C 513.999 2.41281 3.49262 0
M  V30 5531 C 511.906 4.76032 3.50924 0
M  V30 5532 H 510.836 0.500312 0.564096 0
M  V30 5533 H 513.487 1.64324 0.8167 0
M  V30 5534 H 511.869 1.99694 3.41962 0
M  V30 5535 H 513.043 4.28227 1.70171 0
M  V30 5536 H 511.358 3.80844 1.68365 0
M  V30 5537 H 513.955 3.08301 4.36869 0
M  V30 5538 H 514.298 1.43353 3.9084 0
M  V30 5539 H 514.831 2.76793 2.85711 0
M  V30 5540 H 511.57 5.75177 3.14408 0
M  V30 5541 H 511.09 4.35066 4.12889 0
M  V30 5542 H 512.769 4.94331 4.17427 0
M  V30 5543 N 512.901 -0.976442 1.23707 0
M  V30 5544 C 513.849 -2.09078 1.01927 0
M  V30 5545 C 514.843 -1.69345 -0.0430193 0
M  V30 5546 O 516.049 -1.79659 0.110814 0
M  V30 5547 H 512.424 -0.68398 0.312531 0
M  V30 5548 H 514.395 -2.24614 1.96447 0
M  V30 5549 C 513.144 -3.41919 0.631385 0
M  V30 5550 H 512.467 -3.72946 1.44053 0
M  V30 5551 H 513.907 -4.20817 0.518532 0
M  V30 5552 C 512.366 -3.30357 -0.660723 0
M  V30 5553 O 512.896 -3.63542 -1.70881 0
M  V30 5554 N 511.102 -2.83507 -0.638139 0
M  V30 5555 H 510.649 -2.567 0.215108 0
M  V30 5556 H 510.607 -2.76153 -1.50289 0
M  V30 5557 N 514.379 -1.04941 -1.1758 0
M  V30 5558 C 515.289 -0.658826 -2.25159 0
M  V30 5559 C 516.305 0.318941 -1.71052 0
M  V30 5560 O 517.481 0.171669 -2.00667 0
M  V30 5561 C 514.546 -0.0369522 -3.4668 0
M  V30 5562 C 513.607 -1.06484 -4.15884 0
M  V30 5563 C 512.84 -0.472551 -5.31604 0
M  V30 5564 O 513.063 0.718736 -5.65854 0
M  V30 5565 O 511.997 -1.20557 -5.89703 0
M  V30 5566 H 515.823 -1.55533 -2.60851 0
M  V30 5567 H 513.408 -0.820819 -1.24832 0
M  V30 5568 H 515.29 0.308784 -4.20267 0
M  V30 5569 H 513.965 0.833238 -3.12792 0
M  V30 5570 H 512.872 -1.46253 -3.44327 0
M  V30 5571 H 514.205 -1.9061 -4.53794 0
M  V30 5572 N 515.857 1.33968 -0.830081 0
M  V30 5573 C 517.273 1.51003 -0.516742 0
M  V30 5574 C 517.473 1.77286 0.957694 0
M  V30 5575 O 516.529 1.82797 1.74188 0
M  V30 5576 C 517.842 2.67036 -1.38247 0
M  V30 5577 C 519.39 2.80919 -1.38034 0
M  V30 5578 C 519.865 4.00004 -2.23071 0
M  V30 5579 N 521.356 4.07224 -2.20733 0
M  V30 5580 C 522.091 4.98541 -2.83275 0
M  V30 5581 N 521.587 5.95033 -3.54835 0
M  V30 5582 N 523.38 4.91469 -2.72791 0
M  V30 5583 H 515.531 1.15168 -1.78466 0
M  V30 5584 H 517.794 0.565443 -0.760906 0
M  V30 5585 H 517.5 2.54266 -2.42985 0
M  V30 5586 H 517.374 3.62226 -1.05225 0
M  V30 5587 H 519.761 2.93127 -0.340713 0
M  V30 5588 H 519.842 1.86517 -1.75057 0
M  V30 5589 H 519.486 3.88557 -3.27087 0
M  V30 5590 H 519.416 4.93634 -1.83394 0
M  V30 5591 H 521.907 3.38162 -1.68687 0
M  V30 5592 H 522.22 6.61357 -3.99784 0
M  V30 5593 H 520.565 5.95135 -3.58942 0
M  V30 5594 H 523.756 4.15048 -2.16456 0
M  V30 5595 H 523.929 5.62439 -3.21818 0
M  V30 5596 N 517.335 0.585699 1.46312 0
M  V30 5597 C 518.584 0.0701192 2.01578 0
M  V30 5598 C 518.897 -1.29889 1.46247 0
M  V30 5599 O 520.103 -1.90598 1.93351 0
M  V30 5600 C 518.559 0.0747499 3.59822 0
M  V30 5601 C 518.167 1.44226 4.24149 0
M  V30 5602 C 519.911 -0.38673 4.22735 0
M  V30 5603 C 517.818 1.40446 5.74481 0
M  V30 5604 H 516.748 0.0224441 0.753666 0
M  V30 5605 H 519.399 0.737789 1.68015 0
M  V30 5606 H 517.781 -0.659144 3.90476 0
M  V30 5607 H 518.955 2.19612 4.05101 0
M  V30 5608 H 517.27 1.84401 3.73343 0
M  V30 5609 H 519.867 -0.433853 5.32937 0
M  V30 5610 H 520.21 -1.40489 3.91878 0
M  V30 5611 H 520.743 0.293195 3.96718 0
M  V30 5612 H 517.482 2.39952 6.10003 0
M  V30 5613 H 517.002 0.692845 5.95785 0
M  V30 5614 H 518.681 1.11865 6.37256 0
M  V30 5615 N 518.813 -1.54241 0.323641 0
M  V30 5616 C 519.76 -2.24339 -0.542277 0
M  V30 5617 C 520.73 -1.23421 -1.11159 0
M  V30 5618 O 521.915 -1.52104 -1.15192 0
M  V30 5619 C 519.055 -3.00479 -1.69725 0
M  V30 5620 C 518.168 -4.16214 -1.15716 0
M  V30 5621 C 517.303 -4.79884 -2.27783 0
M  V30 5622 C 516.342 -5.87722 -1.71023 0
M  V30 5623 N 515.479 -6.45254 -2.76752 0
M  V30 5624 H 520.319 -2.97935 0.0620613 0
M  V30 5625 H 517.856 -1.47039 0.0423993 0
M  V30 5626 H 519.814 -3.42869 -2.3769 0
M  V30 5627 H 518.444 -2.29217 -2.27288 0
M  V30 5628 H 517.496 -3.78605 -0.369063 0
M  V30 5629 H 518.808 -4.93838 -0.701832 0
M  V30 5630 H 517.962 -5.25243 -3.03651 0
M  V30 5631 H 516.701 -4.01641 -2.76652 0
M  V30 5632 H 515.706 -5.41765 -0.936518 0
M  V30 5633 H 516.931 -6.67863 -1.2303 0
M  V30 5634 H 514.877 -5.69884 -3.24912 0
M  V30 5635 H 514.794 -7.18292 -2.35782 0
M  V30 5636 H 516.062 -6.95269 -3.5245 0
M  V30 5637 N 520.291 -0.0518155 -1.57515 0
M  V30 5638 C 521.707 0.304735 -1.56664 0
M  V30 5639 C 521.907 1.71395 -1.05953 0
M  V30 5640 O 520.963 2.42123 -0.716414 0
M  V30 5641 C 522.276 0.132614 -3.00407 0
M  V30 5642 C 523.824 0.20367 -3.12337 0
M  V30 5643 C 524.299 0.0600706 -4.57961 0
M  V30 5644 N 525.79 0.116326 -4.63054 0
M  V30 5645 C 526.525 0.0293363 -5.73392 0
M  V30 5646 N 526.021 -0.110038 -6.92713 0
M  V30 5647 N 527.814 0.0849651 -5.62036 0
M  V30 5648 H 519.965 -0.973056 -1.888 0
M  V30 5649 H 522.228 -0.377781 -0.869474 0
M  V30 5650 H 521.934 -0.839019 -3.41546 0
M  V30 5651 H 521.808 0.893376 -3.66468 0
M  V30 5652 H 524.195 1.16578 -2.71097 0
M  V30 5653 H 524.276 -0.587857 -2.48954 0
M  V30 5654 H 523.92 -0.898715 -4.99886 0
M  V30 5655 H 523.85 0.87075 -5.19351 0
M  V30 5656 H 526.341 0.22327 -3.7724 0
M  V30 5657 H 526.654 -0.169104 -7.72615 0
M  V30 5658 H 524.999 -0.145132 -6.94848 0
M  V30 5659 H 528.19 0.192411 -4.67704 0
M  V30 5660 H 528.363 0.0137131 -6.47999 0
M  V30 5661 N 521.769 1.56035 0.221574 0
M  V30 5662 C 523.18 1.69229 0.788567 0
M  V30 5663 C 523.531 0.653814 1.84986 0
M  V30 5664 O 522.656 -0.195065 2.15519 0
M  V30 5665 C 523.251 3.06809 1.43713 0
M  V30 5666 C 521.81 3.21858 1.95152 0
M  V30 5667 C 520.957 2.65155 0.811685 0
M  V30 5668 H 523.908 1.587 -0.00307894 0
M  V30 5669 H 523.929 3.02666 2.30594 0
M  V30 5670 H 523.441 3.82369 0.664475 0
M  V30 5671 H 521.542 2.51167 2.7522 0
M  V30 5672 H 521.655 4.29073 2.1315 0
M  V30 5673 H 520.019 2.23635 1.21899 0
M  V30 5674 H 520.802 3.43261 0.0516987 0
M  V30 5675 N 523.247 -0.488276 1.49845 0
M  V30 5676 C 524.21 -1.57069 1.66919 0
M  V30 5677 C 525.21 -1.51445 0.540479 0
M  V30 5678 O 526.4 -1.5437 0.807188 0
M  V30 5679 C 523.532 -2.96718 1.67844 0
M  V30 5680 H 524.725 -1.43254 2.63474 0
M  V30 5681 H 522.278 -0.713435 1.39068 0
M  V30 5682 H 523.013 -3.15996 0.7292 0
M  V30 5683 H 522.798 -3.02208 2.49826 0
M  V30 5684 H 524.288 -3.75335 1.83066 0
M  V30 5685 N 524.725 -1.39134 -0.740242 0
M  V30 5686 C 525.955 -1.39132 -1.52728 0
M  V30 5687 C 526.363 0.0173133 -1.89192 0
M  V30 5688 O 525.706 0.997715 -1.54244 0
M  V30 5689 C 525.768 -2.1952 -2.84695 0
M  V30 5690 C 525.432 -3.68203 -2.70695 0
M  V30 5691 C 526.429 -4.61401 -2.39593 0
M  V30 5692 C 524.114 -4.11724 -2.8773 0
M  V30 5693 C 526.108 -5.96102 -2.25701 0
M  V30 5694 C 523.795 -5.46503 -2.73456 0
M  V30 5695 C 524.793 -6.38506 -2.42486 0
M  V30 5696 O 524.481 -7.70803 -2.28295 0
M  V30 5697 H 524.213 -0.477263 -0.478744 0
M  V30 5698 H 526.767 -1.83504 -0.922799 0
M  V30 5699 H 524.997 -1.69888 -3.47383 0
M  V30 5700 H 526.686 -2.1176 -3.46284 0
M  V30 5701 H 527.452 -4.29079 -2.26088 0
M  V30 5702 H 523.331 -3.4045 -3.10829 0
M  V30 5703 H 526.875 -6.6788 -2.0145 0
M  V30 5704 H 522.772 -5.78417 -2.86538 0
M  V30 5705 H 523.54 -7.8147 -2.43405 0
M  V30 5706 N 526.204 0.969867 -1.24223 0
M  V30 5707 C 527.453 1.70687 -1.07466 0
M  V30 5708 C 527.766 1.91736 0.386861 0
M  V30 5709 O 528.972 2.62986 0.674581 0
M  V30 5710 C 527.428 3.07217 -1.87472 0
M  V30 5711 C 527.036 2.94018 -3.3802 0
M  V30 5712 C 528.78 3.84804 -1.79237 0
M  V30 5713 C 526.687 4.25844 -4.10379 0
M  V30 5714 H 525.617 0.640067 -0.398536 0
M  V30 5715 H 528.268 1.08092 -1.48285 0
M  V30 5716 H 526.65 3.70628 -1.39466 0
M  V30 5717 H 527.824 2.39632 -3.9359 0
M  V30 5718 H 526.139 2.29898 -3.47183 0
M  V30 5719 H 528.736 4.82417 -2.30603 0
M  V30 5720 H 529.079 4.09356 -0.757197 0
M  V30 5721 H 529.612 3.28115 -2.24912 0
M  V30 5722 H 526.351 4.06486 -5.14246 0
M  V30 5723 H 525.871 4.80054 -3.59594 0
M  V30 5724 H 527.55 4.94475 -4.17257 0
M  V30 5725 N 527.682 1.05563 1.17022 0
M  V30 5726 C 528.928 0.778872 1.87897 0
M  V30 5727 C 529.283 -0.686839 1.79723 0
M  V30 5728 O 528.576 -1.49612 1.19694 0
M  V30 5729 C 528.77 1.19849 3.36706 0
M  V30 5730 C 528.599 2.70345 3.59366 0
M  V30 5731 C 527.369 3.37707 3.75875 0
M  V30 5732 C 529.567 3.68564 3.58699 0
M  V30 5733 N 527.549 4.7703 3.86414 0
M  V30 5734 C 528.92 4.93634 3.75134 0
M  V30 5735 C 530.975 3.6198 3.4187 0
M  V30 5736 C 529.678 6.12907 3.76481 0
M  V30 5737 C 531.704 4.80697 3.44507 0
M  V30 5738 C 531.066 6.04592 3.61453 0
M  V30 5739 H 527.165 0.337297 0.705517 0
M  V30 5740 H 529.749 1.34832 1.40458 0
M  V30 5741 H 527.92 0.656958 3.82804 0
M  V30 5742 H 529.652 0.871172 3.95212 0
M  V30 5743 H 526.407 2.88108 3.75887 0
M  V30 5744 H 526.831 5.49483 3.95471 0
M  V30 5745 H 531.473 2.67154 3.27702 0
M  V30 5746 H 529.191 7.08073 3.89432 0
M  V30 5747 H 532.777 4.77259 3.32738 0
M  V30 5748 H 531.657 6.94916 3.63403 0
M  V30 5749 N 529.16 -1.33526 0.837174 0
M  V30 5750 C 530.406 -1.98541 0.44193 0
M  V30 5751 C 530.761 -1.65124 -0.987517 0
M  V30 5752 O 530.054 -0.919948 -1.6807 0
M  V30 5753 C 530.248 -3.52367 0.597675 0
M  V30 5754 C 530.077 -4.00731 2.04071 0
M  V30 5755 C 528.847 -4.28649 2.67559 0
M  V30 5756 C 531.045 -4.17073 3.00923 0
M  V30 5757 N 529.027 -4.63142 4.02955 0
M  V30 5758 C 530.398 -4.54905 4.21261 0
M  V30 5759 C 532.453 -3.99358 2.97351 0
M  V30 5760 C 531.156 -4.76874 5.38501 0
M  V30 5761 C 533.182 -4.22501 4.1382 0
M  V30 5762 C 532.544 -4.60634 5.32912 0
M  V30 5763 H 528.643 -0.753246 0.210105 0
M  V30 5764 H 531.227 -1.61674 1.08488 0
M  V30 5765 H 529.398 -3.88397 -0.0154658 0
M  V30 5766 H 531.13 -4.04326 0.17404 0
M  V30 5767 H 527.885 -4.20077 2.18706 0
M  V30 5768 H 528.309 -4.84601 4.72748 0
M  V30 5769 H 532.951 -3.68993 2.06408 0
M  V30 5770 H 530.669 -5.06101 6.2999 0
M  V30 5771 H 534.255 -4.10316 4.12471 0
M  V30 5772 H 533.135 -4.78187 6.21536 0
M  V30 5773 N 530.638 -0.59345 -1.46 0
M  V30 5774 C 531.586 0.146268 -2.3214 0
M  V30 5775 C 532.58 0.873743 -1.45128 0
M  V30 5776 O 533.786 0.790912 -1.61693 0
M  V30 5777 H 530.161 0.0660349 -0.749095 0
M  V30 5778 H 532.132 -0.598895 -2.92328 0
M  V30 5779 C 530.881 1.1396 -3.28494 0
M  V30 5780 H 530.204 0.589252 -3.95434 0
M  V30 5781 H 531.644 1.62738 -3.91526 0
M  V30 5782 C 530.103 2.20604 -2.54628 0
M  V30 5783 O 530.633 3.28128 -2.31722 0
M  V30 5784 N 528.839 1.95502 -2.15005 0
M  V30 5785 H 528.386 1.0807 -2.33834 0
M  V30 5786 H 528.344 2.67064 -1.65904 0
M  V30 5787 N 532.116 1.54067 -0.331816 0
M  V30 5788 C 533.363 2.00715 0.268269 0
M  V30 5789 C 533.691 1.21986 1.51491 0
M  V30 5790 O 532.946 0.292309 1.93505 0
M  V30 5791 C 533.245 3.51634 0.639392 0
M  V30 5792 C 532.911 4.48018 -0.509019 0
M  V30 5793 C 531.573 4.74089 -0.824209 0
M  V30 5794 C 533.925 5.05237 -1.28003 0
M  V30 5795 C 531.253 5.54637 -1.91298 0
M  V30 5796 C 533.605 5.86972 -2.35895 0
M  V30 5797 C 532.269 6.11342 -2.67987 0
M  V30 5798 H 531.539 0.734469 0.0981667 0
M  V30 5799 H 534.186 1.8596 -0.457304 0
M  V30 5800 H 532.491 3.6416 1.44551 0
M  V30 5801 H 534.188 3.85175 1.11539 0
M  V30 5802 H 530.778 4.27851 -0.253287 0
M  V30 5803 H 534.962 4.8507 -1.04978 0
M  V30 5804 H 530.218 5.71747 -2.16599 0
M  V30 5805 H 534.392 6.30327 -2.96076 0
M  V30 5806 H 532.019 6.73544 -3.5248 0
M  V30 5807 N 533.594 0.0601682 1.57485 0
M  V30 5808 C 535.005 -0.474217 1.80577 0
M  V30 5809 C 535.356 -1.70365 0.973147 0
M  V30 5810 O 534.481 -2.15544 0.192306 0
M  V30 5811 C 535.076 -0.867102 3.27516 0
M  V30 5812 C 533.635 -1.34642 3.51495 0
M  V30 5813 C 532.782 -0.32594 2.75378 0
M  V30 5814 H 535.733 0.285973 1.56102 0
M  V30 5815 H 535.754 -1.72938 3.38929 0
M  V30 5816 H 535.266 0.0278927 3.8809 0
M  V30 5817 H 533.367 -2.2603 2.96212 0
M  V30 5818 H 533.48 -1.33237 4.60201 0
M  V30 5819 H 531.844 -0.800749 2.41785 0
M  V30 5820 H 532.627 0.561125 3.38683 0
M  V30 5821 N 535.072 -1.5615 -0.213296 0
M  V30 5822 C 536.318 -1.79812 -0.937849 0
M  V30 5823 C 536.651 -0.631201 -1.83656 0
M  V30 5824 O 535.926 0.369165 -1.90964 0
M  V30 5825 C 536.209 -3.13613 -1.76972 0
M  V30 5826 C 536.062 -4.40766 -0.89695 0
M  V30 5827 C 537.381 -3.43931 -2.7459 0
M  V30 5828 H 534.5 -0.654138 -0.339518 0
M  V30 5829 H 537.142 -1.88877 -0.20623 0
M  V30 5830 H 535.292 -3.06015 -2.39347 0
M  V30 5831 H 536.964 -4.60392 -0.289306 0
M  V30 5832 H 535.207 -4.33326 -0.202756 0
M  V30 5833 H 535.878 -5.30843 -1.51358 0
M  V30 5834 H 538.354 -3.5171 -2.22349 0
M  V30 5835 H 537.23 -4.38706 -3.29891 0
M  V30 5836 H 537.491 -2.6651 -3.52739 0
M  V30 5837 N 536.55 0.480323 -1.50102 0
M  V30 5838 C 537.775 1.26126 -1.64642 0
M  V30 5839 C 538.2 1.85257 -0.325823 0
M  V30 5840 O 537.558 1.66854 0.709194 0
M  V30 5841 C 537.606 2.35243 -2.73301 0
M  V30 5842 O 536.71 3.39646 -2.33911 0
M  V30 5843 H 536.051 0.371463 -0.550374 0
M  V30 5844 H 538.581 0.572696 -1.96421 0
M  V30 5845 H 538.591 2.80695 -2.96098 0
M  V30 5846 H 537.266 1.91574 -3.6915 0
M  V30 5847 H 535.843 2.99969 -2.21525 0
M  V30 5848 N 538.028 1.39524 0.732853 0
M  V30 5849 C 539.305 1.27373 1.48444 0
M  V30 5850 C 539.685 -0.115725 2.10783 0
M  V30 5851 O 539.033 -1.12713 1.98766 0
M  V30 5852 C 539.243 2.39966 2.53412 0
M  V30 5853 C 540.591 2.79384 3.19733 0
M  V30 5854 O 541.615 2.39431 2.63725 0
M  V30 5855 O 540.474 3.48353 4.21085 0
M  V30 5856 H 537.568 0.499272 0.659285 0
M  V30 5857 H 540.114 1.51403 0.766496 0
M  V30 5858 H 538.886 3.32845 2.05742 0
M  V30 5859 H 538.509 2.17612 3.32762 0
M  V30 5860 N 539.506 -0.963266 1.24736 0
M  V30 5861 C 540.736 -1.73913 1.11524 0
M  V30 5862 C 541.144 -1.86218 -0.334612 0
M  V30 5863 O 540.487 -1.3531 -1.24245 0
M  V30 5864 C 540.549 -3.17501 1.68622 0
M  V30 5865 C 540.213 -3.28655 3.17546 0
M  V30 5866 C 541.21 -3.13637 4.14642 0
M  V30 5867 C 538.895 -3.52753 3.5759 0
M  V30 5868 C 540.889 -3.2255 5.49764 0
M  V30 5869 C 538.576 -3.61303 4.92852 0
M  V30 5870 C 539.574 -3.46214 5.88748 0
M  V30 5871 O 539.262 -3.5443 7.2155 0
M  V30 5872 H 538.994 -0.552057 0.390139 0
M  V30 5873 H 541.548 -1.2177 1.65412 0
M  V30 5874 H 539.778 -3.70969 1.09172 0
M  V30 5875 H 541.467 -3.76914 1.50635 0
M  V30 5876 H 542.233 -2.94899 3.85045 0
M  V30 5877 H 538.112 -3.63561 2.83451 0
M  V30 5878 H 541.656 -3.1069 6.24594 0
M  V30 5879 H 537.553 -3.79556 5.22118 0
M  V30 5880 H 538.321 -3.71116 7.29531 0
M  V30 5881 N 540.985 -1.06182 -1.16461 0
M  V30 5882 C 542.231 -0.779015 -1.87241 0
M  V30 5883 C 542.564 0.692715 -1.81425 0
M  V30 5884 O 541.839 1.5074 -1.22913 0
M  V30 5885 C 542.122 -1.2728 -3.36856 0
M  V30 5886 C 541.975 -2.80821 -3.51368 0
M  V30 5887 C 543.294 -0.879799 -4.31216 0
M  V30 5888 H 540.413 -0.284464 -0.679889 0
M  V30 5889 H 543.055 -1.31755 -1.36896 0
M  V30 5890 H 541.205 -0.814673 -3.79862 0
M  V30 5891 H 542.877 -3.34833 -3.17308 0
M  V30 5892 H 541.12 -3.19606 -2.93316 0
M  V30 5893 H 541.791 -3.10435 -4.56436 0
M  V30 5894 H 544.267 -1.27436 -3.96105 0
M  V30 5895 H 543.143 -1.25278 -5.34412 0
M  V30 5896 H 543.404 0.215372 -4.41575 0
M  V30 5897 N 542.463 1.3308 -0.844243 0
M  V30 5898 C 543.879 1.50447 -0.532729 0
M  V30 5899 C 544.079 1.78292 0.938837 0
M  V30 5900 O 543.135 1.84635 1.72239 0
M  V30 5901 C 544.448 2.65555 -1.41072 0
M  V30 5902 C 545.996 2.7944 -1.41005 0
M  V30 5903 C 546.471 3.97616 -2.27301 0
M  V30 5904 N 547.962 4.0486 -2.2504 0
M  V30 5905 C 548.697 4.95508 -2.88547 0
M  V30 5906 N 548.193 5.91236 -3.61126 0
M  V30 5907 N 549.986 4.88548 -2.77989 0
M  V30 5908 H 542.137 1.13269 -1.79677 0
M  V30 5909 H 544.4 0.55734 -0.766861 0
M  V30 5910 H 544.106 2.51675 -2.45668 0
M  V30 5911 H 543.98 3.61089 -1.09061 0
M  V30 5912 H 546.367 2.92749 -0.371784 0
M  V30 5913 H 546.448 1.8465 -1.77026 0
M  V30 5914 H 546.092 3.85066 -3.3119 0
M  V30 5915 H 546.022 4.91661 -1.88619 0
M  V30 5916 H 548.513 3.36353 -1.72264 0
M  V30 5917 H 548.826 6.57079 -4.06776 0
M  V30 5918 H 547.171 5.91295 -3.65234 0
M  V30 5919 H 550.362 4.12729 -2.20846 0
M  V30 5920 H 550.535 5.58994 -3.27765 0
M  V30 5921 N 543.941 0.601185 1.45683 0
M  V30 5922 C 545.218 0.0261659 1.95582 0
M  V30 5923 C 545.598 -1.4399 1.5437 0
M  V30 5924 O 544.946 -2.13919 0.80318 0
M  V30 5925 C 545.156 0.217557 3.48321 0
M  V30 5926 C 546.504 0.0950076 4.24494 0
M  V30 5927 O 547.528 0.147345 3.55895 0
M  V30 5928 O 546.387 -0.025261 5.46494 0
M  V30 5929 H 543.481 -0.0393688 0.826062 0
M  V30 5930 H 546.027 0.670798 1.55879 0
M  V30 5931 H 544.799 1.23601 3.71266 0
M  V30 5932 H 544.422 -0.46264 3.94899 0
M  V30 5933 N 545.419 -1.53889 0.339982 0
M  V30 5934 C 546.369 -2.2165 -0.534354 0
M  V30 5935 C 547.353 -1.20266 -1.06887 0
M  V30 5936 O 548.545 -1.45827 -1.00316 0
M  V30 5937 C 545.674 -2.99014 -1.68659 0
M  V30 5938 C 544.76 -4.07751 -1.16618 0
M  V30 5939 N 545.151 -5.04469 -0.366717 0
M  V30 5940 C 543.449 -4.21998 -1.4434 0
M  V30 5941 C 544.15 -5.81638 -0.0847275 0
M  V30 5942 N 543.126 -5.39388 -0.675391 0
M  V30 5943 H 546.928 -2.93781 0.0835562 0
M  V30 5944 H 544.442 -1.61736 0.146665 0
M  V30 5945 H 546.439 -3.46056 -2.32489 0
M  V30 5946 H 545.099 -2.28408 -2.30781 0
M  V30 5947 H 546.11 -5.17899 -0.00811038 0
M  V30 5948 H 542.787 -3.62612 -2.06928 0
M  V30 5949 H 544.177 -6.69563 0.559943 0
M  V30 5950 N 546.897 -0.0685191 -1.57451 0
M  V30 5951 C 547.827 0.89747 -2.15564 0
M  V30 5952 C 548.808 1.31266 -1.08181 0
M  V30 5953 O 549.993 1.38429 -1.36202 0
M  V30 5954 C 547.123 2.16623 -2.71463 0
M  V30 5955 C 546.077 1.89054 -3.83982 0
M  V30 5956 C 545.403 3.22532 -4.26471 0
M  V30 5957 C 546.703 1.1984 -5.08366 0
M  V30 5958 H 548.397 0.413373 -2.96533 0
M  V30 5959 H 545.943 0.197391 -1.42641 0
M  V30 5960 H 547.896 2.84614 -3.10761 0
M  V30 5961 H 546.62 2.67269 -1.8771 0
M  V30 5962 H 545.279 1.23469 -3.45183 0
M  V30 5963 H 544.927 3.71013 -3.39644 0
M  V30 5964 H 544.627 3.04879 -5.02317 0
M  V30 5965 H 546.151 3.91727 -4.68383 0
M  V30 5966 H 547.565 1.77896 -5.45001 0
M  V30 5967 H 545.962 1.12456 -5.89469 0
M  V30 5968 H 547.032 0.176996 -4.84577 0
M  V30 5969 N 548.375 1.56261 0.205012 0
M  V30 5970 C 549.305 1.96779 1.257 0
M  V30 5971 C 550.286 0.838309 1.48008 0
M  V30 5972 O 551.471 1.10189 1.59913 0
M  V30 5973 C 548.601 2.29876 2.60335 0
M  V30 5974 C 547.555 3.45469 2.52656 0
M  V30 5975 C 546.881 3.64215 3.91473 0
M  V30 5976 C 548.181 4.79954 2.06014 0
M  V30 5977 H 549.875 2.84904 0.920338 0
M  V30 5978 H 547.421 1.37072 0.441277 0
M  V30 5979 H 549.374 2.56814 3.34102 0
M  V30 5980 H 548.098 1.38622 2.95722 0
M  V30 5981 H 546.757 3.18605 1.81345 0
M  V30 5982 H 546.405 2.70309 4.24196 0
M  V30 5983 H 546.105 4.41973 3.87213 0
M  V30 5984 H 547.629 3.93519 4.66878 0
M  V30 5985 H 549.043 5.05989 2.69533 0
M  V30 5986 H 547.44 5.61111 2.12777 0
M  V30 5987 H 548.51 4.74201 1.01297 0
M  V30 5988 N 549.853 -0.472356 1.50355 0
M  V30 5989 C 550.783 -1.57859 1.72055 0
M  V30 5990 C 551.764 -1.60283 0.569505 0
M  V30 5991 O 552.949 -1.7657 0.808503 0
M  V30 5992 C 550.079 -2.96191 1.81351 0
M  V30 5993 C 549.033 -3.08633 2.96529 0
M  V30 5994 C 548.359 -4.486 2.90968 0
M  V30 5995 C 549.659 -2.85969 4.37057 0
M  V30 5996 H 551.353 -1.39953 2.64676 0
M  V30 5997 H 548.899 -0.671846 1.27367 0
M  V30 5998 H 550.852 -3.73507 1.95117 0
M  V30 5999 H 549.576 -3.15251 0.853502 0
M  V30 6000 H 548.235 -2.33749 2.82413 0
M  V30 6001 H 547.883 -4.64577 1.92815 0
M  V30 6002 H 547.583 -4.57861 3.68289 0
M  V30 6003 H 549.107 -5.27938 3.0678 0
M  V30 6004 H 550.521 -3.53036 4.51706 0
M  V30 6005 H 548.918 -3.06677 5.15819 0
M  V30 6006 H 549.988 -1.81838 4.49514 0
M  V30 6007 N 551.331 -1.39911 -0.725443 0
M  V30 6008 C 552.579 -1.37382 -1.48224 0
M  V30 6009 C 552.9 0.0264107 -1.94982 0
M  V30 6010 O 552.17 0.979408 -1.6966 0
M  V30 6011 H 550.75 -0.505596 -0.549892 0
M  V30 6012 H 553.412 -1.7487 -0.860608 0
M  V30 6013 H 552.508 -2.04254 -2.3598 0
M  V30 6014 N 552.809 0.956637 -1.25245 0
M  V30 6015 C 554.22 1.51569 -1.09012 0
M  V30 6016 C 554.571 1.93322 0.334813 0
M  V30 6017 O 553.696 1.78421 1.22454 0
M  V30 6018 C 554.291 2.75444 -1.97271 0
M  V30 6019 C 552.85 3.27669 -1.8523 0
M  V30 6020 C 551.997 2.00517 -1.91542 0
M  V30 6021 H 554.948 0.773746 -1.3856 0
M  V30 6022 H 554.969 3.4919 -1.51151 0
M  V30 6023 H 554.481 2.45024 -3.00973 0
M  V30 6024 H 552.582 3.62914 -0.844045 0
M  V30 6025 H 552.695 3.9582 -2.69932 0
M  V30 6026 H 551.059 2.15727 -1.35404 0
M  V30 6027 H 551.842 1.72448 -2.96844 0
M  V30 6028 N 554.287 1.06798 1.15896 0
M  V30 6029 C 555.533 0.788934 1.86825 0
M  V30 6030 C 555.866 -0.683084 1.8179 0
M  V30 6031 O 555.141 -1.50086 1.23711 0
M  V30 6032 C 555.424 1.29065 3.36176 0
M  V30 6033 C 555.277 2.8268 3.49874 0
M  V30 6034 C 556.596 0.902655 4.30744 0
M  V30 6035 H 553.715 0.288066 0.678371 0
M  V30 6036 H 556.357 1.32479 1.36195 0
M  V30 6037 H 554.507 0.834806 3.79425 0
M  V30 6038 H 556.179 3.36511 3.15528 0
M  V30 6039 H 554.422 3.21157 2.91617 0
M  V30 6040 H 555.093 3.12852 4.54783 0
M  V30 6041 H 557.569 1.29535 3.95424 0
M  V30 6042 H 556.445 1.28111 5.3374 0
M  V30 6043 H 556.706 -0.191951 4.41683 0
M  V30 6044 N 555.766 -1.3263 0.851289 0
M  V30 6045 C 556.996 -2.01271 0.466222 0
M  V30 6046 C 557.404 -1.64156 -0.940714 0
M  V30 6047 O 556.747 -0.857109 -1.62479 0
M  V30 6048 C 556.809 -3.55695 0.521672 0
M  V30 6049 C 556.473 -4.16227 1.88691 0
M  V30 6050 C 557.47 -4.34699 2.85189 0
M  V30 6051 C 555.155 -4.52377 2.18313 0
M  V30 6052 C 557.149 -4.88484 4.09465 0
M  V30 6053 C 554.836 -5.05868 3.42843 0
M  V30 6054 C 555.834 -5.23869 4.38235 0
M  V30 6055 O 555.522 -5.76218 5.6056 0
M  V30 6056 H 555.254 -0.651034 0.18202 0
M  V30 6057 H 557.808 -1.7026 1.14894 0
M  V30 6058 H 556.038 -3.86086 -0.217888 0
M  V30 6059 H 557.727 -4.05613 0.152682 0
M  V30 6060 H 558.493 -4.07107 2.63607 0
M  V30 6061 H 554.372 -4.37652 1.44851 0
M  V30 6062 H 557.916 -5.02451 4.83931 0
M  V30 6063 H 553.813 -5.32891 3.64277 0
M  V30 6064 H 554.581 -5.94616 5.62471 0
M  V30 6065 N 557.244 -0.608902 -1.45362 0
M  V30 6066 C 558.492 -0.104401 -2.0183 0
M  V30 6067 C 558.813 1.27007 -1.47967 0
M  V30 6068 O 558.083 1.83924 -0.674455 0
M  V30 6069 H 556.663 -0.0356042 -0.746151 0
M  V30 6070 H 559.325 -0.790596 -1.78145 0
M  V30 6071 H 558.421 -0.0551793 -3.12051 0
M  V30 6072 N 558.722 1.53707 -0.348139 0
M  V30 6073 C 559.67 2.26671 0.521808 0
M  V30 6074 C 560.664 1.28988 1.09811 0
M  V30 6075 O 561.87 1.4668 1.04332 0
M  V30 6076 H 558.245 0.728387 0.186968 0
M  V30 6077 H 560.216 2.98176 -0.115563 0
M  V30 6078 C 558.965 3.05591 1.6586 0
M  V30 6079 H 558.288 3.80589 1.22443 0
M  V30 6080 H 559.728 3.59851 2.24239 0
M  V30 6081 C 558.187 2.15366 2.59073 0
M  V30 6082 O 558.717 1.7528 3.61441 0
M  V30 6083 N 556.923 1.80352 2.27863 0
M  V30 6084 H 556.47 2.13149 1.44656 0
M  V30 6085 H 556.428 1.20268 2.90488 0
M  V30 6086 N 560.2 0.0768682 1.57412 0
M  V30 6087 C 561.477 -0.632359 1.85096 0
M  V30 6088 C 561.857 -1.87479 0.9703 0
M  V30 6089 O 561.205 -2.28469 0.0379062 0
M  V30 6090 C 561.415 -0.965174 3.35388 0
M  V30 6091 C 562.763 -1.33648 4.03018 0
M  V30 6092 O 563.787 -1.05675 3.40164 0
M  V30 6093 O 562.646 -1.85959 5.13889 0
M  V30 6094 H 559.74 -0.314574 0.764835 0
M  V30 6095 H 562.286 0.108184 1.69355 0
M  V30 6096 H 561.058 -0.0829745 3.91212 0
M  V30 6097 H 560.681 -1.76231 3.5641 0
M  V30 6098 N 561.678 -1.56367 -0.196722 0
M  V30 6099 C 562.906 -1.84639 -0.933608 0
M  V30 6100 C 563.321 -0.659164 -1.76919 0
M  V30 6101 O 562.678 0.372142 -1.78665 0
M  V30 6102 C 562.729 -3.11694 -1.83109 0
M  V30 6103 O 562.45 -4.25838 -1.02924 0
M  V30 6104 C 563.951 -3.53132 -2.67979 0
M  V30 6105 H 561.171 -0.613188 -0.272473 0
M  V30 6106 H 563.715 -2.03475 -0.204465 0
M  V30 6107 H 561.87 -2.94759 -2.51387 0
M  V30 6108 H 562.284 -4.98178 -1.64069 0
M  V30 6109 H 563.758 -4.45005 -3.26611 0
M  V30 6110 H 564.235 -2.76045 -3.41608 0
M  V30 6111 H 564.841 -3.72592 -2.05074 0
M  V30 6112 N 563.156 0.464375 -1.50603 0
M  V30 6113 C 564.384 1.23907 -1.65695 0
M  V30 6114 C 564.799 1.85658 -0.343027 0
M  V30 6115 O 564.156 1.69529 0.675739 0
M  V30 6116 C 564.207 2.3429 -2.75301 0
M  V30 6117 O 563.928 1.7507 -4.01599 0
M  V30 6118 C 565.429 3.25051 -3.01424 0
M  V30 6119 H 562.649 0.374485 -0.556778 0
M  V30 6120 H 565.193 0.55353 -1.96866 0
M  V30 6121 H 563.348 2.98607 -2.46804 0
M  V30 6122 H 563.762 2.47812 -4.62266 0
M  V30 6123 H 565.236 3.98699 -3.81763 0
M  V30 6124 H 565.713 3.84227 -2.12758 0
M  V30 6125 H 566.319 2.66463 -3.31477 0
M  V30 6126 N 564.634 1.40294 0.718013 0
M  V30 6127 C 565.883 1.37746 1.4734 0
M  V30 6128 C 566.196 -0.0180754 1.95592 0
M  V30 6129 O 567.402 -0.166166 2.70991 0
M  V30 6130 C 565.858 2.4208 2.66318 0
M  V30 6131 C 565.466 3.87432 2.24945 0
M  V30 6132 C 567.21 2.48635 3.44065 0
M  V30 6133 C 565.117 4.83368 3.40748 0
M  V30 6134 H 564.047 0.512165 0.553356 0
M  V30 6135 H 566.698 1.66019 0.781661 0
M  V30 6136 H 565.08 2.06903 3.3765 0
M  V30 6137 H 566.254 4.3174 1.6105 0
M  V30 6138 H 564.569 3.8433 1.60249 0
M  V30 6139 H 567.166 3.17499 4.30231 0
M  V30 6140 H 567.509 1.51611 3.87711 0
M  V30 6141 H 568.042 2.82791 2.79775 0
M  V30 6142 H 564.781 5.81716 3.02136 0
M  V30 6143 H 564.301 4.43726 4.03568 0
M  V30 6144 H 565.98 5.03074 4.06848 0
M  V30 6145 N 566.112 -0.949982 1.2575 0
M  V30 6146 C 567.075 -2.02894 1.06615 0
M  V30 6147 C 568.075 -1.60791 0.0173905 0
M  V30 6148 O 569.265 -1.72249 0.260003 0
M  V30 6149 C 566.397 -3.35219 0.619751 0
M  V30 6150 H 567.59 -2.21302 2.02399 0
M  V30 6151 H 565.143 -1.12772 1.08223 0
M  V30 6152 H 565.878 -3.22508 -0.340486 0
M  V30 6153 H 565.663 -3.67129 1.37692 0
M  V30 6154 H 567.153 -4.14505 0.507443 0
M  V30 6155 N 567.59 -1.07411 -1.15328 0
M  V30 6156 C 568.537 -0.694995 -2.20087 0
M  V30 6157 C 569.507 0.313904 -1.63107 0
M  V30 6158 O 570.692 0.200216 -1.89747 0
M  V30 6159 C 567.832 -0.0996218 -3.44956 0
M  V30 6160 C 566.945 -1.16007 -4.16133 0
M  V30 6161 C 566.08 -0.529636 -5.28553 0
M  V30 6162 C 565.119 -1.57283 -5.91548 0
M  V30 6163 N 564.256 -0.964932 -6.95438 0
M  V30 6164 H 569.096 -1.5927 -2.51867 0
M  V30 6165 H 566.633 -0.796115 -1.23695 0
M  V30 6166 H 568.591 0.263197 -4.16369 0
M  V30 6167 H 567.221 0.761435 -3.13691 0
M  V30 6168 H 566.273 -1.64045 -3.4321 0
M  V30 6169 H 567.585 -1.95101 -4.59061 0
M  V30 6170 H 566.739 -0.114487 -6.06592 0
M  V30 6171 H 565.478 0.29307 -4.86819 0
M  V30 6172 H 564.483 -1.99775 -5.12221 0
M  V30 6173 H 565.708 -2.39783 -6.35359 0
M  V30 6174 H 563.654 -0.16314 -6.55797 0
M  V30 6175 H 563.571 -1.69311 -7.36797 0
M  V30 6176 H 564.839 -0.575305 -7.77374 0
M  V30 6177 N 569.068 1.32177 -0.85831 0
M  V30 6178 C 569.978 2.32561 -0.308606 0
M  V30 6179 C 570.994 1.64209 0.575462 0
M  V30 6180 O 572.17 1.95719 0.474961 0
M  V30 6181 C 569.235 3.43207 0.490909 0
M  V30 6182 C 568.296 4.27243 -0.419733 0
M  V30 6183 C 567.529 5.32605 0.341719 0
M  V30 6184 O 567.752 5.48332 1.57125 0
M  V30 6185 O 566.686 6.0118 -0.294379 0
M  V30 6186 H 570.512 2.81477 -1.14037 0
M  V30 6187 H 568.097 1.35866 -0.621349 0
M  V30 6188 H 569.979 4.10677 0.944574 0
M  V30 6189 H 568.654 2.96474 1.29941 0
M  V30 6190 H 567.561 3.62569 -0.921652 0
M  V30 6191 H 568.894 4.7751 -1.19352 0
M  V30 6192 N 570.547 0.616602 1.45037 0
M  V30 6193 C 571.48 -0.145984 2.27733 0
M  V30 6194 C 572.458 -0.865108 1.37676 0
M  V30 6195 O 573.642 -0.872152 1.6711 0
M  V30 6196 C 570.769 -1.2122 3.16265 0
M  V30 6197 C 569.815 -0.595218 4.22326 0
M  V30 6198 S 570.648 0.603744 5.32086 0
M  V30 6199 C 571.804 -0.462842 6.24186 0
M  V30 6200 H 572.037 0.555591 2.92062 0
M  V30 6201 H 569.57 0.404364 1.49011 0
M  V30 6202 H 571.528 -1.82247 3.67827 0
M  V30 6203 H 570.189 -1.88589 2.51183 0
M  V30 6204 H 569.382 -1.39775 4.8423 0
M  V30 6205 H 568.984 -0.0598965 3.73952 0
M  V30 6206 H 571.276 -1.33945 6.64127 0
M  V30 6207 H 572.219 0.120259 7.07998 0
M  V30 6208 H 572.627 -0.782219 5.59054 0
M  V30 6209 N 572.025 -1.5352 0.356285 0
M  V30 6210 C 573.25 -2.06007 -0.239961 0
M  V30 6211 C 573.675 -1.22872 -1.42422 0
M  V30 6212 O 573.033 -0.245516 -1.7963 0
M  V30 6213 C 573.081 -3.5522 -0.620587 0
M  V30 6214 O 572.185 -3.74864 -1.71902 0
M  V30 6215 H 571.526 -0.662961 -0.0371377 0
M  V30 6216 H 574.056 -1.98033 0.514194 0
M  V30 6217 H 574.066 -3.98081 -0.894197 0
M  V30 6218 H 572.741 -4.15175 0.245407 0
M  V30 6219 H 571.318 -3.43904 -1.44169 0
M  V30 6220 N 573.503 -0.0852151 -1.57369 0
M  V30 6221 C 574.751 0.579658 -1.93609 0
M  V30 6222 C 575.072 1.69332 -0.967043 0
M  V30 6223 O 574.342 1.95892 -0.0174215 0
M  V30 6224 H 572.922 0.217113 -0.714752 0
M  V30 6225 H 575.584 -0.146226 -1.94351 0
M  V30 6226 H 574.68 0.996276 -2.95771 0
M  V30 6227 N 574.981 1.5647 0.188427 0
M  V30 6228 C 576.228 1.81013 0.907779 0
M  V30 6229 C 576.556 0.65953 1.82977 0
M  V30 6230 O 575.811 -0.354308 1.92466 0
M  V30 6231 C 576.11 3.11596 1.7505 0
M  V30 6232 C 575.776 4.40145 0.978922 0
M  V30 6233 C 574.438 4.75066 0.765912 0
M  V30 6234 C 576.79 5.19369 0.436498 0
M  V30 6235 C 574.118 5.867 -0.00089868 0
M  V30 6236 C 576.47 6.31805 -0.317136 0
M  V30 6237 C 575.134 6.65303 -0.541103 0
M  V30 6238 H 574.404 0.662373 0.33218 0
M  V30 6239 H 577.051 1.9071 0.173732 0
M  V30 6240 H 575.356 2.97165 2.55343 0
M  V30 6241 H 577.053 3.27793 2.30983 0
M  V30 6242 H 573.643 4.12745 1.15497 0
M  V30 6243 H 577.827 4.92799 0.588449 0
M  V30 6244 H 573.083 6.11122 -0.184329 0
M  V30 6245 H 577.257 6.92406 -0.744788 0
M  V30 6246 H 574.884 7.51646 -1.13718 0
M  V30 6247 N 576.459 -0.456382 1.50847 0
M  V30 6248 C 577.705 -1.20914 1.62811 0
M  V30 6249 C 578.038 -1.91301 0.334304 0
M  V30 6250 O 577.313 -1.82775 -0.665098 0
M  V30 6251 C 577.596 -2.24122 2.81853 0
M  V30 6252 C 577.449 -1.57944 4.21158 0
M  V30 6253 C 578.768 -3.25295 2.96431 0
M  V30 6254 H 575.887 -0.438233 0.592554 0
M  V30 6255 H 578.529 -0.50091 1.83278 0
M  V30 6256 H 576.679 -2.84524 2.64534 0
M  V30 6257 H 578.351 -1.01025 4.50102 0
M  V30 6258 H 576.594 -0.882185 4.24735 0
M  V30 6259 H 577.265 -2.33014 5.00408 0
M  V30 6260 H 579.741 -2.7493 3.12335 0
M  V30 6261 H 578.617 -3.94822 3.81322 0
M  V30 6262 H 578.878 -3.90286 2.07676 0
M  V30 6263 N 577.937 -1.40673 -0.710563 0
M  V30 6264 C 579.165 -1.42547 -1.4996 0
M  V30 6265 C 579.58 -0.0265485 -1.88781 0
M  V30 6266 O 578.937 0.950694 -1.55782 0
M  V30 6267 C 578.988 -2.32071 -2.77173 0
M  V30 6268 O 578.709 -3.66518 -2.39992 0
M  V30 6269 C 580.21 -2.42591 -3.71032 0
M  V30 6270 H 577.43 -0.486025 -0.462623 0
M  V30 6271 H 579.974 -1.84783 -0.876102 0
M  V30 6272 H 578.129 -1.93184 -3.35795 0
M  V30 6273 H 578.543 -4.14115 -3.21884 0
M  V30 6274 H 580.017 -3.09429 -4.57119 0
M  V30 6275 H 580.494 -1.4525 -4.14486 0
M  V30 6276 H 581.1 -2.82051 -3.18319 0
M  V30 6277 N 579.415 0.9433 -1.26252 0
M  V30 6278 C 580.363 2.06302 -1.07434 0
M  V30 6279 C 581.357 1.694 -0.00189471 0
M  V30 6280 O 582.563 1.79302 -0.158408 0
M  V30 6281 H 578.938 0.675453 -0.330556 0
M  V30 6282 H 580.909 2.19326 -2.02333 0
M  V30 6283 C 579.658 3.40125 -0.721817 0
M  V30 6284 H 578.981 3.68996 -1.5389 0
M  V30 6285 H 580.421 4.19295 -0.629922 0
M  V30 6286 C 578.88 3.31993 0.572902 0
M  V30 6287 O 579.41 3.67945 1.61182 0
M  V30 6288 N 577.616 2.85099 0.562748 0
M  V30 6289 H 577.163 2.5604 -0.283092 0
M  V30 6290 H 577.121 2.80041 1.42915 0
M  V30 6291 N 580.893 1.08022 1.14757 0
M  V30 6292 C 582.304 0.829144 1.67279 0
M  V30 6293 C 582.655 -0.644721 1.85305 0
M  V30 6294 O 581.78 -1.49838 1.56133 0
M  V30 6295 C 582.375 1.49855 3.03857 0
M  V30 6296 C 580.934 1.29482 3.53428 0
M  V30 6297 C 580.081 1.56386 2.28995 0
M  V30 6298 H 583.032 1.24134 0.988762 0
M  V30 6299 H 583.053 0.923572 3.69121 0
M  V30 6300 H 582.565 2.57123 2.90705 0
M  V30 6301 H 580.666 0.242669 3.71809 0
M  V30 6302 H 580.779 2.01974 4.34446 0
M  V30 6303 H 579.143 0.985217 2.34874 0
M  V30 6304 H 579.926 2.64851 2.18423 0
M  V30 6305 N 582.371 -1.3172 0.865308 0
M  V30 6306 C 583.304 -2.26687 0.262376 0
M  V30 6307 C 584.282 -1.50894 -0.605787 0
M  V30 6308 O 585.466 -1.79982 -0.56024 0
M  V30 6309 C 582.593 -3.3281 -0.628915 0
M  V30 6310 C 581.639 -4.26172 0.167278 0
M  V30 6311 S 582.472 -5.12797 1.54272 0
M  V30 6312 C 583.628 -6.22438 0.657427 0
M  V30 6313 H 583.861 -2.77478 1.0674 0
M  V30 6314 H 581.394 -1.39414 0.663555 0
M  V30 6315 H 583.352 -3.94426 -1.13747 0
M  V30 6316 H 582.013 -2.80782 -1.40785 0
M  V30 6317 H 581.206 -5.01392 -0.51203 0
M  V30 6318 H 580.808 -3.69029 0.607777 0
M  V30 6319 H 583.1 -6.77368 -0.133925 0
M  V30 6320 H 584.043 -6.9451 1.38061 0
M  V30 6321 H 584.451 -5.64043 0.227044 0
M  V30 6322 N 583.85 -0.624285 -1.44708 0
M  V30 6323 C 584.76 0.0861083 -2.34442 0
M  V30 6324 C 585.776 0.84291 -1.5222 0
M  V30 6325 O 586.952 0.796723 -1.84971 0
M  V30 6326 C 584.017 1.05999 -3.30099 0
M  V30 6327 C 583.077 0.303316 -4.28227 0
M  V30 6328 C 582.311 1.23081 -5.19314 0
M  V30 6329 O 582.534 2.46929 -5.14181 0
M  V30 6330 O 581.468 0.71883 -5.97592 0
M  V30 6331 H 585.293 -0.651756 -2.96624 0
M  V30 6332 H 582.879 -0.384493 -1.44368 0
M  V30 6333 H 584.76 1.62046 -3.88997 0
M  V30 6334 H 583.436 1.77859 -2.70459 0
M  V30 6335 H 582.343 -0.300033 -3.72895 0
M  V30 6336 H 583.676 -0.375123 -4.90768 0
M  V30 6337 N 585.328 1.53329 -0.364422 0
M  V30 6338 C 586.278 2.22472 0.499024 0
M  V30 6339 C 587.262 1.21952 1.0496 0
M  V30 6340 O 588.454 1.47405 0.979836 0
M  V30 6341 C 585.583 3.01659 1.6388 0
M  V30 6342 C 584.669 4.09555 1.10116 0
M  V30 6343 N 585.06 5.04988 0.286414 0
M  V30 6344 C 583.358 4.2424 1.37608 0
M  V30 6345 C 584.059 5.81699 -0.00781682 0
M  V30 6346 N 583.035 5.40394 0.589494 0
M  V30 6347 H 586.837 2.93611 -0.130284 0
M  V30 6348 H 584.351 1.61483 -0.172377 0
M  V30 6349 H 586.348 3.4971 2.26954 0
M  V30 6350 H 585.008 2.32051 2.27118 0
M  V30 6351 H 586.019 5.17847 -0.0742839 0
M  V30 6352 H 582.696 3.65858 2.01133 0
M  V30 6353 H 584.086 6.68587 -0.666394 0
M  V30 6354 N 586.806 0.0935595 1.57322 0
M  V30 6355 C 587.769 -0.851426 2.12799 0
M  V30 6356 C 588.769 -1.21187 1.0569 0
M  V30 6357 O 589.959 -1.14156 1.31583 0
M  V30 6358 C 587.091 -2.14779 2.64731 0
M  V30 6359 H 588.284 -0.369733 2.97612 0
M  V30 6360 H 585.837 -0.155417 1.55525 0
M  V30 6361 H 586.572 -2.67437 1.83434 0
M  V30 6362 H 586.357 -1.89907 3.43042 0
M  V30 6363 H 587.847 -2.82383 3.07651 0
M  V30 6364 N 588.284 -1.56567 -0.180126 0
M  V30 6365 C 589.194 -1.98947 -1.24327 0
M  V30 6366 C 590.21 -0.899446 -1.4895 0
M  V30 6367 O 591.386 -1.20639 -1.61271 0
M  V30 6368 C 588.451 -2.33328 -2.56435 0
M  V30 6369 C 587.512 -3.56114 -2.39752 0
M  V30 6370 C 586.745 -3.88845 -3.65561 0
M  V30 6371 O 586.968 -3.22662 -4.70368 0
M  V30 6372 O 585.902 -4.82226 -3.60197 0
M  V30 6373 H 589.728 -2.89634 -0.913565 0
M  V30 6374 H 587.313 -1.44319 -0.386306 0
M  V30 6375 H 589.195 -2.5645 -3.34382 0
M  V30 6376 H 587.87 -1.45806 -2.89002 0
M  V30 6377 H 586.777 -3.38221 -1.59866 0
M  V30 6378 H 588.11 -4.4415 -2.12113 0
M  V30 6379 N 589.762 0.448376 -1.51087 0
M  V30 6380 C 590.987 1.22605 -1.6728 0
M  V30 6381 C 591.412 1.84524 -0.365045 0
M  V30 6382 O 590.77 1.6832 0.673642 0
M  V30 6383 C 590.818 2.29393 -2.78229 0
M  V30 6384 O 589.922 3.34608 -2.41063 0
M  V30 6385 H 589.263 0.359705 -0.558129 0
M  V30 6386 H 591.793 0.530903 -1.97592 0
M  V30 6387 H 591.803 2.74352 -3.01986 0
M  V30 6388 H 590.478 1.83701 -3.73131 0
M  V30 6389 H 589.055 2.95202 -2.27838 0
M  V30 6390 N 591.24 1.41047 0.703093 0
M  V30 6391 C 592.465 1.43537 1.49706 0
M  V30 6392 C 592.89 0.0401853 1.88057 0
M  V30 6393 O 592.248 -0.954785 1.54122 0
M  V30 6394 C 592.296 2.3433 2.74084 0
M  V30 6395 O 591.4 1.79515 3.71279 0
M  V30 6396 H 590.741 0.487454 0.450871 0
M  V30 6397 H 593.271 1.85422 0.86486 0
M  V30 6398 H 593.281 2.49947 3.22476 0
M  V30 6399 H 591.956 3.35708 2.45506 0
M  V30 6400 H 590.533 1.7331 3.30179 0
M  V30 6401 N 592.718 -0.936591 1.26751 0
M  V30 6402 C 593.665 -2.03597 1.08706 0
M  V30 6403 C 594.635 -1.66097 -0.00926542 0
M  V30 6404 O 595.82 -1.90199 0.151377 0
M  V30 6405 C 592.96 -3.3727 0.73094 0
M  V30 6406 C 592.073 -3.87778 1.90399 0
M  V30 6407 C 591.208 -5.09859 1.49056 0
M  V30 6408 C 590.247 -5.5264 2.63164 0
M  V30 6409 N 589.384 -6.65921 2.22471 0
M  V30 6410 H 594.224 -2.18364 2.02784 0
M  V30 6411 H 591.761 -1.06985 1.00958 0
M  V30 6412 H 593.719 -4.14128 0.505328 0
M  V30 6413 H 592.349 -3.22337 -0.172868 0
M  V30 6414 H 591.401 -3.07279 2.2424 0
M  V30 6415 H 592.713 -4.15464 2.76028 0
M  V30 6416 H 591.867 -5.9419 1.22567 0
M  V30 6417 H 590.606 -4.8393 0.60524 0
M  V30 6418 H 589.611 -4.66863 2.90377 0
M  V30 6419 H 590.836 -5.80568 3.52303 0
M  V30 6420 H 588.782 -6.41667 1.36379 0
M  V30 6421 H 588.699 -6.93216 3.01641 0
M  V30 6422 H 589.967 -7.53616 1.99205 0
M  V30 6423 N 594.196 -1.08629 -1.14182 0
M  V30 6424 C 595.445 -0.812271 -1.84621 0
M  V30 6425 C 595.758 0.664313 -1.83973 0
M  V30 6426 O 596.964 1.05357 -2.50224 0
M  V30 6427 C 595.42 -1.4031 -3.31423 0
M  V30 6428 C 595.028 -2.91164 -3.40481 0
M  V30 6429 C 596.772 -1.20767 -4.06959 0
M  V30 6430 C 594.679 -3.43373 -4.81507 0
M  V30 6431 H 593.609 -0.30019 -0.691666 0
M  V30 6432 H 596.26 -1.30798 -1.28701 0
M  V30 6433 H 594.642 -0.835096 -3.87094 0
M  V30 6434 H 595.816 -3.5412 -2.94848 0
M  V30 6435 H 594.131 -3.09646 -2.78403 0
M  V30 6436 H 596.728 -1.57237 -5.11058 0
M  V30 6437 H 597.071 -0.147664 -4.16038 0
M  V30 6438 H 597.604 -1.74274 -3.57594 0
M  V30 6439 H 594.343 -4.48958 -4.77616 0
M  V30 6440 H 593.863 -2.85176 -5.27669 0
M  V30 6441 H 595.542 -3.40095 -5.50404 0
M  V30 6442 N 595.674 1.31259 -0.872281 0
M  V30 6443 C 596.637 2.26744 -0.334656 0
M  V30 6444 C 597.637 1.52307 0.515681 0
M  V30 6445 O 598.827 1.71148 0.324656 0
M  V30 6446 C 595.959 3.36841 0.524482 0
M  V30 6447 H 597.152 2.75812 -1.17762 0
M  V30 6448 H 594.705 1.42232 -0.648064 0
M  V30 6449 H 595.44 2.93069 1.38855 0
M  V30 6450 H 595.225 3.92009 -0.0844299 0
M  V30 6451 H 596.715 4.07944 0.892838 0
M  V30 6452 N 597.152 0.631951 1.44375 0
M  V30 6453 C 598.401 0.134214 2.01253 0
M  V30 6454 C 598.714 -1.25171 1.50305 0
M  V30 6455 O 599.92 -1.8435 1.99317 0
M  V30 6456 C 598.376 0.189187 3.59402 0
M  V30 6457 C 597.984 1.57647 4.19346 0
M  V30 6458 C 599.728 -0.252044 4.23751 0
M  V30 6459 C 597.635 1.58651 5.69722 0
M  V30 6460 H 596.565 0.0464101 0.75257 0
M  V30 6461 H 599.216 0.790868 1.65582 0
M  V30 6462 H 597.598 -0.534584 3.92375 0
M  V30 6463 H 598.772 2.32389 3.97909 0
M  V30 6464 H 597.087 1.96186 3.67288 0
M  V30 6465 H 599.684 -0.264084 5.34047 0
M  V30 6466 H 600.027 -1.27951 3.96149 0
M  V30 6467 H 600.56 0.41926 3.95584 0
M  V30 6468 H 597.299 2.59237 6.0206 0
M  V30 6469 H 596.819 0.882039 5.93279 0
M  V30 6470 H 598.498 1.32082 6.33375 0
M  V30 6471 N 598.631 -1.53133 0.372548 0
M  V30 6472 C 599.861 -2.05476 -0.215202 0
M  V30 6473 C 600.269 -1.24534 -1.42436 0
M  V30 6474 O 599.612 -0.280771 -1.81542 0
M  V30 6475 C 599.674 -3.53276 -0.666068 0
M  V30 6476 C 599.338 -4.54998 0.427342 0
M  V30 6477 C 600.335 -5.03911 1.27944 0
M  V30 6478 C 598.02 -4.98828 0.589579 0
M  V30 6479 C 600.014 -5.95263 2.27905 0
M  V30 6480 C 597.701 -5.89984 1.59255 0
M  V30 6481 C 598.699 -6.38093 2.43571 0
M  V30 6482 O 598.387 -7.27451 3.42156 0
M  V30 6483 H 598.119 -0.67481 -0.040099 0
M  V30 6484 H 600.673 -1.98409 0.531312 0
M  V30 6485 H 598.903 -3.57904 -1.4643 0
M  V30 6486 H 600.592 -3.88442 -1.1776 0
M  V30 6487 H 601.358 -4.70792 1.16532 0
M  V30 6488 H 597.237 -4.60965 -0.0569456 0
M  V30 6489 H 600.781 -6.32736 2.93753 0
M  V30 6490 H 596.678 -6.22518 1.70711 0
M  V30 6491 H 597.446 -7.45467 3.37967 0
M  V30 6492 N 600.109 -0.101901 -1.5727 0
M  V30 6493 C 601.334 0.571759 -1.99363 0
M  V30 6494 C 601.759 1.60507 -0.980768 0
M  V30 6495 O 601.117 1.81231 0.0498517 0
M  V30 6496 C 601.165 1.18996 -3.404 0
M  V30 6497 O 600.269 2.30572 -3.41922 0
M  V30 6498 H 599.61 0.144449 -0.648098 0
M  V30 6499 H 602.14 -0.185325 -2.03759 0
M  V30 6500 H 602.15 1.52962 -3.78241 0
M  V30 6501 H 600.825 0.432984 -4.1364 0
M  V30 6502 H 599.402 1.98173 -3.15883 0
M  V30 6503 N 601.587 1.56661 0.17182 0
M  V30 6504 C 602.833 1.82235 0.889845 0
M  V30 6505 C 603.166 0.679673 1.81918 0
M  V30 6506 O 602.441 -0.318404 1.91876 0
M  V30 6507 C 602.724 3.18195 1.68595 0
M  V30 6508 C 602.577 4.42989 0.779773 0
M  V30 6509 C 603.896 3.5109 2.65375 0
M  V30 6510 H 601.015 0.66291 0.322056 0
M  V30 6511 H 603.657 1.89358 0.15608 0
M  V30 6512 H 601.807 3.12253 2.3115 0
M  V30 6513 H 603.479 4.60997 0.16714 0
M  V30 6514 H 601.722 4.33711 0.0877964 0
M  V30 6515 H 602.393 5.3467 1.3723 0
M  V30 6516 H 604.869 3.57482 2.12946 0
M  V30 6517 H 603.745 4.47298 3.18144 0
M  V30 6518 H 604.006 2.75768 3.45549 0
M  V30 6519 N 603.065 -0.440357 1.51323 0
M  V30 6520 C 604.028 -1.51679 1.71832 0
M  V30 6521 C 605.028 -1.49648 0.588386 0
M  V30 6522 O 606.218 -1.51724 0.855891 0
M  V30 6523 C 603.35 -2.91228 1.77199 0
M  V30 6524 H 604.543 -1.34799 2.67898 0
M  V30 6525 H 602.096 -0.66883 1.41267 0
M  V30 6526 H 602.831 -3.13516 0.829363 0
M  V30 6527 H 602.616 -2.94107 2.59314 0
M  V30 6528 H 604.106 -3.69321 1.94915 0
M  V30 6529 N 604.543 -1.41418 -0.695603 0
M  V30 6530 C 605.768 -1.44329 -1.48942 0
M  V30 6531 C 606.193 -0.0501579 -1.88033 0
M  V30 6532 O 605.551 0.946598 -1.54626 0
M  V30 6533 C 605.599 -2.3578 -2.72837 0
M  V30 6534 O 604.703 -1.81482 -3.70322 0
M  V30 6535 H 604.044 -0.489838 -0.44828 0
M  V30 6536 H 606.574 -1.85878 -0.855014 0
M  V30 6537 H 606.584 -2.51654 -3.21145 0
M  V30 6538 H 605.259 -3.37005 -2.43722 0
M  V30 6539 H 603.836 -1.75058 -3.29255 0
M  V30 6540 N 606.021 0.929856 -1.27246 0
M  V30 6541 C 607.251 1.70895 -1.16096 0
M  V30 6542 C 607.659 1.87039 0.285122 0
M  V30 6543 O 607.002 1.38557 1.20614 0
M  V30 6544 C 607.064 3.12919 -1.7698 0
M  V30 6545 C 606.728 3.2012 -3.26148 0
M  V30 6546 C 607.725 3.02533 -4.22812 0
M  V30 6547 C 605.41 3.43148 -3.66817 0
M  V30 6548 C 607.404 3.07861 -5.58122 0
M  V30 6549 C 605.091 3.48109 -5.02258 0
M  V30 6550 C 606.089 3.30483 -5.97721 0
M  V30 6551 O 605.777 3.35175 -7.30694 0
M  V30 6552 H 605.509 0.54152 -0.404639 0
M  V30 6553 H 608.063 1.17342 -1.68582 0
M  V30 6554 H 606.293 3.67945 -1.18969 0
M  V30 6555 H 607.982 3.72787 -1.60576 0
M  V30 6556 H 608.748 2.84586 -3.92728 0
M  V30 6557 H 604.627 3.55918 -2.9299 0
M  V30 6558 H 608.171 2.94021 -6.32612 0
M  V30 6559 H 604.068 3.65579 -5.31998 0
M  V30 6560 H 604.836 3.51644 -7.39114 0
M  V30 6561 N 607.499 1.09233 1.13605 0
M  V30 6562 C 608.462 0.733553 2.17144 0
M  V30 6563 C 609.462 -0.235873 1.59061 0
M  V30 6564 O 610.652 -0.0143167 1.74194 0
M  V30 6565 C 607.784 0.084471 3.40795 0
M  V30 6566 H 608.977 1.65049 2.50397 0
M  V30 6567 H 606.53 0.891264 1.28399 0
M  V30 6568 H 607.265 -0.843795 3.1313 0
M  V30 6569 H 607.05 0.781985 3.84223 0
M  V30 6570 H 608.54 -0.151216 4.17326 0
M  V30 6571 N 608.977 -1.30795 0.87923 0
M  V30 6572 C 610.223 -1.97035 0.50487 0
M  V30 6573 C 610.578 -1.68182 -0.934484 0
M  V30 6574 O 609.871 -0.972953 -1.65058 0
M  V30 6575 C 610.065 -3.50287 0.709476 0
M  V30 6576 C 609.894 -3.94035 2.16717 0
M  V30 6577 C 608.664 -4.1992 2.81061 0
M  V30 6578 C 610.862 -4.07288 3.1404 0
M  V30 6579 N 608.844 -4.50088 4.17486 0
M  V30 6580 C 610.215 -4.41273 4.35521 0
M  V30 6581 C 612.27 -3.89696 3.09906 0
M  V30 6582 C 610.973 -4.59501 5.534 0
M  V30 6583 C 612.999 -4.09122 4.27052 0
M  V30 6584 C 612.361 -4.43447 5.47297 0
M  V30 6585 H 608.46 -0.746181 0.233962 0
M  V30 6586 H 611.044 -1.5814 1.13577 0
M  V30 6587 H 609.215 -3.8825 0.108108 0
M  V30 6588 H 610.947 -4.03567 0.302585 0
M  V30 6589 H 607.702 -4.12906 2.3196 0
M  V30 6590 H 608.126 -4.69316 4.87926 0
M  V30 6591 H 612.768 -3.62239 2.18043 0
M  V30 6592 H 610.486 -4.85802 6.45773 0
M  V30 6593 H 614.072 -3.96985 4.25316 0
M  V30 6594 H 612.952 -4.58171 6.36435 0
M  V30 6595 N 610.455 -0.639598 -1.44038 0
M  V30 6596 C 611.403 0.0723409 -2.32487 0
M  V30 6597 C 612.397 0.827129 -1.47834 0
M  V30 6598 O 613.603 0.73907 -1.64127 0
M  V30 6599 H 609.978 0.0421696 -0.750817 0
M  V30 6600 H 611.949 -0.691593 -2.90275 0
M  V30 6601 C 610.698 1.03452 -3.31953 0
M  V30 6602 H 610.021 0.46315 -3.97108 0
M  V30 6603 H 611.461 1.502 -3.96505 0
M  V30 6604 C 609.92 2.12392 -2.61518 0
M  V30 6605 O 610.45 3.2059 -2.42044 0
M  V30 6606 N 608.656 1.88563 -2.21116 0
M  V30 6607 H 608.203 1.00577 -2.37154 0
M  V30 6608 H 608.161 2.61651 -1.74316 0
M  V30 6609 N 611.933 1.52934 -0.380664 0
M  V30 6610 C 613.344 1.86457 0.0952684 0
M  V30 6611 C 613.695 1.3007 1.46889 0
M  V30 6612 O 612.82 0.628636 2.07068 0
M  V30 6613 C 613.415 3.38323 0.179648 0
M  V30 6614 C 611.974 3.71589 0.599858 0
M  V30 6615 C 611.121 2.76228 -0.243572 0
M  V30 6616 H 614.072 1.46966 -0.59888 0
M  V30 6617 H 614.093 3.67113 1.00042 0
M  V30 6618 H 613.605 3.79333 -0.820228 0
M  V30 6619 H 611.706 3.36144 1.60742 0
M  V30 6620 H 611.819 4.77715 0.364003 0
M  V30 6621 H 610.183 2.53045 0.289855 0
M  V30 6622 H 610.966 3.20074 -1.24127 0
M  V30 6623 N 613.412 0.11024 1.57214 0
M  V30 6624 C 614.375 -0.828808 2.1369 0
M  V30 6625 C 615.375 -1.20059 1.06969 0
M  V30 6626 O 616.565 -1.12754 1.32786 0
M  V30 6627 C 613.697 -2.11959 2.66994 0
M  V30 6628 H 614.89 -0.338146 2.97988 0
M  V30 6629 H 612.443 -0.138913 1.55681 0
M  V30 6630 H 613.178 -2.65476 1.8626 0
M  V30 6631 H 612.963 -1.86258 3.45037 0
M  V30 6632 H 614.453 -2.79105 3.10629 0
M  V30 6633 N 614.89 -1.56749 -0.16351 0
M  V30 6634 C 615.837 -1.97011 -1.2023 0
M  V30 6635 C 616.807 -0.835186 -1.43575 0
M  V30 6636 O 617.992 -1.09594 -1.56185 0
M  V30 6637 C 615.132 -2.34186 -2.53478 0
M  V30 6638 C 614.245 -3.60893 -2.37446 0
M  V30 6639 C 613.38 -3.87245 -3.63614 0
M  V30 6640 C 612.419 -5.07274 -3.42548 0
M  V30 6641 N 611.556 -5.29719 -4.60806 0
M  V30 6642 H 616.396 -2.85562 -0.851958 0
M  V30 6643 H 613.933 -1.41292 -0.409257 0
M  V30 6644 H 615.891 -2.53764 -3.31149 0
M  V30 6645 H 614.521 -1.48736 -2.86492 0
M  V30 6646 H 613.573 -3.49185 -1.50911 0
M  V30 6647 H 614.885 -4.48722 -2.1783 0
M  V30 6648 H 614.039 -4.07232 -4.49719 0
M  V30 6649 H 612.778 -2.97806 -3.86216 0
M  V30 6650 H 611.783 -4.87177 -2.5483 0
M  V30 6651 H 613.008 -5.98251 -3.2136 0
M  V30 6652 H 610.954 -4.43233 -4.83612 0
M  V30 6653 H 610.871 -6.11786 -4.44132 0
M  V30 6654 H 612.139 -5.54192 -5.48171 0
M  V30 6655 N 616.368 0.432326 -1.51554 0
M  V30 6656 C 617.598 1.2019 -1.68042 0
M  V30 6657 C 618.006 1.85356 -0.379434 0
M  V30 6658 O 617.349 1.71724 0.652427 0
M  V30 6659 C 617.411 2.32387 -2.74292 0
M  V30 6660 C 617.075 1.87548 -4.16743 0
M  V30 6661 C 618.072 1.37611 -5.01357 0
M  V30 6662 C 615.757 1.95087 -4.62868 0
M  V30 6663 C 617.751 0.958069 -6.30159 0
M  V30 6664 C 615.438 1.52894 -5.91664 0
M  V30 6665 C 616.436 1.03336 -6.75137 0
M  V30 6666 O 616.124 0.617435 -8.01525 0
M  V30 6667 H 615.856 0.368132 -0.56697 0
M  V30 6668 H 618.41 0.517875 -1.98764 0
M  V30 6669 H 616.64 3.04082 -2.38895 0
M  V30 6670 H 618.329 2.94235 -2.79608 0
M  V30 6671 H 619.095 1.31178 -4.66923 0
M  V30 6672 H 614.974 2.32606 -3.98015 0
M  V30 6673 H 618.518 0.570562 -6.95263 0
M  V30 6674 H 614.415 1.58999 -6.25611 0
M  V30 6675 H 615.183 0.742835 -8.15122 0
M  V30 6676 N 617.846 1.41785 0.688094 0
M  V30 6677 C 619.123 1.32031 1.44316 0
M  V30 6678 C 619.503 -0.0486079 2.11044 0
M  V30 6679 O 618.851 -1.06332 2.02252 0
M  V30 6680 C 619.061 2.47906 2.45649 0
M  V30 6681 C 620.409 2.89415 3.10683 0
M  V30 6682 O 621.433 2.477 2.55975 0
M  V30 6683 O 620.292 3.61573 4.09789 0
M  V30 6684 H 617.386 0.519994 0.643067 0
M  V30 6685 H 619.932 1.53765 0.71794 0
M  V30 6686 H 618.704 3.39222 1.95048 0
M  V30 6687 H 618.327 2.28089 3.25671 0
M  V30 6688 N 619.324 -0.923095 1.27737 0
M  V30 6689 C 620.552 -1.70525 1.17171 0
M  V30 6690 C 620.967 -1.86847 -0.270881 0
M  V30 6691 O 620.324 -1.38879 -1.18401 0
M  V30 6692 C 620.375 -3.10242 1.85559 0
M  V30 6693 O 620.096 -2.94683 3.24182 0
M  V30 6694 C 621.597 -4.04586 1.81176 0
M  V30 6695 H 618.817 -0.533347 0.407163 0
M  V30 6696 H 621.361 -1.15599 1.68692 0
M  V30 6697 H 619.516 -3.62014 1.3793 0
M  V30 6698 H 619.93 -3.83045 3.58297 0
M  V30 6699 H 621.404 -5.00119 2.33633 0
M  V30 6700 H 621.881 -4.3218 0.782099 0
M  V30 6701 H 622.487 -3.58741 2.2844 0
M  V30 6702 N 620.802 -1.09834 -1.13024 0
M  V30 6703 C 622.048 -0.848072 -1.84876 0
M  V30 6704 C 622.403 0.619663 -1.82148 0
M  V30 6705 O 621.696 1.45067 -1.25164 0
M  V30 6706 C 621.89 -1.32263 -3.32026 0
M  V30 6707 C 621.719 -2.83497 -3.49084 0
M  V30 6708 C 620.489 -3.51425 -3.63082 0
M  V30 6709 C 622.687 -3.81623 -3.44773 0
M  V30 6710 N 620.669 -4.91042 -3.68443 0
M  V30 6711 C 622.04 -5.07217 -3.56555 0
M  V30 6712 C 624.095 -3.74419 -3.282 0
M  V30 6713 C 622.798 -6.26457 -3.53474 0
M  V30 6714 C 624.824 -4.93151 -3.26429 0
M  V30 6715 C 624.186 -6.1759 -3.38765 0
M  V30 6716 H 620.285 -0.363249 -0.692513 0
M  V30 6717 H 622.869 -1.39952 -1.35357 0
M  V30 6718 H 621.04 -0.79858 -3.80102 0
M  V30 6719 H 622.772 -1.01725 -3.91707 0
M  V30 6720 H 619.527 -3.0186 -3.64935 0
M  V30 6721 H 619.951 -5.63782 -3.74805 0
M  V30 6722 H 624.593 -2.79132 -3.17561 0
M  V30 6723 H 622.311 -7.22039 -3.62884 0
M  V30 6724 H 625.897 -4.8928 -3.14796 0
M  V30 6725 H 624.777 -7.07925 -3.37361 0
M  V30 6726 N 622.28 1.30327 -0.886154 0
M  V30 6727 C 623.212 2.27079 -0.311072 0
M  V30 6728 C 624.225 1.53758 0.53502 0
M  V30 6729 O 625.414 1.74947 0.354378 0
M  V30 6730 C 622.514 3.33965 0.576228 0
M  V30 6731 C 621.687 4.36735 -0.241064 0
M  V30 6732 C 620.746 5.23028 0.576916 0
M  V30 6733 O 619.772 5.692 -0.000802231 0
M  V30 6734 N 620.974 5.49016 1.88579 0
M  V30 6735 H 623.739 2.77065 -1.14259 0
M  V30 6736 H 621.3 1.43519 -0.749258 0
M  V30 6737 H 623.292 3.88618 1.12953 0
M  V30 6738 H 621.862 2.839 1.30842 0
M  V30 6739 H 621.082 3.81932 -0.975805 0
M  V30 6740 H 622.37 5.02451 -0.801272 0
M  V30 6741 H 621.768 5.13288 2.37806 0
M  V30 6742 H 620.325 6.06539 2.38651 0
M  V30 6743 N 623.758 0.647228 1.43697 0
M  V30 6744 C 624.986 0.16575 2.06235 0
M  V30 6745 C 625.401 -1.1662 1.48476 0
M  V30 6746 O 624.758 -1.7187 0.613762 0
M  V30 6747 C 624.809 0.0621651 3.61447 0
M  V30 6748 O 624.53 1.34146 4.17057 0
M  V30 6749 C 626.031 -0.446102 4.4105 0
M  V30 6750 H 623.251 0.0871158 0.665321 0
M  V30 6751 H 625.795 0.886183 1.84301 0
M  V30 6752 H 623.95 -0.608794 3.82587 0
M  V30 6753 H 624.364 1.19675 5.10664 0
M  V30 6754 H 625.838 -0.46755 5.50016 0
M  V30 6755 H 626.315 -1.47627 4.13646 0
M  V30 6756 H 626.921 0.192159 4.24866 0
M  V30 6757 N 625.236 -1.5273 0.388769 0
M  V30 6758 C 626.482 -2.02545 -0.186351 0
M  V30 6759 C 626.837 -1.27017 -1.44514 0
M  V30 6760 O 626.13 -0.361948 -1.8815 0
M  V30 6761 C 626.324 -3.53765 -0.508445 0
M  V30 6762 C 626.153 -4.43938 0.71758 0
M  V30 6763 C 624.923 -4.89933 1.23668 0
M  V30 6764 C 627.121 -4.89113 1.58974 0
M  V30 6765 N 625.103 -5.64176 2.42031 0
M  V30 6766 C 626.474 -5.61931 2.61979 0
M  V30 6767 C 628.529 -4.71155 1.60989 0
M  V30 6768 C 627.232 -6.18698 3.66886 0
M  V30 6769 C 629.258 -5.28804 2.64803 0
M  V30 6770 C 628.62 -6.01527 3.6653 0
M  V30 6771 H 624.719 -0.781413 -0.0302921 0
M  V30 6772 H 627.303 -1.87104 0.538539 0
M  V30 6773 H 625.474 -3.6932 -1.20239 0
M  V30 6774 H 627.206 -3.9028 -1.07067 0
M  V30 6775 H 623.961 -4.66833 0.797763 0
M  V30 6776 H 624.385 -6.05949 3.01919 0
M  V30 6777 H 629.027 -4.14435 0.836881 0
M  V30 6778 H 626.745 -6.74501 4.45055 0
M  V30 6779 H 630.331 -5.1679 2.67245 0
M  V30 6780 H 629.211 -6.45339 4.45542 0
M  V30 6781 N 626.714 -0.118576 -1.57153 0
M  V30 6782 C 627.661 0.831789 -2.1529 0
M  V30 6783 C 628.631 1.26385 -1.07778 0
M  V30 6784 O 629.816 1.34144 -1.35684 0
M  V30 6785 C 626.956 2.07664 -2.75626 0
M  V30 6786 C 626.069 1.69298 -3.97444 0
M  V30 6787 C 625.204 2.88747 -4.45868 0
M  V30 6788 C 624.243 2.46619 -5.60219 0
M  V30 6789 N 623.38 3.5898 -6.03389 0
M  V30 6790 H 628.22 0.329183 -2.96176 0
M  V30 6791 H 625.757 0.150792 -1.46325 0
M  V30 6792 H 627.715 2.80601 -3.08738 0
M  V30 6793 H 626.345 2.55384 -1.97431 0
M  V30 6794 H 625.397 0.862374 -3.70496 0
M  V30 6795 H 626.709 1.34338 -4.80369 0
M  V30 6796 H 625.863 3.69909 -4.80887 0
M  V30 6797 H 624.602 3.26933 -3.61892 0
M  V30 6798 H 623.607 1.63889 -5.24805 0
M  V30 6799 H 624.832 2.0955 -6.45961 0
M  V30 6800 H 622.778 3.9684 -5.22354 0
M  V30 6801 H 622.695 3.27942 -6.81168 0
M  V30 6802 H 623.963 4.40583 -6.43045 0
M  V30 6803 N 628.193 1.56834 0.155195 0
M  V30 6804 C 629.47 1.73799 0.897395 0
M  V30 6805 C 629.85 0.684379 1.99698 0
M  V30 6806 O 629.198 -0.298111 2.26547 0
M  V30 6807 C 629.408 3.17572 1.44737 0
M  V30 6808 C 630.756 3.79014 1.91399 0
M  V30 6809 O 631.78 3.20951 1.54496 0
M  V30 6810 O 630.639 4.80998 2.59429 0
M  V30 6811 H 627.733 0.710329 0.423511 0
M  V30 6812 H 630.279 1.69107 0.141761 0
M  V30 6813 H 629.051 3.85749 0.656741 0
M  V30 6814 H 628.674 3.26657 2.26674 0
M  V30 6815 N 629.671 -0.424282 1.51781 0
M  V30 6816 C 630.634 -1.49848 1.73431 0
M  V30 6817 C 631.634 -1.49016 0.604225 0
M  V30 6818 O 632.824 -1.50808 0.871935 0
M  V30 6819 C 629.956 -2.89332 1.80277 0
M  V30 6820 H 631.149 -1.3195 2.69312 0
M  V30 6821 H 628.702 -0.653809 1.41968 0
M  V30 6822 H 629.437 -3.12618 0.862568 0
M  V30 6823 H 629.222 -2.9134 2.62419 0
M  V30 6824 H 630.712 -3.67233 1.98821 0
M  V30 6825 N 631.149 -1.42148 -0.680565 0
M  V30 6826 C 632.398 -1.41604 -1.43636 0
M  V30 6827 C 632.711 -0.0337887 -1.95571 0
M  V30 6828 O 633.917 0.0942588 -2.71336 0
M  V30 6829 C 632.373 -2.49056 -2.59806 0
M  V30 6830 C 631.981 -3.9326 -2.14594 0
M  V30 6831 C 633.725 -2.5767 -3.37352 0
M  V30 6832 C 631.632 -4.92232 -3.27813 0
M  V30 6833 H 630.562 -0.526656 -0.539583 0
M  V30 6834 H 633.213 -1.68033 -0.737369 0
M  V30 6835 H 631.595 -2.15782 -3.32045 0
M  V30 6836 H 632.769 -4.35858 -1.49546 0
M  V30 6837 H 631.084 -3.88443 -1.50002 0
M  V30 6838 H 633.681 -3.28794 -4.21662 0
M  V30 6839 H 634.024 -1.61837 -3.83555 0
M  V30 6840 H 634.557 -2.90109 -2.72179 0
M  V30 6841 H 631.296 -5.89522 -2.86607 0
M  V30 6842 H 630.816 -4.5427 -3.91661 0
M  V30 6843 H 632.495 -5.13684 -3.93367 0
M  V30 6844 N 632.627 0.916307 -1.28225 0
M  V30 6845 C 634.043 1.19425 -1.05876 0
M  V30 6846 C 634.243 2.005 0.2005 0
M  V30 6847 O 633.299 2.35806 0.902873 0
M  V30 6848 C 634.612 1.93133 -2.30478 0
M  V30 6849 C 636.16 2.06026 -2.35632 0
M  V30 6850 C 636.635 2.83141 -3.59994 0
M  V30 6851 N 638.126 2.90704 -3.60618 0
M  V30 6852 C 638.861 3.50865 -4.53521 0
M  V30 6853 N 638.357 4.12327 -5.56739 0
M  V30 6854 N 640.15 3.48379 -4.41122 0
M  V30 6855 H 632.301 0.37496 -2.09064 0
M  V30 6856 H 634.564 0.228531 -0.920042 0
M  V30 6857 H 634.27 1.40985 -3.22205 0
M  V30 6858 H 634.144 2.93696 -2.36691 0
M  V30 6859 H 636.531 2.57355 -1.44404 0
M  V30 6860 H 636.612 1.04647 -2.33415 0
M  V30 6861 H 636.256 2.32492 -4.51564 0
M  V30 6862 H 636.186 3.84829 -3.59464 0
M  V30 6863 H 638.677 2.47034 -2.85977 0
M  V30 6864 H 638.99 4.56205 -6.23776 0
M  V30 6865 H 637.335 4.10839 -5.60568 0
M  V30 6866 H 640.526 2.99572 -3.59686 0
M  V30 6867 H 640.699 3.94974 -5.13712 0
M  V30 6868 N 634.105 1.10431 1.1244 0
M  V30 6869 C 635.333 0.868872 1.87772 0
M  V30 6870 C 635.748 -0.580645 1.7965 0
M  V30 6871 O 635.105 -1.40031 1.17036 0
M  V30 6872 C 635.156 1.30855 3.36986 0
M  V30 6873 O 634.877 2.70123 3.44914 0
M  V30 6874 C 636.378 1.107 4.29256 0
M  V30 6875 H 633.598 0.311868 0.59412 0
M  V30 6876 H 636.142 1.46897 1.42273 0
M  V30 6877 H 634.297 0.752126 3.80029 0
M  V30 6878 H 634.711 2.88923 4.37748 0
M  V30 6879 H 636.185 1.46378 5.32238 0
M  V30 6880 H 636.662 0.0456228 4.39176 0
M  V30 6881 H 637.268 1.64988 3.91994 0
M  V30 6882 N 635.583 -1.29855 0.893053 0
M  V30 6883 C 636.832 -1.95104 0.511597 0
M  V30 6884 C 637.145 -1.71226 -0.945567 0
M  V30 6885 O 638.351 -2.30525 -1.43424 0
M  V30 6886 C 636.807 -3.49374 0.864034 0
M  V30 6887 C 636.415 -3.82061 2.33952 0
M  V30 6888 C 638.159 -4.20894 0.552167 0
M  V30 6889 C 636.066 -5.29546 2.63316 0
M  V30 6890 H 634.996 -0.73029 0.187597 0
M  V30 6891 H 637.647 -1.47682 1.08914 0
M  V30 6892 H 636.029 -3.95413 0.215493 0
M  V30 6893 H 637.203 -3.46904 3.03305 0
M  V30 6894 H 635.518 -3.23665 2.61973 0
M  V30 6895 H 638.115 -5.29435 0.748489 0
M  V30 6896 H 638.458 -4.13178 -0.508924 0
M  V30 6897 H 638.991 -3.80564 1.15825 0
M  V30 6898 H 635.73 -5.4232 3.68197 0
M  V30 6899 H 635.25 -5.65974 1.9858 0
M  V30 6900 H 636.929 -5.97068 2.49236 0
M  V30 6901 N 637.061 -0.65484 -1.43351 0
M  V30 6902 C 637.991 0.0221809 -2.33489 0
M  V30 6903 C 638.972 0.810272 -1.49561 0
M  V30 6904 O 640.157 0.771426 -1.78221 0
M  V30 6905 C 637.287 0.988117 -3.32947 0
M  V30 6906 C 636.241 0.310026 -4.26876 0
M  V30 6907 C 635.567 1.38752 -5.16384 0
M  V30 6908 C 636.867 -0.798589 -5.16159 0
M  V30 6909 H 638.561 -0.730571 -2.9035 0
M  V30 6910 H 636.107 -0.352773 -1.39612 0
M  V30 6911 H 638.06 1.47067 -3.94904 0
M  V30 6912 H 636.784 1.77205 -2.74346 0
M  V30 6913 H 635.443 -0.152097 -3.66284 0
M  V30 6914 H 635.091 2.16293 -4.54121 0
M  V30 6915 H 634.791 0.939051 -5.80048 0
M  V30 6916 H 636.315 1.87141 -5.81215 0
M  V30 6917 H 637.729 -0.398126 -5.71916 0
M  V30 6918 H 636.126 -1.17163 -5.88552 0
M  V30 6919 H 637.196 -1.65588 -4.55751 0
M  V30 6920 N 638.539 1.52521 -0.396863 0
M  V30 6921 C 639.95 1.86547 0.0754868 0
M  V30 6922 C 640.301 1.31621 1.45501 0
M  V30 6923 O 639.426 0.650563 2.0639 0
M  V30 6924 C 640.021 3.38495 0.143754 0
M  V30 6925 C 638.58 3.72205 0.560413 0
M  V30 6926 C 637.727 2.75954 -0.272856 0
M  V30 6927 H 640.678 1.46323 -0.614434 0
M  V30 6928 H 640.699 3.68153 0.961425 0
M  V30 6929 H 640.211 3.78442 -0.860415 0
M  V30 6930 H 638.312 3.3783 1.57167 0
M  V30 6931 H 638.425 4.78074 0.313314 0
M  V30 6932 H 636.789 2.53339 0.263 0
M  V30 6933 H 637.572 3.1874 -1.27515 0
M  V30 6934 N 640.017 0.126909 1.57088 0
M  V30 6935 C 641.242 -0.53997 2.00248 0
M  V30 6936 C 641.667 -1.58927 1.00618 0
M  V30 6937 O 641.025 -1.81288 -0.0210131 0
M  V30 6938 C 641.073 -1.13565 3.4225 0
M  V30 6939 O 640.177 -2.25103 3.45547 0
M  V30 6940 H 639.518 -0.13412 0.650314 0
M  V30 6941 H 642.048 0.217718 2.03438 0
M  V30 6942 H 642.058 -1.46925 3.80627 0
M  V30 6943 H 640.733 -0.367122 4.14277 0
M  V30 6944 H 639.31 -1.93123 3.18995 0
M  V30 6945 N 641.495 -1.56914 -0.146875 0
M  V30 6946 C 642.458 -1.97368 -1.16526 0
M  V30 6947 C 643.458 -0.860223 -1.35856 0
M  V30 6948 O 644.648 -1.12684 -1.32846 0
M  V30 6949 C 641.78 -2.28974 -2.52555 0
M  V30 6950 H 642.973 -2.88523 -0.818209 0
M  V30 6951 H 640.526 -1.5135 -0.390221 0
M  V30 6952 H 641.261 -1.40611 -2.92231 0
M  V30 6953 H 641.046 -3.10157 -2.39886 0
M  V30 6954 H 642.536 -2.61109 -3.25902 0
M  V30 6955 N 642.974 0.416227 -1.52004 0
M  V30 6956 C 643.937 1.48926 -1.74223 0
M  V30 6957 C 644.937 1.48693 -0.612119 0
M  V30 6958 O 646.127 1.50343 -0.879921 0
M  V30 6959 C 643.259 2.88372 -1.81809 0
M  V30 6960 H 644.452 1.3052 -2.70008 0
M  V30 6961 H 642.005 0.646271 -1.42313 0
M  V30 6962 H 642.74 3.12157 -0.879135 0
M  V30 6963 H 642.525 2.89944 -2.6396 0
M  V30 6964 H 644.015 3.66173 -2.00766 0
M  V30 6965 N 644.452 1.42507 0.673017 0
M  V30 6966 C 645.362 1.4853 1.81593 0
M  V30 6967 C 646.378 0.373907 1.69935 0
M  V30 6968 O 647.554 0.625078 1.91454 0
M  V30 6969 C 644.619 1.387 3.17747 0
M  V30 6970 C 643.68 2.60346 3.41348 0
M  V30 6971 C 642.913 2.50975 4.71007 0
M  V30 6972 O 643.136 1.54659 5.49033 0
M  V30 6973 O 642.07 3.41138 4.95892 0
M  V30 6974 H 645.896 2.45001 1.79467 0
M  V30 6975 H 643.481 1.2429 0.82899 0
M  V30 6976 H 645.363 1.35586 3.98992 0
M  V30 6977 H 644.038 0.453555 3.20507 0
M  V30 6978 H 642.945 2.69034 2.59945 0
M  V30 6979 H 644.278 3.52595 3.43421 0
M  V30 6980 N 645.93 -0.909495 1.28709 0
M  V30 6981 C 646.84 -2.04558 1.14861 0
M  V30 6982 C 647.856 -1.73842 0.0741621 0
M  V30 6983 O 649.032 -1.99383 0.2843 0
M  V30 6984 C 646.097 -3.36957 0.816148 0
M  V30 6985 C 645.158 -3.81255 1.97341 0
M  V30 6986 C 644.391 -5.07335 1.65671 0
M  V30 6987 O 644.614 -5.67514 0.573053 0
M  V30 6988 O 643.548 -5.47449 2.50167 0
M  V30 6989 H 647.374 -2.19161 2.10243 0
M  V30 6990 H 644.959 -1.03159 1.08068 0
M  V30 6991 H 646.841 -4.16436 0.644873 0
M  V30 6992 H 645.516 -3.2352 -0.107983 0
M  V30 6993 H 644.423 -3.02584 2.19986 0
M  V30 6994 H 645.756 -3.99261 2.87839 0
M  V30 6995 N 647.408 -1.11026 -1.11852 0
M  V30 6996 C 648.338 -0.786812 -2.19844 0
M  V30 6997 C 649.319 0.242935 -1.68356 0
M  V30 6998 O 650.504 0.107355 -1.93903 0
M  V30 6999 C 647.634 -0.224516 -3.46574 0
M  V30 7000 C 646.588 -1.18564 -4.1125 0
M  V30 7001 C 645.914 -0.484261 -5.32503 0
M  V30 7002 C 647.214 -2.53465 -4.56676 0
M  V30 7003 H 648.908 -1.68978 -2.47158 0
M  V30 7004 H 646.454 -0.813906 -1.18792 0
M  V30 7005 H 648.407 0.0139435 -4.21398 0
M  V30 7006 H 647.131 0.713722 -3.18706 0
M  V30 7007 H 645.79 -1.40966 -3.38414 0
M  V30 7008 H 645.438 0.458646 -5.00905 0
M  V30 7009 H 645.138 -1.12526 -5.76725 0
M  V30 7010 H 646.662 -0.254492 -6.10069 0
M  V30 7011 H 648.076 -2.35177 -5.22843 0
M  V30 7012 H 646.473 -3.13507 -5.11697 0
M  V30 7013 H 647.543 -3.13008 -3.70343 0
M  V30 7014 N 648.886 1.2938 -0.899927 0
M  V30 7015 C 649.796 2.31462 -0.382437 0
M  V30 7016 C 650.812 1.65956 0.522929 0
M  V30 7017 O 651.988 1.97131 0.412454 0
M  V30 7018 C 649.053 3.44595 0.381472 0
M  V30 7019 C 648.114 4.25692 -0.555444 0
M  V30 7020 C 647.347 5.33422 0.172102 0
M  V30 7021 O 647.57 5.53053 1.396 0
M  V30 7022 O 646.504 5.99939 -0.485491 0
M  V30 7023 H 650.33 2.77706 -1.22934 0
M  V30 7024 H 647.915 1.33821 -0.664259 0
M  V30 7025 H 649.797 4.13474 0.813442 0
M  V30 7026 H 648.472 3.00458 1.20443 0
M  V30 7027 H 647.379 3.59453 -1.03653 0
M  V30 7028 H 648.712 4.73471 -1.34483 0
M  V30 7029 N 650.364 0.662433 1.43002 0
M  V30 7030 C 651.604 0.183312 2.03576 0
M  V30 7031 C 651.968 -1.18354 1.51183 0
M  V30 7032 O 653.169 -1.7566 2.03462 0
M  V30 7033 C 651.44 0.202908 3.56824 0
M  V30 7034 S 652.999 -0.20702 4.38311 0
M  V30 7035 H 649.817 0.0765001 0.706872 0
M  V30 7036 H 652.419 0.872827 1.74934 0
M  V30 7037 H 651.123 1.20028 3.92456 0
M  V30 7038 H 650.654 -0.506845 3.90121 0
M  V30 7039 H 652.669 -1.44358 4.74737 0
M  V30 7040 N 651.842 -1.52309 0.404946 0
M  V30 7041 C 653.089 -2.01767 -0.1722 0
M  V30 7042 C 653.417 -1.29075 -1.45498 0
M  V30 7043 O 652.672 -0.3843 -1.9189 0
M  V30 7044 C 652.971 -3.54284 -0.470895 0
M  V30 7045 C 652.637 -4.45079 0.722194 0
M  V30 7046 C 651.299 -4.69617 1.04946 0
M  V30 7047 C 653.651 -4.98555 1.51962 0
M  V30 7048 C 650.979 -5.44878 2.17543 0
M  V30 7049 C 653.331 -5.75049 2.63632 0
M  V30 7050 C 651.995 -5.9786 2.9685 0
M  V30 7051 H 651.265 -0.738316 -0.0630125 0
M  V30 7052 H 653.912 -1.83566 0.545506 0
M  V30 7053 H 652.217 -3.70642 -1.27012 0
M  V30 7054 H 653.914 -3.90058 -0.930346 0
M  V30 7055 H 650.504 -4.26155 0.457131 0
M  V30 7056 H 654.688 -4.79509 1.28002 0
M  V30 7057 H 649.944 -5.60762 2.43631 0
M  V30 7058 H 654.118 -6.15483 3.25813 0
M  V30 7059 H 651.745 -6.5596 3.84215 0
M  V30 7060 N 653.32 -0.135238 -1.57019 0
M  V30 7061 C 654.283 0.794707 -2.14981 0
M  V30 7062 C 655.283 1.18342 -1.08866 0
M  V30 7063 O 656.473 1.10627 -1.34563 0
M  V30 7064 C 653.605 2.07685 -2.70333 0
M  V30 7065 H 654.798 0.290696 -2.98488 0
M  V30 7066 H 652.351 0.114128 -1.55883 0
M  V30 7067 H 653.086 2.6248 -1.9046 0
M  V30 7068 H 652.871 1.80745 -3.47957 0
M  V30 7069 H 654.361 2.74127 -3.1503 0
M  V30 7070 N 654.798 1.5699 0.138552 0
M  V30 7071 C 655.731 1.94064 1.2006 0
M  V30 7072 C 656.709 0.807601 1.41126 0
M  V30 7073 O 657.893 1.06399 1.556 0
M  V30 7074 C 655.02 2.21999 2.55801 0
M  V30 7075 C 654.066 3.44617 2.5128 0
M  V30 7076 S 654.899 4.97888 1.97149 0
M  V30 7077 C 656.055 5.28954 3.34602 0
M  V30 7078 H 656.288 2.83843 0.884337 0
M  V30 7079 H 653.821 1.50507 0.344517 0
M  V30 7080 H 655.779 2.38772 3.33914 0
M  V30 7081 H 654.44 1.32869 2.84613 0
M  V30 7082 H 653.633 3.61466 3.51224 0
M  V30 7083 H 653.235 3.27129 1.8128 0
M  V30 7084 H 655.527 5.22938 4.30745 0
M  V30 7085 H 656.47 6.30346 3.22598 0
M  V30 7086 H 656.878 4.56455 3.32128 0
M  V30 7087 N 656.276 -0.40816 1.52223 0
M  V30 7088 C 657.226 -1.49648 1.72016 0
M  V30 7089 C 658.21 -1.50311 0.574069 0
M  V30 7090 O 659.402 -1.56271 0.831173 0
M  V30 7091 C 656.531 -2.87566 1.87512 0
M  V30 7092 C 655.617 -2.91547 3.07995 0
M  V30 7093 N 656.008 -2.65225 4.30685 0
M  V30 7094 C 654.306 -3.22715 3.07849 0
M  V30 7095 C 655.007 -2.75799 5.12162 0
M  V30 7096 N 653.983 -3.08719 4.4743 0
M  V30 7097 H 657.785 -1.28093 2.64517 0
M  V30 7098 H 655.299 -0.61588 1.50269 0
M  V30 7099 H 657.296 -3.65899 1.99809 0
M  V30 7100 H 655.956 -3.10118 0.962114 0
M  V30 7101 H 656.967 -2.39601 4.59142 0
M  V30 7102 H 653.644 -3.50856 2.26289 0
M  V30 7103 H 655.034 -2.59155 6.1991 0
M  V30 7104 N 657.755 -1.42862 -0.66545 0
M  V30 7105 C 658.703 -1.47319 -1.8 0
M  V30 7106 C 659.697 -0.347963 -1.65788 0
M  V30 7107 O 660.903 -0.521406 -1.72283 0
M  V30 7108 H 657.278 -0.461588 -0.593667 0
M  V30 7109 H 659.249 -2.42876 -1.7336 0
M  V30 7110 C 657.998 -1.40152 -3.18203 0
M  V30 7111 H 657.321 -2.26035 -3.2977 0
M  V30 7112 H 658.761 -1.47331 -3.9758 0
M  V30 7113 C 657.22 -0.117493 -3.36695 0
M  V30 7114 O 657.75 0.826058 -3.93115 0
M  V30 7115 N 655.956 -0.0316218 -2.90583 0
M  V30 7116 H 655.503 -0.800247 -2.44855 0
M  V30 7117 H 655.461 0.826835 -3.03333 0
M  V30 7118 N 659.233 0.902656 -1.29189 0
M  V30 7119 C 660.458 1.69167 -1.19989 0
M  V30 7120 C 660.883 1.86607 0.236495 0
M  V30 7121 O 660.241 1.38425 1.17082 0
M  V30 7122 C 660.289 3.05532 -1.91527 0
M  V30 7123 O 659.393 3.93621 -1.2303 0
M  V30 7124 H 658.734 0.517584 -0.415936 0
M  V30 7125 H 661.264 1.12785 -1.70706 0
M  V30 7126 H 661.274 3.55693 -1.99866 0
M  V30 7127 H 659.949 2.92156 -2.96003 0
M  V30 7128 H 658.526 3.52055 -1.22928 0
M  V30 7129 N 660.711 1.11618 1.11262 0
M  V30 7130 C 661.988 0.777876 1.79467 0
M  V30 7131 C 662.368 -0.733774 1.97937 0
M  V30 7132 O 661.716 -1.66443 1.56554 0
M  V30 7133 C 661.926 1.5431 3.13032 0
M  V30 7134 C 663.274 1.72357 3.88044 0
M  V30 7135 O 664.298 1.5075 3.22727 0
M  V30 7136 O 663.157 2.08276 5.05256 0
M  V30 7137 H 660.251 0.282018 0.777428 0
M  V30 7138 H 662.797 1.21971 1.17988 0
M  V30 7139 H 661.569 2.57132 2.94956 0
M  V30 7140 H 661.192 1.09495 3.82226 0
M  V30 7141 N 662.189 -1.289 0.906776 0
M  V30 7142 C 663.119 -2.29932 0.406659 0
M  V30 7143 C 664.1 -1.6189 -0.522061 0
M  V30 7144 O 665.285 -1.8935 -0.431283 0
M  V30 7145 C 662.415 -3.45425 -0.360366 0
M  V30 7146 C 661.369 -4.25316 0.478574 0
M  V30 7147 C 660.695 -5.33076 -0.416373 0
M  V30 7148 C 661.995 -4.92739 1.7322 0
M  V30 7149 H 663.689 -2.72013 1.25097 0
M  V30 7150 H 661.235 -1.30768 0.602977 0
M  V30 7151 H 663.188 -4.15186 -0.721029 0
M  V30 7152 H 661.912 -3.02206 -1.23852 0
M  V30 7153 H 660.571 -3.57273 0.821662 0
M  V30 7154 H 660.219 -4.86101 -1.29287 0
M  V30 7155 H 659.919 -5.8743 0.141309 0
M  V30 7156 H 661.443 -6.05686 -0.773072 0
M  V30 7157 H 662.857 -5.54898 1.44086 0
M  V30 7158 H 661.254 -5.57057 2.23175 0
M  V30 7159 H 662.324 -4.17625 2.46408 0
M  V30 7160 N 663.667 -0.670007 -1.42649 0
M  V30 7161 C 664.915 -0.18991 -2.01206 0
M  V30 7162 C 665.236 1.20617 -1.53221 0
M  V30 7163 O 664.506 1.80898 -0.751856 0
M  V30 7164 H 663.086 -0.0672189 -0.743969 0
M  V30 7165 H 665.748 -0.865442 -1.74631 0
M  V30 7166 H 664.844 -0.187481 -3.11536 0
M  V30 7167 N 665.145 1.52092 -0.413018 0
M  V30 7168 C 666.556 1.86617 0.0556967 0
M  V30 7169 C 666.907 1.33156 1.44097 0
M  V30 7170 O 666.032 0.672417 2.05688 0
M  V30 7171 C 666.627 3.38628 0.107844 0
M  V30 7172 C 665.186 3.72778 0.520904 0
M  V30 7173 C 664.333 2.75649 -0.302109 0
M  V30 7174 H 667.284 1.45663 -0.629919 0
M  V30 7175 H 667.305 3.69152 0.922324 0
M  V30 7176 H 666.817 3.77508 -0.900506 0
M  V30 7177 H 664.918 3.39478 1.53575 0
M  V30 7178 H 665.031 4.7838 0.262591 0
M  V30 7179 H 663.395 2.53603 0.236115 0
M  V30 7180 H 664.178 3.17369 -1.30888 0
M  V30 7181 N 666.623 0.143563 1.56945 0
M  V30 7182 C 667.571 -0.814556 2.17871 0
M  V30 7183 C 668.565 -1.25778 1.13474 0
M  V30 7184 O 669.771 -1.22666 1.31731 0
M  V30 7185 H 666.146 -0.280873 0.697578 0
M  V30 7186 H 668.117 -0.276459 2.97117 0
M  V30 7187 C 666.866 -2.04503 2.81201 0
M  V30 7188 H 666.189 -1.71296 3.61245 0
M  V30 7189 H 667.629 -2.69493 3.27337 0
M  V30 7190 C 666.088 -2.85079 1.79532 0
M  V30 7191 O 666.618 -3.81306 1.26368 0
M  V30 7192 N 664.824 -2.49546 1.48913 0
M  V30 7193 H 664.371 -1.71359 1.92338 0
M  V30 7194 H 664.329 -3.03751 0.811348 0
M  V30 7195 N 668.101 -1.57061 -0.130224 0
M  V30 7196 C 669.349 -1.83893 -0.838313 0
M  V30 7197 C 669.67 -0.727046 -1.80939 0
M  V30 7198 O 668.94 0.249927 -1.94299 0
M  V30 7199 H 667.52 -0.67846 -0.312573 0
M  V30 7200 H 670.182 -1.94529 -0.120224 0
M  V30 7201 H 669.278 -2.79419 -1.39038 0
M  V30 7202 N 669.579 0.400081 -1.52437 0
M  V30 7203 C 670.529 1.48734 -1.72807 0
M  V30 7204 C 671.513 1.50004 -0.582032 0
M  V30 7205 O 672.705 1.55828 -0.839449 0
M  V30 7206 C 669.834 2.86568 -1.89034 0
M  V30 7207 C 668.92 2.8991 -3.09537 0
M  V30 7208 N 669.311 2.62937 -4.32086 0
M  V30 7209 C 667.609 3.21078 -3.09556 0
M  V30 7210 C 668.31 2.73079 -5.13617 0
M  V30 7211 N 667.286 3.06342 -4.49061 0
M  V30 7212 H 671.088 1.26689 -2.65193 0
M  V30 7213 H 668.602 0.607902 -1.50593 0
M  V30 7214 H 670.599 3.64834 -2.01746 0
M  V30 7215 H 669.259 3.09604 -0.978547 0
M  V30 7216 H 670.27 2.37163 -4.60406 0
M  V30 7217 H 666.947 3.49651 -2.28146 0
M  V30 7218 H 668.337 2.55863 -6.21276 0
M  V30 7219 N 671.057 1.43213 0.657864 0
M  V30 7220 C 672.305 1.44298 1.41501 0
M  V30 7221 C 672.626 0.0666478 1.94886 0
M  V30 7222 O 671.896 -0.897345 1.74139 0
M  V30 7223 H 670.476 0.531257 0.525143 0
M  V30 7224 H 673.138 1.78777 0.776195 0
M  V30 7225 H 672.234 2.1528 2.25966 0
M  V30 7226 N 672.536 -0.895792 1.29666 0
M  V30 7227 C 673.766 -1.67757 1.20586 0
M  V30 7228 C 674.174 -1.87729 -0.235432 0
M  V30 7229 O 673.517 -1.41706 -1.16898 0
M  V30 7230 C 673.579 -3.08117 1.85215 0
M  V30 7231 C 673.243 -3.1136 3.3452 0
M  V30 7232 C 674.24 -2.91217 4.30684 0
M  V30 7233 C 671.925 -3.33302 3.75786 0
M  V30 7234 C 673.919 -2.92955 5.66089 0
M  V30 7235 C 671.606 -3.3467 5.11311 0
M  V30 7236 C 672.604 -3.14519 6.06273 0
M  V30 7237 O 672.292 -3.15684 7.39323 0
M  V30 7238 H 672.024 -0.530601 0.418854 0
M  V30 7239 H 674.578 -1.12831 1.71634 0
M  V30 7240 H 672.808 -3.64661 1.28683 0
M  V30 7241 H 674.497 -3.68399 1.70403 0
M  V30 7242 H 675.263 -2.74074 4.00136 0
M  V30 7243 H 671.142 -3.48025 3.02324 0
M  V30 7244 H 674.686 -2.77145 6.40185 0
M  V30 7245 H 670.583 -3.51346 5.41504 0
M  V30 7246 H 671.351 -3.31924 7.48177 0
M  V30 7247 N 674.014 -1.12206 -1.10668 0
M  V30 7248 C 675.43 -0.857619 -1.346 0
M  V30 7249 C 675.63 0.513542 -1.94846 0
M  V30 7250 O 674.686 1.26273 -2.18658 0
M  V30 7251 C 675.999 -1.97212 -2.26998 0
M  V30 7252 C 677.547 -2.00272 -2.40542 0
M  V30 7253 C 678.022 -3.10948 -3.36267 0
M  V30 7254 N 679.513 -3.10375 -3.43834 0
M  V30 7255 C 680.248 -3.92651 -4.17867 0
M  V30 7256 N 679.744 -4.84911 -4.94807 0
M  V30 7257 N 681.537 -3.80798 -4.1346 0
M  V30 7258 H 673.688 -2.00558 -0.699306 0
M  V30 7259 H 675.951 -0.872612 -0.370477 0
M  V30 7260 H 675.657 -2.96002 -1.89936 0
M  V30 7261 H 675.531 -1.87521 -3.27286 0
M  V30 7262 H 677.918 -1.02103 -2.76874 0
M  V30 7263 H 677.999 -2.14037 -1.40077 0
M  V30 7264 H 677.643 -4.09348 -3.00661 0
M  V30 7265 H 677.573 -2.94421 -4.36605 0
M  V30 7266 H 680.064 -2.43536 -2.88961 0
M  V30 7267 H 680.377 -5.44207 -5.48688 0
M  V30 7268 H 678.722 -4.88926 -4.93939 0
M  V30 7269 H 681.913 -3.08058 -3.52445 0
M  V30 7270 H 682.086 -4.4515 -4.70898 0
M  V30 7271 N 675.492 1.28418 -0.913599 0
M  V30 7272 C 676.908 1.47411 -0.611728 0
M  V30 7273 C 677.108 1.83018 0.843008 0
M  V30 7274 O 676.164 1.93505 1.6221 0
M  V30 7275 C 677.477 2.57703 -1.5495 0
M  V30 7276 C 679.025 2.71572 -1.5562 0
M  V30 7277 C 679.5 3.85008 -2.48058 0
M  V30 7278 N 680.991 3.92361 -2.46184 0
M  V30 7279 C 681.726 4.79516 -3.14407 0
M  V30 7280 N 681.222 5.71262 -3.91958 0
M  V30 7281 N 683.015 4.73125 -3.03495 0
M  V30 7282 H 675.166 1.03585 -1.85429 0
M  V30 7283 H 677.429 0.515907 -0.795326 0
M  V30 7284 H 677.135 2.38298 -2.58663 0
M  V30 7285 H 677.009 3.54801 -1.28048 0
M  V30 7286 H 679.396 2.90366 -0.526441 0
M  V30 7287 H 679.477 1.75006 -1.86565 0
M  V30 7288 H 679.121 3.66969 -3.51136 0
M  V30 7289 H 679.051 4.80971 -2.14416 0
M  V30 7290 H 681.542 3.26749 -1.89851 0
M  V30 7291 H 681.855 6.34593 -4.41034 0
M  V30 7292 H 680.2 5.71103 -3.96063 0
M  V30 7293 H 683.391 4.00442 -2.42413 0
M  V30 7294 H 683.564 5.40834 -3.56935 0
M  V30 7295 N 676.97 0.677563 1.42291 0
M  V30 7296 C 677.88 0.000962654 2.346 0
M  V30 7297 C 678.896 -0.785833 1.55244 0
M  V30 7298 O 680.072 -0.727523 1.87801 0
M  V30 7299 C 677.137 -0.936746 3.33805 0
M  V30 7300 C 676.198 -0.144173 4.29058 0
M  V30 7301 C 675.431 -1.03722 5.23524 0
M  V30 7302 O 675.654 -2.27675 5.22992 0
M  V30 7303 O 674.588 -0.496542 5.99848 0
M  V30 7304 H 678.414 0.761397 2.94001 0
M  V30 7305 H 675.999 0.43781 1.42841 0
M  V30 7306 H 677.881 -1.47497 3.94744 0
M  V30 7307 H 676.556 -1.67698 2.76874 0
M  V30 7308 H 675.463 0.438224 3.71524 0
M  V30 7309 H 676.796 0.55701 4.89038 0
M  V30 7310 N 678.448 -1.51871 0.421078 0
M  V30 7311 C 679.358 -2.31077 -0.405069 0
M  V30 7312 C 680.374 -1.39301 -1.04265 0
M  V30 7313 O 681.55 -1.72376 -1.04157 0
M  V30 7314 C 678.615 -3.12556 -1.50032 0
M  V30 7315 C 677.676 -4.20088 -0.884559 0
M  V30 7316 C 676.909 -4.97673 -1.92762 0
M  V30 7317 O 677.132 -4.75696 -3.14753 0
M  V30 7318 O 676.066 -5.82203 -1.52719 0
M  V30 7319 H 679.892 -3.02742 0.241086 0
M  V30 7320 H 677.477 -1.48263 0.183991 0
M  V30 7321 H 679.359 -3.6326 -2.13589 0
M  V30 7322 H 678.034 -2.43672 -2.13086 0
M  V30 7323 H 676.941 -3.73502 -0.211379 0
M  V30 7324 H 678.274 -4.91298 -0.297763 0
M  V30 7325 N 679.926 -0.151884 -1.56866 0
M  V30 7326 C 681.151 0.508044 -2.01081 0
M  V30 7327 C 681.576 1.57306 -1.03134 0
M  V30 7328 O 680.934 1.81298 -0.0078309 0
M  V30 7329 C 680.982 1.08106 -3.44014 0
M  V30 7330 O 680.086 2.19577 -3.49084 0
M  V30 7331 H 679.427 0.123757 -0.652365 0
M  V30 7332 H 681.957 -0.250055 -2.03066 0
M  V30 7333 H 681.967 1.40851 -3.82916 0
M  V30 7334 H 680.642 0.301168 -4.14808 0
M  V30 7335 H 679.219 1.88023 -3.22027 0
M  V30 7336 N 681.404 1.57128 0.121893 0
M  V30 7337 C 682.337 1.95327 1.17995 0
M  V30 7338 C 683.315 0.822524 1.40262 0
M  V30 7339 O 684.499 1.08044 1.54463 0
M  V30 7340 C 681.626 2.24699 2.53432 0
M  V30 7341 C 680.672 3.47263 2.4761 0
M  V30 7342 S 681.505 4.99951 1.91857 0
M  V30 7343 C 682.661 5.32473 3.28973 0
M  V30 7344 H 682.894 2.84765 0.854182 0
M  V30 7345 H 680.427 1.50864 0.328534 0
M  V30 7346 H 682.385 2.423 3.31362 0
M  V30 7347 H 681.046 1.3588 2.83188 0
M  V30 7348 H 680.239 3.65171 3.4737 0
M  V30 7349 H 679.841 3.29034 1.778 0
M  V30 7350 H 682.133 5.27478 4.25175 0
M  V30 7351 H 683.076 6.33732 3.15895 0
M  V30 7352 H 683.484 4.59952 3.27268 0
M  V30 7353 N 682.882 -0.391992 1.52647 0
M  V30 7354 C 684.159 -1.15136 1.58123 0
M  V30 7355 C 684.539 -2.07786 0.372597 0
M  V30 7356 O 683.887 -2.19374 -0.639304 0
M  V30 7357 C 684.097 -1.91367 2.91856 0
M  V30 7358 C 685.445 -2.46833 3.45483 0
M  V30 7359 O 686.469 -2.01527 2.9371 0
M  V30 7360 O 685.328 -3.29587 4.3593 0
M  V30 7361 H 682.422 -0.526649 0.637629 0
M  V30 7362 H 684.968 -0.397386 1.64982 0
M  V30 7363 H 683.74 -1.23597 3.71268 0
M  V30 7364 H 683.363 -2.73732 2.88369 0
M  V30 7365 N 684.36 -1.4356 -0.65026 0
M  V30 7366 C 685.609 -1.44619 -1.406 0
M  V30 7367 C 685.922 -0.0752645 -1.95455 0
M  V30 7368 O 687.128 0.0366832 -2.71475 0
M  V30 7369 C 685.584 -2.54511 -2.54465 0
M  V30 7370 C 685.192 -3.97723 -2.06204 0
M  V30 7371 C 686.936 -2.64768 -3.31811 0
M  V30 7372 C 684.843 -4.99075 -3.17298 0
M  V30 7373 H 683.773 -0.537983 -0.52829 0
M  V30 7374 H 686.424 -1.69559 -0.701561 0
M  V30 7375 H 684.806 -2.22777 -3.27393 0
M  V30 7376 H 685.98 -4.38932 -1.40267 0
M  V30 7377 H 684.295 -3.91538 -1.41729 0
M  V30 7378 H 686.892 -3.37664 -4.14593 0
M  V30 7379 H 687.235 -1.69936 -3.80036 0
M  V30 7380 H 687.768 -2.95817 -2.65964 0
M  V30 7381 H 684.507 -5.95469 -2.74038 0
M  V30 7382 H 684.027 -4.62476 -3.81937 0
M  V30 7383 H 685.706 -5.21913 -3.82382 0
M  V30 7384 N 685.838 0.888903 -1.30139 0
M  V30 7385 C 686.77 1.99972 -1.11999 0
M  V30 7386 C 687.783 1.62673 -0.0643619 0
M  V30 7387 O 688.972 1.75788 -0.309983 0
M  V30 7388 C 686.072 3.31904 -0.685059 0
M  V30 7389 C 685.245 3.97665 -1.82158 0
M  V30 7390 C 684.304 5.07894 -1.37585 0
M  V30 7391 O 683.33 5.2974 -2.08241 0
M  V30 7392 N 684.532 5.7995 -0.252697 0
M  V30 7393 H 687.297 2.16085 -2.07671 0
M  V30 7394 H 684.858 1.06175 -1.22223 0
M  V30 7395 H 686.85 4.03005 -0.369964 0
M  V30 7396 H 685.42 3.12084 0.179507 0
M  V30 7397 H 684.64 3.19787 -2.305 0
M  V30 7398 H 685.928 4.3834 -2.58332 0
M  V30 7399 H 685.326 5.647 0.336141 0
M  V30 7400 H 683.883 6.518 0.00296813 0
M  V30 7401 N 687.317 1.12792 1.10072 0
M  V30 7402 C 688.728 0.899346 1.63611 0
M  V30 7403 C 689.079 -0.565547 1.87872 0
M  V30 7404 O 688.204 -1.43081 1.62348 0
M  V30 7405 C 688.799 1.62608 2.97227 0
M  V30 7406 C 687.358 1.44356 3.47618 0
M  V30 7407 C 686.505 1.65958 2.22156 0
M  V30 7408 H 689.456 1.28216 0.935223 0
M  V30 7409 H 689.477 1.0793 3.64872 0
M  V30 7410 H 688.989 2.69221 2.79538 0
M  V30 7411 H 687.09 0.400148 3.70445 0
M  V30 7412 H 687.203 2.20218 4.25489 0
M  V30 7413 H 685.567 1.08395 2.30484 0
M  V30 7414 H 686.35 2.73877 2.06993 0
M  V30 7415 N 688.795 -1.27931 0.920396 0
M  V30 7416 C 689.758 -2.25345 0.41858 0
M  V30 7417 C 690.758 -1.54116 -0.458798 0
M  V30 7418 O 691.948 -1.72235 -0.260912 0
M  V30 7419 C 689.08 -3.38556 -0.399104 0
M  V30 7420 H 690.273 -2.71251 1.27918 0
M  V30 7421 H 687.826 -1.39728 0.700406 0
M  V30 7422 H 688.561 -2.98021 -1.27882 0
M  V30 7423 H 688.346 -3.91426 0.229863 0
M  V30 7424 H 689.836 -4.10976 -0.740817 0
M  V30 7425 N 690.273 -0.685099 -1.4193 0
M  V30 7426 C 691.236 -0.0222632 -2.29189 0
M  V30 7427 C 692.236 0.7186 -1.4385 0
M  V30 7428 O 693.426 0.555058 -1.6512 0
M  V30 7429 C 690.558 0.979013 -3.2654 0
M  V30 7430 H 691.751 -0.790424 -2.89296 0
M  V30 7431 H 689.304 -0.448012 -1.49742 0
M  V30 7432 H 690.039 1.77531 -2.71392 0
M  V30 7433 H 689.824 0.451037 -3.89497 0
M  V30 7434 H 691.314 1.44091 -3.91954 0
M  V30 7435 N 691.751 1.51645 -0.429126 0
M  V30 7436 C 692.661 2.31288 0.392809 0
M  V30 7437 C 693.677 1.39852 1.03525 0
M  V30 7438 O 694.853 1.72926 1.03241 0
M  V30 7439 C 691.918 3.13347 1.48372 0
M  V30 7440 C 690.979 4.20551 0.862268 0
M  V30 7441 C 690.212 4.98688 1.9012 0
M  V30 7442 O 690.435 4.77359 3.12225 0
M  V30 7443 O 689.369 5.83005 1.4963 0
M  V30 7444 H 693.195 3.02609 -0.257138 0
M  V30 7445 H 690.78 1.48163 -0.191851 0
M  V30 7446 H 692.662 3.64387 2.1166 0
M  V30 7447 H 691.337 2.44799 2.1179 0
M  V30 7448 H 690.244 3.73609 0.191568 0
M  V30 7449 H 691.577 4.91449 0.271704 0
M  V30 7450 N 693.229 0.160201 1.56784 0
M  V30 7451 C 694.645 -0.196089 1.58391 0
M  V30 7452 C 694.845 -1.63689 1.17508 0
M  V30 7453 O 693.901 -2.36613 0.881506 0
M  V30 7454 C 695.214 0.0746449 3.00607 0
M  V30 7455 C 696.762 0.0119762 3.12998 0
M  V30 7456 C 697.237 0.255551 4.57286 0
M  V30 7457 N 698.728 0.202938 4.62755 0
M  V30 7458 C 699.463 0.365731 5.72232 0
M  V30 7459 N 698.959 0.586972 6.90309 0
M  V30 7460 N 700.752 0.302411 5.61286 0
M  V30 7461 H 692.903 1.1008 1.81648 0
M  V30 7462 H 695.166 0.436779 0.841384 0
M  V30 7463 H 694.872 1.07231 3.34954 0
M  V30 7464 H 694.746 -0.638802 3.71751 0
M  V30 7465 H 697.133 -0.976254 2.78484 0
M  V30 7466 H 697.214 0.75796 2.44313 0
M  V30 7467 H 696.858 1.24094 4.92507 0
M  V30 7468 H 696.788 -0.510912 5.24116 0
M  V30 7469 H 699.279 0.0371328 3.77882 0
M  V30 7470 H 699.592 0.700941 7.69615 0
M  V30 7471 H 697.937 0.623453 6.92198 0
M  V30 7472 H 701.128 0.130238 4.67919 0
M  V30 7473 H 701.301 0.432712 6.46554 0
M  V30 7474 N 694.707 -1.5719 -0.113559 0
M  V30 7475 C 695.954 -1.85138 -0.820382 0
M  V30 7476 C 696.282 -0.74608 -1.79622 0
M  V30 7477 O 695.537 0.262077 -1.93937 0
M  V30 7478 C 695.836 -3.19593 -1.59984 0
M  V30 7479 C 695.502 -4.44315 -0.767809 0
M  V30 7480 C 694.164 -4.78179 -0.538379 0
M  V30 7481 C 696.516 -5.2086 -0.188203 0
M  V30 7482 C 693.844 -5.86028 0.28082 0
M  V30 7483 C 696.196 -6.29572 0.618217 0
M  V30 7484 C 694.86 -6.61964 0.857912 0
M  V30 7485 H 694.13 -0.677467 -0.300199 0
M  V30 7486 H 696.777 -1.91322 -0.0825443 0
M  V30 7487 H 695.082 -3.0901 -2.40874 0
M  V30 7488 H 696.779 -3.3844 -2.1508 0
M  V30 7489 H 693.369 -4.17786 -0.956724 0
M  V30 7490 H 697.553 -4.95045 -0.352658 0
M  V30 7491 H 692.809 -6.09547 0.475693 0
M  V30 7492 H 696.983 -6.88064 1.0743 0
M  V30 7493 H 694.61 -7.45365 1.49451 0
M  V30 7494 N 696.185 0.383891 -1.52853 0
M  V30 7495 C 697.115 1.47559 -1.80965 0
M  V30 7496 C 698.096 1.5669 -0.661986 0
M  V30 7497 O 699.281 1.71556 -0.910072 0
M  V30 7498 C 696.411 2.85114 -1.98312 0
M  V30 7499 C 695.365 2.9082 -3.14019 0
M  V30 7500 C 694.691 4.30873 -3.16627 0
M  V30 7501 C 695.991 2.60001 -4.52986 0
M  V30 7502 H 697.685 1.24283 -2.72386 0
M  V30 7503 H 695.231 0.596445 -1.31067 0
M  V30 7504 H 697.184 3.61496 -2.16561 0
M  V30 7505 H 695.908 3.09738 -1.03585 0
M  V30 7506 H 694.567 2.16886 -2.9556 0
M  V30 7507 H 694.215 4.52545 -2.19573 0
M  V30 7508 H 693.915 4.3561 -3.94357 0
M  V30 7509 H 695.439 5.09154 -3.37038 0
M  V30 7510 H 696.853 3.261 -4.71521 0
M  V30 7511 H 695.25 2.76081 -5.32822 0
M  V30 7512 H 696.32 1.5532 -4.59351 0
M  V30 7513 N 697.663 1.43903 0.642637 0
M  V30 7514 C 698.61 1.49881 1.75512 0
M  V30 7515 C 699.58 0.347538 1.62423 0
M  V30 7516 O 700.765 0.556177 1.82514 0
M  V30 7517 C 697.905 1.43797 3.13714 0
M  V30 7518 C 697.018 2.6921 3.37861 0
M  V30 7519 C 696.153 2.5504 4.6597 0
M  V30 7520 C 695.192 3.75671 4.83257 0
M  V30 7521 N 694.329 3.60247 6.02633 0
M  V30 7522 H 699.169 2.44935 1.69737 0
M  V30 7523 H 696.706 1.21572 0.828165 0
M  V30 7524 H 698.664 1.38262 3.93624 0
M  V30 7525 H 697.294 0.523173 3.18532 0
M  V30 7526 H 696.346 2.8498 2.51973 0
M  V30 7527 H 697.658 3.58786 3.46517 0
M  V30 7528 H 696.812 2.47273 5.54023 0
M  V30 7529 H 695.551 1.63006 4.59653 0
M  V30 7530 H 694.556 3.83836 3.93637 0
M  V30 7531 H 695.781 4.68728 4.91397 0
M  V30 7532 H 693.727 2.70955 5.97427 0
M  V30 7533 H 693.644 4.43431 6.12295 0
M  V30 7534 H 694.912 3.56351 6.93278 0
M  V30 7535 N 699.141 -0.881989 1.30609 0
M  V30 7536 C 700.104 -1.96957 1.1722 0
M  V30 7537 C 701.104 -1.60472 0.102598 0
M  V30 7538 O 702.294 -1.70628 0.350943 0
M  V30 7539 C 699.426 -3.31463 0.796572 0
M  V30 7540 H 700.619 -2.10262 2.13846 0
M  V30 7541 H 698.172 -1.06877 1.14048 0
M  V30 7542 H 698.907 -3.23859 -0.169053 0
M  V30 7543 H 698.692 -3.59314 1.56959 0
M  V30 7544 H 700.182 -4.11233 0.72645 0
M  V30 7545 N 700.619 -1.13374 -1.09472 0
M  V30 7546 C 701.866 -0.89519 -1.81639 0
M  V30 7547 C 702.194 0.57868 -1.85692 0
M  V30 7548 O 701.449 1.44426 -1.32059 0
M  V30 7549 C 701.748 -1.42759 -3.2765 0
M  V30 7550 C 701.414 -2.91822 -3.43731 0
M  V30 7551 C 700.076 -3.32521 -3.47827 0
M  V30 7552 C 702.428 -3.87727 -3.48307 0
M  V30 7553 C 699.756 -4.6781 -3.54078 0
M  V30 7554 C 702.108 -5.22859 -3.56091 0
M  V30 7555 C 700.772 -5.63086 -3.58456 0
M  V30 7556 H 700.042 -0.327573 -0.664663 0
M  V30 7557 H 702.689 -1.4156 -1.28969 0
M  V30 7558 H 700.994 -0.827871 -3.82954 0
M  V30 7559 H 702.691 -1.2191 -3.8202 0
M  V30 7560 H 699.281 -2.5935 -3.41226 0
M  V30 7561 H 703.465 -3.57371 -3.44383 0
M  V30 7562 H 698.721 -4.98353 -3.54195 0
M  V30 7563 H 702.895 -5.96989 -3.58577 0
M  V30 7564 H 700.522 -6.67905 -3.63052 0
M  V30 7565 N 702.098 1.27442 -0.927168 0
M  V30 7566 C 703.045 2.26863 -0.424459 0
M  V30 7567 C 704.015 1.5813 0.508346 0
M  V30 7568 O 705.2 1.85946 0.42762 0
M  V30 7569 C 702.34 3.43639 0.31718 0
M  V30 7570 C 701.453 4.27087 -0.649675 0
M  V30 7571 C 700.588 5.31082 0.111753 0
M  V30 7572 C 699.627 6.062 -0.847843 0
M  V30 7573 N 698.764 7.01999 -0.119074 0
M  V30 7574 H 703.604 2.69239 -1.27728 0
M  V30 7575 H 701.141 1.32394 -0.641106 0
M  V30 7576 H 703.099 4.10155 0.763486 0
M  V30 7577 H 701.729 3.02217 1.13424 0
M  V30 7578 H 700.781 3.60491 -1.21451 0
M  V30 7579 H 702.093 4.79242 -1.38307 0
M  V30 7580 H 701.247 6.03544 0.618 0
M  V30 7581 H 699.986 4.7973 0.878114 0
M  V30 7582 H 698.991 5.32577 -1.36534 0
M  V30 7583 H 700.216 6.59642 -1.61398 0
M  V30 7584 H 698.162 6.52977 0.629051 0
M  V30 7585 H 698.079 7.5184 -0.792046 0
M  V30 7586 H 699.347 7.78638 0.366537 0
M  V30 7587 N 703.576 0.692616 1.41565 0
M  V30 7588 C 704.486 0.0258451 2.34586 0
M  V30 7589 C 705.502 -0.769324 1.56069 0
M  V30 7590 O 706.678 -0.707563 1.88562 0
M  V30 7591 C 703.743 -0.901289 3.3478 0
M  V30 7592 C 702.804 -0.0986579 4.29187 0
M  V30 7593 C 702.037 -0.981634 5.24595 0
M  V30 7594 O 702.26 -2.22115 5.25377 0
M  V30 7595 O 701.194 -0.432892 6.00341 0
M  V30 7596 H 705.02 0.792537 2.93177 0
M  V30 7597 H 702.605 0.452935 1.42369 0
M  V30 7598 H 704.487 -1.43302 3.96286 0
M  V30 7599 H 703.162 -1.64752 2.78637 0
M  V30 7600 H 702.069 0.477604 3.71039 0
M  V30 7601 H 703.402 0.608848 4.8842 0
M  V30 7602 N 705.054 -1.51416 0.437162 0
M  V30 7603 C 706.302 -2.01687 -0.129108 0
M  V30 7604 C 706.623 -1.32329 -1.43227 0
M  V30 7605 O 705.893 -0.457796 -1.90476 0
M  V30 7606 H 704.473 -0.745277 -0.0507023 0
M  V30 7607 H 707.135 -1.86075 0.579828 0
M  V30 7608 H 706.231 -3.10605 -0.305141 0
M  V30 7609 N 706.532 -0.168513 -1.56696 0
M  V30 7610 C 707.479 0.762875 -2.17828 0
M  V30 7611 C 708.449 1.22892 -1.11745 0
M  V30 7612 O 709.634 1.29759 -1.39883 0
M  V30 7613 C 706.774 1.9879 -2.82093 0
M  V30 7614 C 705.887 1.56568 -4.02629 0
M  V30 7615 C 705.022 2.74416 -4.54829 0
M  V30 7616 C 704.061 2.28671 -5.67782 0
M  V30 7617 N 703.198 3.39602 -6.14504 0
M  V30 7618 H 708.038 0.23479 -2.97074 0
M  V30 7619 H 705.575 0.104163 -1.46731 0
M  V30 7620 H 707.533 2.70636 -3.17509 0
M  V30 7621 H 706.163 2.48973 -2.05456 0
M  V30 7622 H 705.215 0.744067 -3.73052 0
M  V30 7623 H 706.527 1.18988 -4.844 0
M  V30 7624 H 705.681 3.54423 -4.92412 0
M  V30 7625 H 704.42 3.15254 -3.7211 0
M  V30 7626 H 703.425 1.4711 -5.29753 0
M  V30 7627 H 704.65 1.88894 -6.52301 0
M  V30 7628 H 702.596 3.80021 -5.34715 0
M  V30 7629 H 702.513 3.06105 -6.91257 0
M  V30 7630 H 703.781 4.19902 -6.56737 0
M  V30 7631 N 708.01 1.57248 0.105221 0
M  V30 7632 C 708.958 2.02337 1.14728 0
M  V30 7633 C 709.952 0.922652 1.42069 0
M  V30 7634 O 711.158 1.10785 1.41869 0
M  V30 7635 H 707.533 0.644682 0.387155 0
M  V30 7636 H 709.504 2.89063 0.740607 0
M  V30 7637 C 708.253 2.45513 2.46209 0
M  V30 7638 H 707.576 3.29785 2.26013 0
M  V30 7639 H 709.016 2.80846 3.1765 0
M  V30 7640 C 707.475 1.3243 3.09781 0
M  V30 7641 O 708.005 0.647841 3.96442 0
M  V30 7642 N 706.211 1.07785 2.69872 0
M  V30 7643 H 705.758 1.62973 1.99493 0
M  V30 7644 H 705.716 0.323204 3.12734 0
M  V30 7645 N 709.488 -0.375779 1.53054 0
M  V30 7646 C 710.718 -1.1387 1.72386 0
M  V30 7647 C 711.126 -1.8382 0.447966 0
M  V30 7648 O 710.469 -1.74027 -0.588244 0
M  V30 7649 C 710.531 -2.22047 2.82728 0
M  V30 7650 C 710.195 -1.71951 4.23417 0
M  V30 7651 C 711.192 -1.18909 5.06119 0
M  V30 7652 C 708.877 -1.77773 4.69789 0
M  V30 7653 C 710.871 -0.723529 6.3328 0
M  V30 7654 C 708.558 -1.30829 5.96931 0
M  V30 7655 C 709.556 -0.782077 6.78508 0
M  V30 7656 O 709.244 -0.319529 8.03265 0
M  V30 7657 H 708.976 -0.346835 0.580242 0
M  V30 7658 H 711.53 -0.443748 2.00549 0
M  V30 7659 H 709.76 -2.95006 2.50017 0
M  V30 7660 H 711.449 -2.83654 2.90336 0
M  V30 7661 H 712.215 -1.13758 4.7147 0
M  V30 7662 H 708.094 -2.17673 4.06373 0
M  V30 7663 H 711.638 -0.312126 6.96901 0
M  V30 7664 H 707.535 -1.3567 6.31081 0
M  V30 7665 H 708.303 -0.439796 8.17318 0
M  V30 7666 N 710.966 -1.44241 -0.634997 0
M  V30 7667 C 712.243 -1.37296 -1.39317 0
M  V30 7668 C 712.623 -0.0297532 -2.11079 0
M  V30 7669 O 711.971 0.987524 -2.06059 0
M  V30 7670 C 712.181 -2.56853 -2.36279 0
M  V30 7671 C 713.529 -3.00747 -2.99728 0
M  V30 7672 O 714.553 -2.5703 -2.46605 0
M  V30 7673 O 713.412 -3.76533 -3.96087 0
M  V30 7674 H 710.506 -0.543503 -0.623325 0
M  V30 7675 H 713.052 -1.56324 -0.660376 0
M  V30 7676 H 711.824 -3.46228 -1.82324 0
M  V30 7677 H 711.447 -2.40019 -3.16981 0
M  V30 7678 N 712.444 0.87505 -1.31075 0
M  V30 7679 C 713.391 1.98178 -1.18296 0
M  V30 7680 C 714.361 1.65952 -0.0699923 0
M  V30 7681 O 715.546 1.8926 -0.241951 0
M  V30 7682 C 712.686 3.33399 -0.891024 0
M  V30 7683 C 711.799 3.78253 -2.08684 0
M  V30 7684 C 710.934 5.02166 -1.73212 0
M  V30 7685 C 709.973 5.39455 -2.89231 0
M  V30 7686 N 709.11 6.54549 -2.53989 0
M  V30 7687 H 713.95 2.0844 -2.12971 0
M  V30 7688 H 711.487 1.02047 -1.05948 0
M  V30 7689 H 713.445 4.11246 -0.702338 0
M  V30 7690 H 712.075 3.22794 0.0188799 0
M  V30 7691 H 711.127 2.9623 -2.38646 0
M  V30 7692 H 712.439 4.01821 -2.95536 0
M  V30 7693 H 711.593 5.87666 -1.50777 0
M  V30 7694 H 710.332 4.80491 -0.83544 0
M  V30 7695 H 709.337 4.52477 -3.12321 0
M  V30 7696 H 710.562 5.63098 -3.79601 0
M  V30 7697 H 708.508 6.3443 -1.66838 0
M  V30 7698 H 708.425 6.78035 -3.34372 0
M  V30 7699 H 709.693 7.43254 -2.34934 0
M  V30 7700 N 713.922 1.13953 1.08869 0
M  V30 7701 C 714.885 0.824991 2.13838 0
M  V30 7702 C 715.885 -0.168198 1.59918 0
M  V30 7703 O 717.075 0.0595778 1.74098 0
M  V30 7704 C 714.207 0.228938 3.4013 0
M  V30 7705 H 715.4 1.75521 2.43171 0
M  V30 7706 H 712.953 0.94492 1.24503 0
M  V30 7707 H 713.688 -0.710227 3.16427 0
M  V30 7708 H 713.473 0.944243 3.80561 0
M  V30 7709 H 714.963 0.0259223 4.17592 0
M  V30 7710 N 715.4 -1.26948 0.933913 0
M  V30 7711 C 716.677 -1.89212 0.495784 0
M  V30 7712 C 717.057 -1.84469 -1.02637 0
M  V30 7713 O 716.405 -1.29409 -1.88323 0
M  V30 7714 C 716.615 -3.32865 1.0489 0
M  V30 7715 C 717.963 -4.09749 1.11315 0
M  V30 7716 O 718.987 -3.41905 0.998966 0
M  V30 7717 O 717.846 -5.31061 1.28983 0
M  V30 7718 H 714.94 -0.811284 0.160459 0
M  V30 7719 H 717.486 -1.35171 1.02601 0
M  V30 7720 H 716.258 -3.30642 2.09265 0
M  V30 7721 H 715.881 -3.94435 0.500692 0
M  V30 7722 N 716.879 -0.700114 -1.41195 0
M  V30 7723 C 718.126 -0.233006 -2.01155 0
M  V30 7724 C 718.454 1.16883 -1.55462 0
M  V30 7725 O 717.709 1.80395 -0.758695 0
M  V30 7726 C 718.008 -0.243986 -3.56566 0
M  V30 7727 C 717.674 -1.59397 -4.21786 0
M  V30 7728 C 716.336 -1.96355 -4.39316 0
M  V30 7729 C 718.688 -2.48192 -4.58312 0
M  V30 7730 C 716.016 -3.21683 -4.9065 0
M  V30 7731 C 718.368 -3.72857 -5.11039 0
M  V30 7732 C 717.032 -4.09951 -5.26779 0
M  V30 7733 H 716.302 -0.085263 -0.736078 0
M  V30 7734 H 718.949 -0.9001 -1.69028 0
M  V30 7735 H 717.254 0.506663 -3.8851 0
M  V30 7736 H 718.951 0.135031 -4.00773 0
M  V30 7737 H 715.541 -1.29654 -4.08519 0
M  V30 7738 H 719.725 -2.20918 -4.4442 0
M  V30 7739 H 714.981 -3.50412 -5.01021 0
M  V30 7740 H 719.155 -4.41844 -5.38282 0
M  V30 7741 H 716.782 -5.07136 -5.66319 0
M  V30 7742 N 718.357 1.51182 -0.445186 0
M  V30 7743 C 719.267 2.31692 0.368255 0
M  V30 7744 C 720.283 1.40942 1.02036 0
M  V30 7745 O 721.459 1.74011 1.01401 0
M  V30 7746 C 718.524 3.14903 1.45041 0
M  V30 7747 C 717.585 4.21442 0.817615 0
M  V30 7748 C 716.818 5.00677 1.8482 0
M  V30 7749 O 717.041 4.80644 3.07145 0
M  V30 7750 O 715.975 5.84559 1.43438 0
M  V30 7751 H 719.801 3.0232 -0.289219 0
M  V30 7752 H 717.386 1.47951 -0.207555 0
M  V30 7753 H 719.268 3.66612 2.07783 0
M  V30 7754 H 717.943 2.47031 2.09182 0
M  V30 7755 H 716.85 3.73791 0.151931 0
M  V30 7756 H 718.183 4.9171 0.219564 0
M  V30 7757 N 719.835 0.176821 1.56605 0
M  V30 7758 C 721.063 -0.472828 2.01425 0
M  V30 7759 C 721.478 -1.56436 1.05703 0
M  V30 7760 O 720.835 -1.82405 0.058808 0
M  V30 7761 C 720.886 -1.04607 3.46034 0
M  V30 7762 O 720.607 0.00189608 4.381 0
M  V30 7763 C 722.108 -1.7734 4.06282 0
M  V30 7764 H 719.328 -0.120503 0.660091 0
M  V30 7765 H 721.872 0.280166 2.02572 0
M  V30 7766 H 720.027 -1.74953 3.45645 0
M  V30 7767 H 720.441 -0.422118 5.22799 0
M  V30 7768 H 721.915 -2.12703 5.09374 0
M  V30 7769 H 722.392 -2.67043 3.4869 0
M  V30 7770 H 722.998 -1.11623 4.10391 0
M  V30 7771 N 721.313 -1.57302 -0.09688 0
M  V30 7772 C 722.243 -2.0497 -1.11846 0
M  V30 7773 C 723.224 -0.938278 -1.41882 0
M  V30 7774 O 724.409 -1.20943 -1.51942 0
M  V30 7775 C 721.539 -2.47264 -2.43881 0
M  V30 7776 C 720.493 -3.62053 -2.28257 0
M  V30 7777 C 719.819 -3.90318 -3.65453 0
M  V30 7778 C 721.119 -4.93005 -1.72461 0
M  V30 7779 H 722.813 -2.90567 -0.721888 0
M  V30 7780 H 720.359 -1.39786 -0.345803 0
M  V30 7781 H 722.312 -2.7922 -3.15617 0
M  V30 7782 H 721.036 -1.58664 -2.8547 0
M  V30 7783 H 719.695 -3.30341 -1.58967 0
M  V30 7784 H 719.343 -2.98889 -4.04567 0
M  V30 7785 H 719.043 -4.67597 -3.55846 0
M  V30 7786 H 720.567 -4.24747 -4.3866 0
M  V30 7787 H 721.981 -5.23354 -2.34036 0
M  V30 7788 H 720.378 -5.74436 -1.73618 0
M  V30 7789 H 721.448 -4.80053 -0.683898 0
M  V30 7790 N 722.791 0.367657 -1.53252 0
M  V30 7791 C 723.723 1.47032 -1.75824 0
M  V30 7792 C 724.736 1.49736 -0.63898 0
M  V30 7793 O 725.925 1.53253 -0.915193 0
M  V30 7794 C 723.025 2.85805 -1.82122 0
M  V30 7795 C 722.198 3.06822 -3.11736 0
M  V30 7796 C 721.257 4.25698 -3.09302 0
M  V30 7797 O 720.283 4.20972 -3.83107 0
M  V30 7798 N 721.485 5.33002 -2.29977 0
M  V30 7799 H 724.25 1.28048 -2.70968 0
M  V30 7800 H 721.811 0.557363 -1.52004 0
M  V30 7801 H 723.803 3.63465 -1.77975 0
M  V30 7802 H 722.373 2.98046 -0.942716 0
M  V30 7803 H 721.593 2.1684 -3.29202 0
M  V30 7804 H 722.881 3.17731 -3.97397 0
M  V30 7805 H 722.279 5.39703 -1.69521 0
M  V30 7806 H 720.836 6.09247 -2.3165 0
M  V30 7807 N 724.269 1.44576 0.627338 0
M  V30 7808 C 725.499 1.50829 1.41189 0
M  V30 7809 C 725.907 0.133083 1.88731 0
M  V30 7810 O 725.25 -0.87199 1.61685 0
M  V30 7811 C 725.312 2.41449 2.66351 0
M  V30 7812 C 724.976 3.88549 2.40579 0
M  V30 7813 C 725.973 4.78981 2.0217 0
M  V30 7814 C 723.658 4.33287 2.54102 0
M  V30 7815 C 725.652 6.12153 1.77618 0
M  V30 7816 C 723.339 5.66505 2.29163 0
M  V30 7817 C 724.337 6.55756 1.9098 0
M  V30 7818 O 724.025 7.86506 1.66321 0
M  V30 7819 H 723.757 0.513797 0.439304 0
M  V30 7820 H 726.311 1.90256 0.774059 0
M  V30 7821 H 724.541 1.96955 3.32784 0
M  V30 7822 H 726.23 2.38608 3.28361 0
M  V30 7823 H 726.996 4.45689 1.91277 0
M  V30 7824 H 722.875 3.64074 2.82792 0
M  V30 7825 H 726.419 6.81776 1.47739 0
M  V30 7826 H 722.316 5.99358 2.39668 0
M  V30 7827 H 723.084 7.98341 1.80536 0
M  V30 7828 N 725.747 -0.868086 1.31537 0
M  V30 7829 C 726.975 -1.65402 1.24298 0
M  V30 7830 C 727.39 -1.87827 -0.191389 0
M  V30 7831 O 726.747 -1.43776 -1.12404 0
M  V30 7832 C 726.798 -3.02093 1.9855 0
M  V30 7833 O 726.519 -2.80668 3.36388 0
M  V30 7834 C 728.02 -3.96538 1.98173 0
M  V30 7835 H 725.24 -0.515598 0.429417 0
M  V30 7836 H 727.784 -1.0834 1.73444 0
M  V30 7837 H 725.939 -3.55838 1.53161 0
M  V30 7838 H 726.353 -3.67504 3.74221 0
M  V30 7839 H 727.827 -4.8976 2.54635 0
M  V30 7840 H 728.304 -4.28474 0.964697 0
M  V30 7841 H 728.91 -3.48729 2.4345 0
M  V30 7842 N 727.225 -1.14528 -1.08264 0
M  V30 7843 C 728.472 -0.914405 -1.80679 0
M  V30 7844 C 728.8 0.558952 -1.86295 0
M  V30 7845 O 728.055 1.43017 -1.33584 0
M  V30 7846 C 728.354 -1.46226 -3.26117 0
M  V30 7847 C 728.02 -2.95451 -3.40616 0
M  V30 7848 C 726.682 -3.36191 -3.4428 0
M  V30 7849 C 729.034 -3.91399 -3.44175 0
M  V30 7850 C 726.362 -4.71539 -3.49096 0
M  V30 7851 C 728.714 -5.26606 -3.50526 0
M  V30 7852 C 727.378 -5.66856 -3.52464 0
M  V30 7853 H 726.648 -0.334604 -0.661151 0
M  V30 7854 H 729.295 -1.4292 -1.27461 0
M  V30 7855 H 727.6 -0.868442 -3.82054 0
M  V30 7856 H 729.297 -1.25955 -3.80705 0
M  V30 7857 H 725.887 -2.62955 -3.38456 0
M  V30 7858 H 730.071 -3.61004 -3.40573 0
M  V30 7859 H 725.327 -5.02082 -3.4889 0
M  V30 7860 H 729.501 -6.00758 -3.52225 0
M  V30 7861 H 727.128 -6.71718 -3.55948 0
M  V30 7862 N 728.703 1.26451 -0.940633 0
M  V30 7863 C 729.613 2.30128 -0.455881 0
M  V30 7864 C 730.629 1.67536 0.469867 0
M  V30 7865 O 731.805 1.98344 0.349529 0
M  V30 7866 C 728.87 3.45634 0.271648 0
M  V30 7867 C 727.931 4.23709 -0.690594 0
M  V30 7868 C 727.164 5.337 0.00231047 0
M  V30 7869 O 727.387 5.57215 1.21935 0
M  V30 7870 O 726.321 5.98091 -0.676111 0
M  V30 7871 H 730.147 2.73655 -1.31707 0
M  V30 7872 H 727.732 1.3164 -0.706497 0
M  V30 7873 H 729.614 4.15853 0.681486 0
M  V30 7874 H 728.289 3.04138 1.10824 0
M  V30 7875 H 727.196 3.55974 -1.15037 0
M  V30 7876 H 728.529 4.68953 -1.49478 0
M  V30 7877 N 730.181 0.707592 1.40822 0
M  V30 7878 C 731.597 0.38034 1.55002 0
M  V30 7879 C 731.797 -1.11163 1.68062 0
M  V30 7880 O 730.853 -1.89761 1.66574 0
M  V30 7881 C 732.166 1.1394 2.78277 0
M  V30 7882 C 733.714 1.12492 2.92087 0
M  V30 7883 C 734.189 1.86597 4.18265 0
M  V30 7884 N 735.68 1.83626 4.25248 0
M  V30 7885 C 736.415 2.37794 5.21768 0
M  V30 7886 N 735.911 3.00485 6.24244 0
M  V30 7887 N 737.704 2.27982 5.13791 0
M  V30 7888 H 729.855 1.67511 1.3059 0
M  V30 7889 H 732.118 0.707579 0.630901 0
M  V30 7890 H 731.824 2.19398 2.74877 0
M  V30 7891 H 731.698 0.725793 3.70151 0
M  V30 7892 H 734.085 0.0785564 2.94995 0
M  V30 7893 H 734.166 1.57768 2.01353 0
M  V30 7894 H 733.81 2.91219 4.16118 0
M  V30 7895 H 733.74 1.38746 5.07993 0
M  V30 7896 H 736.231 1.3793 3.51829 0
M  V30 7897 H 736.544 3.39355 6.94304 0
M  V30 7898 H 734.889 3.04567 6.24711 0
M  V30 7899 H 738.08 1.78669 4.3266 0
M  V30 7900 H 738.253 2.70499 5.88841 0
M  V30 7901 N 731.66 -1.50943 0.453197 0
M  V30 7902 C 732.593 -2.24742 -0.395787 0
M  V30 7903 C 733.571 -1.27316 -1.01141 0
M  V30 7904 O 734.755 -1.56494 -1.05081 0
M  V30 7905 C 731.882 -3.00999 -1.55298 0
M  V30 7906 C 730.928 -4.13207 -1.0565 0
M  V30 7907 S 731.761 -5.35498 0.01435 0
M  V30 7908 C 732.917 -6.15298 -1.14714 0
M  V30 7909 H 733.15 -2.96403 0.23071 0
M  V30 7910 H 730.683 -1.52557 0.237874 0
M  V30 7911 H 732.641 -3.45529 -2.2163 0
M  V30 7912 H 731.302 -2.28896 -2.15094 0
M  V30 7913 H 730.495 -4.65901 -1.9223 0
M  V30 7914 H 730.097 -3.7102 -0.471182 0
M  V30 7915 H 732.389 -6.45346 -2.06239 0
M  V30 7916 H 733.332 -7.05019 -0.659842 0
M  V30 7917 H 733.74 -5.47046 -1.39288 0
M  V30 7918 N 733.138 -0.185124 -1.56509 0
M  V30 7919 C 734.085 0.739729 -2.18624 0
M  V30 7920 C 735.055 1.217 -1.13042 0
M  V30 7921 O 736.24 1.28268 -1.41251 0
M  V30 7922 C 733.38 1.95787 -2.84186 0
M  V30 7923 C 732.493 1.52289 -4.04267 0
M  V30 7924 C 731.628 2.69576 -4.57714 0
M  V30 7925 C 730.667 2.22636 -5.70175 0
M  V30 7926 N 729.804 3.33065 -6.18071 0
M  V30 7927 H 734.644 0.203269 -2.97306 0
M  V30 7928 H 732.181 0.0885946 -1.46833 0
M  V30 7929 H 734.139 2.67253 -3.20361 0
M  V30 7930 H 732.769 2.4678 -2.08085 0
M  V30 7931 H 731.821 0.704458 -3.7382 0
M  V30 7932 H 733.133 1.13843 -4.85635 0
M  V30 7933 H 732.287 3.4918 -4.96143 0
M  V30 7934 H 731.026 3.1129 -3.75433 0
M  V30 7935 H 730.031 1.41483 -5.31284 0
M  V30 7936 H 731.256 1.81964 -6.54267 0
M  V30 7937 H 729.202 3.74328 -5.38715 0
M  V30 7938 H 729.119 2.98756 -6.94464 0
M  V30 7939 H 730.387 4.12912 -6.61153 0
M  V30 7940 N 734.616 1.57351 0.0885366 0
M  V30 7941 C 735.526 2.05858 1.12516 0
M  V30 7942 C 736.542 0.984758 1.43452 0
M  V30 7943 O 737.718 1.29836 1.53963 0
M  V30 7944 C 734.783 2.47882 2.42395 0
M  V30 7945 C 733.844 3.69487 2.18582 0
M  V30 7946 C 733.077 4.09497 3.42268 0
M  V30 7947 O 733.3 3.49536 4.50755 0
M  V30 7948 O 732.234 5.02406 3.31469 0
M  V30 7949 H 736.06 2.94467 0.743146 0
M  V30 7950 H 733.645 1.46326 0.301507 0
M  V30 7951 H 735.527 2.75509 3.18862 0
M  V30 7952 H 734.202 1.62408 2.8001 0
M  V30 7953 H 733.109 3.46967 1.39875 0
M  V30 7954 H 734.442 4.55761 1.85857 0
M  V30 7955 N 736.094 -0.359525 1.53444 0
M  V30 7956 C 737.319 -1.12644 1.74144 0
M  V30 7957 C 737.744 -1.82082 0.472007 0
M  V30 7958 O 737.102 -1.71962 -0.57436 0
M  V30 7959 C 737.15 -2.12781 2.9113 0
M  V30 7960 O 736.254 -3.19984 2.60162 0
M  V30 7961 H 735.595 -0.326553 0.578152 0
M  V30 7962 H 738.125 -0.414798 2.00351 0
M  V30 7963 H 738.135 -2.56278 3.17467 0
M  V30 7964 H 736.81 -1.61634 3.83207 0
M  V30 7965 H 735.387 -2.81417 2.44661 0
M  V30 7966 N 737.572 -1.44907 -0.619662 0
M  V30 7967 C 738.535 -1.52282 -1.71297 0
M  V30 7968 C 739.535 -0.40359 -1.55653 0
M  V30 7969 O 740.725 -0.666638 -1.6094 0
M  V30 7970 C 737.857 -1.40778 -3.10474 0
M  V30 7971 H 739.05 -2.49683 -1.66128 0
M  V30 7972 H 736.603 -1.32168 -0.834339 0
M  V30 7973 H 737.338 -0.445156 -3.2123 0
M  V30 7974 H 737.123 -2.21947 -3.23237 0
M  V30 7975 H 738.613 -1.48946 -3.90135 0
M  V30 7976 N 739.05 0.861098 -1.31996 0
M  V30 7977 C 740.327 1.59788 -1.12814 0
M  V30 7978 C 740.707 2.08753 0.313882 0
M  V30 7979 O 740.055 1.87258 1.30946 0
M  V30 7980 C 740.265 2.74901 -2.15012 0
M  V30 7981 C 741.613 3.44643 -2.48004 0
M  V30 7982 O 742.637 2.85119 -2.13508 0
M  V30 7983 O 741.496 4.52044 -3.07113 0
M  V30 7984 H 738.59 0.703408 -0.434909 0
M  V30 7985 H 741.136 0.905788 -1.43505 0
M  V30 7986 H 739.908 2.36198 -3.11971 0
M  V30 7987 H 739.531 3.51792 -1.85279 0
M  V30 7988 N 740.528 1.15101 1.07655 0
M  V30 7989 C 741.777 0.918528 1.79572 0
M  V30 7990 C 742.09 -0.555922 1.87534 0
M  V30 7991 O 743.296 -0.905893 2.55941 0
M  V30 7992 C 741.752 1.59394 3.22679 0
M  V30 7993 C 741.36 3.1052 3.22927 0
M  V30 7994 C 743.104 1.44289 3.99225 0
M  V30 7995 C 741.011 3.70862 4.60668 0
M  V30 7996 H 739.941 0.340006 0.672987 0
M  V30 7997 H 742.592 1.38079 1.20857 0
M  V30 7998 H 740.974 1.05936 3.81567 0
M  V30 7999 H 742.148 3.70708 2.737 0
M  V30 8000 H 740.463 3.25351 2.59876 0
M  V30 8001 H 743.06 1.86766 5.01022 0
M  V30 8002 H 743.403 0.389975 4.14469 0
M  V30 8003 H 743.936 1.94826 3.46825 0
M  V30 8004 H 740.675 4.7604 4.50628 0
M  V30 8005 H 740.195 3.15456 5.10145 0
M  V30 8006 H 741.874 3.71607 5.29639 0
M  V30 8007 N 742.006 -1.2595 0.947325 0
M  V30 8008 C 742.936 -2.28521 0.479604 0
M  V30 8009 C 743.917 -1.63469 -0.470293 0
M  V30 8010 O 745.102 -1.90627 -0.370824 0
M  V30 8011 C 742.232 -3.46397 -0.250289 0
M  V30 8012 C 741.186 -4.23578 0.613643 0
M  V30 8013 C 740.512 -5.34131 -0.246568 0
M  V30 8014 C 741.812 -4.86979 1.88809 0
M  V30 8015 H 743.506 -2.67895 1.33688 0
M  V30 8016 H 741.052 -1.28783 0.644274 0
M  V30 8017 H 743.005 -4.17269 -0.588576 0
M  V30 8018 H 741.729 -3.05993 -1.14175 0
M  V30 8019 H 740.388 -3.54478 0.93491 0
M  V30 8020 H 740.036 -4.89968 -1.13756 0
M  V30 8021 H 739.736 -5.86683 0.328123 0
M  V30 8022 H 741.26 -6.07839 -0.579986 0
M  V30 8023 H 742.674 -5.50034 1.61666 0
M  V30 8024 H 741.071 -5.49675 2.40784 0
M  V30 8025 H 742.141 -4.09575 2.5957 0
M  V30 8026 N 743.484 -0.715051 -1.40445 0
M  V30 8027 C 744.414 -0.0768699 -2.33373 0
M  V30 8028 C 745.395 0.746109 -1.52863 0
M  V30 8029 O 746.58 0.695142 -1.81332 0
M  V30 8030 C 743.71 0.846014 -3.36838 0
M  V30 8031 C 742.664 0.128694 -4.27806 0
M  V30 8032 C 741.99 1.16726 -5.21804 0
M  V30 8033 C 743.29 -1.01679 -5.12307 0
M  V30 8034 H 744.984 -0.853061 -2.8699 0
M  V30 8035 H 742.53 -0.41167 -1.3799 0
M  V30 8036 H 744.483 1.30185 -4.00786 0
M  V30 8037 H 743.207 1.6541 -2.81615 0
M  V30 8038 H 741.866 -0.307314 -3.6531 0
M  V30 8039 H 741.514 1.96838 -4.62887 0
M  V30 8040 H 741.214 0.692188 -5.83509 0
M  V30 8041 H 742.738 1.62321 -5.88629 0
M  V30 8042 H 744.152 -0.640337 -5.69713 0
M  V30 8043 H 742.549 -1.4202 -5.83053 0
M  V30 8044 H 743.619 -1.84769 -4.48317 0
M  V30 8045 N 744.962 1.50701 -0.461195 0
M  V30 8046 C 745.895 2.24948 0.383863 0
M  V30 8047 C 746.873 1.27851 1.00464 0
M  V30 8048 O 748.057 1.57049 1.04249 0
M  V30 8049 C 745.184 3.01818 1.537 0
M  V30 8050 C 744.23 4.13762 1.03457 0
M  V30 8051 S 745.063 5.35483 -0.0427485 0
M  V30 8052 C 746.219 6.15898 1.11449 0
M  V30 8053 H 746.452 2.96277 -0.246425 0
M  V30 8054 H 743.985 1.52428 -0.245961 0
M  V30 8055 H 745.943 3.467 2.19794 0
M  V30 8056 H 744.604 2.30034 2.13877 0
M  V30 8057 H 743.797 4.66914 1.89757 0
M  V30 8058 H 743.399 3.71265 0.4515 0
M  V30 8059 H 745.691 6.46431 2.02813 0
M  V30 8060 H 746.634 7.05359 0.622444 0
M  V30 8061 H 747.042 5.47777 1.36385 0
M  V30 8062 N 746.441 0.193421 1.56409 0
M  V30 8063 C 747.389 -0.744829 2.20352 0
M  V30 8064 C 748.383 -1.22104 1.17418 0
M  V30 8065 O 749.589 -1.18413 1.35567 0
M  V30 8066 H 745.964 -0.258538 0.70616 0
M  V30 8067 H 747.935 -0.181794 2.97846 0
M  V30 8068 C 746.684 -1.95453 2.87565 0
M  V30 8069 H 746.007 -1.59716 3.66512 0
M  V30 8070 H 747.447 -2.58942 3.35745 0
M  V30 8071 C 745.906 -2.79223 1.8851 0
M  V30 8072 O 746.436 -3.77093 1.38434 0
M  V30 8073 N 744.642 -2.44682 1.56777 0
M  V30 8074 H 744.189 -1.65153 1.97692 0
M  V30 8075 H 744.147 -3.01016 0.907573 0
M  V30 8076 N 747.919 -1.57396 -0.0801906 0
M  V30 8077 C 749.147 -1.91055 -0.794075 0
M  V30 8078 C 749.562 -0.788583 -1.71542 0
M  V30 8079 O 748.919 0.238587 -1.80934 0
M  V30 8080 C 748.97 -3.24418 -1.59484 0
M  V30 8081 O 748.691 -4.323 -0.710532 0
M  V30 8082 C 750.192 -3.72037 -2.41046 0
M  V30 8083 H 747.412 -0.63171 -0.226238 0
M  V30 8084 H 749.956 -2.04431 -0.0529685 0
M  V30 8085 H 748.111 -3.12595 -2.2883 0
M  V30 8086 H 748.525 -5.08976 -1.26663 0
M  V30 8087 H 749.999 -4.68006 -2.92702 0
M  V30 8088 H 750.476 -3.00624 -3.2019 0
M  V30 8089 H 751.082 -3.86777 -1.76871 0
M  V30 8090 N 749.397 0.351382 -1.53633 0
M  V30 8091 C 750.307 1.45471 -1.84052 0
M  V30 8092 C 751.323 1.57945 -0.730015 0
M  V30 8093 O 752.499 1.73571 -1.02153 0
M  V30 8094 C 749.564 2.80562 -2.03681 0
M  V30 8095 C 748.625 2.77497 -3.27558 0
M  V30 8096 C 747.858 4.06144 -3.46241 0
M  V30 8097 O 748.081 5.03028 -2.68922 0
M  V30 8098 O 747.015 4.11092 -4.39645 0
M  V30 8099 H 750.841 1.22684 -2.77817 0
M  V30 8100 H 748.426 0.542827 -1.3919 0
M  V30 8101 H 750.308 3.6058 -2.18082 0
M  V30 8102 H 748.983 3.03296 -1.13106 0
M  V30 8103 H 747.89 1.96126 -3.18568 0
M  V30 8104 H 749.223 2.59716 -4.18101 0
M  V30 8105 N 750.875 1.45233 0.611969 0
M  V30 8106 C 751.823 1.53898 1.74408 0
M  V30 8107 C 752.817 0.409254 1.64382 0
M  V30 8108 O 754.023 0.584988 1.70229 0
M  V30 8109 H 750.398 0.483303 0.576127 0
M  V30 8110 H 752.369 2.49143 1.64227 0
M  V30 8111 C 751.118 1.51865 3.12782 0
M  V30 8112 H 750.441 2.38118 3.21154 0
M  V30 8113 H 751.881 1.61986 3.91838 0
M  V30 8114 C 750.34 0.242374 3.36027 0
M  V30 8115 O 750.87 -0.679587 3.9591 0
M  V30 8116 N 749.076 0.139448 2.90265 0
M  V30 8117 H 748.623 0.890571 2.41716 0
M  V30 8118 H 748.581 -0.713686 3.06193 0
M  V30 8119 N 752.353 -0.854086 1.3245 0
M  V30 8120 C 753.3 -1.96271 1.21434 0
M  V30 8121 C 754.27 -1.6582 0.0963851 0
M  V30 8122 O 755.455 -1.88851 0.27203 0
M  V30 8123 C 752.595 -3.31939 0.943952 0
M  V30 8124 C 751.708 -3.74885 2.14675 0
M  V30 8125 C 750.843 -4.99347 1.81179 0
M  V30 8126 C 749.882 -5.34785 2.97777 0
M  V30 8127 N 749.019 -6.50425 2.6437 0
M  V30 8128 H 753.859 -2.05025 2.16261 0
M  V30 8129 H 751.396 -1.00348 1.07558 0
M  V30 8130 H 753.354 -4.10076 0.767675 0
M  V30 8131 H 751.984 -3.22784 0.0324763 0
M  V30 8132 H 751.036 -2.92396 2.43328 0
M  V30 8133 H 752.348 -3.97068 3.01891 0
M  V30 8134 H 751.502 -5.85193 1.60107 0
M  V30 8135 H 750.241 -4.79101 0.911777 0
M  V30 8136 H 749.246 -4.47451 3.1948 0
M  V30 8137 H 750.471 -5.56988 3.88511 0
M  V30 8138 H 748.417 -6.31695 1.7691 0
M  V30 8139 H 748.334 -6.7263 3.45116 0
M  V30 8140 H 749.602 -7.39422 2.46729 0
M  V30 8141 N 753.831 -1.1567 -1.07043 0
M  V30 8142 C 755.242 -0.942408 -1.61169 0
M  V30 8143 C 755.593 0.515537 -1.89306 0
M  V30 8144 O 754.718 1.38726 -1.66084 0
M  V30 8145 C 755.313 -1.70431 -2.92812 0
M  V30 8146 C 753.872 -1.53521 -3.43669 0
M  V30 8147 C 753.019 -1.7179 -2.17678 0
M  V30 8148 H 755.97 -1.3065 -0.9009 0
M  V30 8149 H 755.991 -1.17566 -3.61882 0
M  V30 8150 H 755.503 -2.76538 -2.72302 0
M  V30 8151 H 753.604 -0.498224 -3.69254 0
M  V30 8152 H 753.717 -2.31422 -4.19501 0
M  V30 8153 H 752.081 -1.14468 -2.27529 0
M  V30 8154 H 752.864 -2.79269 -1.99659 0
M  V30 8155 N 755.309 1.25446 -0.953992 0
M  V30 8156 C 756.239 2.28264 -0.491717 0
M  V30 8157 C 757.22 1.63717 0.461617 0
M  V30 8158 O 758.405 1.90821 0.36071 0
M  V30 8159 C 755.535 3.46525 0.231915 0
M  V30 8160 C 754.489 4.23247 -0.636098 0
M  V30 8161 C 753.815 5.34254 0.218238 0
M  V30 8162 C 755.115 4.85971 -1.91389 0
M  V30 8163 H 756.809 2.67183 -1.35106 0
M  V30 8164 H 754.355 1.2844 -0.651095 0
M  V30 8165 H 756.308 4.17576 0.566439 0
M  V30 8166 H 755.032 3.06594 1.12551 0
M  V30 8167 H 753.691 3.53978 -0.953696 0
M  V30 8168 H 753.339 4.90564 1.11156 0
M  V30 8169 H 753.039 5.86501 -0.359232 0
M  V30 8170 H 754.563 6.08138 0.547743 0
M  V30 8171 H 755.977 5.49168 -1.64581 0
M  V30 8172 H 754.374 5.48391 -2.43696 0
M  V30 8173 H 755.444 4.08192 -2.61738 0
M  V30 8174 N 756.787 0.722489 1.40064 0
M  V30 8175 C 758.036 0.261932 1.99992 0
M  V30 8176 C 758.349 -1.15358 1.57961 0
M  V30 8177 O 759.555 -1.71301 2.10637 0
M  V30 8178 C 758.011 0.41737 3.57472 0
M  V30 8179 C 757.619 1.83997 4.08472 0
M  V30 8180 C 759.363 0.0179561 4.24496 0
M  V30 8181 C 757.27 1.94563 5.5848 0
M  V30 8182 H 756.2 0.0941768 0.748095 0
M  V30 8183 H 758.851 0.894572 1.60218 0
M  V30 8184 H 757.233 -0.283965 3.94981 0
M  V30 8185 H 758.407 2.57224 3.82325 0
M  V30 8186 H 756.722 2.19147 3.54067 0
M  V30 8187 H 759.319 0.076085 5.34646 0
M  V30 8188 H 759.662 -1.02498 4.03485 0
M  V30 8189 H 760.195 0.669988 3.92117 0
M  V30 8190 H 756.934 2.97001 5.84355 0
M  V30 8191 H 756.454 1.25756 5.86469 0
M  V30 8192 H 758.133 1.72095 6.23692 0
M  V30 8193 N 758.265 -1.50454 0.469181 0
M  V30 8194 C 759.511 -2.02615 -0.0865971 0
M  V30 8195 C 759.844 -1.35062 -1.39542 0
M  V30 8196 O 759.119 -0.475701 -1.88593 0
M  V30 8197 C 759.402 -3.59068 -0.272385 0
M  V30 8198 C 759.255 -4.37196 1.05733 0
M  V30 8199 C 760.574 -4.2793 -1.0278 0
M  V30 8200 H 757.693 -0.736389 -0.0299977 0
M  V30 8201 H 760.335 -1.79792 0.614399 0
M  V30 8202 H 758.485 -3.78646 -0.869471 0
M  V30 8203 H 760.157 -4.29195 1.69084 0
M  V30 8204 H 758.4 -4.01013 1.65442 0
M  V30 8205 H 759.071 -5.44924 0.880997 0
M  V30 8206 H 761.547 -4.12816 -0.521718 0
M  V30 8207 H 760.423 -5.37214 -1.12659 0
M  V30 8208 H 760.684 -3.90968 -2.0639 0
M  V30 8209 N 759.743 -0.201713 -1.56304 0
M  V30 8210 C 760.653 0.728296 -2.23009 0
M  V30 8211 C 761.669 1.22945 -1.23128 0
M  V30 8212 O 762.845 1.27523 -1.55884 0
M  V30 8213 C 759.91 1.92792 -2.88153 0
M  V30 8214 C 758.971 1.47068 -4.03323 0
M  V30 8215 C 758.204 2.61312 -4.65351 0
M  V30 8216 O 758.427 3.7896 -4.26317 0
M  V30 8217 O 757.361 2.33646 -5.54701 0
M  V30 8218 H 761.187 0.190166 -3.03104 0
M  V30 8219 H 758.772 0.0278725 -1.49374 0
M  V30 8220 H 760.654 2.6289 -3.29343 0
M  V30 8221 H 759.329 2.45452 -2.11033 0
M  V30 8222 H 758.236 0.738299 -3.66742 0
M  V30 8223 H 759.569 0.990666 -4.82127 0
M  V30 8224 N 761.222 1.57436 0.0718424 0
M  V30 8225 C 762.471 1.86431 0.769826 0
M  V30 8226 C 762.784 0.794355 1.78744 0
M  V30 8227 O 763.99 0.972148 2.53499 0
M  V30 8228 C 762.446 3.307 1.42006 0
M  V30 8229 C 762.054 4.45824 0.441017 0
M  V30 8230 C 763.798 3.68894 2.10041 0
M  V30 8231 C 761.705 5.81134 1.09717 0
M  V30 8232 H 760.635 0.695474 0.291259 0
M  V30 8233 H 763.286 1.83485 0.0231224 0
M  V30 8234 H 761.668 3.28257 2.21502 0
M  V30 8235 H 762.842 4.59659 -0.32413 0
M  V30 8236 H 761.157 4.16181 -0.134886 0
M  V30 8237 H 763.754 4.67281 2.59908 0
M  V30 8238 H 764.097 2.98692 2.89981 0
M  V30 8239 H 764.63 3.73326 1.37376 0
M  V30 8240 H 761.369 6.54628 0.338095 0
M  V30 8241 H 760.889 5.711 1.83317 0
M  V30 8242 H 762.568 6.26468 1.617 0
M  V30 8243 N 762.7 -0.34323 1.53817 0
M  V30 8244 C 763.928 -1.10348 1.75017 0
M  V30 8245 C 764.343 -1.82345 0.489475 0
M  V30 8246 O 763.7 -1.74362 -0.538886 0
M  V30 8247 C 763.751 -2.11672 2.93048 0
M  V30 8248 O 763.472 -1.42603 4.14241 0
M  V30 8249 C 764.973 -3.0007 3.26301 0
M  V30 8250 H 762.193 -0.329056 0.584776 0
M  V30 8251 H 764.737 -0.395339 2.00642 0
M  V30 8252 H 762.892 -2.78051 2.69753 0
M  V30 8253 H 763.306 -2.10294 4.80496 0
M  V30 8254 H 764.78 -3.67101 4.12239 0
M  V30 8255 H 765.257 -3.66105 2.42618 0
M  V30 8256 H 765.863 -2.3928 3.51604 0
M  V30 8257 N 764.178 -1.45556 -0.604258 0
M  V30 8258 C 765.589 -1.44171 -1.18624 0
M  V30 8259 C 765.94 -0.171081 -1.95453 0
M  V30 8260 O 765.065 0.727156 -2.03817 0
M  V30 8261 C 765.66 -2.61193 -2.15786 0
M  V30 8262 C 764.219 -2.62918 -2.69353 0
M  V30 8263 C 763.366 -2.36479 -1.4482 0
M  V30 8264 H 766.317 -1.53747 -0.393381 0
M  V30 8265 H 766.338 -2.35481 -2.98879 0
M  V30 8266 H 765.85 -3.53656 -1.59841 0
M  V30 8267 H 763.951 -1.7447 -3.29228 0
M  V30 8268 H 764.064 -3.6224 -3.13559 0
M  V30 8269 H 762.428 -1.86103 -1.73891 0
M  V30 8270 H 763.211 -3.31091 -0.907376 0
M  V30 8271 N 765.656 0.84705 -1.32902 0
M  V30 8272 C 766.902 1.60389 -1.25088 0
M  V30 8273 C 767.257 1.91521 0.183723 0
M  V30 8274 O 766.55 1.55197 1.12359 0
M  V30 8275 C 766.744 2.92663 -2.05142 0
M  V30 8276 C 766.573 2.74449 -3.56241 0
M  V30 8277 C 765.343 2.72434 -4.25567 0
M  V30 8278 C 767.541 2.47666 -4.5074 0
M  V30 8279 N 765.523 2.45512 -5.62669 0
M  V30 8280 C 766.894 2.30219 -5.75673 0
M  V30 8281 C 768.949 2.33196 -4.39914 0
M  V30 8282 C 767.652 1.99772 -6.91002 0
M  V30 8283 C 769.678 2.0414 -5.5505 0
M  V30 8284 C 769.04 1.875 -6.78987 0
M  V30 8285 H 765.139 0.590296 -0.512908 0
M  V30 8286 H 767.723 0.995058 -1.67352 0
M  V30 8287 H 765.894 3.51511 -1.65211 0
M  V30 8288 H 767.626 3.5777 -1.89163 0
M  V30 8289 H 764.381 2.85647 -3.7776 0
M  V30 8290 H 764.805 2.34958 -6.3492 0
M  V30 8291 H 769.447 2.44777 -3.44738 0
M  V30 8292 H 767.165 1.86928 -7.86183 0
M  V30 8293 H 770.751 1.93711 -5.48605 0
M  V30 8294 H 769.631 1.65339 -7.66572 0
M  V30 8295 N 767.134 1.16236 1.06428 0
M  V30 8296 C 768.38 0.944431 1.79467 0
M  V30 8297 C 768.713 -0.526558 1.86925 0
M  V30 8298 O 767.988 -1.39061 1.35986 0
M  V30 8299 C 768.271 1.57092 3.24028 0
M  V30 8300 C 768.124 3.11315 3.24658 0
M  V30 8301 C 769.443 1.26447 4.21544 0
M  V30 8302 H 766.562 0.344521 0.651517 0
M  V30 8303 H 769.204 1.43545 1.24478 0
M  V30 8304 H 767.354 1.15337 3.70985 0
M  V30 8305 H 769.026 3.62042 2.85873 0
M  V30 8306 H 767.269 3.44716 2.6335 0
M  V30 8307 H 767.94 3.50269 4.26633 0
M  V30 8308 H 770.416 1.62581 3.83023 0
M  V30 8309 H 769.292 1.72885 5.20963 0
M  V30 8310 H 769.553 0.183068 4.41721 0
M  V30 8311 N 768.612 -1.24939 0.960631 0
M  V30 8312 C 769.562 -2.23388 0.456266 0
M  V30 8313 C 770.546 -1.54249 -0.45782 0
M  V30 8314 O 771.738 -1.7461 -0.289894 0
M  V30 8315 C 768.867 -3.42321 -0.259024 0
M  V30 8316 C 767.953 -4.18718 0.673478 0
M  V30 8317 N 768.344 -4.72394 1.8077 0
M  V30 8318 C 766.642 -4.43378 0.482859 0
M  V30 8319 C 767.343 -5.30316 2.3904 0
M  V30 8320 N 766.319 -5.17109 1.67629 0
M  V30 8321 H 770.121 -2.62499 1.32179 0
M  V30 8322 H 767.635 -1.40245 0.818851 0
M  V30 8323 H 769.632 -4.11997 -0.637527 0
M  V30 8324 H 768.292 -3.04732 -1.12108 0
M  V30 8325 H 769.303 -4.69345 2.18942 0
M  V30 8326 H 765.98 -4.16147 -0.335821 0
M  V30 8327 H 767.37 -5.82594 3.34715 0
M  V30 8328 N 770.09 -0.729906 -1.39679 0
M  V30 8329 C 771.022 -0.0470588 -2.29152 0
M  V30 8330 C 772.035 0.708808 -1.4656 0
M  V30 8331 O 773.224 0.553815 -1.69691 0
M  V30 8332 C 770.324 0.957612 -3.25089 0
M  V30 8333 C 769.497 0.264321 -4.36601 0
M  V30 8334 C 768.556 1.17638 -5.12882 0
M  V30 8335 O 767.582 0.655777 -5.6541 0
M  V30 8336 N 768.784 2.50649 -5.23598 0
M  V30 8337 H 771.549 -0.815364 -2.88395 0
M  V30 8338 H 769.11 -0.578707 -1.51204 0
M  V30 8339 H 771.102 1.57026 -3.72995 0
M  V30 8340 H 769.672 1.62716 -2.66912 0
M  V30 8341 H 768.892 -0.528732 -3.90638 0
M  V30 8342 H 770.18 -0.216344 -5.0834 0
M  V30 8343 H 769.578 2.95427 -4.82431 0
M  V30 8344 H 768.135 3.07022 -5.74961 0
M  V30 8345 N 771.568 1.50203 -0.477153 0
M  V30 8346 C 772.815 2.02358 0.0757385 0
M  V30 8347 C 773.143 1.3587 1.39174 0
M  V30 8348 O 772.398 0.475415 1.89838 0
M  V30 8349 C 772.697 3.56127 0.301325 0
M  V30 8350 C 772.363 4.41126 -0.933725 0
M  V30 8351 C 771.025 4.64075 -1.27233 0
M  V30 8352 C 773.377 4.90737 -1.75576 0
M  V30 8353 C 770.705 5.33878 -2.43292 0
M  V30 8354 C 773.057 5.61816 -2.90768 0
M  V30 8355 C 771.721 5.83016 -3.25036 0
M  V30 8356 H 770.991 0.740482 0.0277147 0
M  V30 8357 H 773.638 1.80754 -0.632467 0
M  V30 8358 H 771.943 3.76279 1.09183 0
M  V30 8359 H 773.64 3.94053 0.743184 0
M  V30 8360 H 770.23 4.23489 -0.659935 0
M  V30 8361 H 774.414 4.72856 -1.50734 0
M  V30 8362 H 769.67 5.48499 -2.70109 0
M  V30 8363 H 773.844 5.99237 -3.54807 0
M  V30 8364 H 771.471 6.36881 -4.15074 0
M  V30 8365 N 773.046 0.209999 1.56195 0
M  V30 8366 C 773.993 -0.704854 2.19774 0
M  V30 8367 C 774.963 -1.19886 1.14964 0
M  V30 8368 O 776.148 -1.26005 1.43274 0
M  V30 8369 C 773.288 -1.91241 2.87265 0
M  V30 8370 C 772.401 -1.45838 4.06639 0
M  V30 8371 C 771.536 -2.6226 4.61945 0
M  V30 8372 C 770.575 -2.13537 5.73645 0
M  V30 8373 N 769.712 -3.2319 6.23292 0
M  V30 8374 H 774.552 -0.155944 2.97592 0
M  V30 8375 H 772.089 -0.0652235 1.46955 0
M  V30 8376 H 774.047 -2.62123 3.24573 0
M  V30 8377 H 772.677 -2.43439 2.11985 0
M  V30 8378 H 771.729 -0.644897 3.74894 0
M  V30 8379 H 773.041 -1.06103 4.87384 0
M  V30 8380 H 772.195 -3.41243 5.01636 0
M  V30 8381 H 770.934 -3.05278 3.80338 0
M  V30 8382 H 769.939 -1.33013 5.33468 0
M  V30 8383 H 771.164 -1.71533 6.57079 0
M  V30 8384 H 769.11 -3.65711 5.44602 0
M  V30 8385 H 769.027 -2.8767 6.99129 0
M  V30 8386 H 770.295 -4.02342 6.67639 0
M  V30 8387 N 774.524 -1.57472 -0.0634922 0
M  V30 8388 C 775.454 -2.07297 -1.07473 0
M  V30 8389 C 776.435 -0.968162 -1.39859 0
M  V30 8390 O 777.62 -1.24139 -1.49343 0
M  V30 8391 C 774.75 -2.52381 -2.38581 0
M  V30 8392 C 773.704 -3.66813 -2.20526 0
M  V30 8393 C 773.03 -3.97982 -3.57092 0
M  V30 8394 C 774.33 -4.96553 -1.61965 0
M  V30 8395 H 776.024 -2.92033 -0.660092 0
M  V30 8396 H 773.57 -1.40488 -0.316074 0
M  V30 8397 H 775.523 -2.85852 -3.09624 0
M  V30 8398 H 774.247 -1.64684 -2.8204 0
M  V30 8399 H 772.906 -3.33639 -1.51924 0
M  V30 8400 H 772.554 -3.07403 -3.98136 0
M  V30 8401 H 772.254 -4.7504 -3.45848 0
M  V30 8402 H 773.778 -4.33956 -4.29552 0
M  V30 8403 H 775.192 -5.28201 -2.22883 0
M  V30 8404 H 773.589 -5.7799 -1.61394 0
M  V30 8405 H 774.659 -4.81396 -0.581918 0
M  V30 8406 N 776.003 0.335068 -1.53997 0
M  V30 8407 C 777.231 1.09418 -1.756 0
M  V30 8408 C 777.646 1.82083 -0.499138 0
M  V30 8409 O 777.003 1.74646 0.529631 0
M  V30 8410 C 777.054 2.10115 -2.94166 0
M  V30 8411 O 776.775 1.40404 -4.14992 0
M  V30 8412 C 778.276 2.98336 -3.27888 0
M  V30 8413 H 775.496 0.32595 -0.586513 0
M  V30 8414 H 778.04 0.384693 -2.00849 0
M  V30 8415 H 776.195 2.76616 -2.71224 0
M  V30 8416 H 776.609 2.07743 -4.81605 0
M  V30 8417 H 778.083 3.6491 -4.1418 0
M  V30 8418 H 778.56 3.64814 -2.44556 0
M  V30 8419 H 779.166 2.37412 -3.52868 0
M  V30 8420 N 777.481 1.45874 0.596531 0
M  V30 8421 C 778.444 1.54988 1.68853 0
M  V30 8422 C 779.444 0.428302 1.54991 0
M  V30 8423 O 780.634 0.692158 1.59859 0
M  V30 8424 C 777.766 1.457 3.08195 0
M  V30 8425 H 778.959 2.52294 1.62135 0
M  V30 8426 H 776.512 1.33479 0.813206 0
M  V30 8427 H 777.247 0.496204 3.20481 0
M  V30 8428 H 777.032 2.27061 3.19665 0
M  V30 8429 H 778.522 1.55133 3.87716 0
M  V30 8430 N 778.959 -0.83999 1.33349 0
M  V30 8431 C 779.869 -1.98182 1.25543 0
M  V30 8432 C 780.885 -1.73204 0.166208 0
M  V30 8433 O 782.061 -1.97596 0.389589 0
M  V30 8434 C 779.126 -3.32157 0.993614 0
M  V30 8435 C 778.187 -3.70258 2.17273 0
M  V30 8436 C 777.42 -4.9784 1.92331 0
M  V30 8437 O 777.643 -5.63679 0.873074 0
M  V30 8438 O 776.577 -5.33418 2.78835 0
M  V30 8439 H 780.403 -2.07708 2.21565 0
M  V30 8440 H 777.988 -0.972852 1.13384 0
M  V30 8441 H 779.87 -4.12433 0.864711 0
M  V30 8442 H 778.545 -3.23637 0.0636596 0
M  V30 8443 H 777.452 -2.90497 2.35716 0
M  V30 8444 H 778.785 -3.83442 3.08598 0
M  V30 8445 N 780.437 -1.16799 -1.0581 0
M  V30 8446 C 781.37 -0.822491 -2.12862 0
M  V30 8447 C 782.348 0.208006 -1.61264 0
M  V30 8448 O 783.532 0.0909652 -1.8828 0
M  V30 8449 C 780.659 -0.225826 -3.37946 0
M  V30 8450 C 779.705 -1.23071 -4.08357 0
M  V30 8451 S 780.538 -2.77944 -4.5772 0
M  V30 8452 C 781.694 -2.19741 -5.86059 0
M  V30 8453 H 781.927 -1.72917 -2.41841 0
M  V30 8454 H 779.46 -0.991982 -1.18318 0
M  V30 8455 H 781.418 0.111955 -4.10347 0
M  V30 8456 H 780.079 0.658692 -3.07116 0
M  V30 8457 H 779.272 -0.761758 -4.9821 0
M  V30 8458 H 778.874 -1.51383 -3.41993 0
M  V30 8459 H 781.166 -1.5691 -6.59079 0
M  V30 8460 H 782.109 -3.07823 -6.37692 0
M  V30 8461 H 782.517 -1.63433 -5.40324 0
M  V30 8462 N 781.915 1.24427 -0.967243 0
M  V30 8463 C 783.163 1.92107 -0.627638 0
M  V30 8464 C 783.484 1.75991 0.83978 0
M  V30 8465 O 782.754 1.13118 1.59941 0
M  V30 8466 H 781.334 0.710986 -0.229145 0
M  V30 8467 H 783.996 1.51331 -1.22821 0
M  V30 8468 H 783.092 2.99791 -0.867844 0
M  V30 8469 N 783.393 0.737304 1.3929 0
M  V30 8470 C 784.303 0.100464 2.34385 0
M  V30 8471 C 785.319 -0.719282 1.58437 0
M  V30 8472 O 786.495 -0.647216 1.90717 0
M  V30 8473 C 783.56 -0.794325 3.37478 0
M  V30 8474 C 782.621 0.0379345 4.29283 0
M  V30 8475 C 781.854 -0.814241 5.27452 0
M  V30 8476 O 782.077 -2.05288 5.32177 0
M  V30 8477 O 781.011 -0.241679 6.01415 0
M  V30 8478 H 784.837 0.885407 2.90507 0
M  V30 8479 H 782.422 0.497999 1.40856 0
M  V30 8480 H 784.304 -1.30622 4.00644 0
M  V30 8481 H 782.979 -1.55804 2.83737 0
M  V30 8482 H 781.886 0.595405 3.69331 0
M  V30 8483 H 783.219 0.763926 4.86236 0
M  V30 8484 N 784.871 -1.49948 0.485112 0
M  V30 8485 C 785.781 -2.32587 -0.306697 0
M  V30 8486 C 786.797 -1.43598 -0.982632 0
M  V30 8487 O 787.973 -1.76638 -0.967519 0
M  V30 8488 C 785.038 -3.18638 -1.3664 0
M  V30 8489 C 784.099 -4.23462 -0.705589 0
M  V30 8490 C 783.332 -5.05401 -1.7148 0
M  V30 8491 O 783.555 -4.88618 -2.94293 0
M  V30 8492 O 782.489 -5.88157 -1.27889 0
M  V30 8493 H 786.315 -3.01447 0.369272 0
M  V30 8494 H 783.9 -1.47349 0.246709 0
M  V30 8495 H 785.782 -3.71992 -1.9799 0
M  V30 8496 H 784.457 -2.52491 -2.02559 0
M  V30 8497 H 783.364 -3.74063 -0.0527733 0
M  V30 8498 H 784.697 -4.92119 -0.0891187 0
M  V30 8499 N 786.349 -0.21828 -1.56081 0
M  V30 8500 C 787.595 0.414921 -1.9851 0
M  V30 8501 C 787.928 1.59648 -1.10573 0
M  V30 8502 O 787.203 1.93818 -0.162695 0
M  V30 8503 C 787.486 0.852647 -3.4986 0
M  V30 8504 C 787.339 -0.33232 -4.48571 0
M  V30 8505 C 788.658 1.70998 -4.05521 0
M  V30 8506 H 785.777 0.149344 -0.72171 0
M  V30 8507 H 788.419 -0.313858 -1.8739 0
M  V30 8508 H 786.569 1.47362 -3.59467 0
M  V30 8509 H 788.241 -0.970418 -4.50977 0
M  V30 8510 H 786.484 -0.980302 -4.22578 0
M  V30 8511 H 787.155 0.0168407 -5.51997 0
M  V30 8512 H 789.631 1.18606 -3.98838 0
M  V30 8513 H 788.507 1.98517 -5.11744 0
M  V30 8514 H 788.768 2.67219 -3.52202 0
M  V30 8515 N 787.827 1.57504 0.0551401 0
M  V30 8516 C 788.757 2.07864 1.06372 0
M  V30 8517 C 789.738 0.975565 1.39344 0
M  V30 8518 O 790.923 1.24929 1.48682 0
M  V30 8519 C 788.053 2.53643 2.3724 0
M  V30 8520 C 787.007 3.67978 2.18578 0
M  V30 8521 C 786.333 3.9987 3.54976 0
M  V30 8522 C 787.633 4.97405 1.59329 0
M  V30 8523 H 789.327 2.92379 0.644595 0
M  V30 8524 H 786.873 1.40654 0.308619 0
M  V30 8525 H 788.826 2.8749 3.08103 0
M  V30 8526 H 787.55 1.66177 2.81163 0
M  V30 8527 H 786.209 3.3444 1.50152 0
M  V30 8528 H 785.857 3.0951 3.965 0
M  V30 8529 H 785.557 4.76867 3.43324 0
M  V30 8530 H 787.081 4.36228 4.27244 0
M  V30 8531 H 788.495 5.29375 2.20078 0
M  V30 8532 H 786.892 5.78837 1.58327 0
M  V30 8533 H 787.962 4.81697 0.55638 0
M  V30 8534 N 789.305 -0.326896 1.54172 0
M  V30 8535 C 790.252 -1.40216 1.83325 0
M  V30 8536 C 791.222 -1.51538 0.680107 0
M  V30 8537 O 792.407 -1.66811 0.926206 0
M  V30 8538 C 789.547 -2.76626 2.0633 0
M  V30 8539 C 788.66 -2.73963 3.34019 0
M  V30 8540 C 787.795 -4.02198 3.47002 0
M  V30 8541 C 786.834 -3.93828 4.68578 0
M  V30 8542 N 785.971 -5.13787 4.78506 0
M  V30 8543 H 790.811 -1.14656 2.7506 0
M  V30 8544 H 788.348 -0.555089 1.36225 0
M  V30 8545 H 790.306 -3.55922 2.17659 0
M  V30 8546 H 788.936 -3.00503 1.1789 0
M  V30 8547 H 787.988 -1.86677 3.31445 0
M  V30 8548 H 789.3 -2.6366 4.2342 0
M  V30 8549 H 788.454 -4.89923 3.57855 0
M  V30 8550 H 787.193 -4.15302 2.55687 0
M  V30 8551 H 786.198 -3.04487 4.57786 0
M  V30 8552 H 787.423 -3.82292 5.61275 0
M  V30 8553 H 785.369 -5.27403 3.90105 0
M  V30 8554 H 785.286 -5.05807 5.61868 0
M  V30 8555 H 786.554 -6.03236 4.93686 0
M  V30 8556 N 790.784 -1.46188 -0.588786 0
M  V30 8557 C 791.717 -1.508 -1.71274 0
M  V30 8558 C 792.695 -0.362635 -1.58505 0
M  V30 8559 O 793.879 -0.565899 -1.79805 0
M  V30 8560 C 791.006 -1.38082 -3.09275 0
M  V30 8561 C 790.052 -2.56723 -3.40581 0
M  V30 8562 S 790.885 -4.1911 -3.33327 0
M  V30 8563 C 792.041 -4.08891 -4.73877 0
M  V30 8564 H 792.274 -2.45895 -1.67102 0
M  V30 8565 H 789.807 -1.34 -0.767025 0
M  V30 8566 H 791.765 -1.31432 -3.88891 0
M  V30 8567 H 790.426 -0.444259 -3.10942 0
M  V30 8568 H 789.619 -2.43801 -4.41109 0
M  V30 8569 H 789.221 -2.60332 -2.68521 0
M  V30 8570 H 791.513 -3.75196 -5.64123 0
M  V30 8571 H 792.456 -5.09395 -4.91856 0
M  V30 8572 H 792.864 -3.40239 -4.50441 0
M  V30 8573 N 792.262 0.832906 -1.33792 0
M  V30 8574 C 793.508 1.59089 -1.25772 0
M  V30 8575 C 793.841 1.93414 0.174601 0
M  V30 8576 O 793.116 1.59195 1.11746 0
M  V30 8577 C 793.399 2.89699 -2.13885 0
M  V30 8578 C 793.252 2.62017 -3.65605 0
M  V30 8579 C 794.571 3.91182 -2.01654 0
M  V30 8580 H 791.69 0.577232 -0.458227 0
M  V30 8581 H 794.332 0.960227 -1.6395 0
M  V30 8582 H 792.482 3.4352 -1.81456 0
M  V30 8583 H 794.154 2.14582 -4.08353 0
M  V30 8584 H 792.397 1.95621 -3.87189 0
M  V30 8585 H 793.068 3.55112 -4.2261 0
M  V30 8586 H 795.544 3.46684 -2.30107 0
M  V30 8587 H 794.42 4.80391 -2.65548 0
M  V30 8588 H 794.681 4.30861 -0.990536 0
M  V30 8589 N 793.74 1.17359 1.05189 0
M  V30 8590 C 794.65 0.904984 2.16442 0
M  V30 8591 C 795.666 -0.12686 1.73537 0
M  V30 8592 O 796.842 0.0524127 2.01332 0
M  V30 8593 C 793.907 0.422019 3.44122 0
M  V30 8594 C 792.968 1.52045 4.01473 0
M  V30 8595 C 792.201 1.06044 5.23059 0
M  V30 8596 O 792.424 -0.0854023 5.70336 0
M  V30 8597 O 791.358 1.85349 5.72651 0
M  V30 8598 H 795.184 1.8356 2.41949 0
M  V30 8599 H 792.769 0.95447 1.14936 0
M  V30 8600 H 794.651 0.160208 4.21095 0
M  V30 8601 H 793.326 -0.480444 3.20115 0
M  V30 8602 H 792.233 1.83615 3.25939 0
M  V30 8603 H 793.566 2.39863 4.29798 0
M  V30 8604 N 795.218 -1.23913 0.973828 0
M  V30 8605 C 796.466 -1.91771 0.637817 0
M  V30 8606 C 796.787 -1.76434 -0.830435 0
M  V30 8607 O 796.057 -1.13965 -1.59339 0
M  V30 8608 H 794.637 -0.709761 0.232912 0
M  V30 8609 H 797.299 -1.50677 1.23622 0
M  V30 8610 H 796.395 -2.99327 0.883731 0
M  V30 8611 N 796.696 -0.74468 -1.38897 0
M  V30 8612 C 798.112 -0.421302 -1.53939 0
M  V30 8613 C 798.312 1.06668 -1.70951 0
M  V30 8614 O 797.368 1.85278 -1.71547 0
M  V30 8615 C 798.681 -1.21278 -2.75159 0
M  V30 8616 C 800.229 -1.20196 -2.89001 0
M  V30 8617 C 800.704 -1.97621 -4.13171 0
M  V30 8618 N 802.195 -1.94836 -4.2023 0
M  V30 8619 C 802.93 -2.51545 -5.15279 0
M  V30 8620 N 802.426 -3.1693 -6.16058 0
M  V30 8621 N 804.219 -2.41524 -5.07565 0
M  V30 8622 H 796.37 -1.70914 -1.26103 0
M  V30 8623 H 798.633 -0.724058 -0.611919 0
M  V30 8624 H 798.339 -2.26609 -2.68963 0
M  V30 8625 H 798.213 -0.823677 -3.68097 0
M  V30 8626 H 800.6 -0.156742 -2.94683 0
M  V30 8627 H 800.681 -1.63051 -1.97099 0
M  V30 8628 H 800.325 -3.02149 -4.0825 0
M  V30 8629 H 800.255 -1.52166 -5.04136 0
M  V30 8630 H 802.746 -1.4721 -3.48048 0
M  V30 8631 H 803.059 -3.57644 -6.85062 0
M  V30 8632 H 801.404 -3.21023 -6.16417 0
M  V30 8633 H 804.595 -1.90077 -4.27771 0
M  V30 8634 H 804.768 -2.86016 -5.81462 0
M  V30 8635 N 798.174 1.49689 -0.493057 0
M  V30 8636 C 799.122 2.30613 0.303383 0
M  V30 8637 C 800.116 1.38867 0.970165 0
M  V30 8638 O 801.322 1.55956 0.898761 0
M  V30 8639 H 797.697 0.742891 0.116691 0
M  V30 8640 H 799.668 2.95717 -0.39924 0
M  V30 8641 C 798.417 3.20008 1.35978 0
M  V30 8642 H 797.74 3.90526 0.856103 0
M  V30 8643 H 799.18 3.79586 1.88919 0
M  V30 8644 C 797.639 2.39079 2.37367 0
M  V30 8645 O 798.169 2.08933 3.43089 0
M  V30 8646 N 796.375 2.0125 2.09635 0
M  V30 8647 H 795.922 2.25966 1.23682 0
M  V30 8648 H 795.88 1.47408 2.77702 0
M  V30 8649 N 799.652 0.226554 1.55963 0
M  V30 8650 C 800.562 -0.692725 2.24139 0
M  V30 8651 C 801.578 -1.20971 1.25068 0
M  V30 8652 O 802.754 -1.25027 1.57893 0
M  V30 8653 C 799.819 -1.88183 2.91184 0
M  V30 8654 C 798.88 -1.40633 4.05612 0
M  V30 8655 C 798.113 -2.53875 4.6945 0
M  V30 8656 O 798.336 -3.72129 4.32292 0
M  V30 8657 O 797.27 -2.24792 5.58348 0
M  V30 8658 H 801.096 -0.141921 3.03368 0
M  V30 8659 H 798.681 -0.0041049 1.49399 0
M  V30 8660 H 800.563 -2.57617 3.33484 0
M  V30 8661 H 799.238 -2.42064 2.14911 0
M  V30 8662 H 798.145 -0.67986 3.67871 0
M  V30 8663 H 799.478 -0.913838 4.83642 0
M  V30 8664 N 801.13 -1.57531 -0.0467866 0
M  V30 8665 C 802.355 -1.93087 -0.757123 0
M  V30 8666 C 802.78 -0.825116 -1.69037 0
M  V30 8667 O 802.138 0.220449 -1.79955 0
M  V30 8668 C 802.186 -3.27669 -1.5055 0
M  V30 8669 O 801.29 -3.18667 -2.61773 0
M  V30 8670 H 800.631 -0.631597 -0.204892 0
M  V30 8671 H 803.161 -2.04599 -0.00755232 0
M  V30 8672 H 803.171 -3.6214 -1.87932 0
M  V30 8673 H 801.846 -4.07717 -0.820931 0
M  V30 8674 H 800.423 -2.95798 -2.27064 0
M  V30 8675 N 802.608 0.318715 -1.54344 0
M  V30 8676 C 803.838 1.07394 -1.76494 0
M  V30 8677 C 804.246 1.82031 -0.515881 0
M  V30 8678 O 803.589 1.7609 0.52325 0
M  V30 8679 C 803.651 2.11401 -2.90775 0
M  V30 8680 C 803.315 1.56118 -4.29507 0
M  V30 8681 C 804.312 1.00043 -5.10184 0
M  V30 8682 C 801.997 1.60215 -4.76063 0
M  V30 8683 C 803.991 0.487993 -6.35529 0
M  V30 8684 C 801.678 1.08584 -6.01376 0
M  V30 8685 C 802.676 0.529714 -6.80943 0
M  V30 8686 O 802.364 0.0211823 -8.03897 0
M  V30 8687 H 802.096 0.325061 -0.592715 0
M  V30 8688 H 804.65 0.36901 -2.02058 0
M  V30 8689 H 802.88 2.85524 -2.60793 0
M  V30 8690 H 804.569 2.72683 -3.00664 0
M  V30 8691 H 805.335 0.961811 -4.75367 0
M  V30 8692 H 801.214 2.02441 -4.14172 0
M  V30 8693 H 804.758 0.0532608 -6.9758 0
M  V30 8694 H 800.655 1.12155 -6.35682 0
M  V30 8695 H 801.423 0.136151 -8.18387 0
M  V30 8696 N 804.086 1.46499 0.581025 0
M  V30 8697 C 805.333 1.51896 1.33918 0
M  V30 8698 C 805.661 0.171361 1.93744 0
M  V30 8699 O 804.916 -0.833178 1.77078 0
M  V30 8700 C 805.215 2.56686 2.48691 0
M  V30 8701 C 804.881 4.00656 2.06847 0
M  V30 8702 C 803.543 4.39852 1.9515 0
M  V30 8703 C 805.895 4.91089 1.74589 0
M  V30 8704 C 803.223 5.67345 1.49456 0
M  V30 8705 C 805.575 6.1902 1.30373 0
M  V30 8706 C 804.239 6.57121 1.17255 0
M  V30 8707 H 803.509 0.555826 0.490039 0
M  V30 8708 H 806.156 1.79983 0.654092 0
M  V30 8709 H 804.461 2.22266 3.22653 0
M  V30 8710 H 806.158 2.58091 3.06904 0
M  V30 8711 H 802.748 3.69674 2.16886 0
M  V30 8712 H 806.932 4.61523 1.8251 0
M  V30 8713 H 802.188 5.95635 1.37944 0
M  V30 8714 H 806.362 6.8852 1.04467 0
M  V30 8715 H 803.989 7.55805 0.816236 0
M  V30 8716 N 805.565 -0.825799 1.34232 0
M  V30 8717 C 806.495 -1.95151 1.28212 0
M  V30 8718 C 807.476 -1.69345 0.160123 0
M  V30 8719 O 808.661 -1.90983 0.352019 0
M  V30 8720 C 805.791 -3.31554 1.03388 0
M  V30 8721 C 804.745 -3.71793 2.12023 0
M  V30 8722 C 804.071 -5.06147 1.72392 0
M  V30 8723 C 805.371 -3.84193 3.53826 0
M  V30 8724 H 807.065 -2.00445 2.22401 0
M  V30 8725 H 804.611 -0.962996 1.07063 0
M  V30 8726 H 806.564 -4.09889 0.978225 0
M  V30 8727 H 805.288 -3.26551 0.0564142 0
M  V30 8728 H 803.947 -2.95731 2.16654 0
M  V30 8729 H 803.595 -4.97628 0.733137 0
M  V30 8730 H 803.295 -5.34041 2.451 0
M  V30 8731 H 804.819 -5.86943 1.68317 0
M  V30 8732 H 806.233 -4.52806 3.51624 0
M  V30 8733 H 804.63 -4.23538 4.2513 0
M  V30 8734 H 805.7 -2.86272 3.91377 0
M  V30 8735 N 807.043 -1.17915 -1.04565 0
M  V30 8736 C 808.459 -0.927761 -1.29864 0
M  V30 8737 C 808.659 0.409536 -1.97294 0
M  V30 8738 O 807.715 1.14505 -2.25044 0
M  V30 8739 C 809.028 -2.08967 -2.16225 0
M  V30 8740 C 810.576 -2.12741 -2.29587 0
M  V30 8741 C 811.051 -3.28335 -3.19312 0
M  V30 8742 N 812.542 -3.28164 -3.26898 0
M  V30 8743 C 813.277 -4.14249 -3.96466 0
M  V30 8744 N 812.773 -5.10457 -4.68407 0
M  V30 8745 N 814.566 -4.02179 -3.92694 0
M  V30 8746 H 806.717 -2.03983 -0.592011 0
M  V30 8747 H 808.98 -0.891023 -0.323701 0
M  V30 8748 H 808.686 -3.05654 -1.73979 0
M  V30 8749 H 808.56 -2.04606 -3.16885 0
M  V30 8750 H 810.947 -1.16636 -2.71072 0
M  V30 8751 H 811.028 -2.21162 -1.28535 0
M  V30 8752 H 810.672 -4.2471 -2.78539 0
M  V30 8753 H 810.602 -3.17151 -4.20384 0
M  V30 8754 H 813.093 -2.58511 -2.75646 0
M  V30 8755 H 813.406 -5.72526 -5.1907 0
M  V30 8756 H 811.751 -5.14422 -4.67328 0
M  V30 8757 H 814.942 -3.26308 -3.3562 0
M  V30 8758 H 815.115 -4.69486 -4.4664 0
M  V30 8759 N 808.521 1.23394 -0.980386 0
M  V30 8760 C 809.468 2.24859 -0.520298 0
M  V30 8761 C 810.438 1.60144 0.440821 0
M  V30 8762 O 811.623 1.87593 0.348369 0
M  V30 8763 C 808.763 3.44675 0.171145 0
M  V30 8764 C 807.876 4.23947 -0.830233 0
M  V30 8765 C 807.011 5.31079 -0.113597 0
M  V30 8766 C 806.05 6.02058 -1.10419 0
M  V30 8767 N 805.187 7.00862 -0.416709 0
M  V30 8768 H 810.027 2.63579 -1.39032 0
M  V30 8769 H 807.564 1.29556 -0.696682 0
M  V30 8770 H 809.522 4.13024 0.588838 0
M  V30 8771 H 808.152 3.06755 1.00504 0
M  V30 8772 H 807.204 3.55016 -1.36631 0
M  V30 8773 H 808.516 4.72945 -1.58508 0
M  V30 8774 H 807.67 6.05622 0.36146 0
M  V30 8775 H 806.409 4.83022 0.673854 0
M  V30 8776 H 805.414 5.26307 -1.59 0
M  V30 8777 H 806.639 6.52203 -1.8923 0
M  V30 8778 H 804.585 6.55057 0.351535 0
M  V30 8779 H 804.502 7.47804 -1.11021 0
M  V30 8780 H 805.77 7.79492 0.0359606 0
M  V30 8781 N 809.999 0.752036 1.385 0
M  V30 8782 C 811.229 0.317812 2.04141 0
M  V30 8783 C 811.637 -1.05822 1.56839 0
M  V30 8784 O 810.98 -1.68311 0.736016 0
M  V30 8785 C 811.042 0.260205 3.58557 0
M  V30 8786 C 810.706 1.57753 4.28909 0
M  V30 8787 C 811.703 2.52642 4.54387 0
M  V30 8788 C 809.388 1.84653 4.67128 0
M  V30 8789 C 811.382 3.72653 5.17116 0
M  V30 8790 C 809.069 3.04938 5.29581 0
M  V30 8791 C 810.067 3.98759 5.54509 0
M  V30 8792 O 809.755 5.16929 6.15662 0
M  V30 8793 H 809.487 0.133931 0.6626 0
M  V30 8794 H 812.041 1.02138 1.78205 0
M  V30 8795 H 810.271 -0.499596 3.83459 0
M  V30 8796 H 811.96 -0.144295 4.05643 0
M  V30 8797 H 812.726 2.33135 4.25292 0
M  V30 8798 H 808.605 1.12464 4.47071 0
M  V30 8799 H 812.149 4.45898 5.36489 0
M  V30 8800 H 808.046 3.24339 5.58099 0
M  V30 8801 H 808.814 5.1749 6.3415 0
M  V30 8802 N 811.477 -1.49425 0.500989 0
M  V30 8803 C 812.425 -2.30771 -0.291149 0
M  V30 8804 C 813.419 -1.3938 -0.962787 0
M  V30 8805 O 814.625 -1.56431 -0.890477 0
M  V30 8806 H 811 -0.743499 -0.11275 0
M  V30 8807 H 812.971 -2.95501 0.414917 0
M  V30 8808 C 811.72 -3.20725 -1.34279 0
M  V30 8809 H 811.043 -3.90975 -0.83538 0
M  V30 8810 H 812.483 -3.80583 -1.86903 0
M  V30 8811 C 810.942 -2.40334 -2.36095 0
M  V30 8812 O 811.472 -2.10749 -3.41976 0
M  V30 8813 N 809.678 -2.02359 -2.08565 0
M  V30 8814 H 809.225 -2.26619 -1.22482 0
M  V30 8815 H 809.183 -1.48878 -2.76916 0
M  V30 8816 N 812.955 -0.234822 -1.55841 0
M  V30 8817 C 813.905 0.68346 -2.17515 0
M  V30 8818 C 814.889 1.14798 -1.1274 0
M  V30 8819 O 816.081 1.09976 -1.38688 0
M  V30 8820 C 813.21 1.88551 -2.86886 0
M  V30 8821 C 812.296 1.44006 -3.98903 0
M  V30 8822 N 812.687 0.708034 -5.0082 0
M  V30 8823 C 810.985 1.7263 -4.11236 0
M  V30 8824 C 811.686 0.479036 -5.79724 0
M  V30 8825 N 810.662 1.03968 -5.33565 0
M  V30 8826 H 814.464 0.115897 -2.93671 0
M  V30 8827 H 811.978 -0.0366273 -1.62359 0
M  V30 8828 H 813.975 2.55425 -3.2949 0
M  V30 8829 H 812.635 2.45742 -2.12229 0
M  V30 8830 H 813.646 0.359363 -5.16652 0
M  V30 8831 H 810.323 2.31046 -3.47741 0
M  V30 8832 H 811.713 -0.104514 -6.71819 0
M  V30 8833 N 814.433 1.57553 0.0384317 0
M  V30 8834 C 815.679 1.89121 0.732199 0
M  V30 8835 C 816.012 0.831404 1.75503 0
M  V30 8836 O 815.287 -0.154642 1.93884 0
M  V30 8837 C 815.57 3.31338 1.41021 0
M  V30 8838 C 815.423 4.48004 0.401532 0
M  V30 8839 C 816.742 3.72318 2.34665 0
M  V30 8840 H 813.861 0.687819 0.264715 0
M  V30 8841 H 816.503 1.89999 -0.00496279 0
M  V30 8842 H 814.653 3.3072 2.03854 0
M  V30 8843 H 816.325 4.60755 -0.224159 0
M  V30 8844 H 814.568 4.32895 -0.280092 0
M  V30 8845 H 815.239 5.44377 0.91423 0
M  V30 8846 H 817.715 3.74243 1.81883 0
M  V30 8847 H 816.591 4.72652 2.7909 0
M  V30 8848 H 816.852 3.04062 3.20934 0
M  V30 8849 N 815.911 -0.310526 1.54511 0
M  V30 8850 C 816.858 -1.38264 1.84802 0
M  V30 8851 C 817.828 -1.50808 0.696141 0
M  V30 8852 O 819.013 -1.6582 0.943846 0
M  V30 8853 C 816.153 -2.74422 2.09252 0
M  V30 8854 C 815.266 -2.70405 3.36906 0
M  V30 8855 C 814.401 -3.98495 3.51248 0
M  V30 8856 C 813.44 -3.88836 4.72729 0
M  V30 8857 N 812.577 -5.08683 4.83928 0
M  V30 8858 H 817.417 -1.11732 2.76261 0
M  V30 8859 H 814.954 -0.540609 1.36806 0
M  V30 8860 H 816.912 -3.53593 2.21422 0
M  V30 8861 H 815.542 -2.99235 1.2107 0
M  V30 8862 H 814.594 -1.83151 3.33406 0
M  V30 8863 H 815.906 -2.59155 4.26193 0
M  V30 8864 H 815.06 -4.861 3.63031 0
M  V30 8865 H 813.799 -4.12567 2.60077 0
M  V30 8866 H 812.804 -2.99615 4.60989 0
M  V30 8867 H 814.029 -3.76318 5.65298 0
M  V30 8868 H 811.975 -5.23236 3.95677 0
M  V30 8869 H 811.892 -4.99819 5.67201 0
M  V30 8870 H 813.16 -5.97966 5.00057 0
M  V30 8871 N 817.389 -1.46805 -0.573248 0
M  V30 8872 C 818.352 -1.57655 -1.66366 0
M  V30 8873 C 819.352 -0.452905 -1.5429 0
M  V30 8874 O 820.542 -0.717502 -1.58737 0
M  V30 8875 C 817.674 -1.50584 -3.05839 0
M  V30 8876 H 818.867 -2.54842 -1.581 0
M  V30 8877 H 816.42 -1.34756 -0.791868 0
M  V30 8878 H 817.155 -0.547127 -3.19651 0
M  V30 8879 H 816.94 -2.32118 -3.16012 0
M  V30 8880 H 818.43 -1.61282 -3.85199 0
M  V30 8881 N 818.867 0.818669 -1.34668 0
M  V30 8882 C 819.797 1.94468 -1.29245 0
M  V30 8883 C 820.778 1.69257 -0.169101 0
M  V30 8884 O 821.963 1.90794 -0.362143 0
M  V30 8885 C 819.093 3.31001 -1.05145 0
M  V30 8886 C 818.047 3.70663 -2.13992 0
M  V30 8887 C 817.373 5.05226 -1.75074 0
M  V30 8888 C 818.673 3.82312 -3.55858 0
M  V30 8889 H 820.367 1.99263 -2.2346 0
M  V30 8890 H 817.913 0.957304 -1.07572 0
M  V30 8891 H 819.866 4.09364 -0.999949 0
M  V30 8892 H 818.59 3.26517 -0.0737312 0
M  V30 8893 H 817.249 2.94578 -2.18219 0
M  V30 8894 H 816.897 4.97233 -0.759518 0
M  V30 8895 H 816.597 5.32734 -2.47928 0
M  V30 8896 H 818.121 5.86042 -1.71427 0
M  V30 8897 H 819.535 4.50935 -3.5402 0
M  V30 8898 H 817.932 4.21278 -4.2737 0
M  V30 8899 H 819.002 2.84193 -3.9289 0
M  V30 8900 N 820.346 1.18468 1.03938 0
M  V30 8901 C 821.278 0.870615 2.12021 0
M  V30 8902 C 822.291 -0.132318 1.62261 0
M  V30 8903 O 823.48 0.0956901 1.78243 0
M  V30 8904 C 820.58 0.279727 3.37744 0
M  V30 8905 C 819.753 1.32863 4.16733 0
M  V30 8906 C 818.812 0.753204 5.20781 0
M  V30 8907 O 817.838 1.42825 5.5099 0
M  V30 8908 N 819.04 -0.448664 5.78764 0
M  V30 8909 H 821.805 1.80091 2.39556 0
M  V30 8910 H 819.366 1.08524 1.20142 0
M  V30 8911 H 821.358 -0.118829 4.04526 0
M  V30 8912 H 819.928 -0.554621 3.07641 0
M  V30 8913 H 819.148 1.90245 3.45254 0
M  V30 8914 H 820.436 2.03574 4.66299 0
M  V30 8915 H 819.834 -1.01481 5.56523 0
M  V30 8916 H 818.391 -0.789125 6.47005 0
M  V30 8917 N 821.824 -1.22873 0.986916 0
M  V30 8918 C 822.756 -2.23889 0.490537 0
M  V30 8919 C 823.769 -1.57523 -0.411144 0
M  V30 8920 O 824.958 -1.7721 -0.214236 0
M  V30 8921 C 822.058 -3.37488 -0.30902 0
M  V30 8922 C 821.231 -4.33438 0.587354 0
M  V30 8923 C 820.29 -5.25958 -0.159467 0
M  V30 8924 O 819.316 -5.67394 0.453115 0
M  V30 8925 N 820.518 -5.62265 -1.44355 0
M  V30 8926 H 823.283 -2.67109 1.35914 0
M  V30 8927 H 820.844 -1.37111 0.860937 0
M  V30 8928 H 822.836 -3.96365 -0.817139 0
M  V30 8929 H 821.406 -2.934 -1.07868 0
M  V30 8930 H 820.626 -3.72969 1.27622 0
M  V30 8931 H 821.914 -4.94495 1.19801 0
M  V30 8932 H 821.312 -5.30562 -1.96266 0
M  V30 8933 H 819.869 -6.23585 -1.89698 0
M  V30 8934 N 823.302 -0.75937 -1.38099 0
M  V30 8935 C 824.234 -0.0956547 -2.29 0
M  V30 8936 C 825.247 0.677561 -1.4803 0
M  V30 8937 O 826.436 0.517696 -1.70828 0
M  V30 8938 C 823.536 0.88844 -3.27047 0
M  V30 8939 C 822.709 0.171652 -4.37063 0
M  V30 8940 C 821.768 1.06733 -5.15262 0
M  V30 8941 O 820.794 0.535698 -5.66674 0
M  V30 8942 N 821.996 2.39486 -5.28797 0
M  V30 8943 H 824.761 -0.876354 -2.86601 0
M  V30 8944 H 822.322 -0.61065 -1.49942 0
M  V30 8945 H 824.314 1.49079 -3.76241 0
M  V30 8946 H 822.884 1.57018 -2.70304 0
M  V30 8947 H 822.104 -0.611473 -3.89429 0
M  V30 8948 H 823.392 -0.324121 -5.07767 0
M  V30 8949 H 822.79 2.85127 -4.88589 0
M  V30 8950 H 821.347 2.94758 -5.81344 0
M  V30 8951 N 824.78 1.49157 -0.508906 0
M  V30 8952 C 825.713 2.26056 0.312103 0
M  V30 8953 C 826.691 1.30982 0.963456 0
M  V30 8954 O 827.875 1.60286 0.992002 0
M  V30 8955 C 825.002 3.06555 1.4402 0
M  V30 8956 C 824.048 4.16844 0.902414 0
M  V30 8957 S 824.881 5.35076 -0.213087 0
M  V30 8958 C 826.037 6.19132 0.917985 0
M  V30 8959 H 826.27 2.95343 -0.340559 0
M  V30 8960 H 823.803 1.51569 -0.294331 0
M  V30 8961 H 825.761 3.53517 2.08653 0
M  V30 8962 H 824.422 2.36722 2.0645 0
M  V30 8963 H 823.615 4.72714 1.74806 0
M  V30 8964 H 823.217 3.72513 0.333156 0
M  V30 8965 H 825.509 6.52556 1.82145 0
M  V30 8966 H 826.452 7.06982 0.397724 0
M  V30 8967 H 826.86 5.51839 1.18889 0
M  V30 8968 N 826.258 0.243083 1.55714 0
M  V30 8969 C 827.505 -0.38272 1.9885 0
M  V30 8970 C 827.833 -1.58225 1.13115 0
M  V30 8971 O 827.088 -1.94861 0.181067 0
M  V30 8972 C 827.387 -0.839621 3.47398 0
M  V30 8973 C 827.053 0.251737 4.50197 0
M  V30 8974 C 825.715 0.551487 4.78029 0
M  V30 8975 C 828.067 0.988728 5.11736 0
M  V30 8976 C 825.395 1.59237 5.64677 0
M  V30 8977 C 827.747 2.0191 5.99512 0
M  V30 8978 C 826.411 2.32554 6.2568 0
M  V30 8979 H 825.681 -0.140047 0.727645 0
M  V30 8980 H 828.328 0.35011 1.88272 0
M  V30 8981 H 826.633 -1.65159 3.55288 0
M  V30 8982 H 828.33 -1.33404 3.78159 0
M  V30 8983 H 824.92 0.00796741 4.28599 0
M  V30 8984 H 829.104 0.7704 4.90284 0
M  V30 8985 H 824.36 1.83517 5.83208 0
M  V30 8986 H 828.534 2.59511 6.46241 0
M  V30 8987 H 826.161 3.13349 6.92616 0
M  V30 8988 N 827.736 -1.57571 -0.0300757 0
M  V30 8989 C 828.966 -1.93204 -0.731828 0
M  V30 8990 C 829.374 -0.841156 -1.69473 0
M  V30 8991 O 828.717 0.191231 -1.82702 0
M  V30 8992 C 828.779 -3.2463 -1.54453 0
M  V30 8993 C 828.443 -4.50862 -0.746507 0
M  V30 8994 C 829.44 -5.19879 -0.0472309 0
M  V30 8995 C 827.125 -4.9738 -0.701347 0
M  V30 8996 C 829.119 -6.33692 0.686518 0
M  V30 8997 C 826.806 -6.11089 0.036148 0
M  V30 8998 C 827.804 -6.791 0.728841 0
M  V30 8999 O 827.492 -7.90635 1.45436 0
M  V30 9000 H 827.224 -0.6423 -0.210775 0
M  V30 9001 H 829.778 -2.05398 0.00804194 0
M  V30 9002 H 828.008 -3.0876 -2.32818 0
M  V30 9003 H 829.697 -3.45597 -2.1288 0
M  V30 9004 H 830.463 -4.84945 -0.0731582 0
M  V30 9005 H 826.342 -4.44288 -1.23001 0
M  V30 9006 H 829.886 -6.86711 1.22773 0
M  V30 9007 H 825.783 -6.45468 0.064002 0
M  V30 9008 H 826.551 -8.06988 1.36794 0
M  V30 9009 N 829.214 0.302327 -1.54673 0
M  V30 9010 C 830.463 1.03533 -1.73101 0
M  V30 9011 C 830.776 1.88473 -0.523174 0
M  V30 9012 O 831.982 2.65029 -0.589229 0
M  V30 9013 C 830.438 1.89043 -3.06252 0
M  V30 9014 C 830.046 1.09112 -4.3451 0
M  V30 9015 C 831.79 2.61951 -3.34039 0
M  V30 9016 C 829.697 1.93891 -5.58713 0
M  V30 9017 H 828.627 0.390261 -0.645145 0
M  V30 9018 H 831.278 0.2924 -1.81155 0
M  V30 9019 H 829.66 2.67319 -2.92159 0
M  V30 9020 H 830.834 0.354596 -4.59434 0
M  V30 9021 H 829.149 0.477923 -4.13648 0
M  V30 9022 H 831.746 3.25729 -4.24033 0
M  V30 9023 H 832.089 3.30711 -2.52855 0
M  V30 9024 H 832.622 1.90725 -3.49097 0
M  V30 9025 H 829.361 1.29604 -6.4256 0
M  V30 9026 H 828.881 2.6522 -5.37976 0
M  V30 9027 H 830.56 2.51971 -5.95919 0
M  V30 9028 N 830.692 1.47107 0.565454 0
M  V30 9029 C 831.969 1.43787 1.32607 0
M  V30 9030 C 832.349 0.130428 2.10697 0
M  V30 9031 O 831.697 -0.888086 2.10536 0
M  V30 9032 C 831.907 2.67833 2.23755 0
M  V30 9033 C 833.255 3.14704 2.85037 0
M  V30 9034 O 834.279 2.68503 2.34061 0
M  V30 9035 O 833.138 3.95002 3.77671 0
M  V30 9036 H 830.232 0.572623 0.596684 0
M  V30 9037 H 832.778 1.59296 0.58504 0
M  V30 9038 H 831.55 3.54532 1.65597 0
M  V30 9039 H 831.173 2.54869 3.05168 0
M  V30 9040 N 832.17 -0.811516 1.35101 0
M  V30 9041 C 833.102 -1.93102 1.23468 0
M  V30 9042 C 834.115 -1.62021 0.159095 0
M  V30 9043 O 835.304 -1.73682 0.411945 0
M  V30 9044 C 832.404 -3.27345 0.877404 0
M  V30 9045 C 831.577 -3.86368 2.05033 0
M  V30 9046 C 830.636 -4.99009 1.66963 0
M  V30 9047 O 829.662 -5.16698 2.38772 0
M  V30 9048 N 830.864 -5.7749 0.590394 0
M  V30 9049 H 833.629 -2.0361 2.19916 0
M  V30 9050 H 831.19 -0.988687 1.28205 0
M  V30 9051 H 833.182 -4.00163 0.604298 0
M  V30 9052 H 831.752 -3.126 0.00275267 0
M  V30 9053 H 830.972 -3.05804 2.48752 0
M  V30 9054 H 832.26 -4.22533 2.83449 0
M  V30 9055 H 831.658 -5.657 -0.00633259 0
M  V30 9056 H 830.215 -6.50708 0.377055 0
M  V30 9057 N 833.648 -1.19017 -1.03309 0
M  V30 9058 C 834.876 -1.01534 -1.80273 0
M  V30 9059 C 835.291 0.43605 -1.83696 0
M  V30 9060 O 834.648 1.30288 -1.27794 0
M  V30 9061 C 834.699 -1.5722 -3.25522 0
M  V30 9062 O 834.42 -2.96677 -3.22358 0
M  V30 9063 C 835.921 -1.4446 -4.19102 0
M  V30 9064 H 833.141 -0.358094 -0.567459 0
M  V30 9065 H 835.685 -1.57738 -1.3015 0
M  V30 9066 H 833.84 -1.05174 -3.7285 0
M  V30 9067 H 834.254 -3.22795 -4.13405 0
M  V30 9068 H 835.728 -1.88209 -5.18923 0
M  V30 9069 H 836.205 -0.394471 -4.37425 0
M  V30 9070 H 836.811 -1.95616 -3.77643 0
M  V30 9071 N 835.127 1.22348 -0.993418 0
M  V30 9072 C 836.352 1.95666 -0.687727 0
M  V30 9073 C 836.777 1.72883 0.741161 0
M  V30 9074 O 836.135 1.00837 1.50671 0
M  V30 9075 C 836.183 3.46457 -0.99998 0
M  V30 9076 O 835.287 4.12281 -0.0989386 0
M  V30 9077 H 834.628 0.612102 -0.257346 0
M  V30 9078 H 837.158 1.55428 -1.33054 0
M  V30 9079 H 837.168 3.96976 -0.942035 0
M  V30 9080 H 835.843 3.62365 -2.04118 0
M  V30 9081 H 834.42 3.72295 -0.212413 0
M  V30 9082 N 836.605 0.766683 1.37694 0
M  V30 9083 C 837.553 0.137269 2.32195 0
M  V30 9084 C 838.547 -0.69067 1.54681 0
M  V30 9085 O 839.753 -0.588299 1.70115 0
M  V30 9086 H 836.128 0.0256003 0.751564 0
M  V30 9087 H 838.099 0.950129 2.82869 0
M  V30 9088 C 836.848 -0.731446 3.39919 0
M  V30 9089 H 836.171 -0.103738 3.99665 0
M  V30 9090 H 837.611 -1.13891 4.08417 0
M  V30 9091 C 836.07 -1.87984 2.79578 0
M  V30 9092 O 836.6 -2.97496 2.69924 0
M  V30 9093 N 834.806 -1.6789 2.37195 0
M  V30 9094 H 834.353 -0.788162 2.45246 0
M  V30 9095 H 834.311 -2.44894 1.97165 0
M  V30 9096 N 838.083 -1.48885 0.516809 0
M  V30 9097 C 839.015 -2.27357 -0.290061 0
M  V30 9098 C 840.028 -1.34558 -0.916406 0
M  V30 9099 O 841.217 -1.59715 -0.797073 0
M  V30 9100 C 838.317 -3.07496 -1.42476 0
M  V30 9101 C 837.49 -4.27982 -0.902793 0
M  V30 9102 C 836.549 -4.90038 -1.91701 0
M  V30 9103 O 835.575 -5.49643 -1.47922 0
M  V30 9104 N 836.777 -4.811 -3.24843 0
M  V30 9105 H 839.542 -2.97244 0.382884 0
M  V30 9106 H 837.103 -1.58064 0.35032 0
M  V30 9107 H 839.095 -3.45882 -2.10113 0
M  V30 9108 H 837.665 -2.40115 -2.00159 0
M  V30 9109 H 836.885 -3.94167 -0.0508272 0
M  V30 9110 H 838.173 -5.06003 -0.532723 0
M  V30 9111 H 837.571 -4.33801 -3.63088 0
M  V30 9112 H 836.128 -5.23625 -3.8815 0
M  V30 9113 N 839.561 -0.251338 -1.55583 0
M  V30 9114 C 840.509 0.662534 -2.22965 0
M  V30 9115 C 841.503 1.17662 -1.21869 0
M  V30 9116 O 842.709 1.133 -1.39868 0
M  V30 9117 H 839.084 0.232151 -0.715269 0
M  V30 9118 H 841.055 0.0711252 -2.98315 0
M  V30 9119 C 839.804 1.84646 -2.94621 0
M  V30 9120 H 839.127 1.46003 -3.72187 0
M  V30 9121 H 840.567 2.46303 -3.45124 0
M  V30 9122 C 839.026 2.72034 -1.98744 0
M  V30 9123 O 839.556 3.71695 -1.52335 0
M  V30 9124 N 837.762 2.38695 -1.6575 0
M  V30 9125 H 837.309 1.57702 -2.03685 0
M  V30 9126 H 837.267 2.9744 -1.01867 0
M  V30 9127 N 841.039 1.57585 0.0217189 0
M  V30 9128 C 842.45 1.7787 0.567377 0
M  V30 9129 C 842.801 0.883337 1.7519 0
M  V30 9130 O 841.926 0.0800819 2.16252 0
M  V30 9131 C 842.521 3.2257 1.03606 0
M  V30 9132 C 841.08 3.44026 1.52718 0
M  V30 9133 C 840.227 2.73313 0.468545 0
M  V30 9134 H 843.178 1.57377 -0.2045 0
M  V30 9135 H 843.199 3.29488 1.9031 0
M  V30 9136 H 842.711 3.87711 0.173739 0
M  V30 9137 H 840.812 2.8407 2.41111 0
M  V30 9138 H 840.925 4.52659 1.56962 0
M  V30 9139 H 839.289 2.37299 0.925263 0
M  V30 9140 H 840.072 3.41141 -0.384438 0
M  V30 9141 N 842.517 -0.29412 1.54831 0
M  V30 9142 C 843.747 -1.04572 1.7818 0
M  V30 9143 C 844.155 -1.81187 0.544776 0
M  V30 9144 O 843.498 -1.769 -0.495169 0
M  V30 9145 C 843.56 -2.06748 2.94101 0
M  V30 9146 C 843.224 -1.49265 4.31936 0
M  V30 9147 C 844.221 -0.919136 5.11711 0
M  V30 9148 C 841.906 -1.52621 4.78552 0
M  V30 9149 C 843.9 -0.386824 6.36225 0
M  V30 9150 C 841.587 -0.990031 6.03027 0
M  V30 9151 C 842.585 -0.421315 6.81699 0
M  V30 9152 O 842.273 0.106713 8.03829 0
M  V30 9153 H 842.005 -0.31559 0.597812 0
M  V30 9154 H 844.559 -0.336817 2.0262 0
M  V30 9155 H 842.789 -2.81339 2.65303 0
M  V30 9156 H 844.478 -2.67865 3.04964 0
M  V30 9157 H 845.244 -0.886062 4.76837 0
M  V30 9158 H 841.123 -1.95826 4.17341 0
M  V30 9159 H 844.667 0.0577248 6.97576 0
M  V30 9160 H 840.564 -1.02027 6.37386 0
M  V30 9161 H 841.332 -0.00593526 8.185 0
M  V30 9162 N 843.995 -1.47404 -0.557645 0
M  V30 9163 C 844.927 -1.55917 -1.67995 0
M  V30 9164 C 845.94 -0.445411 -1.56588 0
M  V30 9165 O 847.129 -0.714999 -1.63554 0
M  V30 9166 C 844.229 -1.44697 -3.06457 0
M  V30 9167 C 843.402 -2.70633 -3.43622 0
M  V30 9168 C 842.461 -2.53256 -4.61246 0
M  V30 9169 O 841.487 -3.27068 -4.65849 0
M  V30 9170 N 842.689 -1.61053 -5.57711 0
M  V30 9171 H 845.454 -2.52694 -1.61139 0
M  V30 9172 H 843.015 -1.43778 -0.744271 0
M  V30 9173 H 845.007 -1.30806 -3.82978 0
M  V30 9174 H 843.577 -0.560039 -3.07542 0
M  V30 9175 H 842.797 -2.99288 -2.56555 0
M  V30 9176 H 844.085 -3.5424 -3.65228 0
M  V30 9177 H 843.483 -1.00235 -5.56749 0
M  V30 9178 H 842.04 -1.53115 -6.33561 0
M  V30 9179 N 845.473 0.80434 -1.35529 0
M  V30 9180 C 846.884 1.37849 -1.25915 0
M  V30 9181 C 847.235 1.95905 0.107495 0
M  V30 9182 O 846.36 1.91462 1.00852 0
M  V30 9183 C 846.955 2.50608 -2.27994 0
M  V30 9184 C 845.514 3.03879 -2.22114 0
M  V30 9185 C 844.661 1.76856 -2.13582 0
M  V30 9186 H 847.612 0.607192 -1.46625 0
M  V30 9187 H 847.633 3.29221 -1.90772 0
M  V30 9188 H 847.145 2.08323 -3.27449 0
M  V30 9189 H 845.246 3.50622 -1.26077 0
M  V30 9190 H 845.359 3.61707 -3.14173 0
M  V30 9191 H 843.723 1.98498 -1.59595 0
M  V30 9192 H 844.506 1.36721 -3.14901 0
M  V30 9193 N 846.951 1.19563 1.02676 0
M  V30 9194 C 848.199 0.997593 1.75763 0
M  V30 9195 C 848.52 -0.47253 1.89188 0
M  V30 9196 O 847.79 -1.34214 1.42701 0
M  V30 9197 H 846.37 0.366128 0.651122 0
M  V30 9198 H 849.032 1.50495 1.23844 0
M  V30 9199 H 848.128 1.44741 2.76508 0
M  V30 9200 N 848.429 -1.21819 0.999893 0
M  V30 9201 C 849.675 -1.91035 0.680701 0
M  V30 9202 C 850.008 -1.77582 -0.786021 0
M  V30 9203 O 849.283 -1.14917 -1.56921 0
M  V30 9204 C 849.566 -3.43013 1.0961 0
M  V30 9205 C 849.419 -3.65481 2.6219 0
M  V30 9206 C 850.738 -4.35204 0.654616 0
M  V30 9207 H 847.857 -0.693748 0.248763 0
M  V30 9208 H 850.499 -1.43555 1.24466 0
M  V30 9209 H 848.649 -3.83581 0.616253 0
M  V30 9210 H 850.321 -3.34273 3.17899 0
M  V30 9211 H 848.564 -3.09522 3.03938 0
M  V30 9212 H 849.235 -4.71945 2.86307 0
M  V30 9213 H 851.711 -4.0219 1.06688 0
M  V30 9214 H 850.587 -5.40198 0.973492 0
M  V30 9215 H 850.848 -4.3986 -0.444458 0
M  V30 9216 N 849.908 -0.773975 -1.37286 0
M  V30 9217 C 850.855 -0.159938 -2.30245 0
M  V30 9218 C 851.825 0.687356 -1.51211 0
M  V30 9219 O 853.01 0.639255 -1.79773 0
M  V30 9220 C 850.15 0.711452 -3.37687 0
M  V30 9221 C 849.263 -0.152692 -4.3173 0
M  V30 9222 C 848.398 0.723613 -5.26248 0
M  V30 9223 C 847.437 -0.14293 -6.11933 0
M  V30 9224 N 846.574 0.691479 -6.98687 0
M  V30 9225 H 851.414 -0.958182 -2.82175 0
M  V30 9226 H 848.951 -0.48411 -1.38906 0
M  V30 9227 H 850.909 1.2315 -3.9861 0
M  V30 9228 H 849.539 1.47528 -2.87116 0
M  V30 9229 H 848.591 -0.790574 -3.72094 0
M  V30 9230 H 849.903 -0.821027 -4.91997 0
M  V30 9231 H 849.057 1.31006 -5.92387 0
M  V30 9232 H 847.796 1.42562 -4.66398 0
M  V30 9233 H 846.801 -0.7419 -5.44771 0
M  V30 9234 H 848.026 -0.842305 -6.73856 0
M  V30 9235 H 845.972 1.37806 -6.41362 0
M  V30 9236 H 845.889 0.0804911 -7.55957 0
M  V30 9237 H 847.157 1.26225 -7.69212 0
M  V30 9238 N 851.386 1.48609 -0.524698 0
M  V30 9239 C 852.614 2.06899 0.00742946 0
M  V30 9240 C 853.029 1.38196 1.28637 0
M  V30 9241 O 852.386 0.467771 1.76403 0
M  V30 9242 C 852.437 3.60699 0.240548 0
M  V30 9243 O 852.158 4.26821 -0.987715 0
M  V30 9244 C 853.659 4.35769 0.813652 0
M  V30 9245 H 850.879 0.670278 -0.0311294 0
M  V30 9246 H 853.423 1.91071 -0.728832 0
M  V30 9247 H 851.578 3.76149 0.926845 0
M  V30 9248 H 851.992 5.18889 -0.765175 0
M  V30 9249 H 853.466 5.44174 0.926219 0
M  V30 9250 H 853.943 3.9984 1.81728 0
M  V30 9251 H 854.549 4.24983 0.164086 0
M  V30 9252 N 852.864 0.259585 1.55447 0
M  V30 9253 C 853.827 -0.621359 2.20617 0
M  V30 9254 C 854.827 -1.09317 1.17925 0
M  V30 9255 O 856.017 -0.995842 1.42929 0
M  V30 9256 C 853.149 -1.85546 2.85982 0
M  V30 9257 H 854.342 -0.0525833 2.99854 0
M  V30 9258 H 851.895 0.0101055 1.56297 0
M  V30 9259 H 852.63 -2.46515 2.10715 0
M  V30 9260 H 852.415 -1.52523 3.61219 0
M  V30 9261 H 853.905 -2.48227 3.35817 0
M  V30 9262 N 854.342 -1.57594 -0.0133615 0
M  V30 9263 C 855.57 -1.94251 -0.712328 0
M  V30 9264 C 855.985 -0.86063 -1.68043 0
M  V30 9265 O 855.342 0.161632 -1.81783 0
M  V30 9266 C 855.393 -3.30891 -1.45581 0
M  V30 9267 O 855.114 -4.34924 -0.526539 0
M  V30 9268 C 856.615 -3.81926 -2.2505 0
M  V30 9269 H 853.835 -0.640737 -0.199241 0
M  V30 9270 H 856.379 -2.04472 0.0337855 0
M  V30 9271 H 854.534 -3.22019 -2.15366 0
M  V30 9272 H 854.948 -5.1389 -1.04962 0
M  V30 9273 H 856.422 -4.79999 -2.72589 0
M  V30 9274 H 856.899 -3.13934 -3.07152 0
M  V30 9275 H 857.505 -3.93931 -1.60308 0
M  V30 9276 N 855.82 0.285905 -1.54985 0
M  V30 9277 C 857.236 0.632405 -1.46536 0
M  V30 9278 C 857.436 1.90074 -0.668888 0
M  V30 9279 O 856.492 2.51839 -0.182586 0
M  V30 9280 C 857.805 0.771361 -2.90638 0
M  V30 9281 C 859.353 0.866262 -3.00774 0
M  V30 9282 C 859.828 1.0371 -4.46103 0
M  V30 9283 N 861.319 1.10294 -4.49877 0
M  V30 9284 C 862.054 1.25369 -5.59527 0
M  V30 9285 N 861.55 1.37246 -6.7907 0
M  V30 9286 N 863.343 1.28377 -5.47244 0
M  V30 9287 H 855.494 -0.547226 -2.0523 0
M  V30 9288 H 857.757 -0.183298 -0.930111 0
M  V30 9289 H 857.463 -0.0899485 -3.51585 0
M  V30 9290 H 857.337 1.65569 -3.3892 0
M  V30 9291 H 859.724 1.71805 -2.39931 0
M  V30 9292 H 859.805 -0.0424049 -2.55765 0
M  V30 9293 H 859.449 0.190021 -5.07544 0
M  V30 9294 H 859.379 1.96022 -4.88757 0
M  V30 9295 H 861.87 1.02407 -3.6376 0
M  V30 9296 H 862.183 1.48546 -7.58389 0
M  V30 9297 H 860.528 1.34274 -6.81906 0
M  V30 9298 H 863.719 1.1872 -4.52795 0
M  V30 9299 H 863.892 1.39782 -6.32744 0
M  V30 9300 N 857.298 1.47698 0.54982 0
M  V30 9301 C 858.544 1.54931 1.30859 0
M  V30 9302 C 858.877 0.214021 1.93017 0
M  V30 9303 O 858.152 -0.778093 1.78258 0
M  V30 9304 C 858.435 2.67286 2.41309 0
M  V30 9305 C 858.288 4.10457 1.83971 0
M  V30 9306 C 859.607 2.75509 3.43195 0
M  V30 9307 H 856.726 0.56399 0.474431 0
M  V30 9308 H 859.368 1.79787 0.614541 0
M  V30 9309 H 857.518 2.46224 3.0051 0
M  V30 9310 H 859.19 4.42903 1.28974 0
M  V30 9311 H 857.433 4.18387 1.14606 0
M  V30 9312 H 858.104 4.84857 2.63851 0
M  V30 9313 H 860.58 2.94531 2.93923 0
M  V30 9314 H 859.456 3.55886 4.17895 0
M  V30 9315 H 859.717 1.82863 4.02509 0
M  V30 9316 N 858.776 -0.797141 1.35954 0
M  V30 9317 C 860.025 -1.54983 1.29086 0
M  V30 9318 C 860.338 -1.95167 -0.130003 0
M  V30 9319 O 861.544 -2.69596 -0.32101 0
M  V30 9320 C 860 -2.79738 2.26439 0
M  V30 9321 C 859.608 -2.46753 3.73921 0
M  V30 9322 C 861.352 -3.57733 2.28533 0
M  V30 9323 C 859.259 -3.67858 4.63071 0
M  V30 9324 H 858.189 -0.581766 0.479651 0
M  V30 9325 H 860.84 -0.87541 1.61273 0
M  V30 9326 H 859.222 -3.48939 1.87236 0
M  V30 9327 H 860.396 -1.85499 4.21814 0
M  V30 9328 H 858.711 -1.81985 3.74527 0
M  V30 9329 H 861.308 -4.47699 2.92351 0
M  V30 9330 H 861.651 -3.95754 1.29169 0
M  V30 9331 H 862.184 -2.95504 2.66313 0
M  V30 9332 H 858.923 -3.34939 5.63468 0
M  V30 9333 H 858.443 -4.28305 4.19898 0
M  V30 9334 H 860.122 -4.34977 4.78961 0
M  V30 9335 N 860.254 -1.20106 -1.0204 0
M  V30 9336 C 861.201 -0.946468 -2.10501 0
M  V30 9337 C 862.171 0.121902 -1.65652 0
M  V30 9338 O 863.356 -0.0220244 -1.90787 0
M  V30 9339 C 860.496 -0.500499 -3.41451 0
M  V30 9340 C 859.609 -1.63659 -3.998 0
M  V30 9341 C 858.744 -1.14131 -5.18794 0
M  V30 9342 C 857.783 -2.25074 -5.69217 0
M  V30 9343 N 856.92 -1.76791 -6.79477 0
M  V30 9344 H 861.76 -1.87506 -2.31615 0
M  V30 9345 H 859.297 -0.934693 -1.13587 0
M  V30 9346 H 861.255 -0.223276 -4.16602 0
M  V30 9347 H 859.885 0.391099 -3.20422 0
M  V30 9348 H 858.937 -2.02882 -3.21781 0
M  V30 9349 H 860.249 -2.47213 -4.33229 0
M  V30 9350 H 859.403 -0.819826 -6.01135 0
M  V30 9351 H 858.142 -0.275615 -4.86921 0
M  V30 9352 H 857.147 -2.58043 -4.85483 0
M  V30 9353 H 858.372 -3.12114 -6.03127 0
M  V30 9354 H 856.318 -0.925428 -6.4944 0
M  V30 9355 H 856.235 -2.53928 -7.12079 0
M  V30 9356 H 857.503 -1.47631 -7.65392 0
M  V30 9357 N 861.732 1.21287 -1.00634 0
M  V30 9358 C 863.143 1.72136 -0.722914 0
M  V30 9359 C 863.494 1.8091 0.759338 0
M  V30 9360 O 862.619 1.46458 1.59308 0
M  V30 9361 C 863.214 3.12633 -1.30561 0
M  V30 9362 C 861.773 3.60833 -1.07127 0
M  V30 9363 C 860.92 2.38326 -1.4176 0
M  V30 9364 H 863.871 1.06445 -1.17708 0
M  V30 9365 H 863.892 3.74174 -0.690937 0
M  V30 9366 H 863.404 3.06215 -2.38441 0
M  V30 9367 H 861.505 3.72599 -0.00968671 0
M  V30 9368 H 861.618 4.46226 -1.74411 0
M  V30 9369 H 859.982 2.40575 -0.836412 0
M  V30 9370 H 860.765 2.34558 -2.50674 0
M  V30 9371 N 863.21 0.781244 1.36873 0
M  V30 9372 C 864.14 0.188128 2.32741 0
M  V30 9373 C 865.121 -0.672326 1.56249 0
M  V30 9374 O 866.306 -0.607835 1.84442 0
M  V30 9375 C 863.436 -0.684341 3.40491 0
M  V30 9376 C 862.39 0.0755641 4.27933 0
M  V30 9377 C 861.716 -0.916968 5.26779 0
M  V30 9378 C 863.016 1.26006 5.06873 0
M  V30 9379 H 864.71 0.989016 2.82593 0
M  V30 9380 H 862.256 0.477038 1.35869 0
M  V30 9381 H 864.209 -1.10915 4.06541 0
M  V30 9382 H 862.933 -1.51785 2.89187 0
M  V30 9383 H 861.592 0.481258 3.63427 0
M  V30 9384 H 861.24 -1.74528 4.71751 0
M  V30 9385 H 860.94 -0.413 5.86147 0
M  V30 9386 H 862.464 -1.34052 5.95703 0
M  V30 9387 H 863.878 0.911425 5.66009 0
M  V30 9388 H 862.275 1.69676 5.75613 0
M  V30 9389 H 863.345 2.05948 4.38991 0
M  V30 9390 N 864.689 -1.48329 0.532571 0
M  V30 9391 C 865.938 -2.017 -0.00259705 0
M  V30 9392 C 866.251 -1.41469 -1.35077 0
M  V30 9393 O 867.457 -1.86354 -1.97445 0
M  V30 9394 C 865.913 -3.59858 -0.0550179 0
M  V30 9395 C 865.521 -4.29073 1.28842 0
M  V30 9396 C 867.265 -4.21066 -0.538878 0
M  V30 9397 C 865.172 -5.79171 1.19644 0
M  V30 9398 H 864.102 -0.753985 -0.00474081 0
M  V30 9399 H 866.753 -1.70565 0.676739 0
M  V30 9400 H 865.135 -3.87846 -0.799486 0
M  V30 9401 H 866.309 -4.12755 2.04865 0
M  V30 9402 H 864.624 -3.79748 1.70822 0
M  V30 9403 H 867.221 -5.31026 -0.6257 0
M  V30 9404 H 867.564 -3.86559 -1.54525 0
M  V30 9405 H 868.097 -3.97517 0.149984 0
M  V30 9406 H 864.836 -6.18257 2.17805 0
M  V30 9407 H 864.356 -5.97895 0.477609 0
M  V30 9408 H 866.035 -6.40875 0.888186 0
M  V30 9409 N 866.167 -0.267825 -1.55308 0
M  V30 9410 C 867.444 0.402449 -1.91415 0
M  V30 9411 C 867.824 1.7428 -1.1912 0
M  V30 9412 O 867.172 2.2631 -0.315609 0
M  V30 9413 C 867.382 0.549926 -3.4464 0
M  V30 9414 C 868.73 0.836188 -4.16285 0
M  V30 9415 O 869.754 0.635009 -3.50494 0
M  V30 9416 O 868.613 1.22051 -5.32697 0
M  V30 9417 H 865.707 0.219177 -0.797427 0
M  V30 9418 H 868.253 -0.313439 -1.6678 0
M  V30 9419 H 867.025 -0.393641 -3.89315 0
M  V30 9420 H 866.648 1.31556 -3.75205 0
M  V30 9421 N 867.645 1.57599 0.00500368 0
M  V30 9422 C 869.061 1.55463 0.361015 0
M  V30 9423 C 869.261 0.997051 1.75103 0
M  V30 9424 O 868.317 0.628661 2.44549 0
M  V30 9425 C 869.63 2.99734 0.240828 0
M  V30 9426 C 871.178 3.11399 0.316138 0
M  V30 9427 C 871.653 4.57446 0.22513 0
M  V30 9428 N 873.144 4.62334 0.283186 0
M  V30 9429 C 873.879 5.72914 0.23603 0
M  V30 9430 N 873.375 6.92659 0.139762 0
M  V30 9431 N 875.168 5.61364 0.287529 0
M  V30 9432 H 867.319 1.92185 -0.904359 0
M  V30 9433 H 869.582 0.882529 -0.34619 0
M  V30 9434 H 869.288 3.44348 -0.715343 0
M  V30 9435 H 869.162 3.63009 1.02491 0
M  V30 9436 H 871.549 2.66718 1.26275 0
M  V30 9437 H 871.63 2.50911 -0.497725 0
M  V30 9438 H 871.274 5.02801 -0.717917 0
M  V30 9439 H 871.204 5.15874 1.05742 0
M  V30 9440 H 873.695 3.7619 0.359123 0
M  V30 9441 H 874.008 7.72722 0.10954 0
M  V30 9442 H 872.353 6.9492 0.105462 0
M  V30 9443 H 875.544 4.66707 0.360897 0
M  V30 9444 H 875.717 6.47528 0.247313 0
M  V30 9445 N 869.123 -0.277682 1.55134 0
M  V30 9446 C 870.351 -1.02826 1.7954 0
M  V30 9447 C 870.766 -1.80105 0.566373 0
M  V30 9448 O 870.123 -1.76491 -0.464448 0
M  V30 9449 C 870.174 -1.99053 3.01762 0
M  V30 9450 O 869.895 -1.24906 4.19917 0
M  V30 9451 C 871.396 -2.85961 3.38735 0
M  V30 9452 H 868.616 -0.303958 0.598206 0
M  V30 9453 H 871.16 -0.309884 2.02138 0
M  V30 9454 H 869.315 -2.66359 2.81303 0
M  V30 9455 H 869.729 -1.89725 4.88983 0
M  V30 9456 H 871.203 -3.49286 4.27438 0
M  V30 9457 H 871.68 -3.55486 2.57928 0
M  V30 9458 H 872.286 -2.24152 3.61436 0
M  V30 9459 N 870.601 -1.47988 -0.541979 0
M  V30 9460 C 871.848 -1.55393 -1.29843 0
M  V30 9461 C 872.176 -0.222668 -1.93221 0
M  V30 9462 O 871.431 0.785936 -1.79225 0
M  V30 9463 C 871.73 -2.63189 -2.41798 0
M  V30 9464 C 871.396 -4.05999 -1.96151 0
M  V30 9465 C 870.058 -4.44872 -1.83419 0
M  V30 9466 C 872.41 -4.95545 -1.61507 0
M  V30 9467 C 869.738 -5.71108 -1.34361 0
M  V30 9468 C 872.09 -6.22259 -1.13915 0
M  V30 9469 C 870.754 -6.59998 -0.997911 0
M  V30 9470 H 870.024 -0.568623 -0.47513 0
M  V30 9471 H 872.671 -1.81654 -0.606142 0
M  V30 9472 H 870.976 -2.30743 -3.16647 0
M  V30 9473 H 872.673 -2.66138 -2.99953 0
M  V30 9474 H 869.263 -3.75294 -2.07008 0
M  V30 9475 H 873.447 -4.662 -1.70209 0
M  V30 9476 H 868.703 -5.99083 -1.22103 0
M  V30 9477 H 872.877 -6.91048 -0.861755 0
M  V30 9478 H 870.504 -7.57704 -0.615561 0
M  V30 9479 N 872.079 0.78992 -1.36375 0
M  V30 9480 C 873.042 1.88414 -1.30509 0
M  V30 9481 C 874.042 1.59384 -0.2129 0
M  V30 9482 O 875.232 1.67805 -0.467651 0
M  V30 9483 C 872.364 3.25188 -1.02302 0
M  V30 9484 H 873.557 1.95031 -2.27822 0
M  V30 9485 H 871.11 0.987664 -1.2114 0
M  V30 9486 H 871.845 3.24254 -0.0544486 0
M  V30 9487 H 871.63 3.47647 -1.81338 0
M  V30 9488 H 873.12 4.05252 -1.00801 0
M  V30 9489 N 873.557 1.20646 1.01402 0
M  V30 9490 C 874.785 1.04389 1.78635 0
M  V30 9491 C 875.2 -0.406771 1.84366 0
M  V30 9492 O 874.557 -1.28239 1.2985 0
M  V30 9493 C 874.608 1.62378 3.22979 0
M  V30 9494 O 874.329 3.01768 3.17597 0
M  V30 9495 C 875.83 1.5111 4.1675 0
M  V30 9496 H 873.05 0.367077 0.56169 0
M  V30 9497 H 875.594 1.59789 1.27624 0
M  V30 9498 H 873.749 1.11092 3.7113 0
M  V30 9499 H 874.163 3.29331 4.08217 0
M  V30 9500 H 875.637 1.96441 5.15863 0
M  V30 9501 H 876.114 0.464011 4.36742 0
M  V30 9502 H 876.72 2.01599 3.74483 0
M  V30 9503 N 875.035 -1.20752 1.01276 0
M  V30 9504 C 876.281 -1.90302 0.700924 0
M  V30 9505 C 876.614 -1.78406 -0.767142 0
M  V30 9506 O 875.889 -1.16575 -1.55694 0
M  V30 9507 C 876.172 -3.41831 1.13242 0
M  V30 9508 C 876.025 -3.6268 2.66051 0
M  V30 9509 C 877.344 -4.34486 0.700738 0
M  V30 9510 H 874.463 -0.69107 0.256107 0
M  V30 9511 H 877.105 -1.42227 1.25982 0
M  V30 9512 H 875.255 -3.82906 0.656902 0
M  V30 9513 H 876.927 -3.30882 3.21426 0
M  V30 9514 H 875.17 -3.06281 3.07204 0
M  V30 9515 H 875.841 -4.68882 2.91296 0
M  V30 9516 H 878.317 -4.01036 1.10948 0
M  V30 9517 H 877.193 -5.39136 1.03073 0
M  V30 9518 H 877.454 -4.40307 -0.39778 0
M  V30 9519 N 876.513 -0.788492 -1.36457 0
M  V30 9520 C 877.759 -0.360995 -1.99561 0
M  V30 9521 C 878.092 1.06433 -1.62437 0
M  V30 9522 O 877.367 1.7352 -0.878705 0
M  V30 9523 C 877.65 -0.523735 -3.56271 0
M  V30 9524 C 877.503 -1.99268 -4.03252 0
M  V30 9525 C 878.822 0.0617908 -4.40057 0
M  V30 9526 H 875.941 -0.13264 -0.724966 0
M  V30 9527 H 878.583 -0.994659 -1.61884 0
M  V30 9528 H 876.733 0.0156979 -3.88497 0
M  V30 9529 H 878.405 -2.59311 -3.81518 0
M  V30 9530 H 876.648 -2.49561 -3.54826 0
M  V30 9531 H 877.319 -2.05752 -5.12221 0
M  V30 9532 H 879.795 -0.398674 -4.14186 0
M  V30 9533 H 878.671 -0.0821089 -5.48839 0
M  V30 9534 H 878.932 1.15381 -4.26778 0
M  V30 9535 N 877.991 1.48044 -0.54043 0
M  V30 9536 C 878.938 2.29781 0.216597 0
M  V30 9537 C 879.908 1.38021 0.924094 0
M  V30 9538 O 881.093 1.66985 0.923078 0
M  V30 9539 C 878.233 3.21623 1.2511 0
M  V30 9540 C 877.346 4.28467 0.551384 0
M  V30 9541 C 876.481 5.07477 1.56972 0
M  V30 9542 C 875.52 6.06113 0.854048 0
M  V30 9543 N 874.657 6.78143 1.81842 0
M  V30 9544 H 879.497 2.94001 -0.486578 0
M  V30 9545 H 877.034 1.44929 -0.251789 0
M  V30 9546 H 878.992 3.73279 1.8633 0
M  V30 9547 H 877.622 2.59305 1.92252 0
M  V30 9548 H 876.674 3.79997 -0.174982 0
M  V30 9549 H 877.986 4.98799 -0.0100542 0
M  V30 9550 H 877.14 5.63199 2.25592 0
M  V30 9551 H 875.879 4.37008 2.16507 0
M  V30 9552 H 874.884 5.49585 0.153838 0
M  V30 9553 H 876.109 6.78584 0.264675 0
M  V30 9554 H 874.055 6.10417 2.40265 0
M  V30 9555 H 873.972 7.44587 1.3087 0
M  V30 9556 H 875.24 7.38448 2.49628 0
M  V30 9557 N 879.47 0.276058 1.55163 0
M  V30 9558 C 880.717 -0.340455 1.99618 0
M  V30 9559 C 881.045 -1.5579 1.16446 0
M  V30 9560 O 880.3 -1.94433 0.222359 0
M  V30 9561 C 880.599 -0.765744 3.491 0
M  V30 9562 C 880.265 0.347174 4.49561 0
M  V30 9563 C 878.927 0.65276 4.76752 0
M  V30 9564 C 881.279 1.09705 5.09523 0
M  V30 9565 C 878.607 1.71179 5.61173 0
M  V30 9566 C 880.959 2.14581 5.95095 0
M  V30 9567 C 879.623 2.45773 6.20606 0
M  V30 9568 H 878.893 -0.124581 0.730452 0
M  V30 9569 H 881.54 0.389966 1.87487 0
M  V30 9570 H 879.845 -1.57585 3.58712 0
M  V30 9571 H 881.542 -1.25352 3.80904 0
M  V30 9572 H 878.132 0.0988779 4.28486 0
M  V30 9573 H 882.316 0.874223 4.8854 0
M  V30 9574 H 877.572 1.95846 5.79184 0
M  V30 9575 H 881.746 2.7316 6.40591 0
M  V30 9576 H 879.373 3.27969 6.85813 0
M  V30 9577 N 880.948 -1.576 0.00335426 0
M  V30 9578 C 882.195 -1.90713 -0.680791 0
M  V30 9579 C 882.523 -0.877263 -1.73592 0
M  V30 9580 O 881.778 0.117497 -1.95347 0
M  V30 9581 C 882.077 -3.3058 -1.35837 0
M  V30 9582 C 881.743 -4.48786 -0.436111 0
M  V30 9583 C 880.405 -4.80855 -0.182195 0
M  V30 9584 C 882.757 -5.20821 0.198677 0
M  V30 9585 C 880.085 -5.8233 0.714747 0
M  V30 9586 C 882.437 -6.23252 1.08351 0
M  V30 9587 C 881.101 -6.53776 1.34658 0
M  V30 9588 H 880.371 -0.697869 -0.249119 0
M  V30 9589 H 883.018 -1.91407 0.0596011 0
M  V30 9590 H 881.323 -3.26026 -2.17289 0
M  V30 9591 H 883.02 -3.53462 -1.89383 0
M  V30 9592 H 879.61 -4.23731 -0.644186 0
M  V30 9593 H 883.794 -4.96298 0.0155259 0
M  V30 9594 H 879.05 -6.04339 0.926529 0
M  V30 9595 H 883.224 -6.78199 1.58172 0
M  V30 9596 H 880.851 -7.32225 2.04328 0
M  V30 9597 N 882.426 0.269451 -1.5528 0
M  V30 9598 C 883.374 1.35303 -1.89198 0
M  V30 9599 C 884.368 1.50956 -0.768671 0
M  V30 9600 O 885.574 1.52699 -0.953054 0
M  V30 9601 H 881.949 0.452591 -0.600554 0
M  V30 9602 H 883.92 1.03949 -2.79709 0
M  V30 9603 C 882.669 2.70585 -2.18356 0
M  V30 9604 H 881.992 2.59332 -3.04281 0
M  V30 9605 H 883.432 3.45335 -2.46007 0
M  V30 9606 C 881.891 3.21954 -0.992327 0
M  V30 9607 O 882.421 4.01048 -0.228769 0
M  V30 9608 N 880.627 2.79682 -0.789062 0
M  V30 9609 H 880.174 2.15475 -1.41167 0
M  V30 9610 H 880.132 3.14399 0.00634776 0
M  V30 9611 N 883.904 1.48273 0.534124 0
M  V30 9612 C 884.836 1.5857 1.65494 0
M  V30 9613 C 885.849 0.470266 1.5586 0
M  V30 9614 O 887.038 0.740928 1.62396 0
M  V30 9615 C 884.138 1.49554 3.04117 0
M  V30 9616 C 883.311 2.76066 3.39273 0
M  V30 9617 C 882.37 2.60562 4.57159 0
M  V30 9618 O 881.396 3.34438 4.60587 0
M  V30 9619 N 882.598 1.69906 5.55079 0
M  V30 9620 H 885.363 2.55226 1.57099 0
M  V30 9621 H 882.924 1.44944 0.721303 0
M  V30 9622 H 884.916 1.36882 3.80848 0
M  V30 9623 H 883.486 0.608895 3.06613 0
M  V30 9624 H 882.706 3.03332 2.51761 0
M  V30 9625 H 883.994 3.60006 3.59546 0
M  V30 9626 H 883.392 1.09079 5.55084 0
M  V30 9627 H 881.949 1.63175 6.31044 0
M  V30 9628 N 885.382 -0.782676 1.36792 0
M  V30 9629 C 886.329 -1.89558 1.31667 0
M  V30 9630 C 887.299 -1.65076 0.184147 0
M  V30 9631 O 888.484 -1.87143 0.371753 0
M  V30 9632 C 885.624 -3.26469 1.11858 0
M  V30 9633 C 884.737 -3.62978 2.34245 0
M  V30 9634 C 883.872 -4.89041 2.07394 0
M  V30 9635 C 882.911 -5.18249 3.25706 0
M  V30 9636 N 882.048 -6.35497 2.98476 0
M  V30 9637 H 886.888 -1.93274 2.26824 0
M  V30 9638 H 884.425 -0.945057 1.12726 0
M  V30 9639 H 886.383 -4.05431 0.983968 0
M  V30 9640 H 885.013 -3.22158 0.203531 0
M  V30 9641 H 884.065 -2.79087 2.58485 0
M  V30 9642 H 885.377 -3.80507 3.22514 0
M  V30 9643 H 884.531 -5.75883 1.90901 0
M  V30 9644 H 883.27 -4.73594 1.16446 0
M  V30 9645 H 882.275 -4.29887 3.4275 0
M  V30 9646 H 883.5 -5.35611 4.1749 0
M  V30 9647 H 881.446 -6.21429 2.10146 0
M  V30 9648 H 881.363 -6.5339 3.80286 0
M  V30 9649 H 882.631 -7.25304 2.85577 0
M  V30 9650 N 886.86 -1.21182 -1.00761 0
M  V30 9651 C 888.107 -1.02746 -1.74498 0
M  V30 9652 C 888.435 0.439344 -1.89473 0
M  V30 9653 O 887.69 1.34232 -1.42409 0
M  V30 9654 C 887.989 -1.6667 -3.16158 0
M  V30 9655 C 887.655 -3.16515 -3.21137 0
M  V30 9656 C 886.317 -3.57405 -3.22203 0
M  V30 9657 C 888.669 -4.12495 -3.18587 0
M  V30 9658 C 885.997 -4.92786 -3.18401 0
M  V30 9659 C 888.349 -5.47833 -3.16326 0
M  V30 9660 C 887.013 -5.88124 -3.157 0
M  V30 9661 H 886.283 -0.375974 -0.638533 0
M  V30 9662 H 888.93 -1.50736 -1.18114 0
M  V30 9663 H 887.235 -1.10966 -3.75758 0
M  V30 9664 H 888.932 -1.49911 -3.71924 0
M  V30 9665 H 885.522 -2.83947 -3.21048 0
M  V30 9666 H 889.706 -3.81932 -3.16925 0
M  V30 9667 H 884.962 -5.23253 -3.16253 0
M  V30 9668 H 889.136 -6.21942 -3.13306 0
M  V30 9669 H 886.763 -6.92995 -3.12508 0
M  V30 9670 N 888.338 1.20213 -1.01915 0
M  V30 9671 C 889.286 2.25125 -0.584936 0
M  V30 9672 C 890.28 1.65138 0.377602 0
M  V30 9673 O 891.486 1.78294 0.247245 0
M  V30 9674 H 887.861 0.732333 -0.170858 0
M  V30 9675 H 889.832 2.59075 -1.48063 0
M  V30 9676 C 888.581 3.47651 0.058389 0
M  V30 9677 H 887.904 3.9409 -0.673263 0
M  V30 9678 H 889.344 4.2275 0.325285 0
M  V30 9679 C 887.803 3.10725 1.30199 0
M  V30 9680 O 888.333 3.22491 2.39505 0
M  V30 9681 N 886.539 2.6525 1.18706 0
M  V30 9682 H 886.086 2.55875 0.297618 0
M  V30 9683 H 886.044 2.40913 2.02011 0
M  V30 9684 N 889.816 0.795718 1.36037 0
M  V30 9685 C 890.779 0.204318 2.28287 0
M  V30 9686 C 891.779 -0.602017 1.49105 0
M  V30 9687 O 892.969 -0.422089 1.69009 0
M  V30 9688 C 890.101 -0.716431 3.33287 0
M  V30 9689 H 891.294 1.01781 2.821 0
M  V30 9690 H 888.847 0.565588 1.45708 0
M  V30 9691 H 889.582 -1.55403 2.84641 0
M  V30 9692 H 889.367 -0.140096 3.9185 0
M  V30 9693 H 890.857 -1.12488 4.02164 0
M  V30 9694 N 891.294 -1.47756 0.548274 0
M  V30 9695 C 892.244 -2.26891 -0.224628 0
M  V30 9696 C 893.228 -1.33816 -0.893421 0
M  V30 9697 O 894.42 -1.58232 -0.793204 0
M  V30 9698 C 891.549 -3.19358 -1.25959 0
M  V30 9699 C 890.635 -4.1991 -0.594662 0
M  V30 9700 N 891.026 -5.04721 0.330148 0
M  V30 9701 C 889.324 -4.37832 -0.849672 0
M  V30 9702 C 890.025 -5.77282 0.71553 0
M  V30 9703 N 889.001 -5.43552 0.0723997 0
M  V30 9704 H 892.803 -2.89844 0.486561 0
M  V30 9705 H 890.317 -1.58185 0.367577 0
M  V30 9706 H 892.314 -3.74726 -1.82718 0
M  V30 9707 H 890.974 -2.57961 -1.97196 0
M  V30 9708 H 891.985 -5.13095 0.703811 0
M  V30 9709 H 888.662 -3.87612 -1.55123 0
M  V30 9710 H 890.052 -6.55512 1.47493 0
M  V30 9711 N 892.772 -0.284283 -1.55015 0
M  V30 9712 C 893.702 0.592663 -2.25853 0
M  V30 9713 C 894.683 1.15151 -1.25197 0
M  V30 9714 O 895.868 1.18395 -1.53936 0
M  V30 9715 C 892.998 1.77254 -2.98661 0
M  V30 9716 C 891.952 1.34482 -4.06323 0
M  V30 9717 C 891.278 2.60853 -4.66754 0
M  V30 9718 C 892.578 0.488288 -5.20013 0
M  V30 9719 H 894.272 0.00187041 -2.994 0
M  V30 9720 H 891.818 -0.000540402 -1.44 0
M  V30 9721 H 893.771 2.39199 -3.46932 0
M  V30 9722 H 892.495 2.38931 -2.22664 0
M  V30 9723 H 891.154 0.748519 -3.58877 0
M  V30 9724 H 890.802 3.20808 -3.87416 0
M  V30 9725 H 890.502 2.32942 -5.39455 0
M  V30 9726 H 892.026 3.23631 -5.1778 0
M  V30 9727 H 893.44 1.01298 -5.6428 0
M  V30 9728 H 891.837 0.303669 -5.99331 0
M  V30 9729 H 892.907 -0.490727 -4.8241 0
M  V30 9730 N 894.251 1.57596 -0.0117121 0
M  V30 9731 C 895.528 1.82323 0.708356 0
M  V30 9732 C 895.908 0.891947 1.91331 0
M  V30 9733 O 895.256 -0.0565984 2.2843 0
M  V30 9734 C 895.466 3.31111 1.10303 0
M  V30 9735 C 896.814 3.97147 1.50199 0
M  V30 9736 O 897.838 3.35503 1.1965 0
M  V30 9737 O 896.697 5.0576 2.07049 0
M  V30 9738 H 893.791 0.751173 0.345931 0
M  V30 9739 H 896.337 1.69657 -0.0380632 0
M  V30 9740 H 895.109 3.90534 0.24467 0
M  V30 9741 H 894.732 3.48818 1.90818 0
M  V30 9742 N 895.729 -0.261212 1.5542 0
M  V30 9743 C 896.692 -1.30645 1.8832 0
M  V30 9744 C 897.692 -1.41782 0.758588 0
M  V30 9745 O 898.882 -1.40729 1.02669 0
M  V30 9746 C 896.014 -2.6862 2.09895 0
M  V30 9747 H 897.207 -1.02698 2.81768 0
M  V30 9748 H 894.76 -0.499838 1.48092 0
M  V30 9749 H 895.495 -3.0173 1.18868 0
M  V30 9750 H 895.28 -2.61921 2.91787 0
M  V30 9751 H 896.77 -3.44121 2.36581 0
M  V30 9752 N 897.207 -1.48554 -0.526253 0
M  V30 9753 C 898.435 -1.60429 -1.30652 0
M  V30 9754 C 898.85 -0.265963 -1.86917 0
M  V30 9755 O 898.207 0.745262 -1.6659 0
M  V30 9756 C 898.258 -2.65377 -2.45473 0
M  V30 9757 O 897.979 -3.94017 -1.91527 0
M  V30 9758 C 899.48 -2.87726 -3.37237 0
M  V30 9759 H 896.7 -0.540817 -0.397187 0
M  V30 9760 H 899.244 -1.94409 -0.634461 0
M  V30 9761 H 897.399 -2.34246 -3.08557 0
M  V30 9762 H 897.813 -4.51623 -2.66715 0
M  V30 9763 H 899.287 -3.64951 -4.14144 0
M  V30 9764 H 899.764 -1.96688 -3.92696 0
M  V30 9765 H 900.37 -3.20176 -2.79942 0
M  V30 9766 N 898.685 0.775411 -1.37205 0
M  V30 9767 C 899.913 1.56446 -1.35397 0
M  V30 9768 C 900.328 1.887 0.0615437 0
M  V30 9769 O 899.685 1.51178 1.02233 0
M  V30 9770 C 899.736 2.87697 -2.18889 0
M  V30 9771 O 899.457 2.56828 -3.54924 0
M  V30 9772 C 900.958 3.81944 -2.25019 0
M  V30 9773 H 898.178 0.484792 -0.463916 0
M  V30 9774 H 900.722 0.961346 -1.80495 0
M  V30 9775 H 898.877 3.44442 -1.7731 0
M  V30 9776 H 899.291 3.40851 -3.98649 0
M  V30 9777 H 900.765 4.71055 -2.87769 0
M  V30 9778 H 901.242 4.20811 -1.25757 0
M  V30 9779 H 901.848 3.3113 -2.66895 0
M  V30 9780 N 900.163 1.21714 1.00117 0
M  V30 9781 C 901.44 0.945391 1.71236 0
M  V30 9782 C 901.82 -0.541772 2.0403 0
M  V30 9783 O 901.168 -1.50763 1.71705 0
M  V30 9784 C 901.378 1.83444 2.96899 0
M  V30 9785 C 902.726 2.08558 3.69849 0
M  V30 9786 O 903.75 1.80824 3.06889 0
M  V30 9787 O 902.609 2.55485 4.83104 0
M  V30 9788 H 899.703 0.354834 0.747009 0
M  V30 9789 H 902.249 1.32661 1.05825 0
M  V30 9790 H 901.021 2.84075 2.69105 0
M  V30 9791 H 900.644 1.45428 3.70049 0
M  V30 9792 N 901.641 -1.19671 1.02551 0
M  V30 9793 C 902.871 -1.92952 0.738441 0
M  V30 9794 C 903.279 -1.75528 -0.706155 0
M  V30 9795 O 902.622 -1.0723 -1.49156 0
M  V30 9796 C 902.684 -3.45149 1.00562 0
M  V30 9797 C 902.348 -3.86341 2.44109 0
M  V30 9798 C 903.345 -3.91374 3.42231 0
M  V30 9799 C 901.03 -4.18076 2.7842 0
M  V30 9800 C 903.024 -4.27568 4.7272 0
M  V30 9801 C 900.711 -4.53943 4.0912 0
M  V30 9802 C 901.709 -4.58663 5.06081 0
M  V30 9803 O 901.397 -4.93701 6.3444 0
M  V30 9804 H 901.129 -0.619836 0.269776 0
M  V30 9805 H 903.683 -1.52852 1.37206 0
M  V30 9806 H 901.913 -3.85416 0.314849 0
M  V30 9807 H 903.602 -3.99664 0.708742 0
M  V30 9808 H 904.368 -3.67011 3.17061 0
M  V30 9809 H 900.247 -4.13589 2.03631 0
M  V30 9810 H 903.791 -4.31166 5.48399 0
M  V30 9811 H 899.688 -4.77764 4.34064 0
M  V30 9812 H 900.456 -5.11662 6.38862 0
M  V30 9813 N 903.119 -0.802921 -1.35613 0
M  V30 9814 C 904.052 -0.156345 -2.27664 0
M  V30 9815 C 905.03 0.675517 -1.47904 0
M  V30 9816 O 906.214 0.643589 -1.77173 0
M  V30 9817 C 903.341 0.78348 -3.29514 0
M  V30 9818 C 902.387 0.0317062 -4.26488 0
M  V30 9819 S 903.22 -1.30183 -5.19435 0
M  V30 9820 C 904.376 -0.366354 -6.24827 0
M  V30 9821 H 904.609 -0.936803 -2.82155 0
M  V30 9822 H 902.142 -0.597799 -1.42358 0
M  V30 9823 H 904.1 1.32023 -3.8869 0
M  V30 9824 H 902.761 1.53729 -2.73909 0
M  V30 9825 H 901.954 0.745364 -4.98458 0
M  V30 9826 H 901.556 -0.43497 -3.71462 0
M  V30 9827 H 903.848 0.44976 -6.76005 0
M  V30 9828 H 904.791 -1.05513 -7.00195 0
M  V30 9829 H 905.199 0.0363203 -5.64488 0
M  V30 9830 N 904.597 1.47463 -0.556102 0
M  V30 9831 C 906.008 1.86298 -0.122429 0
M  V30 9832 C 906.359 1.46285 1.30749 0
M  V30 9833 O 905.484 0.865405 1.98342 0
M  V30 9834 C 906.079 3.38115 -0.215407 0
M  V30 9835 C 904.638 3.76046 0.163223 0
M  V30 9836 C 903.785 2.71515 -0.563466 0
M  V30 9837 H 906.736 1.38996 -0.765888 0
M  V30 9838 H 906.757 3.76263 0.566271 0
M  V30 9839 H 906.269 3.67207 -1.25622 0
M  V30 9840 H 904.37 3.5257 1.20519 0
M  V30 9841 H 904.483 4.78705 -0.194568 0
M  V30 9842 H 902.847 2.54699 -0.00667879 0
M  V30 9843 H 903.63 3.03449 -1.60542 0
M  V30 9844 N 906.075 0.2925 1.54862 0
M  V30 9845 C 907.025 -0.60226 2.19902 0
M  V30 9846 C 908.009 -1.10535 1.16923 0
M  V30 9847 O 909.201 -1.04753 1.42674 0
M  V30 9848 C 906.33 -1.77774 2.93686 0
M  V30 9849 C 905.416 -1.29101 4.03972 0
M  V30 9850 N 905.807 -0.521671 5.03103 0
M  V30 9851 C 904.105 -1.57248 4.17359 0
M  V30 9852 C 904.806 -0.263545 5.81103 0
M  V30 9853 N 903.782 -0.840937 5.37056 0
M  V30 9854 H 907.584 -0.00682274 2.93899 0
M  V30 9855 H 905.098 0.0968604 1.62111 0
M  V30 9856 H 907.095 -2.43021 3.38743 0
M  V30 9857 H 905.755 -2.37696 2.21203 0
M  V30 9858 H 906.766 -0.167364 5.1763 0
M  V30 9859 H 903.443 -2.1798 3.56077 0
M  V30 9860 H 904.833 0.353783 6.70968 0
M  V30 9861 N 907.553 -1.57587 0.0200696 0
M  V30 9862 C 908.5 -2.09667 -0.964791 0
M  V30 9863 C 909.47 -0.99664 -1.32877 0
M  V30 9864 O 910.655 -1.2703 -1.42366 0
M  V30 9865 C 907.795 -2.62101 -2.24493 0
M  V30 9866 C 906.908 -3.8608 -1.93821 0
M  V30 9867 C 906.043 -4.26939 -3.16064 0
M  V30 9868 C 905.082 -5.43701 -2.81169 0
M  V30 9869 N 904.219 -5.79759 -3.9601 0
M  V30 9870 H 909.059 -2.93538 -0.513751 0
M  V30 9871 H 906.596 -1.45096 -0.242 0
M  V30 9872 H 908.554 -2.90587 -2.99358 0
M  V30 9873 H 907.184 -1.81074 -2.6723 0
M  V30 9874 H 906.236 -3.64378 -1.09237 0
M  V30 9875 H 907.548 -4.71028 -1.64115 0
M  V30 9876 H 906.702 -4.56814 -3.99257 0
M  V30 9877 H 905.441 -3.40739 -3.48924 0
M  V30 9878 H 904.446 -5.13529 -1.96387 0
M  V30 9879 H 905.671 -6.31593 -2.49535 0
M  V30 9880 H 903.617 -4.96516 -4.28729 0
M  V30 9881 H 903.534 -6.59327 -3.69896 0
M  V30 9882 H 904.802 -6.14235 -4.79933 0
M  V30 9883 N 909.032 0.252966 -1.55557 0
M  V30 9884 C 909.965 1.33928 -1.84766 0
M  V30 9885 C 910.943 1.46653 -0.702254 0
M  V30 9886 O 912.127 1.62963 -0.947375 0
M  V30 9887 C 909.254 2.71348 -2.02701 0
M  V30 9888 C 908.3 2.75804 -3.25322 0
M  V30 9889 S 909.133 2.33025 -4.82141 0
M  V30 9890 C 910.289 3.72382 -5.03073 0
M  V30 9891 H 910.522 1.08951 -2.76617 0
M  V30 9892 H 908.055 0.45364 -1.47585 0
M  V30 9893 H 910.013 3.50478 -2.13718 0
M  V30 9894 H 908.674 2.93566 -1.11703 0
M  V30 9895 H 907.867 3.76713 -3.34819 0
M  V30 9896 H 907.469 2.04713 -3.12999 0
M  V30 9897 H 909.761 4.67828 -4.90044 0
M  V30 9898 H 910.704 3.67824 -6.05071 0
M  V30 9899 H 911.112 3.64614 -4.30949 0
M  V30 9900 N 910.51 1.48831 0.518367 0
M  V30 9901 C 911.759 1.5669 1.27008 0
M  V30 9902 C 912.072 0.250934 1.93984 0
M  V30 9903 O 913.278 0.207884 2.70703 0
M  V30 9904 C 911.734 2.76387 2.30517 0
M  V30 9905 C 911.342 4.14673 1.69559 0
M  V30 9906 C 913.086 2.93566 3.06625 0
M  V30 9907 C 910.993 5.25616 2.71076 0
M  V30 9908 H 909.923 0.583362 0.477708 0
M  V30 9909 H 912.574 1.75187 0.546052 0
M  V30 9910 H 910.956 2.51348 3.06006 0
M  V30 9911 H 912.13 4.49779 1.00179 0
M  V30 9912 H 910.445 4.02708 1.05902 0
M  V30 9913 H 913.042 3.7362 3.82508 0
M  V30 9914 H 913.385 2.03462 3.63193 0
M  V30 9915 H 913.918 3.18562 2.38251 0
M  V30 9916 H 910.657 6.17723 2.19313 0
M  V30 9917 H 910.177 4.94985 3.38748 0
M  V30 9918 H 911.856 5.5422 3.3384 0
M  V30 9919 N 911.988 -0.768124 1.37614 0
M  V30 9920 C 913.213 -1.56239 1.36397 0
M  V30 9921 C 913.638 -1.8804 -0.0475839 0
M  V30 9922 O 912.996 -1.495 -1.02564 0
M  V30 9923 C 913.044 -2.84716 2.21289 0
M  V30 9924 O 912.148 -3.79249 1.62001 0
M  V30 9925 H 911.489 -0.473119 0.465891 0
M  V30 9926 H 914.019 -0.950415 1.81186 0
M  V30 9927 H 914.029 -3.33784 2.34632 0
M  V30 9928 H 912.704 -2.60899 3.2389 0
M  V30 9929 H 911.281 -3.37904 1.57719 0
M  V30 9930 N 913.466 -1.22244 -0.994698 0
M  V30 9931 C 914.414 -0.988118 -2.10568 0
M  V30 9932 C 915.408 0.0681541 -1.69263 0
M  V30 9933 O 916.614 -0.0841311 -1.79803 0
M  V30 9934 H 912.989 -0.302343 -0.688544 0
M  V30 9935 H 914.96 -1.93091 -2.27505 0
M  V30 9936 C 913.709 -0.580557 -3.42819 0
M  V30 9937 H 913.032 -1.385 -3.75044 0
M  V30 9938 H 914.472 -0.456004 -4.21541 0
M  V30 9939 C 912.931 0.709692 -3.2934 0
M  V30 9940 O 913.461 1.76259 -3.60965 0
M  V30 9941 N 911.667 0.680155 -2.82528 0
M  V30 9942 H 911.214 -0.176977 -2.56991 0
M  V30 9943 H 911.172 1.54372 -2.73892 0
M  V30 9944 N 914.944 1.19125 -1.03184 0
M  V30 9945 C 916.19 1.89163 -0.731111 0
M  V30 9946 C 916.523 1.79604 0.738662 0
M  V30 9947 O 915.798 1.19037 1.53819 0
M  V30 9948 C 916.081 3.39986 -1.18666 0
M  V30 9949 C 915.934 3.58401 -2.71788 0
M  V30 9950 C 917.253 4.33316 -0.769772 0
M  V30 9951 H 914.372 0.686908 -0.267069 0
M  V30 9952 H 917.014 1.40205 -1.28229 0
M  V30 9953 H 915.164 3.81813 -0.717736 0
M  V30 9954 H 916.836 3.25727 -3.26649 0
M  V30 9955 H 915.079 3.01355 -3.12038 0
M  V30 9956 H 915.75 4.64189 -2.98719 0
M  V30 9957 H 918.226 3.9922 -1.17314 0
M  V30 9958 H 917.102 5.37427 -1.11637 0
M  V30 9959 H 917.363 4.40884 0.327681 0
M  V30 9960 N 916.422 0.810101 1.35185 0
M  V30 9961 C 917.332 0.224565 2.33523 0
M  V30 9962 C 918.348 -0.634287 1.62027 0
M  V30 9963 O 919.524 -0.545211 1.9388 0
M  V30 9964 C 916.589 -0.614319 3.41214 0
M  V30 9965 C 915.65 0.265435 4.28479 0
M  V30 9966 C 914.883 -0.533506 5.31027 0
M  V30 9967 O 915.106 -1.7679 5.42311 0
M  V30 9968 O 914.04 0.0774573 6.0185 0
M  V30 9969 H 917.866 1.03815 2.85405 0
M  V30 9970 H 915.451 0.571964 1.38018 0
M  V30 9971 H 917.333 -1.09201 4.07005 0
M  V30 9972 H 916.008 -1.40545 2.91597 0
M  V30 9973 H 914.915 0.790343 3.65656 0
M  V30 9974 H 916.248 1.0206 4.81503 0
M  V30 9975 N 917.9 -1.47166 0.563914 0
M  V30 9976 C 918.832 -2.28165 -0.217583 0
M  V30 9977 C 919.845 -1.37405 -0.873134 0
M  V30 9978 O 921.034 -1.6217 -0.745857 0
M  V30 9979 C 918.134 -3.11873 -1.32621 0
M  V30 9980 C 917.307 -4.30637 -0.766177 0
M  V30 9981 C 916.366 -4.95889 -1.76014 0
M  V30 9982 O 915.392 -5.54071 -1.3036 0
M  V30 9983 N 916.594 -4.91191 -3.09373 0
M  V30 9984 H 919.359 -2.95876 0.477256 0
M  V30 9985 H 916.92 -1.5687 0.40043 0
M  V30 9986 H 918.912 -3.52392 -1.99003 0
M  V30 9987 H 917.482 -2.46361 -1.92419 0
M  V30 9988 H 916.702 -3.94129 0.0745998 0
M  V30 9989 H 917.99 -5.07442 -0.371472 0
M  V30 9990 H 917.388 -4.45133 -3.49104 0
M  V30 9991 H 915.945 -5.35708 -3.71295 0
M  V30 9992 N 919.378 -0.300708 -1.54705 0
M  V30 9993 C 920.627 0.309428 -1.99312 0
M  V30 9994 C 920.94 1.55027 -1.19272 0
M  V30 9995 O 922.146 2.23498 -1.54146 0
M  V30 9996 C 920.602 0.601856 -3.54832 0
M  V30 9997 C 920.21 -0.620636 -4.4368 0
M  V30 9998 C 921.954 1.1732 -4.07966 0
M  V30 9999 C 919.861 -0.301376 -5.90632 0
M  V30 10000 H 918.791 0.119395 -0.744487 0
M  V30 10001 H 921.442 -0.409368 -1.78875 0
M  V30 10002 H 919.824 1.38024 -3.71168 0
M  V30 10003 H 920.998 -1.39685 -4.39118 0
M  V30 10004 H 919.313 -1.1106 -4.01316 0
M  V30 10005 H 921.91 1.42631 -5.15326 0
M  V30 10006 H 922.253 2.11537 -3.5855 0
M  V30 10007 H 922.786 0.456534 -3.95172 0
M  V30 10008 H 919.525 -1.21209 -6.44196 0
M  V30 10009 H 919.045 0.437574 -5.98202 0
M  V30 10010 H 920.724 0.097164 -6.46927 0
M  V30 10011 N 920.856 1.57574 -0.0284266 0
M  V30 10012 C 921.803 2.10176 0.953658 0
M  V30 10013 C 922.773 1.00367 1.32347 0
M  V30 10014 O 923.958 1.27783 1.4169 0
M  V30 10015 C 921.098 2.63287 2.231 0
M  V30 10016 C 920.211 3.87102 1.91771 0
M  V30 10017 C 919.346 4.28609 3.13795 0
M  V30 10018 C 918.385 5.45184 2.78282 0
M  V30 10019 N 917.522 5.81851 3.92929 0
M  V30 10020 H 922.362 2.93806 0.498176 0
M  V30 10021 H 919.899 1.45222 0.234302 0
M  V30 10022 H 921.857 2.9217 2.97813 0
M  V30 10023 H 920.487 1.82489 2.66266 0
M  V30 10024 H 919.539 3.64952 1.07303 0
M  V30 10025 H 920.851 4.71892 1.61615 0
M  V30 10026 H 920.005 4.58925 3.96829 0
M  V30 10027 H 918.744 3.42585 3.47112 0
M  V30 10028 H 917.749 5.14563 1.93661 0
M  V30 10029 H 918.974 6.32907 2.46182 0
M  V30 10030 H 916.92 4.98782 4.2609 0
M  V30 10031 H 916.837 6.6128 3.66395 0
M  V30 10032 H 918.105 6.16772 4.76669 0
M  V30 10033 N 922.334 -0.244713 1.55689 0
M  V30 10034 C 923.282 -1.32276 1.91326 0
M  V30 10035 C 924.276 -1.49714 0.792589 0
M  V30 10036 O 925.482 -1.51163 0.977227 0
M  V30 10037 H 921.857 -0.442979 0.607679 0
M  V30 10038 H 923.828 -0.99486 2.81327 0
M  V30 10039 C 922.577 -2.67077 2.22633 0
M  V30 10040 H 921.9 -2.54458 3.08368 0
M  V30 10041 H 923.34 -3.41378 2.5147 0
M  V30 10042 C 921.799 -3.20335 1.04342 0
M  V30 10043 O 922.329 -4.00633 0.292543 0
M  V30 10044 N 920.535 -2.78392 0.833457 0
M  V30 10045 H 920.082 -2.13202 1.44577 0
M  V30 10046 H 920.04 -3.1437 0.0436713 0
M  V30 10047 N 923.813 -1.49104 -0.510467 0
M  V30 10048 C 924.743 -1.67981 -1.62187 0
M  V30 10049 C 925.724 -0.528529 -1.6168 0
M  V30 10050 O 926.909 -0.763305 -1.7857 0
M  V30 10051 C 924.039 -1.73755 -3.0071 0
M  V30 10052 C 922.993 -2.88579 -3.1608 0
M  V30 10053 C 922.319 -2.79457 -4.5586 0
M  V30 10054 C 923.619 -4.29638 -2.97 0
M  V30 10055 H 925.313 -2.61029 -1.46643 0
M  V30 10056 H 922.859 -1.25615 -0.704042 0
M  V30 10057 H 924.812 -1.85548 -3.78352 0
M  V30 10058 H 923.536 -0.772996 -3.17321 0
M  V30 10059 H 922.195 -2.76372 -2.40861 0
M  V30 10060 H 921.843 -1.80929 -4.69333 0
M  V30 10061 H 921.543 -3.56518 -4.67086 0
M  V30 10062 H 923.067 -2.93245 -5.35574 0
M  V30 10063 H 924.481 -4.42575 -3.64418 0
M  V30 10064 H 922.878 -5.07847 -3.19704 0
M  V30 10065 H 923.948 -4.44741 -1.93219 0
M  V30 10066 N 925.291 0.760815 -1.38019 0
M  V30 10067 C 926.702 1.33773 -1.30237 0
M  V30 10068 C 927.053 1.96148 0.0451153 0
M  V30 10069 O 926.178 1.94574 0.9471 0
M  V30 10070 C 926.773 2.43227 -2.35851 0
M  V30 10071 C 925.332 2.96659 -2.31669 0
M  V30 10072 C 924.479 1.69972 -2.191 0
M  V30 10073 H 927.43 0.560237 -1.48482 0
M  V30 10074 H 927.451 3.22985 -2.01149 0
M  V30 10075 H 926.963 1.978 -3.33911 0
M  V30 10076 H 925.064 3.46433 -1.37167 0
M  V30 10077 H 925.177 3.51529 -3.25521 0
M  V30 10078 H 923.541 1.9332 -1.65829 0
M  V30 10079 H 924.324 1.26633 -3.19091 0
M  V30 10080 N 926.769 1.22769 0.988202 0
M  V30 10081 C 927.699 1.02627 2.09738 0
M  V30 10082 C 928.68 -0.0543211 1.70013 0
M  V30 10083 O 929.865 0.108811 1.93895 0
M  V30 10084 C 926.995 0.608302 3.41931 0
M  V30 10085 C 925.949 1.63536 3.95525 0
M  V30 10086 C 925.275 1.07308 5.23822 0
M  V30 10087 C 926.575 3.02649 4.25677 0
M  V30 10088 H 928.269 1.954 2.26847 0
M  V30 10089 H 925.815 0.940888 1.09011 0
M  V30 10090 H 927.768 0.454478 4.18942 0
M  V30 10091 H 926.492 -0.355095 3.24664 0
M  V30 10092 H 925.151 1.77704 3.20651 0
M  V30 10093 H 924.799 0.100894 5.02899 0
M  V30 10094 H 924.499 1.75925 5.60646 0
M  V30 10095 H 926.023 0.930938 6.03462 0
M  V30 10096 H 927.437 2.91828 4.93467 0
M  V30 10097 H 925.834 3.68434 4.73684 0
M  V30 10098 H 926.904 3.52228 3.33262 0
M  V30 10099 N 928.247 -1.18576 1.03814 0
M  V30 10100 C 929.179 -2.21607 0.585055 0
M  V30 10101 C 930.192 -1.59125 -0.343963 0
M  V30 10102 O 931.381 -1.77959 -0.138882 0
M  V30 10103 C 928.481 -3.38495 -0.165602 0
M  V30 10104 C 927.654 -4.30557 0.770662 0
M  V30 10105 C 926.713 -5.26161 0.0637534 0
M  V30 10106 O 925.739 -5.64961 0.693359 0
M  V30 10107 N 926.941 -5.67882 -1.20377 0
M  V30 10108 H 929.706 -2.61104 1.47121 0
M  V30 10109 H 927.267 -1.33336 0.918316 0
M  V30 10110 H 929.259 -3.99474 -0.648292 0
M  V30 10111 H 927.829 -2.97711 -0.953268 0
M  V30 10112 H 927.049 -3.67221 1.43326 0
M  V30 10113 H 928.337 -4.88969 1.40667 0
M  V30 10114 H 927.735 -5.38409 -1.73586 0
M  V30 10115 H 926.292 -6.31069 -1.63079 0
M  V30 10116 N 929.725 -0.817259 -1.34754 0
M  V30 10117 C 930.971 -0.403244 -1.98751 0
M  V30 10118 C 931.304 1.02963 -1.64658 0
M  V30 10119 O 930.579 1.71617 -0.915314 0
M  V30 10120 C 930.862 -0.599188 -3.5508 0
M  V30 10121 C 930.715 -2.07777 -3.98934 0
M  V30 10122 C 932.034 -0.0315656 -4.40089 0
M  V30 10123 H 929.153 -0.147988 -0.721989 0
M  V30 10124 H 931.795 -1.02877 -1.59738 0
M  V30 10125 H 929.945 -0.0667116 -3.88443 0
M  V30 10126 H 931.617 -2.67345 -3.75931 0
M  V30 10127 H 929.86 -2.57031 -3.49453 0
M  V30 10128 H 930.531 -2.16571 -5.07741 0
M  V30 10129 H 933.007 -0.48644 -4.13247 0
M  V30 10130 H 931.883 -0.198507 -5.48541 0
M  V30 10131 H 932.144 1.06302 -4.2913 0
M  V30 10132 N 931.203 1.46865 -0.571711 0
M  V30 10133 C 932.15 2.30189 0.167808 0
M  V30 10134 C 933.12 1.3995 0.89461 0
M  V30 10135 O 934.305 1.68905 0.887451 0
M  V30 10136 C 931.445 3.24205 1.1826 0
M  V30 10137 C 930.558 4.2954 0.460376 0
M  V30 10138 C 929.693 5.10693 1.46173 0
M  V30 10139 C 928.732 6.07788 0.725291 0
M  V30 10140 N 927.869 6.81847 1.67417 0
M  V30 10141 H 932.709 2.92902 -0.548831 0
M  V30 10142 H 930.246 1.44362 -0.282474 0
M  V30 10143 H 932.204 3.77147 1.7837 0
M  V30 10144 H 930.834 2.63324 1.86709 0
M  V30 10145 H 929.886 3.79541 -0.255546 0
M  V30 10146 H 931.198 4.98665 -0.115855 0
M  V30 10147 H 930.352 5.67857 2.13595 0
M  V30 10148 H 929.091 4.41502 2.07188 0
M  V30 10149 H 928.096 5.49787 0.037228 0
M  V30 10150 H 929.321 6.78993 0.120678 0
M  V30 10151 H 927.267 6.15376 2.27263 0
M  V30 10152 H 927.184 7.47195 1.15046 0
M  V30 10153 H 928.452 7.43577 2.33908 0
M  V30 10154 N 932.681 0.308908 1.54543 0
M  V30 10155 C 933.644 -0.550857 2.22482 0
M  V30 10156 C 934.644 -1.0551 1.21344 0
M  V30 10157 O 935.834 -0.949866 1.46025 0
M  V30 10158 C 932.966 -1.76354 2.9174 0
M  V30 10159 H 934.159 0.0428395 2.99869 0
M  V30 10160 H 931.712 0.059825 1.56185 0
M  V30 10161 H 932.447 -2.39686 2.18451 0
M  V30 10162 H 932.232 -1.40954 3.65889 0
M  V30 10163 H 933.722 -2.37417 3.43545 0
M  V30 10164 N 934.159 -1.57557 0.0367827 0
M  V30 10165 C 935.107 -2.11844 -0.960454 0
M  V30 10166 C 936.101 -1.04681 -1.33185 0
M  V30 10167 O 937.307 -1.23108 -1.31318 0
M  V30 10168 H 933.682 -0.676921 -0.32754 0
M  V30 10169 H 935.653 -2.94557 -0.477346 0
M  V30 10170 C 934.402 -2.66683 -2.23105 0
M  V30 10171 H 933.725 -3.48795 -1.95403 0
M  V30 10172 H 935.165 -3.08305 -2.91074 0
M  V30 10173 C 933.624 -1.59782 -2.96599 0
M  V30 10174 O 934.154 -1.00214 -3.88999 0
M  V30 10175 N 932.36 -1.31644 -2.59072 0
M  V30 10176 H 931.907 -1.80272 -1.8401 0
M  V30 10177 H 931.865 -0.603457 -3.08554 0
M  V30 10178 N 935.637 0.236453 -1.55816 0
M  V30 10179 C 937.053 0.585465 -1.48474 0
M  V30 10180 C 937.253 1.8785 -0.72902 0
M  V30 10181 O 936.309 2.51131 -0.262614 0
M  V30 10182 C 937.622 0.678506 -2.92945 0
M  V30 10183 C 939.17 0.770135 -3.03378 0
M  V30 10184 C 939.645 0.894649 -4.49177 0
M  V30 10185 N 941.136 0.959253 -4.53158 0
M  V30 10186 C 941.871 1.07505 -5.63232 0
M  V30 10187 N 941.367 1.15572 -6.83092 0
M  V30 10188 N 943.16 1.10902 -5.51051 0
M  V30 10189 H 935.311 -0.612241 -2.03385 0
M  V30 10190 H 937.574 -0.212796 -0.923808 0
M  V30 10191 H 937.28 -0.201757 -3.51121 0
M  V30 10192 H 937.154 1.54703 -3.44016 0
M  V30 10193 H 939.541 1.64085 -2.45276 0
M  V30 10194 H 939.622 -0.123753 -2.555 0
M  V30 10195 H 939.266 0.0284537 -5.07892 0
M  V30 10196 H 939.196 1.80373 -4.94745 0
M  V30 10197 H 941.687 0.907827 -3.66834 0
M  V30 10198 H 942 1.24343 -7.62731 0
M  V30 10199 H 940.345 1.12511 -6.85833 0
M  V30 10200 H 943.536 1.04255 -4.56343 0
M  V30 10201 H 943.709 1.19581 -6.36871 0
M  V30 10202 N 937.115 1.49373 0.502552 0
M  V30 10203 C 938.361 1.59016 1.25864 0
M  V30 10204 C 938.694 0.27532 1.92238 0
M  V30 10205 O 937.969 -0.720988 1.80643 0
M  V30 10206 C 938.252 2.74828 2.32683 0
M  V30 10207 C 938.105 4.16102 1.7082 0
M  V30 10208 C 939.424 2.86288 3.34256 0
M  V30 10209 H 936.543 0.578798 0.456248 0
M  V30 10210 H 939.185 1.81651 0.557032 0
M  V30 10211 H 937.335 2.5566 2.92524 0
M  V30 10212 H 939.007 4.46782 1.14818 0
M  V30 10213 H 937.25 4.21822 1.01238 0
M  V30 10214 H 937.921 4.93006 2.48292 0
M  V30 10215 H 940.397 3.03733 2.84404 0
M  V30 10216 H 939.273 3.69001 4.06362 0
M  V30 10217 H 939.534 1.95576 3.96488 0
M  V30 10218 N 938.594 -0.753485 1.38421 0
M  V30 10219 C 939.524 -1.8808 1.38377 0
M  V30 10220 C 940.505 -1.68258 0.249664 0
M  V30 10221 O 941.69 -1.88848 0.45276 0
M  V30 10222 C 938.82 -3.25608 1.20818 0
M  V30 10223 C 937.774 -3.60032 2.31433 0
M  V30 10224 C 937.1 -4.96297 1.9898 0
M  V30 10225 C 938.4 -3.64898 3.73694 0
M  V30 10226 H 940.094 -1.88375 2.32713 0
M  V30 10227 H 937.64 -0.90489 1.12017 0
M  V30 10228 H 939.593 -4.04127 1.19412 0
M  V30 10229 H 938.317 -3.25793 0.229433 0
M  V30 10230 H 936.976 -2.83831 2.32025 0
M  V30 10231 H 936.624 -4.93043 0.995889 0
M  V30 10232 H 936.324 -5.20298 2.73063 0
M  V30 10233 H 937.848 -5.77196 1.99193 0
M  V30 10234 H 939.262 -4.33531 3.75132 0
M  V30 10235 H 937.659 -4.00407 4.46983 0
M  V30 10236 H 938.729 -2.65124 4.06002 0
M  V30 10237 N 940.072 -1.23292 -0.981677 0
M  V30 10238 C 941.321 -1.05832 -1.71705 0
M  V30 10239 C 941.634 0.40514 -1.91358 0
M  V30 10240 O 942.84 0.699645 -2.6233 0
M  V30 10241 C 941.296 -1.84532 -3.08992 0
M  V30 10242 C 940.904 -3.35199 -2.9723 0
M  V30 10243 C 942.648 -1.75557 -3.86497 0
M  V30 10244 C 940.555 -4.06296 -4.29741 0
M  V30 10245 H 939.485 -0.39241 -0.64384 0
M  V30 10246 H 942.136 -1.47247 -1.09502 0
M  V30 10247 H 940.518 -1.35923 -3.71942 0
M  V30 10248 H 941.692 -3.91286 -2.43377 0
M  V30 10249 H 940.007 -3.44973 -2.332 0
M  V30 10250 H 942.604 -2.25989 -4.84596 0
M  V30 10251 H 942.947 -0.718101 -4.1006 0
M  V30 10252 H 943.48 -2.21771 -3.30246 0
M  V30 10253 H 940.219 -5.10344 -4.11375 0
M  V30 10254 H 939.739 -3.54997 -4.83464 0
M  V30 10255 H 941.418 -4.12519 -4.98434 0
M  V30 10256 N 941.55 1.18024 -1.04442 0
M  V30 10257 C 942.775 1.92573 -0.770097 0
M  V30 10258 C 943.2 1.75871 0.667169 0
M  V30 10259 O 942.558 1.07136 1.46258 0
M  V30 10260 C 942.606 3.41904 -1.14602 0
M  V30 10261 O 941.71 4.11491 -0.273712 0
M  V30 10262 H 941.051 0.600636 -0.283076 0
M  V30 10263 H 943.581 1.49645 -1.39526 0
M  V30 10264 H 943.591 3.92623 -1.10956 0
M  V30 10265 H 942.266 3.53382 -2.19304 0
M  V30 10266 H 940.843 3.71059 -0.370124 0
M  V30 10267 N 943.028 0.824394 1.34319 0
M  V30 10268 C 944.439 0.471802 1.8064 0
M  V30 10269 C 944.79 -1.00793 1.6833 0
M  V30 10270 O 943.915 -1.78447 1.22416 0
M  V30 10271 C 944.51 0.849609 3.27974 0
M  V30 10272 C 943.069 0.549365 3.72369 0
M  V30 10273 C 942.216 1.06573 2.56003 0
M  V30 10274 H 945.167 1.01443 1.22045 0
M  V30 10275 H 945.188 0.153968 3.80188 0
M  V30 10276 H 944.7 1.92663 3.36902 0
M  V30 10277 H 942.801 -0.518182 3.68979 0
M  V30 10278 H 942.914 1.09446 4.66432 0
M  V30 10279 H 941.278 0.487214 2.49997 0
M  V30 10280 H 942.061 2.14923 2.677 0
M  V30 10281 N 944.506 -1.46559 0.579492 0
M  V30 10282 C 945.469 -2.28739 -0.145371 0
M  V30 10283 C 946.469 -1.38211 -0.821854 0
M  V30 10284 O 947.659 -1.6062 -0.674302 0
M  V30 10285 C 944.791 -3.18507 -1.21515 0
M  V30 10286 H 945.984 -2.94301 0.576786 0
M  V30 10287 H 943.537 -1.52616 0.337327 0
M  V30 10288 H 944.272 -2.57685 -1.96899 0
M  V30 10289 H 944.057 -3.85157 -0.734616 0
M  V30 10290 H 945.547 -3.80369 -1.72363 0
M  V30 10291 N 945.984 -0.3171 -1.54377 0
M  V30 10292 C 946.932 0.567371 -2.25574 0
M  V30 10293 C 947.926 1.12387 -1.2675 0
M  V30 10294 O 949.132 1.07266 -1.44548 0
M  V30 10295 H 945.507 0.201605 -0.724472 0
M  V30 10296 H 947.478 -0.0554644 -2.98348 0
M  V30 10297 C 946.227 1.71984 -3.02187 0
M  V30 10298 H 945.55 1.30086 -3.78044 0
M  V30 10299 H 946.99 2.31443 -3.5526 0
M  V30 10300 C 945.449 2.6336 -2.10103 0
M  V30 10301 O 945.979 3.64899 -1.67962 0
M  V30 10302 N 944.185 2.3145 -1.75725 0
M  V30 10303 H 943.732 1.48921 -2.10191 0
M  V30 10304 H 943.69 2.92852 -1.14391 0
M  V30 10305 N 947.462 1.57535 -0.0451378 0
M  V30 10306 C 948.372 2.14653 0.946646 0
M  V30 10307 C 949.388 1.10279 1.3459 0
M  V30 10308 O 950.564 1.42417 1.42405 0
M  V30 10309 C 947.629 2.67533 2.20515 0
M  V30 10310 C 946.69 3.86682 1.86481 0
M  V30 10311 C 945.923 4.37031 3.06332 0
M  V30 10312 O 946.146 3.86481 4.1951 0
M  V30 10313 O 945.08 5.28691 2.87697 0
M  V30 10314 H 948.906 2.99706 0.49091 0
M  V30 10315 H 946.491 1.48355 0.17641 0
M  V30 10316 H 948.373 3.01542 2.94365 0
M  V30 10317 H 947.048 1.85554 2.65238 0
M  V30 10318 H 945.955 3.57573 1.09966 0
M  V30 10319 H 947.288 4.69873 1.46562 0
M  V30 10320 N 948.94 -0.228186 1.55939 0
M  V30 10321 C 950.186 -0.954964 1.78909 0
M  V30 10322 C 950.519 -1.8425 0.613648 0
M  V30 10323 O 949.794 -1.90604 -0.38737 0
M  V30 10324 C 950.077 -1.79957 3.1191 0
M  V30 10325 C 949.93 -0.938968 4.3989 0
M  V30 10326 C 951.249 -2.77859 3.41295 0
M  V30 10327 H 948.368 -0.345745 0.650868 0
M  V30 10328 H 951.01 -0.224244 1.88672 0
M  V30 10329 H 949.16 -2.42256 3.03717 0
M  V30 10330 H 950.832 -0.333225 4.60095 0
M  V30 10331 H 949.075 -0.244096 4.33113 0
M  V30 10332 H 949.746 -1.56416 5.29375 0
M  V30 10333 H 952.222 -2.25695 3.49572 0
M  V30 10334 H 951.098 -3.34062 4.35538 0
M  V30 10335 H 951.359 -3.55266 2.63132 0
M  V30 10336 N 950.418 -1.49637 -0.494624 0
M  V30 10337 C 951.664 -1.59681 -1.25019 0
M  V30 10338 C 951.997 -0.285511 -1.9209 0
M  V30 10339 O 951.272 0.711398 -1.81023 0
M  V30 10340 C 951.555 -2.76058 -2.31222 0
M  V30 10341 C 951.408 -4.17002 -1.68611 0
M  V30 10342 C 952.727 -2.88056 -3.32734 0
M  V30 10343 H 949.846 -0.581209 -0.453172 0
M  V30 10344 H 952.488 -1.81944 -0.547391 0
M  V30 10345 H 950.638 -2.57207 -2.91164 0
M  V30 10346 H 952.31 -4.47385 -1.12447 0
M  V30 10347 H 950.553 -4.22352 -0.989991 0
M  V30 10348 H 951.224 -4.94316 -2.45674 0
M  V30 10349 H 953.7 -3.05237 -2.82789 0
M  V30 10350 H 952.576 -3.71151 -4.04399 0
M  V30 10351 H 952.837 -1.97676 -3.95445 0
M  V30 10352 N 951.896 0.746133 -1.38819 0
M  V30 10353 C 952.843 1.86001 -1.36647 0
M  V30 10354 C 953.813 1.6453 -0.227849 0
M  V30 10355 O 954.998 1.86092 -0.421241 0
M  V30 10356 C 952.138 3.23388 -1.20474 0
M  V30 10357 C 951.251 3.5664 -2.43786 0
M  V30 10358 C 950.386 4.8337 -2.20287 0
M  V30 10359 C 949.425 5.09431 -3.39332 0
M  V30 10360 N 948.562 6.2736 -3.1522 0
M  V30 10361 H 953.402 1.87192 -2.31869 0
M  V30 10362 H 950.939 0.914838 -1.15192 0
M  V30 10363 H 952.897 4.02679 -1.09112 0
M  V30 10364 H 951.527 3.21505 -0.288874 0
M  V30 10365 H 950.579 2.72135 -2.65794 0
M  V30 10366 H 951.891 3.71823 -3.3249 0
M  V30 10367 H 951.045 5.70619 -2.06103 0
M  V30 10368 H 949.784 4.70341 -1.28961 0
M  V30 10369 H 948.789 4.20648 -3.54027 0
M  V30 10370 H 950.014 5.24354 -4.31544 0
M  V30 10371 H 947.96 6.15639 -2.26549 0
M  V30 10372 H 947.877 6.43078 -3.97476 0
M  V30 10373 H 949.145 7.17477 -3.04707 0
M  V30 10374 N 953.375 1.23811 0.975125 0
M  V30 10375 C 954.621 1.08502 1.72043 0
M  V30 10376 C 954.976 -0.373437 1.88741 0
M  V30 10377 O 954.269 -1.27248 1.43243 0
M  V30 10378 C 954.463 1.74994 3.11628 0
M  V30 10379 C 954.292 3.27155 3.08544 0
M  V30 10380 C 953.062 3.96338 3.1344 0
M  V30 10381 C 955.26 4.23851 2.91299 0
M  V30 10382 N 953.242 5.35439 3.00297 0
M  V30 10383 C 954.613 5.499 2.86375 0
M  V30 10384 C 956.668 4.14519 2.75824 0
M  V30 10385 C 955.371 6.67687 2.67558 0
M  V30 10386 C 957.397 5.31975 2.58372 0
M  V30 10387 C 956.759 6.56953 2.5415 0
M  V30 10388 H 952.858 0.451607 0.638416 0
M  V30 10389 H 955.442 1.56617 1.15669 0
M  V30 10390 H 953.613 1.29404 3.66209 0
M  V30 10391 H 955.345 1.52614 3.74822 0
M  V30 10392 H 952.1 3.47453 3.21828 0
M  V30 10393 H 952.524 6.08381 2.96987 0
M  V30 10394 H 957.166 3.18662 2.77874 0
M  V30 10395 H 954.884 7.63673 2.64251 0
M  V30 10396 H 958.47 5.266 2.47354 0
M  V30 10397 H 957.35 7.46309 2.40817 0
M  V30 10398 N 954.853 -1.17469 1.05066 0
M  V30 10399 C 955.816 -2.19648 0.654793 0
M  V30 10400 C 956.816 -1.58107 -0.293063 0
M  V30 10401 O 958.006 -1.74029 -0.077106 0
M  V30 10402 C 955.138 -3.40878 -0.0384437 0
M  V30 10403 H 956.331 -2.56184 1.55915 0
M  V30 10404 H 953.884 -1.31528 0.844396 0
M  V30 10405 H 954.619 -3.09885 -0.956133 0
M  V30 10406 H 954.404 -3.86792 0.642961 0
M  V30 10407 H 955.894 -4.1651 -0.301568 0
M  V30 10408 N 956.331 -0.831506 -1.3388 0
M  V30 10409 C 957.294 -0.264773 -2.27666 0
M  V30 10410 C 958.294 0.562273 -1.50649 0
M  V30 10411 O 959.484 0.377131 -1.70069 0
M  V30 10412 C 956.616 0.627814 -3.35069 0
M  V30 10413 H 957.809 -1.09225 -2.79303 0
M  V30 10414 H 955.362 -0.604021 -1.44157 0
M  V30 10415 H 956.097 1.47802 -2.88661 0
M  V30 10416 H 955.882 0.0361552 -3.92083 0
M  V30 10417 H 957.372 1.01786 -4.05005 0
M  V30 10418 N 957.809 1.4625 -0.587256 0
M  V30 10419 C 959.057 2.01963 -0.0744273 0
M  V30 10420 C 959.378 1.46065 1.29189 0
M  V30 10421 O 958.648 0.647077 1.84905 0
M  V30 10422 H 957.228 0.746597 -0.0245236 0
M  V30 10423 H 959.89 1.79299 -0.764063 0
M  V30 10424 H 958.986 3.12099 -0.00884894 0
M  V30 10425 N 959.287 0.325282 1.54207 0
M  V30 10426 C 960.235 -0.5554 2.25872 0
M  V30 10427 C 961.229 -1.11714 1.27344 0
M  V30 10428 O 962.435 -1.06498 1.45115 0
M  V30 10429 H 958.81 -0.19776 0.725531 0
M  V30 10430 H 960.781 0.0712858 2.98315 0
M  V30 10431 C 959.53 -1.70379 3.03095 0
M  V30 10432 H 958.853 -1.2808 3.78729 0
M  V30 10433 H 960.293 -2.29556 3.56483 0
M  V30 10434 C 958.752 -2.62242 2.11496 0
M  V30 10435 O 959.282 -3.64003 1.69895 0
M  V30 10436 N 957.488 -2.30515 1.7695 0
M  V30 10437 H 957.035 -1.47805 2.10978 0
M  V30 10438 H 956.993 -2.92241 1.15942 0
M  V30 10439 N 960.765 -1.57509 0.0534917 0
M  V30 10440 C 961.99 -1.97511 -0.632794 0
M  V30 10441 C 962.415 -0.930947 -1.63447 0
M  V30 10442 O 961.773 0.105558 -1.80992 0
M  V30 10443 C 961.821 -3.3658 -1.29407 0
M  V30 10444 O 960.925 -3.3467 -2.40977 0
M  V30 10445 H 960.266 -0.643349 -0.16431 0
M  V30 10446 H 962.796 -2.04232 0.12258 0
M  V30 10447 H 962.806 -3.73359 -1.64521 0
M  V30 10448 H 961.481 -4.12113 -0.559976 0
M  V30 10449 H 960.058 -3.09639 -2.07793 0
M  V30 10450 N 962.243 0.219913 -1.56058 0
M  V30 10451 C 963.489 0.945463 -1.79412 0
M  V30 10452 C 963.822 1.83922 -0.62341 0
M  V30 10453 O 963.097 1.90806 0.377256 0
M  V30 10454 C 963.38 1.783 -3.1286 0
M  V30 10455 C 963.233 0.915626 -4.40382 0
M  V30 10456 C 964.552 2.76045 -3.42764 0
M  V30 10457 H 961.671 0.342288 -0.652693 0
M  V30 10458 H 964.313 0.214235 -1.88788 0
M  V30 10459 H 962.463 2.40642 -3.04998 0
M  V30 10460 H 964.135 0.30882 -4.60265 0
M  V30 10461 H 962.378 0.221124 -4.33236 0
M  V30 10462 H 963.049 1.53607 -5.30197 0
M  V30 10463 H 965.525 2.23838 -3.50764 0
M  V30 10464 H 964.401 3.31748 -4.37304 0
M  V30 10465 H 964.662 3.53866 -2.65012 0
M  V30 10466 N 963.721 1.49897 0.486681 0
M  V30 10467 C 964.631 1.70379 1.6127 0
M  V30 10468 C 965.647 0.58659 1.63814 0
M  V30 10469 O 966.823 0.863044 1.81971 0
M  V30 10470 C 963.888 1.77911 2.97571 0
M  V30 10471 C 962.949 3.01569 3.0554 0
M  V30 10472 C 962.182 3.08732 4.35339 0
M  V30 10473 O 962.405 2.23099 5.2496 0
M  V30 10474 O 961.339 4.01325 4.48578 0
M  V30 10475 H 965.165 2.65799 1.46916 0
M  V30 10476 H 962.75 1.33808 0.664516 0
M  V30 10477 H 964.632 1.85135 3.78554 0
M  V30 10478 H 963.307 0.856722 3.12157 0
M  V30 10479 H 962.214 2.99854 2.23693 0
M  V30 10480 H 963.547 3.93335 2.95886 0
M  V30 10481 N 965.199 -0.738761 1.39212 0
M  V30 10482 C 966.448 -1.49368 1.35543 0
M  V30 10483 C 966.761 -1.95543 -0.0471091 0
M  V30 10484 O 967.967 -2.70714 -0.206376 0
M  V30 10485 C 966.423 -2.69882 2.381 0
M  V30 10486 C 966.031 -2.30672 3.8405 0
M  V30 10487 C 967.775 -3.47718 2.435 0
M  V30 10488 C 965.682 -3.47886 4.78256 0
M  V30 10489 H 964.612 -0.560898 0.503894 0
M  V30 10490 H 967.263 -0.806221 1.6484 0
M  V30 10491 H 965.645 -3.40684 2.01867 0
M  V30 10492 H 966.819 -1.67441 4.29302 0
M  V30 10493 H 965.134 -1.65936 3.81909 0
M  V30 10494 H 967.731 -4.34897 3.11077 0
M  V30 10495 H 968.074 -3.89919 1.45838 0
M  V30 10496 H 968.607 -2.83942 2.78606 0
M  V30 10497 H 965.346 -3.10739 5.77167 0
M  V30 10498 H 964.866 -4.10111 4.37686 0
M  V30 10499 H 966.545 -4.14271 4.96979 0
M  V30 10500 N 966.677 -1.24326 -0.968545 0
M  V30 10501 C 967.587 -1.05194 -2.09694 0
M  V30 10502 C 968.603 0.00701291 -1.73999 0
M  V30 10503 O 969.779 -0.190981 -2.00492 0
M  V30 10504 C 966.844 -0.658075 -3.40397 0
M  V30 10505 C 965.905 -1.79341 -3.90045 0
M  V30 10506 C 965.138 -1.41824 -5.14511 0
M  V30 10507 O 965.361 -0.307693 -5.69569 0
M  V30 10508 O 964.295 -2.24358 -5.58522 0
M  V30 10509 H 968.121 -1.99791 -2.2873 0
M  V30 10510 H 965.706 -1.03138 -1.08088 0
M  V30 10511 H 967.588 -0.449911 -4.18991 0
M  V30 10512 H 966.263 0.258782 -3.22664 0
M  V30 10513 H 965.17 -2.05632 -3.12516 0
M  V30 10514 H 966.503 -2.68901 -4.12254 0
M  V30 10515 N 968.156 1.1691 -1.05688 0
M  V30 10516 C 969.086 2.23275 -0.683402 0
M  V30 10517 C 970.067 1.6704 0.321206 0
M  V30 10518 O 971.252 1.93191 0.197691 0
M  V30 10519 C 968.382 3.47244 -0.0626006 0
M  V30 10520 C 967.336 4.16333 -0.992513 0
M  V30 10521 C 966.662 5.34182 -0.23533 0
M  V30 10522 C 967.962 4.68002 -2.31886 0
M  V30 10523 H 969.656 2.54771 -1.57264 0
M  V30 10524 H 967.202 1.2246 -0.757606 0
M  V30 10525 H 969.155 4.20874 0.210503 0
M  V30 10526 H 967.879 3.1503 0.861616 0
M  V30 10527 H 966.538 3.44622 -1.25026 0
M  V30 10528 H 966.186 4.9822 0.69181 0
M  V30 10529 H 965.886 5.81346 -0.855002 0
M  V30 10530 H 967.41 6.10592 0.0303717 0
M  V30 10531 H 968.824 5.33244 -2.10531 0
M  V30 10532 H 967.221 5.25764 -2.89296 0
M  V30 10533 H 968.291 3.84541 -2.95391 0
M  V30 10534 N 969.634 0.838594 1.33437 0
M  V30 10535 C 970.911 0.356112 1.92331 0
M  V30 10536 C 971.291 -1.1585 1.76471 0
M  V30 10537 O 970.639 -1.97281 1.15293 0
M  V30 10538 C 970.849 0.802715 3.39643 0
M  V30 10539 C 972.197 0.810575 4.16791 0
M  V30 10540 O 973.221 0.746304 3.48294 0
M  V30 10541 O 972.08 0.898082 5.3907 0
M  V30 10542 H 969.174 0.100711 0.820845 0
M  V30 10543 H 971.72 0.924428 1.42311 0
M  V30 10544 H 970.492 1.84529 3.45057 0
M  V30 10545 H 970.115 0.210956 3.9704 0
M  V30 10546 N 971.112 -1.45937 0.595003 0
M  V30 10547 C 972.075 -2.2888 -0.121102 0
M  V30 10548 C 973.075 -1.39075 -0.807149 0
M  V30 10549 O 974.265 -1.61326 -0.657228 0
M  V30 10550 C 971.397 -3.19778 -1.1813 0
M  V30 10551 H 972.59 -2.93673 0.607968 0
M  V30 10552 H 970.143 -1.5225 0.353495 0
M  V30 10553 H 970.878 -2.59759 -1.94154 0
M  V30 10554 H 970.663 -3.85914 -0.693724 0
M  V30 10555 H 972.153 -3.82176 -1.68319 0
M  V30 10556 N 972.59 -0.333456 -1.54032 0
M  V30 10557 C 973.839 0.267081 -1.99924 0
M  V30 10558 C 974.152 1.52463 -1.22534 0
M  V30 10559 O 975.358 2.20178 -1.58852 0
M  V30 10560 C 973.814 0.526456 -3.56029 0
M  V30 10561 C 973.422 -0.714607 -4.42264 0
M  V30 10562 C 975.166 1.0864 -4.10363 0
M  V30 10563 C 973.073 -0.42659 -5.89859 0
M  V30 10564 H 972.003 0.103577 -0.746852 0
M  V30 10565 H 974.654 -0.447218 -1.77967 0
M  V30 10566 H 973.036 1.3012 -3.74012 0
M  V30 10567 H 974.21 -1.48968 -4.36056 0
M  V30 10568 H 972.525 -1.19547 -3.9887 0
M  V30 10569 H 975.122 1.31668 -5.18235 0
M  V30 10570 H 975.465 2.03884 -3.62956 0
M  V30 10571 H 975.998 0.37261 -3.96051 0
M  V30 10572 H 972.737 -1.34847 -6.4148 0
M  V30 10573 H 972.257 0.310588 -5.98995 0
M  V30 10574 H 973.936 -0.0400807 -6.46988 0
M  V30 10575 N 974.068 1.57479 -0.061844 0
M  V30 10576 C 975.298 1.97142 0.61794 0
M  V30 10577 C 975.706 0.938533 1.64281 0
M  V30 10578 O 975.049 -0.084385 1.83506 0
M  V30 10579 C 975.111 3.33083 1.35263 0
M  V30 10580 C 974.775 4.54447 0.482372 0
M  V30 10581 C 975.772 5.1927 -0.255954 0
M  V30 10582 C 973.457 5.00623 0.410167 0
M  V30 10583 C 975.451 6.28612 -1.05481 0
M  V30 10584 C 973.138 6.09839 -0.392369 0
M  V30 10585 C 974.136 6.73696 -1.12354 0
M  V30 10586 O 973.824 7.80811 -1.91285 0
M  V30 10587 H 973.556 0.653497 0.172969 0
M  V30 10588 H 976.11 2.05002 -0.127781 0
M  V30 10589 H 974.34 3.21808 2.14421 0
M  V30 10590 H 976.029 3.5742 1.92368 0
M  V30 10591 H 976.795 4.84546 -0.209703 0
M  V30 10592 H 972.674 4.50704 0.968883 0
M  V30 10593 H 976.218 6.78385 -1.62602 0
M  V30 10594 H 972.115 6.43997 -0.44022 0
M  V30 10595 H 972.883 7.9764 -1.83611 0
M  V30 10596 N 975.546 -0.211634 1.56173 0
M  V30 10597 C 976.957 -0.777776 1.69728 0
M  V30 10598 C 977.308 -1.84566 0.66558 0
M  V30 10599 O 976.433 -2.15639 -0.181338 0
M  V30 10600 C 977.028 -1.41757 3.07718 0
M  V30 10601 C 975.587 -1.93098 3.23094 0
M  V30 10602 C 974.734 -0.794785 2.65666 0
M  V30 10603 H 977.685 0.0131839 1.58695 0
M  V30 10604 H 977.706 -2.28662 3.04128 0
M  V30 10605 H 977.218 -0.640114 3.82785 0
M  V30 10606 H 975.319 -2.73615 2.52914 0
M  V30 10607 H 975.432 -2.10414 4.30422 0
M  V30 10608 H 973.796 -1.20473 2.24407 0
M  V30 10609 H 974.579 -0.0298408 3.43287 0
M  V30 10610 N 977.024 -1.50153 -0.478725 0
M  V30 10611 C 978.272 -1.60443 -1.22892 0
M  V30 10612 C 978.593 -0.303276 -1.92627 0
M  V30 10613 O 977.863 0.678798 -1.83764 0
M  V30 10614 H 976.443 -0.591205 -0.456602 0
M  V30 10615 H 979.105 -1.86893 -0.552905 0
M  V30 10616 H 978.201 -2.41175 -1.98094 0
M  V30 10617 N 978.502 0.731368 -1.39602 0
M  V30 10618 C 979.412 1.87579 -1.40894 0
M  V30 10619 C 980.428 1.71336 -0.303319 0
M  V30 10620 O 981.604 1.93875 -0.545377 0
M  V30 10621 C 978.669 3.23211 -1.25442 0
M  V30 10622 C 977.73 3.51822 -2.46008 0
M  V30 10623 C 976.963 4.80982 -2.31284 0
M  V30 10624 O 977.186 5.54958 -1.31824 0
M  V30 10625 O 976.12 5.09574 -3.20341 0
M  V30 10626 H 979.946 1.89444 -2.3737 0
M  V30 10627 H 977.531 0.879675 -1.20756 0
M  V30 10628 H 979.413 4.04257 -1.18972 0
M  V30 10629 H 978.088 3.22108 -0.320637 0
M  V30 10630 H 976.995 2.70847 -2.58055 0
M  V30 10631 H 978.328 3.57707 -3.38093 0
M  V30 10632 N 979.98 1.24838 0.961938 0
M  V30 10633 C 980.928 1.0436 2.07874 0
M  V30 10634 C 981.922 -0.0232531 1.69384 0
M  V30 10635 O 983.128 0.131773 1.79517 0
M  V30 10636 H 979.503 0.320492 0.680286 0
M  V30 10637 H 981.474 1.99055 2.22306 0
M  V30 10638 C 980.223 0.671246 3.41159 0
M  V30 10639 H 979.546 1.48395 3.7124 0
M  V30 10640 H 980.986 0.567608 4.20184 0
M  V30 10641 C 979.445 -0.622124 3.31106 0
M  V30 10642 O 979.975 -1.66627 3.65511 0
M  V30 10643 N 978.181 -0.605009 2.84232 0
M  V30 10644 H 977.728 0.245052 2.56432 0
M  V30 10645 H 977.686 -1.47056 2.77888 0
M  V30 10646 N 981.458 -1.16348 1.06306 0
M  V30 10647 C 982.707 -1.8622 0.774909 0
M  V30 10648 C 983.02 -1.82598 -0.701245 0
M  V30 10649 O 984.226 -2.48051 -1.10377 0
M  V30 10650 C 982.682 -3.34182 1.33604 0
M  V30 10651 C 982.29 -3.46279 2.84245 0
M  V30 10652 C 984.034 -4.09309 1.12544 0
M  V30 10653 C 981.941 -4.88327 3.33602 0
M  V30 10654 H 980.871 -0.697574 0.286194 0
M  V30 10655 H 983.522 -1.31311 1.28179 0
M  V30 10656 H 981.904 -3.88698 0.756937 0
M  V30 10657 H 983.078 -3.01923 3.48108 0
M  V30 10658 H 981.393 -2.84585 3.03974 0
M  V30 10659 H 983.99 -5.14123 1.46909 0
M  V30 10660 H 984.333 -4.16251 0.0638129 0
M  V30 10661 H 984.866 -3.61032 1.67034 0
M  V30 10662 H 981.605 -4.86565 4.39244 0
M  V30 10663 H 981.125 -5.33307 2.74487 0
M  V30 10664 H 982.804 -5.57144 3.28937 0
M  V30 10665 N 982.937 -0.845659 -1.3299 0
M  V30 10666 C 983.869 -0.241097 -2.27928 0
M  V30 10667 C 984.882 0.582048 -1.5204 0
M  V30 10668 O 986.071 0.408008 -1.73774 0
M  V30 10669 C 983.171 0.678652 -3.32035 0
M  V30 10670 C 982.344 -0.106652 -4.3727 0
M  V30 10671 C 981.403 0.737478 -5.21006 0
M  V30 10672 O 980.429 0.174231 -5.68933 0
M  V30 10673 N 981.631 2.05372 -5.42957 0
M  V30 10674 H 984.396 -1.05685 -2.80448 0
M  V30 10675 H 981.957 -0.704771 -1.45755 0
M  V30 10676 H 983.949 1.24849 -3.84961 0
M  V30 10677 H 982.519 1.3951 -2.79742 0
M  V30 10678 H 981.739 -0.857897 -3.84752 0
M  V30 10679 H 983.027 -0.646386 -5.04677 0
M  V30 10680 H 982.425 2.53478 -5.05733 0
M  V30 10681 H 980.982 2.5719 -5.98913 0
M  V30 10682 N 984.415 1.45619 -0.602734 0
M  V30 10683 C 985.664 2.01483 -0.0936395 0
M  V30 10684 C 985.977 1.47753 1.28173 0
M  V30 10685 O 987.183 1.95562 1.88329 0
M  V30 10686 C 985.639 3.59711 -0.116738 0
M  V30 10687 C 985.247 4.22437 -1.49166 0
M  V30 10688 C 986.991 4.23157 0.337368 0
M  V30 10689 C 984.898 5.72803 -1.47141 0
M  V30 10690 H 983.828 0.753353 -0.0312382 0
M  V30 10691 H 986.479 1.67142 -0.757347 0
M  V30 10692 H 984.861 3.91218 0.613529 0
M  V30 10693 H 986.035 4.02511 -2.24325 0
M  V30 10694 H 984.35 3.71166 -1.88746 0
M  V30 10695 H 986.947 5.33407 0.371628 0
M  V30 10696 H 987.29 3.93491 1.35906 0
M  V30 10697 H 987.823 3.96349 -0.339474 0
M  V30 10698 H 984.562 6.07161 -2.47055 0
M  V30 10699 H 984.082 5.94936 -0.762329 0
M  V30 10700 H 985.761 6.35907 -1.19294 0
M  V30 10701 N 985.893 0.34162 1.53853 0
M  V30 10702 C 986.841 -0.531412 2.26448 0
M  V30 10703 C 987.835 -1.10357 1.28521 0
M  V30 10704 O 989.041 -1.04953 1.46236 0
M  V30 10705 H 985.416 -0.190054 0.727588 0
M  V30 10706 H 987.387 0.102922 2.98222 0
M  V30 10707 C 986.136 -1.67154 3.04885 0
M  V30 10708 H 985.459 -1.24055 3.80066 0
M  V30 10709 H 986.899 -2.25762 3.58898 0
M  V30 10710 C 985.358 -2.59984 2.14266 0
M  V30 10711 O 985.888 -3.62181 1.73746 0
M  V30 10712 N 984.094 -2.28625 1.79385 0
M  V30 10713 H 983.641 -1.45559 2.12533 0
M  V30 10714 H 983.599 -2.90995 1.19035 0
M  V30 10715 N 987.371 -1.57444 0.0701946 0
M  V30 10716 C 988.618 -1.93429 -0.59929 0
M  V30 10717 C 988.946 -0.9501 -1.69715 0
M  V30 10718 O 988.201 0.0345377 -1.9567 0
M  V30 10719 C 988.5 -3.36044 -1.21694 0
M  V30 10720 C 988.166 -4.50232 -0.245374 0
M  V30 10721 C 986.828 -4.81195 0.0219161 0
M  V30 10722 C 989.18 -5.1951 0.419396 0
M  V30 10723 C 986.508 -5.78775 0.96109 0
M  V30 10724 C 988.86 -6.18095 1.34688 0
M  V30 10725 C 987.524 -6.47477 1.62265 0
M  V30 10726 H 986.794 -0.707807 -0.219296 0
M  V30 10727 H 989.441 -1.90982 0.14073 0
M  V30 10728 H 987.746 -3.34948 -2.03265 0
M  V30 10729 H 989.443 -3.61176 -1.74221 0
M  V30 10730 H 986.033 -4.26082 -0.463887 0
M  V30 10731 H 990.217 -4.95785 0.226009 0
M  V30 10732 H 985.473 -5.99865 1.18202 0
M  V30 10733 H 989.647 -6.7088 1.86795 0
M  V30 10734 H 987.274 -7.229 2.352 0
M  V30 10735 N 988.849 0.203349 -1.56283 0
M  V30 10736 C 990.097 0.923183 -1.79782 0
M  V30 10737 C 990.418 1.84134 -0.64185 0
M  V30 10738 O 989.688 1.92922 0.340292 0
M  V30 10739 H 988.268 0.343881 -0.66314 0
M  V30 10740 H 990.93 0.210837 -1.93756 0
M  V30 10741 H 990.026 1.51921 -2.72629 0
M  V30 10742 N 990.327 1.50405 0.470755 0
M  V30 10743 C 991.274 1.69293 1.56871 0
M  V30 10744 C 992.244 0.534248 1.57274 0
M  V30 10745 O 993.429 0.764855 1.74799 0
M  V30 10746 C 990.569 1.79338 2.94842 0
M  V30 10747 C 989.682 3.06709 3.04226 0
M  V30 10748 C 988.817 3.07548 4.33114 0
M  V30 10749 C 987.856 4.29372 4.36241 0
M  V30 10750 N 986.993 4.27949 5.56601 0
M  V30 10751 H 991.833 2.63029 1.40071 0
M  V30 10752 H 989.37 1.30386 0.681016 0
M  V30 10753 H 991.328 1.83143 3.74853 0
M  V30 10754 H 989.958 0.890411 3.10277 0
M  V30 10755 H 989.01 3.12374 2.17086 0
M  V30 10756 H 990.322 3.96684 3.02396 0
M  V30 10757 H 989.476 3.10084 5.21472 0
M  V30 10758 H 988.215 2.15404 4.37553 0
M  V30 10759 H 987.22 4.27048 3.4628 0
M  V30 10760 H 988.445 5.22743 4.33493 0
M  V30 10761 H 986.391 3.38658 5.61824 0
M  V30 10762 H 986.308 5.11692 5.56513 0
M  V30 10763 H 987.576 4.34631 6.47083 0
M  V30 10764 N 991.805 -0.723954 1.39988 0
M  V30 10765 C 993.082 -1.4763 1.28316 0
M  V30 10766 C 993.462 -2.10852 -0.102302 0
M  V30 10767 O 992.81 -1.9948 -1.11445 0
M  V30 10768 C 993.02 -2.51878 2.41574 0
M  V30 10769 C 994.368 -3.17948 2.81415 0
M  V30 10770 O 995.392 -2.62195 2.41106 0
M  V30 10771 O 994.251 -4.18858 3.51027 0
M  V30 10772 H 991.345 -0.656092 0.50346 0
M  V30 10773 H 993.891 -0.75684 1.51888 0
M  V30 10774 H 992.663 -2.03618 3.34149 0
M  V30 10775 H 992.286 -3.3137 2.19727 0
M  V30 10776 N 993.283 -1.25346 -0.955304 0
M  V30 10777 C 994.246 -1.05754 -2.03344 0
M  V30 10778 C 995.246 -0.0105743 -1.60797 0
M  V30 10779 O 996.436 -0.252699 -1.72357 0
M  V30 10780 C 993.568 -0.605536 -3.35479 0
M  V30 10781 H 994.761 -2.01459 -2.22158 0
M  V30 10782 H 992.314 -1.07744 -1.1323 0
M  V30 10783 H 993.049 0.354154 -3.2236 0
M  V30 10784 H 992.834 -1.36134 -3.67709 0
M  V30 10785 H 994.324 -0.489867 -4.14717 0
M  V30 10786 N 994.761 1.15782 -1.06922 0
M  V30 10787 C 996.172 1.68062 -0.813144 0
M  V30 10788 C 996.523 1.84681 0.662374 0
M  V30 10789 O 995.648 1.54696 1.51321 0
M  V30 10790 C 996.243 3.05273 -1.46949 0
M  V30 10791 C 994.802 3.54647 -1.26104 0
M  V30 10792 C 993.949 2.30477 -1.54194 0
M  V30 10793 H 996.9 1.00056 -1.23185 0
M  V30 10794 H 996.921 3.69986 -0.888308 0
M  V30 10795 H 996.433 2.93145 -2.54337 0
M  V30 10796 H 994.534 3.72024 -0.20718 0
M  V30 10797 H 994.647 4.36354 -1.97819 0
M  V30 10798 H 993.011 2.35803 -0.96276 0
M  V30 10799 H 993.794 2.2094 -2.62755 0
M  V30 10800 N 996.239 0.8527 1.3254 0
M  V30 10801 C 997.479 0.461385 1.99125 0
M  V30 10802 C 997.843 -0.964507 1.66016 0
M  V30 10803 O 999.044 -1.46027 2.25676 0
M  V30 10804 C 997.315 0.69143 3.50648 0
M  V30 10805 S 998.874 0.397397 4.36997 0
M  V30 10806 H 995.692 0.172933 0.689649 0
M  V30 10807 H 998.294 1.10499 1.61277 0
M  V30 10808 H 996.998 1.72831 3.72233 0
M  V30 10809 H 996.529 0.0341812 3.93385 0
M  V30 10810 H 998.544 -0.777363 4.90073 0
M  V30 10811 N 997.718 -1.45297 0.610449 0
M  V30 10812 C 998.946 -2.0659 0.113211 0
M  V30 10813 C 999.361 -1.4546 -1.20361 0
M  V30 10814 O 998.718 -0.569823 -1.73376 0
M  V30 10815 C 998.769 -3.61488 -0.0298411 0
M  V30 10816 O 998.49 -4.20336 1.23488 0
M  V30 10817 C 999.991 -4.39772 -0.558202 0
M  V30 10818 H 997.211 -0.667322 0.0701555 0
M  V30 10819 H 999.755 -1.86497 0.838993 0
M  V30 10820 H 997.91 -3.80913 -0.705963 0
M  V30 10821 H 998.324 -5.13545 1.0664 0
M  V30 10822 H 999.798 -5.48648 -0.607375 0
M  V30 10823 H 1000.27 -4.09755 -1.58107 0
M  V30 10824 H 1000.88 -4.25217 0.0839704 0
M  V30 10825 N 999.196 -0.349774 -1.5367 0
M  V30 10826 C 1000.44 0.237837 -2.02005 0
M  V30 10827 C 1000.8 1.477 -1.23298 0
M  V30 10828 O 1000.09 1.8901 -0.313947 0
M  V30 10829 C 1000.28 0.598311 -3.52356 0
M  V30 10830 C 1000.11 -0.604368 -4.4562 0
M  V30 10831 C 998.883 -1.1116 -4.92922 0
M  V30 10832 C 1001.08 -1.46474 -4.93001 0
M  V30 10833 N 999.063 -2.27595 -5.70152 0
M  V30 10834 C 1000.43 -2.47593 -5.68417 0
M  V30 10835 C 1002.49 -1.48947 -4.75099 0
M  V30 10836 C 1001.19 -3.51021 -6.27835 0
M  V30 10837 C 1003.22 -2.51259 -5.35372 0
M  V30 10838 C 1002.58 -3.51103 -6.1066 0
M  V30 10839 H 998.679 0.0501688 -0.780389 0
M  V30 10840 H 1001.26 -0.490748 -1.88414 0
M  V30 10841 H 999.434 1.29599 -3.6614 0
M  V30 10842 H 1001.17 1.16965 -3.87429 0
M  V30 10843 H 997.921 -0.678699 -4.68712 0
M  V30 10844 H 998.345 -2.864 -6.13436 0
M  V30 10845 H 1002.99 -0.731138 -4.1643 0
M  V30 10846 H 1000.7 -4.27745 -6.85609 0
M  V30 10847 H 1004.29 -2.54006 -5.23423 0
M  V30 10848 H 1003.17 -4.28974 -6.56469 0
M  V30 10849 N 1000.67 1.57404 -0.0785433 0
M  V30 10850 C 1001.92 1.93361 0.58786 0
M  V30 10851 C 1002.24 0.959856 1.6974 0
M  V30 10852 O 1001.51 0.0091173 1.95898 0
M  V30 10853 H 1000.09 0.713825 0.220141 0
M  V30 10854 H 1002.75 1.94411 -0.137986 0
M  V30 10855 H 1001.85 2.95346 1.00881 0
M  V30 10856 N 1002.15 -0.195058 1.56388 0
M  V30 10857 C 1003.57 -0.545894 1.49974 0
M  V30 10858 C 1003.77 -1.85851 0.778568 0
M  V30 10859 O 1002.82 -2.50346 0.329105 0
M  V30 10860 C 1004.14 -0.600599 2.94641 0
M  V30 10861 C 1005.68 -0.689429 3.05313 0
M  V30 10862 C 1006.16 -0.775243 4.51391 0
M  V30 10863 N 1007.65 -0.838769 4.55542 0
M  V30 10864 C 1008.39 -0.925337 5.65884 0
M  V30 10865 N 1007.88 -0.974204 6.85916 0
M  V30 10866 N 1009.67 -0.962528 5.53798 0
M  V30 10867 H 1001.83 0.66595 2.0169 0
M  V30 10868 H 1004.09 0.237215 0.917842 0
M  V30 10869 H 1003.79 0.29478 3.50462 0
M  V30 10870 H 1003.67 -1.45528 3.47996 0
M  V30 10871 H 1006.06 -1.57524 2.4954 0
M  V30 10872 H 1006.14 0.191451 2.55083 0
M  V30 10873 H 1005.78 0.106215 5.07789 0
M  V30 10874 H 1005.71 -1.67193 4.99354 0
M  V30 10875 H 1008.2 -0.810249 3.69112 0
M  V30 10876 H 1008.51 -1.04077 7.6576 0
M  V30 10877 H 1006.86 -0.942881 6.88574 0
M  V30 10878 H 1010.05 -0.921188 4.58946 0
M  V30 10879 H 1010.22 -1.02653 6.39817 0
M  V30 10880 N 1003.63 -1.50653 -0.462772 0
M  V30 10881 C 1004.56 -1.73056 -1.5676 0
M  V30 10882 C 1005.54 -0.579699 -1.59917 0
M  V30 10883 O 1006.73 -0.819729 -1.76051 0
M  V30 10884 C 1003.86 -1.83234 -2.9503 0
M  V30 10885 C 1002.81 -2.98488 -3.06739 0
M  V30 10886 C 1002.14 -2.93818 -4.46738 0
M  V30 10887 C 1003.44 -4.38869 -2.83181 0
M  V30 10888 H 1005.13 -2.65562 -1.38265 0
M  V30 10889 H 1002.68 -1.27792 -0.663722 0
M  V30 10890 H 1004.63 -1.97491 -3.72257 0
M  V30 10891 H 1003.35 -0.873558 -3.14701 0
M  V30 10892 H 1002.01 -2.83895 -2.31946 0
M  V30 10893 H 1001.66 -1.95769 -4.63339 0
M  V30 10894 H 1001.36 -3.71197 -4.55507 0
M  V30 10895 H 1002.88 -3.10135 -5.25974 0
M  V30 10896 H 1004.3 -4.53945 -3.50153 0
M  V30 10897 H 1002.69 -5.17762 -3.03386 0
M  V30 10898 H 1003.76 -4.50663 -1.78972 0
M  V30 10899 N 1005.11 0.71652 -1.4037 0
M  V30 10900 C 1006.02 1.86074 -1.42876 0
M  V30 10901 C 1007.03 1.71005 -0.321475 0
M  V30 10902 O 1008.21 1.93286 -0.565909 0
M  V30 10903 C 1005.28 3.21862 -1.28863 0
M  V30 10904 C 1004.34 3.49193 -2.49726 0
M  V30 10905 C 1003.57 4.78502 -2.36372 0
M  V30 10906 O 1003.79 5.53529 -1.37703 0
M  V30 10907 O 1002.73 5.06147 -3.25728 0
M  V30 10908 H 1006.55 1.86916 -2.39366 0
M  V30 10909 H 1004.14 0.866818 -1.21683 0
M  V30 10910 H 1006.02 4.02972 -1.23253 0
M  V30 10911 H 1004.69 3.2175 -0.354783 0
M  V30 10912 H 1003.6 2.68095 -2.60913 0
M  V30 10913 H 1004.93 3.54101 -3.41868 0
M  V30 10914 N 1006.59 1.25851 0.948643 0
M  V30 10915 C 1007.84 1.10347 1.68838 0
M  V30 10916 C 1008.15 -0.354262 1.92365 0
M  V30 10917 O 1009.35 -0.629847 2.64093 0
M  V30 10918 C 1007.81 1.92659 3.03991 0
M  V30 10919 C 1007.42 3.42962 2.88238 0
M  V30 10920 C 1009.16 1.85743 3.81707 0
M  V30 10921 C 1007.07 4.17547 4.18818 0
M  V30 10922 H 1006 0.409342 0.63321 0
M  V30 10923 H 1008.65 1.50098 1.05559 0
M  V30 10924 H 1007.03 1.45736 3.68208 0
M  V30 10925 H 1008.21 3.97601 2.32917 0
M  V30 10926 H 1006.52 3.51035 2.23972 0
M  V30 10927 H 1009.12 2.38758 4.78434 0
M  V30 10928 H 1009.46 0.826568 4.08012 0
M  V30 10929 H 1009.99 2.30449 3.2425 0
M  V30 10930 H 1006.73 5.21072 3.97699 0
M  V30 10931 H 1006.25 3.6769 4.73882 0
M  V30 10932 H 1007.93 4.25589 4.87322 0
M  V30 10933 N 1008.06 -1.15214 1.07534 0
M  V30 10934 C 1009.29 -1.90463 0.820883 0
M  V30 10935 C 1009.71 -1.77578 -0.620305 0
M  V30 10936 O 1009.07 -1.10976 -1.43366 0
M  V30 10937 C 1009.12 -3.38746 1.23627 0
M  V30 10938 O 1008.22 -4.1062 0.382715 0
M  V30 10939 H 1007.57 -0.59292 0.298901 0
M  V30 10940 H 1010.1 -1.45893 1.43445 0
M  V30 10941 H 1010.11 -3.89543 1.21327 0
M  V30 10942 H 1008.78 -3.47443 2.28596 0
M  V30 10943 H 1007.36 -3.69947 0.468374 0
M  V30 10944 N 1009.54 -0.859717 -1.32086 0
M  V30 10945 C 1010.77 -0.479724 -2.01262 0
M  V30 10946 C 1011.19 0.924985 -1.64589 0
M  V30 10947 O 1010.54 1.60439 -0.869803 0
M  V30 10948 C 1010.59 -0.615128 -3.56228 0
M  V30 10949 O 1010.31 -1.96451 -3.91585 0
M  V30 10950 C 1011.82 -0.234804 -4.42678 0
M  V30 10951 H 1009.04 -0.188007 -0.644123 0
M  V30 10952 H 1011.58 -1.15805 -1.68551 0
M  V30 10953 H 1009.73 0.0155268 -3.87397 0
M  V30 10954 H 1010.15 -1.96491 -4.86304 0
M  V30 10955 H 1011.62 -0.380534 -5.50687 0
M  V30 10956 H 1012.1 0.825189 -4.31378 0
M  V30 10957 H 1012.71 -0.840739 -4.16907 0
M  V30 10958 N 1011.02 1.44971 -0.618145 0
M  V30 10959 C 1012.3 1.95539 -0.0489895 0
M  V30 10960 C 1012.68 1.5604 1.42179 0
M  V30 10961 O 1012.03 0.82809 2.12967 0
M  V30 10962 C 1012.24 3.48044 -0.258193 0
M  V30 10963 C 1013.58 4.24354 -0.144541 0
M  V30 10964 O 1014.61 3.55699 -0.18887 0
M  V30 10965 O 1013.47 5.46486 -0.038519 0
M  V30 10966 H 1010.56 0.826466 0.0297256 0
M  V30 10967 H 1013.11 1.55086 -0.688944 0
M  V30 10968 H 1011.88 3.69798 -1.27926 0
M  V30 10969 H 1011.5 3.95412 0.416522 0
M  V30 10970 N 1012.5 0.357919 1.53482 0
M  V30 10971 C 1013.75 -0.2337 2.00744 0
M  V30 10972 C 1014.07 -1.49908 1.2471 0
M  V30 10973 O 1013.34 -1.92597 0.358235 0
M  V30 10974 H 1011.92 -0.0893474 0.741637 0
M  V30 10975 H 1014.58 0.482388 1.88836 0
M  V30 10976 H 1013.68 -0.466073 3.086 0
M  V30 10977 N 1013.98 -1.5736 0.0868897 0
M  V30 10978 C 1014.92 -2.13571 -0.874996 0
M  V30 10979 C 1015.89 -1.0521 -1.2853 0
M  V30 10980 O 1017.08 -1.32954 -1.3685 0
M  V30 10981 C 1014.22 -2.71386 -2.13175 0
M  V30 10982 C 1013.33 -3.93953 -1.77272 0
M  V30 10983 C 1012.47 -4.3996 -2.97671 0
M  V30 10984 C 1011.51 -5.55137 -2.57856 0
M  V30 10985 N 1010.64 -5.96034 -3.71064 0
M  V30 10986 H 1015.48 -2.95453 -0.388789 0
M  V30 10987 H 1013.02 -1.45992 -0.180242 0
M  V30 10988 H 1014.98 -3.03022 -2.86764 0
M  V30 10989 H 1013.61 -1.92245 -2.5931 0
M  V30 10990 H 1012.66 -3.68683 -0.936845 0
M  V30 10991 H 1013.97 -4.77565 -1.43989 0
M  V30 10992 H 1013.13 -4.73337 -3.79522 0
M  V30 10993 H 1011.86 -3.55232 -3.34158 0
M  V30 10994 H 1010.87 -5.21397 -1.7443 0
M  V30 10995 H 1012.09 -6.41608 -2.22522 0
M  V30 10996 H 1010.04 -5.14253 -4.07284 0
M  V30 10997 H 1009.96 -6.74423 -3.41599 0
M  V30 10998 H 1011.23 -6.34038 -4.53449 0
M  V30 10999 N 1015.45 0.186762 -1.56489 0
M  V30 11000 C 1016.36 1.25169 -1.98419 0
M  V30 11001 C 1017.38 1.49329 -0.893124 0
M  V30 11002 O 1018.56 1.61781 -1.19954 0
M  V30 11003 C 1015.62 2.57422 -2.32239 0
M  V30 11004 C 1014.68 2.4126 -3.55095 0
M  V30 11005 C 1013.92 3.67206 -3.87292 0
M  V30 11006 O 1014.14 4.71731 -3.20665 0
M  V30 11007 O 1013.07 3.62238 -4.80695 0
M  V30 11008 H 1016.9 0.925834 -2.89244 0
M  V30 11009 H 1014.48 0.392421 -1.44154 0
M  V30 11010 H 1016.37 3.35466 -2.5503 0
M  V30 11011 H 1015.04 2.89618 -1.44579 0
M  V30 11012 H 1013.95 1.61299 -3.37541 0
M  V30 11013 H 1015.28 2.13994 -4.43247 0
M  V30 11014 N 1016.93 1.50896 0.454776 0
M  V30 11015 C 1018.18 1.63905 1.20444 0
M  V30 11016 C 1018.53 0.342692 1.89323 0
M  V30 11017 O 1017.83 -0.660465 1.79857 0
M  V30 11018 C 1018.02 2.76839 2.26042 0
M  V30 11019 C 1017.85 4.17332 1.67524 0
M  V30 11020 C 1016.62 4.83512 1.46779 0
M  V30 11021 C 1018.82 5.01022 1.1611 0
M  V30 11022 N 1016.8 6.08171 0.83675 0
M  V30 11023 C 1018.17 6.16538 0.654283 0
M  V30 11024 C 1020.23 4.86677 1.05119 0
M  V30 11025 C 1018.93 7.19284 0.0483821 0
M  V30 11026 C 1020.95 5.89614 0.459211 0
M  V30 11027 C 1020.32 7.0439 -0.0371476 0
M  V30 11028 H 1016.42 0.653802 0.42903 0
M  V30 11029 H 1019 1.88069 0.503783 0
M  V30 11030 H 1017.17 2.54369 2.93515 0
M  V30 11031 H 1018.9 2.7912 2.93043 0
M  V30 11032 H 1015.66 4.41082 1.72464 0
M  V30 11033 H 1016.08 6.7485 0.539176 0
M  V30 11034 H 1020.72 3.98211 1.42085 0
M  V30 11035 H 1018.44 8.07412 -0.333438 0
M  V30 11036 H 1022.03 5.80582 0.376315 0
M  V30 11037 H 1020.91 7.8268 -0.488035 0
M  V30 11038 N 1018.41 -0.709066 1.40748 0
M  V30 11039 C 1019.36 -1.82312 1.4153 0
M  V30 11040 C 1020.33 -1.63868 0.271392 0
M  V30 11041 O 1021.51 -1.8491 0.470431 0
M  V30 11042 C 1018.65 -3.2008 1.29006 0
M  V30 11043 C 1017.77 -3.50051 2.53156 0
M  V30 11044 C 1016.9 -4.7736 2.33025 0
M  V30 11045 C 1015.94 -5.00255 3.52719 0
M  V30 11046 N 1015.08 -6.18782 3.31743 0
M  V30 11047 H 1019.92 -1.80978 2.36751 0
M  V30 11048 H 1017.45 -0.883975 1.17577 0
M  V30 11049 H 1019.41 -3.99645 1.19749 0
M  V30 11050 H 1018.04 -3.20626 0.374014 0
M  V30 11051 H 1017.09 -2.64993 2.72916 0
M  V30 11052 H 1018.41 -3.62877 3.42231 0
M  V30 11053 H 1017.56 -5.64954 2.21159 0
M  V30 11054 H 1016.3 -4.66756 1.41386 0
M  V30 11055 H 1015.3 -4.11114 3.65055 0
M  V30 11056 H 1016.53 -5.12728 4.45295 0
M  V30 11057 H 1014.47 -6.09416 2.42791 0
M  V30 11058 H 1014.39 -6.32313 4.14386 0
M  V30 11059 H 1015.66 -7.09146 3.23623 0
M  V30 11060 N 1019.89 -1.26353 -0.941956 0
M  V30 11061 C 1021.12 -1.14626 -1.72245 0
M  V30 11062 C 1021.53 0.298588 -1.86424 0
M  V30 11063 O 1020.89 1.2045 -1.37106 0
M  V30 11064 C 1020.94 -1.80933 -3.12963 0
M  V30 11065 O 1020.66 -3.19771 -2.99463 0
M  V30 11066 C 1022.16 -1.7515 -4.07231 0
M  V30 11067 H 1019.38 -0.3992 -0.539333 0
M  V30 11068 H 1021.93 -1.66958 -1.1809 0
M  V30 11069 H 1020.08 -1.32541 -3.64021 0
M  V30 11070 H 1020.5 -3.52571 -3.88322 0
M  V30 11071 H 1021.97 -2.26183 -5.03533 0
M  V30 11072 H 1022.45 -0.717855 -4.33294 0
M  V30 11073 H 1023.05 -2.2309 -3.62093 0
M  V30 11074 N 1021.37 1.14642 -1.08144 0
M  V30 11075 C 1022.61 1.85892 -0.810683 0
M  V30 11076 C 1022.95 1.82575 0.661821 0
M  V30 11077 O 1022.22 1.25454 1.48632 0
M  V30 11078 C 1022.5 3.34647 -1.32979 0
M  V30 11079 C 1022.36 3.46551 -2.86744 0
M  V30 11080 C 1023.68 4.29661 -0.952864 0
M  V30 11081 H 1020.8 0.674963 -0.295963 0
M  V30 11082 H 1023.44 1.3464 -1.3406 0
M  V30 11083 H 1021.59 3.78425 -0.87903 0
M  V30 11084 H 1023.26 3.11579 -3.40171 0
M  V30 11085 H 1021.5 2.87849 -3.24539 0
M  V30 11086 H 1022.17 4.51101 -3.18138 0
M  V30 11087 H 1024.65 3.93885 -1.34141 0
M  V30 11088 H 1023.53 5.32209 -1.34331 0
M  V30 11089 H 1023.79 4.41877 0.140392 0
M  V30 11090 N 1022.85 0.866709 1.31628 0
M  V30 11091 C 1024.12 0.396828 1.91532 0
M  V30 11092 C 1024.5 -1.12081 1.78889 0
M  V30 11093 O 1023.85 -1.94791 1.19452 0
M  V30 11094 C 1024.06 0.874578 3.37864 0
M  V30 11095 C 1025.41 0.8988 4.14978 0
M  V30 11096 O 1026.43 0.820014 3.46633 0
M  V30 11097 O 1025.29 1.01223 5.37044 0
M  V30 11098 H 1022.39 0.1181 0.818524 0
M  V30 11099 H 1024.93 0.954407 1.40318 0
M  V30 11100 H 1023.7 1.91807 3.41066 0
M  V30 11101 H 1023.33 0.295126 3.96503 0
M  V30 11102 N 1024.32 -1.44642 0.625825 0
M  V30 11103 C 1025.25 -2.33397 -0.0692188 0
M  V30 11104 C 1026.23 -1.47898 -0.840241 0
M  V30 11105 O 1027.42 -1.7663 -0.807176 0
M  V30 11106 C 1024.55 -3.30888 -1.055 0
M  V30 11107 C 1023.5 -4.26164 -0.395968 0
M  V30 11108 C 1022.83 -5.13483 -1.49128 0
M  V30 11109 C 1024.13 -5.17663 0.694433 0
M  V30 11110 H 1025.82 -2.91763 0.671925 0
M  V30 11111 H 1023.37 -1.40294 0.324573 0
M  V30 11112 H 1025.32 -3.91861 -1.54993 0
M  V30 11113 H 1024.05 -2.7072 -1.82696 0
M  V30 11114 H 1022.71 -3.66516 0.0782691 0
M  V30 11115 H 1022.35 -4.49672 -2.25399 0
M  V30 11116 H 1022.05 -5.78038 -1.05573 0
M  V30 11117 H 1023.58 -5.77327 -1.98813 0
M  V30 11118 H 1024.99 -5.72602 0.282818 0
M  V30 11119 H 1023.39 -5.90793 1.05281 0
M  V30 11120 H 1024.46 -4.58994 1.56372 0
M  V30 11121 N 1025.8 -0.366053 -1.5329 0
M  V30 11122 C 1026.75 0.480205 -2.25749 0
M  V30 11123 C 1027.72 1.07713 -1.2644 0
M  V30 11124 O 1028.9 1.10953 -1.55222 0
M  V30 11125 C 1026.04 1.61374 -3.05045 0
M  V30 11126 C 1025.16 1.04194 -4.19246 0
M  V30 11127 C 1024.29 2.14462 -4.85983 0
M  V30 11128 C 1023.33 1.5475 -5.92215 0
M  V30 11129 N 1022.47 2.58852 -6.52641 0
M  V30 11130 H 1027.31 -0.144199 -2.97651 0
M  V30 11131 H 1024.84 -0.0829321 -1.46866 0
M  V30 11132 H 1026.8 2.28144 -3.49294 0
M  V30 11133 H 1025.43 2.2088 -2.35397 0
M  V30 11134 H 1024.48 0.264514 -3.79479 0
M  V30 11135 H 1025.8 0.565379 -4.95585 0
M  V30 11136 H 1024.95 2.89051 -5.33418 0
M  V30 11137 H 1023.69 2.6547 -4.09117 0
M  V30 11138 H 1022.69 0.786759 -5.44142 0
M  V30 11139 H 1023.92 1.04566 -6.71001 0
M  V30 11140 H 1021.87 3.09073 -5.78627 0
M  V30 11141 H 1021.78 2.15884 -7.24521 0
M  V30 11142 H 1023.05 3.33142 -7.04724 0
M  V30 11143 N 1027.28 1.57312 -0.0952337 0
M  V30 11144 C 1028.21 2.11059 0.893678 0
M  V30 11145 C 1029.22 1.04787 1.24594 0
M  V30 11146 O 1030.41 1.32233 1.19903 0
M  V30 11147 C 1027.51 2.57552 2.20272 0
M  V30 11148 C 1026.69 3.87661 2.02578 0
M  V30 11149 C 1025.75 4.2 3.16996 0
M  V30 11150 O 1024.77 4.89219 2.90953 0
M  V30 11151 N 1025.97 3.75414 4.42769 0
M  V30 11152 H 1028.74 2.96532 0.434632 0
M  V30 11153 H 1026.3 1.6165 0.0898661 0
M  V30 11154 H 1028.29 2.76232 2.95766 0
M  V30 11155 H 1026.86 1.7709 2.576 0
M  V30 11156 H 1026.08 3.78128 1.11413 0
M  V30 11157 H 1027.37 4.7278 1.88032 0
M  V30 11158 H 1026.77 3.1954 4.66809 0
M  V30 11159 H 1025.32 3.99249 5.15212 0
M  V30 11160 N 1028.76 -0.17846 1.56586 0
M  V30 11161 C 1029.7 -1.22104 1.95855 0
M  V30 11162 C 1030.67 -1.44366 0.821447 0
M  V30 11163 O 1031.86 -1.57224 1.08098 0
M  V30 11164 C 1029 -2.55701 2.31757 0
M  V30 11165 C 1028.11 -2.40879 3.5861 0
M  V30 11166 C 1027.25 -3.67293 3.83757 0
M  V30 11167 C 1026.29 -3.47373 5.03982 0
M  V30 11168 N 1025.42 -4.65839 5.25298 0
M  V30 11169 H 1030.26 -0.879168 2.84736 0
M  V30 11170 H 1027.8 -0.422721 1.40895 0
M  V30 11171 H 1029.76 -3.33556 2.50592 0
M  V30 11172 H 1028.39 -2.87898 1.45995 0
M  V30 11173 H 1027.44 -1.54236 3.47729 0
M  V30 11174 H 1028.75 -2.22102 4.46623 0
M  V30 11175 H 1027.91 -4.53584 4.02922 0
M  V30 11176 H 1026.65 -3.89041 2.94107 0
M  V30 11177 H 1025.65 -2.59467 4.84723 0
M  V30 11178 H 1026.88 -3.27055 5.95157 0
M  V30 11179 H 1024.82 -4.8782 4.38598 0
M  V30 11180 H 1024.74 -4.4995 6.0752 0
M  V30 11181 H 1026.01 -5.53435 5.48936 0
M  V30 11182 N 1030.24 -1.51135 -0.446768 0
M  V30 11183 C 1031.15 -1.74595 -1.56696 0
M  V30 11184 C 1032.16 -0.629816 -1.62201 0
M  V30 11185 O 1033.34 -0.910987 -1.79619 0
M  V30 11186 C 1030.4 -1.85738 -2.9275 0
M  V30 11187 C 1029.46 -3.09564 -2.97437 0
M  V30 11188 C 1028.7 -3.20165 -4.27001 0
M  V30 11189 O 1028.92 -2.36939 -5.1886 0
M  V30 11190 O 1027.85 -4.13077 -4.3778 0
M  V30 11191 H 1031.68 -2.69601 -1.39817 0
M  V30 11192 H 1029.26 -1.35523 -0.628805 0
M  V30 11193 H 1031.15 -1.95107 -3.73512 0
M  V30 11194 H 1029.82 -0.939184 -3.09776 0
M  V30 11195 H 1028.73 -3.05679 -2.15664 0
M  V30 11196 H 1030.06 -4.01041 -2.85353 0
M  V30 11197 N 1031.71 0.701592 -1.41122 0
M  V30 11198 C 1032.94 1.49553 -1.43696 0
M  V30 11199 C 1033.36 1.88053 -0.0421865 0
M  V30 11200 O 1032.72 1.54223 0.953144 0
M  V30 11201 C 1032.77 2.73834 -2.34622 0
M  V30 11202 O 1031.87 3.71088 -1.7991 0
M  V30 11203 H 1031.21 0.450352 -0.487933 0
M  V30 11204 H 1033.74 0.862886 -1.85514 0
M  V30 11205 H 1033.75 3.22209 -2.5029 0
M  V30 11206 H 1032.43 2.45149 -3.35969 0
M  V30 11207 H 1031.01 3.29994 -1.73661 0
M  V30 11208 N 1033.19 1.2685 0.935242 0
M  V30 11209 C 1034.61 1.04091 1.20984 0
M  V30 11210 C 1034.81 -0.230242 2.0018 0
M  V30 11211 O 1033.86 -0.93778 2.3444 0
M  V30 11212 C 1035.18 2.27586 1.96533 0
M  V30 11213 C 1036.72 2.32547 2.09501 0
M  V30 11214 C 1037.2 3.55751 2.88454 0
M  V30 11215 N 1038.69 3.56263 2.96025 0
M  V30 11216 C 1039.43 4.48262 3.57559 0
M  V30 11217 N 1038.92 5.50557 4.20546 0
M  V30 11218 N 1040.71 4.35901 3.5489 0
M  V30 11219 H 1032.87 2.08484 0.405954 0
M  V30 11220 H 1035.13 0.916548 0.242164 0
M  V30 11221 H 1034.83 3.20076 1.45753 0
M  V30 11222 H 1034.71 2.32305 2.97177 0
M  V30 11223 H 1037.1 1.40568 2.5947 0
M  V30 11224 H 1037.18 2.31836 1.08101 0
M  V30 11225 H 1036.82 4.48063 2.3917 0
M  V30 11226 H 1036.75 3.53711 3.90123 0
M  V30 11227 H 1039.24 2.82278 2.51252 0
M  V30 11228 H 1039.55 6.16935 4.65415 0
M  V30 11229 H 1037.9 5.54407 4.19115 0
M  V30 11230 H 1041.09 3.552 3.04879 0
M  V30 11231 H 1041.26 5.07792 4.02557 0
M  V30 11232 N 1034.67 -1.14067 1.0875 0
M  V30 11233 C 1035.6 -2.21385 0.74236 0
M  V30 11234 C 1036.58 -1.67833 -0.276805 0
M  V30 11235 O 1037.77 -1.93647 -0.1464 0
M  V30 11236 C 1034.9 -3.46956 0.154644 0
M  V30 11237 C 1033.85 -4.13555 1.10255 0
M  V30 11238 C 1033.18 -5.3337 0.376877 0
M  V30 11239 C 1034.48 -4.6169 2.44213 0
M  V30 11240 H 1036.17 -2.50512 1.63964 0
M  V30 11241 H 1033.72 -1.20408 0.789807 0
M  V30 11242 H 1035.67 -4.21284 -0.0988419 0
M  V30 11243 H 1034.39 -3.17203 -0.777789 0
M  V30 11244 H 1033.05 -3.41186 1.34119 0
M  V30 11245 H 1032.7 -4.99879 -0.559472 0
M  V30 11246 H 1032.4 -5.78875 1.00884 0
M  V30 11247 H 1033.92 -6.10458 0.131527 0
M  V30 11248 H 1035.34 -5.27475 2.24595 0
M  V30 11249 H 1033.74 -5.17909 3.03134 0
M  V30 11250 H 1034.81 -3.76574 3.05483 0
M  V30 11251 N 1036.15 -0.873678 -1.31166 0
M  V30 11252 C 1037.37 -0.500242 -2.01277 0
M  V30 11253 C 1037.8 0.900811 -1.65127 0
M  V30 11254 O 1037.16 1.59504 -0.861862 0
M  V30 11255 C 1037.2 -0.668976 -3.5434 0
M  V30 11256 O 1036.31 0.290096 -4.11378 0
M  V30 11257 H 1035.65 -0.198507 -0.633633 0
M  V30 11258 H 1038.18 -1.17811 -1.67277 0
M  V30 11259 H 1038.19 -0.563673 -4.04088 0
M  V30 11260 H 1036.86 -1.69055 -3.79991 0
M  V30 11261 H 1035.44 0.139437 -3.72639 0
M  V30 11262 N 1037.63 1.44308 -0.633487 0
M  V30 11263 C 1038.59 2.2912 0.060376 0
M  V30 11264 C 1039.59 1.41166 0.769992 0
M  V30 11265 O 1040.78 1.63012 0.614224 0
M  V30 11266 C 1037.91 3.22798 1.0961 0
M  V30 11267 H 1039.1 2.91958 -0.685617 0
M  V30 11268 H 1036.66 1.51259 -0.393738 0
M  V30 11269 H 1037.39 2.64815 1.87199 0
M  V30 11270 H 1037.18 3.87618 0.591161 0
M  V30 11271 H 1038.67 3.86504 1.58127 0
M  V30 11272 N 1039.1 0.374177 1.53094 0
M  V30 11273 C 1040.35 -0.212396 2.00981 0
M  V30 11274 C 1040.67 -1.48576 1.26293 0
M  V30 11275 O 1039.94 -1.92206 0.378642 0
M  V30 11276 H 1038.52 -0.0814763 0.742543 0
M  V30 11277 H 1041.19 0.502389 1.88314 0
M  V30 11278 H 1040.28 -0.433316 3.09077 0
M  V30 11279 N 1040.58 -1.57259 0.103575 0
M  V30 11280 C 1041.51 -2.17509 -0.84923 0
M  V30 11281 C 1042.49 -1.11079 -1.28824 0
M  V30 11282 O 1043.68 -1.39252 -1.35361 0
M  V30 11283 C 1040.81 -2.76221 -2.10522 0
M  V30 11284 C 1039.76 -3.88098 -1.80454 0
M  V30 11285 C 1039.09 -4.33549 -3.12952 0
M  V30 11286 C 1040.39 -5.10909 -1.08486 0
M  V30 11287 H 1042.08 -2.9738 -0.347217 0
M  V30 11288 H 1039.63 -1.43045 -0.165568 0
M  V30 11289 H 1041.58 -3.17024 -2.77621 0
M  V30 11290 H 1040.31 -1.93617 -2.63021 0
M  V30 11291 H 1038.96 -3.47847 -1.15749 0
M  V30 11292 H 1038.61 -3.47825 -3.63355 0
M  V30 11293 H 1038.31 -5.08984 -2.93614 0
M  V30 11294 H 1039.84 -4.76992 -3.81196 0
M  V30 11295 H 1041.25 -5.48828 -1.65711 0
M  V30 11296 H 1039.65 -5.91828 -0.992973 0
M  V30 11297 H 1040.72 -4.84851 -0.0690108 0
M  V30 11298 N 1042.06 0.170153 -1.56679 0
M  V30 11299 C 1042.99 1.23525 -1.93066 0
M  V30 11300 C 1044.01 1.40414 -0.823879 0
M  V30 11301 O 1045.19 1.40396 -1.10232 0
M  V30 11302 C 1042.29 2.60376 -2.16928 0
M  V30 11303 C 1041.47 2.6477 -3.4816 0
M  V30 11304 C 1040.53 3.82993 -3.60837 0
M  V30 11305 O 1039.55 3.68937 -4.33444 0
M  V30 11306 N 1040.75 4.99498 -2.95773 0
M  V30 11307 H 1043.52 0.926172 -2.8503 0
M  V30 11308 H 1041.08 0.359909 -1.57849 0
M  V30 11309 H 1043.07 3.37934 -2.22672 0
M  V30 11310 H 1041.64 2.83669 -1.31342 0
M  V30 11311 H 1040.86 1.73298 -3.54064 0
M  V30 11312 H 1042.15 2.64717 -4.34514 0
M  V30 11313 H 1041.55 5.13819 -2.36657 0
M  V30 11314 H 1040.11 5.74914 -3.07111 0
M  V30 11315 N 1043.54 1.5137 0.438746 0
M  V30 11316 C 1044.49 1.72582 1.53245 0
M  V30 11317 C 1045.46 0.567488 1.56105 0
M  V30 11318 O 1046.64 0.80176 1.73137 0
M  V30 11319 C 1043.78 1.85551 2.90972 0
M  V30 11320 C 1042.89 3.13094 2.97652 0
M  V30 11321 C 1042.03 3.16666 4.26493 0
M  V30 11322 C 1041.07 4.38529 4.27035 0
M  V30 11323 N 1040.2 4.39659 5.47398 0
M  V30 11324 H 1045.04 2.65941 1.3446 0
M  V30 11325 H 1042.58 1.31801 0.653206 0
M  V30 11326 H 1044.54 1.91053 3.70884 0
M  V30 11327 H 1043.17 0.956025 3.08318 0
M  V30 11328 H 1042.22 3.16909 2.10412 0
M  V30 11329 H 1043.53 4.03009 2.93914 0
M  V30 11330 H 1042.69 3.21075 5.14777 0
M  V30 11331 H 1041.43 2.24637 4.32885 0
M  V30 11332 H 1040.43 4.34297 3.37144 0
M  V30 11333 H 1041.66 5.31821 4.22307 0
M  V30 11334 H 1039.6 3.50499 5.54514 0
M  V30 11335 H 1039.52 5.23382 5.45534 0
M  V30 11336 H 1040.79 4.48259 6.37718 0
M  V30 11337 N 1045.02 -0.694098 1.41492 0
M  V30 11338 C 1045.98 -1.78976 1.43179 0
M  V30 11339 C 1046.98 -1.57539 0.322191 0
M  V30 11340 O 1048.17 -1.64185 0.582138 0
M  V30 11341 C 1045.3 -3.17368 1.2446 0
M  V30 11342 H 1046.49 -1.78874 2.40716 0
M  V30 11343 H 1044.05 -0.901867 1.27656 0
M  V30 11344 H 1044.78 -3.23109 0.277691 0
M  V30 11345 H 1044.57 -3.3433 2.04856 0
M  V30 11346 H 1046.06 -3.97345 1.28479 0
M  V30 11347 N 1046.49 -1.27344 -0.928501 0
M  V30 11348 C 1047.91 -1.12361 -1.49103 0
M  V30 11349 C 1048.26 0.291667 -1.9402 0
M  V30 11350 O 1047.38 1.18449 -1.81104 0
M  V30 11351 C 1047.98 -2.03358 -2.70981 0
M  V30 11352 C 1046.54 -1.92483 -3.23461 0
M  V30 11353 C 1045.68 -1.95961 -1.962 0
M  V30 11354 H 1048.63 -1.40249 -0.742689 0
M  V30 11355 H 1048.65 -1.58892 -3.45736 0
M  V30 11356 H 1048.17 -3.06356 -2.38259 0
M  V30 11357 H 1046.27 -0.924676 -3.60944 0
M  V30 11358 H 1046.38 -2.78682 -3.89709 0
M  V30 11359 H 1044.74 -1.40175 -2.12657 0
M  V30 11360 H 1045.53 -3.00612 -1.65793 0
M  V30 11361 N 1047.97 1.13488 -1.09353 0
M  V30 11362 C 1049.22 1.85022 -0.830354 0
M  V30 11363 C 1049.55 1.83266 0.64242 0
M  V30 11364 O 1048.83 1.27024 1.47293 0
M  V30 11365 C 1049.11 3.33218 -1.36521 0
M  V30 11366 C 1048.96 3.43491 -2.90404 0
M  V30 11367 C 1050.28 4.28626 -0.998381 0
M  V30 11368 H 1047.4 0.671786 -0.303105 0
M  V30 11369 H 1050.04 1.33211 -1.3548 0
M  V30 11370 H 1048.19 3.77471 -0.919117 0
M  V30 11371 H 1049.86 3.07954 -3.43456 0
M  V30 11372 H 1048.11 2.84391 -3.27573 0
M  V30 11373 H 1048.78 4.47702 -3.22905 0
M  V30 11374 H 1051.25 3.9244 -1.38311 0
M  V30 11375 H 1050.13 5.30754 -1.39968 0
M  V30 11376 H 1050.39 4.42001 0.093517 0
M  V30 11377 N 1049.45 0.880621 1.30701 0
M  V30 11378 C 1050.4 0.342397 2.28246 0
M  V30 11379 C 1051.37 -0.565023 1.56194 0
M  V30 11380 O 1052.55 -0.494377 1.84284 0
M  V30 11381 C 1049.69 -0.440859 3.42272 0
M  V30 11382 C 1048.81 0.495284 4.29151 0
M  V30 11383 C 1047.94 -0.303141 5.30334 0
M  V30 11384 C 1046.98 0.628751 6.08862 0
M  V30 11385 N 1046.12 -0.13408 7.01972 0
M  V30 11386 H 1050.96 1.17938 2.73669 0
M  V30 11387 H 1048.49 0.59296 1.34619 0
M  V30 11388 H 1050.45 -0.910854 4.07135 0
M  V30 11389 H 1049.08 -1.24245 2.97931 0
M  V30 11390 H 1048.13 1.08376 3.64635 0
M  V30 11391 H 1049.45 1.2094 4.83916 0
M  V30 11392 H 1048.6 -0.835181 6.00924 0
M  V30 11393 H 1047.34 -1.05049 4.76252 0
M  V30 11394 H 1046.34 1.17246 5.37153 0
M  V30 11395 H 1047.57 1.37512 6.65032 0
M  V30 11396 H 1045.52 -0.864046 6.50285 0
M  V30 11397 H 1045.43 0.520486 7.54206 0
M  V30 11398 H 1046.7 -0.647005 7.7681 0
M  V30 11399 N 1050.93 -1.4397 0.641131 0
M  V30 11400 C 1052.18 -2.01946 0.149629 0
M  V30 11401 C 1052.5 -1.50496 -1.23212 0
M  V30 11402 O 1051.76 -0.683453 -1.83378 0
M  V30 11403 C 1052.06 -3.5727 0.0963368 0
M  V30 11404 C 1051.72 -4.28016 1.4182 0
M  V30 11405 C 1050.39 -4.47059 1.78021 0
M  V30 11406 C 1052.74 -4.68183 2.29028 0
M  V30 11407 C 1050.07 -5.03532 3.01119 0
M  V30 11408 C 1052.42 -5.26019 3.51406 0
M  V30 11409 C 1051.08 -5.4328 3.87818 0
M  V30 11410 H 1050.35 -0.738974 0.0547531 0
M  V30 11411 H 1053 -1.72605 0.829436 0
M  V30 11412 H 1051.3 -3.86083 -0.666879 0
M  V30 11413 H 1053 -3.99871 -0.300635 0
M  V30 11414 H 1049.59 -4.13531 1.12651 0
M  V30 11415 H 1053.78 -4.53175 2.02353 0
M  V30 11416 H 1049.03 -5.15082 3.29395 0
M  V30 11417 H 1053.21 -5.56092 4.19208 0
M  V30 11418 H 1050.83 -5.86805 4.83284 0
M  V30 11419 N 1052.41 -0.382291 -1.52893 0
M  V30 11420 C 1053.65 0.202433 -2.01787 0
M  V30 11421 C 1053.99 1.47044 -1.26853 0
M  V30 11422 O 1053.26 1.91007 -0.366969 0
M  V30 11423 C 1053.54 0.477471 -3.5692 0
M  V30 11424 C 1053.4 -0.805339 -4.42532 0
M  V30 11425 C 1054.72 1.27106 -4.21346 0
M  V30 11426 H 1051.84 0.0720998 -0.733465 0
M  V30 11427 H 1054.48 -0.510478 -1.83014 0
M  V30 11428 H 1052.63 1.08478 -3.73048 0
M  V30 11429 H 1054.3 -1.4424 -4.3817 0
M  V30 11430 H 1052.54 -1.42216 -4.09826 0
M  V30 11431 H 1053.21 -0.567635 -5.49074 0
M  V30 11432 H 1055.69 0.757161 -4.09153 0
M  V30 11433 H 1054.57 1.43225 -5.29885 0
M  V30 11434 H 1054.83 2.28431 -3.78513 0
M  V30 11435 N 1053.89 1.57202 -0.111913 0
M  V30 11436 C 1055.3 1.57713 0.244702 0
M  V30 11437 C 1055.5 1.12419 1.67225 0
M  V30 11438 O 1054.56 0.808329 2.39212 0
M  V30 11439 C 1055.87 3.00695 0.0178289 0
M  V30 11440 C 1057.42 3.12887 0.0842781 0
M  V30 11441 C 1057.89 4.57856 -0.114812 0
M  V30 11442 N 1059.38 4.6316 -0.0605423 0
M  V30 11443 C 1060.12 5.73086 -0.189594 0
M  V30 11444 N 1059.62 6.91787 -0.37442 0
M  V30 11445 N 1061.41 5.6195 -0.12967 0
M  V30 11446 H 1053.56 1.84947 -1.04443 0
M  V30 11447 H 1055.82 0.854418 -0.4107 0
M  V30 11448 H 1055.53 3.38093 -0.968802 0
M  V30 11449 H 1055.4 3.69611 0.752815 0
M  V30 11450 H 1057.79 2.7535 1.06143 0
M  V30 11451 H 1057.87 2.46528 -0.682474 0
M  V30 11452 H 1057.51 4.9609 -1.0889 0
M  V30 11453 H 1057.44 5.22297 0.671839 0
M  V30 11454 H 1059.94 3.77817 0.0790856 0
M  V30 11455 H 1060.25 7.71406 -0.463948 0
M  V30 11456 H 1058.59 6.93788 -0.410303 0
M  V30 11457 H 1061.78 4.68098 0.0137115 0
M  V30 11458 H 1061.96 6.47578 -0.233688 0
M  V30 11459 N 1055.36 -0.161842 1.56767 0
M  V30 11460 C 1056.61 -0.876925 1.82527 0
M  V30 11461 C 1056.94 -1.81831 0.690492 0
M  V30 11462 O 1056.19 -1.9304 -0.32159 0
M  V30 11463 C 1056.49 -1.69736 3.14522 0
M  V30 11464 C 1056.16 -0.904075 4.41743 0
M  V30 11465 C 1054.82 -0.685168 4.76297 0
M  V30 11466 C 1057.17 -0.348282 5.20035 0
M  V30 11467 C 1054.5 0.10048 5.86614 0
M  V30 11468 C 1056.85 0.424327 6.31175 0
M  V30 11469 C 1055.52 0.653948 6.64289 0
M  V30 11470 H 1054.79 -0.320889 0.667915 0
M  V30 11471 H 1057.43 -0.141338 1.90978 0
M  V30 11472 H 1055.74 -2.50262 3.01456 0
M  V30 11473 H 1057.44 -2.25386 3.31666 0
M  V30 11474 H 1054.03 -1.08474 4.14646 0
M  V30 11475 H 1058.21 -0.504721 4.93727 0
M  V30 11476 H 1053.47 0.288029 6.10721 0
M  V30 11477 H 1057.64 0.862203 6.91042 0
M  V30 11478 H 1055.27 1.26459 7.49608 0
M  V30 11479 N 1056.84 -1.516 -0.430713 0
M  V30 11480 C 1058.07 -1.68414 -1.20185 0
M  V30 11481 C 1058.48 -0.384297 -1.84847 0
M  V30 11482 O 1057.84 0.637808 -1.70992 0
M  V30 11483 C 1057.89 -2.80451 -2.28099 0
M  V30 11484 O 1057.61 -4.05399 -1.66081 0
M  V30 11485 C 1059.11 -3.0859 -3.18256 0
M  V30 11486 H 1056.33 -0.564982 -0.361989 0
M  V30 11487 H 1058.88 -1.9805 -0.50954 0
M  V30 11488 H 1057.03 -2.53395 -2.93036 0
M  V30 11489 H 1057.45 -4.67671 -2.37453 0
M  V30 11490 H 1058.92 -3.9055 -3.90096 0
M  V30 11491 H 1059.4 -2.21264 -3.79393 0
M  V30 11492 H 1060 -3.37331 -2.59014 0
M  V30 11493 N 1058.32 0.686584 -1.41858 0
M  V30 11494 C 1059.27 1.82167 -1.4463 0
M  V30 11495 C 1060.26 1.66286 -0.323313 0
M  V30 11496 O 1061.47 1.73038 -0.495773 0
M  V30 11497 H 1057.84 0.600454 -0.452724 0
M  V30 11498 H 1059.81 1.76947 -2.40276 0
M  V30 11499 C 1058.56 3.20248 -1.35412 0
M  V30 11500 H 1057.89 3.33089 -2.21115 0
M  V30 11501 H 1059.33 3.99723 -1.41413 0
M  V30 11502 C 1057.78 3.36832 -0.0674972 0
M  V30 11503 O 1058.31 3.91845 0.884325 0
M  V30 11504 N 1056.52 2.90598 0.011519 0
M  V30 11505 H 1056.07 2.46016 -0.76381 0
M  V30 11506 H 1056.03 3.02072 0.871774 0
M  V30 11507 N 1059.8 1.27835 0.921735 0
M  V30 11508 C 1061.04 1.14692 1.67253 0
M  V30 11509 C 1061.38 -0.305384 1.91784 0
M  V30 11510 O 1060.65 -1.22286 1.51249 0
M  V30 11511 C 1060.93 1.93743 3.03539 0
M  V30 11512 C 1060.79 3.46991 2.86212 0
M  V30 11513 C 1062.11 1.74658 4.03959 0
M  V30 11514 H 1059.23 0.418021 0.606983 0
M  V30 11515 H 1061.87 1.5706 1.06922 0
M  V30 11516 H 1060.02 1.57738 3.55037 0
M  V30 11517 H 1061.69 3.92858 2.41785 0
M  V30 11518 H 1059.93 3.73029 2.21432 0
M  V30 11519 H 1060.6 3.97551 3.82958 0
M  V30 11520 H 1063.08 2.06063 3.61493 0
M  V30 11521 H 1061.96 2.32353 4.97296 0
M  V30 11522 H 1062.22 0.696019 4.36587 0
M  V30 11523 N 1061.28 -1.12907 1.09954 0
M  V30 11524 C 1062.5 -1.88679 0.861099 0
M  V30 11525 C 1062.93 -1.78853 -0.582499 0
M  V30 11526 O 1062.28 -1.13992 -1.4098 0
M  V30 11527 C 1062.33 -3.36047 1.30785 0
M  V30 11528 O 1061.44 -4.09716 0.469728 0
M  V30 11529 H 1060.78 -0.586447 0.31141 0
M  V30 11530 H 1063.31 -1.42818 1.46507 0
M  V30 11531 H 1063.32 -3.86882 1.29562 0
M  V30 11532 H 1061.99 -3.42516 2.35914 0
M  V30 11533 H 1060.57 -3.6887 0.54674 0
M  V30 11534 N 1062.75 -0.88754 -1.30232 0
M  V30 11535 C 1064.03 -0.427249 -1.90877 0
M  V30 11536 C 1064.41 1.0922 -1.80649 0
M  V30 11537 O 1063.76 1.92866 -1.22536 0
M  V30 11538 C 1063.97 -0.928219 -3.3643 0
M  V30 11539 C 1065.32 -0.964706 -4.13496 0
M  V30 11540 O 1066.34 -0.875057 -3.45284 0
M  V30 11541 O 1065.2 -1.09754 -5.35366 0
M  V30 11542 H 1062.29 -0.131107 -0.816541 0
M  V30 11543 H 1064.84 -0.976609 -1.38782 0
M  V30 11544 H 1063.61 -1.97209 -3.37971 0
M  V30 11545 H 1063.23 -0.358169 -3.95983 0
M  V30 11546 N 1064.23 1.43628 -0.648757 0
M  V30 11547 C 1065.14 2.34554 0.0463037 0
M  V30 11548 C 1066.16 1.53629 0.816952 0
M  V30 11549 O 1067.33 1.86297 0.765212 0
M  V30 11550 C 1064.4 3.3185 1.00381 0
M  V30 11551 C 1063.46 4.2868 0.230589 0
M  V30 11552 C 1062.69 5.21328 1.14249 0
M  V30 11553 O 1062.92 5.18298 2.38166 0
M  V30 11554 O 1061.85 5.98726 0.617296 0
M  V30 11555 H 1065.68 2.95475 -0.702008 0
M  V30 11556 H 1063.26 1.43694 -0.408942 0
M  V30 11557 H 1065.14 3.91692 1.5542 0
M  V30 11558 H 1063.82 2.73439 1.73243 0
M  V30 11559 H 1062.73 3.72332 -0.363282 0
M  V30 11560 H 1064.06 4.90061 -0.458368 0
M  V30 11561 N 1065.71 0.390394 1.52688 0
M  V30 11562 C 1066.62 -0.451543 2.30213 0
M  V30 11563 C 1067.64 -1.07051 1.37172 0
M  V30 11564 O 1068.81 -1.07609 1.70242 0
M  V30 11565 C 1065.88 -1.56299 3.0947 0
M  V30 11566 C 1064.94 -0.969017 4.18221 0
M  V30 11567 C 1064.17 -2.0275 4.93688 0
M  V30 11568 O 1064.39 -3.24273 4.69258 0
M  V30 11569 O 1063.33 -1.64418 5.79008 0
M  V30 11570 H 1067.15 0.180042 3.03166 0
M  V30 11571 H 1064.74 0.154082 1.48603 0
M  V30 11572 H 1066.62 -2.20864 3.58883 0
M  V30 11573 H 1065.3 -2.17952 2.3933 0
M  V30 11574 H 1064.2 -0.286587 3.73001 0
M  V30 11575 H 1065.54 -0.396687 4.90599 0
M  V30 11576 N 1067.19 -1.57141 0.120249 0
M  V30 11577 C 1068.12 -2.12454 -0.859987 0
M  V30 11578 C 1069.13 -1.06755 -1.22911 0
M  V30 11579 O 1070.32 -1.34124 -1.17784 0
M  V30 11580 C 1067.42 -2.61024 -2.16147 0
M  V30 11581 C 1066.6 -3.90835 -1.96385 0
M  V30 11582 C 1065.65 -4.2499 -3.10274 0
M  V30 11583 O 1064.68 -4.93786 -2.83133 0
M  V30 11584 N 1065.88 -3.82411 -4.36741 0
M  V30 11585 H 1068.65 -2.97186 -0.387402 0
M  V30 11586 H 1066.21 -1.61773 -0.0641376 0
M  V30 11587 H 1068.2 -2.80903 -2.91334 0
M  V30 11588 H 1066.77 -1.81166 -2.5475 0
M  V30 11589 H 1065.99 -3.79853 -1.05383 0
M  V30 11590 H 1067.28 -4.75712 -1.80487 0
M  V30 11591 H 1066.68 -3.26926 -4.61666 0
M  V30 11592 H 1065.23 -4.07395 -5.08795 0
M  V30 11593 N 1068.67 0.153526 -1.5685 0
M  V30 11594 C 1069.6 1.2147 -1.94365 0
M  V30 11595 C 1070.61 1.39532 -0.838726 0
M  V30 11596 O 1071.8 1.39219 -1.11715 0
M  V30 11597 C 1068.9 2.5806 -2.19677 0
M  V30 11598 C 1068.07 2.61062 -3.50949 0
M  V30 11599 C 1067.13 3.79144 -3.64878 0
M  V30 11600 O 1066.16 3.64319 -4.37333 0
M  V30 11601 N 1067.36 4.96333 -3.01054 0
M  V30 11602 H 1070.13 0.895889 -2.85996 0
M  V30 11603 H 1067.69 0.343147 -1.58222 0
M  V30 11604 H 1069.68 3.35553 -2.26243 0
M  V30 11605 H 1068.25 2.8226 -1.34343 0
M  V30 11606 H 1067.47 1.69533 -3.55882 0
M  V30 11607 H 1068.76 2.60094 -4.37297 0
M  V30 11608 H 1068.15 5.1128 -2.42093 0
M  V30 11609 H 1066.71 5.71625 -3.13191 0
M  V30 11610 N 1070.14 1.51827 0.422667 0
M  V30 11611 C 1071.39 1.65464 1.17258 0
M  V30 11612 C 1071.72 0.376834 1.90509 0
M  V30 11613 O 1071 -0.624219 1.84211 0
M  V30 11614 C 1071.28 2.86776 2.17788 0
M  V30 11615 C 1071.13 4.24571 1.48523 0
M  V30 11616 C 1072.45 3.03603 3.18611 0
M  V30 11617 H 1069.57 0.602169 0.424925 0
M  V30 11618 H 1072.21 1.84349 0.45996 0
M  V30 11619 H 1070.36 2.70806 2.78561 0
M  V30 11620 H 1072.04 4.5224 0.909739 0
M  V30 11621 H 1070.28 4.26595 0.787354 0
M  V30 11622 H 1070.95 5.05475 2.2181 0
M  V30 11623 H 1073.43 3.18381 2.67904 0
M  V30 11624 H 1072.3 3.90022 3.8623 0
M  V30 11625 H 1072.56 2.16318 3.85563 0
M  V30 11626 N 1071.62 -0.679052 1.4222 0
M  V30 11627 C 1072.85 -1.46534 1.45641 0
M  V30 11628 C 1073.26 -1.89088 0.0649574 0
M  V30 11629 O 1072.6 -1.58436 -0.929712 0
M  V30 11630 C 1072.67 -2.74882 2.3169 0
M  V30 11631 C 1072.33 -2.5443 3.79624 0
M  V30 11632 C 1073.33 -2.19307 4.71382 0
M  V30 11633 C 1071.01 -2.69557 4.23845 0
M  V30 11634 C 1073.01 -1.99571 6.05351 0
M  V30 11635 C 1070.69 -2.49437 5.57875 0
M  V30 11636 C 1071.69 -2.14497 6.48444 0
M  V30 11637 O 1071.38 -1.94567 7.79999 0
M  V30 11638 H 1071.11 -0.457542 0.497626 0
M  V30 11639 H 1073.66 -0.842145 1.87342 0
M  V30 11640 H 1071.89 -3.39669 1.8483 0
M  V30 11641 H 1073.58 -3.3675 2.26615 0
M  V30 11642 H 1074.35 -2.0722 4.38503 0
M  V30 11643 H 1070.23 -2.95733 3.53642 0
M  V30 11644 H 1073.77 -1.72222 6.76007 0
M  V30 11645 H 1069.67 -2.61119 5.90328 0
M  V30 11646 H 1070.44 -2.092 7.91314 0
M  V30 11647 N 1073.1 -1.28322 -0.914942 0
M  V30 11648 C 1074.03 -1.14681 -2.03398 0
M  V30 11649 C 1075.01 -0.0448939 -1.70041 0
M  V30 11650 O 1076.2 -0.221672 -1.92931 0
M  V30 11651 C 1073.33 -0.806623 -3.37803 0
M  V30 11652 C 1072.28 -1.86318 -3.85318 0
M  V30 11653 C 1071.61 -1.37665 -5.16674 0
M  V30 11654 C 1072.91 -3.26953 -4.07307 0
M  V30 11655 H 1074.6 -2.08293 -2.15068 0
M  V30 11656 H 1072.15 -1.00284 -1.03339 0
M  V30 11657 H 1074.1 -0.69796 -4.1558 0
M  V30 11658 H 1072.82 0.165203 -3.26182 0
M  V30 11659 H 1071.48 -1.96096 -3.09745 0
M  V30 11660 H 1071.13 -0.393927 -5.01455 0
M  V30 11661 H 1070.83 -2.08313 -5.49435 0
M  V30 11662 H 1072.35 -1.28119 -5.97007 0
M  V30 11663 H 1073.77 -3.20102 -4.75613 0
M  V30 11664 H 1072.17 -3.95424 -4.51398 0
M  V30 11665 H 1073.24 -3.71059 -3.12159 0
M  V30 11666 N 1074.58 1.12322 -1.10551 0
M  V30 11667 C 1075.99 1.35858 -0.837543 0
M  V30 11668 C 1076.19 1.94062 0.54241 0
M  V30 11669 O 1075.25 2.1676 1.29505 0
M  V30 11670 C 1076.56 2.299 -1.9382 0
M  V30 11671 C 1078.11 2.43488 -1.96679 0
M  V30 11672 C 1078.59 3.40846 -3.05922 0
M  V30 11673 N 1080.08 3.48404 -3.05236 0
M  V30 11674 C 1080.81 4.2365 -3.86405 0
M  V30 11675 N 1080.31 5.01951 -4.77512 0
M  V30 11676 N 1082.1 4.19068 -3.74618 0
M  V30 11677 H 1074.25 0.729002 -1.99498 0
M  V30 11678 H 1076.52 0.38339 -0.867016 0
M  V30 11679 H 1076.22 1.94309 -2.9315 0
M  V30 11680 H 1076.1 3.30033 -1.82641 0
M  V30 11681 H 1078.48 2.78359 -0.979813 0
M  V30 11682 H 1078.56 1.43239 -2.11934 0
M  V30 11683 H 1078.21 3.06704 -4.04839 0
M  V30 11684 H 1078.14 4.40927 -2.87907 0
M  V30 11685 H 1080.63 2.92545 -2.39219 0
M  V30 11686 H 1080.94 5.56707 -5.36002 0
M  V30 11687 H 1079.29 5.01143 -4.8154 0
M  V30 11688 H 1082.48 3.5698 -3.02792 0
M  V30 11689 H 1082.65 4.77455 -4.38111 0
M  V30 11690 N 1076.06 0.894434 1.2976 0
M  V30 11691 C 1076.99 0.325525 2.26877 0
M  V30 11692 C 1078 -0.525218 1.54095 0
M  V30 11693 O 1079.19 -0.343231 1.75169 0
M  V30 11694 C 1076.29 -0.554952 3.34325 0
M  V30 11695 C 1075.46 0.268868 4.36573 0
M  V30 11696 C 1074.52 -0.543601 5.23385 0
M  V30 11697 O 1073.55 0.0370454 5.69188 0
M  V30 11698 N 1074.75 -1.85079 5.50205 0
M  V30 11699 H 1077.52 1.16021 2.76332 0
M  V30 11700 H 1075.08 0.758382 1.43039 0
M  V30 11701 H 1077.07 -1.10476 3.89329 0
M  V30 11702 H 1075.64 -1.29031 2.84727 0
M  V30 11703 H 1074.86 1.0001 3.81302 0
M  V30 11704 H 1076.15 0.833248 5.01931 0
M  V30 11705 H 1075.54 -2.34533 5.14792 0
M  V30 11706 H 1074.1 -2.34784 6.08046 0
M  V30 11707 N 1077.53 -1.43282 0.656365 0
M  V30 11708 C 1078.78 -2.01776 0.171039 0
M  V30 11709 C 1079.11 -1.51795 -1.21609 0
M  V30 11710 O 1078.36 -0.702864 -1.82643 0
M  V30 11711 C 1078.66 -3.57148 0.134225 0
M  V30 11712 C 1078.33 -4.26488 1.46352 0
M  V30 11713 C 1076.99 -4.45146 1.82753 0
M  V30 11714 C 1079.34 -4.65728 2.33981 0
M  V30 11715 C 1076.67 -5.0031 3.06443 0
M  V30 11716 C 1079.02 -5.22263 3.56966 0
M  V30 11717 C 1077.69 -5.39136 3.93559 0
M  V30 11718 H 1076.96 -0.738352 0.0625878 0
M  V30 11719 H 1079.6 -1.71716 0.847697 0
M  V30 11720 H 1077.91 -3.86768 -0.625892 0
M  V30 11721 H 1079.61 -4.00168 -0.258207 0
M  V30 11722 H 1076.2 -4.12313 1.1703 0
M  V30 11723 H 1080.38 -4.51003 2.07148 0
M  V30 11724 H 1075.64 -5.11559 3.34839 0
M  V30 11725 H 1079.81 -5.51614 4.25082 0
M  V30 11726 H 1077.44 -5.81646 4.89481 0
M  V30 11727 N 1079.01 -0.398486 -1.52479 0
M  V30 11728 C 1080.26 0.181019 -2.0199 0
M  V30 11729 C 1080.59 1.45691 -1.28405 0
M  V30 11730 O 1079.87 1.90607 -0.387207 0
M  V30 11731 C 1080.15 0.439587 -3.57407 0
M  V30 11732 C 1080 -0.85223 -4.41653 0
M  V30 11733 C 1081.32 1.2263 -4.2267 0
M  V30 11734 H 1078.44 0.0643164 -0.734188 0
M  V30 11735 H 1081.08 -0.52986 -1.82462 0
M  V30 11736 H 1079.23 1.04516 -3.74177 0
M  V30 11737 H 1080.91 -1.48879 -4.36615 0
M  V30 11738 H 1079.15 -1.46555 -4.08294 0
M  V30 11739 H 1079.82 -0.625839 -5.48441 0
M  V30 11740 H 1082.3 0.713722 -4.09933 0
M  V30 11741 H 1081.17 1.37596 -5.31374 0
M  V30 11742 H 1081.43 2.24403 -3.80914 0
M  V30 11743 N 1080.49 1.57075 -0.12858 0
M  V30 11744 C 1081.42 2.18833 0.814519 0
M  V30 11745 C 1082.4 1.13114 1.2704 0
M  V30 11746 O 1083.59 1.41387 1.33129 0
M  V30 11747 C 1080.72 2.79535 2.06101 0
M  V30 11748 C 1079.67 3.9092 1.74257 0
M  V30 11749 C 1079 4.38473 3.06015 0
M  V30 11750 C 1080.3 5.1257 1.00345 0
M  V30 11751 H 1081.99 2.97895 0.299862 0
M  V30 11752 H 1079.54 1.4329 0.14279 0
M  V30 11753 H 1081.49 3.21401 2.72543 0
M  V30 11754 H 1080.21 1.97777 2.59907 0
M  V30 11755 H 1078.87 3.49645 1.102 0
M  V30 11756 H 1078.52 3.53561 3.57776 0
M  V30 11757 H 1078.22 5.13591 2.85479 0
M  V30 11758 H 1079.75 4.82997 3.7356 0
M  V30 11759 H 1081.16 5.51395 1.56959 0
M  V30 11760 H 1079.56 5.93333 0.898693 0
M  V30 11761 H 1080.63 4.84899 -0.0081335 0
M  V30 11762 N 1081.97 -0.145205 1.5693 0
M  V30 11763 C 1083.2 -0.872398 1.87608 0
M  V30 11764 C 1083.61 -1.74657 0.716975 0
M  V30 11765 O 1082.97 -1.79792 -0.3132 0
M  V30 11766 C 1083.02 -1.72762 3.17546 0
M  V30 11767 O 1082.74 -0.888681 4.28992 0
M  V30 11768 C 1084.24 -2.56224 3.61751 0
M  V30 11769 H 1081.46 -0.252166 0.621815 0
M  V30 11770 H 1084.01 -0.137456 2.04038 0
M  V30 11771 H 1082.16 -2.41561 3.02865 0
M  V30 11772 H 1082.58 -1.47601 5.03303 0
M  V30 11773 H 1084.05 -3.11804 4.55502 0
M  V30 11774 H 1084.53 -3.32347 2.87127 0
M  V30 11775 H 1085.13 -1.92714 3.79133 0
M  V30 11776 N 1083.45 -1.52049 -0.414609 0
M  V30 11777 C 1084.7 -1.65067 -1.15912 0
M  V30 11778 C 1085.01 -0.383969 -1.91794 0
M  V30 11779 O 1086.22 -0.393872 -2.68628 0
M  V30 11780 C 1084.67 -2.91611 -2.1093 0
M  V30 11781 C 1084.28 -4.25369 -1.4059 0
M  V30 11782 C 1086.02 -3.13992 -2.85674 0
M  V30 11783 C 1083.93 -5.43041 -2.34223 0
M  V30 11784 H 1082.86 -0.614884 -0.436387 0
M  V30 11785 H 1085.51 -1.78533 -0.424072 0
M  V30 11786 H 1083.89 -2.71831 -2.87965 0
M  V30 11787 H 1085.07 -4.55611 -0.689568 0
M  V30 11788 H 1083.38 -4.09047 -0.779088 0
M  V30 11789 H 1085.98 -3.99082 -3.55861 0
M  V30 11790 H 1086.32 -2.27998 -3.48314 0
M  V30 11791 H 1086.86 -3.34217 -2.1574 0
M  V30 11792 H 1083.59 -6.31364 -1.76238 0
M  V30 11793 H 1083.11 -5.17144 -3.03845 0
M  V30 11794 H 1084.79 -5.75901 -2.94868 0
M  V30 11795 N 1084.93 0.6715 -1.42579 0
M  V30 11796 C 1085.84 1.81435 -1.48723 0
M  V30 11797 C 1086.85 1.69895 -0.375716 0
M  V30 11798 O 1088.03 1.91388 -0.627115 0
M  V30 11799 C 1085.09 3.17599 -1.39038 0
M  V30 11800 C 1084.15 3.41071 -2.60709 0
M  V30 11801 C 1083.39 4.7074 -2.51476 0
M  V30 11802 O 1083.61 5.48868 -1.55243 0
M  V30 11803 O 1082.54 4.95528 -3.41666 0
M  V30 11804 H 1086.37 1.79206 -2.45191 0
M  V30 11805 H 1083.95 0.827666 -1.24379 0
M  V30 11806 H 1085.84 3.98847 -1.3601 0
M  V30 11807 H 1084.51 3.20458 -0.456966 0
M  V30 11808 H 1083.42 2.59659 -2.69311 0
M  V30 11809 H 1084.75 3.43045 -3.5296 0
M  V30 11810 N 1086.4 1.28806 0.908124 0
M  V30 11811 C 1087.35 1.13215 2.01125 0
M  V30 11812 C 1088.32 0.0277357 1.66077 0
M  V30 11813 O 1089.51 0.193707 1.89814 0
M  V30 11814 C 1086.65 0.805887 3.35558 0
M  V30 11815 C 1085.76 1.9899 3.83441 0
M  V30 11816 C 1084.89 1.60376 5.06412 0
M  V30 11817 C 1083.93 2.75409 5.46641 0
M  V30 11818 N 1083.07 2.37249 6.60801 0
M  V30 11819 H 1087.91 2.07598 2.13792 0
M  V30 11820 H 1085.45 1.03316 1.0471 0
M  V30 11821 H 1087.4 0.597451 4.129 0
M  V30 11822 H 1086.03 -0.101023 3.22642 0
M  V30 11823 H 1085.09 2.31029 3.02208 0
M  V30 11824 H 1086.4 2.85214 4.09212 0
M  V30 11825 H 1085.55 1.35772 5.91313 0
M  V30 11826 H 1084.29 0.712888 4.82462 0
M  V30 11827 H 1083.3 3.00705 4.60279 0
M  V30 11828 H 1084.52 3.65148 5.72577 0
M  V30 11829 H 1082.47 1.50638 6.3847 0
M  V30 11830 H 1082.38 3.17008 6.86325 0
M  V30 11831 H 1083.65 2.15943 7.48992 0
M  V30 11832 N 1087.88 -1.11734 1.11145 0
M  V30 11833 C 1088.83 -2.17683 0.766979 0
M  V30 11834 C 1089.8 -1.64051 -0.260108 0
M  V30 11835 O 1090.98 -1.90302 -0.137723 0
M  V30 11836 C 1088.12 -3.44442 0.212982 0
M  V30 11837 C 1087.24 -4.12094 1.29626 0
M  V30 11838 C 1086.37 -5.26526 0.703127 0
M  V30 11839 C 1085.41 -5.86057 1.76647 0
M  V30 11840 N 1084.55 -6.91889 1.19306 0
M  V30 11841 H 1089.39 -2.46495 1.67465 0
M  V30 11842 H 1086.92 -1.21011 0.836353 0
M  V30 11843 H 1088.88 -4.17009 -0.126162 0
M  V30 11844 H 1087.51 -3.16025 -0.657888 0
M  V30 11845 H 1086.56 -3.37631 1.75241 0
M  V30 11846 H 1087.88 -4.52398 2.10089 0
M  V30 11847 H 1087.03 -6.05888 0.313859 0
M  V30 11848 H 1085.77 -4.87519 -0.132856 0
M  V30 11849 H 1084.77 -5.05375 2.16508 0
M  V30 11850 H 1086 -6.27132 2.60543 0
M  V30 11851 H 1083.95 -6.54906 0.378664 0
M  V30 11852 H 1083.86 -7.30832 1.93443 0
M  V30 11853 H 1085.13 -7.75062 0.830578 0
M  V30 11854 O 1089.4 -1.03367 -1.24087 0
M  V30 11855 H 1090.09 -0.701445 -1.80553 0
M  V30 END ATOM
M  V30 BEGIN BOND
M  V30 END BOND
M  V30 END CTAB
M  END
$$$$
