drugbank_target|P49137 MAP kinase-activated protein kinase 2 (DB02010; DB07234; DB07406; DB07430; DB07431; DB07728; DB08358)
 OpenBabel12092119533D

  0  0  0     0  0            999 V3000
M  V30 BEGIN CTAB
M  V30 COUNTS 6442 6527 0 0 0
M  V30 BEGIN ATOM
M  V30 1 H -0.908 1.98254 -0.117106 0
M  V30 2 N 0 1.576 0 0
M  V30 3 C 0.933 2.03868 1.02534 0
M  V30 4 C 1.911 0.928543 1.3348 0
M  V30 5 O 3.095 1.19667 1.45644 0
M  V30 6 C 0.222 2.43627 2.35294 0
M  V30 7 C -0.732 3.65373 2.2001 0
M  V30 8 S 0.101 5.13292 1.52614 0
M  V30 9 C 1.257 5.56322 2.86805 0
M  V30 10 H 1.49 2.90518 0.631377 0
M  V30 11 H -0.977 1.52953 0.210867 0
M  V30 12 H 0.981 2.67203 3.11629 0
M  V30 13 H -0.358 1.57376 2.7183 0
M  V30 14 H -1.165 3.90944 3.18086 0
M  V30 15 H -1.563 3.418 1.51819 0
M  V30 16 H 0.729 5.58782 3.83104 0
M  V30 17 H 1.672 6.56266 2.65933 0
M  V30 18 H 2.08 4.83886 2.90714 0
M  V30 19 N 1.4781 -0.272755 1.55222 0
M  V30 20 C 2.4081 -1.34136 1.91127 0
M  V30 21 C 3.3891 -1.51513 0.773168 0
M  V30 22 O 4.5741 -1.64552 1.03132 0
M  V30 23 C 1.7041 -2.70083 2.1834 0
M  V30 24 C 0.6581 -2.67437 3.34158 0
M  V30 25 C -0.0159 -4.06938 3.46851 0
M  V30 26 C 1.2841 -2.26686 4.70543 0
M  V30 27 H 2.9781 -1.04333 2.80633 0
M  V30 28 H 0.5241 -0.500454 1.35024 0
M  V30 29 H 2.4771 -3.44952 2.42046 0
M  V30 30 H 1.2011 -3.01469 1.25634 0
M  V30 31 H -0.1399 -1.95026 3.1042 0
M  V30 32 H -0.4919 -4.35547 2.51611 0
M  V30 33 H -0.7919 -4.06062 4.2472 0
M  V30 34 H 0.7321 -4.83545 3.72849 0
M  V30 35 H 2.1461 -2.91277 4.93792 0
M  V30 36 H 0.5431 -2.36971 5.5133 0
M  V30 37 H 1.6131 -1.21818 4.69349 0
M  V30 38 N 2.9562 -1.48159 -0.537278 0
M  V30 39 C 4.1812 -1.59707 -1.32319 0
M  V30 40 C 4.6062 -0.254859 -1.86365 0
M  V30 41 O 3.9642 0.772378 -1.64024 0
M  V30 42 C 4.0122 -2.6412 -2.45505 0
M  V30 43 O 3.1162 -2.20774 -3.48328 0
M  V30 44 H 2.4572 -0.535791 -0.392204 0
M  V30 45 H 4.9872 -1.94092 -0.647268 0
M  V30 46 H 4.9972 -2.85166 -2.91795 0
M  V30 47 H 3.6722 -3.61567 -2.05528 0
M  V30 48 H 2.2492 -2.09911 -3.08207 0
M  V30 49 N 4.4343 0.785586 -1.36625 0
M  V30 50 C 5.3823 1.91978 -1.31329 0
M  V30 51 C 6.3763 1.68162 -0.204416 0
M  V30 52 O 7.5823 1.76122 -0.371645 0
M  V30 53 H 3.9573 0.631087 -0.408942 0
M  V30 54 H 5.9283 1.93562 -2.27104 0
M  V30 55 C 4.6773 3.29055 -1.12329 0
M  V30 56 H 4.0003 3.4795 -1.96903 0
M  V30 57 H 5.4403 4.08756 -1.12671 0
M  V30 58 C 3.8993 3.36461 0.171861 0
M  V30 59 O 4.4293 3.84576 1.16035 0
M  V30 60 N 2.6353 2.89782 0.217846 0
M  V30 61 H 2.1823 2.50819 -0.587183 0
M  V30 62 H 2.1403 2.95119 1.08408 0
M  V30 63 N 5.9124 1.20967 1.01018 0
M  V30 64 C 7.1374 1.0503 1.78839 0
M  V30 65 C 7.5624 -0.395752 1.8389 0
M  V30 66 O 6.9204 -1.28529 1.27867 0
M  V30 67 C 6.9684 1.64602 3.2084 0
M  V30 68 O 6.0724 0.887988 4.02726 0
M  V30 69 H 5.4134 0.369987 0.551367 0
M  V30 70 H 7.9434 1.60399 1.27018 0
M  V30 71 H 7.9534 1.68607 3.71532 0
M  V30 72 H 6.6284 2.69841 3.16479 0
M  V30 73 H 5.2054 0.922648 3.61305 0
M  V30 74 N 7.3905 -1.2043 1.01659 0
M  V30 75 C 8.3225 -2.22626 0.544988 0
M  V30 76 C 9.3355 -1.58479 -0.372609 0
M  V30 77 O 10.5245 -1.77679 -0.170958 0
M  V30 78 C 7.6245 -3.38141 -0.22663 0
M  V30 79 C 6.7975 -4.31877 0.692876 0
M  V30 80 C 5.8565 -5.26191 -0.0311616 0
M  V30 81 O 4.8825 -5.6612 0.591343 0
M  V30 82 N 6.0845 -5.65618 -1.30601 0
M  V30 83 H 8.8495 -2.63716 1.42388 0
M  V30 84 H 6.4105 -1.34971 0.894116 0
M  V30 85 H 8.4025 -3.98239 -0.72024 0
M  V30 86 H 6.9725 -2.95943 -1.00681 0
M  V30 87 H 6.1925 -3.69746 1.36679 0
M  V30 88 H 7.4805 -4.91426 1.31824 0
M  V30 89 H 6.8785 -5.3519 -1.83269 0
M  V30 90 H 5.4355 -6.28025 -1.74435 0
M  V30 91 N 8.8686 -0.792821 -1.36206 0
M  V30 92 C 10.1166 -0.366062 -1.98757 0
M  V30 93 C 10.4376 1.0668 -1.63231 0
M  V30 94 O 9.7076 1.73587 -0.907978 0
M  V30 95 H 8.2876 -0.132364 -0.735179 0
M  V30 96 H 10.9496 -1.01562 -1.66347 0
M  V30 97 H 10.0456 -0.460638 -3.08682 0
M  V30 98 N 10.3467 1.47872 -0.545128 0
M  V30 99 C 11.2787 2.27869 0.246621 0
M  V30 100 C 12.2917 1.36282 0.890561 0
M  V30 101 O 13.4807 1.61207 0.766449 0
M  V30 102 C 10.5807 3.10159 1.36582 0
M  V30 103 C 9.7537 4.29627 0.820954 0
M  V30 104 C 8.8127 4.93607 1.82314 0
M  V30 105 O 7.8387 5.52366 1.37406 0
M  V30 106 N 9.0407 4.87211 3.15603 0
M  V30 107 H 11.8057 2.96459 -0.439539 0
M  V30 108 H 9.3667 1.57367 -0.380421 0
M  V30 109 H 11.3587 3.49829 2.03474 0
M  V30 110 H 9.9287 2.43891 1.9554 0
M  V30 111 H 9.1487 3.94192 -0.0244032 0
M  V30 112 H 10.4367 5.06928 0.436063 0
M  V30 113 H 9.8347 4.40651 3.54744 0
M  V30 114 H 8.3917 5.30937 3.78087 0
M  V30 115 N 11.8248 0.280983 1.55075 0
M  V30 116 C 13.0498 -0.340154 2.04592 0
M  V30 117 C 13.4748 -1.48246 1.15779 0
M  V30 118 O 12.8328 -1.80614 0.15761 0
M  V30 119 C 12.8808 -0.793104 3.5177 0
M  V30 120 O 11.9848 -1.89981 3.66034 0
M  V30 121 H 11.3258 -0.0694289 0.66036 0
M  V30 122 H 13.8558 0.416993 2.00306 0
M  V30 123 H 13.8658 -1.08729 3.93245 0
M  V30 124 H 12.5408 0.0426163 4.15878 0
M  V30 125 H 11.1178 -1.60771 3.36463 0
M  V30 126 N 13.3029 -1.57598 0.00835791 0
M  V30 127 C 14.7139 -1.7892 -0.53333 0
M  V30 128 C 15.0649 -0.916609 -1.73473 0
M  V30 129 O 14.1899 -0.121336 -2.1606 0
M  V30 130 C 14.7849 -3.24488 -0.974313 0
M  V30 131 C 13.3439 -3.46878 -1.46125 0
M  V30 132 C 12.4909 -2.74157 -0.416302 0
M  V30 133 H 15.4419 -1.56958 0.234495 0
M  V30 134 H 15.4629 -3.3306 -1.83988 0
M  V30 135 H 14.9749 -3.87972 -0.099718 0
M  V30 136 H 13.0759 -2.8862 -2.35646 0
M  V30 137 H 13.1889 -4.55572 -1.48295 0
M  V30 138 H 11.5529 -2.39022 -0.87981 0
M  V30 139 H 12.3359 -3.40345 0.44947 0
M  V30 140 N 14.781 0.264519 -1.55364 0
M  V30 141 C 16.192 0.834936 -1.6699 0
M  V30 142 C 16.543 1.86718 -0.602552 0
M  V30 143 O 15.668 2.14899 0.254425 0
M  V30 144 C 16.263 1.5212 -3.02729 0
M  V30 145 C 14.822 2.03954 -3.16354 0
M  V30 146 C 13.969 0.884498 -2.62815 0
M  V30 147 H 16.92 0.0406869 -1.58648 0
M  V30 148 H 16.941 2.38853 -2.96191 0
M  V30 149 H 16.453 0.769668 -3.80392 0
M  V30 150 H 14.554 2.82041 -2.43482 0
M  V30 151 H 14.667 2.24902 -4.23032 0
M  V30 152 H 13.031 1.2802 -2.20188 0
M  V30 153 H 13.814 0.14634 -3.42988 0
M  V30 154 N 16.2591 1.48442 0.529413 0
M  V30 155 C 17.5051 1.5672 1.28711 0
M  V30 156 C 17.8381 0.2406 1.92704 0
M  V30 157 O 17.1131 -0.753454 1.79313 0
M  V30 158 C 17.3961 2.70587 2.37603 0
M  V30 159 C 17.2491 4.12953 1.78297 0
M  V30 160 C 18.5681 2.80212 3.39366 0
M  V30 161 H 15.6871 0.570474 0.466613 0
M  V30 162 H 18.3291 1.80617 0.589706 0
M  V30 163 H 16.4791 2.50342 2.97088 0
M  V30 164 H 18.1511 4.44639 1.22858 0
M  V30 165 H 16.3941 4.19927 1.0883 0
M  V30 166 H 17.0651 4.88448 2.57144 0
M  V30 167 H 19.5411 2.98553 2.89836 0
M  V30 168 H 18.4171 3.61611 4.12951 0
M  V30 169 H 18.6781 1.88393 3.99951 0
M  V30 170 N 17.7372 -0.778329 1.37039 0
M  V30 171 C 19.1482 -1.35421 1.28523 0
M  V30 172 C 19.4992 -1.96075 -0.0700901 0
M  V30 173 O 18.6242 -1.93352 -0.971801 0
M  V30 174 C 19.2192 -2.46211 2.32735 0
M  V30 175 C 17.7782 -2.99585 2.27873 0
M  V30 176 C 16.9252 -1.72748 2.16918 0
M  V30 177 H 19.8762 -0.5791 1.47757 0
M  V30 178 H 19.8972 -3.2552 1.9702 0
M  V30 179 H 19.4092 -2.02036 3.31365 0
M  V30 180 H 17.5102 -3.48152 1.32745 0
M  V30 181 H 17.6232 -3.55646 3.21018 0
M  V30 182 H 15.9872 -1.95416 1.63354 0
M  V30 183 H 16.7702 -1.30686 3.17452 0
M  V30 184 N 19.2153 -1.21501 -1.00376 0
M  V30 185 C 20.4623 -1.03299 -1.74171 0
M  V30 186 C 20.7903 0.433326 -1.89612 0
M  V30 187 O 20.0453 1.33779 -1.42834 0
M  V30 188 C 20.3443 -1.67673 -3.15627 0
M  V30 189 C 20.0103 -3.17533 -3.2013 0
M  V30 190 C 18.6723 -3.58427 -3.21067 0
M  V30 191 C 21.0243 -4.13504 -3.17275 0
M  V30 192 C 18.3523 -4.93794 -3.16835 0
M  V30 193 C 20.7043 -5.48834 -3.14585 0
M  V30 194 C 19.3683 -5.89123 -3.13831 0
M  V30 195 H 18.6383 -0.377999 -0.637336 0
M  V30 196 H 21.2853 -1.51111 -1.17634 0
M  V30 197 H 19.5903 -1.12158 -3.75404 0
M  V30 198 H 21.2873 -1.51091 -3.71446 0
M  V30 199 H 17.8773 -2.84965 -3.20145 0
M  V30 200 H 22.0613 -3.82936 -3.15711 0
M  V30 201 H 17.3173 -5.24255 -3.1459 0
M  V30 202 H 21.4913 -6.22934 -3.1133 0
M  V30 203 H 19.1183 -6.93984 -3.10307 0
M  V30 204 N 20.6934 1.19889 -1.02296 0
M  V30 205 C 22.1044 1.71124 -0.746568 0
M  V30 206 C 22.4554 1.81939 0.734335 0
M  V30 207 O 21.5804 1.48639 1.57275 0
M  V30 208 C 22.1754 3.10804 -1.34857 0
M  V30 209 C 20.7344 3.59323 -1.1209 0
M  V30 210 C 19.8814 2.3635 -1.45031 0
M  V30 211 H 22.8324 1.04813 -1.19163 0
M  V30 212 H 22.8534 3.73186 -0.742437 0
M  V30 213 H 22.3654 3.029 -2.42638 0
M  V30 214 H 20.4664 3.7255 -0.0610337 0
M  V30 215 H 20.5794 4.4378 -1.80544 0
M  V30 216 H 18.9434 2.39399 -0.869487 0
M  V30 217 H 19.7264 2.31081 -2.53883 0
M  V30 218 N 22.1715 0.800033 1.35784 0
M  V30 219 C 23.1345 0.211565 2.28221 0
M  V30 220 C 24.1345 -0.59728 1.49296 0
M  V30 221 O 25.3245 -0.416721 1.69142 0
M  V30 222 C 22.4565 -0.705846 3.33513 0
M  V30 223 H 23.6495 1.02677 2.81776 0
M  V30 224 H 21.2025 0.570211 1.45528 0
M  V30 225 H 21.9375 -1.54498 2.85133 0
M  V30 226 H 21.7225 -0.127655 3.91892 0
M  V30 227 H 23.2125 -1.11211 4.02519 0
M  V30 228 N 23.6496 -1.47581 0.552962 0
M  V30 229 C 25.0606 -1.86324 0.118463 0
M  V30 230 C 25.4116 -1.46006 -1.3106 0
M  V30 231 O 24.5366 -0.861182 -1.98526 0
M  V30 232 C 25.1316 -3.3816 0.20821 0
M  V30 233 C 23.6906 -3.7601 -0.171226 0
M  V30 234 C 22.8376 -2.71634 0.557686 0
M  V30 235 H 25.7886 -1.39159 0.762928 0
M  V30 236 H 25.8096 -3.76141 -0.574278 0
M  V30 237 H 25.3216 -3.67473 1.24841 0
M  V30 238 H 23.4226 -3.52313 -1.21269 0
M  V30 239 H 23.5356 -4.78745 0.184379 0
M  V30 240 H 21.8996 -2.547 0.00125792 0
M  V30 241 H 22.6826 -3.0379 1.59896 0
M  V30 242 N 25.1277 -0.289203 -1.54924 0
M  V30 243 C 26.0907 0.579144 -2.21762 0
M  V30 244 C 27.0907 1.07047 -1.1999 0
M  V30 245 O 28.2807 0.968384 -1.44803 0
M  V30 246 C 25.4127 1.80055 -2.8947 0
M  V30 247 H 26.6057 -0.00464908 -2.999 0
M  V30 248 H 24.1587 -0.0399306 -1.56249 0
M  V30 249 H 24.8937 2.42449 -2.15381 0
M  V30 250 H 24.6787 1.45602 -3.64064 0
M  V30 251 H 26.1687 2.41773 -3.40493 0
M  V30 252 N 26.6058 1.57591 -0.0167156 0
M  V30 253 C 28.0168 1.79201 0.523834 0
M  V30 254 C 28.3678 0.925796 1.72984 0
M  V30 255 O 27.4928 0.132792 2.15992 0
M  V30 256 C 28.0878 3.25 0.957091 0
M  V30 257 C 26.6468 3.47648 1.44283 0
M  V30 258 C 25.7938 2.74374 0.401757 0
M  V30 259 H 28.7448 1.56831 -0.242816 0
M  V30 260 H 28.7658 3.34031 1.82219 0
M  V30 261 H 28.2778 3.88019 0.0791415 0
M  V30 262 H 26.3788 2.89866 2.34113 0
M  V30 263 H 26.4918 4.56352 1.45877 0
M  V30 264 H 24.8558 2.39485 0.867121 0
M  V30 265 H 25.6388 3.40102 -0.467513 0
M  V30 266 N 28.0839 -0.256276 1.55502 0
M  V30 267 C 29.4949 -0.826068 1.67431 0
M  V30 268 C 29.8459 -1.86396 0.612446 0
M  V30 269 O 28.9709 -2.15031 -0.243025 0
M  V30 270 C 29.5659 -1.50512 3.03532 0
M  V30 271 C 28.1249 -2.02273 3.17431 0
M  V30 272 C 27.2719 -0.870548 2.63281 0
M  V30 273 H 30.2229 -0.0322728 1.58667 0
M  V30 274 H 30.2439 -2.37279 2.97454 0
M  V30 275 H 29.7559 -0.749484 3.80794 0
M  V30 276 H 27.8569 -2.80746 2.44974 0
M  V30 277 H 27.9699 -2.22655 4.24219 0
M  V30 278 H 26.3339 -1.26851 2.20864 0
M  V30 279 H 27.1169 -0.128149 3.43061 0
M  V30 280 N 29.562 -1.4872 -0.521534 0
M  V30 281 C 30.973 -1.50607 -1.10337 0
M  V30 282 C 31.324 -0.280612 -1.94183 0
M  V30 283 O 30.449 0.611507 -2.0758 0
M  V30 284 C 31.044 -2.72903 -2.00772 0
M  V30 285 C 29.603 -2.77634 -2.54158 0
M  V30 286 C 28.75 -2.44241 -1.31307 0
M  V30 287 H 31.701 -1.55714 -0.306388 0
M  V30 288 H 31.722 -2.519 -2.85178 0
M  V30 289 H 31.234 -3.62077 -1.39721 0
M  V30 290 H 29.335 -1.92689 -3.18907 0
M  V30 291 H 29.448 -3.79283 -2.92714 0
M  V30 292 H 27.812 -1.95577 -1.63161 0
M  V30 293 H 28.595 -3.35666 -0.719943 0
M  V30 294 N 31.0401 0.771051 -1.3745 0
M  V30 295 C 31.9721 1.89352 -1.29146 0
M  V30 296 C 32.9851 1.61477 -0.207124 0
M  V30 297 O 34.1741 1.72382 -0.463324 0
M  V30 298 C 31.2741 3.24596 -0.974195 0
M  V30 299 C 30.4471 3.80111 -2.16413 0
M  V30 300 C 29.5061 4.93832 -1.81703 0
M  V30 301 O 28.5321 5.09382 -2.54006 0
M  V30 302 N 29.7341 5.75483 -0.761573 0
M  V30 303 H 32.4991 1.96991 -2.25864 0
M  V30 304 H 30.0601 0.950191 -1.31084 0
M  V30 305 H 32.0521 3.98193 -0.722828 0
M  V30 306 H 30.6221 3.12454 -0.0955527 0
M  V30 307 H 29.8421 2.98284 -2.57721 0
M  V30 308 H 31.1301 4.13932 -2.95867 0
M  V30 309 H 30.5281 5.65469 -0.161609 0
M  V30 310 H 29.0851 6.49302 -0.570064 0
M  V30 311 N 32.5182 1.22032 0.997298 0
M  V30 312 C 33.9292 1.0397 1.55071 0
M  V30 313 C 34.2802 -0.398192 1.92117 0
M  V30 314 O 33.4052 -1.28254 1.74298 0
M  V30 315 C 34.0002 1.88109 2.81781 0
M  V30 316 C 32.5592 1.74357 3.33581 0
M  V30 317 C 31.7062 1.84846 2.06706 0
M  V30 318 H 34.6572 1.35941 0.818883 0
M  V30 319 H 34.6782 1.39589 3.53971 0
M  V30 320 H 34.1902 2.92754 2.54787 0
M  V30 321 H 32.2912 0.72427 3.65493 0
M  V30 322 H 32.4042 2.56772 4.04481 0
M  V30 323 H 30.7682 1.28238 2.20062 0
M  V30 324 H 31.5512 2.91014 1.82114 0
M  V30 325 N 33.9963 -1.19345 1.0293 0
M  V30 326 C 35.4073 -1.70725 0.755633 0
M  V30 327 C 35.7583 -1.82326 -0.724676 0
M  V30 328 O 34.8833 -1.49471 -1.56484 0
M  V30 329 C 35.4783 -3.10084 1.36503 0
M  V30 330 C 34.0373 -3.58723 1.13994 0
M  V30 331 C 33.1843 -2.35577 1.46283 0
M  V30 332 H 36.1353 -1.0418 1.19718 0
M  V30 333 H 36.1563 -3.72787 0.762217 0
M  V30 334 H 35.6683 -3.01609 2.44241 0
M  V30 335 H 33.7693 -3.72512 0.0807901 0
M  V30 336 H 33.8823 -4.42816 1.82894 0
M  V30 337 H 32.2463 -2.38935 0.88217 0
M  V30 338 H 33.0293 -2.29731 2.55105 0
M  V30 339 N 35.4744 -0.807222 -1.35358 0
M  V30 340 C 36.7024 -0.400377 -2.02989 0
M  V30 341 C 37.1174 0.988859 -1.60832 0
M  V30 342 O 36.4744 1.63729 -0.806175 0
M  V30 343 C 36.5254 -0.474867 -3.58368 0
M  V30 344 O 36.2464 -1.80933 -3.98992 0
M  V30 345 C 37.7474 -0.0609112 -4.43258 0
M  V30 346 H 34.9674 -0.162587 -0.651004 0
M  V30 347 H 37.5114 -1.09102 -1.72965 0
M  V30 348 H 35.6664 0.167534 -3.87038 0
M  V30 349 H 36.0804 -1.77256 -4.9364 0
M  V30 350 H 37.5544 -0.164145 -5.51756 0
M  V30 351 H 38.0314 0.993831 -4.27808 0
M  V30 352 H 38.6374 -0.676492 -4.19885 0
M  V30 353 N 36.9525 1.47285 -0.560781 0
M  V30 354 C 38.3635 1.86258 -0.128343 0
M  V30 355 C 38.7145 1.46699 1.30284 0
M  V30 356 O 37.8395 0.871698 1.98067 0
M  V30 357 C 38.4345 3.38044 -0.22614 0
M  V30 358 C 36.9935 3.76096 0.151283 0
M  V30 359 C 36.1405 2.71335 -0.572084 0
M  V30 360 H 39.0915 1.38752 -0.770297 0
M  V30 361 H 39.1125 3.76441 0.554322 0
M  V30 362 H 38.6245 3.66806 -1.26788 0
M  V30 363 H 36.7255 3.52951 1.19399 0
M  V30 364 H 36.8385 4.78641 -0.209765 0
M  V30 365 H 35.2025 2.54696 -0.0147653 0
M  V30 366 H 35.9855 3.02938 -1.61504 0
M  V30 367 N 38.4306 0.297415 1.54768 0
M  V30 368 C 39.3936 -0.567375 2.22066 0
M  V30 369 C 40.3936 -1.06409 1.20556 0
M  V30 370 O 41.5836 -0.960691 1.45315 0
M  V30 371 C 38.7156 -1.78517 2.90421 0
M  V30 372 H 39.9086 0.0205534 2.99893 0
M  V30 373 H 37.4616 0.0482163 1.56226 0
M  V30 374 H 38.1966 -2.41303 2.16664 0
M  V30 375 H 37.9816 -1.43669 3.64831 0
M  V30 376 H 39.4716 -2.39964 3.41771 0
M  V30 377 N 39.9087 -1.5758 0.0250728 0
M  V30 378 C 40.8387 -2.13007 -0.956575 0
M  V30 379 C 41.8197 -1.0452 -1.342 0
M  V30 380 O 43.0047 -1.32332 -1.42133 0
M  V30 381 C 40.1347 -2.65386 -2.24026 0
M  V30 382 C 39.0887 -3.78623 -1.99571 0
M  V30 383 C 38.4147 -4.17414 -3.3417 0
M  V30 384 C 39.7147 -5.04867 -1.33814 0
M  V30 385 H 41.4087 -2.9528 -0.494991 0
M  V30 386 H 38.9547 -1.42042 -0.236651 0
M  V30 387 H 40.9077 -3.02794 -2.93076 0
M  V30 388 H 39.6317 -1.80268 -2.72343 0
M  V30 389 H 38.2907 -3.41646 -1.32941 0
M  V30 390 H 37.9387 -3.29284 -3.80238 0
M  V30 391 H 37.6387 -4.93719 -3.18615 0
M  V30 392 H 39.1627 -4.57402 -4.04495 0
M  V30 393 H 40.5767 -5.39888 -1.92857 0
M  V30 394 H 38.9737 -5.86144 -1.28669 0
M  V30 395 H 40.0437 -4.83904 -0.310561 0
M  V30 396 N 41.3868 0.248026 -1.55636 0
M  V30 397 C 42.7978 0.817177 -1.67866 0
M  V30 398 C 43.1488 1.86069 -0.622322 0
M  V30 399 O 42.2738 2.15157 0.231618 0
M  V30 400 C 42.8688 1.489 -3.04326 0
M  V30 401 C 41.4278 2.00587 -3.185 0
M  V30 402 C 40.5748 0.856573 -2.63739 0
M  V30 403 H 43.5258 0.0238579 -1.58682 0
M  V30 404 H 43.5468 2.35698 -2.98708 0
M  V30 405 H 43.0588 0.729279 -3.81186 0
M  V30 406 H 41.1598 2.79443 -2.4646 0
M  V30 407 H 41.2728 2.20402 -4.25393 0
M  V30 408 H 39.6368 1.25678 -2.21534 0
M  V30 409 H 40.4198 0.109953 -3.43124 0
M  V30 410 N 42.8649 1.48995 0.513639 0
M  V30 411 C 43.8149 1.61127 1.61314 0
M  V30 412 C 44.7989 0.467521 1.53958 0
M  V30 413 O 45.9909 0.719826 1.61702 0
M  V30 414 C 43.1199 1.66937 2.99978 0
M  V30 415 C 42.2059 2.86847 3.12377 0
M  V30 416 N 42.5969 4.11078 2.94701 0
M  V30 417 C 40.8949 2.84521 3.43459 0
M  V30 418 C 41.5959 4.91615 3.10949 0
M  V30 419 N 40.5719 4.24739 3.3926 0
M  V30 420 H 44.3739 2.54909 1.46282 0
M  V30 421 H 41.8879 1.45593 0.719483 0
M  V30 422 H 43.8849 1.73725 3.78979 0
M  V30 423 H 42.5449 0.742831 3.16089 0
M  V30 424 H 43.5559 4.41258 2.71131 0
M  V30 425 H 40.2329 2.01192 3.65825 0
M  V30 426 H 41.6229 6.00264 3.01882 0
M  V30 427 N 44.343 -0.763751 1.37857 0
M  V30 428 C 45.754 -1.3405 1.29952 0
M  V30 429 C 46.105 -1.96138 -0.0492898 0
M  V30 430 O 45.23 -1.94372 -0.951239 0
M  V30 431 C 45.825 -2.43729 2.35333 0
M  V30 432 C 44.384 -2.97151 2.31037 0
M  V30 433 C 43.531 -1.70438 2.18738 0
M  V30 434 H 46.482 -0.563396 1.48363 0
M  V30 435 H 46.503 -3.23412 2.00462 0
M  V30 436 H 46.015 -1.9851 3.33489 0
M  V30 437 H 44.116 -3.46724 1.3643 0
M  V30 438 H 44.229 -3.52221 3.24772 0
M  V30 439 H 42.593 -1.93673 1.65418 0
M  V30 440 H 43.376 -1.27312 3.18821 0
M  V30 441 N 45.8211 -1.22559 -0.990812 0
M  V30 442 C 47.2321 -1.04791 -1.54518 0
M  V30 443 C 47.5831 0.387998 -1.92325 0
M  V30 444 O 46.7081 1.27328 -1.74976 0
M  V30 445 C 47.3031 -1.896 -2.80779 0
M  V30 446 C 45.8621 -1.76124 -3.32652 0
M  V30 447 C 45.0091 -1.8594 -2.05722 0
M  V30 448 H 47.9601 -1.36374 -0.811662 0
M  V30 449 H 47.9811 -1.41464 -3.53225 0
M  V30 450 H 47.4931 -2.94101 -2.53231 0
M  V30 451 H 45.5941 -0.743643 -3.65104 0
M  V30 452 H 45.7071 -2.58913 -4.03114 0
M  V30 453 H 44.0711 -1.29403 -2.19379 0
M  V30 454 H 44.8541 -2.91976 -1.80568 0
M  V30 455 N 47.2992 1.18797 -1.03562 0
M  V30 456 C 48.2622 2.20464 -0.626769 0
M  V30 457 C 49.2622 1.57721 0.313173 0
M  V30 458 O 50.4522 1.73917 0.0992615 0
M  V30 459 C 47.5842 3.40802 0.0818498 0
M  V30 460 H 48.7772 2.58149 -1.5264 0
M  V30 461 H 46.3302 1.32593 -0.827578 0
M  V30 462 H 47.0652 3.08642 0.995518 0
M  V30 463 H 46.8502 3.8758 -0.593652 0
M  V30 464 H 48.3402 4.16092 0.354584 0
M  V30 465 N 48.7773 0.814389 1.34928 0
M  V30 466 C 49.7093 0.187834 2.28429 0
M  V30 467 C 50.7223 -0.617374 1.5064 0
M  V30 468 O 51.9113 -0.448454 1.72775 0
M  V30 469 C 49.0113 -0.755962 3.30361 0
M  V30 470 C 48.1843 0.00456686 4.374 0
M  V30 471 C 47.2433 -0.858876 5.19143 0
M  V30 472 O 46.2693 -0.306968 5.68372 0
M  V30 473 N 47.4713 -2.17988 5.38016 0
M  V30 474 H 50.2363 0.991105 2.82838 0
M  V30 475 H 47.7973 0.670561 1.4736 0
M  V30 476 H 49.7893 -1.338 3.81942 0
M  V30 477 H 48.3593 -1.46001 2.7641 0
M  V30 478 H 47.5793 0.767865 3.86649 0
M  V30 479 H 48.8673 0.528422 5.06049 0
M  V30 480 H 48.2653 -2.65212 4.99679 0
M  V30 481 H 46.8223 -2.71098 5.92747 0
M  V30 482 N 50.2554 -1.46986 0.568584 0
M  V30 483 C 51.6664 -1.86188 0.138219 0
M  V30 484 C 52.0174 -1.47388 -1.29504 0
M  V30 485 O 51.1424 -0.88219 -1.97602 0
M  V30 486 C 51.7374 -3.3792 0.244065 0
M  V30 487 C 50.2964 -3.76171 -0.131335 0
M  V30 488 C 49.4434 -2.71027 0.586465 0
M  V30 489 H 52.3944 -1.38342 0.777645 0
M  V30 490 H 52.4154 -3.76729 -0.534351 0
M  V30 491 H 51.9274 -3.66128 1.28731 0
M  V30 492 H 50.0284 -3.5358 -1.17526 0
M  V30 493 H 50.1414 -4.78523 0.235146 0
M  V30 494 H 48.5054 -2.54684 0.0282722 0
M  V30 495 H 49.2884 -3.02077 1.63109 0
M  V30 496 N 51.7335 -0.305618 -1.54608 0
M  V30 497 C 53.1445 0.186098 -1.8577 0
M  V30 498 C 53.4955 1.53058 -1.22751 0
M  V30 499 O 52.6205 2.09888 -0.526893 0
M  V30 500 C 53.2155 0.344449 -3.37044 0
M  V30 501 C 51.7745 0.780384 -3.68221 0
M  V30 502 C 50.9215 -0.108554 -2.77087 0
M  V30 503 H 53.8725 -0.526485 -1.49712 0
M  V30 504 H 53.8935 1.17828 -3.61796 0
M  V30 505 H 53.4055 -0.634235 -3.82883 0
M  V30 506 H 51.5065 1.76945 -3.27904 0
M  V30 507 H 51.6195 0.596572 -4.75371 0
M  V30 508 H 49.9835 0.412931 -2.5133 0
M  V30 509 H 50.7665 -1.08368 -3.25747 0
M  V30 510 N 53.2116 1.57565 -0.0334293 0
M  V30 511 C 54.6226 1.79746 0.504798 0
M  V30 512 C 54.9736 0.944091 1.71992 0
M  V30 513 O 54.0986 0.155694 2.15839 0
M  V30 514 C 54.6936 3.25997 0.922567 0
M  V30 515 C 53.2526 3.49159 1.40588 0
M  V30 516 C 52.3996 2.74785 0.372633 0
M  V30 517 H 55.3506 1.56565 -0.259436 0
M  V30 518 H 55.3716 3.35945 1.78666 0
M  V30 519 H 54.8836 3.88081 0.0379825 0
M  V30 520 H 52.9846 2.92332 2.31025 0
M  V30 521 H 53.0976 4.57873 1.41028 0
M  V30 522 H 51.4616 2.40391 0.841672 0
M  V30 523 H 52.2446 3.39587 -0.503559 0
M  V30 524 N 54.6897 -0.239769 1.55765 0
M  V30 525 C 56.1007 -0.808263 1.68297 0
M  V30 526 C 56.4517 -1.85736 0.632181 0
M  V30 527 O 55.5767 -2.15277 -0.220204 0
M  V30 528 C 56.1717 -1.47284 3.05111 0
M  V30 529 C 54.7307 -1.98895 3.19559 0
M  V30 530 C 53.8777 -0.842575 2.64189 0
M  V30 531 H 56.8287 -0.0154422 1.58692 0
M  V30 532 H 56.8497 -2.34111 2.99954 0
M  V30 533 H 56.3617 -0.709053 3.81568 0
M  V30 534 H 54.4627 -2.78132 2.47938 0
M  V30 535 H 54.5757 -2.18143 4.26556 0
M  V30 536 H 52.9397 -1.24501 2.22197 0
M  V30 537 H 53.7227 -0.0917552 3.43177 0
M  V30 538 N 56.1678 -1.49265 -0.50573 0
M  V30 539 C 57.5788 -1.51769 -1.08734 0
M  V30 540 C 57.9298 -0.301192 -1.93874 0
M  V30 541 O 57.0548 0.589456 -2.08217 0
M  V30 542 C 57.6498 -2.75017 -1.97867 0
M  V30 543 C 56.2088 -2.80314 -2.51199 0
M  V30 544 C 55.3558 -2.4562 -1.28709 0
M  V30 545 H 58.3068 -1.56031 -0.289855 0
M  V30 546 H 58.3278 -2.5491 -2.82491 0
M  V30 547 H 57.8398 -3.63539 -1.35873 0
M  V30 548 H 55.9408 -1.96061 -3.16845 0
M  V30 549 H 56.0538 -3.82366 -2.88675 0
M  V30 550 H 54.4178 -1.97297 -1.61078 0
M  V30 551 H 55.2008 -3.36411 -0.6843 0
M  V30 552 N 57.6459 0.756429 -1.3826 0
M  V30 553 C 59.0569 1.33359 -1.30661 0
M  V30 554 C 59.4079 1.96161 0.0388875 0
M  V30 555 O 58.5329 1.94874 0.940918 0
M  V30 556 C 59.1279 2.42477 -2.36622 0
M  V30 557 C 57.6869 2.95922 -2.3261 0
M  V30 558 C 56.8339 1.69275 -2.19639 0
M  V30 559 H 59.7849 0.55552 -1.4866 0
M  V30 560 H 59.8059 3.22345 -2.02174 0
M  V30 561 H 59.3179 1.96739 -3.34538 0
M  V30 562 H 57.4189 3.45996 -1.38267 0
M  V30 563 H 57.5319 3.50494 -3.26636 0
M  V30 564 H 55.8959 1.92793 -1.66442 0
M  V30 565 H 56.6789 1.25619 -3.19491 0
M  V30 566 N 59.124 1.23083 0.984299 0
M  V30 567 C 60.056 0.96636 2.07832 0
M  V30 568 C 61.069 -0.0582135 1.62696 0
M  V30 569 O 62.258 0.176843 1.77622 0
M  V30 570 C 59.358 0.433397 3.36117 0
M  V30 571 C 58.531 1.51722 4.10243 0
M  V30 572 C 57.59 0.989821 5.16807 0
M  V30 573 O 56.616 1.67794 5.43906 0
M  V30 574 N 57.818 -0.184367 5.80207 0
M  V30 575 H 60.583 1.90824 2.31098 0
M  V30 576 H 58.144 1.13888 1.1507 0
M  V30 577 H 60.136 0.065699 4.04647 0
M  V30 578 H 58.706 -0.413806 3.09849 0
M  V30 579 H 57.926 2.05786 3.36223 0
M  V30 580 H 59.214 2.24619 4.56534 0
M  V30 581 H 58.612 -0.760062 5.60571 0
M  V30 582 H 57.169 -0.493366 6.4993 0
M  V30 583 N 60.6021 -1.18246 1.0419 0
M  V30 584 C 61.5341 -2.2142 0.592088 0
M  V30 585 C 62.5471 -1.59233 -0.338909 0
M  V30 586 O 63.7361 -1.78002 -0.133231 0
M  V30 587 C 60.8361 -3.38546 -0.154854 0
M  V30 588 C 60.0091 -4.3031 0.784328 0
M  V30 589 C 59.0681 -5.26138 0.0804583 0
M  V30 590 O 58.0941 -5.64738 0.711292 0
M  V30 591 N 59.2961 -5.68261 -1.18574 0
M  V30 592 H 62.0611 -2.60636 1.47949 0
M  V30 593 H 59.6221 -1.33044 0.922544 0
M  V30 594 H 61.6141 -3.99678 -0.635606 0
M  V30 595 H 60.1841 -2.98012 -0.943811 0
M  V30 596 H 59.4041 -3.66764 1.44491 0
M  V30 597 H 60.6921 -4.8852 1.42218 0
M  V30 598 H 60.0901 -5.38957 -1.71876 0
M  V30 599 H 58.6471 -6.31584 -1.61074 0
M  V30 600 N 62.0802 -0.821533 -1.34494 0
M  V30 601 C 63.3272 -0.408946 -1.98328 0
M  V30 602 C 63.6552 1.02764 -1.65136 0
M  V30 603 O 62.9102 1.73026 -0.914349 0
M  V30 604 C 63.2092 -0.556512 -3.53041 0
M  V30 605 C 62.8752 -1.95861 -4.0614 0
M  V30 606 C 61.5372 -2.34217 -4.20352 0
M  V30 607 C 63.8892 -2.87523 -4.34718 0
M  V30 608 C 61.2172 -3.63572 -4.6047 0
M  V30 609 C 63.5692 -4.1634 -4.76281 0
M  V30 610 C 62.2332 -4.54675 -4.88699 0
M  V30 611 H 61.5032 -0.149644 -0.725732 0
M  V30 612 H 64.1502 -1.04521 -1.6046 0
M  V30 613 H 62.4552 0.163148 -3.9146 0
M  V30 614 H 64.1522 -0.217826 -4.00408 0
M  V30 615 H 60.7422 -1.65066 -3.95539 0
M  V30 616 H 64.9262 -2.59133 -4.23277 0
M  V30 617 H 60.1822 -3.93101 -4.68275 0
M  V30 618 H 64.3562 -4.87455 -4.97354 0
M  V30 619 H 61.9832 -5.54959 -5.19542 0
M  V30 620 N 63.5583 1.46682 -0.576371 0
M  V30 621 C 64.9693 1.86112 -0.148091 0
M  V30 622 C 65.3203 1.48073 1.2872 0
M  V30 623 O 64.4453 0.892656 1.97131 0
M  V30 624 C 65.0403 3.37786 -0.261982 0
M  V30 625 C 63.5993 3.76235 0.111384 0
M  V30 626 C 62.7463 2.70713 -0.60083 0
M  V30 627 H 65.6973 1.37927 -0.78497 0
M  V30 628 H 65.7183 3.77007 0.514364 0
M  V30 629 H 65.2303 3.6544 -1.30671 0
M  V30 630 H 63.3313 3.54198 1.15649 0
M  V30 631 H 63.4443 4.78391 -0.26052 0
M  V30 632 H 61.8083 2.54666 -0.0417783 0
M  V30 633 H 62.5913 3.01208 -1.64708 0
M  V30 634 N 65.0364 0.313813 1.54444 0
M  V30 635 C 65.9684 -0.590425 2.21465 0
M  V30 636 C 66.9814 -1.08753 1.21147 0
M  V30 637 O 68.1704 -1.00278 1.4767 0
M  V30 638 C 65.2704 -1.82179 2.85769 0
M  V30 639 C 64.4434 -1.46502 4.12136 0
M  V30 640 C 63.5024 -2.55288 4.60124 0
M  V30 641 O 62.5284 -2.19842 5.25032 0
M  V30 642 N 63.7304 -3.86053 4.33525 0
M  V30 643 H 66.4954 -0.0166033 2.99695 0
M  V30 644 H 64.0564 0.136578 1.61323 0
M  V30 645 H 66.0484 -2.54328 3.14801 0
M  V30 646 H 64.6184 -2.30369 2.11303 0
M  V30 647 H 63.8384 -0.575595 3.89975 0
M  V30 648 H 65.1264 -1.20221 4.94393 0
M  V30 649 H 64.5244 -4.17654 3.81552 0
M  V30 650 H 63.0814 -4.54461 4.67235 0
M  V30 651 N 66.5145 -1.57545 0.0417849 0
M  V30 652 C 67.7615 -1.92317 -0.634082 0
M  V30 653 C 68.0895 -0.919334 -1.71402 0
M  V30 654 O 67.3445 0.0698253 -1.95575 0
M  V30 655 C 67.6435 -3.33794 -1.27735 0
M  V30 656 C 67.3095 -4.49716 -0.326543 0
M  V30 657 C 65.9715 -4.81156 -0.0648814 0
M  V30 658 C 68.3235 -5.20182 0.325623 0
M  V30 659 C 65.6515 -5.80414 0.856539 0
M  V30 660 C 68.0035 -6.20424 1.23518 0
M  V30 661 C 66.6675 -6.50298 1.5056 0
M  V30 662 H 65.9375 -0.703736 -0.232027 0
M  V30 663 H 68.5845 -1.91205 0.106259 0
M  V30 664 H 66.8895 -3.31228 -2.09274 0
M  V30 665 H 68.5865 -3.57975 -1.80707 0
M  V30 666 H 65.1765 -4.25176 -0.540665 0
M  V30 667 H 69.3605 -4.96112 0.136546 0
M  V30 668 H 64.6165 -6.019 1.07363 0
M  V30 669 H 68.7905 -6.74141 1.74664 0
M  V30 670 H 66.4175 -7.27025 2.22123 0
M  V30 671 N 67.9926 0.231505 -1.5589 0
M  V30 672 C 68.9426 1.29007 -1.87993 0
M  V30 673 C 69.9266 1.42764 -0.742102 0
M  V30 674 O 71.1186 1.45747 -1.00433 0
M  V30 675 C 68.2476 2.6425 -2.1915 0
M  V30 676 C 67.3336 2.54435 -3.39299 0
M  V30 677 N 67.7246 2.14262 -4.58176 0
M  V30 678 C 66.0226 2.85416 -3.42715 0
M  V30 679 C 66.7236 2.15455 -5.40328 0
M  V30 680 N 65.6996 2.55558 -4.79783 0
M  V30 681 H 69.5016 0.970213 -2.77424 0
M  V30 682 H 67.0156 0.440097 -1.56323 0
M  V30 683 H 69.0126 3.40665 -2.40319 0
M  V30 684 H 67.6726 2.9709 -1.31025 0
M  V30 685 H 68.6836 1.85554 -4.83518 0
M  V30 686 H 65.3606 3.22693 -2.64906 0
M  V30 687 H 66.7506 1.86605 -6.45467 0
M  V30 688 N 69.4707 1.49531 0.497807 0
M  V30 689 C 70.7167 1.59415 1.25358 0
M  V30 690 C 71.0497 0.281422 1.9215 0
M  V30 691 O 70.3247 -0.715249 1.80871 0
M  V30 692 C 70.6077 2.75566 2.3181 0
M  V30 693 C 70.4607 4.16642 1.69498 0
M  V30 694 C 71.7797 2.87347 3.33346 0
M  V30 695 H 68.8987 0.580244 0.454408 0
M  V30 696 H 71.5407 1.81827 0.551262 0
M  V30 697 H 69.6907 2.56587 2.91711 0
M  V30 698 H 71.3627 4.47145 1.13399 0
M  V30 699 H 69.6057 4.22141 0.998978 0
M  V30 700 H 70.2767 4.93792 2.46725 0
M  V30 701 H 72.7527 3.04634 2.83438 0
M  V30 702 H 71.6287 3.70289 4.05188 0
M  V30 703 H 71.8897 1.96834 3.95865 0
M  V30 704 N 70.9488 -0.749086 1.3866 0
M  V30 705 C 71.8958 -1.86291 1.36251 0
M  V30 706 C 72.8658 -1.64578 0.224347 0
M  V30 707 O 74.0508 -1.86181 0.417279 0
M  V30 708 C 71.1908 -3.23644 1.19786 0
M  V30 709 C 70.3038 -3.57158 2.43027 0
M  V30 710 C 69.4388 -4.83838 2.19258 0
M  V30 711 C 68.4778 -5.10152 3.38247 0
M  V30 712 N 67.6148 -6.28029 3.13884 0
M  V30 713 H 72.4548 -1.87685 2.3147 0
M  V30 714 H 69.9918 -0.917287 1.14997 0
M  V30 715 H 71.9498 -4.0291 1.08254 0
M  V30 716 H 70.5798 -3.21566 0.282031 0
M  V30 717 H 69.6318 -2.72701 2.65214 0
M  V30 718 H 70.9438 -3.7253 3.31697 0
M  V30 719 H 70.0978 -5.71057 2.04888 0
M  V30 720 H 68.8368 -4.70614 1.2796 0
M  V30 721 H 67.8418 -4.21401 3.53131 0
M  V30 722 H 69.0668 -5.25271 4.30427 0
M  V30 723 H 67.0128 -6.1612 2.25238 0
M  V30 724 H 66.9298 -6.43922 3.96106 0
M  V30 725 H 68.1978 -7.18124 3.03179 0
M  V30 726 N 72.4269 -1.23603 -0.977757 0
M  V30 727 C 73.6519 -1.09735 -1.75991 0
M  V30 728 C 74.0769 0.346858 -1.84874 0
M  V30 729 O 73.4349 1.25093 -1.3123 0
M  V30 730 C 73.4829 -1.73051 -3.16363 0
M  V30 731 O 72.5869 -0.994452 -4.0023 0
M  V30 732 H 71.9279 -0.384476 -0.541364 0
M  V30 733 H 74.4579 -1.6371 -1.2272 0
M  V30 734 H 74.4679 -1.78398 -3.66931 0
M  V30 735 H 73.1429 -2.78137 -3.09213 0
M  V30 736 H 71.7199 -1.01812 -3.58732 0
M  V30 737 N 73.905 1.17692 -1.04816 0
M  V30 738 C 75.153 1.87488 -0.754497 0
M  V30 739 C 75.474 1.81205 0.720407 0
M  V30 740 O 74.744 1.23544 1.52032 0
M  V30 741 H 73.324 0.694101 -0.276102 0
M  V30 742 H 75.986 1.42793 -1.32651 0
M  V30 743 H 75.082 2.93328 -1.06606 0
M  V30 744 N 75.3831 0.828654 1.34056 0
M  V30 745 C 76.3131 0.269443 2.3194 0
M  V30 746 C 77.2941 -0.617247 1.58506 0
M  V30 747 O 78.4791 -0.542931 1.86456 0
M  V30 748 C 75.6091 -0.564793 3.42677 0
M  V30 749 C 74.5631 0.225241 4.27407 0
M  V30 750 C 73.8891 -0.7321 5.29664 0
M  V30 751 C 75.1891 1.43663 5.02154 0
M  V30 752 H 76.8831 1.08728 2.7896 0
M  V30 753 H 74.4291 0.524283 1.34117 0
M  V30 754 H 76.3821 -0.966233 4.10173 0
M  V30 755 H 75.1061 -1.41574 2.9432 0
M  V30 756 H 73.7651 0.608117 3.61521 0
M  V30 757 H 73.4131 -1.57916 4.77568 0
M  V30 758 H 73.1131 -0.20767 5.87233 0
M  V30 759 H 74.6371 -1.13128 6.00029 0
M  V30 760 H 76.0511 1.1089 5.62473 0
M  V30 761 H 74.4481 1.89711 5.69324 0
M  V30 762 H 75.5181 2.21181 4.31517 0
M  V30 763 N 76.8612 -1.46375 0.584142 0
M  V30 764 C 77.7932 -2.28443 -0.186119 0
M  V30 765 C 78.8062 -1.38596 -0.854115 0
M  V30 766 O 79.9952 -1.63183 -0.723438 0
M  V30 767 C 77.0952 -3.13671 -1.28311 0
M  V30 768 C 76.2682 -4.31652 -0.706758 0
M  V30 769 C 75.3272 -4.98267 -1.69163 0
M  V30 770 O 74.3532 -5.55815 -1.22712 0
M  V30 771 N 75.5552 -4.95408 -3.02575 0
M  V30 772 H 78.3202 -2.9519 0.517986 0
M  V30 773 H 75.8812 -1.56303 0.42201 0
M  V30 774 H 77.8732 -3.55101 -1.94128 0
M  V30 775 H 76.4432 -2.48989 -1.89005 0
M  V30 776 H 75.6632 -3.93989 0.128908 0
M  V30 777 H 76.9512 -5.07906 -0.301506 0
M  V30 778 H 76.3492 -4.49902 -3.42936 0
M  V30 779 H 74.9062 -5.40774 -3.63877 0
M  V30 780 N 78.3393 -0.321999 -1.54275 0
M  V30 781 C 79.5883 0.281931 -1.9972 0
M  V30 782 C 79.9013 1.53369 -1.21397 0
M  V30 783 O 81.1073 2.21352 -1.57211 0
M  V30 784 C 79.5633 0.5529 -3.55628 0
M  V30 785 C 79.1713 -0.681721 -4.42783 0
M  V30 786 C 80.9153 1.11687 -4.09544 0
M  V30 787 C 78.8223 -0.382742 -5.9016 0
M  V30 788 H 77.7523 0.109124 -0.746062 0
M  V30 789 H 80.4033 -0.43398 -1.78294 0
M  V30 790 H 78.7853 1.32896 -3.73035 0
M  V30 791 H 79.9593 -1.45723 -4.37151 0
M  V30 792 H 78.2743 -1.1658 -3.99748 0
M  V30 793 H 80.8713 1.35515 -5.17242 0
M  V30 794 H 81.2143 2.06575 -3.61431 0
M  V30 795 H 81.7473 0.402032 -3.95763 0
M  V30 796 H 78.4863 -1.30076 -6.42464 0
M  V30 797 H 78.0063 0.355094 -5.98748 0
M  V30 798 H 79.6853 0.00800157 -6.47 0
M  V30 799 N 79.8174 1.5752 -0.0501392 0
M  V30 800 C 80.7644 2.1147 0.924603 0
M  V30 801 C 81.7344 1.02182 1.30951 0
M  V30 802 O 82.9194 1.29723 1.39916 0
M  V30 803 C 80.0594 2.66337 2.19451 0
M  V30 804 C 79.1724 3.89708 1.86418 0
M  V30 805 C 78.3074 4.32893 3.07859 0
M  V30 806 C 77.3464 5.48967 2.70742 0
M  V30 807 N 76.4834 5.87211 3.84874 0
M  V30 808 H 81.3234 2.94465 0.457639 0
M  V30 809 H 78.8604 1.45531 0.214266 0
M  V30 810 H 80.8184 2.96247 2.93758 0
M  V30 811 H 79.4484 1.86141 2.63726 0
M  V30 812 H 78.5004 3.66396 1.02264 0
M  V30 813 H 79.8124 4.74074 1.55096 0
M  V30 814 H 78.9664 4.6435 3.90466 0
M  V30 815 H 77.7054 3.47336 3.42358 0
M  V30 816 H 76.7104 5.17183 1.86551 0
M  V30 817 H 77.9354 6.3624 2.37436 0
M  V30 818 H 75.8814 5.04607 4.19175 0
M  V30 819 H 75.7984 6.66266 3.57247 0
M  V30 820 H 77.0664 6.23282 4.68123 0
M  V30 821 N 81.2955 -0.223234 1.56011 0
M  V30 822 C 82.2425 -1.27664 1.92277 0
M  V30 823 C 83.2125 -1.46659 0.779763 0
M  V30 824 O 84.3975 -1.60256 1.03551 0
M  V30 825 C 81.5375 -2.62234 2.24338 0
M  V30 826 C 80.6505 -2.51051 3.51564 0
M  V30 827 C 79.7855 -3.78133 3.7308 0
M  V30 828 C 78.8245 -3.61665 4.93827 0
M  V30 829 N 77.9615 -4.80693 5.11741 0
M  V30 830 H 82.8015 -0.960358 2.82101 0
M  V30 831 H 80.3385 -0.462901 1.39627 0
M  V30 832 H 82.2965 -3.40596 2.40936 0
M  V30 833 H 80.9265 -2.91961 1.3769 0
M  V30 834 H 79.9785 -1.64132 3.43169 0
M  V30 835 H 81.2905 -2.34803 4.40079 0
M  V30 836 H 80.4445 -4.64938 3.89766 0
M  V30 837 H 79.1835 -3.97304 2.82844 0
M  V30 838 H 78.1885 -2.73244 4.77093 0
M  V30 839 H 79.4135 -3.43966 5.85546 0
M  V30 840 H 77.3595 -5.00181 4.24446 0
M  V30 841 H 77.2765 -4.67165 5.94384 0
M  V30 842 H 78.5445 -5.6893 5.3286 0
M  V30 843 N 82.7736 -1.49793 -0.48987 0
M  V30 844 C 83.7216 -1.67783 -1.61095 0
M  V30 845 C 84.7156 -0.543683 -1.60438 0
M  V30 846 O 85.9216 -0.723647 -1.64813 0
M  V30 847 H 82.2966 -0.529255 -0.534222 0
M  V30 848 H 84.2676 -2.61861 -1.43078 0
M  V30 849 C 83.0166 -1.77191 -2.99164 0
M  V30 850 H 82.3396 -2.63841 -3.0038 0
M  V30 851 H 83.7796 -1.93809 -3.77113 0
M  V30 852 C 82.2386 -0.519203 -3.32875 0
M  V30 853 O 82.7686 0.350124 -4.00171 0
M  V30 854 N 80.9746 -0.378816 -2.8812 0
M  V30 855 H 80.5216 -1.08725 -2.33531 0
M  V30 856 H 80.4796 0.458239 -3.11043 0
M  V30 857 N 84.2517 0.741722 -1.39055 0
M  V30 858 C 85.2147 1.83733 -1.37021 0
M  V30 859 C 86.2147 1.58542 -0.268534 0
M  V30 860 O 87.4047 1.66067 -0.526076 0
M  V30 861 C 84.5367 3.2141 -1.13617 0
M  V30 862 H 85.7297 1.86941 -2.34506 0
M  V30 863 H 83.2827 0.944676 -1.24521 0
M  V30 864 H 84.0177 3.23865 -0.167863 0
M  V30 865 H 83.8027 3.4109 -1.93391 0
M  V30 866 H 85.2927 4.01477 -1.14918 0
M  V30 867 N 85.7298 1.2412 0.971189 0
M  V30 868 C 86.9788 1.07284 1.70801 0
M  V30 869 C 87.2918 -0.388902 1.91695 0
M  V30 870 O 88.4978 -0.677379 2.62914 0
M  V30 871 C 86.9538 1.87145 3.07416 0
M  V30 872 C 86.5618 3.37707 2.94377 0
M  V30 873 C 88.3058 1.78828 3.84995 0
M  V30 874 C 86.2128 4.09925 4.26281 0
M  V30 875 H 85.1428 0.397854 0.64049 0
M  V30 876 H 87.7938 1.4817 1.0825 0
M  V30 877 H 86.1758 1.39071 3.70777 0
M  V30 878 H 87.3498 3.93335 2.4005 0
M  V30 879 H 85.6648 3.46938 2.30267 0
M  V30 880 H 88.2618 2.30089 4.82662 0
M  V30 881 H 88.6048 0.75284 4.09436 0
M  V30 882 H 89.1378 2.24563 3.28354 0
M  V30 883 H 85.8768 5.13813 4.07033 0
M  V30 884 H 85.3968 3.59083 4.80437 0
M  V30 885 H 87.0758 4.1673 4.94919 0
M  V30 886 N 87.2079 -1.17134 1.05439 0
M  V30 887 C 88.4569 -1.86791 0.761049 0
M  V30 888 C 88.7699 -1.82072 -0.714795 0
M  V30 889 O 89.9759 -2.47223 -1.12218 0
M  V30 890 C 88.4319 -3.35166 1.31117 0
M  V30 891 C 88.0399 -3.48381 2.81664 0
M  V30 892 C 89.7839 -4.10134 1.09499 0
M  V30 893 C 87.6909 -4.90793 3.29964 0
M  V30 894 H 86.6209 -0.699681 0.281002 0
M  V30 895 H 89.2719 -1.3226 1.27199 0
M  V30 896 H 87.6539 -3.8925 0.72803 0
M  V30 897 H 88.8279 -3.04502 3.45855 0
M  V30 898 H 87.1429 -2.86836 3.01851 0
M  V30 899 H 89.7399 -5.152 1.43084 0
M  V30 900 H 90.0829 -4.16287 0.0328772 0
M  V30 901 H 90.6159 -3.62264 1.64346 0
M  V30 902 H 87.3549 -4.89816 4.35616 0
M  V30 903 H 86.8749 -5.35333 2.70516 0
M  V30 904 H 88.5539 -5.59573 3.24787 0
M  V30 905 N 88.686 -0.835752 -1.33615 0
M  V30 906 C 89.963 -0.352017 -1.92406 0
M  V30 907 C 90.343 1.16225 -1.76224 0
M  V30 908 O 89.691 1.97526 -1.14873 0
M  V30 909 C 89.901 -0.795485 -3.39813 0
M  V30 910 C 91.249 -0.801703 -4.16963 0
M  V30 911 O 92.273 -0.738889 -3.48452 0
M  V30 912 O 91.132 -0.886607 -5.3926 0
M  V30 913 H 88.226 -0.0989641 -0.821057 0
M  V30 914 H 90.772 -0.921397 -1.42507 0
M  V30 915 H 89.544 -1.83795 -3.45449 0
M  V30 916 H 89.167 -0.202505 -3.97084 0
M  V30 917 N 90.1641 1.46063 -0.591896 0
M  V30 918 C 91.4411 1.95595 -0.0137119 0
M  V30 919 C 91.8211 1.5345 1.4497 0
M  V30 920 O 91.1691 0.789543 2.14426 0
M  V30 921 C 91.3791 3.48453 -0.195373 0
M  V30 922 C 92.7271 4.24546 -0.0679765 0
M  V30 923 O 93.7511 3.55982 -0.124681 0
M  V30 924 O 92.6101 5.46467 0.0600579 0
M  V30 925 H 89.7041 0.825795 0.0446279 0
M  V30 926 H 92.2501 1.56303 -0.660859 0
M  V30 927 H 91.0221 3.72045 -1.21235 0
M  V30 928 H 90.6451 3.94597 0.487775 0
M  V30 929 N 91.6422 0.330177 1.54103 0
M  V30 930 C 92.8722 -0.271784 2.04805 0
M  V30 931 C 93.2802 -1.45816 1.20559 0
M  V30 932 O 92.6232 -1.82247 0.2306 0
M  V30 933 C 92.6852 -0.763238 3.51305 0
M  V30 934 C 92.3492 0.301705 4.56003 0
M  V30 935 C 93.3462 1.13999 5.07248 0
M  V30 936 C 91.0312 0.451793 5.00264 0
M  V30 937 C 93.0252 2.11402 6.01322 0
M  V30 938 C 90.7122 1.42924 5.94151 0
M  V30 939 C 91.7102 2.25882 6.44567 0
M  V30 940 O 91.3982 3.21965 7.3661 0
M  V30 941 H 91.1302 -0.058693 0.673447 0
M  V30 942 H 93.6842 0.476395 1.99799 0
M  V30 943 H 91.9142 -1.56244 3.5373 0
M  V30 944 H 93.6032 -1.28427 3.85047 0
M  V30 945 H 94.3692 1.03505 4.73827 0
M  V30 946 H 90.2482 -0.184044 4.60632 0
M  V30 947 H 93.7922 2.76192 6.40596 0
M  V30 948 H 89.6892 1.53479 6.26988 0
M  V30 949 H 90.4572 3.17281 7.54503 0
M  V30 950 N 93.1203 -1.57491 0.0584922 0
M  V30 951 C 94.0673 -2.11958 -0.913376 0
M  V30 952 C 95.0373 -1.02875 -1.30407 0
M  V30 953 O 96.2223 -1.30464 -1.39226 0
M  V30 954 C 93.3623 -2.67497 -2.18035 0
M  V30 955 C 92.4753 -3.90691 -1.84349 0
M  V30 956 C 91.6103 -4.3452 -3.05559 0
M  V30 957 C 90.6493 -5.50395 -2.67827 0
M  V30 958 N 89.7863 -5.89244 -3.81754 0
M  V30 959 H 94.6263 -2.94704 -0.442017 0
M  V30 960 H 92.1633 -1.45643 -0.206545 0
M  V30 961 H 94.1213 -2.978 -2.92183 0
M  V30 962 H 92.7513 -1.87537 -2.62735 0
M  V30 963 H 91.8033 -3.66934 -1.00319 0
M  V30 964 H 93.1153 -4.7489 -1.5258 0
M  V30 965 H 92.2693 -4.66414 -3.87998 0
M  V30 966 H 91.0083 -3.49147 -3.40511 0
M  V30 967 H 90.0133 -5.18165 -1.83806 0
M  V30 968 H 91.2383 -6.3749 -2.34059 0
M  V30 969 H 89.1843 -5.06823 -4.16493 0
M  V30 970 H 89.1013 -6.68151 -3.53708 0
M  V30 971 H 90.3693 -6.25756 -4.64811 0
M  V30 972 N 94.5984 0.214957 -1.56127 0
M  V30 973 C 95.8444 0.939762 -1.79712 0
M  V30 974 C 96.1774 1.83723 -0.629247 0
M  V30 975 O 95.4524 1.90925 0.371197 0
M  V30 976 C 95.7354 1.77306 -3.13424 0
M  V30 977 C 95.5884 0.90164 -4.40671 0
M  V30 978 C 96.9074 2.74956 -3.43638 0
M  V30 979 H 94.0264 0.340214 -0.653776 0
M  V30 980 H 96.6684 0.20824 -1.88855 0
M  V30 981 H 94.8184 2.39673 -3.0576 0
M  V30 982 H 96.4904 0.294206 -4.60361 0
M  V30 983 H 94.7334 0.207368 -4.33304 0
M  V30 984 H 95.4044 1.51923 -5.30682 0
M  V30 985 H 97.8804 2.22724 -3.51473 0
M  V30 986 H 96.7564 3.30358 -4.38355 0
M  V30 987 H 97.0174 3.53023 -2.66134 0
M  V30 988 N 96.0765 1.50051 0.48192 0
M  V30 989 C 97.3045 1.64237 1.25832 0
M  V30 990 C 97.7195 0.321336 1.86045 0
M  V30 991 O 97.0765 -0.695478 1.68729 0
M  V30 992 C 97.1275 2.72548 2.37487 0
M  V30 993 O 96.8485 3.99529 1.79745 0
M  V30 994 C 98.3495 2.9761 3.28547 0
M  V30 995 H 95.5695 0.55237 0.380957 0
M  V30 996 H 98.1135 1.96207 0.576467 0
M  V30 997 H 96.2685 2.43303 3.01467 0
M  V30 998 H 96.6825 4.59342 2.5319 0
M  V30 999 H 98.1565 3.77084 4.03127 0
M  V30 1000 H 98.6335 2.0826 3.86684 0
M  V30 1001 H 99.2395 3.28345 2.70314 0
M  V30 1002 N 97.5546 -0.734337 1.39446 0
M  V30 1003 C 98.7796 -1.52866 1.40167 0
M  V30 1004 C 99.2046 -1.881 -0.00171513 0
M  V30 1005 O 98.5626 -1.51957 -0.988879 0
M  V30 1006 C 98.6106 -2.79235 2.28167 0
M  V30 1007 O 97.7146 -3.75185 1.71201 0
M  V30 1008 H 97.0556 -0.461618 0.477289 0
M  V30 1009 H 99.5856 -0.905949 1.8345 0
M  V30 1010 H 99.5956 -3.27963 2.42702 0
M  V30 1011 H 98.2706 -2.52923 3.30156 0
M  V30 1012 H 96.8476 -3.33958 1.65912 0
M  V30 1013 N 99.0327 -1.24633 -0.964593 0
M  V30 1014 C 99.9647 -0.999302 -2.06268 0
M  V30 1015 C 100.978 0.0323226 -1.62768 0
M  V30 1016 O 102.167 -0.205079 -1.77318 0
M  V30 1017 C 99.2667 -0.486816 -3.35385 0
M  V30 1018 C 98.4397 -1.5823 -4.07777 0
M  V30 1019 C 97.4987 -1.07191 -5.15166 0
M  V30 1020 O 96.5247 -1.76426 -5.41168 0
M  V30 1021 N 97.7267 0.0920373 -5.80427 0
M  V30 1022 H 100.492 -1.94477 -2.28033 0
M  V30 1023 H 98.0527 -1.15704 -1.13244 0
M  V30 1024 H 100.045 -0.130066 -4.04491 0
M  V30 1025 H 98.6147 0.364459 -3.10468 0
M  V30 1026 H 97.8347 -2.11109 -3.32906 0
M  V30 1027 H 99.1227 -2.31854 -4.52903 0
M  V30 1028 H 98.5207 0.670784 -5.61709 0
M  V30 1029 H 97.0777 0.389905 -6.50633 0
M  V30 1030 N 100.511 1.16574 -1.06058 0
M  V30 1031 C 101.757 1.87324 -0.777022 0
M  V30 1032 C 102.09 1.81351 0.694645 0
M  V30 1033 O 101.365 1.22753 1.50871 0
M  V30 1034 C 101.648 3.36991 -1.26922 0
M  V30 1035 C 101.501 3.51667 -2.80447 0
M  V30 1036 C 102.82 4.3131 -0.87521 0
M  V30 1037 H 99.9388 0.680191 -0.28374 0
M  V30 1038 H 102.581 1.37036 -1.3161 0
M  V30 1039 H 100.731 3.79949 -0.81063 0
M  V30 1040 H 102.403 3.17664 -3.34495 0
M  V30 1041 H 100.646 2.93656 -3.19294 0
M  V30 1042 H 101.317 4.56766 -3.0995 0
M  V30 1043 H 103.793 3.9624 -1.27014 0
M  V30 1044 H 102.669 5.34545 -1.2471 0
M  V30 1045 H 102.93 4.41552 0.220071 0
M  V30 1046 N 101.989 0.842826 1.3317 0
M  V30 1047 C 102.919 0.294028 2.31641 0
M  V30 1048 C 103.9 -0.600401 1.59151 0
M  V30 1049 O 105.085 -0.523124 1.87022 0
M  V30 1050 C 102.215 -0.528416 3.43257 0
M  V30 1051 C 101.169 0.27056 4.27144 0
M  V30 1052 C 100.495 -0.675881 5.30411 0
M  V30 1053 C 101.795 1.48981 5.00602 0
M  V30 1054 H 103.489 1.11681 2.77791 0
M  V30 1055 H 101.035 0.538478 1.33553 0
M  V30 1056 H 102.988 -0.922674 4.11175 0
M  V30 1057 H 101.712 -1.38445 2.95805 0
M  V30 1058 H 100.371 0.646427 3.60856 0
M  V30 1059 H 100.019 -1.52842 4.79216 0
M  V30 1060 H 99.7189 -0.145374 5.8742 0
M  V30 1061 H 101.243 -1.06757 6.01195 0
M  V30 1062 H 102.657 1.16849 5.61266 0
M  V30 1063 H 101.054 1.95739 5.6728 0
M  V30 1064 H 102.124 2.25746 4.29147 0
M  V30 1065 N 103.467 -1.45747 0.599634 0
M  V30 1066 C 104.715 -2.01893 0.0915472 0
M  V30 1067 C 105.036 -1.47155 -1.27946 0
M  V30 1068 O 104.306 -0.66273 -1.84349 0
M  V30 1069 H 102.886 -0.746363 0.0308524 0
M  V30 1070 H 105.548 -1.78645 0.779237 0
M  V30 1071 H 104.644 -3.1208 0.0353086 0
M  V30 1072 N 104.945 -0.338344 -1.53925 0
M  V30 1073 C 105.875 0.51328 -2.27789 0
M  V30 1074 C 106.856 1.107 -1.29149 0
M  V30 1075 O 108.041 1.12937 -1.57984 0
M  V30 1076 C 105.171 1.66697 -3.04679 0
M  V30 1077 C 104.125 1.20183 -4.1078 0
M  V30 1078 C 103.451 2.44363 -4.75595 0
M  V30 1079 C 104.751 0.30605 -5.21403 0
M  V30 1080 H 106.445 -0.102883 -2.99223 0
M  V30 1081 H 103.991 -0.0509219 -1.4391 0
M  V30 1082 H 105.944 2.26915 -3.55088 0
M  V30 1083 H 104.668 2.30995 -2.30887 0
M  V30 1084 H 103.327 0.622499 -3.61276 0
M  V30 1085 H 102.975 3.07057 -3.98403 0
M  V30 1086 H 102.675 2.13925 -5.47275 0
M  V30 1087 H 104.199 3.05317 -5.28786 0
M  V30 1088 H 105.613 0.814929 -5.67478 0
M  V30 1089 H 104.01 0.0937929 -6.00027 0
M  V30 1090 H 105.08 -0.65921 -4.80398 0
M  V30 1091 N 106.423 1.57458 -0.0668435 0
M  V30 1092 C 107.671 1.92919 0.602214 0
M  V30 1093 C 107.992 0.947215 1.70449 0
M  V30 1094 O 107.262 -0.00544117 1.95899 0
M  V30 1095 H 105.842 0.71217 0.22544 0
M  V30 1096 H 108.504 1.94508 -0.123535 0
M  V30 1097 H 107.6 2.94589 1.03073 0
M  V30 1098 N 107.901 -0.206675 1.56239 0
M  V30 1099 C 109.15 -0.926964 1.79138 0
M  V30 1100 C 109.463 -1.84901 0.638043 0
M  V30 1101 O 110.669 -2.60906 0.751033 0
M  V30 1102 C 109.125 -1.6986 3.17294 0
M  V30 1103 C 108.733 -0.821956 4.40395 0
M  V30 1104 C 110.477 -2.40922 3.4951 0
M  V30 1105 C 108.384 -1.59179 5.69575 0
M  V30 1106 H 107.314 -0.349864 0.667915 0
M  V30 1107 H 109.965 -0.180487 1.8261 0
M  V30 1108 H 108.347 -2.48853 3.08039 0
M  V30 1109 H 109.521 -0.0715019 4.60745 0
M  V30 1110 H 107.836 -0.222741 4.15804 0
M  V30 1111 H 110.433 -2.99047 4.43255 0
M  V30 1112 H 110.776 -3.14542 2.72707 0
M  V30 1113 H 111.309 -1.68905 3.60161 0
M  V30 1114 H 108.048 -0.898589 6.49312 0
M  V30 1115 H 107.568 -2.31648 5.53262 0
M  V30 1116 H 109.247 -2.14862 6.10281 0
M  V30 1117 N 109.379 -1.50304 -0.473955 0
M  V30 1118 C 110.327 -1.69482 -1.59307 0
M  V30 1119 C 111.321 -0.560669 -1.59853 0
M  V30 1120 O 112.527 -0.741087 -1.64036 0
M  V30 1121 H 108.902 -0.534892 -0.528578 0
M  V30 1122 H 110.873 -2.63364 -1.40293 0
M  V30 1123 C 109.622 -1.80354 -2.97267 0
M  V30 1124 H 108.945 -2.67012 -2.97564 0
M  V30 1125 H 110.385 -1.97798 -3.75036 0
M  V30 1126 C 108.844 -0.55448 -3.32306 0
M  V30 1127 O 109.374 0.307661 -4.0052 0
M  V30 1128 N 107.58 -0.409354 -2.87702 0
M  V30 1129 H 107.127 -1.11196 -2.32364 0
M  V30 1130 H 107.085 0.425223 -3.11511 0
M  V30 1131 N 110.857 0.726932 -1.39834 0
M  V30 1132 C 112.105 1.4837 -1.37225 0
M  V30 1133 C 112.426 1.94979 0.0284857 0
M  V30 1134 O 111.696 1.69555 0.981213 0
M  V30 1135 H 110.276 0.55043 -0.505011 0
M  V30 1136 H 112.938 0.862468 -1.74778 0
M  V30 1137 H 112.034 2.36198 -2.04003 0
M  V30 1138 N 112.336 1.25143 0.95797 0
M  V30 1139 C 113.283 1.05235 2.05412 0
M  V30 1140 C 114.253 -0.0374561 1.66058 0
M  V30 1141 O 115.438 0.119073 1.90428 0
M  V30 1142 C 112.578 0.673589 3.38462 0
M  V30 1143 C 111.691 1.8379 3.90954 0
M  V30 1144 C 110.826 1.40381 5.12315 0
M  V30 1145 C 109.865 2.53746 5.57027 0
M  V30 1146 N 109.002 2.11136 6.69601 0
M  V30 1147 H 113.842 1.99048 2.21774 0
M  V30 1148 H 111.379 0.991277 1.08683 0
M  V30 1149 H 113.337 0.434964 4.14926 0
M  V30 1150 H 111.967 -0.227554 3.21997 0
M  V30 1151 H 111.019 2.18992 3.11041 0
M  V30 1152 H 112.331 2.68937 4.20089 0
M  V30 1153 H 111.485 1.12464 5.96185 0
M  V30 1154 H 110.224 0.523015 4.84887 0
M  V30 1155 H 109.229 2.82412 4.71724 0
M  V30 1156 H 110.454 3.42398 5.86464 0
M  V30 1157 H 108.4 1.25468 6.4389 0
M  V30 1158 H 108.317 2.89832 6.98236 0
M  V30 1159 H 109.585 1.86385 7.56889 0
M  V30 1160 N 113.814 -1.1601 1.06675 0
M  V30 1161 C 115.06 -1.86909 0.786945 0
M  V30 1162 C 115.393 -1.81717 -0.685018 0
M  V30 1163 O 114.668 -1.23551 -1.50218 0
M  V30 1164 C 114.951 -3.36313 1.28707 0
M  V30 1165 C 114.804 -3.50175 2.82308 0
M  V30 1166 C 116.123 -4.3084 0.898071 0
M  V30 1167 H 113.242 -0.678677 0.287343 0
M  V30 1168 H 115.884 -1.36336 1.32334 0
M  V30 1169 H 114.034 -3.79513 0.830768 0
M  V30 1170 H 115.706 -3.15886 3.36175 0
M  V30 1171 H 113.949 -2.91959 3.20847 0
M  V30 1172 H 114.62 -4.55116 3.12368 0
M  V30 1173 H 117.096 -3.95561 1.29114 0
M  V30 1174 H 115.972 -5.33876 1.27543 0
M  V30 1175 H 116.233 -4.41662 -0.196651 0
M  V30 1176 N 115.292 -0.849877 -1.32721 0
M  V30 1177 C 116.222 -0.306308 -2.31482 0
M  V30 1178 C 117.203 0.591952 -1.59468 0
M  V30 1179 O 118.388 0.513199 -1.87296 0
M  V30 1180 C 115.518 0.510204 -3.43532 0
M  V30 1181 C 114.472 -0.293209 -4.26994 0
M  V30 1182 C 113.798 0.647743 -5.30762 0
M  V30 1183 C 115.098 -1.51634 -4.99804 0
M  V30 1184 H 116.792 -1.13153 -2.77195 0
M  V30 1185 H 114.338 -0.545553 -1.33266 0
M  V30 1186 H 116.291 0.900856 -4.11658 0
M  V30 1187 H 115.015 1.36874 -2.96535 0
M  V30 1188 H 113.674 -0.665555 -3.60508 0
M  V30 1189 H 113.322 1.50299 -4.8002 0
M  V30 1190 H 113.022 0.11422 -5.87489 0
M  V30 1191 H 114.546 1.03567 -6.01753 0
M  V30 1192 H 115.96 -1.19824 -5.60638 0
M  V30 1193 H 114.357 -1.98745 -5.66234 0
M  V30 1194 H 115.427 -2.28018 -4.27943 0
M  V30 1195 N 116.77 1.45427 -0.607355 0
M  V30 1196 C 117.702 2.2871 0.149752 0
M  V30 1197 C 118.715 1.39937 0.831958 0
M  V30 1198 O 119.904 1.64313 0.697385 0
M  V30 1199 C 117.004 3.15673 1.23304 0
M  V30 1200 C 116.177 4.32722 0.637996 0
M  V30 1201 C 115.236 5.00895 1.61215 0
M  V30 1202 O 114.262 5.57697 1.13854 0
M  V30 1203 N 115.464 5.00159 2.94655 0
M  V30 1204 H 118.229 2.94328 -0.564882 0
M  V30 1205 H 115.79 1.55612 -0.446823 0
M  V30 1206 H 117.782 3.58144 1.88454 0
M  V30 1207 H 116.352 2.51965 1.8502 0
M  V30 1208 H 115.572 3.93734 -0.191572 0
M  V30 1209 H 116.86 5.08321 0.220665 0
M  V30 1210 H 116.258 4.553 3.35735 0
M  V30 1211 H 114.815 5.46495 3.55228 0
M  V30 1212 N 118.248 0.346503 1.53744 0
M  V30 1213 C 119.497 -0.250122 2.00143 0
M  V30 1214 C 119.81 -1.51418 1.23822 0
M  V30 1215 O 121.016 -2.18823 1.60713 0
M  V30 1216 C 119.472 -0.496252 3.56462 0
M  V30 1217 C 119.08 0.752077 4.41642 0
M  V30 1218 C 120.824 -1.05157 4.11269 0
M  V30 1219 C 118.731 0.476583 5.89477 0
M  V30 1220 H 117.661 -0.0972409 0.747703 0
M  V30 1221 H 120.312 0.46229 1.77581 0
M  V30 1222 H 118.694 -1.26944 3.75102 0
M  V30 1223 H 119.868 1.5266 4.34778 0
M  V30 1224 H 118.183 1.22925 3.97842 0
M  V30 1225 H 120.78 -1.27269 5.19333 0
M  V30 1226 H 121.123 -2.00799 3.64672 0
M  V30 1227 H 121.656 -0.339019 3.96353 0
M  V30 1228 H 118.395 1.4028 6.40314 0
M  V30 1229 H 117.915 -0.259794 5.99237 0
M  V30 1230 H 119.594 0.0949315 6.4693 0
M  V30 1231 N 119.726 -1.57421 0.075193 0
M  V30 1232 C 120.973 -1.93618 -0.593146 0
M  V30 1233 C 121.301 -0.955484 -1.69413 0
M  V30 1234 O 120.556 0.0283251 -1.9568 0
M  V30 1235 C 120.855 -3.36428 -1.20626 0
M  V30 1236 C 120.521 -4.50307 -0.231078 0
M  V30 1237 C 119.183 -4.81186 0.0371936 0
M  V30 1238 C 121.535 -5.19374 0.435888 0
M  V30 1239 C 118.863 -5.78466 0.979461 0
M  V30 1240 C 121.215 -6.17665 1.3665 0
M  V30 1241 C 119.879 -6.46958 1.6432 0
M  V30 1242 H 119.149 -0.708499 -0.217047 0
M  V30 1243 H 121.796 -1.90937 0.146793 0
M  V30 1244 H 120.101 -3.35592 -2.02201 0
M  V30 1245 H 121.798 -3.61727 -1.73073 0
M  V30 1246 H 118.388 -4.26227 -0.450357 0
M  V30 1247 H 122.572 -4.95711 0.241748 0
M  V30 1248 H 117.828 -5.99487 1.20106 0
M  V30 1249 H 122.002 -6.70284 1.88924 0
M  V30 1250 H 119.629 -7.2215 2.37494 0
M  V30 1251 N 121.204 0.198386 -1.56346 0
M  V30 1252 C 122.152 1.26538 -1.95169 0
M  V30 1253 C 123.146 1.47295 -0.836685 0
M  V30 1254 O 124.352 1.48195 -1.02167 0
M  V30 1255 H 120.727 0.424744 -0.620561 0
M  V30 1256 H 122.698 0.910904 -2.84157 0
M  V30 1257 C 121.447 2.6035 -2.30463 0
M  V30 1258 H 120.77 2.45192 -3.15786 0
M  V30 1259 H 122.21 3.33762 -2.61494 0
M  V30 1260 C 120.669 3.17096 -1.13806 0
M  V30 1261 O 121.199 3.99588 -0.41135 0
M  V30 1262 N 119.405 2.75795 -0.915736 0
M  V30 1263 H 118.952 2.08816 -1.50843 0
M  V30 1264 H 118.91 3.14101 -0.136979 0
M  V30 1265 N 122.682 1.50554 0.465978 0
M  V30 1266 C 123.629 1.6979 1.56333 0
M  V30 1267 C 124.599 0.539239 1.57103 0
M  V30 1268 O 125.784 0.770401 1.74555 0
M  V30 1269 C 122.924 1.80273 2.94271 0
M  V30 1270 C 122.037 3.07674 3.0325 0
M  V30 1271 C 121.172 3.08922 4.32135 0
M  V30 1272 C 120.211 4.30755 4.34875 0
M  V30 1273 N 119.348 4.29714 5.55239 0
M  V30 1274 H 124.188 2.63472 1.39235 0
M  V30 1275 H 121.725 1.30602 0.676873 0
M  V30 1276 H 123.683 1.84332 3.74269 0
M  V30 1277 H 122.313 0.900258 3.09992 0
M  V30 1278 H 121.365 3.13062 2.16094 0
M  V30 1279 H 122.677 3.97642 3.01135 0
M  V30 1280 H 121.831 3.11738 5.20485 0
M  V30 1281 H 120.57 2.16792 4.36866 0
M  V30 1282 H 119.575 4.28146 3.44922 0
M  V30 1283 H 120.8 5.24117 4.31831 0
M  V30 1284 H 118.746 3.4044 5.60746 0
M  V30 1285 H 118.663 5.13456 5.54886 0
M  V30 1286 H 119.931 4.36683 6.457 0
M  V30 1287 N 124.16 -0.719506 1.40217 0
M  V30 1288 C 125.576 -1.02707 1.22161 0
M  V30 1289 C 125.776 -2.0128 0.0940557 0
M  V30 1290 O 124.832 -2.46452 -0.549318 0
M  V30 1291 C 126.145 -1.57454 2.56181 0
M  V30 1292 C 127.693 -1.69458 2.63159 0
M  V30 1293 C 128.168 -2.27611 3.97438 0
M  V30 1294 N 129.659 -2.35002 3.99159 0
M  V30 1295 C 130.394 -2.80972 4.99842 0
M  V30 1296 N 129.89 -3.26723 6.10921 0
M  V30 1297 N 131.683 -2.80321 4.87213 0
M  V30 1298 H 123.834 -0.0660492 2.12297 0
M  V30 1299 H 126.097 -0.0919077 0.943534 0
M  V30 1300 H 125.803 -0.924873 3.39321 0
M  V30 1301 H 125.677 -2.56036 2.76993 0
M  V30 1302 H 128.064 -2.33543 1.80393 0
M  V30 1303 H 128.145 -0.694867 2.46181 0
M  V30 1304 H 127.789 -1.6415 4.80643 0
M  V30 1305 H 127.719 -3.2829 4.11744 0
M  V30 1306 H 130.21 -2.02685 3.18947 0
M  V30 1307 H 130.523 -3.60355 6.8364 0
M  V30 1308 H 128.868 -3.24692 6.14492 0
M  V30 1309 H 132.059 -2.43912 3.9953 0
M  V30 1310 H 132.232 -3.15831 5.65822 0
M  V30 1311 N 125.638 -1.25649 -0.95132 0
M  V30 1312 C 126.866 -1.13343 -1.73092 0
M  V30 1313 C 127.281 0.312434 -1.86197 0
M  V30 1314 O 126.638 1.21465 -1.36207 0
M  V30 1315 C 126.689 -1.78602 -3.14299 0
M  V30 1316 O 126.41 -3.17537 -3.01831 0
M  V30 1317 C 127.911 -1.72119 -4.08522 0
M  V30 1318 H 125.131 -0.395181 -0.542285 0
M  V30 1319 H 127.675 -1.66076 -1.19328 0
M  V30 1320 H 125.83 -1.29832 -3.64996 0
M  V30 1321 H 126.244 -3.49676 -3.90931 0
M  V30 1322 H 127.718 -2.22435 -5.052 0
M  V30 1323 H 128.195 -0.685635 -4.33815 0
M  V30 1324 H 128.801 -2.20393 -3.63741 0
M  V30 1325 N 127.117 1.15442 -1.07289 0
M  V30 1326 C 128.049 2.19773 -0.650585 0
M  V30 1327 C 129.062 1.60076 0.296572 0
M  V30 1328 O 130.251 1.78293 0.0859905 0
M  V30 1329 C 127.351 3.38838 0.0650398 0
M  V30 1330 C 126.524 4.2808 -0.898141 0
M  V30 1331 C 125.583 5.2574 -0.219926 0
M  V30 1332 O 124.609 5.62654 -0.860773 0
M  V30 1333 N 125.811 5.71205 1.03466 0
M  V30 1334 H 128.576 2.56622 -1.54808 0
M  V30 1335 H 126.137 1.30551 -0.957494 0
M  V30 1336 H 128.129 4.01222 0.529415 0
M  V30 1337 H 126.699 3.00409 0.864466 0
M  V30 1338 H 125.919 3.62804 -1.54165 0
M  V30 1339 H 127.207 4.84577 -1.5512 0
M  V30 1340 H 126.605 5.43325 1.57526 0
M  V30 1341 H 125.162 6.35633 1.44272 0
M  V30 1342 N 128.595 0.856903 1.32268 0
M  V30 1343 C 129.505 0.306131 2.32594 0
M  V30 1344 C 130.521 -0.577209 1.64147 0
M  V30 1345 O 131.697 -0.477043 1.95669 0
M  V30 1346 C 128.762 -0.494561 3.43154 0
M  V30 1347 C 127.823 0.415186 4.27288 0
M  V30 1348 C 127.056 -0.347387 5.32568 0
M  V30 1349 O 127.279 -1.57708 5.48165 0
M  V30 1350 O 126.213 0.287982 6.01211 0
M  V30 1351 H 130.039 1.13737 2.81598 0
M  V30 1352 H 127.624 0.619902 1.35932 0
M  V30 1353 H 129.506 -0.948944 4.10576 0
M  V30 1354 H 128.181 -1.30257 2.96336 0
M  V30 1355 H 127.088 0.917793 3.62667 0
M  V30 1356 H 128.421 1.18844 4.77637 0
M  V30 1357 N 130.073 -1.45103 0.615059 0
M  V30 1358 C 131.02 -2.30586 -0.0993978 0
M  V30 1359 C 131.99 -1.42544 -0.852669 0
M  V30 1360 O 133.175 -1.71465 -0.836917 0
M  V30 1361 C 130.315 -3.27572 -1.08583 0
M  V30 1362 C 129.428 -4.30717 -0.332656 0
M  V30 1363 C 128.563 -5.14807 -1.30947 0
M  V30 1364 C 127.602 -6.09673 -0.544538 0
M  V30 1365 N 126.739 -6.86517 -1.47101 0
M  V30 1366 H 131.579 -2.91144 0.635542 0
M  V30 1367 H 129.116 -1.4346 0.325206 0
M  V30 1368 H 131.074 -3.82276 -1.67095 0
M  V30 1369 H 129.704 -2.68751 -1.78809 0
M  V30 1370 H 128.756 -3.78615 0.368107 0
M  V30 1371 H 130.068 -4.98102 0.263842 0
M  V30 1372 H 129.222 -5.73948 -1.96643 0
M  V30 1373 H 127.961 -4.47458 -1.9399 0
M  V30 1374 H 126.966 -5.49656 0.126003 0
M  V30 1375 H 128.191 -6.79052 0.080947 0
M  V30 1376 H 126.137 -6.21851 -2.08895 0
M  V30 1377 H 126.054 -7.50281 -0.928137 0
M  V30 1378 H 127.322 -7.50194 -2.11731 0
M  V30 1379 N 131.551 -0.354651 -1.53558 0
M  V30 1380 C 132.798 0.238443 -2.01091 0
M  V30 1381 C 133.126 1.49663 -1.24222 0
M  V30 1382 O 132.381 1.93049 -0.321003 0
M  V30 1383 C 132.68 0.587121 -3.52545 0
M  V30 1384 C 132.346 -0.575472 -4.47213 0
M  V30 1385 C 131.008 -0.894497 -4.72813 0
M  V30 1386 C 133.36 -1.35489 -5.03281 0
M  V30 1387 C 130.688 -1.99511 -5.51736 0
M  V30 1388 C 133.04 -2.44583 -5.83405 0
M  V30 1389 C 131.704 -2.77033 -6.07296 0
M  V30 1390 H 130.974 0.0872526 -0.735845 0
M  V30 1391 H 133.621 -0.484859 -1.8526 0
M  V30 1392 H 131.926 1.39129 -3.66265 0
M  V30 1393 H 133.623 1.05809 -3.86789 0
M  V30 1394 H 130.213 -0.316774 -4.27428 0
M  V30 1395 H 134.397 -1.12167 -4.83459 0
M  V30 1396 H 129.653 -2.25063 -5.68469 0
M  V30 1397 H 133.827 -3.05401 -6.25862 0
M  V30 1398 H 131.454 -3.6244 -6.68237 0
M  V30 1399 N 133.029 1.57378 -0.0835403 0
M  V30 1400 C 133.992 2.12252 0.864959 0
M  V30 1401 C 134.992 1.04916 1.21858 0
M  V30 1402 O 136.182 1.30853 1.14991 0
M  V30 1403 C 133.314 2.63358 2.16461 0
M  V30 1404 H 134.507 2.97371 0.388676 0
M  V30 1405 H 132.06 1.55423 0.165317 0
M  V30 1406 H 132.795 1.81727 2.686 0
M  V30 1407 H 132.58 3.41826 1.92087 0
M  V30 1408 H 134.07 3.05847 2.84337 0
M  V30 1409 N 134.507 -0.190092 1.56449 0
M  V30 1410 C 135.437 -1.23816 1.97969 0
M  V30 1411 C 136.418 -1.47201 0.852395 0
M  V30 1412 O 137.603 -1.58854 1.1171 0
M  V30 1413 C 134.733 -2.5813 2.3235 0
M  V30 1414 C 133.687 -2.49348 3.47864 0
M  V30 1415 C 133.013 -3.8798 3.67934 0
M  V30 1416 C 134.313 -2.01424 4.81898 0
M  V30 1417 H 136.007 -0.89311 2.85769 0
M  V30 1418 H 133.553 -0.428177 1.37487 0
M  V30 1419 H 135.506 -3.31637 2.59991 0
M  V30 1420 H 134.23 -2.94386 1.41438 0
M  V30 1421 H 132.889 -1.78297 3.20321 0
M  V30 1422 H 132.537 -4.21597 2.74344 0
M  V30 1423 H 132.237 -3.82978 4.45648 0
M  V30 1424 H 133.761 -4.63101 3.97957 0
M  V30 1425 H 135.175 -2.64693 5.08538 0
M  V30 1426 H 133.572 -2.07413 5.63116 0
M  V30 1427 H 134.642 -0.967677 4.75146 0
M  V30 1428 N 135.985 -1.50799 -0.457987 0
M  V30 1429 C 136.932 -1.70617 -1.5543 0
M  V30 1430 C 137.902 -0.547562 -1.56815 0
M  V30 1431 O 139.087 -0.779647 -1.74144 0
M  V30 1432 C 136.227 -1.81831 -2.93311 0
M  V30 1433 C 135.34 -3.09278 -3.01615 0
M  V30 1434 C 134.475 -3.11209 -4.30491 0
M  V30 1435 C 133.514 -4.33055 -4.32585 0
M  V30 1436 N 132.651 -4.32652 -5.52952 0
M  V30 1437 H 137.491 -2.64207 -1.37836 0
M  V30 1438 H 135.028 -1.30959 -0.669937 0
M  V30 1439 H 136.986 -1.86314 -3.73287 0
M  V30 1440 H 135.616 -0.916685 -3.0951 0
M  V30 1441 H 134.668 -3.14203 -2.1443 0
M  V30 1442 H 135.98 -3.99233 -2.99022 0
M  V30 1443 H 135.134 -3.14494 -5.18824 0
M  V30 1444 H 133.873 -2.19106 -4.35711 0
M  V30 1445 H 132.878 -4.29969 -3.42647 0
M  V30 1446 H 134.103 -5.264 -4.29046 0
M  V30 1447 H 132.049 -3.43409 -5.58933 0
M  V30 1448 H 131.966 -5.16392 -5.52155 0
M  V30 1449 H 133.234 -4.40101 -6.43375 0
M  V30 1450 N 137.463 0.71206 -1.40597 0
M  V30 1451 C 138.396 1.83582 -1.35546 0
M  V30 1452 C 139.374 1.61032 -0.225284 0
M  V30 1453 O 140.558 1.83998 -0.409519 0
M  V30 1454 C 137.685 3.19983 -1.11034 0
M  V30 1455 C 136.731 3.61355 -2.2655 0
M  V30 1456 S 137.564 3.68062 -3.88961 0
M  V30 1457 C 138.72 5.07216 -3.66719 0
M  V30 1458 H 138.953 1.87586 -2.30648 0
M  V30 1459 H 136.486 0.879182 -1.26924 0
M  V30 1460 H 138.444 3.98734 -0.975761 0
M  V30 1461 H 137.105 3.13608 -0.175798 0
M  V30 1462 H 136.298 4.60403 -2.0505 0
M  V30 1463 H 135.9 2.8987 -2.36329 0
M  V30 1464 H 138.192 5.94238 -3.25404 0
M  V30 1465 H 139.135 5.33753 -4.6531 0
M  V30 1466 H 139.543 4.77976 -3.00332 0
M  V30 1467 N 138.941 1.26152 0.944643 0
M  V30 1468 C 139.871 1.09902 2.06019 0
M  V30 1469 C 140.852 0.00519538 1.70099 0
M  V30 1470 O 142.037 0.176583 1.93396 0
M  V30 1471 C 139.167 0.727562 3.39594 0
M  V30 1472 C 138.121 1.77274 3.89561 0
M  V30 1473 C 137.447 1.25569 5.19747 0
M  V30 1474 C 138.747 3.17357 4.14827 0
M  V30 1475 H 140.441 2.03217 2.19871 0
M  V30 1476 H 137.987 0.978452 1.05652 0
M  V30 1477 H 139.94 0.600777 4.17095 0
M  V30 1478 H 138.664 -0.241287 3.25707 0
M  V30 1479 H 137.323 1.88814 3.14237 0
M  V30 1480 H 136.971 0.276783 5.02238 0
M  V30 1481 H 136.671 1.95433 5.54148 0
M  V30 1482 H 138.195 1.1415 5.99835 0
M  V30 1483 H 139.609 3.08914 4.82954 0
M  V30 1484 H 138.006 3.84781 4.60504 0
M  V30 1485 H 139.076 3.63673 3.20734 0
M  V30 1486 N 140.419 -1.14872 1.07899 0
M  V30 1487 C 141.351 -2.19425 0.662231 0
M  V30 1488 C 142.364 -1.60231 -0.288079 0
M  V30 1489 O 143.553 -1.78336 -0.076534 0
M  V30 1490 C 140.653 -3.38867 -0.0470695 0
M  V30 1491 C 139.826 -4.27597 0.920831 0
M  V30 1492 C 138.885 -5.25616 0.247805 0
M  V30 1493 O 137.911 -5.62189 0.890599 0
M  V30 1494 N 139.113 -5.71746 -1.00435 0
M  V30 1495 H 141.878 -2.55797 1.56166 0
M  V30 1496 H 139.439 -1.30042 0.964404 0
M  V30 1497 H 141.431 -4.01497 -0.50813 0
M  V30 1498 H 140.001 -3.00864 -0.848523 0
M  V30 1499 H 139.221 -3.61982 1.56087 0
M  V30 1500 H 140.509 -4.83748 1.57688 0
M  V30 1501 H 139.907 -5.44153 -1.54642 0
M  V30 1502 H 138.464 -6.36389 -1.40899 0
M  V30 1503 N 141.898 -0.863906 -1.31812 0
M  V30 1504 C 143.175 -0.39275 -1.91616 0
M  V30 1505 C 143.555 1.12461 -1.7865 0
M  V30 1506 O 142.903 1.95045 -1.19037 0
M  V30 1507 C 143.113 -0.867385 -3.38049 0
M  V30 1508 C 144.461 -0.889966 -4.15168 0
M  V30 1509 O 145.485 -0.812635 -3.46806 0
M  V30 1510 O 144.344 -1.00079 -5.37258 0
M  V30 1511 H 141.438 -0.116358 -0.818773 0
M  V30 1512 H 143.984 -0.951418 -1.40521 0
M  V30 1513 H 142.756 -1.91081 -3.41473 0
M  V30 1514 H 142.379 -0.286687 -3.96565 0
M  V30 1515 N 143.376 1.44774 -0.622745 0
M  V30 1516 C 144.616 2.04004 -0.127102 0
M  V30 1517 C 144.98 1.47862 1.22478 0
M  V30 1518 O 146.181 1.98541 1.81204 0
M  V30 1519 C 144.452 3.57247 -0.104429 0
M  V30 1520 S 146.011 4.37574 0.327814 0
M  V30 1521 H 142.829 0.708713 -0.0569776 0
M  V30 1522 H 145.431 1.77275 -0.824253 0
M  V30 1523 H 144.135 3.95616 -1.09159 0
M  V30 1524 H 143.666 3.88575 0.614236 0
M  V30 1525 H 145.681 4.70575 1.57395 0
M  V30 1526 N 144.854 0.36279 1.53368 0
M  V30 1527 C 146.265 -0.117022 1.86333 0
M  V30 1528 C 146.616 -1.48397 1.28347 0
M  V30 1529 O 145.741 -2.07787 0.604428 0
M  V30 1530 C 146.336 -0.21912 3.38091 0
M  V30 1531 C 144.895 -0.643184 3.70864 0
M  V30 1532 C 144.042 0.211318 2.76494 0
M  V30 1533 H 146.993 0.581687 1.47655 0
M  V30 1534 H 147.014 -1.04319 3.6592 0
M  V30 1535 H 146.526 0.775902 3.80265 0
M  V30 1536 H 144.627 -1.64654 3.34245 0
M  V30 1537 H 144.74 -0.41973 4.77258 0
M  V30 1538 H 143.104 -0.319367 2.5269 0
M  V30 1539 H 143.887 1.20383 3.21501 0
M  V30 1540 N 146.332 -1.57332 0.0918853 0
M  V30 1541 C 147.279 -2.13847 -0.868211 0
M  V30 1542 C 148.249 -1.05618 -1.28196 0
M  V30 1543 O 149.434 -1.33387 -1.36427 0
M  V30 1544 C 146.574 -2.72062 -2.12312 0
M  V30 1545 C 145.687 -3.94514 -1.7602 0
M  V30 1546 C 144.822 -4.40903 -2.96273 0
M  V30 1547 C 143.861 -5.55953 -2.56092 0
M  V30 1548 N 142.998 -5.97209 -3.69169 0
M  V30 1549 H 147.838 -2.95575 -0.379406 0
M  V30 1550 H 145.375 -1.46048 -0.175606 0
M  V30 1551 H 147.333 -3.03931 -2.858 0
M  V30 1552 H 145.963 -1.93068 -2.58698 0
M  V30 1553 H 145.015 -3.68979 -0.925135 0
M  V30 1554 H 146.327 -4.7802 -1.42472 0
M  V30 1555 H 145.481 -4.74539 -3.78018 0
M  V30 1556 H 144.22 -3.56291 -3.33029 0
M  V30 1557 H 143.225 -5.21948 -1.72773 0
M  V30 1558 H 144.45 -6.42311 -2.20484 0
M  V30 1559 H 142.396 -5.15543 -4.05649 0
M  V30 1560 H 142.313 -6.75504 -3.39456 0
M  V30 1561 H 143.581 -6.35475 -4.51434 0
M  V30 1562 N 147.81 0.181792 -1.56548 0
M  V30 1563 C 148.773 1.20894 -1.94724 0
M  V30 1564 C 149.773 1.37738 -0.829747 0
M  V30 1565 O 150.963 1.35323 -1.09697 0
M  V30 1566 C 148.095 2.57593 -2.23291 0
M  V30 1567 H 149.288 0.882275 -2.86629 0
M  V30 1568 H 146.841 0.423838 -1.50444 0
M  V30 1569 H 147.576 2.95291 -1.34067 0
M  V30 1570 H 147.361 2.46735 -3.04736 0
M  V30 1571 H 148.851 3.31637 -2.53785 0
M  V30 1572 N 149.288 1.51039 0.449983 0
M  V30 1573 C 150.704 1.38934 0.785462 0
M  V30 1574 C 150.904 0.461817 1.96136 0
M  V30 1575 O 149.96 -0.0877389 2.52348 0
M  V30 1576 C 151.273 2.80724 1.0777 0
M  V30 1577 C 152.821 2.89787 1.1829 0
M  V30 1578 C 153.296 4.32457 1.50815 0
M  V30 1579 N 154.787 4.35505 1.57764 0
M  V30 1580 C 155.522 5.42914 1.84477 0
M  V30 1581 N 155.018 6.60502 2.09068 0
M  V30 1582 N 156.811 5.3038 1.86155 0
M  V30 1583 H 148.962 2.09904 -0.324647 0
M  V30 1584 H 151.225 0.944378 -0.0827957 0
M  V30 1585 H 150.931 3.50531 0.286498 0
M  V30 1586 H 150.805 3.19273 2.00859 0
M  V30 1587 H 153.192 2.20186 1.96474 0
M  V30 1588 H 153.273 2.54752 0.231314 0
M  V30 1589 H 152.917 5.02603 0.731622 0
M  V30 1590 H 152.847 4.64995 2.47158 0
M  V30 1591 H 155.338 3.50724 1.40715 0
M  V30 1592 H 155.651 7.38158 2.28785 0
M  V30 1593 H 153.996 6.63639 2.06416 0
M  V30 1594 H 157.187 4.37505 1.66454 0
M  V30 1595 H 157.36 6.1417 2.06637 0
M  V30 1596 N 150.766 -0.704594 1.40972 0
M  V30 1597 C 152.182 -1.01406 1.23244 0
M  V30 1598 C 152.382 -2.01169 0.115399 0
M  V30 1599 O 151.438 -2.47021 -0.523147 0
M  V30 1600 C 152.751 -1.54728 2.57836 0
M  V30 1601 C 154.299 -1.66658 2.64942 0
M  V30 1602 C 154.774 -2.23383 3.9983 0
M  V30 1603 N 156.265 -2.30756 4.01629 0
M  V30 1604 C 157 -2.75655 5.02794 0
M  V30 1605 N 156.496 -3.20225 6.14352 0
M  V30 1606 N 158.289 -2.75138 4.90159 0
M  V30 1607 H 150.44 -0.0435285 2.12355 0
M  V30 1608 H 152.703 -0.0818951 0.944456 0
M  V30 1609 H 152.409 -0.888832 3.40283 0
M  V30 1610 H 152.283 -2.53084 2.79693 0
M  V30 1611 H 154.67 -2.31617 1.8286 0
M  V30 1612 H 154.751 -0.668717 2.46904 0
M  V30 1613 H 154.395 -1.59043 4.82357 0
M  V30 1614 H 154.325 -3.23904 4.15203 0
M  V30 1615 H 156.816 -1.99291 3.21079 0
M  V30 1616 H 157.129 -3.53084 6.87424 0
M  V30 1617 H 155.474 -3.18156 6.17901 0
M  V30 1618 H 158.665 -2.39661 4.02095 0
M  V30 1619 H 158.838 -3.09812 5.6914 0
M  V30 1620 N 152.244 -1.26651 -0.937939 0
M  V30 1621 C 153.154 -1.10276 -2.07066 0
M  V30 1622 C 154.17 -0.0354197 -1.73964 0
M  V30 1623 O 155.346 -0.239816 -1.99967 0
M  V30 1624 C 152.411 -0.740887 -3.38691 0
M  V30 1625 C 151.472 -1.88799 -3.85556 0
M  V30 1626 C 150.705 -1.54329 -5.10899 0
M  V30 1627 O 150.928 -0.446494 -5.6865 0
M  V30 1628 O 149.862 -2.37911 -5.52885 0
M  V30 1629 H 153.688 -2.05309 -2.23789 0
M  V30 1630 H 151.273 -1.05743 -1.0554 0
M  V30 1631 H 153.155 -0.55195 -4.1777 0
M  V30 1632 H 151.83 0.180022 -3.23199 0
M  V30 1633 H 150.737 -2.13191 -3.07409 0
M  V30 1634 H 152.07 -2.78874 -4.05574 0
M  V30 1635 N 153.722 1.14298 -1.08507 0
M  V30 1636 C 154.968 1.85633 -0.816581 0
M  V30 1637 C 155.301 1.82784 0.656021 0
M  V30 1638 O 154.576 1.25926 1.48233 0
M  V30 1639 C 154.859 3.34223 -1.34041 0
M  V30 1640 C 154.712 3.45639 -2.87843 0
M  V30 1641 C 156.031 4.29356 -0.9665 0
M  V30 1642 H 153.15 0.67402 -0.298104 0
M  V30 1643 H 155.792 1.34214 -1.34487 0
M  V30 1644 H 153.942 3.78144 -0.89104 0
M  V30 1645 H 155.614 3.10498 -3.41158 0
M  V30 1646 H 153.857 2.86817 -3.25451 0
M  V30 1647 H 154.528 4.50089 -3.19569 0
M  V30 1648 H 157.004 3.93457 -1.35391 0
M  V30 1649 H 155.88 5.3178 -1.3602 0
M  V30 1650 H 156.141 4.41919 0.126362 0
M  V30 1651 N 155.201 0.870884 1.31352 0
M  V30 1652 C 156.111 0.330783 2.32256 0
M  V30 1653 C 157.127 -0.559767 1.6475 0
M  V30 1654 O 158.303 -0.456263 1.96164 0
M  V30 1655 C 155.368 -0.458137 3.4366 0
M  V30 1656 C 154.429 0.460482 4.26823 0
M  V30 1657 C 153.662 -0.290881 5.32907 0
M  V30 1658 O 153.885 -1.51885 5.49806 0
M  V30 1659 O 152.819 0.351732 6.00871 0
M  V30 1660 H 156.645 1.16718 2.80376 0
M  V30 1661 H 154.23 0.634285 1.35267 0
M  V30 1662 H 156.112 -0.905343 4.1156 0
M  V30 1663 H 154.787 -1.27106 2.97701 0
M  V30 1664 H 153.694 0.956207 3.61673 0
M  V30 1665 H 155.027 1.23903 4.7635 0
M  V30 1666 N 156.679 -1.44442 0.630414 0
M  V30 1667 C 157.609 -2.33418 -0.0618083 0
M  V30 1668 C 158.59 -1.48165 -0.835541 0
M  V30 1669 O 159.775 -1.76886 -0.801564 0
M  V30 1670 C 156.905 -3.31222 -1.04449 0
M  V30 1671 C 155.859 -4.26288 -0.382436 0
M  V30 1672 C 155.185 -5.13954 -1.47497 0
M  V30 1673 C 156.485 -5.1744 0.710865 0
M  V30 1674 H 158.179 -2.91548 0.681184 0
M  V30 1675 H 155.725 -1.40191 0.329026 0
M  V30 1676 H 157.678 -3.92351 -1.53748 0
M  V30 1677 H 156.402 -2.71299 -1.81836 0
M  V30 1678 H 155.061 -3.6649 0.0899054 0
M  V30 1679 H 154.709 -4.50385 -2.2397 0
M  V30 1680 H 154.409 -5.7837 -1.03737 0
M  V30 1681 H 155.933 -5.77955 -1.96979 0
M  V30 1682 H 157.347 -5.72509 0.300996 0
M  V30 1683 H 155.744 -5.90455 1.07156 0
M  V30 1684 H 156.814 -4.58496 1.57829 0
M  V30 1685 N 158.157 -0.370918 -1.53173 0
M  V30 1686 C 159.107 0.489588 -2.22681 0
M  V30 1687 C 160.091 1.04442 -1.22395 0
M  V30 1688 O 161.283 0.973578 -1.47819 0
M  V30 1689 C 158.412 1.626 -3.02351 0
M  V30 1690 C 157.498 1.08379 -4.10018 0
M  V30 1691 N 157.889 0.265004 -5.05105 0
M  V30 1692 C 156.187 1.35809 -4.2482 0
M  V30 1693 C 156.888 -0.0324755 -5.81691 0
M  V30 1694 N 155.864 0.566581 -5.40639 0
M  V30 1695 H 159.666 -0.142729 -2.93553 0
M  V30 1696 H 157.18 -0.179221 -1.61408 0
M  V30 1697 H 159.177 2.2547 -3.50669 0
M  V30 1698 H 157.837 2.26132 -2.33011 0
M  V30 1699 H 158.848 -0.0962352 -5.17811 0
M  V30 1700 H 155.525 1.9958 -3.66707 0
M  V30 1701 H 156.915 -0.69473 -6.68299 0
M  V30 1702 N 159.635 1.57281 -0.100228 0
M  V30 1703 C 160.881 1.95626 0.556946 0
M  V30 1704 C 161.236 0.981655 1.65473 0
M  V30 1705 O 160.529 0.00849847 1.91598 0
M  V30 1706 C 160.723 3.38305 1.15259 0
M  V30 1707 C 160.552 4.49555 0.114035 0
M  V30 1708 C 159.322 5.0434 -0.311266 0
M  V30 1709 C 161.52 5.10051 -0.659768 0
M  V30 1710 N 159.502 5.99152 -1.33755 0
M  V30 1711 C 160.873 6.00628 -1.53774 0
M  V30 1712 C 162.928 4.92772 -0.712723 0
M  V30 1713 C 161.631 6.7578 -2.46403 0
M  V30 1714 C 163.657 5.6859 -1.62663 0
M  V30 1715 C 163.019 6.58838 -2.49222 0
M  V30 1716 H 159.118 0.7624 0.173982 0
M  V30 1717 H 161.702 1.93829 -0.183988 0
M  V30 1718 H 159.873 3.40786 1.86332 0
M  V30 1719 H 161.605 3.63817 1.77254 0
M  V30 1720 H 158.36 4.73537 0.0774812 0
M  V30 1721 H 158.784 6.5126 -1.84905 0
M  V30 1722 H 163.426 4.22761 -0.0576648 0
M  V30 1723 H 161.144 7.4505 -3.12931 0
M  V30 1724 H 164.73 5.57233 -1.67281 0
M  V30 1725 H 163.61 7.16479 -3.18791 0
M  V30 1726 N 161.113 -0.173488 1.56642 0
M  V30 1727 C 162.529 -0.525174 1.50712 0
M  V30 1728 C 162.729 -1.8476 0.804107 0
M  V30 1729 O 161.785 -2.49869 0.363574 0
M  V30 1730 C 163.098 -0.559937 2.95441 0
M  V30 1731 C 164.646 -0.647288 3.06234 0
M  V30 1732 C 165.121 -0.712963 4.52417 0
M  V30 1733 N 166.612 -0.775911 4.56655 0
M  V30 1734 C 167.347 -0.847264 5.67106 0
M  V30 1735 N 166.843 -0.879585 6.87194 0
M  V30 1736 N 168.636 -0.886117 5.55071 0
M  V30 1737 H 160.787 0.693681 2.00753 0
M  V30 1738 H 163.05 0.249841 0.914485 0
M  V30 1739 H 162.756 0.343049 3.50023 0
M  V30 1740 H 162.63 -1.40718 3.49969 0
M  V30 1741 H 165.017 -1.5407 2.51687 0
M  V30 1742 H 165.098 0.226586 2.54794 0
M  V30 1743 H 164.742 0.176183 5.07594 0
M  V30 1744 H 164.672 -1.60295 5.0161 0
M  V30 1745 H 167.163 -0.759304 3.70193 0
M  V30 1746 H 167.476 -0.935144 7.67121 0
M  V30 1747 H 165.821 -0.847898 6.89808 0
M  V30 1748 H 169.012 -0.857853 4.60172 0
M  V30 1749 H 169.185 -0.938263 6.41171 0
M  V30 1750 N 162.591 -1.51276 -0.441967 0
M  V30 1751 C 163.554 -1.7167 -1.51862 0
M  V30 1752 C 164.554 -0.586793 -1.49711 0
M  V30 1753 O 165.744 -0.854276 -1.51815 0
M  V30 1754 C 162.876 -1.76889 -2.91416 0
M  V30 1755 H 164.069 -2.67754 -1.35084 0
M  V30 1756 H 161.622 -1.41196 -0.670333 0
M  V30 1757 H 162.357 -0.826026 -3.13604 0
M  V30 1758 H 162.142 -2.59001 -2.94382 0
M  V30 1759 H 163.632 -1.94522 -3.69528 0
M  V30 1760 N 164.069 0.697108 -1.41344 0
M  V30 1761 C 165.294 1.49096 -1.44171 0
M  V30 1762 C 165.719 1.88038 -0.0481568 0
M  V30 1763 O 165.077 1.54525 0.948243 0
M  V30 1764 C 165.125 2.73088 -2.3549 0
M  V30 1765 O 164.229 3.70514 -1.81088 0
M  V30 1766 H 163.57 0.448801 -0.489361 0
M  V30 1767 H 166.1 0.856992 -1.85787 0
M  V30 1768 H 166.11 3.21413 -2.51312 0
M  V30 1769 H 164.785 2.44081 -3.36745 0
M  V30 1770 H 163.362 3.29441 -1.74708 0
M  V30 1771 N 165.547 1.27147 0.931209 0
M  V30 1772 C 166.479 1.05364 2.03546 0
M  V30 1773 C 167.492 0.0108438 1.62796 0
M  V30 1774 O 168.681 0.25202 1.76712 0
M  V30 1775 C 165.781 0.575566 3.33977 0
M  V30 1776 C 164.954 1.68985 4.03439 0
M  V30 1777 C 164.013 1.20813 5.12143 0
M  V30 1778 O 163.039 1.90712 5.363 0
M  V30 1779 N 164.241 0.0618851 5.80467 0
M  V30 1780 H 167.006 2.00454 2.22796 0
M  V30 1781 H 164.567 1.18666 1.10136 0
M  V30 1782 H 166.559 0.237264 4.04004 0
M  V30 1783 H 165.129 -0.282016 3.11325 0
M  V30 1784 H 164.349 2.19861 3.27192 0
M  V30 1785 H 165.637 2.4378 4.46597 0
M  V30 1786 H 165.035 -0.521621 5.6329 0
M  V30 1787 H 163.592 -0.217264 6.51438 0
M  V30 1788 N 167.025 -1.13721 1.09112 0
M  V30 1789 C 168.265 -1.86576 0.834801 0
M  V30 1790 C 168.629 -1.81435 -0.628122 0
M  V30 1791 O 169.83 -2.49497 -1.00024 0
M  V30 1792 C 168.101 -3.30872 1.35124 0
M  V30 1793 S 169.66 -4.21257 1.22832 0
M  V30 1794 H 166.478 -0.643666 0.302017 0
M  V30 1795 H 169.08 -1.37085 1.39385 0
M  V30 1796 H 167.784 -3.32166 2.41027 0
M  V30 1797 H 167.315 -3.85423 0.788185 0
M  V30 1798 H 169.33 -4.95884 0.177191 0
M  V30 1799 N 168.503 -0.877838 -1.30888 0
M  V30 1800 C 169.914 -0.544193 -1.78593 0
M  V30 1801 C 170.265 0.939301 -1.72254 0
M  V30 1802 O 169.39 1.7337 -1.29505 0
M  V30 1803 C 169.985 -0.98105 -3.24285 0
M  V30 1804 C 168.544 -0.698935 -3.69854 0
M  V30 1805 C 167.691 -1.168 -2.51502 0
M  V30 1806 H 170.642 -1.06278 -1.17859 0
M  V30 1807 H 170.663 -0.307009 -3.79259 0
M  V30 1808 H 170.175 -2.06079 -3.28866 0
M  V30 1809 H 168.276 0.369112 -3.70767 0
M  V30 1810 H 168.389 -1.28148 -4.61644 0
M  V30 1811 H 166.753 -0.587535 -2.47831 0
M  V30 1812 H 167.536 -2.25533 -2.58824 0
M  V30 1813 N 169.982 1.44106 -0.638065 0
M  V30 1814 C 170.932 2.27843 0.0847285 0
M  V30 1815 C 171.916 1.39055 0.809471 0
M  V30 1816 O 173.108 1.62808 0.694435 0
M  V30 1817 C 170.237 3.26497 1.06089 0
M  V30 1818 C 169.323 4.22772 0.33541 0
M  V30 1819 N 169.714 5.01737 -0.639787 0
M  V30 1820 C 168.012 4.42227 0.578921 0
M  V30 1821 C 168.713 5.71792 -1.06904 0
M  V30 1822 N 167.689 5.42079 -0.406395 0
M  V30 1823 H 171.491 2.86305 -0.663814 0
M  V30 1824 H 169.005 1.55627 -0.464122 0
M  V30 1825 H 171.002 3.8525 1.59337 0
M  V30 1826 H 169.662 2.69595 1.80966 0
M  V30 1827 H 170.673 5.07799 -1.01789 0
M  V30 1828 H 167.35 3.96415 1.31003 0
M  V30 1829 H 168.74 6.45205 -1.8751 0
M  V30 1830 N 171.46 0.379036 1.52974 0
M  V30 1831 C 172.709 -0.207612 2.00629 0
M  V30 1832 C 173.022 -1.48758 1.27006 0
M  V30 1833 O 174.228 -2.15365 1.65318 0
M  V30 1834 C 172.684 -0.42053 3.57435 0
M  V30 1835 C 172.292 0.845587 4.39948 0
M  V30 1836 C 174.036 -0.964102 4.13407 0
M  V30 1837 C 171.943 0.601513 5.88333 0
M  V30 1838 H 170.873 -0.0813591 0.749598 0
M  V30 1839 H 173.524 0.499853 1.76561 0
M  V30 1840 H 171.906 -1.18959 3.7771 0
M  V30 1841 H 173.08 1.61848 4.31442 0
M  V30 1842 H 171.395 1.31336 3.95145 0
M  V30 1843 H 173.992 -1.16225 5.21916 0
M  V30 1844 H 174.335 -1.93019 3.68849 0
M  V30 1845 H 174.868 -0.25487 3.96983 0
M  V30 1846 H 171.607 1.53831 6.37194 0
M  V30 1847 H 171.127 -0.132628 5.99653 0
M  V30 1848 H 172.806 0.232134 6.46583 0
M  V30 1849 N 172.938 -1.57226 0.108567 0
M  V30 1850 C 174.184 -1.95121 -0.552761 0
M  V30 1851 C 174.517 -0.991345 -1.66991 0
M  V30 1852 O 173.792 -0.0267211 -1.94482 0
M  V30 1853 C 174.075 -3.43039 -1.09528 0
M  V30 1854 C 173.928 -4.49797 0.0177332 0
M  V30 1855 C 175.247 -3.92567 -1.98945 0
M  V30 1856 H 172.366 -0.709496 -0.199461 0
M  V30 1857 H 175.008 -1.89126 0.182011 0
M  V30 1858 H 173.158 -3.48279 -1.72146 0
M  V30 1859 H 174.83 -4.56661 0.652584 0
M  V30 1860 H 173.073 -4.284 0.682309 0
M  V30 1861 H 173.744 -5.50528 -0.402919 0
M  V30 1862 H 176.22 -3.89565 -1.46214 0
M  V30 1863 H 175.096 -4.96605 -2.33827 0
M  V30 1864 H 175.357 -3.32648 -2.91201 0
M  V30 1865 N 174.416 0.165178 -1.56732 0
M  V30 1866 C 175.832 0.517174 -1.50988 0
M  V30 1867 C 176.032 1.84331 -0.813894 0
M  V30 1868 O 175.088 2.49672 -0.37682 0
M  V30 1869 C 176.401 0.544261 -2.95733 0
M  V30 1870 C 177.949 0.631039 -3.06573 0
M  V30 1871 C 178.424 0.68896 -4.52788 0
M  V30 1872 N 179.915 0.751683 -4.5706 0
M  V30 1873 C 180.65 0.817177 -5.67547 0
M  V30 1874 N 180.146 0.843129 -6.8765 0
M  V30 1875 N 181.939 0.856668 -5.55534 0
M  V30 1876 H 174.09 -0.704318 -2.00382 0
M  V30 1877 H 176.353 -0.254687 -0.913148 0
M  V30 1878 H 176.059 -0.361607 -3.49836 0
M  V30 1879 H 175.933 1.3886 -3.5071 0
M  V30 1880 H 178.32 1.52733 -2.52501 0
M  V30 1881 H 178.401 -0.240095 -2.54671 0
M  V30 1882 H 178.045 -0.2031 -5.07494 0
M  V30 1883 H 177.975 1.57633 -5.02454 0
M  V30 1884 H 180.466 0.739661 -3.70591 0
M  V30 1885 H 180.779 0.894448 -7.67606 0
M  V30 1886 H 179.124 0.811304 -6.90248 0
M  V30 1887 H 182.315 0.833437 -4.60621 0
M  V30 1888 H 182.488 0.904247 -6.4166 0
M  V30 1889 N 175.894 1.51508 0.433938 0
M  V30 1890 C 177.143 1.63578 1.18005 0
M  V30 1891 C 177.456 0.359514 1.92268 0
M  V30 1892 O 178.662 0.359632 2.69108 0
M  V30 1893 C 177.118 2.88901 2.14626 0
M  V30 1894 C 176.726 4.23544 1.45995 0
M  V30 1895 C 178.47 3.10328 2.89649 0
M  V30 1896 C 176.377 5.40014 2.4112 0
M  V30 1897 H 175.307 0.609277 0.444182 0
M  V30 1898 H 177.958 1.77978 0.446773 0
M  V30 1899 H 176.34 2.68142 2.91403 0
M  V30 1900 H 177.514 4.54696 0.747532 0
M  V30 1901 H 175.829 4.08021 0.831115 0
M  V30 1902 H 178.426 3.94518 3.60915 0
M  V30 1903 H 178.769 2.23544 3.51189 0
M  V30 1904 H 179.302 3.31443 2.19978 0
M  V30 1905 H 176.041 6.29068 1.84264 0
M  V30 1906 H 175.561 5.13233 3.10406 0
M  V30 1907 H 177.24 5.72099 3.02177 0
M  V30 1908 N 177.372 -0.689602 1.41712 0
M  V30 1909 C 178.618 -1.45181 1.41599 0
M  V30 1910 C 178.951 -1.94181 0.0270081 0
M  V30 1911 O 178.226 -1.6993 -0.946265 0
M  V30 1912 C 178.509 -2.65945 2.42787 0
M  V30 1913 C 178.362 -2.22672 3.90816 0
M  V30 1914 C 179.681 -3.68149 2.41151 0
M  V30 1915 H 176.8 -0.526576 0.515642 0
M  V30 1916 H 179.442 -0.784947 1.73028 0
M  V30 1917 H 177.592 -3.2284 2.16116 0
M  V30 1918 H 179.264 -1.71058 4.28412 0
M  V30 1919 H 177.507 -1.54394 4.05395 0
M  V30 1920 H 178.178 -3.0935 4.57172 0
M  V30 1921 H 180.654 -3.2094 2.64834 0
M  V30 1922 H 179.53 -4.50248 3.13955 0
M  V30 1923 H 179.791 -4.18259 1.43221 0
M  V30 1924 N 178.85 -1.27639 -0.924453 0
M  V30 1925 C 180.127 -1.04887 -1.651 0
M  V30 1926 C 180.507 0.415327 -2.06974 0
M  V30 1927 O 179.855 1.39923 -1.80648 0
M  V30 1928 C 180.065 -2.01348 -2.85061 0
M  V30 1929 C 181.413 -2.30899 -3.56329 0
M  V30 1930 O 182.437 -1.99348 -2.95193 0
M  V30 1931 O 181.296 -2.84699 -4.66485 0
M  V30 1932 H 178.39 -0.400083 -0.723784 0
M  V30 1933 H 180.936 -1.38916 -0.974703 0
M  V30 1934 H 179.708 -3.0008 -2.51133 0
M  V30 1935 H 179.331 -1.679 -3.6041 0
M  V30 1936 N 180.328 1.1314 -1.09713 0
M  V30 1937 C 181.574 1.84757 -0.836224 0
M  V30 1938 C 181.907 1.8347 0.636598 0
M  V30 1939 O 181.182 1.27491 1.46889 0
M  V30 1940 C 181.465 3.32782 -1.37578 0
M  V30 1941 C 181.318 3.42567 -2.91493 0
M  V30 1942 C 182.637 4.28307 -1.01198 0
M  V30 1943 H 179.756 0.67082 -0.305236 0
M  V30 1944 H 182.398 1.3278 -1.35903 0
M  V30 1945 H 180.548 3.77177 -0.931097 0
M  V30 1946 H 182.22 3.06862 -3.44432 0
M  V30 1947 H 180.463 2.83349 -3.28475 0
M  V30 1948 H 181.134 4.46674 -3.24324 0
M  V30 1949 H 183.61 3.91999 -1.39556 0
M  V30 1950 H 182.486 5.30307 -1.41653 0
M  V30 1951 H 182.747 4.42029 0.0794833 0
M  V30 1952 N 181.806 0.884767 1.30421 0
M  V30 1953 C 183.036 0.517293 2.00019 0
M  V30 1954 C 183.444 -0.898632 1.66497 0
M  V30 1955 O 182.787 -1.60245 0.898181 0
M  V30 1956 C 182.849 0.612025 3.54252 0
M  V30 1957 C 182.513 1.99222 4.1129 0
M  V30 1958 C 183.51 2.9616 4.273 0
M  V30 1959 C 181.195 2.29755 4.46674 0
M  V30 1960 C 183.189 4.21764 4.77906 0
M  V30 1961 C 180.876 3.55606 4.96979 0
M  V30 1962 C 181.874 4.51425 5.12547 0
M  V30 1963 O 181.562 5.75043 5.61766 0
M  V30 1964 H 181.294 0.198529 0.64619 0
M  V30 1965 H 183.848 1.1919 1.67281 0
M  V30 1966 H 182.078 -0.119561 3.86515 0
M  V30 1967 H 183.767 0.255859 4.05093 0
M  V30 1968 H 184.533 2.73882 4.00267 0
M  V30 1969 H 180.412 1.55942 4.33824 0
M  V30 1970 H 183.956 4.96561 4.89972 0
M  V30 1971 H 179.853 3.7772 5.23448 0
M  V30 1972 H 180.621 5.77422 5.80109 0
M  V30 1973 N 183.284 -1.43765 0.645699 0
M  V30 1974 C 184.194 -2.34544 -0.0512957 0
M  V30 1975 C 185.21 -1.53455 -0.82022 0
M  V30 1976 O 186.386 -1.86133 -0.769176 0
M  V30 1977 C 183.451 -3.31636 -1.01087 0
M  V30 1978 C 182.512 -4.2863 -0.239712 0
M  V30 1979 C 181.745 -5.21084 -1.15358 0
M  V30 1980 O 181.968 -5.1779 -2.39269 0
M  V30 1981 O 180.902 -5.98593 -0.630038 0
M  V30 1982 H 184.728 -2.95624 0.695718 0
M  V30 1983 H 182.313 -1.43781 0.405882 0
M  V30 1984 H 184.195 -3.9136 -1.56254 0
M  V30 1985 H 182.87 -2.73069 -1.73824 0
M  V30 1986 H 181.777 -3.72408 0.355356 0
M  V30 1987 H 183.11 -4.90157 0.447936 0
M  V30 1988 N 184.763 -0.387143 -1.52771 0
M  V30 1989 C 185.711 0.463953 -2.27926 0
M  V30 1990 C 186.705 1.06493 -1.31741 0
M  V30 1991 O 187.911 1.00565 -1.49287 0
M  V30 1992 H 184.286 0.16837 -0.732909 0
M  V30 1993 H 186.257 -0.19141 -2.97785 0
M  V30 1994 C 185.006 1.5803 -3.09713 0
M  V30 1995 H 184.329 1.12718 -3.83581 0
M  V30 1996 H 185.769 2.15008 -3.65442 0
M  V30 1997 C 184.228 2.53509 -2.2189 0
M  V30 1998 O 184.758 3.56863 -1.84422 0
M  V30 1999 N 182.964 2.23199 -1.86093 0
M  V30 2000 H 182.511 1.39185 -2.16761 0
M  V30 2001 H 182.469 2.87333 -1.27621 0
M  V30 2002 N 186.241 1.57166 -0.116904 0
M  V30 2003 C 187.171 2.18222 0.830759 0
M  V30 2004 C 188.152 1.12167 1.27877 0
M  V30 2005 O 189.337 1.40394 1.34176 0
M  V30 2006 C 186.467 2.77996 2.08172 0
M  V30 2007 C 185.421 3.89614 1.77157 0
M  V30 2008 C 184.747 4.36187 3.09265 0
M  V30 2009 C 186.047 5.1181 1.04151 0
M  V30 2010 H 187.741 2.97664 0.321992 0
M  V30 2011 H 185.287 1.4318 0.153434 0
M  V30 2012 H 187.24 3.19366 2.74924 0
M  V30 2013 H 185.964 1.9584 2.6137 0
M  V30 2014 H 184.623 3.48816 1.12796 0
M  V30 2015 H 184.271 3.50893 3.60393 0
M  V30 2016 H 183.971 5.11455 2.89288 0
M  V30 2017 H 185.495 4.80207 3.77139 0
M  V30 2018 H 186.909 5.50214 1.61052 0
M  V30 2019 H 185.306 5.92648 0.942762 0
M  V30 2020 H 186.376 4.84892 0.0279022 0
M  V30 2021 N 187.719 -0.156864 1.56817 0
M  V30 2022 C 188.949 -0.885031 1.86684 0
M  V30 2023 C 189.357 -1.75696 0.701954 0
M  V30 2024 O 188.7 -1.80569 -0.337732 0
M  V30 2025 C 188.762 -1.80092 3.11138 0
M  V30 2026 C 188.426 -1.10714 4.43386 0
M  V30 2027 C 189.423 -0.465714 5.1781 0
M  V30 2028 C 187.108 -1.09959 4.90117 0
M  V30 2029 C 189.102 0.174002 6.37162 0
M  V30 2030 C 186.789 -0.456055 6.09396 0
M  V30 2031 C 187.787 0.179622 6.82764 0
M  V30 2032 O 187.475 0.812975 7.99779 0
M  V30 2033 H 187.207 -0.261813 0.623242 0
M  V30 2034 H 189.761 -0.157383 2.04796 0
M  V30 2035 H 187.991 -2.56926 2.89009 0
M  V30 2036 H 189.68 -2.40018 3.27332 0
M  V30 2037 H 190.446 -0.463427 4.82781 0
M  V30 2038 H 186.325 -1.58378 4.3294 0
M  V30 2039 H 189.869 0.670765 6.94368 0
M  V30 2040 H 185.766 -0.455975 6.43888 0
M  V30 2041 H 186.534 0.71366 8.15383 0
M  V30 2042 N 189.197 -1.51736 -0.425897 0
M  V30 2043 C 190.16 -1.73271 -1.50032 0
M  V30 2044 C 191.16 -0.602639 -1.4908 0
M  V30 2045 O 192.35 -0.87033 -1.509 0
M  V30 2046 C 189.482 -1.79969 -2.89523 0
M  V30 2047 H 190.675 -2.69172 -1.32237 0
M  V30 2048 H 188.228 -1.41899 -0.65532 0
M  V30 2049 H 188.963 -0.859241 -3.1271 0
M  V30 2050 H 188.748 -2.62109 -2.91619 0
M  V30 2051 H 190.238 -1.9843 -3.67444 0
M  V30 2052 N 190.675 0.682077 -1.42076 0
M  V30 2053 C 191.923 1.4393 -1.41876 0
M  V30 2054 C 192.244 1.94971 -0.0335599 0
M  V30 2055 O 191.514 1.72591 0.926773 0
M  V30 2056 H 190.094 0.534085 -0.522267 0
M  V30 2057 H 192.756 0.806427 -1.77434 0
M  V30 2058 H 191.852 2.29588 -2.11414 0
M  V30 2059 N 192.153 1.28127 0.917671 0
M  V30 2060 C 193.569 1.05749 1.19538 0
M  V30 2061 C 193.769 -0.202633 2.00479 0
M  V30 2062 O 192.825 -0.905382 2.3571 0
M  V30 2063 C 194.138 2.30273 1.93378 0
M  V30 2064 C 195.686 2.35412 2.06277 0
M  V30 2065 C 196.161 3.59692 2.83524 0
M  V30 2066 N 197.652 3.60309 2.91087 0
M  V30 2067 C 198.387 4.53147 3.51348 0
M  V30 2068 N 197.883 5.563 4.12919 0
M  V30 2069 N 199.676 4.40751 3.48849 0
M  V30 2070 H 191.827 2.09024 0.377184 0
M  V30 2071 H 194.09 0.919798 0.22951 0
M  V30 2072 H 193.796 3.22055 1.41328 0
M  V30 2073 H 193.67 2.36378 2.93947 0
M  V30 2074 H 196.057 1.4413 2.57508 0
M  V30 2075 H 196.138 2.33304 1.04895 0
M  V30 2076 H 195.782 4.51316 2.32973 0
M  V30 2077 H 195.712 3.59054 3.85211 0
M  V30 2078 H 198.203 2.85714 2.47338 0
M  V30 2079 H 198.516 6.2329 4.56869 0
M  V30 2080 H 196.861 5.60131 4.11435 0
M  V30 2081 H 200.052 3.59367 2.99955 0
M  V30 2082 H 200.225 5.13291 3.9552 0
M  V30 2083 N 193.631 -1.12557 1.10312 0
M  V30 2084 C 194.578 -2.18247 0.750781 0
M  V30 2085 C 195.548 -1.63853 -0.272293 0
M  V30 2086 O 196.733 -1.90195 -0.151862 0
M  V30 2087 C 193.873 -3.44591 0.187379 0
M  V30 2088 C 192.986 -4.13046 1.2656 0
M  V30 2089 C 192.121 -5.27034 0.663978 0
M  V30 2090 C 191.16 -5.87353 1.72287 0
M  V30 2091 N 190.297 -6.92757 1.1416 0
M  V30 2092 H 195.137 -2.47732 1.65628 0
M  V30 2093 H 192.674 -1.21629 0.827337 0
M  V30 2094 H 194.632 -4.16904 -0.157148 0
M  V30 2095 H 193.262 -3.15527 -0.681355 0
M  V30 2096 H 192.314 -3.38924 1.72727 0
M  V30 2097 H 193.626 -4.53947 2.06721 0
M  V30 2098 H 192.78 -6.06104 0.268824 0
M  V30 2099 H 191.519 -4.87407 -0.169082 0
M  V30 2100 H 190.524 -5.06971 2.12746 0
M  V30 2101 H 191.749 -6.29051 2.55875 0
M  V30 2102 H 189.695 -6.5517 0.329984 0
M  V30 2103 H 189.612 -7.3225 1.88007 0
M  V30 2104 H 190.88 -7.75658 0.772956 0
M  V30 2105 N 195.109 -0.891671 -1.2995 0
M  V30 2106 C 196.349 -0.520296 -1.97667 0
M  V30 2107 C 196.713 0.914797 -1.68806 0
M  V30 2108 O 197.914 1.39263 -2.29911 0
M  V30 2109 C 196.185 -0.795222 -3.48441 0
M  V30 2110 S 197.744 -0.526953 -4.35624 0
M  V30 2111 H 194.562 -0.19333 -0.684211 0
M  V30 2112 H 197.164 -1.15238 -1.57926 0
M  V30 2113 H 195.868 -1.83805 -3.66938 0
M  V30 2114 H 195.399 -0.15095 -3.9311 0
M  V30 2115 H 197.414 0.631533 -4.92165 0
M  V30 2116 N 196.587 1.43421 -0.653314 0
M  V30 2117 C 197.517 2.33487 0.0246656 0
M  V30 2118 C 198.498 1.49475 0.811863 0
M  V30 2119 O 199.683 1.78139 0.773322 0
M  V30 2120 C 196.813 3.32841 0.99166 0
M  V30 2121 C 195.767 4.26842 0.314568 0
M  V30 2122 C 195.093 5.16236 1.39302 0
M  V30 2123 C 196.393 5.16243 -0.793095 0
M  V30 2124 H 198.087 2.90427 -0.727481 0
M  V30 2125 H 195.633 1.39649 -0.351287 0
M  V30 2126 H 197.586 3.94747 1.47487 0
M  V30 2127 H 196.31 2.74158 1.77497 0
M  V30 2128 H 194.969 3.663 -0.148199 0
M  V30 2129 H 194.617 4.53891 2.16776 0
M  V30 2130 H 194.317 5.79948 0.945223 0
M  V30 2131 H 195.841 5.81015 1.87759 0
M  V30 2132 H 197.255 5.71958 -0.392039 0
M  V30 2133 H 195.652 5.88676 -1.16536 0
M  V30 2134 H 196.722 4.55927 -1.65103 0
M  V30 2135 N 198.065 0.39524 1.52563 0
M  V30 2136 C 198.995 -0.428384 2.29537 0
M  V30 2137 C 199.976 -1.05831 1.33169 0
M  V30 2138 O 201.161 -1.06995 1.62067 0
M  V30 2139 C 198.291 -1.55274 3.10656 0
M  V30 2140 C 197.245 -1.04855 4.14957 0
M  V30 2141 C 196.571 -2.26543 4.84337 0
M  V30 2142 C 197.871 -0.112324 5.22179 0
M  V30 2143 H 199.565 0.213867 2.98635 0
M  V30 2144 H 197.111 0.104298 1.43622 0
M  V30 2145 H 199.064 -2.1358 3.63265 0
M  V30 2146 H 197.788 -2.22266 2.39302 0
M  V30 2147 H 196.447 -0.487985 3.63338 0
M  V30 2148 H 196.095 -2.92059 4.09525 0
M  V30 2149 H 195.795 -1.93466 5.54837 0
M  V30 2150 H 197.319 -2.85481 5.39753 0
M  V30 2151 H 198.733 -0.603752 5.70112 0
M  V30 2152 H 197.13 0.128968 5.99961 0
M  V30 2153 H 198.2 0.837052 4.77621 0
M  V30 2154 N 199.544 -1.57102 0.125237 0
M  V30 2155 C 200.793 -1.94582 -0.531095 0
M  V30 2156 C 201.106 -1.01126 -1.6743 0
M  V30 2157 O 202.312 -1.28097 -2.39381 0
M  V30 2158 C 200.768 -3.45839 -0.996164 0
M  V30 2159 C 200.376 -4.47842 0.118926 0
M  V30 2160 C 202.12 -3.92227 -1.62352 0
M  V30 2161 C 200.027 -5.90284 -0.363192 0
M  V30 2162 H 198.957 -0.726391 -0.20217 0
M  V30 2163 H 201.608 -1.82339 0.206092 0
M  V30 2164 H 199.99 -3.53338 -1.78796 0
M  V30 2165 H 201.164 -4.52018 0.895358 0
M  V30 2166 H 199.479 -4.11243 0.653324 0
M  V30 2167 H 202.076 -4.96069 -1.99548 0
M  V30 2168 H 202.419 -3.32552 -2.50429 0
M  V30 2169 H 202.952 -3.87554 -0.897019 0
M  V30 2170 H 199.691 -6.53728 0.481679 0
M  V30 2171 H 199.211 -5.89515 -1.10597 0
M  V30 2172 H 200.89 -6.41752 -0.822377 0
M  V30 2173 N 201.022 0.148545 -1.56898 0
M  V30 2174 C 202.268 0.862694 -1.83536 0
M  V30 2175 C 202.601 1.80889 -0.706604 0
M  V30 2176 O 201.876 1.92328 0.289885 0
M  V30 2177 C 202.159 1.63853 -3.20662 0
M  V30 2178 C 202.012 0.713925 -4.44098 0
M  V30 2179 C 203.331 2.60133 -3.54991 0
M  V30 2180 H 200.45 0.312179 -0.667618 0
M  V30 2181 H 203.092 0.127953 -1.89569 0
M  V30 2182 H 201.242 2.26489 -3.1565 0
M  V30 2183 H 202.914 0.098686 -4.61194 0
M  V30 2184 H 201.157 0.0234019 -4.33794 0
M  V30 2185 H 201.828 1.29278 -5.36648 0
M  V30 2186 H 204.304 2.07616 -3.60603 0
M  V30 2187 H 203.18 3.11468 -4.51972 0
M  V30 2188 H 203.441 3.41417 -2.80868 0
M  V30 2189 N 202.5 1.5196 0.417844 0
M  V30 2190 C 203.433 1.69387 1.52916 0
M  V30 2191 C 204.411 0.541419 1.53321 0
M  V30 2192 O 205.595 0.767695 1.72159 0
M  V30 2193 C 202.722 1.72525 2.91467 0
M  V30 2194 C 201.768 2.93967 3.09008 0
M  V30 2195 S 202.601 4.54461 2.83242 0
M  V30 2196 C 203.757 4.60372 4.24038 0
M  V30 2197 H 203.99 2.63382 1.37903 0
M  V30 2198 H 201.523 1.41889 0.608845 0
M  V30 2199 H 203.481 1.75018 3.7132 0
M  V30 2200 H 202.142 0.796733 3.03827 0
M  V30 2201 H 201.335 2.92619 4.10353 0
M  V30 2202 H 200.937 2.89316 2.37007 0
M  V30 2203 H 203.229 4.37213 5.17544 0
M  V30 2204 H 204.172 5.62273 4.30412 0
M  V30 2205 H 204.58 3.89492 4.08602 0
M  V30 2206 N 203.978 -0.674533 1.42435 0
M  V30 2207 C 204.888 -1.81751 1.48337 0
M  V30 2208 C 205.904 -1.69975 0.372099 0
M  V30 2209 O 207.08 -1.91521 0.62304 0
M  V30 2210 C 204.145 -3.17895 1.38361 0
M  V30 2211 C 203.206 -3.41625 2.59982 0
M  V30 2212 C 202.439 -4.71274 2.50473 0
M  V30 2213 O 202.662 -5.49197 1.54075 0
M  V30 2214 O 201.596 -4.96254 3.4061 0
M  V30 2215 H 205.422 -1.79728 2.44809 0
M  V30 2216 H 203.007 -0.830312 1.24202 0
M  V30 2217 H 204.889 -3.99136 1.35161 0
M  V30 2218 H 203.564 -3.20555 0.450144 0
M  V30 2219 H 202.471 -2.60231 2.68757 0
M  V30 2220 H 203.804 -3.43796 3.52229 0
M  V30 2221 N 205.456 -1.28612 -0.910864 0
M  V30 2222 C 206.696 -1.1719 -1.67469 0
M  V30 2223 C 207.06 0.274441 -1.90028 0
M  V30 2224 O 208.261 0.511425 -2.6389 0
M  V30 2225 C 206.532 -1.95137 -2.99427 0
M  V30 2226 S 208.091 -2.00122 -3.90508 0
M  V30 2227 H 204.909 -0.41806 -0.575106 0
M  V30 2228 H 207.511 -1.6275 -1.08317 0
M  V30 2229 H 206.215 -2.99381 -2.80712 0
M  V30 2230 H 205.746 -1.50137 -3.63624 0
M  V30 2231 H 207.761 -1.10981 -4.8363 0
M  V30 2232 N 206.934 1.1197 -1.10907 0
M  V30 2233 C 207.864 2.19928 -0.784473 0
M  V30 2234 C 208.845 1.6833 0.244726 0
M  V30 2235 O 210.03 1.93892 0.109418 0
M  V30 2236 C 207.16 3.46597 -0.220827 0
M  V30 2237 C 206.114 4.11376 -1.18127 0
M  V30 2238 C 205.44 5.32554 -0.478594 0
M  V30 2239 C 206.74 4.56945 -2.52979 0
M  V30 2240 H 208.434 2.47337 -1.68715 0
M  V30 2241 H 205.98 1.18879 -0.812642 0
M  V30 2242 H 207.933 4.21396 0.0184278 0
M  V30 2243 H 206.657 3.1863 0.717113 0
M  V30 2244 H 205.316 3.38564 -1.40606 0
M  V30 2245 H 204.964 5.00856 0.463976 0
M  V30 2246 H 204.664 5.76844 -1.11912 0
M  V30 2247 H 206.188 6.10096 -0.248 0
M  V30 2248 H 207.602 5.23093 -2.3462 0
M  V30 2249 H 205.999 5.1203 -3.12962 0
M  V30 2250 H 207.069 3.70676 -3.12614 0
M  V30 2251 N 208.412 0.89855 1.29475 0
M  V30 2252 C 209.689 0.443416 1.90508 0
M  V30 2253 C 210.069 -1.07685 1.81569 0
M  V30 2254 O 209.417 -1.9182 1.24166 0
M  V30 2255 C 209.627 0.956708 3.35631 0
M  V30 2256 C 210.975 0.999728 4.12663 0
M  V30 2257 O 211.999 0.904299 3.4453 0
M  V30 2258 O 210.858 1.14289 5.34416 0
M  V30 2259 H 207.952 0.138025 0.815401 0
M  V30 2260 H 210.498 0.98834 1.37949 0
M  V30 2261 H 209.27 2.00067 3.36287 0
M  V30 2262 H 208.893 0.391728 3.95666 0
M  V30 2263 N 209.89 -1.43072 0.660911 0
M  V30 2264 C 211.138 -2.01323 0.177094 0
M  V30 2265 C 211.459 -1.5245 -1.2159 0
M  V30 2266 O 210.729 -0.740322 -1.81373 0
M  V30 2267 H 209.309 -0.744382 0.0624804 0
M  V30 2268 H 211.971 -1.75179 0.854305 0
M  V30 2269 H 211.067 -3.11649 0.167641 0
M  V30 2270 N 211.368 -0.403325 -1.52352 0
M  V30 2271 C 212.616 0.174003 -2.0135 0
M  V30 2272 C 212.937 1.46139 -1.29106 0
M  V30 2273 O 212.207 1.91448 -0.415253 0
M  V30 2274 H 210.787 0.0672911 -0.743963 0
M  V30 2275 H 213.449 -0.538235 -1.87321 0
M  V30 2276 H 212.545 0.374254 -3.09848 0
M  V30 2277 N 212.846 1.57033 -0.133567 0
M  V30 2278 C 213.756 2.19632 0.824564 0
M  V30 2279 C 214.772 1.17666 1.28182 0
M  V30 2280 O 215.948 1.50193 1.3418 0
M  V30 2281 C 213.013 2.79499 2.05137 0
M  V30 2282 C 212.074 3.96548 1.64464 0
M  V30 2283 C 211.307 4.5355 2.81297 0
M  V30 2284 O 211.53 4.09438 3.97136 0
M  V30 2285 O 210.464 5.44018 2.57542 0
M  V30 2286 H 214.29 3.01991 0.321766 0
M  V30 2287 H 211.875 1.49112 0.0927889 0
M  V30 2288 H 213.757 3.17602 2.7696 0
M  V30 2289 H 212.432 2.00162 2.54395 0
M  V30 2290 H 211.339 3.63186 0.897048 0
M  V30 2291 H 212.672 4.77364 1.19934 0
M  V30 2292 N 214.325 -0.140222 1.56975 0
M  V30 2293 C 215.255 -1.17456 2.01808 0
M  V30 2294 C 216.236 -1.44415 0.898794 0
M  V30 2295 O 217.421 -1.5522 1.16707 0
M  V30 2296 C 214.551 -2.50607 2.40444 0
M  V30 2297 C 213.505 -2.38155 3.55621 0
M  V30 2298 C 212.831 -3.76078 3.80091 0
M  V30 2299 C 214.131 -1.85991 4.88062 0
M  V30 2300 H 215.825 -0.801743 2.88466 0
M  V30 2301 H 213.371 -0.38422 1.38779 0
M  V30 2302 H 215.324 -3.23197 2.7041 0
M  V30 2303 H 214.048 -2.89737 1.50732 0
M  V30 2304 H 212.707 -1.68016 3.25832 0
M  V30 2305 H 212.355 -4.12656 2.87618 0
M  V30 2306 H 212.055 -3.68606 4.57606 0
M  V30 2307 H 213.579 -4.50206 4.12488 0
M  V30 2308 H 214.993 -2.4838 5.16701 0
M  V30 2309 H 213.39 -1.89393 5.6943 0
M  V30 2310 H 214.46 -0.816023 4.77984 0
M  V30 2311 N 215.803 -1.52179 -0.40978 0
M  V30 2312 C 217.05 -1.66206 -1.15679 0
M  V30 2313 C 217.378 -0.391674 -1.90516 0
M  V30 2314 O 216.633 0.62533 -1.8544 0
M  V30 2315 C 216.932 -2.83428 -2.17723 0
M  V30 2316 C 216.598 -4.21672 -1.59699 0
M  V30 2317 C 215.26 -4.59274 -1.43599 0
M  V30 2318 C 217.612 -5.07825 -1.17317 0
M  V30 2319 C 214.94 -5.80709 -0.836328 0
M  V30 2320 C 217.292 -6.29864 -0.587691 0
M  V30 2321 C 215.956 -6.66216 -0.413818 0
M  V30 2322 H 215.226 -0.608192 -0.423301 0
M  V30 2323 H 217.873 -1.86279 -0.444097 0
M  V30 2324 H 216.178 -2.57687 -2.95135 0
M  V30 2325 H 217.875 -2.91477 -2.75394 0
M  V30 2326 H 214.465 -3.9204 -1.73213 0
M  V30 2327 H 218.649 -4.79359 -1.28565 0
M  V30 2328 H 213.905 -6.07498 -0.689626 0
M  V30 2329 H 218.079 -6.95948 -0.250894 0
M  V30 2330 H 215.706 -7.60182 0.0529471 0
M  V30 2331 N 217.281 0.66697 -1.42791 0
M  V30 2332 C 218.506 1.46004 -1.47301 0
M  V30 2333 C 218.931 1.87894 -0.0880317 0
M  V30 2334 O 218.289 1.56502 0.915253 0
M  V30 2335 C 218.337 2.68031 -2.41229 0
M  V30 2336 O 217.441 3.6659 -1.88906 0
M  V30 2337 H 216.782 0.43832 -0.49877 0
M  V30 2338 H 219.312 0.817391 -1.87563 0
M  V30 2339 H 219.322 3.1601 -2.58073 0
M  V30 2340 H 217.997 2.36883 -3.41847 0
M  V30 2341 H 216.574 3.25661 -1.81656 0
M  V30 2342 N 218.759 1.29093 0.90403 0
M  V30 2343 C 220.175 1.07011 1.1841 0
M  V30 2344 C 220.375 -0.181358 2.00682 0
M  V30 2345 O 219.431 -0.880331 2.36657 0
M  V30 2346 C 220.744 2.32311 1.90924 0
M  V30 2347 C 222.292 2.37587 2.03768 0
M  V30 2348 C 222.767 3.62679 2.79693 0
M  V30 2349 N 224.258 3.63376 2.87249 0
M  V30 2350 C 224.993 4.56848 3.46522 0
M  V30 2351 N 224.489 5.60648 4.06996 0
M  V30 2352 N 226.282 4.44426 3.44154 0
M  V30 2353 H 218.433 2.09412 0.354993 0
M  V30 2354 H 220.696 0.922181 0.219742 0
M  V30 2355 H 220.402 3.23536 1.37905 0
M  V30 2356 H 220.276 2.39483 2.91424 0
M  V30 2357 H 222.663 1.46853 2.55965 0
M  V30 2358 H 222.744 2.34403 1.02415 0
M  V30 2359 H 222.388 4.53762 2.28173 0
M  V30 2360 H 222.318 3.63119 3.81381 0
M  V30 2361 H 224.809 2.88321 2.44293 0
M  V30 2362 H 225.122 6.28101 4.50232 0
M  V30 2363 H 223.467 5.64463 4.05471 0
M  V30 2364 H 226.658 3.62529 2.96126 0
M  V30 2365 H 226.831 5.17457 3.90054 0
M  V30 2366 N 220.237 -1.11381 1.11499 0
M  V30 2367 C 221.486 -1.82494 0.858993 0
M  V30 2368 C 221.799 -1.85605 -0.617278 0
M  V30 2369 O 223.005 -2.52824 -0.989552 0
M  V30 2370 C 221.461 -3.27745 1.48699 0
M  V30 2371 C 221.069 -3.32961 2.99735 0
M  V30 2372 C 222.813 -4.03754 1.31085 0
M  V30 2373 C 220.72 -4.72612 3.55516 0
M  V30 2374 H 219.65 -0.683802 0.317696 0
M  V30 2375 H 222.301 -1.25331 1.34031 0
M  V30 2376 H 220.683 -3.84844 0.933339 0
M  V30 2377 H 221.857 -2.85741 3.61509 0
M  V30 2378 H 220.172 -2.70433 3.16631 0
M  V30 2379 H 222.769 -5.06891 1.70192 0
M  V30 2380 H 223.112 -4.15527 0.253496 0
M  V30 2381 H 223.645 -3.53043 1.83318 0
M  V30 2382 H 220.384 -4.66036 4.60967 0
M  V30 2383 H 219.904 -5.2024 2.98513 0
M  V30 2384 H 221.583 -5.4157 3.53992 0
M  V30 2385 N 221.715 -0.905404 -1.28997 0
M  V30 2386 C 222.647 -0.344748 -2.26592 0
M  V30 2387 C 223.66 0.512135 -1.54535 0
M  V30 2388 O 224.849 0.328368 -1.75454 0
M  V30 2389 C 221.949 0.526587 -3.34784 0
M  V30 2390 C 221.122 -0.305871 -4.36329 0
M  V30 2391 C 220.181 0.499209 -5.23827 0
M  V30 2392 O 219.207 -0.0853004 -5.69136 0
M  V30 2393 N 220.409 1.80408 -5.51755 0
M  V30 2394 H 223.174 -1.18359 -2.75338 0
M  V30 2395 H 220.735 -0.770481 -1.42391 0
M  V30 2396 H 222.727 1.07171 -3.90252 0
M  V30 2397 H 221.297 1.26613 -2.85811 0
M  V30 2398 H 220.517 -1.0324 -3.80441 0
M  V30 2399 H 221.805 -0.875773 -5.01206 0
M  V30 2400 H 221.203 2.3016 -5.16762 0
M  V30 2401 H 219.76 2.29621 -6.10014 0
M  V30 2402 N 223.193 1.4272 -0.668489 0
M  V30 2403 C 224.47 1.95248 -0.117373 0
M  V30 2404 C 224.85 1.60919 1.36632 0
M  V30 2405 O 224.198 0.902095 2.09939 0
M  V30 2406 C 224.408 3.46927 -0.379806 0
M  V30 2407 C 225.756 4.23588 -0.292923 0
M  V30 2408 O 226.78 3.5482 -0.313204 0
M  V30 2409 O 225.639 5.46017 -0.229697 0
M  V30 2410 H 222.733 0.827 0.00079152 0
M  V30 2411 H 225.279 1.52581 -0.742783 0
M  V30 2412 H 224.051 3.65096 -1.40786 0
M  V30 2413 H 223.674 3.96627 0.277923 0
M  V30 2414 N 224.671 0.411399 1.52136 0
M  V30 2415 C 226.087 0.0623865 1.59478 0
M  V30 2416 C 226.287 -1.42554 1.4241 0
M  V30 2417 O 225.343 -2.19263 1.2522 0
M  V30 2418 C 226.656 0.559331 2.95452 0
M  V30 2419 C 228.204 0.517503 3.08692 0
M  V30 2420 C 228.679 0.990994 4.4715 0
M  V30 2421 N 230.17 0.947908 4.53397 0
M  V30 2422 C 230.905 1.28544 5.58806 0
M  V30 2423 N 230.401 1.69454 6.71757 0
M  V30 2424 N 232.194 1.20526 5.49026 0
M  V30 2425 H 224.345 1.37982 1.61477 0
M  V30 2426 H 226.608 0.566977 0.759764 0
M  V30 2427 H 226.314 1.59938 3.1323 0
M  V30 2428 H 226.188 -0.0298014 3.77188 0
M  V30 2429 H 228.575 -0.513505 2.90598 0
M  V30 2430 H 228.656 1.14272 2.28857 0
M  V30 2431 H 228.3 2.02034 4.65988 0
M  V30 2432 H 228.23 0.34257 5.25485 0
M  V30 2433 H 230.721 0.647157 3.72317 0
M  V30 2434 H 231.034 1.93513 7.48179 0
M  V30 2435 H 229.379 1.73359 6.73032 0
M  V30 2436 H 232.57 0.884505 4.59667 0
M  V30 2437 H 232.743 1.47161 6.31069 0
M  V30 2438 N 226.149 -1.5696 0.141893 0
M  V30 2439 C 227.397 -1.95573 -0.509484 0
M  V30 2440 C 227.718 -1.02746 -1.65736 0
M  V30 2441 O 226.988 -0.0880311 -1.95702 0
M  V30 2442 H 225.568 -0.722115 -0.191205 0
M  V30 2443 H 228.23 -1.93697 0.216196 0
M  V30 2444 H 227.326 -2.99171 -0.889 0
M  V30 2445 N 227.627 0.131896 -1.57047 0
M  V30 2446 C 228.904 0.871495 -1.75112 0
M  V30 2447 C 229.284 1.9866 -0.713949 0
M  V30 2448 O 228.632 2.26965 0.264447 0
M  V30 2449 C 228.842 1.40007 -3.19686 0
M  V30 2450 C 230.19 1.85752 -3.81813 0
M  V30 2451 O 231.214 1.49715 -3.23209 0
M  V30 2452 O 230.073 2.5226 -4.84796 0
M  V30 2453 H 227.167 0.412919 -0.716538 0
M  V30 2454 H 229.713 0.116641 -1.69299 0
M  V30 2455 H 228.485 0.599404 -3.86682 0
M  V30 2456 H 228.108 2.218 -3.29986 0
M  V30 2457 N 229.106 1.52395 0.401703 0
M  V30 2458 C 230.038 1.72505 1.50912 0
M  V30 2459 C 231.051 0.605468 1.51122 0
M  V30 2460 O 232.24 0.880828 1.55254 0
M  V30 2461 C 229.34 1.75711 2.89791 0
M  V30 2462 C 228.513 3.04824 3.1369 0
M  V30 2463 C 227.572 2.99743 4.32482 0
M  V30 2464 O 226.598 3.73635 4.29402 0
M  V30 2465 N 227.8 2.18047 5.37992 0
M  V30 2466 H 230.565 2.68049 1.34052 0
M  V30 2467 H 228.126 1.50724 0.591084 0
M  V30 2468 H 230.118 1.69834 3.6734 0
M  V30 2469 H 228.688 0.876092 3.00072 0
M  V30 2470 H 227.908 3.2429 2.24119 0
M  V30 2471 H 229.196 3.90221 3.26504 0
M  V30 2472 H 228.594 1.57456 5.43345 0
M  V30 2473 H 227.151 2.18021 6.14256 0
M  V30 2474 N 230.584 -0.659388 1.43143 0
M  V30 2475 C 231.547 -1.75432 1.47501 0
M  V30 2476 C 232.547 -1.56707 0.360512 0
M  V30 2477 O 233.737 -1.62717 0.622002 0
M  V30 2478 C 230.869 -3.14239 1.32162 0
M  V30 2479 H 232.062 -1.7295 2.45006 0
M  V30 2480 H 229.615 -0.870469 1.29817 0
M  V30 2481 H 230.35 -3.22336 0.356401 0
M  V30 2482 H 230.135 -3.29235 2.12948 0
M  V30 2483 H 231.625 -3.94094 1.3813 0
M  V30 2484 N 232.062 -1.29571 -0.897171 0
M  V30 2485 C 233.309 -1.17689 -1.6479 0
M  V30 2486 C 233.637 0.27107 -1.92602 0
M  V30 2487 O 232.892 1.21193 -1.53658 0
M  V30 2488 C 233.191 -1.9382 -3.00281 0
M  V30 2489 C 232.857 -3.43522 -2.92068 0
M  V30 2490 C 231.519 -3.84348 -2.89535 0
M  V30 2491 C 233.871 -4.38906 -2.81089 0
M  V30 2492 C 231.199 -5.18869 -2.73846 0
M  V30 2493 C 233.551 -5.73521 -2.66939 0
M  V30 2494 C 232.215 -6.13601 -2.62774 0
M  V30 2495 H 231.485 -0.430654 -0.603008 0
M  V30 2496 H 234.132 -1.60536 -1.04404 0
M  V30 2497 H 232.437 -1.4357 -3.64547 0
M  V30 2498 H 234.134 -1.82028 -3.57305 0
M  V30 2499 H 230.724 -3.11072 -2.94842 0
M  V30 2500 H 234.908 -4.08315 -2.82121 0
M  V30 2501 H 230.164 -5.4903 -2.69027 0
M  V30 2502 H 234.338 -6.47078 -2.57416 0
M  V30 2503 H 231.965 -7.17786 -2.50375 0
M  V30 2504 N 233.54 1.10788 -1.12088 0
M  V30 2505 C 234.768 1.86461 -0.896651 0
M  V30 2506 C 235.183 1.80492 0.553912 0
M  V30 2507 O 234.54 1.19102 1.38278 0
M  V30 2508 C 234.591 3.35006 -1.35843 0
M  V30 2509 O 234.312 3.40866 -2.75213 0
M  V30 2510 C 235.813 4.27565 -1.1706 0
M  V30 2511 H 233.033 0.589425 -0.320654 0
M  V30 2512 H 235.577 1.40076 -1.48993 0
M  V30 2513 H 233.732 3.7887 -0.808458 0
M  V30 2514 H 234.146 4.33411 -2.9539 0
M  V30 2515 H 235.62 5.30007 -1.54263 0
M  V30 2516 H 236.097 4.3906 -0.110814 0
M  V30 2517 H 236.703 3.89501 -1.70789 0
M  V30 2518 N 235.018 0.912232 1.28515 0
M  V30 2519 C 235.928 0.404506 2.31086 0
M  V30 2520 C 236.944 -0.50707 1.66448 0
M  V30 2521 O 238.12 -0.393624 1.97516 0
M  V30 2522 C 235.185 -0.348572 3.44943 0
M  V30 2523 C 234.246 0.59604 4.25142 0
M  V30 2524 C 233.479 -0.121194 5.33562 0
M  V30 2525 O 233.702 -1.34317 5.5436 0
M  V30 2526 O 232.636 0.542716 5.99448 0
M  V30 2527 H 236.462 1.25579 2.76521 0
M  V30 2528 H 234.047 0.676998 1.33181 0
M  V30 2529 H 235.929 -0.77395 4.14232 0
M  V30 2530 H 234.604 -1.17571 3.01594 0
M  V30 2531 H 233.511 1.07079 3.58448 0
M  V30 2532 H 234.844 1.38995 4.72167 0
M  V30 2533 N 236.496 -1.42363 0.676048 0
M  V30 2534 C 237.912 -1.55811 0.345718 0
M  V30 2535 C 238.112 -1.65544 -1.14879 0
M  V30 2536 O 237.168 -1.62306 -1.93424 0
M  V30 2537 C 238.481 -2.80746 1.07713 0
M  V30 2538 C 240.029 -2.9452 1.05958 0
M  V30 2539 C 240.504 -4.22318 1.77233 0
M  V30 2540 N 241.995 -4.29233 1.74108 0
M  V30 2541 C 242.73 -5.26935 2.26113 0
M  V30 2542 N 242.226 -6.30783 2.86505 0
M  V30 2543 N 244.019 -5.18741 2.1648 0
M  V30 2544 H 236.17 -1.34289 1.6456 0
M  V30 2545 H 238.433 -0.646506 0.69335 0
M  V30 2546 H 238.139 -2.79696 2.13221 0
M  V30 2547 H 238.013 -3.71676 0.64316 0
M  V30 2548 H 240.4 -2.95097 0.0128255 0
M  V30 2549 H 240.481 -2.04817 1.53244 0
M  V30 2550 H 240.125 -4.22502 2.81877 0
M  V30 2551 H 240.055 -5.10958 1.27396 0
M  V30 2552 H 242.546 -3.54814 1.30059 0
M  V30 2553 H 242.859 -7.01691 3.23805 0
M  V30 2554 H 241.204 -6.31341 2.90575 0
M  V30 2555 H 244.395 -4.36533 1.68987 0
M  V30 2556 H 244.568 -5.94721 2.57316 0
M  V30 2557 N 237.974 -0.419461 -1.51915 0
M  V30 2558 C 238.884 0.407528 -2.31033 0
M  V30 2559 C 239.9 1.04413 -1.3919 0
M  V30 2560 O 241.076 1.0434 -1.72265 0
M  V30 2561 C 238.141 1.50365 -3.12396 0
M  V30 2562 C 237.202 0.889029 -4.19994 0
M  V30 2563 C 236.435 1.93291 -4.97468 0
M  V30 2564 O 236.658 3.15259 -4.75361 0
M  V30 2565 O 235.592 1.53339 -5.8204 0
M  V30 2566 H 239.418 -0.237865 -3.02767 0
M  V30 2567 H 237.003 -0.182413 -1.48282 0
M  V30 2568 H 238.885 2.13975 -3.63032 0
M  V30 2569 H 237.56 2.13345 -2.43445 0
M  V30 2570 H 236.467 0.215353 -3.7348 0
M  V30 2571 H 237.8 0.302991 -4.91267 0
M  V30 2572 N 239.452 1.56882 -0.150215 0
M  V30 2573 C 240.415 2.1573 0.774157 0
M  V30 2574 C 241.415 1.0999 1.17298 0
M  V30 2575 O 242.605 1.35613 1.09338 0
M  V30 2576 C 239.737 2.72302 2.05096 0
M  V30 2577 H 240.93 2.98752 0.262201 0
M  V30 2578 H 238.483 1.55985 0.099248 0
M  V30 2579 H 239.218 1.92956 2.6065 0
M  V30 2580 H 239.003 3.49665 1.77416 0
M  V30 2581 H 240.493 3.17632 2.71109 0
M  V30 2582 N 240.93 -0.123565 1.57115 0
M  V30 2583 C 242.155 -0.850398 1.89164 0
M  V30 2584 C 242.58 -1.7286 0.741688 0
M  V30 2585 O 241.938 -1.78665 -0.307958 0
M  V30 2586 C 241.986 -1.66353 3.19936 0
M  V30 2587 O 241.09 -2.77004 3.0552 0
M  V30 2588 H 240.431 -0.235454 0.620852 0
M  V30 2589 H 242.961 -0.107335 2.04318 0
M  V30 2590 H 242.971 -2.05372 3.52543 0
M  V30 2591 H 241.646 -1.01881 4.03228 0
M  V30 2592 H 240.223 -2.41221 2.84371 0
M  V30 2593 N 242.408 -1.52605 -0.393616 0
M  V30 2594 C 243.318 -1.79971 -1.50492 0
M  V30 2595 C 244.334 -0.686181 -1.59899 0
M  V30 2596 O 245.51 -0.973274 -1.76322 0
M  V30 2597 C 242.575 -1.95867 -2.86072 0
M  V30 2598 C 241.636 -3.19781 -2.86424 0
M  V30 2599 C 240.869 -3.34909 -4.15538 0
M  V30 2600 O 241.092 -2.54948 -5.10253 0
M  V30 2601 O 240.026 -4.28141 -4.23059 0
M  V30 2602 H 243.852 -2.74328 -1.30299 0
M  V30 2603 H 241.437 -1.3764 -0.581005 0
M  V30 2604 H 243.319 -2.08056 -3.66457 0
M  V30 2605 H 241.994 -1.04699 -3.063 0
M  V30 2606 H 240.901 -3.13038 -2.04837 0
M  V30 2607 H 242.234 -4.1078 -2.71147 0
M  V30 2608 N 243.887 0.651787 -1.4349 0
M  V30 2609 C 245.136 1.40754 -1.44469 0
M  V30 2610 C 245.449 1.95463 -0.0731845 0
M  V30 2611 O 246.655 2.71471 0.0395721 0
M  V30 2612 C 245.111 2.54735 -2.5424 0
M  V30 2613 C 244.719 2.06628 -3.97504 0
M  V30 2614 C 246.463 3.32092 -2.64414 0
M  V30 2615 C 244.37 3.17829 -4.98737 0
M  V30 2616 H 243.3 0.528862 -0.53742 0
M  V30 2617 H 245.951 0.703365 -1.69485 0
M  V30 2618 H 244.333 3.2763 -2.22428 0
M  V30 2619 H 245.507 1.40734 -4.38783 0
M  V30 2620 H 243.822 1.42146 -3.91387 0
M  V30 2621 H 246.419 4.14952 -3.37223 0
M  V30 2622 H 246.762 3.80217 -1.69532 0
M  V30 2623 H 247.295 2.66279 -2.95534 0
M  V30 2624 H 244.034 2.74671 -5.95177 0
M  V30 2625 H 243.554 3.82429 -4.62069 0
M  V30 2626 H 245.233 3.82937 -5.21505 0
M  V30 2627 N 245.365 1.30045 0.890287 0
M  V30 2628 C 246.298 1.10301 1.99772 0
M  V30 2629 C 247.276 0.0121631 1.62595 0
M  V30 2630 O 248.46 0.16469 1.87779 0
M  V30 2631 C 245.587 0.681125 3.31781 0
M  V30 2632 C 244.633 1.77206 3.87944 0
M  V30 2633 S 245.466 3.37335 4.15891 0
M  V30 2634 C 246.622 2.97036 5.50927 0
M  V30 2635 H 246.855 2.04057 2.16213 0
M  V30 2636 H 244.388 1.14299 1.03804 0
M  V30 2637 H 246.346 0.444439 4.08087 0
M  V30 2638 H 245.007 -0.236981 3.13205 0
M  V30 2639 H 244.2 1.42903 4.83316 0
M  V30 2640 H 243.802 1.96275 3.18358 0
M  V30 2641 H 246.094 2.44666 6.31779 0
M  V30 2642 H 247.037 3.91296 5.90164 0
M  V30 2643 H 247.445 2.35057 5.13233 0
M  V30 2644 N 246.843 -1.10192 1.12674 0
M  V30 2645 C 247.79 -2.16606 0.796906 0
M  V30 2646 C 248.76 -1.64394 -0.237476 0
M  V30 2647 O 249.945 -1.90474 -0.111484 0
M  V30 2648 C 247.085 -3.44116 0.26043 0
M  V30 2649 C 246.198 -4.10268 1.35293 0
M  V30 2650 C 245.333 -5.25507 0.775621 0
M  V30 2651 C 244.372 -5.83567 1.84706 0
M  V30 2652 N 243.509 -6.90179 1.28829 0
M  V30 2653 H 248.349 -2.44163 1.70846 0
M  V30 2654 H 245.886 -1.19846 0.85295 0
M  V30 2655 H 247.844 -4.17143 -0.0686814 0
M  V30 2656 H 246.474 -3.16901 -0.614274 0
M  V30 2657 H 245.526 -3.35184 1.79877 0
M  V30 2658 H 246.838 -4.4946 2.16303 0
M  V30 2659 H 245.992 -6.05398 0.397327 0
M  V30 2660 H 244.731 -4.87656 -0.0656581 0
M  V30 2661 H 243.736 -5.02344 2.23452 0
M  V30 2662 H 244.961 -6.23482 2.69161 0
M  V30 2663 H 242.907 -6.54322 0.468881 0
M  V30 2664 H 242.824 -7.28097 2.03497 0
M  V30 2665 H 244.092 -7.73844 0.937311 0
M  V30 2666 N 248.321 -0.919034 -1.28029 0
M  V30 2667 C 249.546 -0.570357 -1.99403 0
M  V30 2668 C 249.971 0.842486 -1.68178 0
M  V30 2669 O 249.329 1.56391 -0.917141 0
M  V30 2670 C 249.377 -0.792541 -3.51783 0
M  V30 2671 O 248.481 0.145988 -4.12142 0
M  V30 2672 H 247.822 -0.220555 -0.6263 0
M  V30 2673 H 250.352 -1.23592 -1.63053 0
M  V30 2674 H 250.362 -0.704708 -4.01868 0
M  V30 2675 H 249.037 -1.82247 -3.73844 0
M  V30 2676 H 247.614 0.00897528 -3.72899 0
M  V30 2677 N 249.799 1.42003 -0.683588 0
M  V30 2678 C 251.048 2.00638 -0.206681 0
M  V30 2679 C 251.361 1.5472 1.19671 0
M  V30 2680 O 252.567 2.05833 1.77045 0
M  V30 2681 C 251.023 3.58487 -0.318632 0
M  V30 2682 C 250.631 4.1339 -1.72663 0
M  V30 2683 C 252.375 4.24384 0.0991141 0
M  V30 2684 C 250.282 5.63633 -1.79087 0
M  V30 2685 H 249.212 0.750408 -0.0735107 0
M  V30 2686 H 251.863 1.62624 -0.850048 0
M  V30 2687 H 250.245 3.94047 0.392781 0
M  V30 2688 H 251.419 3.89273 -2.46583 0
M  V30 2689 H 249.734 3.59976 -2.09299 0
M  V30 2690 H 252.331 5.34652 0.0713833 0
M  V30 2691 H 252.674 4.00505 1.13586 0
M  V30 2692 H 253.207 3.93816 -0.561599 0
M  V30 2693 H 249.946 5.92323 -2.80774 0
M  V30 2694 H 249.466 5.89714 -1.09535 0
M  V30 2695 H 251.145 6.28201 -1.5483 0
M  V30 2696 N 251.277 0.427512 1.51691 0
M  V30 2697 C 252.525 -0.141948 2.01601 0
M  V30 2698 C 252.846 -1.44067 1.31414 0
M  V30 2699 O 252.116 -1.90763 0.445658 0
M  V30 2700 H 250.696 -0.0554468 0.744939 0
M  V30 2701 H 253.358 0.567968 1.86441 0
M  V30 2702 H 252.454 -0.324913 3.10404 0
M  V30 2703 N 252.755 -1.56801 0.158532 0
M  V30 2704 C 253.665 -2.20916 -0.789518 0
M  V30 2705 C 254.681 -1.1969 -1.26294 0
M  V30 2706 O 255.857 -1.52308 -1.31773 0
M  V30 2707 C 252.922 -2.82727 -2.00665 0
M  V30 2708 C 251.983 -3.99114 -1.58134 0
M  V30 2709 C 251.216 -4.57968 -2.74045 0
M  V30 2710 O 251.439 -4.15704 -3.90572 0
M  V30 2711 O 250.373 -5.48047 -2.48855 0
M  V30 2712 H 254.199 -3.02464 -0.273681 0
M  V30 2713 H 251.784 -1.4924 -0.0690548 0
M  V30 2714 H 253.666 -3.21968 -2.71872 0
M  V30 2715 H 252.341 -2.04184 -2.51179 0
M  V30 2716 H 251.248 -3.64567 -0.839155 0
M  V30 2717 H 252.581 -4.79212 -1.12325 0
M  V30 2718 N 254.233 0.115231 -1.57178 0
M  V30 2719 C 255.196 1.12526 -1.99676 0
M  V30 2720 C 256.196 1.34095 -0.88742 0
M  V30 2721 O 257.386 1.30548 -1.15337 0
M  V30 2722 C 254.518 2.4789 -2.34015 0
M  V30 2723 H 255.711 0.759912 -2.90113 0
M  V30 2724 H 253.264 0.359648 -1.52106 0
M  V30 2725 H 253.999 2.89339 -1.4647 0
M  V30 2726 H 253.784 2.33588 -3.14927 0
M  V30 2727 H 255.274 3.20575 -2.67622 0
M  V30 2728 N 255.711 1.52812 0.385517 0
M  V30 2729 C 256.96 1.67249 1.12741 0
M  V30 2730 C 257.273 0.4205 1.91027 0
M  V30 2731 O 258.479 0.445064 2.67827 0
M  V30 2732 C 256.935 2.95583 2.05326 0
M  V30 2733 C 256.543 4.27974 1.32447 0
M  V30 2734 C 258.287 3.19386 2.7963 0
M  V30 2735 C 256.194 5.47412 2.23818 0
M  V30 2736 H 255.124 0.6231 0.424573 0
M  V30 2737 H 257.775 1.79309 0.389924 0
M  V30 2738 H 256.157 2.77277 2.82725 0
M  V30 2739 H 257.331 4.56844 0.602495 0
M  V30 2740 H 255.646 4.10459 0.700885 0
M  V30 2741 H 258.243 4.05801 3.48181 0
M  V30 2742 H 258.586 2.34604 3.43899 0
M  V30 2743 H 259.119 3.38274 2.09322 0
M  V30 2744 H 255.858 6.34612 1.64157 0
M  V30 2745 H 255.378 5.22849 2.93921 0
M  V30 2746 H 257.057 5.81423 2.83824 0
M  V30 2747 N 257.189 -0.644168 1.43834 0
M  V30 2748 C 258.121 -1.76955 1.45669 0
M  V30 2749 C 259.134 -1.58956 0.351666 0
M  V30 2750 O 260.323 -1.6751 0.616644 0
M  V30 2751 C 257.423 -3.14507 1.26248 0
M  V30 2752 C 256.596 -3.59083 2.49757 0
M  V30 2753 C 255.655 -4.75467 2.25427 0
M  V30 2754 O 254.681 -4.84444 2.98836 0
M  V30 2755 N 255.883 -5.66289 1.27661 0
M  V30 2756 H 258.648 -1.75856 2.42682 0
M  V30 2757 H 256.209 -0.828312 1.39106 0
M  V30 2758 H 258.201 -3.90067 1.0784 0
M  V30 2759 H 256.771 -3.10325 0.376478 0
M  V30 2760 H 255.991 -2.7387 2.8353 0
M  V30 2761 H 257.279 -3.85613 3.31934 0
M  V30 2762 H 256.677 -5.61718 0.670064 0
M  V30 2763 H 255.234 -6.41533 1.15234 0
M  V30 2764 N 258.668 -1.30515 -0.883378 0
M  V30 2765 C 259.898 -1.22182 -1.66599 0
M  V30 2766 C 260.306 0.217507 -1.87946 0
M  V30 2767 O 259.649 1.1554 -1.42815 0
M  V30 2768 C 259.711 -1.88146 -3.06335 0
M  V30 2769 C 259.375 -3.37476 -3.08154 0
M  V30 2770 C 260.372 -4.33443 -2.87094 0
M  V30 2771 C 258.057 -3.7895 -3.29701 0
M  V30 2772 C 260.051 -5.68858 -2.8754 0
M  V30 2773 C 257.738 -5.14482 -3.29776 0
M  V30 2774 C 258.736 -6.09246 -3.0872 0
M  V30 2775 O 258.424 -7.42302 -3.08615 0
M  V30 2776 H 258.156 -0.423898 -0.52658 0
M  V30 2777 H 260.71 -1.72703 -1.11188 0
M  V30 2778 H 258.94 -1.32157 -3.63416 0
M  V30 2779 H 260.629 -1.7391 -3.66756 0
M  V30 2780 H 261.395 -4.02733 -2.70243 0
M  V30 2781 H 257.274 -3.05631 -3.45124 0
M  V30 2782 H 260.818 -6.428 -2.71024 0
M  V30 2783 H 256.715 -5.44832 -3.46163 0
M  V30 2784 H 257.483 -7.5131 -3.24769 0
M  V30 2785 N 260.146 1.09593 -1.13257 0
M  V30 2786 C 261.076 2.18214 -0.830946 0
M  V30 2787 C 262.057 1.68812 0.208966 0
M  V30 2788 O 263.242 1.9408 0.0682666 0
M  V30 2789 C 260.372 3.46051 -0.294296 0
M  V30 2790 C 259.326 4.08778 -1.26826 0
M  V30 2791 C 258.652 5.31419 -0.591449 0
M  V30 2792 C 259.952 4.51476 -2.62615 0
M  V30 2793 H 261.646 2.43703 -1.73923 0
M  V30 2794 H 259.192 1.17128 -0.837675 0
M  V30 2795 H 261.145 4.2134 -0.0709606 0
M  V30 2796 H 259.869 3.20079 0.649366 0
M  V30 2797 H 258.528 3.35505 -1.47756 0
M  V30 2798 H 258.176 5.01727 0.357633 0
M  V30 2799 H 257.876 5.74341 -1.24123 0
M  V30 2800 H 259.4 6.09433 -0.377355 0
M  V30 2801 H 260.814 5.17999 -2.45663 0
M  V30 2802 H 259.211 5.05277 -3.23752 0
M  V30 2803 H 260.281 3.63962 -3.20406 0
M  V30 2804 N 261.624 0.925811 1.2754 0
M  V30 2805 C 262.574 0.394488 2.24561 0
M  V30 2806 C 263.558 -0.500183 1.52928 0
M  V30 2807 O 264.75 -0.337936 1.73744 0
M  V30 2808 C 261.879 -0.353328 3.41477 0
M  V30 2809 C 260.965 0.557752 4.20416 0
M  V30 2810 N 261.356 1.67674 4.77199 0
M  V30 2811 C 259.654 0.360404 4.44541 0
M  V30 2812 C 260.355 2.24324 5.36706 0
M  V30 2813 N 259.331 1.53305 5.21535 0
M  V30 2814 H 263.133 1.2489 2.66045 0
M  V30 2815 H 260.647 0.779864 1.4245 0
M  V30 2816 H 262.644 -0.7509 4.10082 0
M  V30 2817 H 261.304 -1.20469 3.01525 0
M  V30 2818 H 262.315 2.05915 4.75204 0
M  V30 2819 H 258.992 -0.450454 4.15063 0
M  V30 2820 H 260.382 3.18521 5.91603 0
M  V30 2821 N 263.102 -1.41638 0.69111 0
M  V30 2822 C 264.327 -2.06148 0.227583 0
M  V30 2823 C 264.752 -1.51652 -1.11281 0
M  V30 2824 O 264.11 -0.64164 -1.69566 0
M  V30 2825 C 264.158 -3.60095 0.190858 0
M  V30 2826 O 263.262 -4.03845 -0.835664 0
M  V30 2827 H 262.603 -0.654434 0.112306 0
M  V30 2828 H 265.133 -1.81484 0.944714 0
M  V30 2829 H 265.143 -4.07995 0.020207 0
M  V30 2830 H 263.818 -3.99129 1.16915 0
M  V30 2831 H 262.395 -3.67458 -0.63473 0
M  V30 2832 N 264.58 -0.43555 -1.51462 0
M  V30 2833 C 265.829 0.133007 -2.01261 0
M  V30 2834 C 266.142 1.43942 -1.32439 0
M  V30 2835 O 267.348 2.09081 -1.73198 0
M  V30 2836 C 265.804 0.287581 -3.58749 0
M  V30 2837 C 265.412 -1.00829 -4.36506 0
M  V30 2838 C 267.156 0.810004 -4.167 0
M  V30 2839 C 265.063 -0.819454 -5.85695 0
M  V30 2840 H 263.993 0.0534822 -0.752101 0
M  V30 2841 H 266.644 -0.565038 -1.74584 0
M  V30 2842 H 265.026 1.04859 -3.81865 0
M  V30 2843 H 266.2 -1.77749 -4.25138 0
M  V30 2844 H 264.515 -1.45911 -3.89999 0
M  V30 2845 H 267.112 0.967743 -5.2587 0
M  V30 2846 H 267.455 1.79196 -3.75758 0
M  V30 2847 H 267.988 0.107357 -3.97655 0
M  V30 2848 H 264.727 -1.77374 -6.31046 0
M  V30 2849 H 264.247 -0.0900208 -5.99732 0
M  V30 2850 H 265.926 -0.471949 -6.45276 0
M  V30 2851 N 266.058 1.56714 -0.166846 0
M  V30 2852 C 267.006 2.19056 0.782123 0
M  V30 2853 C 268 1.15328 1.24079 0
M  V30 2854 O 269.206 1.33537 1.20697 0
M  V30 2855 H 265.581 0.70167 0.270486 0
M  V30 2856 H 267.552 2.97494 0.232322 0
M  V30 2857 C 266.301 2.84206 2.00306 0
M  V30 2858 H 265.624 3.63748 1.65914 0
M  V30 2859 H 267.064 3.31302 2.64604 0
M  V30 2860 C 265.523 1.83744 2.82382 0
M  V30 2861 O 266.053 1.32014 3.79388 0
M  V30 2862 N 264.259 1.52601 2.47308 0
M  V30 2863 H 263.806 1.9486 1.68485 0
M  V30 2864 H 263.764 0.856351 3.02513 0
M  V30 2865 N 267.536 -0.106894 1.57237 0
M  V30 2866 C 268.785 -0.811163 1.8467 0
M  V30 2867 C 269.098 -1.80469 0.754342 0
M  V30 2868 O 270.304 -2.55601 0.915439 0
M  V30 2869 C 268.76 -1.49337 3.27454 0
M  V30 2870 C 268.368 -0.540217 4.44731 0
M  V30 2871 C 270.112 -2.18206 3.64124 0
M  V30 2872 C 268.019 -1.22634 5.78545 0
M  V30 2873 H 266.949 -0.306679 0.688813 0
M  V30 2874 H 269.6 -0.0639887 1.83388 0
M  V30 2875 H 267.982 -2.2876 3.23241 0
M  V30 2876 H 269.156 0.221659 4.60267 0
M  V30 2877 H 267.471 0.042146 4.16379 0
M  V30 2878 H 270.068 -2.70253 4.61376 0
M  V30 2879 H 270.411 -2.96562 2.92158 0
M  V30 2880 H 270.944 -1.45658 3.70174 0
M  V30 2881 H 267.683 -0.483832 6.53712 0
M  V30 2882 H 267.203 -1.95993 5.66874 0
M  V30 2883 H 268.882 -1.75615 6.2271 0
M  V30 2884 N 269.014 -1.53014 -0.377408 0
M  V30 2885 C 269.977 -1.77957 -1.44444 0
M  V30 2886 C 270.977 -0.649763 -1.47087 0
M  V30 2887 O 272.167 -0.917897 -1.48055 0
M  V30 2888 C 269.299 -1.89089 -2.83651 0
M  V30 2889 H 270.492 -2.73243 -1.23606 0
M  V30 2890 H 268.045 -1.43912 -0.609844 0
M  V30 2891 H 268.78 -0.958293 -3.09818 0
M  V30 2892 H 268.565 -2.71254 -2.83132 0
M  V30 2893 H 270.055 -2.1002 -3.60945 0
M  V30 2894 N 270.492 0.636531 -1.44174 0
M  V30 2895 C 271.442 1.74233 -1.47061 0
M  V30 2896 C 272.426 1.57331 -0.337034 0
M  V30 2897 O 273.618 1.67159 -0.581973 0
M  V30 2898 C 270.747 3.12897 -1.41246 0
M  V30 2899 C 269.833 3.35288 -2.59698 0
M  V30 2900 N 270.224 3.2807 -3.84972 0
M  V30 2901 C 268.522 3.66065 -2.54778 0
M  V30 2902 C 269.223 3.51001 -4.63867 0
M  V30 2903 N 268.199 3.73616 -3.94857 0
M  V30 2904 H 272.001 1.67103 -2.41773 0
M  V30 2905 H 269.515 0.838806 -1.3906 0
M  V30 2906 H 271.512 3.92189 -1.41398 0
M  V30 2907 H 270.172 3.21197 -0.47569 0
M  V30 2908 H 271.183 3.07109 -4.17019 0
M  V30 2909 H 267.86 3.81379 -1.6987 0
M  V30 2910 H 269.25 3.51059 -5.72894 0
M  V30 2911 N 271.97 1.30982 0.876444 0
M  V30 2912 C 273.386 1.09498 1.16113 0
M  V30 2913 C 273.586 -0.13875 2.01022 0
M  V30 2914 O 272.642 -0.829935 2.38471 0
M  V30 2915 C 273.955 2.36308 1.85954 0
M  V30 2916 C 275.503 2.41856 1.98683 0
M  V30 2917 C 275.978 3.6853 2.71937 0
M  V30 2918 N 277.469 3.69387 2.79477 0
M  V30 2919 C 278.204 4.64096 3.36753 0
M  V30 2920 N 277.7 5.69155 3.95012 0
M  V30 2921 N 279.493 4.51626 3.3465 0
M  V30 2922 H 271.644 2.10118 0.310494 0
M  V30 2923 H 273.907 0.926634 0.200131 0
M  V30 2924 H 273.613 3.26388 1.31011 0
M  V30 2925 H 273.487 2.4561 2.86278 0
M  V30 2926 H 275.874 1.52249 2.52793 0
M  V30 2927 H 275.955 2.36523 0.9742 0
M  V30 2928 H 275.599 4.58499 2.18496 0
M  V30 2929 H 275.529 3.71127 3.73593 0
M  V30 2930 H 278.02 2.93438 2.38123 0
M  V30 2931 H 278.333 6.3751 4.36808 0
M  V30 2932 H 276.678 5.72937 3.93406 0
M  V30 2933 H 279.869 3.68728 2.8837 0
M  V30 2934 H 280.042 5.25614 3.7899 0
M  V30 2935 N 273.449 -1.08991 1.13837 0
M  V30 2936 C 274.726 -1.77863 0.813876 0
M  V30 2937 C 275.106 -1.99375 -0.693746 0
M  V30 2938 O 274.454 -1.59875 -1.63255 0
M  V30 2939 C 274.664 -3.0986 1.60586 0
M  V30 2940 C 276.012 -3.84493 1.8014 0
M  V30 2941 O 277.036 -3.19624 1.57222 0
M  V30 2942 O 275.895 -5.00957 2.18413 0
M  V30 2943 H 272.989 -0.771589 0.297624 0
M  V30 2944 H 275.535 -1.15507 1.24323 0
M  V30 2945 H 274.307 -2.89715 2.63022 0
M  V30 2946 H 273.93 -3.79942 1.17173 0
M  V30 2947 N 274.927 -0.932562 -1.27047 0
M  V30 2948 C 276.173 -0.576412 -1.94436 0
M  V30 2949 C 276.506 0.880891 -1.73072 0
M  V30 2950 O 275.781 1.62905 -1.06264 0
M  V30 2951 C 276.064 -0.909031 -3.48437 0
M  V30 2952 C 275.917 -2.42044 -3.79123 0
M  V30 2953 C 277.236 -0.418341 -4.38107 0
M  V30 2954 H 274.355 -0.210888 -0.706184 0
M  V30 2955 H 276.997 -1.16522 -1.50075 0
M  V30 2956 H 275.147 -0.407947 -3.86352 0
M  V30 2957 H 276.819 -2.99359 -3.50973 0
M  V30 2958 H 275.062 -2.86758 -3.25503 0
M  V30 2959 H 275.733 -2.6037 -4.86736 0
M  V30 2960 H 278.209 -0.847856 -4.0737 0
M  V30 2961 H 277.085 -0.679981 -5.44672 0
M  V30 2962 H 277.346 0.681642 -4.36814 0
M  V30 2963 N 276.405 1.4127 -0.698611 0
M  V30 2964 C 277.352 2.30773 -0.0352094 0
M  V30 2965 C 278.322 1.47273 0.768111 0
M  V30 2966 O 279.507 1.76053 0.735524 0
M  V30 2967 C 276.647 3.33346 0.893 0
M  V30 2968 C 275.76 4.31924 0.0809695 0
M  V30 2969 C 274.895 5.21566 1.0071 0
M  V30 2970 C 273.934 6.11811 0.188155 0
M  V30 2971 N 273.071 6.93926 1.06825 0
M  V30 2972 H 277.911 2.86943 -0.804207 0
M  V30 2973 H 275.448 1.4132 -0.408294 0
M  V30 2974 H 277.406 3.91368 1.44523 0
M  V30 2975 H 276.036 2.78719 1.62836 0
M  V30 2976 H 275.088 3.75825 -0.588224 0
M  V30 2977 H 276.4 4.95716 -0.553801 0
M  V30 2978 H 275.554 5.84437 1.62845 0
M  V30 2979 H 274.293 4.58008 1.67572 0
M  V30 2980 H 273.298 5.47986 -0.446254 0
M  V30 2981 H 274.523 6.77425 -0.476716 0
M  V30 2982 H 272.469 6.32973 1.72283 0
M  V30 2983 H 272.386 7.54416 0.489123 0
M  V30 2984 H 273.654 7.61262 1.67632 0
M  V30 2985 N 277.883 0.443576 1.51229 0
M  V30 2986 C 279.294 -0.0180867 1.86691 0
M  V30 2987 C 279.645 -1.41384 1.36033 0
M  V30 2988 O 278.77 -2.04291 0.713722 0
M  V30 2989 C 279.365 -0.039597 3.38777 0
M  V30 2990 C 277.924 -0.445692 3.73752 0
M  V30 2991 C 277.071 0.357584 2.74985 0
M  V30 2992 H 280.022 0.659138 1.44364 0
M  V30 2993 H 280.043 -0.847761 3.70936 0
M  V30 2994 H 279.555 0.976382 3.75617 0
M  V30 2995 H 277.656 -1.46704 3.42503 0
M  V30 2996 H 277.769 -0.166155 4.78812 0
M  V30 2997 H 276.133 -0.184973 2.54027 0
M  V30 2998 H 276.916 1.37256 3.14668 0
M  V30 2999 N 279.361 -1.56624 0.175154 0
M  V30 3000 C 280.271 -2.21741 -0.766042 0
M  V30 3001 C 281.287 -1.21023 -1.25018 0
M  V30 3002 O 282.463 -1.53697 -1.3015 0
M  V30 3003 C 279.528 -2.84839 -1.97655 0
M  V30 3004 C 278.589 -4.00769 -1.53892 0
M  V30 3005 C 277.822 -4.60849 -2.69173 0
M  V30 3006 O 278.045 -4.19823 -3.86141 0
M  V30 3007 O 276.979 -5.50655 -2.43028 0
M  V30 3008 H 280.805 -3.02738 -0.241585 0
M  V30 3009 H 278.39 -1.49305 -0.053222 0
M  V30 3010 H 280.272 -3.24834 -2.68442 0
M  V30 3011 H 278.947 -2.06836 -2.48999 0
M  V30 3012 H 277.854 -3.65436 -0.80044 0
M  V30 3013 H 279.187 -4.80376 -1.07236 0
M  V30 3014 N 280.839 0.0985539 -1.57292 0
M  V30 3015 C 281.787 1.1387 -2.02821 0
M  V30 3016 C 282.781 1.41676 -0.928666 0
M  V30 3017 O 283.987 1.41398 -1.11385 0
M  V30 3018 H 280.362 0.384419 -0.646317 0
M  V30 3019 H 282.333 0.728347 -2.89375 0
M  V30 3020 C 281.082 2.45166 -2.46554 0
M  V30 3021 H 280.405 2.24613 -3.3074 0
M  V30 3022 H 281.845 3.16456 -2.8219 0
M  V30 3023 C 280.304 3.09216 -1.33742 0
M  V30 3024 O 280.834 3.96163 -0.66464 0
M  V30 3025 N 279.04 2.69413 -1.08928 0
M  V30 3026 H 278.587 1.98801 -1.63817 0
M  V30 3027 H 278.545 3.12594 -0.336458 0
M  V30 3028 N 282.317 1.53212 0.369288 0
M  V30 3029 C 283.247 1.82365 1.45826 0
M  V30 3030 C 284.228 0.676907 1.56051 0
M  V30 3031 O 285.413 0.926401 1.70679 0
M  V30 3032 C 282.543 2.01023 2.83208 0
M  V30 3033 C 281.497 3.1678 2.8781 0
M  V30 3034 C 280.823 3.20724 4.27832 0
M  V30 3035 C 282.123 4.55447 2.55667 0
M  V30 3036 H 283.817 2.73559 1.21678 0
M  V30 3037 H 281.363 1.3163 0.583911 0
M  V30 3038 H 283.316 2.20001 3.59413 0
M  V30 3039 H 282.04 1.06536 3.08736 0
M  V30 3040 H 280.699 2.97616 2.14056 0
M  V30 3041 H 280.347 2.23882 4.50429 0
M  V30 3042 H 280.047 3.98496 4.31827 0
M  V30 3043 H 281.571 3.41881 5.05915 0
M  V30 3044 H 282.985 4.74611 3.21586 0
M  V30 3045 H 281.382 5.35432 2.70984 0
M  V30 3046 H 282.452 4.60812 1.5093 0
M  V30 3047 N 283.795 -0.628877 1.44509 0
M  V30 3048 C 284.725 -1.75187 1.54376 0
M  V30 3049 C 285.706 -1.65411 0.396618 0
M  V30 3050 O 286.891 -1.84137 0.617031 0
M  V30 3051 C 284.021 -3.13725 1.48976 0
M  V30 3052 C 282.975 -3.38291 2.62189 0
M  V30 3053 C 282.301 -4.76883 2.41841 0
M  V30 3054 C 283.601 -3.30632 4.04326 0
M  V30 3055 H 285.295 -1.67187 2.48373 0
M  V30 3056 H 282.841 -0.802909 1.19538 0
M  V30 3057 H 284.794 -3.92064 1.54478 0
M  V30 3058 H 283.518 -3.22515 0.514961 0
M  V30 3059 H 282.177 -2.62334 2.56079 0
M  V30 3060 H 281.825 -4.82378 1.42548 0
M  V30 3061 H 281.525 -4.94278 3.17747 0
M  V30 3062 H 283.049 -5.57449 2.49165 0
M  V30 3063 H 284.463 -3.98873 4.11793 0
M  V30 3064 H 282.86 -3.59561 4.80454 0
M  V30 3065 H 283.93 -2.28404 4.27738 0
M  V30 3066 N 285.273 -1.31445 -0.869486 0
M  V30 3067 C 286.503 -1.23942 -1.65294 0
M  V30 3068 C 286.911 0.197561 -1.88166 0
M  V30 3069 O 286.254 1.14019 -1.44033 0
M  V30 3070 C 286.316 -1.91385 -3.04322 0
M  V30 3071 C 285.98 -3.40726 -3.04557 0
M  V30 3072 C 286.977 -4.36464 -2.82481 0
M  V30 3073 C 284.662 -3.82425 -3.25663 0
M  V30 3074 C 286.656 -5.71876 -2.8149 0
M  V30 3075 C 284.343 -5.1795 -3.243 0
M  V30 3076 C 285.341 -6.12486 -3.02241 0
M  V30 3077 O 285.029 -7.45534 -3.00724 0
M  V30 3078 H 284.761 -0.429459 -0.522054 0
M  V30 3079 H 287.315 -1.73873 -1.0935 0
M  V30 3080 H 285.545 -1.36004 -3.61994 0
M  V30 3081 H 287.234 -1.77791 -3.64891 0
M  V30 3082 H 288 -4.05576 -2.65956 0
M  V30 3083 H 283.879 -3.09274 -3.41863 0
M  V30 3084 H 287.423 -6.45638 -2.64191 0
M  V30 3085 H 283.32 -5.48473 -3.40365 0
M  V30 3086 H 284.088 -7.54713 -3.16782 0
M  V30 3087 N 286.751 1.08385 -1.14413 0
M  V30 3088 C 287.979 1.84517 -0.936001 0
M  V30 3089 C 288.394 1.81626 0.515503 0
M  V30 3090 O 287.751 1.22008 1.35721 0
M  V30 3091 C 287.802 3.32049 -1.42918 0
M  V30 3092 O 287.523 3.34951 -2.82381 0
M  V30 3093 C 289.024 4.24986 -1.26103 0
M  V30 3094 H 286.244 0.582491 -0.333084 0
M  V30 3095 H 288.788 1.36885 -1.5193 0
M  V30 3096 H 286.943 3.7707 -0.888641 0
M  V30 3097 H 287.357 4.27048 -3.04517 0
M  V30 3098 H 288.831 5.26615 -1.6547 0
M  V30 3099 H 289.308 4.38726 -0.20392 0
M  V30 3100 H 289.914 3.85791 -1.79012 0
M  V30 3101 N 288.23 0.939286 1.26551 0
M  V30 3102 C 289.455 0.602008 1.98471 0
M  V30 3103 C 289.88 -0.815624 1.69497 0
M  V30 3104 O 289.238 -1.54912 0.941905 0
M  V30 3105 C 289.286 0.848407 3.50477 0
M  V30 3106 O 288.39 -0.0804009 4.12322 0
M  V30 3107 H 287.731 0.23049 0.622712 0
M  V30 3108 H 290.261 1.2617 1.61066 0
M  V30 3109 H 290.271 0.768553 4.00696 0
M  V30 3110 H 288.946 1.88171 3.70897 0
M  V30 3111 H 287.523 0.0503508 3.72866 0
M  V30 3112 N 289.708 -1.40897 0.706093 0
M  V30 3113 C 290.655 -2.30751 0.0474474 0
M  V30 3114 C 291.625 -1.47678 -0.76029 0
M  V30 3115 O 292.81 -1.76441 -0.726177 0
M  V30 3116 C 289.95 -3.33815 -0.875309 0
M  V30 3117 C 289.063 -4.31961 -0.0580623 0
M  V30 3118 C 288.198 -5.22093 -0.979425 0
M  V30 3119 C 287.237 -6.11902 -0.155706 0
M  V30 3120 N 286.374 -6.94482 -1.03144 0
M  V30 3121 H 291.214 -2.86513 0.819413 0
M  V30 3122 H 288.751 -1.41102 0.415783 0
M  V30 3123 H 290.709 -3.92129 -1.42446 0
M  V30 3124 H 289.339 -2.79579 -1.61356 0
M  V30 3125 H 288.391 -3.75507 0.608147 0
M  V30 3126 H 289.703 -4.95415 0.580082 0
M  V30 3127 H 288.857 -5.85292 -1.59744 0
M  V30 3128 H 287.596 -4.5889 -1.65141 0
M  V30 3129 H 286.601 -5.47742 0.475309 0
M  V30 3130 H 287.826 -6.77162 0.512635 0
M  V30 3131 H 285.772 -6.33877 -1.68924 0
M  V30 3132 H 285.689 -7.54665 -0.449108 0
M  V30 3133 H 286.957 -7.6214 -1.63593 0
M  V30 3134 N 291.186 -0.45159 -1.50991 0
M  V30 3135 C 292.602 -0.104647 -1.59257 0
M  V30 3136 C 292.802 1.38728 -1.4614 0
M  V30 3137 O 291.858 2.15866 -1.30989 0
M  V30 3138 C 293.171 -0.637468 -2.93865 0
M  V30 3139 C 294.719 -0.599166 -3.07212 0
M  V30 3140 C 295.194 -1.1092 -4.44366 0
M  V30 3141 N 296.685 -1.06778 -4.50725 0
M  V30 3142 C 297.42 -1.43314 -5.55201 0
M  V30 3143 N 296.916 -1.87204 -6.67028 0
M  V30 3144 N 298.709 -1.3504 -5.45638 0
M  V30 3145 H 290.86 -1.42214 -1.57762 0
M  V30 3146 H 293.123 -0.586921 -0.744465 0
M  V30 3147 H 292.829 -1.68187 -3.08879 0
M  V30 3148 H 292.703 -0.0702139 -3.77135 0
M  V30 3149 H 295.09 0.436277 -2.91857 0
M  V30 3150 H 295.171 -1.20299 -2.25747 0
M  V30 3151 H 294.815 -2.14318 -4.60467 0
M  V30 3152 H 294.745 -0.481773 -5.24392 0
M  V30 3153 H 297.236 -0.745643 -3.70471 0
M  V30 3154 H 297.549 -2.13282 -7.42786 0
M  V30 3155 H 295.894 -1.91142 -6.68199 0
M  V30 3156 H 299.085 -1.00607 -4.57161 0
M  V30 3157 H 299.258 -1.63841 -6.26945 0
M  V30 3158 N 292.664 1.56529 -0.183458 0
M  V30 3159 C 294.075 1.83739 0.331177 0
M  V30 3160 C 294.426 1.10373 1.62211 0
M  V30 3161 O 293.551 0.36071 2.13373 0
M  V30 3162 C 294.146 3.33306 0.607646 0
M  V30 3163 C 292.705 3.60969 1.06668 0
M  V30 3164 C 291.852 2.77086 0.109029 0
M  V30 3165 H 294.803 1.53379 -0.407484 0
M  V30 3166 H 294.824 3.51444 1.45832 0
M  V30 3167 H 294.336 3.86677 -0.332086 0
M  V30 3168 H 292.437 3.13021 2.0211 0
M  V30 3169 H 292.55 4.69231 0.967447 0
M  V30 3170 H 290.914 2.47319 0.608714 0
M  V30 3171 H 291.697 3.33241 -0.82494 0
M  V30 3172 N 294.142 -0.090211 1.57342 0
M  V30 3173 C 295.09 -1.12792 2.03422 0
M  V30 3174 C 296.084 -1.41182 0.936166 0
M  V30 3175 O 297.29 -1.40805 1.12133 0
M  V30 3176 H 293.665 -0.380986 0.648347 0
M  V30 3177 H 295.636 -0.71299 2.89757 0
M  V30 3178 C 294.385 -2.43855 2.47851 0
M  V30 3179 H 293.708 -2.22855 3.31927 0
M  V30 3180 H 295.148 -3.14955 2.83865 0
M  V30 3181 C 293.607 -3.08503 1.3538 0
M  V30 3182 O 294.137 -3.95805 0.685641 0
M  V30 3183 N 292.343 -2.68831 1.10355 0
M  V30 3184 H 291.89 -1.97929 1.64869 0
M  V30 3185 H 291.848 -3.12412 0.353031 0
M  V30 3186 N 295.62 -1.53406 -0.361157 0
M  V30 3187 C 296.583 -1.79479 -1.42548 0
M  V30 3188 C 297.583 -0.665327 -1.4639 0
M  V30 3189 O 298.773 -0.933549 -1.47073 0
M  V30 3190 C 295.905 -1.92087 -2.8163 0
M  V30 3191 H 297.098 -2.74538 -1.20701 0
M  V30 3192 H 294.651 -1.4455 -0.594546 0
M  V30 3193 H 295.386 -0.991099 -3.08784 0
M  V30 3194 H 295.171 -2.74241 -2.80239 0
M  V30 3195 H 296.661 -2.13836 -3.58697 0
M  V30 3196 N 297.098 0.621204 -1.44841 0
M  V30 3197 C 298.347 1.37658 -1.47422 0
M  V30 3198 C 298.66 1.95264 -0.114629 0
M  V30 3199 O 299.866 2.71494 -0.0180199 0
M  V30 3200 C 298.322 2.49285 -2.59586 0
M  V30 3201 C 297.93 1.98149 -4.01797 0
M  V30 3202 C 299.674 3.26409 -2.71399 0
M  V30 3203 C 297.581 3.07178 -5.05367 0
M  V30 3204 H 296.511 0.517344 -0.548517 0
M  V30 3205 H 299.162 0.667257 -1.70938 0
M  V30 3206 H 297.544 3.22839 -2.29328 0
M  V30 3207 H 298.718 1.31395 -4.41669 0
M  V30 3208 H 297.033 1.33812 -3.94314 0
M  V30 3209 H 299.63 4.07706 -3.45948 0
M  V30 3210 H 299.973 3.76535 -1.77559 0
M  V30 3211 H 300.506 2.5995 -3.01116 0
M  V30 3212 H 297.245 2.61985 -6.00869 0
M  V30 3213 H 296.765 3.72542 -4.70077 0
M  V30 3214 H 298.444 3.71789 -5.29511 0
M  V30 3215 N 298.576 1.31904 0.862503 0
M  V30 3216 C 299.506 1.22782 1.98612 0
M  V30 3217 C 300.487 0.113362 1.69722 0
M  V30 3218 O 301.672 0.299218 1.91881 0
M  V30 3219 C 298.802 0.942058 3.34279 0
M  V30 3220 C 297.756 2.0169 3.77499 0
M  V30 3221 C 297.082 1.58369 5.10709 0
M  V30 3222 C 298.382 3.43096 3.93805 0
M  V30 3223 H 300.076 2.16788 2.06502 0
M  V30 3224 H 297.622 1.04366 0.992154 0
M  V30 3225 H 299.575 0.864818 4.1243 0
M  V30 3226 H 298.299 -0.0336603 3.26583 0
M  V30 3227 H 296.958 2.08416 3.01593 0
M  V30 3228 H 296.606 0.595628 4.99461 0
M  V30 3229 H 296.306 2.30279 5.40597 0
M  V30 3230 H 297.83 1.52067 5.91361 0
M  V30 3231 H 299.244 3.39003 4.62331 0
M  V30 3232 H 297.641 4.13288 4.35101 0
M  V30 3233 H 298.711 3.83334 2.96957 0
M  V30 3234 N 300.054 -1.07777 1.14986 0
M  V30 3235 C 301.001 -2.14867 0.842672 0
M  V30 3236 C 301.971 -1.6486 -0.202552 0
M  V30 3237 O 303.156 -1.90668 -0.0710568 0
M  V30 3238 C 300.296 -3.43486 0.333363 0
M  V30 3239 C 299.409 -4.07306 1.43965 0
M  V30 3240 C 298.544 -5.23744 0.886914 0
M  V30 3241 C 297.583 -5.79517 1.97043 0
M  V30 3242 N 296.72 -6.87291 1.4344 0
M  V30 3243 H 301.56 -2.40485 1.75986 0
M  V30 3244 H 299.097 -1.1801 0.878179 0
M  V30 3245 H 301.055 -4.17195 0.0198163 0
M  V30 3246 H 299.685 -3.18133 -0.546916 0
M  V30 3247 H 298.737 -3.31293 1.86946 0
M  V30 3248 H 300.049 -4.44771 2.25788 0
M  V30 3249 H 299.203 -6.04419 0.525651 0
M  V30 3250 H 297.942 -4.87685 0.0377957 0
M  V30 3251 H 296.947 -4.97491 2.34057 0
M  V30 3252 H 298.172 -6.17632 2.82325 0
M  V30 3253 H 296.118 -6.5318 0.607567 0
M  V30 3254 H 296.035 -7.23617 2.18895 0
M  V30 3255 H 297.303 -7.71682 1.10124 0
M  V30 3256 N 301.532 -0.945985 -1.26051 0
M  V30 3257 C 302.462 -0.477172 -2.28572 0
M  V30 3258 C 303.443 0.472032 -1.63419 0
M  V30 3259 O 304.628 0.372853 -1.90587 0
M  V30 3260 C 301.758 0.253975 -3.4637 0
M  V30 3261 C 300.712 -0.609135 -4.23643 0
M  V30 3262 C 300.038 0.252252 -5.34105 0
M  V30 3263 C 301.338 -1.8829 -4.8718 0
M  V30 3264 H 303.032 -1.33402 -2.68038 0
M  V30 3265 H 300.578 -0.642904 -1.28852 0
M  V30 3266 H 302.531 0.593016 -4.17207 0
M  V30 3267 H 301.255 1.145 -3.05871 0
M  V30 3268 H 299.914 -0.931138 -3.54578 0
M  V30 3269 H 299.562 1.14278 -4.89846 0
M  V30 3270 H 299.262 -0.32188 -5.86718 0
M  V30 3271 H 300.786 0.586454 -6.07777 0
M  V30 3272 H 302.2 -1.61081 -5.50205 0
M  V30 3273 H 300.597 -2.40199 -5.49931 0
M  V30 3274 H 301.667 -2.59134 -4.09851 0
M  V30 3275 N 303.011 1.40521 -0.713556 0
M  V30 3276 C 304.239 2.05237 -0.261775 0
M  V30 3277 C 304.654 1.53755 1.09567 0
M  V30 3278 O 304.011 0.693268 1.6882 0
M  V30 3279 C 304.062 3.60763 -0.230706 0
M  V30 3280 O 303.783 4.10345 -1.53455 0
M  V30 3281 C 305.284 4.42651 0.239874 0
M  V30 3282 H 302.504 0.660533 -0.118057 0
M  V30 3283 H 305.048 1.79967 -0.971192 0
M  V30 3284 H 303.203 3.8501 0.429661 0
M  V30 3285 H 303.617 5.04526 -1.43366 0
M  V30 3286 H 305.091 5.51599 0.210468 0
M  V30 3287 H 305.568 4.20082 1.28171 0
M  V30 3288 H 306.174 4.23507 -0.390142 0
M  V30 3289 N 304.489 0.459591 1.5075 0
M  V30 3290 C 305.766 -0.160371 1.94941 0
M  V30 3291 C 306.146 -1.58048 1.39943 0
M  V30 3292 O 305.494 -2.206 0.595629 0
M  V30 3293 C 305.704 -0.115432 3.48809 0
M  V30 3294 C 307.052 -0.310026 4.23467 0
M  V30 3295 O 308.076 -0.192543 3.55679 0
M  V30 3296 O 306.935 -0.546031 5.43765 0
M  V30 3297 H 304.029 -0.117925 0.818549 0
M  V30 3298 H 306.575 0.519169 1.61563 0
M  V30 3299 H 305.347 0.87652 3.81357 0
M  V30 3300 H 304.97 -0.836928 3.88692 0
M  V30 3301 N 305.967 -1.56429 0.191757 0
M  V30 3302 C 307.214 -1.97485 -0.447891 0
M  V30 3303 C 307.542 -1.07852 -1.61859 0
M  V30 3304 O 306.797 -0.116903 -1.95351 0
M  V30 3305 C 307.096 -3.44449 -0.953384 0
M  V30 3306 C 306.762 -4.50781 0.103586 0
M  V30 3307 C 305.424 -4.79584 0.394023 0
M  V30 3308 C 307.776 -5.1471 0.819946 0
M  V30 3309 C 305.104 -5.69607 1.40585 0
M  V30 3310 C 307.456 -6.05827 1.8209 0
M  V30 3311 C 306.12 -6.32987 2.11857 0
M  V30 3312 H 305.39 -0.722648 -0.163895 0
M  V30 3313 H 308.037 -1.89322 0.28802 0
M  V30 3314 H 306.342 -3.49666 -1.76751 0
M  V30 3315 H 308.039 -3.73569 -1.45765 0
M  V30 3316 H 304.629 -4.28394 -0.132951 0
M  V30 3317 H 308.813 -4.92552 0.608789 0
M  V30 3318 H 304.069 -5.88926 1.64243 0
M  V30 3319 H 308.243 -6.54424 2.38123 0
M  V30 3320 H 305.87 -7.02544 2.90407 0
M  V30 3321 N 307.445 0.0818655 -1.57387 0
M  V30 3322 C 308.693 0.781368 -1.86384 0
M  V30 3323 C 309.014 1.78618 -0.782342 0
M  V30 3324 O 308.284 1.94976 0.190061 0
M  V30 3325 H 306.864 0.291562 -0.687751 0
M  V30 3326 H 309.526 0.060348 -1.94807 0
M  V30 3327 H 308.622 1.3038 -2.83562 0
M  V30 3328 N 308.923 1.53595 0.353017 0
M  V30 3329 C 310.17 1.70385 1.09431 0
M  V30 3330 C 310.498 0.462113 1.88931 0
M  V30 3331 O 309.753 -0.556074 1.87633 0
M  V30 3332 C 310.052 2.91313 2.07054 0
M  V30 3333 C 309.718 4.27308 1.43939 0
M  V30 3334 C 308.38 4.64287 1.26454 0
M  V30 3335 C 310.732 5.11829 0.983883 0
M  V30 3336 C 308.06 5.83412 0.620226 0
M  V30 3337 C 310.412 6.31611 0.353516 0
M  V30 3338 C 309.076 6.67293 0.166272 0
M  V30 3339 H 308.346 0.623484 0.400436 0
M  V30 3340 H 310.993 1.87799 0.374655 0
M  V30 3341 H 309.298 2.68463 2.85368 0
M  V30 3342 H 310.995 3.01497 2.64387 0
M  V30 3343 H 307.585 3.98198 1.58543 0
M  V30 3344 H 311.769 4.838 1.10685 0
M  V30 3345 H 307.025 6.09639 0.463681 0
M  V30 3346 H 311.199 6.964 -0.00757555 0
M  V30 3347 H 308.826 7.59461 -0.335047 0
M  V30 3348 N 310.401 -0.613514 1.45168 0
M  V30 3349 C 311.364 -1.7065 1.53007 0
M  V30 3350 C 312.364 -1.5548 0.410184 0
M  V30 3351 O 313.554 -1.60656 0.673455 0
M  V30 3352 C 310.686 -3.09875 1.42093 0
M  V30 3353 H 311.879 -1.65068 2.50385 0
M  V30 3354 H 309.432 -0.828728 1.32521 0
M  V30 3355 H 310.167 -3.21039 0.458769 0
M  V30 3356 H 309.952 -3.22293 2.23315 0
M  V30 3357 H 311.442 -3.895 1.50598 0
M  V30 3358 N 311.879 -1.3236 -0.855495 0
M  V30 3359 C 312.826 -1.21225 -1.964 0
M  V30 3360 C 313.796 -0.0946204 -1.6583 0
M  V30 3361 O 314.981 -0.27002 -1.8888 0
M  V30 3362 C 312.121 -0.940419 -3.32039 0
M  V30 3363 C 311.234 -2.14276 -3.75113 0
M  V30 3364 C 310.369 -1.80648 -4.9954 0
M  V30 3365 C 309.408 -2.97208 -5.35102 0
M  V30 3366 N 308.545 -2.63678 -6.50706 0
M  V30 3367 H 313.385 -2.16042 -2.05255 0
M  V30 3368 H 310.922 -1.07451 -1.00463 0
M  V30 3369 H 312.88 -0.763311 -4.10158 0
M  V30 3370 H 311.51 -0.0290413 -3.22787 0
M  V30 3371 H 310.562 -2.43017 -2.92655 0
M  V30 3372 H 311.874 -3.01468 -3.97389 0
M  V30 3373 H 311.028 -1.59484 -5.85363 0
M  V30 3374 H 309.767 -0.906678 -4.79198 0
M  V30 3375 H 308.772 -3.19004 -4.47791 0
M  V30 3376 H 309.997 -3.87918 -5.57401 0
M  V30 3377 H 307.943 -1.76238 -6.31883 0
M  V30 3378 H 307.86 -3.444 -6.72997 0
M  V30 3379 H 309.128 -2.45942 -7.39684 0
M  V30 3380 N 313.357 1.07166 -1.15556 0
M  V30 3381 C 314.267 2.17947 -0.868116 0
M  V30 3382 C 315.283 1.73297 0.156297 0
M  V30 3383 O 316.459 2.01392 -0.0182327 0
M  V30 3384 C 313.524 3.44789 -0.36355 0
M  V30 3385 C 312.585 4.03996 -1.45209 0
M  V30 3386 C 311.818 5.24783 -0.971508 0
M  V30 3387 O 312.041 5.70109 0.182194 0
M  V30 3388 O 310.975 5.75715 -1.75603 0
M  V30 3389 H 314.801 2.4503 -1.79427 0
M  V30 3390 H 312.386 1.16539 -0.934824 0
M  V30 3391 H 314.268 4.21307 -0.0887113 0
M  V30 3392 H 312.943 3.19253 0.534708 0
M  V30 3393 H 311.85 3.29009 -1.78056 0
M  V30 3394 H 313.183 4.33808 -2.32533 0
M  V30 3395 N 314.835 0.952656 1.25548 0
M  V30 3396 C 316.063 0.623496 1.97282 0
M  V30 3397 C 316.478 -0.803987 1.70826 0
M  V30 3398 O 315.835 -1.53755 0.983147 0
M  V30 3399 C 315.886 0.870209 3.5087 0
M  V30 3400 O 315.607 2.24156 3.76412 0
M  V30 3401 C 317.108 0.553164 4.39835 0
M  V30 3402 H 314.328 0.233931 0.628902 0
M  V30 3403 H 316.872 1.27649 1.59768 0
M  V30 3404 H 315.027 0.263652 3.86502 0
M  V30 3405 H 315.441 2.31021 4.70882 0
M  V30 3406 H 316.915 0.776342 5.46513 0
M  V30 3407 H 317.392 -0.512215 4.36203 0
M  V30 3408 H 317.998 1.13896 4.09766 0
M  V30 3409 N 316.313 -1.40141 0.720998 0
M  V30 3410 C 317.541 -2.05096 0.272656 0
M  V30 3411 C 317.956 -1.54334 -1.0875 0
M  V30 3412 O 317.313 -0.702211 -1.6845 0
M  V30 3413 C 317.364 -3.60636 0.249835 0
M  V30 3414 O 317.085 -4.09526 1.55629 0
M  V30 3415 C 318.586 -4.42772 -0.216396 0
M  V30 3416 H 315.806 -0.659897 0.121558 0
M  V30 3417 H 318.35 -1.79449 0.980723 0
M  V30 3418 H 316.505 -3.85232 -0.409237 0
M  V30 3419 H 316.919 -5.03758 1.4604 0
M  V30 3420 H 318.393 -5.51702 -0.181212 0
M  V30 3421 H 318.87 -4.20756 -1.25941 0
M  V30 3422 H 319.476 -4.23294 0.412596 0
M  V30 3423 N 317.792 -0.46758 -1.50504 0
M  V30 3424 C 319.017 0.0886943 -2.0721 0
M  V30 3425 C 319.442 1.33057 -1.32956 0
M  V30 3426 O 318.8 1.77354 -0.376197 0
M  V30 3427 C 318.848 0.359202 -3.58806 0
M  V30 3428 O 317.952 1.44034 -3.8643 0
M  V30 3429 H 317.293 -0.0114349 -0.663902 0
M  V30 3430 H 319.823 -0.657613 -1.93744 0
M  V30 3431 H 319.833 0.600742 -4.03553 0
M  V30 3432 H 318.508 -0.548311 -4.1227 0
M  V30 3433 H 317.085 1.18638 -3.53524 0
M  V30 3434 N 319.27 1.56325 -0.20005 0
M  V30 3435 C 320.22 2.15939 0.731743 0
M  V30 3436 C 321.204 1.10154 1.17281 0
M  V30 3437 O 322.396 1.36203 1.13038 0
M  V30 3438 C 319.525 2.82614 1.94895 0
M  V30 3439 C 318.611 3.95596 1.52855 0
M  V30 3440 N 319.002 4.99118 0.819418 0
M  V30 3441 C 317.3 4.07288 1.81748 0
M  V30 3442 C 318.001 5.78513 0.608053 0
M  V30 3443 N 316.977 5.31117 1.15828 0
M  V30 3444 H 320.779 2.9334 0.181285 0
M  V30 3445 H 318.293 1.624 -0.000452172 0
M  V30 3446 H 320.29 3.23718 2.62702 0
M  V30 3447 H 318.95 2.06702 2.50408 0
M  V30 3448 H 319.961 5.15723 0.47436 0
M  V30 3449 H 316.638 3.42509 2.38734 0
M  V30 3450 H 318.028 6.71885 0.0451619 0
M  V30 3451 N 320.748 -0.0735177 1.57428 0
M  V30 3452 C 321.696 -1.10628 2.04607 0
M  V30 3453 C 322.69 -1.40181 0.951088 0
M  V30 3454 O 323.896 -1.39608 1.1362 0
M  V30 3455 H 320.271 -0.374088 0.652351 0
M  V30 3456 H 322.242 -0.682218 2.90497 0
M  V30 3457 C 320.991 -2.41212 2.50423 0
M  V30 3458 H 320.314 -2.19322 3.34272 0
M  V30 3459 H 321.754 -3.11927 2.87189 0
M  V30 3460 C 320.213 -3.0705 1.38644 0
M  V30 3461 O 320.743 -3.95056 0.727582 0
M  V30 3462 N 318.949 -2.67645 1.132 0
M  V30 3463 H 318.496 -1.96169 1.66959 0
M  V30 3464 H 318.454 -3.1202 0.386147 0
M  V30 3465 N 322.226 -1.5378 -0.344866 0
M  V30 3466 C 323.451 -1.75211 -1.10977 0
M  V30 3467 C 323.876 -0.48936 -1.81623 0
M  V30 3468 O 323.234 0.557925 -1.72502 0
M  V30 3469 C 323.282 -2.93147 -2.09993 0
M  V30 3470 O 322.386 -2.63203 -3.17487 0
M  V30 3471 H 321.727 -0.581241 -0.321021 0
M  V30 3472 H 324.257 -2.00738 -0.395661 0
M  V30 3473 H 324.267 -3.19898 -2.53237 0
M  V30 3474 H 322.942 -3.84731 -1.5797 0
M  V30 3475 H 321.519 -2.47336 -2.79069 0
M  V30 3476 N 323.704 0.605807 -1.45491 0
M  V30 3477 C 324.634 1.72709 -1.57143 0
M  V30 3478 C 325.615 1.6476 -0.422884 0
M  V30 3479 O 326.8 1.83132 -0.646247 0
M  V30 3480 C 323.93 3.11316 -1.53948 0
M  V30 3481 C 322.884 3.34077 -2.67537 0
M  V30 3482 C 322.21 4.72975 -2.49397 0
M  V30 3483 C 323.51 3.24158 -4.09535 0
M  V30 3484 H 325.204 1.63214 -2.51001 0
M  V30 3485 H 322.75 0.78379 -1.208 0
M  V30 3486 H 324.703 3.89557 -1.60696 0
M  V30 3487 H 323.427 3.21655 -0.566205 0
M  V30 3488 H 322.086 2.58227 -2.6022 0
M  V30 3489 H 321.734 4.8005 -1.50205 0
M  V30 3490 H 321.434 4.8916 -3.25571 0
M  V30 3491 H 322.958 5.53414 -2.58002 0
M  V30 3492 H 324.372 3.92271 -4.18086 0
M  V30 3493 H 322.769 3.51872 -4.86113 0
M  V30 3494 H 323.839 2.2157 -4.31317 0
M  V30 3495 N 325.182 1.32811 0.848464 0
M  V30 3496 C 326.41 1.26739 1.63538 0
M  V30 3497 C 326.825 -0.163484 1.88091 0
M  V30 3498 O 326.182 -1.10258 1.45429 0
M  V30 3499 C 326.233 2.03013 2.99112 0
M  V30 3500 O 325.954 3.40518 2.75643 0
M  V30 3501 C 327.455 2.04038 3.93552 0
M  V30 3502 H 324.675 0.437024 0.509167 0
M  V30 3503 H 327.219 1.75033 1.05753 0
M  V30 3504 H 325.374 1.58426 3.53525 0
M  V30 3505 H 325.788 3.79635 3.61908 0
M  V30 3506 H 327.262 2.61877 4.85926 0
M  V30 3507 H 327.739 1.0282 4.26995 0
M  V30 3508 H 328.345 2.486 3.45077 0
M  V30 3509 N 326.66 -1.06551 1.16123 0
M  V30 3510 C 327.888 -1.83005 0.965237 0
M  V30 3511 C 328.303 -1.82423 -0.486542 0
M  V30 3512 O 327.66 -1.24152 -1.33763 0
M  V30 3513 C 327.711 -3.29733 1.48183 0
M  V30 3514 O 327.432 -3.30416 2.87674 0
M  V30 3515 C 328.933 -4.22926 1.32848 0
M  V30 3516 H 326.153 -0.577118 0.342309 0
M  V30 3517 H 328.697 -1.3445 1.54089 0
M  V30 3518 H 326.852 -3.75609 0.948517 0
M  V30 3519 H 327.266 -4.22149 3.11272 0
M  V30 3520 H 328.74 -5.23916 1.73827 0
M  V30 3521 H 329.217 -4.38346 0.273692 0
M  V30 3522 H 329.823 -3.82894 1.85127 0
M  V30 3523 N 328.138 -0.959301 -1.25041 0
M  V30 3524 C 329.549 -0.65667 -1.74771 0
M  V30 3525 C 329.9 0.827852 -1.77879 0
M  V30 3526 O 329.025 1.64783 -1.40269 0
M  V30 3527 C 329.62 -1.1853 -3.1739 0
M  V30 3528 C 328.179 -0.932734 -3.6466 0
M  V30 3529 C 327.326 -1.32558 -2.43564 0
M  V30 3530 H 330.277 -1.13558 -1.10862 0
M  V30 3531 H 330.298 -0.547582 -3.76539 0
M  V30 3532 H 329.81 -2.26576 -3.15095 0
M  V30 3533 H 327.911 0.13257 -3.72364 0
M  V30 3534 H 328.024 -1.57248 -4.52559 0
M  V30 3535 H 326.388 -0.743956 -2.43593 0
M  V30 3536 H 327.171 -2.41537 -2.43957 0
M  V30 3537 N 329.616 1.39756 -0.72842 0
M  V30 3538 C 330.856 2.025 -0.278078 0
M  V30 3539 C 331.22 1.5654 1.11173 0
M  V30 3540 O 332.421 2.11435 1.65978 0
M  V30 3541 C 330.692 3.55489 -0.369139 0
M  V30 3542 S 332.251 4.388 0.00232983 0
M  V30 3543 H 329.069 0.702534 -0.109391 0
M  V30 3544 H 331.671 1.70672 -0.95348 0
M  V30 3545 H 330.375 3.86429 -1.38204 0
M  V30 3546 H 329.906 3.92061 0.324308 0
M  V30 3547 H 331.921 4.80954 1.22055 0
M  V30 3548 N 331.094 0.475555 1.50254 0
M  V30 3549 C 332.324 -0.0753399 2.06463 0
M  V30 3550 C 332.732 -1.33661 1.33908 0
M  V30 3551 O 332.075 -1.79219 0.403257 0
M  V30 3552 C 332.137 -0.424921 3.5698 0
M  V30 3553 C 331.801 0.734965 4.51051 0
M  V30 3554 C 332.798 1.61827 4.94073 0
M  V30 3555 C 330.483 0.926557 4.9368 0
M  V30 3556 C 332.477 2.67754 5.78434 0
M  V30 3557 C 330.164 1.98904 5.77824 0
M  V30 3558 C 331.162 2.8629 6.20103 0
M  V30 3559 O 330.85 3.90708 7.02568 0
M  V30 3560 H 330.582 0.00576308 0.675975 0
M  V30 3561 H 333.136 0.664662 1.94349 0
M  V30 3562 H 331.366 -1.21817 3.67012 0
M  V30 3563 H 333.055 -0.911422 3.95535 0
M  V30 3564 H 333.821 1.48196 4.61804 0
M  V30 3565 H 329.7 0.25584 4.6029 0
M  V30 3566 H 333.244 3.35992 6.11355 0
M  V30 3567 H 329.141 2.12541 6.09505 0
M  V30 3568 H 329.909 3.87751 7.20827 0
M  V30 3569 N 332.573 -1.56217 0.208337 0
M  V30 3570 C 333.801 -2.02337 -0.43215 0
M  V30 3571 C 334.216 -1.08834 -1.54275 0
M  V30 3572 O 333.573 -0.0955462 -1.8225 0
M  V30 3573 C 333.624 -3.48072 -0.976138 0
M  V30 3574 O 333.345 -4.38007 0.0901621 0
M  V30 3575 C 334.846 -4.09773 -1.69119 0
M  V30 3576 H 332.066 -0.662385 -0.10718 0
M  V30 3577 H 334.61 -2.01966 0.320923 0
M  V30 3578 H 332.765 -3.49099 -1.67954 0
M  V30 3579 H 333.179 -5.23543 -0.316701 0
M  V30 3580 H 334.653 -5.13556 -2.02397 0
M  V30 3581 H 335.13 -3.53999 -2.59964 0
M  V30 3582 H 335.736 -4.12556 -1.03332 0
M  V30 3583 N 334.051 0.0651679 -1.57465 0
M  V30 3584 C 335.462 0.616213 -1.76238 0
M  V30 3585 C 335.813 1.7756 -0.834689 0
M  V30 3586 O 334.938 2.1639 -0.0204156 0
M  V30 3587 C 335.533 1.12462 -3.1959 0
M  V30 3588 C 334.092 1.62147 -3.39684 0
M  V30 3589 C 333.239 0.543739 -2.71917 0
M  V30 3590 H 336.19 -0.161022 -1.57881 0
M  V30 3591 H 336.211 1.99324 -3.24114 0
M  V30 3592 H 335.723 0.280592 -3.87084 0
M  V30 3593 H 333.824 2.48854 -2.77313 0
M  V30 3594 H 333.937 1.69385 -4.48158 0
M  V30 3595 H 332.301 0.990352 -2.34657 0
M  V30 3596 H 333.084 -0.290216 -3.42071 0
M  V30 3597 N 335.529 1.53961 0.336706 0
M  V30 3598 C 336.759 1.75229 1.09446 0
M  V30 3599 C 337.167 0.494602 1.82621 0
M  V30 3600 O 336.51 -0.543764 1.75468 0
M  V30 3601 C 336.572 2.88288 2.1478 0
M  V30 3602 C 336.236 4.27656 1.6112 0
M  V30 3603 C 337.233 5.08981 1.0599 0
M  V30 3604 C 334.918 4.74161 1.6576 0
M  V30 3605 C 336.912 6.34916 0.562129 0
M  V30 3606 C 334.599 6.00067 1.15595 0
M  V30 3607 C 335.597 6.80278 0.609147 0
M  V30 3608 O 335.285 8.03818 0.114999 0
M  V30 3609 H 335.017 0.588881 0.331956 0
M  V30 3610 H 337.571 2.01614 0.392566 0
M  V30 3611 H 335.801 2.57443 2.88548 0
M  V30 3612 H 337.49 2.97461 2.76174 0
M  V30 3613 H 338.256 4.74213 1.01722 0
M  V30 3614 H 334.135 4.11781 2.07261 0
M  V30 3615 H 337.679 6.9747 0.134668 0
M  V30 3616 H 333.576 6.3433 1.19566 0
M  V30 3617 H 334.344 8.18172 0.231651 0
M  V30 3618 N 337.007 -0.598083 1.45811 0
M  V30 3619 C 338.237 -1.38121 1.53643 0
M  V30 3620 C 338.645 -1.88425 0.171081 0
M  V30 3621 O 337.988 -1.63409 -0.839237 0
M  V30 3622 C 338.05 -2.61432 2.46766 0
M  V30 3623 C 337.714 -2.32702 3.93318 0
M  V30 3624 C 338.711 -1.92479 4.82957 0
M  V30 3625 C 336.396 -2.45321 4.38318 0
M  V30 3626 C 338.39 -1.65248 6.15607 0
M  V30 3627 C 336.077 -2.17703 5.71007 0
M  V30 3628 C 337.075 -1.7773 6.5947 0
M  V30 3629 O 336.763 -1.50441 7.89698 0
M  V30 3630 H 336.495 -0.428863 0.522544 0
M  V30 3631 H 339.049 -0.73557 1.91777 0
M  V30 3632 H 337.279 -3.28749 2.0362 0
M  V30 3633 H 338.968 -3.23487 2.45175 0
M  V30 3634 H 339.734 -1.82258 4.49452 0
M  V30 3635 H 335.613 -2.75399 3.69697 0
M  V30 3636 H 339.157 -1.33973 6.84614 0
M  V30 3637 H 335.054 -2.27544 6.04065 0
M  V30 3638 H 335.822 -1.64415 8.01817 0
M  V30 3639 N 338.485 -1.33259 -0.841409 0
M  V30 3640 C 339.731 -1.24757 -1.59886 0
M  V30 3641 C 340.064 0.186913 -1.93298 0
M  V30 3642 O 339.339 1.12757 -1.5848 0
M  V30 3643 C 339.622 -2.12036 -2.91055 0
M  V30 3644 C 339.475 -3.63929 -2.6434 0
M  V30 3645 C 340.794 -1.9916 -3.92458 0
M  V30 3646 H 337.913 -0.454542 -0.580138 0
M  V30 3647 H 340.555 -1.63335 -0.970647 0
M  V30 3648 H 338.705 -1.79265 -3.44669 0
M  V30 3649 H 340.377 -4.06978 -2.17178 0
M  V30 3650 H 338.62 -3.85935 -1.98082 0
M  V30 3651 H 339.291 -4.20341 -3.57796 0
M  V30 3652 H 341.767 -2.27895 -3.48143 0
M  V30 3653 H 340.643 -2.62484 -4.82072 0
M  V30 3654 H 340.904 -0.963082 -4.31482 0
M  V30 3655 N 339.963 1.05934 -1.16686 0
M  V30 3656 C 340.926 2.11669 -0.879144 0
M  V30 3657 C 341.926 1.60294 0.127445 0
M  V30 3658 O 343.116 1.7389 -0.103865 0
M  V30 3659 C 340.248 3.39438 -0.315425 0
M  V30 3660 H 341.441 2.38626 -1.81653 0
M  V30 3661 H 338.994 1.22058 -0.976299 0
M  V30 3662 H 339.729 3.18132 0.629468 0
M  V30 3663 H 339.514 3.78034 -1.04079 0
M  V30 3664 H 341.004 4.17391 -0.132189 0
M  V30 3665 N 341.441 0.965919 1.2453 0
M  V30 3666 C 342.852 0.665929 1.7442 0
M  V30 3667 C 343.203 -0.818407 1.78316 0
M  V30 3668 O 342.328 -1.64037 1.41141 0
M  V30 3669 C 342.923 1.20211 3.16757 0
M  V30 3670 C 341.482 0.952059 3.6416 0
M  V30 3671 C 340.629 1.33848 2.42858 0
M  V30 3672 H 343.58 1.14144 1.10258 0
M  V30 3673 H 343.601 0.567544 3.76244 0
M  V30 3674 H 343.113 2.28244 3.13889 0
M  V30 3675 H 341.214 -0.112821 3.72429 0
M  V30 3676 H 341.327 1.59645 4.51719 0
M  V30 3677 H 339.691 0.756864 2.43195 0
M  V30 3678 H 340.474 2.42827 2.42673 0
M  V30 3679 N 342.919 -1.39368 0.735821 0
M  V30 3680 C 343.829 -2.34395 0.0979693 0
M  V30 3681 C 344.845 -1.58361 -0.720968 0
M  V30 3682 O 346.021 -1.90648 -0.649245 0
M  V30 3683 C 343.086 -3.37393 -0.797916 0
M  V30 3684 C 342.147 -4.29287 0.0333662 0
M  V30 3685 C 341.38 -5.27365 -0.819854 0
M  V30 3686 O 341.603 -5.31959 -2.05855 0
M  V30 3687 O 340.537 -6.01389 -0.248079 0
M  V30 3688 H 344.363 -2.90601 0.882315 0
M  V30 3689 H 341.948 -1.40909 0.4965 0
M  V30 3690 H 343.83 -4.00505 -1.31048 0
M  V30 3691 H 342.505 -2.83571 -1.56106 0
M  V30 3692 H 341.412 -3.69395 0.591475 0
M  V30 3693 H 342.745 -4.86317 0.758752 0
M  V30 3694 N 344.397 -0.483516 -1.5 0
M  V30 3695 C 345.643 0.0672592 -2.02688 0
M  V30 3696 C 345.976 1.38247 -1.36387 0
M  V30 3697 O 345.251 1.88131 -0.493675 0
M  V30 3698 C 345.534 0.238109 -3.59312 0
M  V30 3699 C 345.387 -1.099 -4.36168 0
M  V30 3700 C 346.706 0.986916 -4.28892 0
M  V30 3701 H 343.825 0.0229696 -0.736642 0
M  V30 3702 H 346.467 -0.631527 -1.79197 0
M  V30 3703 H 344.617 0.8333 -3.79458 0
M  V30 3704 H 346.289 -1.73172 -4.27562 0
M  V30 3705 H 344.532 -1.69261 -3.99416 0
M  V30 3706 H 345.203 -0.932954 -5.44059 0
M  V30 3707 H 347.679 0.482302 -4.13295 0
M  V30 3708 H 346.555 1.07527 -5.38265 0
M  V30 3709 H 346.816 2.0265 -3.92919 0
M  V30 3710 N 345.875 1.56104 -0.216619 0
M  V30 3711 C 346.805 2.23063 0.690296 0
M  V30 3712 C 347.786 1.20072 1.20485 0
M  V30 3713 O 348.971 1.48643 1.24976 0
M  V30 3714 C 346.101 2.90672 1.90072 0
M  V30 3715 C 345.055 4.00092 1.5202 0
M  V30 3716 C 344.381 4.54972 2.80899 0
M  V30 3717 C 345.681 5.17398 0.71391 0
M  V30 3718 H 347.375 2.99109 0.132038 0
M  V30 3719 H 344.921 1.43866 0.0620664 0
M  V30 3720 H 346.874 3.36204 2.54057 0
M  V30 3721 H 345.598 2.12066 2.48386 0
M  V30 3722 H 344.257 3.55283 0.903839 0
M  V30 3723 H 343.905 3.73102 3.37348 0
M  V30 3724 H 343.605 5.28817 2.56176 0
M  V30 3725 H 345.129 5.0322 3.45836 0
M  V30 3726 H 346.543 5.59342 1.25735 0
M  V30 3727 H 344.94 5.97444 0.563951 0
M  V30 3728 H 346.01 4.84088 -0.280527 0
M  V30 3729 N 347.353 -0.0568162 1.57498 0
M  V30 3730 C 348.601 -0.751617 1.87604 0
M  V30 3731 C 348.922 -1.77351 0.81066 0
M  V30 3732 O 348.192 -1.95254 -0.159018 0
M  V30 3733 H 346.772 -0.280583 0.692302 0
M  V30 3734 H 349.434 -0.0293483 1.94878 0
M  V30 3735 H 348.53 -1.25852 2.856 0
M  V30 3736 N 348.832 -1.54138 -0.328536 0
M  V30 3737 C 350.243 -1.63395 -0.903272 0
M  V30 3738 C 350.594 -0.524828 -1.8905 0
M  V30 3739 O 349.719 0.343068 -2.13663 0
M  V30 3740 C 350.314 -2.9618 -1.64507 0
M  V30 3741 C 348.873 -3.0765 -2.1686 0
M  V30 3742 C 348.02 -2.58933 -0.992416 0
M  V30 3743 H 350.971 -1.58344 -0.106253 0
M  V30 3744 H 350.992 -2.86061 -2.50897 0
M  V30 3745 H 350.504 -3.76884 -0.926302 0
M  V30 3746 H 348.605 -2.31611 -2.91868 0
M  V30 3747 H 348.718 -4.1337 -2.42202 0
M  V30 3748 H 347.082 -2.14706 -1.37016 0
M  V30 3749 H 347.865 -3.42089 -0.288041 0
M  V30 3750 N 350.31 0.590341 -1.46126 0
M  V30 3751 C 351.22 1.72793 -1.58681 0
M  V30 3752 C 352.236 1.67516 -0.470566 0
M  V30 3753 O 353.412 1.87562 -0.733642 0
M  V30 3754 C 350.477 3.09287 -1.5666 0
M  V30 3755 C 349.538 3.25886 -2.79458 0
M  V30 3756 C 348.771 4.55869 -2.77524 0
M  V30 3757 O 348.994 5.3928 -1.85832 0
M  V30 3758 O 347.928 4.75552 -3.68964 0
M  V30 3759 H 351.754 1.65149 -2.54872 0
M  V30 3760 H 349.339 0.756486 -1.28832 0
M  V30 3761 H 351.221 3.90577 -1.58202 0
M  V30 3762 H 349.896 3.17385 -0.636271 0
M  V30 3763 H 348.803 2.44119 -2.83472 0
M  V30 3764 H 350.136 3.22675 -3.71674 0
M  V30 3765 N 351.788 1.33704 0.83433 0
M  V30 3766 C 352.735 1.24335 1.94447 0
M  V30 3767 C 353.705 0.120991 1.65659 0
M  V30 3768 O 354.89 0.300035 1.88426 0
M  V30 3769 C 352.03 0.993124 3.30501 0
M  V30 3770 C 351.143 2.20217 3.71657 0
M  V30 3771 C 350.278 1.88572 4.96602 0
M  V30 3772 C 349.317 3.05683 5.30306 0
M  V30 3773 N 348.454 2.73997 6.46429 0
M  V30 3774 H 353.294 2.1928 2.01792 0
M  V30 3775 H 350.831 1.09035 0.987404 0
M  V30 3776 H 352.789 0.828467 4.08892 0
M  V30 3777 H 351.419 0.0803902 3.227 0
M  V30 3778 H 350.471 2.47642 2.88752 0
M  V30 3779 H 351.783 3.07752 3.92543 0
M  V30 3780 H 350.937 1.68776 5.82752 0
M  V30 3781 H 349.676 0.982799 4.77695 0
M  V30 3782 H 348.681 3.26088 4.42659 0
M  V30 3783 H 349.906 3.96737 5.51159 0
M  V30 3784 H 347.852 1.86268 6.28999 0
M  V30 3785 H 347.769 3.55064 6.67432 0
M  V30 3786 H 349.037 2.57679 7.35678 0
M  V30 3787 N 353.266 -1.05314 1.17247 0
M  V30 3788 C 354.496 -1.81707 0.983166 0
M  V30 3789 C 354.904 -1.83222 -0.471822 0
M  V30 3790 O 354.247 -1.25721 -1.3394 0
M  V30 3791 C 354.309 -3.29134 1.44606 0
M  V30 3792 C 353.973 -3.51304 2.92292 0
M  V30 3793 C 354.97 -3.4353 3.90235 0
M  V30 3794 C 352.655 -3.78306 3.30439 0
M  V30 3795 C 354.649 -3.62442 5.24323 0
M  V30 3796 C 352.336 -3.96866 4.64694 0
M  V30 3797 C 353.334 -3.88933 5.61445 0
M  V30 3798 O 353.022 -4.06976 6.93272 0
M  V30 3799 H 352.754 -0.579476 0.348114 0
M  V30 3800 H 355.308 -1.33705 1.55924 0
M  V30 3801 H 353.538 -3.78046 0.813537 0
M  V30 3802 H 355.227 -3.87049 1.22262 0
M  V30 3803 H 355.993 -3.22648 3.62109 0
M  V30 3804 H 351.872 -3.83585 2.55702 0
M  V30 3805 H 355.416 -3.56165 5.99827 0
M  V30 3806 H 351.313 -4.1724 4.92525 0
M  V30 3807 H 352.081 -4.24209 6.99992 0
M  V30 3808 N 354.744 -0.972509 -1.24016 0
M  V30 3809 C 356.021 -0.553733 -1.87598 0
M  V30 3810 C 356.401 0.969158 -1.87538 0
M  V30 3811 O 355.749 1.84255 -1.35139 0
M  V30 3812 C 355.959 -1.15076 -3.29482 0
M  V30 3813 C 357.307 -1.23862 -4.06132 0
M  V30 3814 O 358.331 -1.10363 -3.38672 0
M  V30 3815 O 357.19 -1.45252 -5.26844 0
M  V30 3816 H 354.284 -0.185331 -0.805966 0
M  V30 3817 H 356.83 -1.06709 -1.31952 0
M  V30 3818 H 355.602 -2.19333 -3.2405 0
M  V30 3819 H 355.225 -0.621746 -3.92709 0
M  V30 3820 N 356.222 1.38976 -0.743202 0
M  V30 3821 C 357.169 2.30544 -0.10861 0
M  V30 3822 C 358.139 1.49642 0.720869 0
M  V30 3823 O 359.324 1.78304 0.679142 0
M  V30 3824 C 356.464 3.36018 0.786496 0
M  V30 3825 C 355.577 4.31963 -0.0564849 0
M  V30 3826 C 354.712 5.24506 0.840657 0
M  V30 3827 C 353.751 6.121 -0.00658363 0
M  V30 3828 N 352.888 6.96973 0.846943 0
M  V30 3829 H 357.728 2.8424 -0.895088 0
M  V30 3830 H 355.265 1.3995 -0.453048 0
M  V30 3831 H 357.223 3.95768 1.31999 0
M  V30 3832 H 355.853 2.83758 1.53887 0
M  V30 3833 H 354.905 3.73763 -0.707492 0
M  V30 3834 H 356.217 4.93703 -0.711229 0
M  V30 3835 H 355.371 5.89322 1.4417 0
M  V30 3836 H 354.11 4.63107 1.52916 0
M  V30 3837 H 353.115 5.46289 -0.620366 0
M  V30 3838 H 354.34 6.75565 -0.691992 0
M  V30 3839 H 352.286 6.38133 1.52059 0
M  V30 3840 H 352.203 7.5559 0.248864 0
M  V30 3841 H 353.471 7.6621 1.43328 0
M  V30 3842 N 357.7 0.491464 1.49741 0
M  V30 3843 C 358.925 -0.0557177 2.07325 0
M  V30 3844 C 359.35 -1.30925 1.35056 0
M  V30 3845 O 358.708 -1.76733 0.404365 0
M  V30 3846 C 358.756 -0.302074 3.59333 0
M  V30 3847 O 357.86 -1.37868 3.88672 0
M  V30 3848 H 357.201 0.0219956 0.663636 0
M  V30 3849 H 359.731 0.688352 1.92673 0
M  V30 3850 H 359.741 -0.536464 4.04458 0
M  V30 3851 H 358.416 0.61383 4.11345 0
M  V30 3852 H 356.993 -1.12999 3.55367 0
M  V30 3853 N 359.178 -1.55987 0.224894 0
M  V30 3854 C 360.418 -2.00293 -0.407706 0
M  V30 3855 C 360.782 -1.1093 -1.56711 0
M  V30 3856 O 361.983 -1.44597 -2.26595 0
M  V30 3857 C 360.254 -3.47675 -0.82805 0
M  V30 3858 S 361.813 -4.14 -1.45429 0
M  V30 3859 H 358.631 -0.699152 -0.129256 0
M  V30 3860 H 361.233 -1.92609 0.334967 0
M  V30 3861 H 359.937 -4.10392 0.0253964 0
M  V30 3862 H 359.468 -3.59239 -1.60345 0
M  V30 3863 H 361.483 -4.13465 -2.74337 0
M  V30 3864 N 360.656 0.0484629 -1.57525 0
M  V30 3865 C 361.933 0.777447 -1.79486 0
M  V30 3866 C 362.313 1.94597 -0.818251 0
M  V30 3867 O 361.661 2.28047 0.143767 0
M  V30 3868 C 361.871 1.22864 -3.26658 0
M  V30 3869 C 363.219 1.65251 -3.91123 0
M  V30 3870 O 364.243 1.32372 -3.3069 0
M  V30 3871 O 363.102 2.26207 -4.97486 0
M  V30 3872 H 360.196 0.374357 -0.737419 0
M  V30 3873 H 362.742 0.0267359 -1.69679 0
M  V30 3874 H 361.514 0.393589 -3.89316 0
M  V30 3875 H 361.137 2.03996 -3.41279 0
M  V30 3876 N 362.134 1.5431 0.320358 0
M  V30 3877 C 363.067 1.78769 1.41834 0
M  V30 3878 C 364.045 0.63783 1.49568 0
M  V30 3879 O 365.229 0.875628 1.66928 0
M  V30 3880 C 362.356 1.90712 2.79905 0
M  V30 3881 C 361.402 3.13023 2.89687 0
M  V30 3882 S 362.235 4.71554 2.53766 0
M  V30 3883 C 363.391 4.86408 3.93902 0
M  V30 3884 H 363.624 2.71619 1.20874 0
M  V30 3885 H 361.157 1.45474 0.517377 0
M  V30 3886 H 363.115 1.98279 3.59438 0
M  V30 3887 H 361.776 0.988343 2.98145 0
M  V30 3888 H 360.969 3.18124 3.90913 0
M  V30 3889 H 360.571 3.03803 2.18128 0
M  V30 3890 H 362.863 4.69241 4.88691 0
M  V30 3891 H 363.806 5.88508 3.93782 0
M  V30 3892 H 364.214 4.14689 3.83005 0
M  V30 3893 N 363.613 -0.582584 1.46437 0
M  V30 3894 C 364.859 -1.34064 1.52965 0
M  V30 3895 C 365.214 -1.91566 0.178968 0
M  V30 3896 O 364.507 -1.73526 -0.812365 0
M  V30 3897 C 364.701 -2.48964 2.56421 0
M  V30 3898 C 364.53 -2.02717 4.01417 0
M  V30 3899 C 363.3 -1.87728 4.69134 0
M  V30 3900 C 365.498 -1.58675 4.8921 0
M  V30 3901 N 363.48 -1.35554 5.98747 0
M  V30 3902 C 364.851 -1.18093 6.08649 0
M  V30 3903 C 366.906 -1.46494 4.75861 0
M  V30 3904 C 365.609 -0.665427 7.16215 0
M  V30 3905 C 367.635 -0.96347 5.83499 0
M  V30 3906 C 366.997 -0.567432 7.02111 0
M  V30 3907 H 363.096 -0.483551 0.614575 0
M  V30 3908 H 365.68 -0.663309 1.83053 0
M  V30 3909 H 363.851 -3.1426 2.28244 0
M  V30 3910 H 365.583 -3.15913 2.52944 0
M  V30 3911 H 362.338 -2.09678 4.24655 0
M  V30 3912 H 362.762 -1.11628 6.67734 0
M  V30 3913 H 367.404 -1.75731 3.8455 0
M  V30 3914 H 365.122 -0.360639 8.07295 0
M  V30 3915 H 368.708 -0.873129 5.75211 0
M  V30 3916 H 367.588 -0.185389 7.83981 0
M  V30 3917 N 365.091 -1.34144 -0.827227 0
M  V30 3918 C 366.316 -1.29476 -1.62021 0
M  V30 3919 C 366.741 0.129292 -1.87655 0
M  V30 3920 O 366.099 1.08967 -1.449 0
M  V30 3921 C 366.147 -2.08702 -2.94068 0
M  V30 3922 O 365.251 -1.45359 -3.85933 0
M  V30 3923 H 364.592 -0.444881 -0.492927 0
M  V30 3924 H 367.122 -1.76882 -1.02829 0
M  V30 3925 H 367.132 -2.19898 -3.43669 0
M  V30 3926 H 365.807 -3.12241 -2.74734 0
M  V30 3927 H 364.384 -1.42879 -3.44442 0
M  V30 3928 N 366.569 1.04691 -1.17803 0
M  V30 3929 C 367.499 2.14494 -0.92275 0
M  V30 3930 C 368.48 1.69546 0.137179 0
M  V30 3931 O 369.665 1.94195 -0.0141108 0
M  V30 3932 C 366.795 3.44491 -0.440803 0
M  V30 3933 C 365.749 4.03031 -1.4405 0
M  V30 3934 C 365.075 5.28432 -0.81631 0
M  V30 3935 C 366.375 4.39932 -2.81527 0
M  V30 3936 H 368.069 2.36107 -1.84103 0
M  V30 3937 H 365.615 1.1347 -0.886599 0
M  V30 3938 H 367.568 4.2066 -0.249602 0
M  V30 3939 H 366.292 3.22546 0.513025 0
M  V30 3940 H 364.951 3.28937 -1.61853 0
M  V30 3941 H 364.599 5.02792 0.144511 0
M  V30 3942 H 364.299 5.68559 -1.48371 0
M  V30 3943 H 365.823 6.07284 -0.635496 0
M  V30 3944 H 367.237 5.07113 -2.67412 0
M  V30 3945 H 365.634 4.9109 -3.44892 0
M  V30 3946 H 366.704 3.50045 -3.35554 0
M  V30 3947 N 368.047 0.979072 1.23499 0
M  V30 3948 C 369.295 0.645941 1.91499 0
M  V30 3949 C 369.616 -0.822948 1.76784 0
M  V30 3950 O 368.886 -1.58854 1.14639 0
M  V30 3951 H 367.466 0.235919 0.708767 0
M  V30 3952 H 370.128 1.2426 1.50152 0
M  V30 3953 H 369.224 0.896411 2.9895 0
M  V30 3954 N 369.525 -1.3858 0.750561 0
M  V30 3955 C 370.771 -2.00481 0.305825 0
M  V30 3956 C 371.104 -1.5944 -1.10872 0
M  V30 3957 O 370.379 -0.83052 -1.75877 0
M  V30 3958 C 370.662 -3.5758 0.425287 0
M  V30 3959 C 370.515 -4.08594 1.88072 0
M  V30 3960 C 371.834 -4.39719 -0.183122 0
M  V30 3961 H 368.953 -0.728348 0.112598 0
M  V30 3962 H 371.595 -1.64566 0.949638 0
M  V30 3963 H 369.745 -3.88306 -0.122828 0
M  V30 3964 H 371.417 -3.88523 2.48691 0
M  V30 3965 H 369.66 -3.61574 2.39681 0
M  V30 3966 H 370.331 -5.177 1.91548 0
M  V30 3967 H 372.807 -4.15128 0.284303 0
M  V30 3968 H 371.683 -5.48856 -0.0692757 0
M  V30 3969 H 371.944 -4.23434 -1.27106 0
M  V30 3970 N 371.003 -0.499398 -1.49478 0
M  V30 3971 C 372.252 0.0475259 -2.01644 0
M  V30 3972 C 372.565 1.38195 -1.38425 0
M  V30 3973 O 373.771 2.01547 -1.8191 0
M  V30 3974 C 372.227 0.135164 -3.59646 0
M  V30 3975 C 371.835 -1.19252 -4.31837 0
M  V30 3976 C 373.579 0.632538 -4.19761 0
M  V30 3977 C 371.486 -1.06713 -5.81693 0
M  V30 3978 H 370.416 0.0215349 -0.753692 0
M  V30 3979 H 373.067 -0.638577 -1.7203 0
M  V30 3980 H 371.449 0.885681 -3.85969 0
M  V30 3981 H 372.623 -1.9562 -4.17216 0
M  V30 3982 H 370.938 -1.62321 -3.83459 0
M  V30 3983 H 373.535 0.743833 -5.29501 0
M  V30 3984 H 373.878 1.63098 -3.83021 0
M  V30 3985 H 374.411 -0.0613987 -3.97753 0
M  V30 3986 H 371.15 -2.03979 -6.22955 0
M  V30 3987 H 370.67 -0.344307 -5.98811 0
M  V30 3988 H 372.349 -0.745208 -6.42694 0
M  V30 3989 N 372.481 1.55866 -0.233164 0
M  V30 3990 C 373.414 2.16794 0.712442 0
M  V30 3991 C 374.392 1.1158 1.18273 0
M  V30 3992 O 375.576 1.39897 1.26337 0
M  V30 3993 C 372.703 2.75757 1.96661 0
M  V30 3994 C 371.749 3.93902 1.63533 0
M  V30 3995 S 372.582 5.30223 0.74995 0
M  V30 3996 C 373.738 5.92631 2.01343 0
M  V30 3997 H 373.971 2.96662 0.194617 0
M  V30 3998 H 371.504 1.5439 -0.0177425 0
M  V30 3999 H 373.462 3.10367 2.68668 0
M  V30 4000 H 372.123 1.9586 2.45556 0
M  V30 4001 H 371.316 4.33702 2.56747 0
M  V30 4002 H 370.918 3.60499 0.995804 0
M  V30 4003 H 373.21 6.09312 2.96219 0
M  V30 4004 H 374.153 6.88388 1.65915 0
M  V30 4005 H 374.561 5.21571 2.15925 0
M  V30 4006 N 373.959 -0.0401083 1.57549 0
M  V30 4007 C 375.189 -0.744115 1.92734 0
M  V30 4008 C 375.597 -1.70005 0.830348 0
M  V30 4009 O 374.94 -1.82576 -0.20286 0
M  V30 4010 C 375.002 -1.56516 3.2364 0
M  V30 4011 C 374.666 -0.7752 4.50377 0
M  V30 4012 C 375.663 -0.0803326 5.19838 0
M  V30 4013 C 373.348 -0.733002 4.96923 0
M  V30 4014 C 375.342 0.646154 6.34116 0
M  V30 4015 C 373.029 -0.00276321 6.111 0
M  V30 4016 C 374.027 0.685585 6.7955 0
M  V30 4017 O 373.715 1.40399 7.91545 0
M  V30 4018 H 373.447 -0.214861 0.640945 0
M  V30 4019 H 376.001 -0.00503675 2.05399 0
M  V30 4020 H 374.231 -2.3478 3.07271 0
M  V30 4021 H 375.92 -2.15076 3.44234 0
M  V30 4022 H 376.686 -0.104035 4.84888 0
M  V30 4023 H 372.565 -1.25827 4.43496 0
M  V30 4024 H 376.109 1.18398 6.87479 0
M  V30 4025 H 372.006 0.0229012 6.45496 0
M  V30 4026 H 372.774 1.31653 8.07843 0
M  V30 4027 N 375.437 -1.54477 -0.31217 0
M  V30 4028 C 376.686 -1.72438 -1.04633 0
M  V30 4029 C 376.999 -0.511163 -1.88803 0
M  V30 4030 O 378.205 -0.572341 -2.65399 0
M  V30 4031 C 376.661 -3.05043 -1.9099 0
M  V30 4032 C 376.269 -4.33806 -1.11877 0
M  V30 4033 C 378.013 -3.32364 -2.64073 0
M  V30 4034 C 375.92 -5.57467 -1.97445 0
M  V30 4035 H 374.85 -0.642647 -0.394361 0
M  V30 4036 H 377.501 -1.80966 -0.303929 0
M  V30 4037 H 375.883 -2.90451 -2.69173 0
M  V30 4038 H 377.057 -4.59199 -0.383843 0
M  V30 4039 H 375.372 -4.13336 -0.504252 0
M  V30 4040 H 377.969 -4.21951 -3.28423 0
M  V30 4041 H 378.312 -2.50745 -3.32314 0
M  V30 4042 H 378.845 -3.47875 -1.92944 0
M  V30 4043 H 375.584 -6.41722 -1.33692 0
M  V30 4044 H 375.104 -5.36277 -2.6864 0
M  V30 4045 H 376.783 -5.94303 -2.5576 0
M  V30 4046 N 376.915 0.57481 -1.46744 0
M  V30 4047 C 377.845 1.69337 -1.60771 0
M  V30 4048 C 378.826 1.63825 -0.457736 0
M  V30 4049 O 380.011 1.8172 -0.684947 0
M  V30 4050 C 377.141 3.0798 -1.60517 0
M  V30 4051 C 376.095 3.28327 -2.74564 0
M  V30 4052 C 375.421 4.67578 -2.59373 0
M  V30 4053 C 376.721 3.15398 -4.16319 0
M  V30 4054 H 378.415 1.57853 -2.54407 0
M  V30 4055 H 375.961 0.75799 -1.22436 0
M  V30 4056 H 377.914 3.86061 -1.68923 0
M  V30 4057 H 376.638 3.20381 -0.634305 0
M  V30 4058 H 375.297 2.52649 -2.65639 0
M  V30 4059 H 374.945 4.76755 -1.60353 0
M  V30 4060 H 374.645 4.82144 -3.35873 0
M  V30 4061 H 376.169 5.47817 -2.69682 0
M  V30 4062 H 377.583 3.83315 -4.26313 0
M  V30 4063 H 375.98 3.41482 -4.93468 0
M  V30 4064 H 377.05 2.12372 -4.3592 0
M  V30 4065 N 378.394 1.34581 0.820102 0
M  V30 4066 C 379.324 1.29038 1.94606 0
M  V30 4067 C 380.305 0.1673 1.69275 0
M  V30 4068 O 381.49 0.360112 1.90832 0
M  V30 4069 C 378.62 1.04793 3.31113 0
M  V30 4070 C 377.574 2.13597 3.70891 0
M  V30 4071 C 376.9 1.74537 5.05412 0
M  V30 4072 C 378.2 3.55451 3.8269 0
M  V30 4073 H 379.894 2.23248 1.99501 0
M  V30 4074 H 377.44 1.0747 0.958449 0
M  V30 4075 H 379.393 0.995592 4.0947 0
M  V30 4076 H 378.117 0.0702565 3.26524 0
M  V30 4077 H 376.776 2.17905 2.9481 0
M  V30 4078 H 376.424 0.754226 4.97313 0
M  V30 4079 H 376.124 2.47361 5.32997 0
M  V30 4080 H 377.648 1.70803 5.86224 0
M  V30 4081 H 379.062 3.5354 4.51312 0
M  V30 4082 H 377.459 4.26922 4.21732 0
M  V30 4083 H 378.529 3.92587 2.84611 0
M  V30 4084 N 379.872 -1.04064 1.18357 0
M  V30 4085 C 381.112 -1.78829 0.989921 0
M  V30 4086 C 381.476 -1.86106 -0.472095 0
M  V30 4087 O 382.677 -2.57076 -0.785187 0
M  V30 4088 C 380.948 -3.1823 1.6268 0
M  V30 4089 S 382.507 -4.09332 1.58091 0
M  V30 4090 H 379.325 -0.615754 0.355482 0
M  V30 4091 H 381.927 -1.24778 1.50501 0
M  V30 4092 H 380.631 -3.10543 2.68311 0
M  V30 4093 H 380.162 -3.77357 1.112 0
M  V30 4094 H 382.177 -4.92598 0.596817 0
M  V30 4095 N 381.35 -0.985608 -1.22978 0
M  V30 4096 C 382.598 -0.656087 -1.91154 0
M  V30 4097 C 382.919 0.813561 -1.77218 0
M  V30 4098 O 382.189 1.58244 -1.1548 0
M  V30 4099 H 380.769 -0.239674 -0.707506 0
M  V30 4100 H 383.431 -1.25054 -1.49491 0
M  V30 4101 H 382.527 -0.912253 -2.9847 0
M  V30 4102 N 382.828 1.3818 -0.7579 0
M  V30 4103 C 384.058 2.04004 -0.326463 0
M  V30 4104 C 384.466 1.57286 1.05156 0
M  V30 4105 O 383.809 0.743144 1.67997 0
M  V30 4106 C 383.871 3.58444 -0.275402 0
M  V30 4107 C 383.535 4.28237 -1.59569 0
M  V30 4108 C 384.532 4.53312 -2.54566 0
M  V30 4109 C 382.217 4.66341 -1.86631 0
M  V30 4110 C 384.211 5.15531 -3.74842 0
M  V30 4111 C 381.898 5.28283 -3.0718 0
M  V30 4112 C 382.896 5.52814 -4.01106 0
M  V30 4113 O 382.584 6.13465 -5.19534 0
M  V30 4114 H 382.316 0.662026 -0.136739 0
M  V30 4115 H 384.87 1.7777 -1.02893 0
M  V30 4116 H 383.1 3.83667 0.483337 0
M  V30 4117 H 384.789 4.05701 0.127099 0
M  V30 4118 H 385.555 4.24299 -2.34936 0
M  V30 4119 H 381.434 4.46591 -1.14358 0
M  V30 4120 H 384.978 5.34594 -4.48168 0
M  V30 4121 H 380.875 5.56719 -3.26702 0
M  V30 4122 H 381.643 6.31951 -5.20173 0
M  V30 4123 N 384.306 0.507319 1.49211 0
M  V30 4124 C 385.717 0.0611118 1.866 0
M  V30 4125 C 386.068 -1.35488 1.41907 0
M  V30 4126 O 385.193 -2.0108 0.799726 0
M  V30 4127 C 385.788 0.104125 3.3864 0
M  V30 4128 C 384.347 -0.28677 3.75306 0
M  V30 4129 C 383.494 0.473893 2.73221 0
M  V30 4130 H 386.445 0.719775 1.41439 0
M  V30 4131 H 386.466 -0.689672 3.74198 0
M  V30 4132 H 385.978 1.13482 3.71138 0
M  V30 4133 H 384.079 -1.32046 3.48417 0
M  V30 4134 H 384.192 0.0370745 4.79086 0
M  V30 4135 H 382.556 -0.0770644 2.54583 0
M  V30 4136 H 383.339 1.50478 3.08563 0
M  V30 4137 N 385.784 -1.5574 0.241426 0
M  V30 4138 C 387.195 -1.84842 -0.262755 0
M  V30 4139 C 387.546 -1.16317 -1.58003 0
M  V30 4140 O 386.671 -0.439653 -2.11887 0
M  V30 4141 C 387.266 -3.35332 -0.483523 0
M  V30 4142 C 385.825 -3.6468 -0.931977 0
M  V30 4143 C 384.972 -2.77299 -0.0061151 0
M  V30 4144 H 387.923 -1.51761 0.464129 0
M  V30 4145 H 387.944 -3.56615 -1.32688 0
M  V30 4146 H 387.456 -3.85178 0.47537 0
M  V30 4147 H 385.557 -3.20307 -1.90353 0
M  V30 4148 H 385.67 -4.72498 -0.792628 0
M  V30 4149 H 384.034 -2.49408 -0.516503 0
M  V30 4150 H 384.817 -3.2995 0.948052 0
M  V30 4151 N 387.262 0.0317525 -1.57568 0
M  V30 4152 C 388.509 0.723104 -1.89149 0
M  V30 4153 C 388.837 1.75504 -0.838377 0
M  V30 4154 O 388.092 1.95037 0.160982 0
M  V30 4155 C 388.391 1.43167 -3.27472 0
M  V30 4156 C 388.057 0.535972 -4.47703 0
M  V30 4157 C 386.719 0.289262 -4.8033 0
M  V30 4158 C 389.071 -0.0826125 -5.21135 0
M  V30 4159 C 386.399 -0.584853 -5.83778 0
M  V30 4160 C 388.751 -0.944414 -6.25511 0
M  V30 4161 C 387.415 -1.20061 -6.56614 0
M  V30 4162 H 386.685 0.264602 -0.692146 0
M  V30 4163 H 389.332 -0.0169496 -1.91492 0
M  V30 4164 H 387.637 2.24497 -3.21105 0
M  V30 4165 H 389.334 1.97209 -3.49155 0
M  V30 4166 H 385.924 0.738414 -4.22191 0
M  V30 4167 H 390.108 0.0950302 -4.96209 0
M  V30 4168 H 385.364 -0.79168 -6.06253 0
M  V30 4169 H 389.538 -1.43026 -6.81554 0
M  V30 4170 H 387.165 -1.87967 -7.36595 0
M  V30 4171 N 388.74 1.54641 0.303973 0
M  V30 4172 C 389.97 1.77511 1.05705 0
M  V30 4173 C 390.378 0.533228 1.81531 0
M  V30 4174 O 389.721 -0.506423 1.76582 0
M  V30 4175 C 389.783 2.92779 2.08617 0
M  V30 4176 C 389.447 4.30977 1.52013 0
M  V30 4177 C 390.444 5.11115 0.9517 0
M  V30 4178 C 388.129 4.77571 1.55665 0
M  V30 4179 C 390.123 6.35966 0.427327 0
M  V30 4180 C 387.81 6.02384 1.02841 0
M  V30 4181 C 388.808 6.81417 0.464713 0
M  V30 4182 O 388.496 8.03881 -0.0555283 0
M  V30 4183 H 388.228 0.59579 0.319391 0
M  V30 4184 H 390.782 2.02401 0.349712 0
M  V30 4185 H 389.012 2.63506 2.83022 0
M  V30 4186 H 390.701 3.03252 2.69802 0
M  V30 4187 H 391.467 4.76264 0.916407 0
M  V30 4188 H 387.346 4.16085 1.9848 0
M  V30 4189 H 390.89 6.97599 -0.0133062 0
M  V30 4190 H 386.787 6.36723 1.06084 0
M  V30 4191 H 387.555 8.18479 0.0580522 0
M  V30 4192 N 390.218 -0.567019 1.47046 0
M  V30 4193 C 391.443 -1.3551 1.57009 0
M  V30 4194 C 391.868 -1.86841 0.217259 0
M  V30 4195 O 391.226 -1.62435 -0.805268 0
M  V30 4196 C 391.274 -2.50777 2.5912 0
M  V30 4197 O 390.378 -3.52706 2.13711 0
M  V30 4198 H 389.719 -0.402919 0.52778 0
M  V30 4199 H 392.249 -0.686241 1.92748 0
M  V30 4200 H 392.259 -2.97481 2.79229 0
M  V30 4201 H 390.934 -2.12771 3.57353 0
M  V30 4202 H 389.511 -3.12374 2.03659 0
M  V30 4203 N 391.696 -1.35014 -0.812953 0
M  V30 4204 C 392.644 -1.27435 -1.94585 0
M  V30 4205 C 393.638 -0.170494 -1.6854 0
M  V30 4206 O 394.844 -0.336085 -1.76835 0
M  V30 4207 H 391.219 -0.396144 -0.639198 0
M  V30 4208 H 393.19 -2.23158 -1.98098 0
M  V30 4209 C 391.939 -1.05677 -3.31252 0
M  V30 4210 H 391.262 -1.89853 -3.51846 0
M  V30 4211 H 392.702 -1.04413 -4.10943 0
M  V30 4212 C 391.161 0.239615 -3.36047 0
M  V30 4213 O 391.691 1.23759 -3.8216 0
M  V30 4214 N 389.897 0.276186 -2.89285 0
M  V30 4215 H 389.444 -0.53653 -2.51951 0
M  V30 4216 H 389.402 1.14332 -2.92875 0
M  V30 4217 N 393.175 1.03435 -1.18907 0
M  V30 4218 C 394.125 2.09924 -0.889706 0
M  V30 4219 C 395.109 1.60261 0.143216 0
M  V30 4220 O 396.301 1.76892 -0.0617122 0
M  V30 4221 C 393.43 3.40669 -0.424168 0
M  V30 4222 C 392.516 3.97082 -1.48952 0
M  V30 4223 N 392.907 4.27227 -2.70759 0
M  V30 4224 C 391.205 4.25029 -1.35152 0
M  V30 4225 C 391.906 4.7246 -3.39347 0
M  V30 4226 N 390.882 4.7366 -2.66735 0
M  V30 4227 H 394.684 2.31116 -1.81555 0
M  V30 4228 H 392.198 1.21246 -1.08042 0
M  V30 4229 H 394.195 4.16461 -0.191176 0
M  V30 4230 H 392.855 3.20901 0.495263 0
M  V30 4231 H 393.866 4.16678 -3.0757 0
M  V30 4232 H 390.543 4.14554 -0.495126 0
M  V30 4233 H 391.933 5.04751 -4.43481 0
M  V30 4234 N 394.653 0.992116 1.22453 0
M  V30 4235 C 395.901 0.666215 1.90804 0
M  V30 4236 C 396.222 -0.804152 1.77647 0
M  V30 4237 O 395.492 -1.57629 1.16318 0
M  V30 4238 H 394.072 0.243423 0.706225 0
M  V30 4239 H 396.734 1.25845 1.48825 0
M  V30 4240 H 395.83 0.928069 2.97982 0
M  V30 4241 N 396.131 -1.37776 0.765217 0
M  V30 4242 C 397.061 -2.32945 0.160953 0
M  V30 4243 C 398.042 -1.55454 -0.690516 0
M  V30 4244 O 399.227 -1.83721 -0.629318 0
M  V30 4245 C 396.357 -3.39669 -0.724031 0
M  V30 4246 C 395.311 -4.27992 0.0256173 0
M  V30 4247 C 394.637 -5.25673 -0.978383 0
M  V30 4248 C 395.937 -5.08309 1.20082 0
M  V30 4249 H 397.631 -2.83728 0.955969 0
M  V30 4250 H 395.177 -1.36416 0.461149 0
M  V30 4251 H 397.13 -4.05219 -1.15652 0
M  V30 4252 H 395.854 -2.87396 -1.5515 0
M  V30 4253 H 394.513 -3.63964 0.438812 0
M  V30 4254 H 394.161 -4.69682 -1.80022 0
M  V30 4255 H 393.861 -5.85625 -0.481378 0
M  V30 4256 H 395.385 -5.94098 -1.40995 0
M  V30 4257 H 396.799 -5.67034 0.845307 0
M  V30 4258 H 395.196 -5.77554 1.62947 0
M  V30 4259 H 396.266 -4.41365 2.00811 0
M  V30 4260 N 397.609 -0.515225 -1.4894 0
M  V30 4261 C 398.572 0.244681 -2.2789 0
M  V30 4262 C 399.572 0.881166 -1.34507 0
M  V30 4263 O 400.762 0.743497 -1.57537 0
M  V30 4264 C 397.894 1.35247 -3.12923 0
M  V30 4265 H 399.087 -0.448289 -2.96531 0
M  V30 4266 H 396.64 -0.270656 -1.53939 0
M  V30 4267 H 397.375 2.07916 -2.48881 0
M  V30 4268 H 397.16 0.901374 -3.81599 0
M  V30 4269 H 398.65 1.88737 -3.72516 0
M  V30 4270 N 399.087 1.5561 -0.249682 0
M  V30 4271 C 400.336 1.98187 0.37479 0
M  V30 4272 C 400.649 1.14111 1.58865 0
M  V30 4273 O 401.855 1.46714 2.28445 0
M  V30 4274 C 400.311 3.52661 0.718192 0
M  V30 4275 C 399.919 4.45481 -0.474428 0
M  V30 4276 C 401.663 4.03888 1.3067 0
M  V30 4277 C 399.57 5.91303 -0.107026 0
M  V30 4278 H 398.5 0.740159 0.143808 0
M  V30 4279 H 401.151 1.80125 -0.350336 0
M  V30 4280 H 399.533 3.66429 1.50152 0
M  V30 4281 H 400.707 4.43473 -1.25172 0
M  V30 4282 H 399.022 4.04751 -0.978052 0
M  V30 4283 H 401.619 5.10358 1.59496 0
M  V30 4284 H 401.962 3.51401 2.23211 0
M  V30 4285 H 402.495 3.93457 0.586211 0
M  V30 4286 H 399.234 6.47833 -0.999642 0
M  V30 4287 H 398.754 5.9644 0.634013 0
M  V30 4288 H 400.433 6.46258 0.309807 0
M  V30 4289 N 400.565 -0.0233959 1.57583 0
M  V30 4290 C 401.79 -0.728376 1.94189 0
M  V30 4291 C 402.215 -1.67793 0.850119 0
M  V30 4292 O 401.573 -1.80262 -0.19371 0
M  V30 4293 C 401.621 -1.45669 3.29868 0
M  V30 4294 O 400.725 -2.57013 3.22518 0
M  V30 4295 H 400.066 -0.195493 0.63457 0
M  V30 4296 H 402.596 0.0228214 2.04587 0
M  V30 4297 H 402.606 -1.82535 3.6489 0
M  V30 4298 H 401.281 -0.760314 4.08891 0
M  V30 4299 H 399.858 -2.22648 2.99136 0
M  V30 4300 N 402.043 -1.548 -0.295768 0
M  V30 4301 C 403.454 -1.65274 -0.868411 0
M  V30 4302 C 403.805 -0.56481 -1.87894 0
M  V30 4303 O 402.93 0.29767 -2.14343 0
M  V30 4304 C 403.525 -2.99603 -1.58188 0
M  V30 4305 C 402.084 -3.12181 -2.10286 0
M  V30 4306 C 401.231 -2.6098 -0.93727 0
M  V30 4307 H 404.182 -1.58534 -0.0726422 0
M  V30 4308 H 404.203 -2.91319 -2.44772 0
M  V30 4309 H 403.715 -3.78764 -0.846151 0
M  V30 4310 H 401.816 -2.3775 -2.8689 0
M  V30 4311 H 401.929 -4.18415 -2.33379 0
M  V30 4312 H 400.293 -2.17564 -1.32431 0
M  V30 4313 H 401.076 -3.42623 -0.215414 0
M  V30 4314 N 403.521 0.559213 -1.47345 0
M  V30 4315 C 404.769 1.31388 -1.53563 0
M  V30 4316 C 405.09 1.93985 -0.198678 0
M  V30 4317 O 404.36 1.79825 0.777167 0
M  V30 4318 H 402.94 0.487901 -0.565652 0
M  V30 4319 H 405.602 0.65315 -1.8363 0
M  V30 4320 H 404.698 2.10844 -2.30111 0
M  V30 4321 N 404.999 1.35443 0.805782 0
M  V30 4322 C 405.932 1.22783 1.92353 0
M  V30 4323 C 406.91 0.115543 1.62189 0
M  V30 4324 O 408.094 0.283778 1.86352 0
M  V30 4325 C 405.221 0.890746 3.26777 0
M  V30 4326 C 404.267 2.01519 3.75889 0
M  V30 4327 S 405.1 3.63101 3.93596 0
M  V30 4328 C 406.256 3.31472 5.30921 0
M  V30 4329 H 406.489 2.17394 2.02798 0
M  V30 4330 H 404.022 1.20669 0.963245 0
M  V30 4331 H 405.98 0.703068 4.04434 0
M  V30 4332 H 404.641 -0.0373152 3.14078 0
M  V30 4333 H 403.834 1.7335 4.7325 0
M  V30 4334 H 403.436 2.16124 3.05231 0
M  V30 4335 H 405.728 2.8435 6.1494 0
M  V30 4336 H 406.671 4.28036 5.64084 0
M  V30 4337 H 407.079 2.67221 4.97246 0
M  V30 4338 N 406.477 -1.02803 1.19454 0
M  V30 4339 C 407.424 -2.11099 0.933046 0
M  V30 4340 C 408.394 -1.65571 -0.132447 0
M  V30 4341 O 409.579 -1.90797 0.00987576 0
M  V30 4342 C 406.719 -3.41763 0.478747 0
M  V30 4343 C 405.832 -4.00833 1.6111 0
M  V30 4344 C 404.967 -5.19511 1.10825 0
M  V30 4345 C 404.006 -5.70639 2.21445 0
M  V30 4346 N 403.143 -6.80589 1.72461 0
M  V30 4347 H 407.983 -2.32804 1.86028 0
M  V30 4348 H 405.52 -1.14179 0.927441 0
M  V30 4349 H 407.478 -4.16736 0.196745 0
M  V30 4350 H 406.108 -3.20166 -0.411493 0
M  V30 4351 H 405.16 -3.23066 2.00829 0
M  V30 4352 H 406.472 -4.34794 2.4445 0
M  V30 4353 H 405.626 -6.01645 0.781533 0
M  V30 4354 H 404.365 -4.87086 0.244606 0
M  V30 4355 H 403.37 -4.87116 2.54947 0
M  V30 4356 H 404.595 -6.05102 3.08267 0
M  V30 4357 H 402.541 -6.50016 0.884056 0
M  V30 4358 H 402.458 -7.13681 2.49389 0
M  V30 4359 H 403.726 -7.66317 1.42755 0
M  V30 4360 N 407.956 -0.998596 -1.21925 0
M  V30 4361 C 409.184 -0.696286 -1.94832 0
M  V30 4362 C 409.599 0.740032 -1.73692 0
M  V30 4363 O 408.956 1.5 -1.03953 0
M  V30 4364 C 409.007 -0.999833 -3.47398 0
M  V30 4365 O 408.728 -2.37972 -3.67833 0
M  V30 4366 C 410.229 -0.716025 -4.37479 0
M  V30 4367 H 407.449 -0.257111 -0.619786 0
M  V30 4368 H 409.993 -1.33491 -1.54921 0
M  V30 4369 H 408.148 -0.406918 -3.85257 0
M  V30 4370 H 408.562 -2.48338 -4.61983 0
M  V30 4371 H 410.036 -0.978642 -5.43256 0
M  V30 4372 H 410.513 0.349968 -4.37803 0
M  V30 4373 H 411.119 -1.29025 -4.05256 0
M  V30 4374 N 409.434 1.37368 -0.772513 0
M  V30 4375 C 410.85 1.53059 -0.452231 0
M  V30 4376 C 411.05 1.73065 1.03203 0
M  V30 4377 O 410.106 1.75245 1.81784 0
M  V30 4378 C 411.419 2.72659 -1.26797 0
M  V30 4379 C 412.967 2.86521 -1.25995 0
M  V30 4380 C 413.442 4.09105 -2.05905 0
M  V30 4381 N 414.933 4.16219 -2.03263 0
M  V30 4382 C 415.668 5.10107 -2.61875 0
M  V30 4383 N 415.164 6.09547 -3.29278 0
M  V30 4384 N 416.957 5.02596 -2.51701 0
M  V30 4385 H 409.108 1.22634 -1.7342 0
M  V30 4386 H 411.371 0.597206 -0.736239 0
M  V30 4387 H 411.077 2.64343 -2.31982 0
M  V30 4388 H 410.951 3.66363 -0.897672 0
M  V30 4389 H 413.338 2.94308 -0.216081 0
M  V30 4390 H 413.419 1.93774 -1.66989 0
M  V30 4391 H 413.063 4.0208 -3.10313 0
M  V30 4392 H 412.993 5.00968 -1.62292 0
M  V30 4393 H 415.484 3.45012 -1.54192 0
M  V30 4394 H 415.797 6.77718 -3.71374 0
M  V30 4395 H 414.142 6.09824 -3.33377 0
M  V30 4396 H 417.333 4.23855 -1.98657 0
M  V30 4397 H 417.506 5.75582 -2.97673 0
M  V30 4398 N 410.912 0.523116 1.48665 0
M  V30 4399 C 412.161 -0.01544 2.01694 0
M  V30 4400 C 412.474 -1.35975 1.40606 0
M  V30 4401 O 413.68 -1.98627 1.85093 0
M  V30 4402 C 412.136 -0.0779303 3.59816 0
M  V30 4403 C 411.744 1.26107 4.29885 0
M  V30 4404 C 413.488 -0.565678 4.20714 0
M  V30 4405 C 411.395 1.15954 5.79921 0
M  V30 4406 H 410.325 -0.00954163 0.75394 0
M  V30 4407 H 412.976 0.665865 1.70993 0
M  V30 4408 H 411.358 -0.824165 3.87329 0
M  V30 4409 H 412.532 2.02233 4.14051 0
M  V30 4410 H 410.847 1.68401 3.80828 0
M  V30 4411 H 413.444 -0.6595 5.30617 0
M  V30 4412 H 413.787 -1.56984 3.85567 0
M  V30 4413 H 414.32 0.12467 3.97605 0
M  V30 4414 H 411.059 2.13864 6.19631 0
M  V30 4415 H 410.579 0.439529 5.98187 0
M  V30 4416 H 412.258 0.847361 6.41427 0
M  V30 4417 N 412.39 -1.55475 0.257931 0
M  V30 4418 C 413.806 -1.59307 -0.0966563 0
M  V30 4419 C 414.006 -1.27514 -1.5602 0
M  V30 4420 O 413.062 -1.02774 -2.30637 0
M  V30 4421 C 414.375 -2.99552 0.262481 0
M  V30 4422 C 415.923 -3.1231 0.207683 0
M  V30 4423 C 416.398 -4.54793 0.541012 0
M  V30 4424 N 417.889 -4.6058 0.491921 0
M  V30 4425 C 418.624 -5.68825 0.722857 0
M  V30 4426 N 418.12 -6.85287 1.0175 0
M  V30 4427 N 419.913 -5.58296 0.652815 0
M  V30 4428 H 412.064 -1.74409 1.21224 0
M  V30 4429 H 414.327 -0.812424 0.48854 0
M  V30 4430 H 414.033 -3.27593 1.27967 0
M  V30 4431 H 413.907 -3.75019 -0.40508 0
M  V30 4432 H 416.294 -2.84044 -0.800195 0
M  V30 4433 H 416.375 -2.39095 0.909255 0
M  V30 4434 H 416.019 -4.83783 1.5465 0
M  V30 4435 H 415.949 -5.26285 -0.18216 0
M  V30 4436 H 418.44 -3.7691 0.273366 0
M  V30 4437 H 418.753 -7.63725 1.18084 0
M  V30 4438 H 417.098 -6.86945 1.05509 0
M  V30 4439 H 420.289 -4.66189 0.422592 0
M  V30 4440 H 420.462 -6.42582 0.836182 0
M  V30 4441 N 413.868 0.0150385 -1.57593 0
M  V30 4442 C 414.801 1.04475 -2.0288 0
M  V30 4443 C 415.779 1.3436 -0.915764 0
M  V30 4444 O 416.963 1.46779 -1.18271 0
M  V30 4445 C 414.09 2.37608 -2.41371 0
M  V30 4446 C 413.136 2.23487 -3.63257 0
M  V30 4447 S 413.969 1.57505 -5.11813 0
M  V30 4448 C 415.125 2.921 -5.5356 0
M  V30 4449 H 415.358 0.65907 -2.89903 0
M  V30 4450 H 412.891 0.225452 -1.52745 0
M  V30 4451 H 414.849 3.14165 -2.64217 0
M  V30 4452 H 413.51 2.7332 -1.54775 0
M  V30 4453 H 412.703 3.21802 -3.87891 0
M  V30 4454 H 412.305 1.55074 -3.40335 0
M  V30 4455 H 414.597 3.88419 -5.55101 0
M  V30 4456 H 415.54 2.72184 -6.53698 0
M  V30 4457 H 415.948 2.95318 -4.8109 0
M  V30 4458 N 415.346 1.54954 0.287554 0
M  V30 4459 C 416.594 1.74528 1.01904 0
M  V30 4460 C 416.915 0.541349 1.87335 0
M  V30 4461 O 416.185 -0.444108 1.908 0
M  V30 4462 H 414.765 0.643576 0.379235 0
M  V30 4463 H 417.427 1.92333 0.315294 0
M  V30 4464 H 416.523 2.64015 1.6644 0
M  V30 4465 N 416.824 -0.551391 1.4764 0
M  V30 4466 C 417.756 -1.67333 1.56628 0
M  V30 4467 C 418.769 -1.56398 0.452045 0
M  V30 4468 O 419.958 -1.6325 0.721926 0
M  V30 4469 C 417.058 -3.05841 1.45994 0
M  V30 4470 C 416.231 -3.42472 2.72088 0
M  V30 4471 C 415.29 -4.60168 2.55209 0
M  V30 4472 O 414.316 -4.64458 3.2904 0
M  V30 4473 N 415.518 -5.57024 1.63416 0
M  V30 4474 H 418.283 -1.60066 2.53375 0
M  V30 4475 H 415.844 -0.738169 1.44093 0
M  V30 4476 H 417.836 -3.8242 1.32428 0
M  V30 4477 H 416.406 -3.07302 0.573071 0
M  V30 4478 H 415.626 -2.55284 3.00373 0
M  V30 4479 H 416.914 -3.63723 3.55785 0
M  V30 4480 H 416.312 -5.56319 1.02594 0
M  V30 4481 H 414.869 -6.32906 1.558 0
M  V30 4482 N 418.302 -1.35869 -0.798587 0
M  V30 4483 C 419.532 -1.32529 -1.58491 0
M  V30 4484 C 419.94 0.0975405 -1.88948 0
M  V30 4485 O 419.283 1.06224 -1.49874 0
M  V30 4486 C 419.345 -2.07247 -2.9375 0
M  V30 4487 C 419.009 -3.56391 -2.86068 0
M  V30 4488 C 420.006 -4.50824 -2.58947 0
M  V30 4489 C 417.691 -3.9915 -3.04933 0
M  V30 4490 C 419.685 -5.85993 -2.5078 0
M  V30 4491 C 417.372 -5.34413 -2.96389 0
M  V30 4492 C 418.37 -6.27646 -2.69349 0
M  V30 4493 O 418.058 -7.60426 -2.60782 0
M  V30 4494 H 417.79 -0.456529 -0.498556 0
M  V30 4495 H 420.344 -1.79425 -0.999799 0
M  V30 4496 H 418.574 -1.55001 -3.54276 0
M  V30 4497 H 420.263 -1.96883 -3.54954 0
M  V30 4498 H 421.029 -4.19104 -2.44084 0
M  V30 4499 H 416.908 -3.26961 -3.24989 0
M  V30 4500 H 420.452 -6.58735 -2.29595 0
M  V30 4501 H 416.349 -5.65743 -3.10813 0
M  V30 4502 H 417.117 -7.70444 -2.76331 0
M  V30 4503 N 419.78 1.02168 -1.19998 0
M  V30 4504 C 420.69 2.14069 -0.959774 0
M  V30 4505 C 421.706 1.73804 0.082655 0
M  V30 4506 O 422.882 2.01133 -0.103633 0
M  V30 4507 C 419.947 3.42936 -0.509459 0
M  V30 4508 C 419.008 3.97474 -1.62213 0
M  V30 4509 C 418.241 5.2019 -1.19321 0
M  V30 4510 O 418.464 5.70369 -0.0597726 0
M  V30 4511 O 417.398 5.67749 -1.99863 0
M  V30 4512 H 421.224 2.37199 -1.89658 0
M  V30 4513 H 418.809 1.12469 -0.983411 0
M  V30 4514 H 420.691 4.20551 -0.267322 0
M  V30 4515 H 419.366 3.21234 0.398821 0
M  V30 4516 H 418.273 3.21161 -1.9185 0
M  V30 4517 H 419.606 4.23555 -2.50723 0
M  V30 4518 N 421.258 1.00505 1.21394 0
M  V30 4519 C 422.505 0.687774 1.90462 0
M  V30 4520 C 422.833 -0.78147 1.7811 0
M  V30 4521 O 422.088 -1.58208 1.1519 0
M  V30 4522 C 422.387 1.0546 3.41486 0
M  V30 4523 C 422.053 2.51812 3.74034 0
M  V30 4524 C 420.715 2.91804 3.82628 0
M  V30 4525 C 423.067 3.46614 3.8924 0
M  V30 4526 C 420.395 4.2556 4.03876 0
M  V30 4527 C 422.747 4.80044 4.11995 0
M  V30 4528 C 421.411 5.19759 4.18816 0
M  V30 4529 H 420.681 0.251674 0.696951 0
M  V30 4530 H 423.328 1.26349 1.43903 0
M  V30 4531 H 421.633 0.397133 3.89782 0
M  V30 4532 H 423.33 0.786976 3.93202 0
M  V30 4533 H 419.92 2.1982 3.67936 0
M  V30 4534 H 424.104 3.16883 3.81967 0
M  V30 4535 H 419.36 4.55901 4.07387 0
M  V30 4536 H 423.534 5.53439 4.22704 0
M  V30 4537 H 421.161 6.23418 4.35033 0
M  V30 4538 N 422.737 -1.36956 0.779787 0
M  V30 4539 C 424.148 -1.82094 0.412156 0
M  V30 4540 C 424.499 -1.64926 -1.06273 0
M  V30 4541 O 423.624 -1.16483 -1.82375 0
M  V30 4542 C 424.219 -3.3059 0.741319 0
M  V30 4543 C 422.778 -3.73974 0.426641 0
M  V30 4544 C 421.925 -2.59368 0.980987 0
M  V30 4545 H 424.876 -1.25314 0.973758 0
M  V30 4546 H 424.897 -3.80489 0.028887 0
M  V30 4547 H 424.409 -3.43054 1.81482 0
M  V30 4548 H 422.51 -3.67076 -0.639215 0
M  V30 4549 H 422.623 -4.69778 0.940515 0
M  V30 4550 H 420.987 -2.51463 0.404757 0
M  V30 4551 H 421.77 -2.74621 2.06005 0
M  V30 4552 N 424.215 -0.530993 -1.48385 0
M  V30 4553 C 425.163 0.244595 -2.3131 0
M  V30 4554 C 426.157 0.93451 -1.41291 0
M  V30 4555 O 427.363 0.85878 -1.58193 0
M  V30 4556 H 423.738 0.0977472 -0.74562 0
M  V30 4557 H 425.709 -0.474369 -2.94605 0
M  V30 4558 C 424.458 1.2779 -3.23365 0
M  V30 4559 H 423.781 0.756439 -3.92579 0
M  V30 4560 H 425.221 1.79198 -3.84271 0
M  V30 4561 C 423.68 2.31205 -2.45042 0
M  V30 4562 O 424.21 3.37661 -2.17596 0
M  V30 4563 N 422.416 2.04446 -2.0652 0
M  V30 4564 H 421.963 1.17891 -2.2904 0
M  V30 4565 H 421.921 2.73861 -1.54427 0
M  V30 4566 N 425.693 1.55336 -0.266172 0
M  V30 4567 C 427.104 1.85236 0.233315 0
M  V30 4568 C 427.455 1.18816 1.56132 0
M  V30 4569 O 426.58 0.473307 2.11161 0
M  V30 4570 C 427.175 3.36059 0.430113 0
M  V30 4571 C 425.734 3.66116 0.873842 0
M  V30 4572 C 424.881 2.77274 -0.0380016 0
M  V30 4573 H 427.832 1.51004 -0.488214 0
M  V30 4574 H 427.853 3.58681 1.26998 0
M  V30 4575 H 427.365 3.84373 -0.536588 0
M  V30 4576 H 425.466 3.23295 1.85233 0
M  V30 4577 H 425.579 4.73699 0.717358 0
M  V30 4578 H 423.943 2.50198 0.476759 0
M  V30 4579 H 424.726 3.284 -1.00042 0
M  V30 4580 N 427.171 -0.0066808 1.57599 0
M  V30 4581 C 428.081 -1.01671 2.11424 0
M  V30 4582 C 429.097 -1.38143 1.05795 0
M  V30 4583 O 430.273 -1.47011 1.37658 0
M  V30 4584 C 427.338 -2.29192 2.60139 0
M  V30 4585 C 426.399 -1.99094 3.80342 0
M  V30 4586 C 425.632 -3.20535 4.26724 0
M  V30 4587 O 425.855 -4.3199 3.72479 0
M  V30 4588 O 424.789 -3.04924 5.18946 0
M  V30 4589 H 428.615 -0.589181 2.9793 0
M  V30 4590 H 426.2 -0.225091 1.47695 0
M  V30 4591 H 428.082 -3.0412 2.917 0
M  V30 4592 H 426.757 -2.71195 1.76733 0
M  V30 4593 H 425.664 -1.21663 3.53764 0
M  V30 4594 H 426.997 -1.61931 4.648 0
M  V30 4595 N 428.649 -1.55105 -0.279332 0
M  V30 4596 C 429.895 -1.76597 -1.00921 0
M  V30 4597 C 430.25 -0.556831 -1.84166 0
M  V30 4598 O 429.543 0.450573 -1.86227 0
M  V30 4599 C 429.737 -3.0086 -1.92919 0
M  V30 4600 C 429.566 -4.33744 -1.18728 0
M  V30 4601 C 428.336 -4.9712 -0.905545 0
M  V30 4602 C 430.534 -5.11009 -0.580857 0
M  V30 4603 N 428.516 -6.13749 -0.136169 0
M  V30 4604 C 429.887 -6.19976 0.0546661 0
M  V30 4605 C 431.942 -4.95502 -0.488067 0
M  V30 4606 C 430.645 -7.15123 0.774028 0
M  V30 4607 C 432.671 -5.90999 0.217688 0
M  V30 4608 C 432.033 -6.9935 0.841975 0
M  V30 4609 H 428.132 -0.698553 -0.351493 0
M  V30 4610 H 430.716 -1.92595 -0.285531 0
M  V30 4611 H 428.887 -2.86249 -2.62519 0
M  V30 4612 H 430.619 -3.10784 -2.59221 0
M  V30 4613 H 427.374 -4.57903 -1.20921 0
M  V30 4614 H 427.798 -6.7659 0.235665 0
M  V30 4615 H 432.44 -4.11841 -0.956406 0
M  V30 4616 H 430.158 -7.9831 1.25407 0
M  V30 4617 H 433.744 -5.81078 0.289717 0
M  V30 4618 H 432.624 -7.71973 1.37939 0
M  V30 4619 N 430.127 0.543554 -1.4793 0
M  V30 4620 C 431.352 1.32995 -1.59145 0
M  V30 4621 C 431.777 1.86472 -0.246956 0
M  V30 4622 O 431.135 1.63696 0.779324 0
M  V30 4623 C 431.183 2.46623 -2.63077 0
M  V30 4624 O 430.287 3.49261 -2.19295 0
M  V30 4625 H 429.628 0.394472 -0.534124 0
M  V30 4626 H 432.158 0.655489 -1.93816 0
M  V30 4627 H 432.168 2.93001 -2.83926 0
M  V30 4628 H 430.843 2.07059 -3.60693 0
M  V30 4629 H 429.42 3.09094 -2.08603 0
M  V30 4630 N 431.605 1.3629 0.791371 0
M  V30 4631 C 432.515 1.32606 1.93527 0
M  V30 4632 C 433.531 0.228541 1.72493 0
M  V30 4633 O 434.707 0.460571 1.96063 0
M  V30 4634 C 431.772 1.11271 3.28359 0
M  V30 4635 C 430.833 2.3048 3.62185 0
M  V30 4636 C 430.066 2.10154 4.90583 0
M  V30 4637 O 430.289 1.07572 5.60165 0
M  V30 4638 O 429.223 2.97884 5.23019 0
M  V30 4639 H 433.049 2.28909 1.99585 0
M  V30 4640 H 430.634 1.16818 0.931344 0
M  V30 4641 H 432.516 1.01283 4.09047 0
M  V30 4642 H 431.191 0.180292 3.23198 0
M  V30 4643 H 430.098 2.46036 2.81811 0
M  V30 4644 H 431.431 3.22221 3.72068 0
M  V30 4645 N 433.083 -1.0153 1.20538 0
M  V30 4646 C 434.329 -1.75408 1.01783 0
M  V30 4647 C 434.662 -1.88943 -0.448814 0
M  V30 4648 O 433.937 -1.4162 -1.33319 0
M  V30 4649 C 434.22 -3.17255 1.70356 0
M  V30 4650 C 434.073 -3.11508 3.24473 0
M  V30 4651 C 435.392 -4.15955 1.43769 0
M  V30 4652 H 432.511 -0.636713 0.371167 0
M  V30 4653 H 435.153 -1.18436 1.4857 0
M  V30 4654 H 433.303 -3.65898 1.30578 0
M  V30 4655 H 434.975 -2.70658 3.73553 0
M  V30 4656 H 433.218 -2.4887 3.55311 0
M  V30 4657 H 433.889 -4.11784 3.67611 0
M  V30 4658 H 436.365 -3.75973 1.7828 0
M  V30 4659 H 435.241 -5.13368 1.94279 0
M  V30 4660 H 435.502 -4.40586 0.365564 0
M  V30 4661 N 434.561 -1.01147 -1.20859 0
M  V30 4662 C 435.786 -0.716698 -1.94623 0
M  V30 4663 C 436.211 0.715415 -1.73964 0
M  V30 4664 O 435.569 1.49157 -1.03062 0
M  V30 4665 C 435.617 -1.0513 -3.44935 0
M  V30 4666 O 434.721 -0.160131 -4.12089 0
M  V30 4667 H 434.062 -0.266404 -0.608214 0
M  V30 4668 H 436.592 -1.35346 -1.53436 0
M  V30 4669 H 436.602 -1.00086 -3.95533 0
M  V30 4670 H 435.277 -2.09475 -3.59295 0
M  V30 4671 H 433.854 -0.267657 -3.71938 0
M  V30 4672 N 436.039 1.36541 -0.78704 0
M  V30 4673 C 436.949 2.3387 -0.184896 0
M  V30 4674 C 437.965 1.60927 0.661697 0
M  V30 4675 O 439.141 1.92927 0.57804 0
M  V30 4676 C 436.206 3.40122 0.672145 0
M  V30 4677 C 435.267 4.28867 -0.19267 0
M  V30 4678 C 434.5 5.30045 0.623561 0
M  V30 4679 O 434.723 5.39232 1.8597 0
M  V30 4680 O 433.657 6.01895 0.0247068 0
M  V30 4681 H 437.483 2.87126 -0.989562 0
M  V30 4682 H 435.068 1.38969 -0.548455 0
M  V30 4683 H 436.95 4.05093 1.16094 0
M  V30 4684 H 435.625 2.89169 1.45474 0
M  V30 4685 H 434.532 3.66945 -0.728166 0
M  V30 4686 H 435.865 4.83165 -0.938722 0
M  V30 4687 N 437.518 0.538854 1.48102 0
M  V30 4688 C 438.428 -0.222648 2.33541 0
M  V30 4689 C 439.444 -0.930225 1.47047 0
M  V30 4690 O 440.62 -0.903211 1.80011 0
M  V30 4691 C 437.685 -1.25064 3.23357 0
M  V30 4692 C 436.746 -0.552469 4.2573 0
M  V30 4693 C 435.979 -1.53149 5.11254 0
M  V30 4694 O 436.202 -2.76487 4.9891 0
M  V30 4695 O 435.136 -1.06602 5.92385 0
M  V30 4696 H 438.962 0.477707 2.99919 0
M  V30 4697 H 436.547 0.299669 1.46364 0
M  V30 4698 H 438.429 -1.8445 3.78888 0
M  V30 4699 H 437.104 -1.93325 2.59629 0
M  V30 4700 H 436.011 0.082114 3.7401 0
M  V30 4701 H 437.344 0.0883526 4.92121 0
M  V30 4702 N 438.996 -1.55193 0.274407 0
M  V30 4703 C 440.242 -1.99877 -0.343086 0
M  V30 4704 C 440.575 -1.16256 -1.55558 0
M  V30 4705 O 439.85 -0.232462 -1.93106 0
M  V30 4706 C 440.133 -3.52706 -0.725965 0
M  V30 4707 C 439.986 -4.47081 0.493818 0
M  V30 4708 C 441.305 -4.11422 -1.56268 0
M  V30 4709 H 438.424 -0.726625 -0.123229 0
M  V30 4710 H 441.066 -1.86136 0.38121 0
M  V30 4711 H 439.216 -3.64546 -1.34307 0
M  V30 4712 H 440.888 -4.47186 1.13237 0
M  V30 4713 H 439.131 -4.1877 1.13201 0
M  V30 4714 H 439.802 -5.51699 0.18217 0
M  V30 4715 H 442.278 -4.02855 -1.04151 0
M  V30 4716 H 441.154 -5.18568 -1.79939 0
M  V30 4717 H 441.415 -3.61607 -2.54348 0
M  V30 4718 N 440.474 -0.00167713 -1.576 0
M  V30 4719 C 441.421 0.989195 -2.08527 0
M  V30 4720 C 442.391 1.34031 -0.981065 0
M  V30 4721 O 443.576 1.43839 -1.2536 0
M  V30 4722 C 440.716 2.27537 -2.59463 0
M  V30 4723 C 439.829 1.98314 -3.83791 0
M  V30 4724 C 438.964 3.21025 -4.23222 0
M  V30 4725 C 438.003 2.87495 -5.40382 0
M  V30 4726 N 437.14 4.02749 -5.75098 0
M  V30 4727 H 441.98 0.547973 -2.92919 0
M  V30 4728 H 439.517 0.258917 -1.44803 0
M  V30 4729 H 441.475 3.02729 -2.87073 0
M  V30 4730 H 440.105 2.69325 -1.77943 0
M  V30 4731 H 439.157 1.13482 -3.63078 0
M  V30 4732 H 440.469 1.69601 -4.69081 0
M  V30 4733 H 439.623 4.04561 -4.52123 0
M  V30 4734 H 438.362 3.52877 -3.36644 0
M  V30 4735 H 437.367 2.02367 -5.11202 0
M  V30 4736 H 438.592 2.56889 -6.28637 0
M  V30 4737 H 436.538 4.34494 -4.91478 0
M  V30 4738 H 436.455 3.77566 -6.54966 0
M  V30 4739 H 437.723 4.87068 -6.08592 0
M  V30 4740 N 441.952 1.55251 0.271103 0
M  V30 4741 C 442.885 1.83191 1.36075 0
M  V30 4742 C 443.863 0.685091 1.47463 0
M  V30 4743 O 445.047 0.928292 1.64058 0
M  V30 4744 C 442.174 1.99521 2.73696 0
M  V30 4745 C 441.22 3.22081 2.79582 0
M  V30 4746 S 442.053 4.79388 2.38636 0
M  V30 4747 C 443.209 4.98693 3.78228 0
M  V30 4748 H 443.442 2.75327 1.12171 0
M  V30 4749 H 440.975 1.47046 0.470833 0
M  V30 4750 H 442.933 2.09613 3.52948 0
M  V30 4751 H 441.594 1.0827 2.9485 0
M  V30 4752 H 440.787 3.304 3.80594 0
M  V30 4753 H 440.389 3.10589 2.08352 0
M  V30 4754 H 442.681 4.84551 4.73515 0
M  V30 4755 H 443.624 6.00738 3.7486 0
M  V30 4756 H 444.032 4.26665 3.69618 0
M  V30 4757 N 443.43 -0.535701 1.48216 0
M  V30 4758 C 444.36 -1.65014 1.65204 0
M  V30 4759 C 445.341 -1.62554 0.501011 0
M  V30 4760 O 446.526 -1.7984 0.732886 0
M  V30 4761 C 443.656 -3.03616 1.68626 0
M  V30 4762 C 442.61 -3.20932 2.83172 0
M  V30 4763 C 441.936 -4.60537 2.71679 0
M  V30 4764 C 443.236 -3.04249 4.24535 0
M  V30 4765 H 444.93 -1.51053 2.58502 0
M  V30 4766 H 442.476 -0.725262 1.24402 0
M  V30 4767 H 444.429 -3.81446 1.79099 0
M  V30 4768 H 443.153 -3.18587 0.719026 0
M  V30 4769 H 441.812 -2.45517 2.72244 0
M  V30 4770 H 441.46 -4.72336 1.72937 0
M  V30 4771 H 441.16 -4.73069 3.48538 0
M  V30 4772 H 442.684 -5.40475 2.84112 0
M  V30 4773 H 444.098 -3.71877 4.36326 0
M  V30 4774 H 442.495 -3.28278 5.02348 0
M  V30 4775 H 443.565 -2.00739 4.41397 0
M  V30 4776 N 444.908 -1.36708 -0.784132 0
M  V30 4777 C 446.157 -1.30559 -1.53744 0
M  V30 4778 C 446.47 0.111374 -1.95283 0
M  V30 4779 O 447.676 0.29527 -2.6989 0
M  V30 4780 C 446.132 -2.29098 -2.77565 0
M  V30 4781 C 445.74 -3.76258 -2.43174 0
M  V30 4782 C 447.484 -2.31936 -3.55536 0
M  V30 4783 C 445.391 -4.6656 -3.63422 0
M  V30 4784 H 444.321 -0.48518 -0.577162 0
M  V30 4785 H 446.972 -1.62101 -0.859981 0
M  V30 4786 H 445.354 -1.90557 -3.47137 0
M  V30 4787 H 446.528 -4.23565 -1.81465 0
M  V30 4788 H 444.843 -3.76246 -1.78403 0
M  V30 4789 H 447.44 -2.9661 -4.44889 0
M  V30 4790 H 447.783 -1.3294 -3.94503 0
M  V30 4791 H 448.316 -2.6912 -2.92949 0
M  V30 4792 H 445.055 -5.66638 -3.29547 0
M  V30 4793 H 444.575 -4.23966 -4.24279 0
M  V30 4794 H 446.254 -4.8309 -4.30387 0
M  V30 4795 N 446.386 1.0089 -1.21074 0
M  V30 4796 C 447.802 1.2695 -0.967257 0
M  V30 4797 C 448.002 1.9846 0.348673 0
M  V30 4798 O 447.058 2.28459 1.0753 0
M  V30 4799 C 448.371 2.09697 -2.15517 0
M  V30 4800 C 449.919 2.22937 -2.197 0
M  V30 4801 C 450.394 3.09064 -3.37999 0
M  V30 4802 N 451.885 3.16653 -3.38061 0
M  V30 4803 C 452.62 3.8354 -4.26245 0
M  V30 4804 N 452.116 4.52488 -5.2462 0
M  V30 4805 N 453.909 3.80141 -4.14064 0
M  V30 4806 H 446.06 0.529005 -2.05707 0
M  V30 4807 H 448.323 0.296148 -0.900556 0
M  V30 4808 H 448.029 1.64497 -3.10859 0
M  V30 4809 H 447.903 3.10444 -2.14253 0
M  V30 4810 H 450.29 2.67357 -1.24916 0
M  V30 4811 H 450.371 1.21673 -2.2501 0
M  V30 4812 H 450.015 2.65347 -4.33074 0
M  V30 4813 H 449.945 4.10433 -3.29928 0
M  V30 4814 H 452.436 2.67566 -2.66865 0
M  V30 4815 H 452.749 5.01219 -5.88217 0
M  V30 4816 H 451.094 4.51288 -5.28549 0
M  V30 4817 H 454.285 3.25427 -3.36474 0
M  V30 4818 H 454.458 4.31992 -4.82998 0
M  V30 4819 N 447.864 1.01787 1.20321 0
M  V30 4820 C 448.812 0.58254 2.25187 0
M  V30 4821 C 449.806 -0.379359 1.65098 0
M  V30 4822 O 451.012 -0.249142 1.78267 0
M  V30 4823 H 447.387 0.170078 0.732514 0
M  V30 4824 H 449.358 1.47788 2.59232 0
M  V30 4825 C 448.107 -0.0620885 3.47645 0
M  V30 4826 H 447.43 0.669069 3.94162 0
M  V30 4827 H 448.87 -0.329784 4.22716 0
M  V30 4828 C 447.329 -1.3053 3.10586 0
M  V30 4829 O 447.859 -2.39848 3.22236 0
M  V30 4830 N 446.065 -1.18988 2.65123 0
M  V30 4831 H 445.612 -0.300341 2.55843 0
M  V30 4832 H 445.57 -2.02267 2.40698 0
M  V30 4833 N 449.342 -1.36122 0.79427 0
M  V30 4834 C 450.272 -2.32551 0.210328 0
M  V30 4835 C 451.253 -1.56884 -0.657386 0
M  V30 4836 O 452.438 -1.85014 -0.590207 0
M  V30 4837 C 449.568 -3.41128 -0.651819 0
M  V30 4838 C 448.522 -4.27842 0.116395 0
M  V30 4839 C 447.848 -5.2763 -0.86666 0
M  V30 4840 C 449.148 -5.05647 1.30837 0
M  V30 4841 H 450.842 -2.81636 1.01594 0
M  V30 4842 H 448.388 -1.35407 0.489981 0
M  V30 4843 H 450.341 -4.07581 -1.07031 0
M  V30 4844 H 449.065 -2.90622 -1.49019 0
M  V30 4845 H 447.724 -3.62952 0.515915 0
M  V30 4846 H 447.372 -4.73395 -1.70019 0
M  V30 4847 H 447.072 -5.86514 -0.35705 0
M  V30 4848 H 448.596 -5.96955 -1.28361 0
M  V30 4849 H 450.01 -5.65113 0.965393 0
M  V30 4850 H 448.407 -5.73967 1.75161 0
M  V30 4851 H 449.477 -4.37006 2.10128 0
M  V30 4852 N 450.82 -0.546701 -1.47814 0
M  V30 4853 C 451.75 0.195317 -2.32682 0
M  V30 4854 C 452.731 0.918981 -1.43139 0
M  V30 4855 O 453.916 0.901501 -1.72008 0
M  V30 4856 C 451.046 1.23237 -3.247 0
M  V30 4857 C 450 0.625818 -4.234 0
M  V30 4858 C 449.326 1.76674 -5.04669 0
M  V30 4859 C 450.626 -0.413515 -5.2066 0
M  V30 4860 H 452.32 -0.513184 -2.94969 0
M  V30 4861 H 449.866 -0.248241 -1.41844 0
M  V30 4862 H 451.819 1.75955 -3.82907 0
M  V30 4863 H 450.543 1.97067 -2.60446 0
M  V30 4864 H 449.202 0.120023 -3.66403 0
M  V30 4865 H 448.85 2.49383 -4.36826 0
M  V30 4866 H 448.55 1.36673 -5.71484 0
M  V30 4867 H 450.074 2.29738 -5.65732 0
M  V30 4868 H 451.488 0.0272042 -5.73294 0
M  V30 4869 H 449.885 -0.731825 -5.95621 0
M  V30 4870 H 450.955 -1.31325 -4.66778 0
M  V30 4871 N 452.299 1.55045 -0.282633 0
M  V30 4872 C 453.246 2.22822 0.601566 0
M  V30 4873 C 454.216 1.20431 1.14392 0
M  V30 4874 O 455.401 1.48996 1.19184 0
M  V30 4875 C 452.541 2.95873 1.77632 0
M  V30 4876 C 451.654 4.12999 1.26711 0
M  V30 4877 C 450.789 4.73676 2.40426 0
M  V30 4878 C 449.828 5.82981 1.86545 0
M  V30 4879 N 448.965 6.3769 2.93762 0
M  V30 4880 H 453.805 2.97995 0.0169528 0
M  V30 4881 H 451.342 1.471 -0.00339964 0
M  V30 4882 H 453.3 3.36447 2.46697 0
M  V30 4883 H 451.93 2.2311 2.33285 0
M  V30 4884 H 450.982 3.77494 0.469314 0
M  V30 4885 H 452.294 4.91803 0.832518 0
M  V30 4886 H 451.448 5.17008 3.17471 0
M  V30 4887 H 450.187 3.94164 2.87203 0
M  V30 4888 H 449.192 5.39092 1.07983 0
M  V30 4889 H 450.417 6.64366 1.40694 0
M  V30 4890 H 448.363 5.61069 3.39908 0
M  V30 4891 H 448.28 7.11788 2.54744 0
M  V30 4892 H 449.548 6.8568 3.7076 0
M  V30 4893 N 453.777 0.010035 1.57597 0
M  V30 4894 C 455.005 -0.683413 1.95287 0
M  V30 4895 C 455.42 -1.66747 0.885481 0
M  V30 4896 O 454.777 -1.82003 -0.134629 0
M  V30 4897 C 454.828 -1.40652 3.33015 0
M  V30 4898 O 454.549 -0.461916 4.35658 0
M  V30 4899 C 456.05 -2.19356 3.85225 0
M  V30 4900 H 453.27 -0.189708 0.643624 0
M  V30 4901 H 455.814 0.0641359 2.04399 0
M  V30 4902 H 453.969 -2.10562 3.2518 0
M  V30 4903 H 454.383 -0.973215 5.15392 0
M  V30 4904 H 455.857 -2.65433 4.83993 0
M  V30 4905 H 456.334 -3.02457 3.18459 0
M  V30 4906 H 456.94 -1.54442 3.96267 0
M  V30 4907 N 455.255 -1.55392 -0.262866 0
M  V30 4908 C 456.165 -1.92077 -1.34698 0
M  V30 4909 C 457.181 -0.819227 -1.53508 0
M  V30 4910 O 458.357 -1.11921 -1.67439 0
M  V30 4911 C 455.422 -2.19407 -2.68443 0
M  V30 4912 C 454.483 -3.42905 -2.58292 0
M  V30 4913 C 453.716 -3.68921 -3.85659 0
M  V30 4914 O 453.939 -2.97275 -4.8681 0
M  V30 4915 O 452.873 -4.62455 -3.85252 0
M  V30 4916 H 456.699 -2.84384 -1.06581 0
M  V30 4917 H 454.284 -1.42069 -0.462264 0
M  V30 4918 H 456.166 -2.38365 -3.47506 0
M  V30 4919 H 454.841 -1.30282 -2.96325 0
M  V30 4920 H 453.748 -3.29272 -1.7757 0
M  V30 4921 H 455.081 -4.32282 -2.35358 0
M  V30 4922 N 456.733 0.527833 -1.48498 0
M  V30 4923 C 458.144 1.10975 -1.50138 0
M  V30 4924 C 458.495 1.943 -0.272378 0
M  V30 4925 O 457.62 2.07319 0.620301 0
M  V30 4926 C 458.215 2.01927 -2.72049 0
M  V30 4927 C 456.774 2.55332 -2.76554 0
M  V30 4928 C 455.921 1.32341 -2.43683 0
M  V30 4929 H 458.872 0.312986 -1.55583 0
M  V30 4930 H 458.893 2.86244 -2.50689 0
M  V30 4931 H 458.405 1.41254 -3.61481 0
M  V30 4932 H 456.506 3.19721 -1.91336 0
M  V30 4933 H 456.619 2.94319 -3.78038 0
M  V30 4934 H 454.983 1.63989 -1.94884 0
M  V30 4935 H 455.766 0.734165 -3.35358 0
M  V30 4936 N 458.211 1.37122 0.776871 0
M  V30 4937 C 459.439 1.3523 1.5659 0
M  V30 4938 C 459.854 -0.0635518 1.88693 0
M  V30 4939 O 459.211 -1.02394 1.51069 0
M  V30 4940 C 459.262 2.18583 2.8793 0
M  V30 4941 O 458.983 3.5465 2.57206 0
M  V30 4942 C 460.484 2.24612 3.82183 0
M  V30 4943 H 457.704 0.4634 0.485285 0
M  V30 4944 H 460.248 1.80392 0.963266 0
M  V30 4945 H 458.403 1.76943 3.4463 0
M  V30 4946 H 458.817 3.98286 3.41275 0
M  V30 4947 H 460.291 2.87267 4.71361 0
M  V30 4948 H 460.768 1.25309 4.20944 0
M  V30 4949 H 461.374 2.66543 3.31414 0
M  V30 4950 N 459.689 -1.00246 1.21608 0
M  V30 4951 C 460.621 -2.09244 0.935401 0
M  V30 4952 C 461.634 -1.62592 -0.0823594 0
M  V30 4953 O 462.823 -1.77865 0.150456 0
M  V30 4954 C 459.923 -3.36724 0.383453 0
M  V30 4955 C 459.096 -4.1245 1.45615 0
M  V30 4956 C 458.155 -5.18219 0.912991 0
M  V30 4957 O 457.181 -5.46337 1.59701 0
M  V30 4958 N 458.383 -5.7987 -0.270478 0
M  V30 4959 H 461.148 -2.33905 1.87373 0
M  V30 4960 H 458.709 -1.16748 1.12167 0
M  V30 4961 H 460.701 -4.047 0.00562157 0
M  V30 4962 H 459.271 -3.09201 -0.459758 0
M  V30 4963 H 458.491 -3.39241 2.00772 0
M  V30 4964 H 459.779 -4.59819 2.17817 0
M  V30 4965 H 459.177 -5.59381 -0.843195 0
M  V30 4966 H 457.734 -6.49126 -0.589794 0
M  V30 4967 N 461.167 -1.02423 -1.1978 0
M  V30 4968 C 462.583 -0.740459 -1.41384 0
M  V30 4969 C 462.783 0.676827 -1.89793 0
M  V30 4970 O 461.839 1.4435 -2.0717 0
M  V30 4971 C 463.152 -1.77264 -2.42895 0
M  V30 4972 C 464.7 -1.79165 -2.56649 0
M  V30 4973 C 465.175 -2.8133 -3.6141 0
M  V30 4974 N 466.666 -2.80118 -3.68901 0
M  V30 4975 C 467.401 -3.55824 -4.49641 0
M  V30 4976 N 466.897 -4.41231 -5.34123 0
M  V30 4977 N 468.69 -3.44387 -4.44246 0
M  V30 4978 H 460.841 -1.9391 -0.866764 0
M  V30 4979 H 463.104 -0.838074 -0.443098 0
M  V30 4980 H 462.81 -2.7884 -2.14339 0
M  V30 4981 H 462.684 -1.59108 -3.42001 0
M  V30 4982 H 465.071 -0.782702 -2.84531 0
M  V30 4983 H 465.152 -2.01396 -1.57713 0
M  V30 4984 H 464.796 -3.82394 -3.34271 0
M  V30 4985 H 464.726 -2.56359 -4.59986 0
M  V30 4986 H 467.217 -2.1817 -3.08562 0
M  V30 4987 H 467.53 -4.95747 -5.92836 0
M  V30 4988 H 465.875 -4.45306 -5.33599 0
M  V30 4989 H 469.066 -2.7708 -3.77285 0
M  V30 4990 H 469.239 -4.0364 -5.06931 0
M  V30 4991 N 462.645 1.35699 -0.801477 0
M  V30 4992 C 463.578 2.2768 -0.153922 0
M  V30 4993 C 464.556 1.47832 0.67709 0
M  V30 4994 O 465.74 1.77104 0.645474 0
M  V30 4995 C 462.867 3.2943 0.786986 0
M  V30 4996 C 461.913 4.26485 0.0362447 0
M  V30 4997 S 462.746 5.19573 -1.2963 0
M  V30 4998 C 463.902 6.24866 -0.359705 0
M  V30 4999 H 464.135 2.82254 -0.9338 0
M  V30 5000 H 461.668 1.42421 -0.596283 0
M  V30 5001 H 463.626 3.8855 1.32436 0
M  V30 5002 H 462.287 2.73745 1.54021 0
M  V30 5003 H 461.48 4.98378 0.750668 0
M  V30 5004 H 461.082 3.71508 -0.431017 0
M  V30 5005 H 463.374 6.75957 0.456954 0
M  V30 5006 H 464.317 7.00307 -1.04768 0
M  V30 5007 H 464.725 5.64484 0.0423274 0
M  V30 5008 N 464.123 0.554532 1.47522 0
M  V30 5009 C 465.351 0.034257 2.06872 0
M  V30 5010 C 465.766 -1.25826 1.40759 0
M  V30 5011 O 465.123 -1.75425 0.503217 0
M  V30 5012 C 465.174 -0.167827 3.6111 0
M  V30 5013 O 464.895 1.07351 4.24744 0
M  V30 5014 C 466.396 -0.72569 4.3732 0
M  V30 5015 H 463.616 0.0446275 0.669514 0
M  V30 5016 H 466.16 0.767181 1.89564 0
M  V30 5017 H 464.315 -0.850872 3.7794 0
M  V30 5018 H 464.729 0.869563 5.17242 0
M  V30 5019 H 466.203 -0.816394 5.45929 0
M  V30 5020 H 466.68 -1.73635 4.0342 0
M  V30 5021 H 467.286 -0.0784292 4.25228 0
M  V30 5022 N 465.601 -1.54893 0.290851 0
M  V30 5023 C 466.85 -1.99111 -0.322113 0
M  V30 5024 C 467.163 -1.18283 -1.55784 0
M  V30 5025 O 468.369 -1.5272 -2.24475 0
M  V30 5026 C 466.825 -3.54442 -0.624438 0
M  V30 5027 C 466.433 -4.44066 0.592373 0
M  V30 5028 C 468.177 -4.07211 -1.19916 0
M  V30 5029 C 466.084 -5.90812 0.263762 0
M  V30 5030 H 465.014 -0.743712 -0.124133 0
M  V30 5031 H 467.665 -1.79132 0.39797 0
M  V30 5032 H 466.047 -3.70281 -1.40384 0
M  V30 5033 H 467.221 -4.39999 1.36886 0
M  V30 5034 H 465.536 -4.02015 1.08502 0
M  V30 5035 H 468.133 -5.14407 -1.45909 0
M  V30 5036 H 468.476 -3.57196 -2.13815 0
M  V30 5037 H 469.009 -3.94873 -0.481687 0
M  V30 5038 H 465.748 -6.44955 1.17105 0
M  V30 5039 H 465.268 -5.97911 -0.475655 0
M  V30 5040 H 466.947 -6.46852 -0.138354 0
M  V30 5041 N 467.08 -0.0183926 -1.57589 0
M  V30 5042 C 468.308 0.673046 -1.95647 0
M  V30 5043 C 468.723 1.66275 -0.894312 0
M  V30 5044 O 468.08 1.82072 0.124975 0
M  V30 5045 C 468.131 1.38884 -3.33756 0
M  V30 5046 O 467.852 0.438806 -4.35897 0
M  V30 5047 C 469.353 2.1731 -3.86383 0
M  V30 5048 H 466.573 0.186292 -0.644621 0
M  V30 5049 H 469.117 -0.0749748 -2.04363 0
M  V30 5050 H 467.272 2.08835 -3.26293 0
M  V30 5051 H 467.686 0.945869 -5.15901 0
M  V30 5052 H 469.16 2.62863 -4.85394 0
M  V30 5053 H 469.637 3.00764 -3.20059 0
M  V30 5054 H 470.243 1.52339 -3.97081 0
M  V30 5055 N 468.558 1.5553 0.254621 0
M  V30 5056 C 469.468 1.92789 1.33677 0
M  V30 5057 C 470.484 0.827356 1.53071 0
M  V30 5058 O 471.66 1.12807 1.66843 0
M  V30 5059 C 468.725 2.20827 2.67275 0
M  V30 5060 C 467.786 3.4427 2.5647 0
M  V30 5061 C 467.019 3.70961 3.83697 0
M  V30 5062 O 467.242 2.99852 4.85227 0
M  V30 5063 O 466.176 4.64491 3.82794 0
M  V30 5064 H 470.002 2.84945 1.05071 0
M  V30 5065 H 467.587 1.42312 0.454723 0
M  V30 5066 H 469.469 2.40204 3.46237 0
M  V30 5067 H 468.144 1.31851 2.9563 0
M  V30 5068 H 467.051 3.30209 1.75821 0
M  V30 5069 H 468.384 4.33524 2.33062 0
M  V30 5070 N 470.036 -0.519951 1.48776 0
M  V30 5071 C 471.283 -1.27522 1.57303 0
M  V30 5072 C 471.611 -1.92869 0.251328 0
M  V30 5073 O 470.866 -1.80372 -0.759243 0
M  V30 5074 C 471.165 -2.37864 2.6675 0
M  V30 5075 C 470.831 -1.90103 4.08867 0
M  V30 5076 C 469.493 -1.76795 4.47546 0
M  V30 5077 C 471.845 -1.54133 4.97888 0
M  V30 5078 C 469.173 -1.25868 5.73039 0
M  V30 5079 C 471.525 -1.04665 6.23881 0
M  V30 5080 C 470.189 -0.899823 6.61407 0
M  V30 5081 H 469.459 -0.466636 0.575614 0
M  V30 5082 H 472.106 -0.579109 1.82534 0
M  V30 5083 H 470.411 -3.13186 2.35418 0
M  V30 5084 H 472.108 -2.95969 2.70561 0
M  V30 5085 H 468.698 -2.01414 3.78326 0
M  V30 5086 H 472.882 -1.6327 4.68675 0
M  V30 5087 H 468.138 -1.13196 6.0083 0
M  V30 5088 H 472.312 -0.759074 6.92251 0
M  V30 5089 H 469.939 -0.503011 7.58534 0
M  V30 5090 N 471.514 -1.37532 -0.769588 0
M  V30 5091 C 472.447 -1.27839 -1.8903 0
M  V30 5092 C 473.425 -0.158504 -1.61826 0
M  V30 5093 O 474.609 -0.333086 -1.85534 0
M  V30 5094 C 471.736 -0.977072 -3.24301 0
M  V30 5095 C 470.782 -2.11414 -3.70414 0
M  V30 5096 S 471.615 -3.73409 -3.83831 0
M  V30 5097 C 472.771 -3.45432 -5.21946 0
M  V30 5098 H 473.004 -2.22694 -1.96963 0
M  V30 5099 H 470.537 -1.2318 -0.930914 0
M  V30 5100 H 472.495 -0.810049 -4.02428 0
M  V30 5101 H 471.156 -0.0459701 -3.14066 0
M  V30 5102 H 470.349 -1.85837 -4.68488 0
M  V30 5103 H 469.951 -2.24141 -2.99394 0
M  V30 5104 H 472.243 -3.00554 -6.07185 0
M  V30 5105 H 473.186 -4.42841 -5.52537 0
M  V30 5106 H 473.594 -2.80311 -4.89986 0
M  V30 5107 N 472.992 0.995999 -1.22138 0
M  V30 5108 C 473.94 2.10673 -0.985876 0
M  V30 5109 C 474.934 1.69255 0.0699553 0
M  V30 5110 O 476.14 1.79812 -0.0822176 0
M  V30 5111 H 472.515 0.688865 -0.30161 0
M  V30 5112 H 474.486 2.27711 -1.92848 0
M  V30 5113 C 473.235 3.42881 -0.576909 0
M  V30 5114 H 472.558 3.75191 -1.38101 0
M  V30 5115 H 473.998 4.21589 -0.451518 0
M  V30 5116 C 472.457 3.29265 0.713196 0
M  V30 5117 O 472.987 3.60777 1.76643 0
M  V30 5118 N 471.193 2.82456 0.683162 0
M  V30 5119 H 470.74 2.5701 -0.174242 0
M  V30 5120 H 470.698 2.73727 1.54663 0
M  V30 5121 N 474.47 1.03057 1.19235 0
M  V30 5122 C 475.42 0.583386 2.2041 0
M  V30 5123 C 476.404 -0.368776 1.56617 0
M  V30 5124 O 477.596 -0.189471 1.75983 0
M  V30 5125 C 474.725 -0.0626534 3.43243 0
M  V30 5126 C 473.811 0.91205 4.14177 0
M  V30 5127 N 474.202 2.07514 4.61272 0
M  V30 5128 C 472.5 0.735859 4.39888 0
M  V30 5129 C 473.201 2.69003 5.15764 0
M  V30 5130 N 472.177 1.96954 5.06666 0
M  V30 5131 H 475.979 1.46988 2.54503 0
M  V30 5132 H 473.493 0.897785 1.35328 0
M  V30 5133 H 475.49 -0.400653 4.1497 0
M  V30 5134 H 474.15 -0.944813 3.1065 0
M  V30 5135 H 475.161 2.45448 4.56043 0
M  V30 5136 H 471.838 -0.0970656 4.17387 0
M  V30 5137 H 473.228 3.67514 5.6248 0
M  V30 5138 N 475.948 -1.35272 0.808662 0
M  V30 5139 C 477.359 -1.81179 0.450688 0
M  V30 5140 C 477.71 -1.67143 -1.02751 0
M  V30 5141 O 476.835 -1.20325 -1.79864 0
M  V30 5142 C 477.43 -3.28943 0.811275 0
M  V30 5143 C 475.989 -3.72985 0.505871 0
M  V30 5144 C 475.136 -2.57229 1.03578 0
M  V30 5145 H 478.087 -1.2322 1.00012 0
M  V30 5146 H 478.108 -3.80342 0.109588 0
M  V30 5147 H 477.62 -3.39127 1.88718 0
M  V30 5148 H 475.721 -3.68349 -0.561209 0
M  V30 5149 H 475.834 -4.67677 1.03995 0
M  V30 5150 H 474.198 -2.50548 0.458005 0
M  V30 5151 H 474.981 -2.7019 2.11784 0
M  V30 5152 N 477.426 -0.562348 -1.47226 0
M  V30 5153 C 478.672 -0.0485293 -2.03342 0
M  V30 5154 C 479.027 1.28898 -1.42839 0
M  V30 5155 O 478.32 1.82719 -0.576563 0
M  V30 5156 C 478.514 0.0969817 -3.57268 0
M  V30 5157 C 478.343 -1.22487 -4.32697 0
M  V30 5158 C 477.113 -1.79357 -4.72397 0
M  V30 5159 C 479.311 -2.14332 -4.67511 0
M  V30 5160 N 477.293 -3.05493 -5.32491 0
M  V30 5161 C 478.664 -3.25049 -5.27961 0
M  V30 5162 C 480.719 -2.14263 -4.4944 0
M  V30 5163 C 479.422 -4.35804 -5.72248 0
M  V30 5164 C 481.448 -3.24033 -4.94729 0
M  V30 5165 C 480.81 -4.3347 -5.55233 0
M  V30 5166 H 476.909 -0.0600464 -0.779691 0
M  V30 5167 H 479.493 -0.750769 -1.79643 0
M  V30 5168 H 477.664 0.768353 -3.80724 0
M  V30 5169 H 479.396 0.613333 -4.00025 0
M  V30 5170 H 476.151 -1.33093 -4.54514 0
M  V30 5171 H 476.575 -3.698 -5.67077 0
M  V30 5172 H 481.217 -1.30935 -4.02015 0
M  V30 5173 H 478.935 -5.19888 -6.18661 0
M  V30 5174 H 482.521 -3.25073 -4.82513 0
M  V30 5175 H 481.401 -5.17008 -5.89638 0
M  V30 5176 N 478.904 1.54736 -0.299062 0
M  V30 5177 C 480.153 1.99279 0.311549 0
M  V30 5178 C 480.466 1.19107 1.55154 0
M  V30 5179 O 481.672 1.53908 2.23662 0
M  V30 5180 C 480.128 3.54768 0.605632 0
M  V30 5181 C 479.736 4.43746 -0.615914 0
M  V30 5182 C 481.48 4.07841 1.17754 0
M  V30 5183 C 479.387 5.90663 -0.29509 0
M  V30 5184 H 478.317 0.744359 0.120187 0
M  V30 5185 H 480.968 1.78919 -0.407464 0
M  V30 5186 H 479.35 3.71021 1.38419 0
M  V30 5187 H 480.524 4.39267 -1.39218 0
M  V30 5188 H 478.839 4.01434 -1.10633 0
M  V30 5189 H 481.436 5.15174 1.43179 0
M  V30 5190 H 481.779 3.58324 2.11918 0
M  V30 5191 H 482.312 3.95123 0.460739 0
M  V30 5192 H 479.051 6.44325 -1.20524 0
M  V30 5193 H 478.571 5.98155 0.44394 0
M  V30 5194 H 480.25 6.46916 0.104048 0
M  V30 5195 N 480.382 0.0267497 1.57577 0
M  V30 5196 C 481.315 -0.99059 2.05579 0
M  V30 5197 C 482.293 -1.31884 0.951065 0
M  V30 5198 O 483.477 -1.43592 1.22121 0
M  V30 5199 C 480.604 -2.31125 2.47586 0
M  V30 5200 C 479.65 -2.13777 3.69055 0
M  V30 5201 S 480.483 -1.4388 5.15809 0
M  V30 5202 C 481.639 -2.77321 5.6111 0
M  V30 5203 H 481.872 -0.581976 2.91548 0
M  V30 5204 H 479.405 -0.184876 1.53289 0
M  V30 5205 H 481.363 -3.07049 2.72454 0
M  V30 5206 H 480.024 -2.6912 1.61967 0
M  V30 5207 H 479.217 -3.11405 3.96287 0
M  V30 5208 H 478.819 -1.45996 3.44327 0
M  V30 5209 H 481.111 -3.73565 5.65204 0
M  V30 5210 H 482.054 -2.54756 6.60685 0
M  V30 5211 H 482.462 -2.82459 4.88751 0
M  V30 5212 N 481.861 -1.55662 -0.24637 0
M  V30 5213 C 482.793 -1.86811 -1.32794 0
M  V30 5214 C 483.806 -0.754413 -1.44265 0
M  V30 5215 O 484.995 -1.03253 -1.45606 0
M  V30 5216 C 482.095 -2.0397 -2.70646 0
M  V30 5217 C 481.268 -3.34832 -2.81436 0
M  V30 5218 C 480.327 -3.41727 -4.00136 0
M  V30 5219 O 479.353 -4.14934 -3.89639 0
M  V30 5220 N 480.555 -2.71058 -5.1333 0
M  V30 5221 H 483.32 -2.80174 -1.06409 0
M  V30 5222 H 480.881 -1.55906 -0.43647 0
M  V30 5223 H 482.873 -2.05924 -3.48393 0
M  V30 5224 H 481.443 -1.1735 -2.89738 0
M  V30 5225 H 480.663 -3.4519 -1.90361 0
M  V30 5226 H 481.951 -4.21085 -2.85595 0
M  V30 5227 H 481.349 -2.11314 -5.2475 0
M  V30 5228 H 479.906 -2.78704 -5.89209 0
M  V30 5229 N 483.339 0.512053 -1.4905 0
M  V30 5230 C 484.564 1.2959 -1.6193 0
M  V30 5231 C 484.989 1.85906 -0.286454 0
M  V30 5232 O 484.347 1.65312 0.744426 0
M  V30 5233 C 484.395 2.40987 -2.68249 0
M  V30 5234 O 483.499 3.44531 -2.26654 0
M  V30 5235 H 482.84 0.383053 -0.542371 0
M  V30 5236 H 485.37 0.614231 -1.95162 0
M  V30 5237 H 485.38 2.86913 -2.90078 0
M  V30 5238 H 484.055 1.99361 -3.65004 0
M  V30 5239 H 482.632 3.046 -2.15112 0
M  V30 5240 N 484.817 1.37938 0.762283 0
M  V30 5241 C 486.045 1.36883 1.55147 0
M  V30 5242 C 486.46 -0.0435348 1.8875 0
M  V30 5243 O 485.817 -1.00786 1.52146 0
M  V30 5244 C 485.868 2.21624 2.85596 0
M  V30 5245 O 485.589 3.57358 2.5343 0
M  V30 5246 C 487.09 2.28653 3.7978 0
M  V30 5247 H 484.31 0.468521 0.480343 0
M  V30 5248 H 486.854 1.81404 0.944079 0
M  V30 5249 H 485.009 1.80588 3.42734 0
M  V30 5250 H 485.423 4.01883 3.37032 0
M  V30 5251 H 486.897 2.9225 4.68288 0
M  V30 5252 H 487.374 1.29767 4.19592 0
M  V30 5253 H 487.98 2.70043 3.28568 0
M  V30 5254 N 486.295 -0.989507 1.22664 0
M  V30 5255 C 487.242 -2.08024 0.999733 0
M  V30 5256 C 488.212 -1.65909 -0.0797047 0
M  V30 5257 O 489.397 -1.90669 0.0705715 0
M  V30 5258 C 486.537 -3.40067 0.587234 0
M  V30 5259 C 485.65 -3.95505 1.73781 0
M  V30 5260 C 484.785 -5.15722 1.27297 0
M  V30 5261 C 483.824 -5.63305 2.39488 0
M  V30 5262 N 482.961 -6.74758 1.94026 0
M  V30 5263 H 487.801 -2.26768 1.9334 0
M  V30 5264 H 485.338 -1.11171 0.963297 0
M  V30 5265 H 487.296 -4.15899 0.329227 0
M  V30 5266 H 485.926 -3.21314 -0.309426 0
M  V30 5267 H 484.978 -3.16513 2.11006 0
M  V30 5268 H 486.29 -4.26797 2.58158 0
M  V30 5269 H 485.444 -5.98854 0.972546 0
M  V30 5270 H 484.183 -4.86061 0.399445 0
M  V30 5271 H 483.188 -4.78759 2.70315 0
M  V30 5272 H 484.413 -5.94988 3.27362 0
M  V30 5273 H 482.359 -6.46874 1.09041 0
M  V30 5274 H 482.276 -7.05386 2.71968 0
M  V30 5275 H 483.544 -7.61387 1.67062 0
M  V30 5276 N 487.773 -1.03688 -1.18687 0
M  V30 5277 C 489.019 -0.739123 -1.88851 0
M  V30 5278 C 489.352 0.731042 -1.79915 0
M  V30 5279 O 488.627 1.53313 -1.19688 0
M  V30 5280 C 488.91 -1.20106 -3.3948 0
M  V30 5281 C 488.763 -2.73304 -3.57246 0
M  V30 5282 C 490.082 -0.788134 -4.32986 0
M  V30 5283 H 487.201 -0.269978 -0.68577 0
M  V30 5284 H 489.843 -1.28822 -1.3966 0
M  V30 5285 H 487.993 -0.733915 -3.81505 0
M  V30 5286 H 489.665 -3.28027 -3.24339 0
M  V30 5287 H 487.908 -3.13313 -3.00029 0
M  V30 5288 H 488.579 -3.00684 -4.62918 0
M  V30 5289 H 491.055 -1.19005 -3.98719 0
M  V30 5290 H 489.931 -1.13915 -5.36949 0
M  V30 5291 H 490.192 0.308988 -4.41019 0
M  V30 5292 N 489.251 1.34841 -0.815825 0
M  V30 5293 C 490.662 1.80937 -0.46029 0
M  V30 5294 C 491.013 1.67685 1.01863 0
M  V30 5295 O 490.138 1.21277 1.79223 0
M  V30 5296 C 490.733 3.28509 -0.828708 0
M  V30 5297 C 489.292 3.72712 -0.525644 0
M  V30 5298 C 488.439 2.56676 -1.04941 0
M  V30 5299 H 491.39 1.22688 -1.00664 0
M  V30 5300 H 491.411 3.80279 -0.129757 0
M  V30 5301 H 490.923 3.38122 -1.90513 0
M  V30 5302 H 489.024 3.68642 0.541666 0
M  V30 5303 H 489.137 4.67119 -1.06474 0
M  V30 5304 H 487.501 2.50302 -0.471286 0
M  V30 5305 H 488.284 2.69063 -2.13214 0
M  V30 5306 N 490.729 0.570148 1.46925 0
M  V30 5307 C 491.661 -0.207909 2.28255 0
M  V30 5308 C 492.674 -0.867301 1.37774 0
M  V30 5309 O 493.863 -0.738976 1.62485 0
M  V30 5310 C 490.963 -1.31298 3.12433 0
M  V30 5311 C 490.136 -0.747915 4.30958 0
M  V30 5312 C 489.195 -1.7391 4.9663 0
M  V30 5313 O 488.221 -1.2801 5.54619 0
M  V30 5314 N 489.423 -3.07288 4.92498 0
M  V30 5315 H 492.188 0.489794 2.95671 0
M  V30 5316 H 489.749 0.407076 1.56699 0
M  V30 5317 H 491.741 -1.97507 3.53232 0
M  V30 5318 H 490.311 -1.91373 2.47175 0
M  V30 5319 H 489.531 0.0913066 3.94094 0
M  V30 5320 H 490.819 -0.349958 5.07595 0
M  V30 5321 H 490.217 -3.47213 4.46609 0
M  V30 5322 H 488.774 -3.69021 5.37277 0
M  V30 5323 N 492.207 -1.54576 0.307264 0
M  V30 5324 C 493.435 -2.04675 -0.302597 0
M  V30 5325 C 493.85 -1.18425 -1.47041 0
M  V30 5326 O 493.207 -0.211257 -1.81273 0
M  V30 5327 C 493.258 -3.53575 -0.752801 0
M  V30 5328 O 492.979 -4.36547 0.368536 0
M  V30 5329 C 494.48 -4.19699 -1.42717 0
M  V30 5330 H 491.7 -0.66786 -0.0648374 0
M  V30 5331 H 494.244 -1.99516 0.448716 0
M  V30 5332 H 492.399 -3.59074 -1.45412 0
M  V30 5333 H 492.813 -5.24497 0.0168937 0
M  V30 5334 H 494.287 -5.25388 -1.69327 0
M  V30 5335 H 494.764 -3.69815 -2.36925 0
M  V30 5336 H 495.37 -4.18293 -0.768856 0
M  V30 5337 N 493.685 -0.035106 -1.57561 0
M  V30 5338 C 495.096 0.502885 -1.798 0
M  V30 5339 C 495.447 1.71892 -0.945921 0
M  V30 5340 O 494.572 2.15822 -0.157991 0
M  V30 5341 C 495.167 0.919097 -3.26095 0
M  V30 5342 C 493.726 1.40216 -3.49308 0
M  V30 5343 C 492.873 0.369709 -2.74824 0
M  V30 5344 H 495.824 -0.261102 -1.56537 0
M  V30 5345 H 495.845 1.78308 -3.36135 0
M  V30 5346 H 495.357 0.0338526 -3.88085 0
M  V30 5347 H 493.458 2.30714 -2.92578 0
M  V30 5348 H 493.571 1.40541 -4.58023 0
M  V30 5349 H 491.935 0.839113 -2.40481 0
M  V30 5350 H 492.718 -0.507173 -3.39533 0
M  V30 5351 N 495.163 1.55791 0.238111 0
M  V30 5352 C 496.093 1.94068 1.29846 0
M  V30 5353 C 497.074 0.806726 1.49753 0
M  V30 5354 O 498.259 1.06772 1.62214 0
M  V30 5355 C 495.389 2.24302 2.65153 0
M  V30 5356 C 494.343 3.40032 2.59927 0
M  V30 5357 C 493.669 3.55829 3.99111 0
M  V30 5358 C 494.969 4.75476 2.16148 0
M  V30 5359 H 496.663 2.82887 0.980563 0
M  V30 5360 H 494.209 1.36105 0.470253 0
M  V30 5361 H 496.162 2.4967 3.39475 0
M  V30 5362 H 494.886 1.32318 2.98596 0
M  V30 5363 H 493.545 3.14687 1.88063 0
M  V30 5364 H 493.193 2.6125 4.29834 0
M  V30 5365 H 492.893 4.3366 3.96501 0
M  V30 5366 H 494.417 3.83528 4.7512 0
M  V30 5367 H 495.831 5.00158 2.80205 0
M  V30 5368 H 494.228 5.56472 2.24631 0
M  V30 5369 H 495.298 4.71946 1.11333 0
M  V30 5370 N 496.642 -0.504142 1.49319 0
M  V30 5371 C 497.592 -1.60284 1.62151 0
M  V30 5372 C 498.576 -1.53657 0.477315 0
M  V30 5373 O 499.768 -1.6124 0.730108 0
M  V30 5374 C 496.897 -2.98909 1.68844 0
M  V30 5375 C 495.983 -3.10544 2.8883 0
M  V30 5376 N 496.374 -2.92078 4.12946 0
M  V30 5377 C 494.672 -3.4164 2.86702 0
M  V30 5378 C 495.373 -3.07812 4.93585 0
M  V30 5379 N 494.349 -3.36549 4.26891 0
M  V30 5380 H 498.151 -1.44656 2.55835 0
M  V30 5381 H 495.665 -0.710198 1.46048 0
M  V30 5382 H 497.662 -3.77865 1.76134 0
M  V30 5383 H 496.322 -3.15609 0.762943 0
M  V30 5384 H 497.333 -2.68316 4.42975 0
M  V30 5385 H 494.01 -3.64537 2.03517 0
M  V30 5386 H 495.4 -2.98054 6.02174 0
M  V30 5387 N 498.12 -1.38341 -0.754957 0
M  V30 5388 C 499.348 -1.37704 -1.54419 0
M  V30 5389 C 499.763 0.0335243 -1.8877 0
M  V30 5390 O 499.12 0.999773 -1.52679 0
M  V30 5391 C 499.171 -2.23136 -2.84416 0
M  V30 5392 O 498.892 -3.58697 -2.51531 0
M  V30 5393 C 500.393 -2.30664 -3.78562 0
M  V30 5394 H 497.613 -0.471061 -0.477852 0
M  V30 5395 H 500.157 -1.81902 -0.934446 0
M  V30 5396 H 498.312 -1.82403 -3.41772 0
M  V30 5397 H 498.726 -4.03665 -3.34896 0
M  V30 5398 H 500.2 -2.9473 -4.66732 0
M  V30 5399 H 500.677 -1.3199 -4.18898 0
M  V30 5400 H 501.283 -2.71781 -3.27131 0
M  V30 5401 N 499.598 0.982988 -1.23187 0
M  V30 5402 C 500.823 1.76455 -1.08988 0
M  V30 5403 C 501.248 1.84726 0.354691 0
M  V30 5404 O 500.606 1.30699 1.25649 0
M  V30 5405 C 500.654 3.17094 -1.71708 0
M  V30 5406 O 499.758 4.00648 -0.977477 0
M  V30 5407 H 499.099 0.542988 -0.382177 0
M  V30 5408 H 501.629 1.23413 -1.63188 0
M  V30 5409 H 501.639 3.67684 -1.76841 0
M  V30 5410 H 500.314 3.10389 -2.76823 0
M  V30 5411 H 498.891 3.59161 -1.0029 0
M  V30 5412 N 501.076 1.04316 1.18135 0
M  V30 5413 C 502.492 0.762858 1.40188 0
M  V30 5414 C 502.692 -0.646547 1.90846 0
M  V30 5415 O 501.748 -1.41036 2.0944 0
M  V30 5416 C 503.061 1.81106 2.40044 0
M  V30 5417 C 504.609 1.83226 2.53766 0
M  V30 5418 C 505.084 2.87044 3.56889 0
M  V30 5419 N 506.575 2.85951 3.64398 0
M  V30 5420 C 507.31 3.62932 4.43923 0
M  V30 5421 N 506.806 4.49672 5.27036 0
M  V30 5422 N 508.599 3.51411 4.38711 0
M  V30 5423 H 500.75 1.95264 0.835805 0
M  V30 5424 H 503.013 0.845017 0.429709 0
M  V30 5425 H 502.719 2.82214 2.09876 0
M  V30 5426 H 502.593 1.64529 3.39426 0
M  V30 5427 H 504.98 0.827869 2.8325 0
M  V30 5428 H 505.061 2.03879 1.54489 0
M  V30 5429 H 504.705 3.87663 3.28145 0
M  V30 5430 H 504.635 2.63645 4.5585 0
M  V30 5431 H 507.126 2.23051 3.05052 0
M  V30 5432 H 507.439 5.05116 5.84874 0
M  V30 5433 H 505.784 4.53738 5.26447 0
M  V30 5434 H 508.975 2.83047 3.72829 0
M  V30 5435 H 509.148 4.11654 5.00445 0
M  V30 5436 N 502.554 -1.34406 0.822964 0
M  V30 5437 C 503.8 -1.98578 0.411666 0
M  V30 5438 C 504.133 -1.65093 -1.02264 0
M  V30 5439 O 503.408 -0.92258 -1.71227 0
M  V30 5440 C 503.691 -3.54823 0.614235 0
M  V30 5441 C 503.544 -3.9805 2.09466 0
M  V30 5442 C 504.863 -4.40071 0.050221 0
M  V30 5443 H 501.982 -0.721355 0.151047 0
M  V30 5444 H 504.624 -1.59301 1.03554 0
M  V30 5445 H 502.774 -3.88411 0.0831774 0
M  V30 5446 H 504.446 -3.74795 2.68936 0
M  V30 5447 H 502.689 -3.4836 2.5851 0
M  V30 5448 H 503.36 -5.06819 2.18721 0
M  V30 5449 H 505.836 -4.13037 0.503953 0
M  V30 5450 H 504.712 -5.48452 0.221759 0
M  V30 5451 H 504.973 -4.29576 -1.04482 0
M  V30 5452 N 504.032 -0.577932 -1.46621 0
M  V30 5453 C 504.962 0.145917 -2.33044 0
M  V30 5454 C 505.943 0.888412 -1.45056 0
M  V30 5455 O 507.128 0.864812 -1.73881 0
M  V30 5456 C 504.258 1.16322 -3.27241 0
M  V30 5457 C 503.212 0.535868 -4.24632 0
M  V30 5458 C 502.538 1.65929 -5.08303 0
M  V30 5459 C 503.838 -0.523861 -5.19666 0
M  V30 5460 H 505.532 -0.575636 -2.93814 0
M  V30 5461 H 503.078 -0.278272 -1.41286 0
M  V30 5462 H 505.031 1.67793 -3.86553 0
M  V30 5463 H 503.755 1.91498 -2.64567 0
M  V30 5464 H 502.414 0.0422759 -3.66576 0
M  V30 5465 H 502.062 2.40061 -4.42018 0
M  V30 5466 H 501.762 1.2452 -5.74255 0
M  V30 5467 H 503.286 2.17686 -5.70478 0
M  V30 5468 H 504.7 -0.0944059 -5.73222 0
M  V30 5469 H 503.097 -0.858 -5.93935 0
M  V30 5470 H 504.167 -1.41197 -4.63887 0
M  V30 5471 N 505.51 1.54411 -0.315457 0
M  V30 5472 C 506.457 2.24048 0.554166 0
M  V30 5473 C 507.427 1.2283 1.11812 0
M  V30 5474 O 508.612 1.51491 1.15997 0
M  V30 5475 C 505.752 2.99574 1.71316 0
M  V30 5476 C 504.865 4.15594 1.17922 0
M  V30 5477 C 504 4.78669 2.30324 0
M  V30 5478 C 503.039 5.86807 1.74137 0
M  V30 5479 N 502.176 6.43777 2.8017 0
M  V30 5480 H 507.016 2.97964 -0.0462602 0
M  V30 5481 H 504.553 1.47059 -0.0346009 0
M  V30 5482 H 506.511 3.41604 2.39505 0
M  V30 5483 H 505.141 2.28008 2.285 0
M  V30 5484 H 504.193 3.78404 0.389136 0
M  V30 5485 H 505.505 4.93459 0.728012 0
M  V30 5486 H 504.659 5.23626 3.06433 0
M  V30 5487 H 503.398 4.00168 2.78778 0
M  V30 5488 H 502.403 5.41261 0.965236 0
M  V30 5489 H 503.628 6.67201 1.2657 0
M  V30 5490 H 501.574 5.68153 3.2793 0
M  V30 5491 H 501.491 7.17031 2.39588 0
M  V30 5492 H 502.759 6.9339 3.56132 0
M  V30 5493 N 506.988 0.0434614 1.5754 0
M  V30 5494 C 507.898 -0.94893 2.14552 0
M  V30 5495 C 508.914 -1.34707 1.10136 0
M  V30 5496 O 510.09 -1.42557 1.42266 0
M  V30 5497 C 507.155 -2.208 2.67298 0
M  V30 5498 C 506.216 -1.86893 3.86484 0
M  V30 5499 C 505.449 -3.06797 4.36705 0
M  V30 5500 O 505.672 -4.19921 3.86034 0
M  V30 5501 O 504.606 -2.8826 5.28384 0
M  V30 5502 H 508.432 -0.494099 2.99654 0
M  V30 5503 H 506.017 -0.177989 1.48336 0
M  V30 5504 H 507.899 -2.94686 3.01228 0
M  V30 5505 H 506.574 -2.65436 1.85272 0
M  V30 5506 H 505.481 -1.10347 3.57455 0
M  V30 5507 H 506.814 -1.47062 4.69716 0
M  V30 5508 N 508.466 -1.55915 -0.229846 0
M  V30 5509 C 509.743 -1.6932 -0.979295 0
M  V30 5510 C 510.123 -0.588321 -2.02736 0
M  V30 5511 O 509.471 0.40586 -2.24867 0
M  V30 5512 C 509.681 -3.10305 -1.59724 0
M  V30 5513 C 511.029 -3.6945 -2.09264 0
M  V30 5514 O 512.053 -3.13214 -1.69633 0
M  V30 5515 O 510.912 -4.68072 -2.82082 0
M  V30 5516 H 508.006 -0.689314 -0.456919 0
M  V30 5517 H 510.552 -1.68238 -0.222283 0
M  V30 5518 H 509.324 -3.82177 -0.840039 0
M  V30 5519 H 508.947 -3.1547 -2.42001 0
M  V30 5520 N 509.944 0.496216 -1.49584 0
M  V30 5521 C 510.891 1.59722 -1.66606 0
M  V30 5522 C 511.861 1.58158 -0.507477 0
M  V30 5523 O 513.046 1.76072 -0.735076 0
M  V30 5524 C 510.186 2.97844 -1.74308 0
M  V30 5525 C 509.299 3.09388 -3.01502 0
M  V30 5526 C 508.434 4.38271 -3.00153 0
M  V30 5527 C 507.473 4.43466 -4.21906 0
M  V30 5528 N 506.61 5.63784 -4.1844 0
M  V30 5529 H 511.45 1.44515 -2.60613 0
M  V30 5530 H 508.987 0.703048 -1.29212 0
M  V30 5531 H 510.945 3.77907 -1.76754 0
M  V30 5532 H 509.575 3.11743 -0.837619 0
M  V30 5533 H 508.627 2.22357 -3.08645 0
M  V30 5534 H 509.939 3.09085 -3.91494 0
M  V30 5535 H 509.093 5.2666 -3.01188 0
M  V30 5536 H 507.832 4.41146 -2.07947 0
M  V30 5537 H 506.837 3.53478 -4.21109 0
M  V30 5538 H 508.062 4.42303 -5.1531 0
M  V30 5539 H 506.008 5.67491 -3.29074 0
M  V30 5540 H 505.925 5.65118 -5.02173 0
M  V30 5541 H 507.193 6.54367 -4.23585 0
M  V30 5542 N 511.423 1.38739 0.74761 0
M  V30 5543 C 512.333 1.38696 1.89211 0
M  V30 5544 C 513.349 0.283303 1.71678 0
M  V30 5545 O 514.525 0.522713 1.94498 0
M  V30 5546 C 511.59 1.21662 3.24653 0
M  V30 5547 C 510.651 2.41886 3.54669 0
M  V30 5548 C 509.884 2.25655 4.83648 0
M  V30 5549 O 510.107 1.25339 5.56459 0
M  V30 5550 O 509.041 3.14372 5.13277 0
M  V30 5551 H 512.867 2.35143 1.92202 0
M  V30 5552 H 510.452 1.19721 0.893708 0
M  V30 5553 H 512.334 1.14246 4.05618 0
M  V30 5554 H 511.009 0.283024 3.2246 0
M  V30 5555 H 509.916 2.54877 2.73841 0
M  V30 5556 H 511.249 3.33895 3.61628 0
M  V30 5557 N 512.901 -0.976442 1.23707 0
M  V30 5558 C 514.317 -1.24341 1.00058 0
M  V30 5559 C 514.517 -1.99315 -0.295932 0
M  V30 5560 O 513.573 -2.3123 -1.01435 0
M  V30 5561 C 514.886 -2.03909 2.21001 0
M  V30 5562 C 516.434 -2.17034 2.25534 0
M  V30 5563 C 516.909 -2.99994 3.46075 0
M  V30 5564 N 518.4 -3.07578 3.46338 0
M  V30 5565 C 519.135 -3.72104 4.36264 0
M  V30 5566 N 518.631 -4.3842 5.36432 0
M  V30 5567 N 520.424 -3.69029 4.23998 0
M  V30 5568 H 512.575 -0.47428 2.07037 0
M  V30 5569 H 514.838 -0.272167 0.908091 0
M  V30 5570 H 514.544 -1.56198 3.15111 0
M  V30 5571 H 514.418 -3.04654 2.22409 0
M  V30 5572 H 516.805 -2.63951 1.31961 0
M  V30 5573 H 516.886 -1.15664 2.28156 0
M  V30 5574 H 516.53 -2.53772 4.39957 0
M  V30 5575 H 516.46 -4.01541 3.40694 0
M  V30 5576 H 518.951 -2.60397 2.73865 0
M  V30 5577 H 519.264 -4.85447 6.013 0
M  V30 5578 H 517.609 -4.37116 5.40328 0
M  V30 5579 H 520.8 -3.16392 3.44984 0
M  V30 5580 H 520.973 -4.19034 4.94282 0
M  V30 5581 N 514.379 -1.04941 -1.1758 0
M  V30 5582 C 515.625 -0.768896 -1.88307 0
M  V30 5583 C 515.98 0.696361 -1.79356 0
M  V30 5584 O 515.273 1.50245 -1.18899 0
M  V30 5585 C 515.467 -1.18062 -3.37337 0
M  V30 5586 C 515.296 -2.68436 -3.60794 0
M  V30 5587 C 514.066 -3.35709 -3.77661 0
M  V30 5588 C 516.264 -3.66657 -3.60649 0
M  V30 5589 N 514.246 -4.74974 -3.88939 0
M  V30 5590 C 515.617 -4.91638 -3.77747 0
M  V30 5591 C 517.672 -3.60162 -3.43785 0
M  V30 5592 C 516.375 -6.10902 -3.79726 0
M  V30 5593 C 518.401 -4.78863 -3.47051 0
M  V30 5594 C 517.763 -6.02666 -3.64654 0
M  V30 5595 H 513.862 -0.33355 -0.707296 0
M  V30 5596 H 516.446 -1.34085 -1.41171 0
M  V30 5597 H 514.617 -0.636648 -3.83147 0
M  V30 5598 H 516.349 -0.8502 -3.95669 0
M  V30 5599 H 513.104 -2.8611 -3.77409 0
M  V30 5600 H 513.528 -5.47378 -3.98379 0
M  V30 5601 H 518.17 -2.65412 -3.29114 0
M  V30 5602 H 515.888 -7.05998 -3.93182 0
M  V30 5603 H 519.474 -4.75488 -3.35265 0
M  V30 5604 H 518.354 -6.92979 -3.67083 0
M  V30 5605 N 515.857 1.33968 -0.830081 0
M  V30 5606 C 516.767 2.33164 -0.259207 0
M  V30 5607 C 517.783 1.62951 0.610164 0
M  V30 5608 O 518.959 1.94668 0.516369 0
M  V30 5609 C 516.024 3.42088 0.563598 0
M  V30 5610 C 515.085 4.28037 -0.329014 0
M  V30 5611 C 514.318 5.3176 0.454616 0
M  V30 5612 O 514.541 5.44876 1.6872 0
M  V30 5613 O 513.475 6.01669 -0.166794 0
M  V30 5614 H 517.301 2.83832 -1.08041 0
M  V30 5615 H 514.886 1.37154 -0.59239 0
M  V30 5616 H 516.768 4.08581 1.03147 0
M  V30 5617 H 515.443 2.93651 1.36201 0
M  V30 5618 H 514.35 3.64443 -0.844538 0
M  V30 5619 H 515.683 4.79934 -1.09196 0
M  V30 5620 N 517.335 0.585699 1.46312 0
M  V30 5621 C 518.612 0.00542031 1.95599 0
M  V30 5622 C 518.992 -1.45619 1.52834 0
M  V30 5623 O 518.34 -2.14759 0.780446 0
M  V30 5624 C 518.55 0.180601 3.48532 0
M  V30 5625 C 519.898 0.049979 4.24571 0
M  V30 5626 O 520.922 0.109589 3.56031 0
M  V30 5627 O 519.781 -0.0832226 5.46437 0
M  V30 5628 H 516.875 -0.0481281 0.825598 0
M  V30 5629 H 519.421 0.654227 1.56582 0
M  V30 5630 H 518.193 1.19657 3.72556 0
M  V30 5631 H 517.816 -0.504498 3.94386 0
M  V30 5632 N 518.813 -1.54241 0.323641 0
M  V30 5633 C 520.059 -2.00867 -0.279323 0
M  V30 5634 C 520.392 -1.21146 -1.5178 0
M  V30 5635 O 519.667 -0.29378 -1.92269 0
M  V30 5636 C 519.95 -3.54837 -0.613387 0
M  V30 5637 C 519.803 -4.45284 0.635803 0
M  V30 5638 C 521.122 -4.16186 -1.43099 0
M  V30 5639 H 518.241 -0.730177 -0.100049 0
M  V30 5640 H 520.883 -1.84829 0.440235 0
M  V30 5641 H 519.033 -3.68634 -1.22641 0
M  V30 5642 H 520.705 -4.43357 1.27406 0
M  V30 5643 H 518.948 -4.14956 1.26466 0
M  V30 5644 H 519.619 -5.5084 0.357597 0
M  V30 5645 H 522.095 -4.05964 -0.912814 0
M  V30 5646 H 520.971 -5.24031 -1.6335 0
M  V30 5647 H 521.232 -3.69516 -2.42715 0
M  V30 5648 N 520.291 -0.0518155 -1.57515 0
M  V30 5649 C 521.238 0.922352 -2.11569 0
M  V30 5650 C 522.208 1.30842 -1.02321 0
M  V30 5651 O 523.393 1.39778 -1.29872 0
M  V30 5652 C 520.533 2.19167 -2.6657 0
M  V30 5653 C 519.646 1.86003 -3.89906 0
M  V30 5654 C 518.781 3.07398 -4.33221 0
M  V30 5655 C 517.82 2.70158 -5.49255 0
M  V30 5656 N 516.957 3.84248 -5.8762 0
M  V30 5657 H 521.797 0.454506 -2.94514 0
M  V30 5658 H 519.334 0.212718 -1.45554 0
M  V30 5659 H 521.292 2.93443 -2.96559 0
M  V30 5660 H 519.922 2.63528 -1.86421 0
M  V30 5661 H 518.974 1.01874 -3.66505 0
M  V30 5662 H 520.286 1.54592 -4.74239 0
M  V30 5663 H 519.44 3.89972 -4.64765 0
M  V30 5664 H 518.179 3.41988 -3.477 0
M  V30 5665 H 517.184 1.86001 -5.17382 0
M  V30 5666 H 518.409 2.36759 -6.36492 0
M  V30 5667 H 516.355 4.18638 -5.05053 0
M  V30 5668 H 516.272 3.56538 -6.66646 0
M  V30 5669 H 517.54 4.6746 -6.2378 0
M  V30 5670 N 521.769 1.56035 0.221574 0
M  V30 5671 C 522.679 1.95581 1.29558 0
M  V30 5672 C 523.695 0.859639 1.51282 0
M  V30 5673 O 524.871 1.16321 1.64413 0
M  V30 5674 C 521.936 2.26447 2.62531 0
M  V30 5675 C 520.997 3.49632 2.4911 0
M  V30 5676 C 520.23 3.79017 3.75742 0
M  V30 5677 O 520.453 3.10077 4.78757 0
M  V30 5678 O 519.387 4.72507 3.72855 0
M  V30 5679 H 523.213 2.8711 0.990035 0
M  V30 5680 H 520.798 1.43244 0.424434 0
M  V30 5681 H 522.68 2.47494 3.41064 0
M  V30 5682 H 521.355 1.38092 2.92766 0
M  V30 5683 H 520.262 3.33864 1.68777 0
M  V30 5684 H 521.595 4.3837 2.23814 0
M  V30 5685 N 523.247 -0.488276 1.49845 0
M  V30 5686 C 524.157 -1.61451 1.70207 0
M  V30 5687 C 525.173 -1.63877 0.584846 0
M  V30 5688 O 526.349 -1.82063 0.861107 0
M  V30 5689 C 523.414 -2.9776 1.77594 0
M  V30 5690 C 522.475 -3.05861 3.01243 0
M  V30 5691 C 521.708 -4.35668 3.08268 0
M  V30 5692 O 521.931 -5.25197 2.22541 0
M  V30 5693 O 520.865 -4.49005 4.00847 0
M  V30 5694 H 524.691 -1.47199 2.65643 0
M  V30 5695 H 522.276 -0.665939 1.33737 0
M  V30 5696 H 524.158 -3.7875 1.84732 0
M  V30 5697 H 522.833 -3.12248 0.8534 0
M  V30 5698 H 521.74 -2.24012 2.99616 0
M  V30 5699 H 523.073 -2.96304 3.9302 0
M  V30 5700 N 524.725 -1.39134 -0.740242 0
M  V30 5701 C 525.658 -1.3182 -1.86276 0
M  V30 5702 C 526.636 -0.192794 -1.61453 0
M  V30 5703 O 527.82 -0.372365 -1.84786 0
M  V30 5704 C 524.947 -1.04564 -3.22155 0
M  V30 5705 C 523.993 -2.19224 -3.65846 0
M  V30 5706 S 524.826 -3.81466 -3.75824 0
M  V30 5707 C 525.982 -3.56425 -5.14502 0
M  V30 5708 H 526.215 -2.26822 -1.92195 0
M  V30 5709 H 523.748 -1.25127 -0.904576 0
M  V30 5710 H 525.706 -0.895228 -4.00619 0
M  V30 5711 H 524.367 -0.112578 -3.13898 0
M  V30 5712 H 523.56 -1.95732 -4.6444 0
M  V30 5713 H 523.162 -2.30441 -2.94572 0
M  V30 5714 H 525.454 -3.13366 -6.00673 0
M  V30 5715 H 526.397 -4.54462 -5.43019 0
M  V30 5716 H 526.805 -2.90641 -4.8393 0
M  V30 5717 N 526.204 0.969867 -1.24223 0
M  V30 5718 C 527.432 1.74756 -1.10761 0
M  V30 5719 C 527.847 1.85713 0.340041 0
M  V30 5720 O 527.204 1.34389 1.23474 0
M  V30 5721 C 527.255 3.16915 -1.73917 0
M  V30 5722 O 526.976 3.06511 -3.13021 0
M  V30 5723 C 528.477 4.11032 -1.66036 0
M  V30 5724 H 525.697 0.548092 -0.387087 0
M  V30 5725 H 528.241 1.2178 -1.64286 0
M  V30 5726 H 526.396 3.66884 -1.244 0
M  V30 5727 H 526.81 3.96079 -3.43834 0
M  V30 5728 H 528.284 5.08446 -2.14911 0
M  V30 5729 H 528.761 4.34785 -0.621159 0
M  V30 5730 H 529.367 3.66972 -2.14969 0
M  V30 5731 N 527.682 1.05563 1.17022 0
M  V30 5732 C 528.907 0.788437 1.91829 0
M  V30 5733 C 529.332 -0.650356 1.76499 0
M  V30 5734 O 528.69 -1.45229 1.08527 0
M  V30 5735 C 528.738 1.1786 3.40795 0
M  V30 5736 O 527.842 0.312965 4.11211 0
M  V30 5737 H 527.183 0.288794 0.597908 0
M  V30 5738 H 529.713 1.40948 1.48307 0
M  V30 5739 H 529.723 1.14697 3.91546 0
M  V30 5740 H 528.398 2.22666 3.51273 0
M  V30 5741 H 526.975 0.405515 3.70689 0
M  V30 5742 N 529.16 -1.33526 0.837174 0
M  V30 5743 C 530.123 -2.27551 0.274421 0
M  V30 5744 C 531.123 -1.50886 -0.555881 0
M  V30 5745 O 532.313 -1.70227 -0.369918 0
M  V30 5746 C 529.445 -3.35332 -0.613605 0
M  V30 5747 H 530.638 -2.78837 1.10408 0
M  V30 5748 H 528.191 -1.439 0.610126 0
M  V30 5749 H 528.926 -2.89285 -1.46577 0
M  V30 5750 H 528.711 -3.92095 -0.0195341 0
M  V30 5751 H 530.201 -4.05433 -1.00068 0
M  V30 5752 N 530.638 -0.59345 -1.46 0
M  V30 5753 C 531.568 0.121192 -2.33185 0
M  V30 5754 C 532.549 0.872977 -1.4599 0
M  V30 5755 O 533.734 0.846321 -1.74789 0
M  V30 5756 C 530.864 1.12844 -3.28456 0
M  V30 5757 C 529.818 0.4908 -4.25177 0
M  V30 5758 C 529.144 1.60529 -5.10034 0
M  V30 5759 C 530.444 -0.578949 -5.19081 0
M  V30 5760 H 532.138 -0.606767 -2.93187 0
M  V30 5761 H 529.684 -0.293242 -1.40983 0
M  V30 5762 H 531.637 1.63684 -3.88311 0
M  V30 5763 H 530.361 1.88681 -2.66584 0
M  V30 5764 H 529.02 0.00339328 -3.666 0
M  V30 5765 H 528.668 2.35359 -4.44539 0
M  V30 5766 H 528.368 1.18422 -5.75543 0
M  V30 5767 H 529.892 2.11623 -5.72755 0
M  V30 5768 H 531.306 -0.155199 -5.7309 0
M  V30 5769 H 529.703 -0.920947 -5.92991 0
M  V30 5770 H 530.773 -1.46109 -4.62364 0
M  V30 5771 N 532.116 1.54067 -0.331816 0
M  V30 5772 C 533.079 2.23275 0.517768 0
M  V30 5773 C 534.079 1.22897 1.03697 0
M  V30 5774 O 535.269 1.47419 0.928084 0
M  V30 5775 C 532.401 2.94326 1.72004 0
M  V30 5776 H 533.594 2.99773 -0.0873507 0
M  V30 5777 H 531.147 1.56079 -0.0830042 0
M  V30 5778 H 531.882 2.21986 2.36417 0
M  V30 5779 H 531.667 3.67941 1.35507 0
M  V30 5780 H 533.157 3.47031 2.32291 0
M  V30 5781 N 533.594 0.0601682 1.57485 0
M  V30 5782 C 534.822 -0.620937 1.97363 0
M  V30 5783 C 535.237 -1.63846 0.938082 0
M  V30 5784 O 534.594 -1.82339 -0.0766578 0
M  V30 5785 C 534.645 -1.29987 3.37321 0
M  V30 5786 O 534.366 -0.323081 4.36907 0
M  V30 5787 C 535.867 -2.06989 3.92008 0
M  V30 5788 H 533.087 -0.169135 0.649334 0
M  V30 5789 H 535.631 0.129132 2.04092 0
M  V30 5790 H 533.786 -2.0011 3.31715 0
M  V30 5791 H 534.2 -0.808754 5.18227 0
M  V30 5792 H 535.674 -2.49901 4.92192 0
M  V30 5793 H 536.151 -2.92173 3.2792 0
M  V30 5794 H 536.757 -1.41757 4.0098 0
M  V30 5795 N 535.072 -1.5615 -0.213296 0
M  V30 5796 C 536.005 -1.88115 -1.29182 0
M  V30 5797 C 536.983 -0.739348 -1.44819 0
M  V30 5798 O 538.167 -0.988541 -1.605 0
M  V30 5799 C 535.294 -2.09541 -2.66102 0
M  V30 5800 C 534.34 -3.32236 -2.67436 0
M  V30 5801 S 535.173 -4.87915 -2.20679 0
M  V30 5802 C 536.329 -5.12387 -3.59458 0
M  V30 5803 H 536.562 -2.793 -1.01876 0
M  V30 5804 H 534.095 -1.48692 -0.415934 0
M  V30 5805 H 536.053 -2.22568 -3.44925 0
M  V30 5806 H 534.714 -1.19138 -2.90628 0
M  V30 5807 H 533.907 -3.44297 -3.6807 0
M  V30 5808 H 533.509 -3.18108 -1.96681 0
M  V30 5809 H 535.801 -5.01791 -4.55205 0
M  V30 5810 H 536.744 -6.14236 -3.52306 0
M  V30 5811 H 537.152 -4.40089 -3.53528 0
M  V30 5812 N 536.55 0.480323 -1.50102 0
M  V30 5813 C 537.966 0.813295 -1.37323 0
M  V30 5814 C 538.166 1.97027 -0.422206 0
M  V30 5815 O 537.222 2.5212 0.138563 0
M  V30 5816 C 538.535 1.13404 -2.78496 0
M  V30 5817 C 540.083 1.24104 -2.87345 0
M  V30 5818 C 540.558 1.59497 -4.29331 0
M  V30 5819 N 542.049 1.66507 -4.32238 0
M  V30 5820 C 542.784 1.95378 -5.39087 0
M  V30 5821 N 542.28 2.22333 -6.56155 0
M  V30 5822 N 544.073 1.96803 -5.26522 0
M  V30 5823 H 536.224 -0.282291 -2.10516 0
M  V30 5824 H 538.487 -0.063752 -0.945854 0
M  V30 5825 H 538.193 0.357064 -3.49883 0
M  V30 5826 H 538.067 2.07251 -3.15162 0
M  V30 5827 H 540.454 2.00871 -2.16183 0
M  V30 5828 H 540.535 0.282593 -2.54234 0
M  V30 5829 H 540.179 0.832736 -5.01027 0
M  V30 5830 H 540.109 2.56477 -4.59921 0
M  V30 5831 H 542.6 1.47753 -3.47818 0
M  V30 5832 H 542.913 2.43611 -7.33399 0
M  V30 5833 H 541.258 2.19745 -6.59346 0
M  V30 5834 H 544.449 1.75235 -4.34062 0
M  V30 5835 H 544.622 2.18969 -6.09883 0
M  V30 5836 N 538.028 1.39524 0.732853 0
M  V30 5837 C 539.274 1.37068 1.49467 0
M  V30 5838 C 539.607 -0.0327166 1.94172 0
M  V30 5839 O 538.882 -0.998071 1.66939 0
M  V30 5840 C 539.165 2.34494 2.73285 0
M  V30 5841 C 539.018 3.83784 2.34585 0
M  V30 5842 C 540.337 2.29717 3.75391 0
M  V30 5843 H 537.456 0.499206 0.542183 0
M  V30 5844 H 540.098 1.70532 0.837783 0
M  V30 5845 H 538.248 2.06087 3.29333 0
M  V30 5846 H 539.92 4.22949 1.84151 0
M  V30 5847 H 538.163 4.00455 1.66787 0
M  V30 5848 H 538.834 4.47444 3.23262 0
M  V30 5849 H 541.31 2.54839 3.28932 0
M  V30 5850 H 540.186 2.99962 4.59689 0
M  V30 5851 H 540.447 1.30291 4.22465 0
M  V30 5852 N 539.506 -0.963266 1.24736 0
M  V30 5853 C 540.783 -1.68248 0.9976 0
M  V30 5854 C 541.163 -2.05599 -0.478776 0
M  V30 5855 O 540.511 -1.7626 -1.45412 0
M  V30 5856 C 540.721 -2.91118 1.92487 0
M  V30 5857 C 542.069 -3.63261 2.19833 0
M  V30 5858 O 543.093 -3.01184 1.90176 0
M  V30 5859 O 541.952 -4.75019 2.7022 0
M  V30 5860 H 539.046 -0.735744 0.377637 0
M  V30 5861 H 541.592 -1.01696 1.35853 0
M  V30 5862 H 540.364 -2.60242 2.92215 0
M  V30 5863 H 539.987 -3.65402 1.56738 0
M  V30 5864 N 540.985 -1.06182 -1.16461 0
M  V30 5865 C 542.215 -0.797425 -1.9059 0
M  V30 5866 C 542.623 0.651845 -1.77616 0
M  V30 5867 O 541.966 1.45788 -1.11766 0
M  V30 5868 C 542.028 -1.11128 -3.41893 0
M  V30 5869 C 541.692 -2.55874 -3.78652 0
M  V30 5870 C 542.689 -3.54104 -3.80665 0
M  V30 5871 C 540.374 -2.91144 -4.09317 0
M  V30 5872 C 542.368 -4.85645 -4.12829 0
M  V30 5873 C 540.055 -4.22885 -4.41148 0
M  V30 5874 C 541.053 -5.19945 -4.42883 0
M  V30 5875 O 540.741 -6.49322 -4.73959 0
M  V30 5876 H 540.473 -0.288709 -0.611247 0
M  V30 5877 H 543.027 -1.41841 -1.4856 0
M  V30 5878 H 541.257 -0.433217 -3.84266 0
M  V30 5879 H 542.946 -0.831306 -3.97296 0
M  V30 5880 H 543.712 -3.28197 -3.57088 0
M  V30 5881 H 539.591 -2.16252 -4.07131 0
M  V30 5882 H 543.135 -5.61398 -4.14099 0
M  V30 5883 H 539.032 -4.48551 -4.6419 0
M  V30 5884 H 539.8 -6.54294 -4.91774 0
M  V30 5885 N 542.463 1.3308 -0.844243 0
M  V30 5886 C 543.373 2.32876 -0.283922 0
M  V30 5887 C 544.389 1.63589 0.592846 0
M  V30 5888 O 545.565 1.95205 0.495693 0
M  V30 5889 C 542.63 3.42667 0.527283 0
M  V30 5890 C 541.691 4.27664 -0.374394 0
M  V30 5891 C 540.924 5.32212 0.39819 0
M  V30 5892 O 541.147 5.46635 1.62932 0
M  V30 5893 O 540.081 6.01458 -0.2306 0
M  V30 5894 H 543.907 2.82671 -1.11045 0
M  V30 5895 H 541.492 1.36518 -0.606903 0
M  V30 5896 H 543.374 4.09652 0.988078 0
M  V30 5897 H 542.049 2.95079 1.33078 0
M  V30 5898 H 540.956 3.63526 -0.883144 0
M  V30 5899 H 542.289 4.78749 -1.1428 0
M  V30 5900 N 543.941 0.601185 1.45683 0
M  V30 5901 C 544.873 -0.159446 2.28645 0
M  V30 5902 C 545.886 -0.837882 1.39583 0
M  V30 5903 O 547.075 -0.704344 1.64016 0
M  V30 5904 C 544.175 -1.24641 3.15147 0
M  V30 5905 C 543.348 -0.656334 4.32448 0
M  V30 5906 C 542.407 -1.63337 5.00208 0
M  V30 5907 O 541.433 -1.16217 5.57209 0
M  V30 5908 N 542.635 -2.96773 4.98905 0
M  V30 5909 H 545.4 0.5524 2.94565 0
M  V30 5910 H 542.961 0.440223 1.558 0
M  V30 5911 H 544.953 -1.8997 3.57342 0
M  V30 5912 H 543.523 -1.86087 2.51178 0
M  V30 5913 H 542.743 0.174879 3.93812 0
M  V30 5914 H 544.031 -0.242211 5.08223 0
M  V30 5915 H 543.429 -3.37662 4.53873 0
M  V30 5916 H 541.986 -3.57541 5.44984 0
M  V30 5917 N 545.419 -1.53889 0.339982 0
M  V30 5918 C 546.668 -2.00035 -0.258604 0
M  V30 5919 C 546.981 -1.23179 -1.51942 0
M  V30 5920 O 548.187 -1.59784 -2.19503 0
M  V30 5921 C 546.643 -3.56249 -0.511359 0
M  V30 5922 C 546.251 -4.41957 0.733349 0
M  V30 5923 C 547.995 -4.1082 -1.069 0
M  V30 5924 C 545.902 -5.89673 0.451591 0
M  V30 5925 H 544.832 -0.747284 -0.10041 0
M  V30 5926 H 547.483 -1.77776 0.454758 0
M  V30 5927 H 545.865 -3.7456 -1.28533 0
M  V30 5928 H 547.039 -4.35421 1.50815 0
M  V30 5929 H 545.354 -3.9836 1.21237 0
M  V30 5930 H 547.951 -5.18789 -1.2947 0
M  V30 5931 H 548.294 -3.63817 -2.02343 0
M  V30 5932 H 548.827 -3.96205 -0.355817 0
M  V30 5933 H 545.566 -6.40903 1.37565 0
M  V30 5934 H 545.086 -5.99122 -0.285193 0
M  V30 5935 H 546.765 -6.46965 0.0675067 0
M  V30 5936 N 546.897 -0.0685191 -1.57451 0
M  V30 5937 C 547.844 0.899861 -2.12535 0
M  V30 5938 C 548.814 1.29749 -1.03703 0
M  V30 5939 O 549.999 1.38392 -1.31348 0
M  V30 5940 C 547.139 2.16328 -2.6888 0
M  V30 5941 C 546.252 1.81857 -3.91857 0
M  V30 5942 C 545.387 3.02786 -4.36457 0
M  V30 5943 C 544.426 2.64317 -5.5209 0
M  V30 5944 N 543.563 3.77994 -5.91663 0
M  V30 5945 H 548.403 0.423243 -2.94979 0
M  V30 5946 H 545.94 0.197268 -1.45771 0
M  V30 5947 H 547.898 2.90281 -2.99655 0
M  V30 5948 H 546.528 2.61536 -1.89206 0
M  V30 5949 H 545.58 0.979808 -3.67565 0
M  V30 5950 H 546.892 1.49553 -4.75852 0
M  V30 5951 H 546.046 3.85021 -4.68875 0
M  V30 5952 H 544.785 3.38281 -3.51308 0
M  V30 5953 H 543.79 1.80503 -5.19325 0
M  V30 5954 H 545.015 2.29995 -6.38967 0
M  V30 5955 H 542.961 4.13258 -5.09464 0
M  V30 5956 H 542.878 3.49447 -6.7039 0
M  V30 5957 H 544.146 4.60818 -6.28703 0
M  V30 5958 N 548.375 1.56261 0.205012 0
M  V30 5959 C 549.624 1.79236 0.925058 0
M  V30 5960 C 549.937 0.640011 1.84833 0
M  V30 5961 O 551.143 0.753809 2.60826 0
M  V30 5962 C 549.599 3.17475 1.69522 0
M  V30 5963 C 549.207 4.40482 0.817269 0
M  V30 5964 C 550.951 3.49766 2.4055 0
M  V30 5965 C 548.858 5.69744 1.58573 0
M  V30 5966 H 547.788 0.668287 0.349153 0
M  V30 5967 H 550.439 1.82629 0.178544 0
M  V30 5968 H 548.821 3.08304 2.48526 0
M  V30 5969 H 549.995 4.60752 0.0665988 0
M  V30 5970 H 548.31 4.15827 0.218316 0
M  V30 5971 H 550.907 4.43573 2.98575 0
M  V30 5972 H 551.25 2.73041 3.14252 0
M  V30 5973 H 551.783 3.60341 1.68522 0
M  V30 5974 H 548.522 6.49407 0.891679 0
M  V30 5975 H 548.042 5.53509 2.31059 0
M  V30 5976 H 549.721 6.1051 2.14212 0
M  V30 5977 N 549.853 -0.472356 1.50355 0
M  V30 5978 C 550.8 -1.57051 1.69126 0
M  V30 5979 C 551.77 -1.5733 0.532574 0
M  V30 5980 O 552.955 -1.7488 0.762994 0
M  V30 5981 C 550.095 -2.95033 1.79024 0
M  V30 5982 C 549.208 -3.04552 3.06386 0
M  V30 5983 C 548.343 -4.33441 3.07087 0
M  V30 5984 C 547.382 -4.36697 4.28908 0
M  V30 5985 N 546.519 -5.57056 4.27356 0
M  V30 5986 H 551.359 -1.40351 2.62879 0
M  V30 5987 H 548.896 -0.682403 1.30314 0
M  V30 5988 H 550.854 -3.75048 1.82744 0
M  V30 5989 H 549.484 -3.10371 0.887109 0
M  V30 5990 H 548.536 -2.17419 3.12143 0
M  V30 5991 H 549.848 -3.02818 3.96362 0
M  V30 5992 H 549.002 -5.21801 3.09529 0
M  V30 5993 H 547.741 -4.37782 2.14939 0
M  V30 5994 H 546.746 -3.46734 4.2668 0
M  V30 5995 H 547.971 -4.34049 5.22282 0
M  V30 5996 H 545.917 -5.62184 3.3806 0
M  V30 5997 H 545.834 -5.57058 5.111 0
M  V30 5998 H 547.102 -6.47545 4.33942 0
M  V30 5999 N 551.331 -1.39911 -0.725443 0
M  V30 6000 C 552.278 -1.39393 -1.83952 0
M  V30 6001 C 553.248 -0.252249 -1.64173 0
M  V30 6002 O 554.433 -0.44882 -1.85446 0
M  V30 6003 C 551.573 -1.25262 -3.21564 0
M  V30 6004 C 550.686 -2.49054 -3.52982 0
M  V30 6005 C 549.821 -2.27439 -4.80047 0
M  V30 6006 C 548.86 -3.46857 -5.04338 0
M  V30 6007 N 547.997 -3.24499 -6.22611 0
M  V30 6008 H 552.837 -2.34622 -1.83729 0
M  V30 6009 H 550.374 -1.16537 -0.897636 0
M  V30 6010 H 552.332 -1.15077 -4.01015 0
M  V30 6011 H 550.962 -0.33657 -3.21041 0
M  V30 6012 H 550.014 -2.69805 -2.6816 0
M  V30 6013 H 551.326 -3.37973 -3.66846 0
M  V30 6014 H 550.48 -2.14551 -5.67497 0
M  V30 6015 H 549.219 -1.35929 -4.68374 0
M  V30 6016 H 548.224 -3.60232 -4.15346 0
M  V30 6017 H 549.449 -4.3928 -5.17889 0
M  V30 6018 H 547.395 -2.35663 -6.12208 0
M  V30 6019 H 547.312 -4.06978 -6.37106 0
M  V30 6020 H 548.58 -3.15325 -7.12875 0
M  V30 6021 N 552.809 0.956637 -1.25245 0
M  V30 6022 C 554.058 1.69537 -1.0927 0
M  V30 6023 C 554.371 1.92136 0.366503 0
M  V30 6024 O 555.577 2.63687 0.64665 0
M  V30 6025 C 554.033 3.05211 -1.9072 0
M  V30 6026 C 553.641 2.90416 -3.41119 0
M  V30 6027 C 555.385 3.82882 -1.83308 0
M  V30 6028 C 553.292 4.21468 -4.14872 0
M  V30 6029 H 552.222 0.635804 -0.405302 0
M  V30 6030 H 554.873 1.06513 -1.49423 0
M  V30 6031 H 553.255 3.69128 -1.43389 0
M  V30 6032 H 554.429 2.35444 -3.9611 0
M  V30 6033 H 552.744 2.26203 -3.49602 0
M  V30 6034 H 555.341 4.79944 -2.35706 0
M  V30 6035 H 555.684 4.0853 -0.800572 0
M  V30 6036 H 556.217 3.25711 -2.28379 0
M  V30 6037 H 552.956 4.01009 -5.18529 0
M  V30 6038 H 552.476 4.76213 -3.64665 0
M  V30 6039 H 554.155 4.90022 -4.22478 0
M  V30 6040 N 554.287 1.06798 1.15896 0
M  V30 6041 C 555.197 0.694564 2.24083 0
M  V30 6042 C 556.213 -0.291687 1.71538 0
M  V30 6043 O 557.389 -0.139723 2.00915 0
M  V30 6044 C 554.454 0.0921014 3.46578 0
M  V30 6045 C 553.515 1.13087 4.14137 0
M  V30 6046 C 552.748 0.557064 5.30785 0
M  V30 6047 O 552.971 -0.628623 5.66925 0
M  V30 6048 O 551.905 1.29924 5.8771 0
M  V30 6049 H 555.731 1.59663 2.58344 0
M  V30 6050 H 553.316 0.840575 1.2351 0
M  V30 6051 H 555.198 -0.241884 4.20705 0
M  V30 6052 H 553.873 -0.78337 3.14078 0
M  V30 6053 H 552.78 1.51712 3.41957 0
M  V30 6054 H 554.113 1.97805 4.50704 0
M  V30 6055 N 555.766 -1.3263 0.851289 0
M  V30 6056 C 557.043 -1.91982 0.374448 0
M  V30 6057 C 557.423 -1.77568 -1.14161 0
M  V30 6058 O 556.771 -1.1717 -1.96172 0
M  V30 6059 C 556.981 -3.38862 0.835088 0
M  V30 6060 C 558.329 -4.15999 0.850309 0
M  V30 6061 O 559.353 -3.47566 0.779505 0
M  V30 6062 O 558.212 -5.38189 0.949481 0
M  V30 6063 H 555.306 -0.819846 0.10854 0
M  V30 6064 H 557.852 -1.41422 0.937966 0
M  V30 6065 H 556.624 -3.43281 1.87814 0
M  V30 6066 H 556.247 -3.96821 0.248833 0
M  V30 6067 N 557.244 -0.608902 -1.45362 0
M  V30 6068 C 558.207 0.0992563 -2.28985 0
M  V30 6069 C 559.207 0.793841 -1.39838 0
M  V30 6070 O 560.397 0.641804 -1.61946 0
M  V30 6071 C 557.529 1.15073 -3.20891 0
M  V30 6072 H 558.722 -0.635964 -2.93079 0
M  V30 6073 H 556.275 -0.368007 -1.51906 0
M  V30 6074 H 557.01 1.91667 -2.616 0
M  V30 6075 H 556.795 0.656867 -3.86559 0
M  V30 6076 H 558.285 1.64665 -3.83765 0
M  V30 6077 N 558.722 1.53707 -0.348139 0
M  V30 6078 C 559.947 2.05877 0.250883 0
M  V30 6079 C 560.372 1.22115 1.43072 0
M  V30 6080 O 559.73 0.235986 1.79758 0
M  V30 6081 C 559.778 3.54886 0.639416 0
M  V30 6082 O 558.882 3.73948 1.73888 0
M  V30 6083 H 558.223 0.662754 0.040653 0
M  V30 6084 H 560.753 1.98303 -0.503685 0
M  V30 6085 H 560.763 3.97601 0.915295 0
M  V30 6086 H 559.438 4.153 -0.223386 0
M  V30 6087 H 558.015 3.43134 1.45991 0
M  V30 6088 N 560.2 0.0768682 1.57412 0
M  V30 6089 C 561.148 -0.906229 2.1422 0
M  V30 6090 C 562.142 -1.30477 1.08037 0
M  V30 6091 O 563.348 -1.28143 1.2641 0
M  V30 6092 H 559.723 -0.310207 0.685037 0
M  V30 6093 H 561.694 -0.402228 2.95677 0
M  V30 6094 C 560.443 -2.16245 2.72274 0
M  V30 6095 H 559.766 -1.86463 3.53655 0
M  V30 6096 H 561.206 -2.83134 3.15613 0
M  V30 6097 C 559.665 -2.92437 1.67279 0
M  V30 6098 O 560.195 -3.86322 1.10081 0
M  V30 6099 N 558.401 -2.55637 1.38195 0
M  V30 6100 H 557.948 -1.79363 1.84897 0
M  V30 6101 H 557.906 -3.06919 0.681787 0
M  V30 6102 N 561.678 -1.56367 -0.196722 0
M  V30 6103 C 563.089 -1.70462 -0.761545 0
M  V30 6104 C 563.44 -0.683161 -1.83922 0
M  V30 6105 O 562.565 0.160753 -2.15802 0
M  V30 6106 C 563.16 -3.09057 -1.38814 0
M  V30 6107 C 561.719 -3.24922 -1.90007 0
M  V30 6108 C 560.866 -2.66412 -0.769399 0
M  V30 6109 H 563.817 -1.58675 0.0283263 0
M  V30 6110 H 563.838 -3.06296 -2.2575 0
M  V30 6111 H 563.35 -3.83378 -0.603559 0
M  V30 6112 H 561.451 -2.55514 -2.71189 0
M  V30 6113 H 561.564 -4.3241 -2.06297 0
M  V30 6114 H 559.928 -2.25546 -1.18326 0
M  V30 6115 H 560.711 -3.433 0.00291773 0
M  V30 6116 N 563.156 0.464375 -1.50603 0
M  V30 6117 C 564.086 1.56944 -1.72889 0
M  V30 6118 C 565.067 1.59979 -0.577997 0
M  V30 6119 O 566.252 1.76138 -0.817855 0
M  V30 6120 C 563.382 2.95225 -1.8292 0
M  V30 6121 C 562.336 3.07056 -2.98162 0
M  V30 6122 C 561.662 4.47051 -2.93343 0
M  V30 6123 C 562.962 2.83648 -4.38567 0
M  V30 6124 H 564.656 1.38547 -2.65415 0
M  V30 6125 H 562.202 0.665082 -1.27721 0
M  V30 6126 H 564.155 3.72467 -1.97095 0
M  V30 6127 H 562.879 3.14793 -0.870209 0
M  V30 6128 H 561.538 2.32248 -2.83648 0
M  V30 6129 H 561.186 4.63547 -1.95276 0
M  V30 6130 H 560.886 4.55902 -3.70712 0
M  V30 6131 H 562.41 5.26304 -3.09575 0
M  V30 6132 H 563.824 3.50636 -4.53572 0
M  V30 6133 H 562.221 3.03937 -5.17438 0
M  V30 6134 H 563.291 1.79451 -4.50472 0
M  V30 6135 N 564.634 1.40294 0.718013 0
M  V30 6136 C 565.564 1.43118 1.84498 0
M  V30 6137 C 566.545 0.292403 1.67568 0
M  V30 6138 O 567.73 0.500675 1.87635 0
M  V30 6139 C 564.86 1.29065 3.22427 0
M  V30 6140 C 563.814 2.40521 3.54025 0
M  V30 6141 C 563.14 2.11546 4.91073 0
M  V30 6142 C 564.44 3.82859 3.55269 0
M  V30 6143 H 566.134 2.37432 1.82391 0
M  V30 6144 H 563.68 1.14283 0.87609 0
M  V30 6145 H 565.633 1.29658 4.00957 0
M  V30 6146 H 564.357 0.312271 3.25104 0
M  V30 6147 H 563.016 2.39173 2.77834 0
M  V30 6148 H 562.664 1.12104 4.90348 0
M  V30 6149 H 562.364 2.86216 5.1318 0
M  V30 6150 H 563.888 2.13817 5.71939 0
M  V30 6151 H 565.302 3.86044 4.23843 0
M  V30 6152 H 563.699 4.57029 3.88902 0
M  V30 6153 H 564.769 4.12617 2.54706 0
M  V30 6154 N 566.112 -0.949982 1.2575 0
M  V30 6155 C 567.042 -2.06483 1.09028 0
M  V30 6156 C 568.023 -1.701 -0.00201532 0
M  V30 6157 O 569.208 -1.93469 0.168383 0
M  V30 6158 C 566.338 -3.39899 0.71316 0
M  V30 6159 C 565.292 -3.90309 1.75621 0
M  V30 6160 C 564.618 -5.20274 1.23365 0
M  V30 6161 C 565.918 -4.16169 3.15596 0
M  V30 6162 H 567.612 -2.20731 2.02283 0
M  V30 6163 H 565.158 -1.06066 0.973964 0
M  V30 6164 H 567.111 -4.17346 0.58309 0
M  V30 6165 H 565.835 -3.25602 -0.255091 0
M  V30 6166 H 564.494 -3.15035 1.8748 0
M  V30 6167 H 564.142 -5.02351 0.255491 0
M  V30 6168 H 563.842 -5.54971 1.93082 0
M  V30 6169 H 565.366 -6.00314 1.11607 0
M  V30 6170 H 566.78 -4.84259 3.06864 0
M  V30 6171 H 565.177 -4.62131 3.82825 0
M  V30 6172 H 566.247 -3.22273 3.6231 0
M  V30 6173 N 567.59 -1.07411 -1.15328 0
M  V30 6174 C 568.537 -0.694995 -2.20087 0
M  V30 6175 C 569.507 0.313904 -1.63107 0
M  V30 6176 O 570.692 0.200216 -1.89747 0
M  V30 6177 C 567.832 -0.0996218 -3.44956 0
M  V30 6178 C 566.945 -1.16007 -4.16133 0
M  V30 6179 C 566.08 -0.529636 -5.28553 0
M  V30 6180 C 565.119 -1.57283 -5.91548 0
M  V30 6181 N 564.256 -0.964932 -6.95438 0
M  V30 6182 H 569.096 -1.5927 -2.51867 0
M  V30 6183 H 566.633 -0.796115 -1.23695 0
M  V30 6184 H 568.591 0.263197 -4.16369 0
M  V30 6185 H 567.221 0.761435 -3.13691 0
M  V30 6186 H 566.273 -1.64045 -3.4321 0
M  V30 6187 H 567.585 -1.95101 -4.59061 0
M  V30 6188 H 566.739 -0.114487 -6.06592 0
M  V30 6189 H 565.478 0.29307 -4.86819 0
M  V30 6190 H 564.483 -1.99775 -5.12221 0
M  V30 6191 H 565.708 -2.39783 -6.35359 0
M  V30 6192 H 563.654 -0.16314 -6.55797 0
M  V30 6193 H 563.571 -1.69311 -7.36797 0
M  V30 6194 H 564.839 -0.575305 -7.77374 0
M  V30 6195 N 569.068 1.32177 -0.85831 0
M  V30 6196 C 570.484 1.49873 -0.548656 0
M  V30 6197 C 570.684 1.79278 0.919874 0
M  V30 6198 O 569.74 1.86451 1.70271 0
M  V30 6199 C 571.053 2.64043 -1.4388 0
M  V30 6200 C 572.601 2.77928 -1.43961 0
M  V30 6201 C 573.076 3.95182 -2.31506 0
M  V30 6202 N 574.567 4.0245 -2.29321 0
M  V30 6203 C 575.302 4.9242 -2.93786 0
M  V30 6204 N 574.798 5.87373 -3.67376 0
M  V30 6205 N 576.591 4.85572 -2.83155 0
M  V30 6206 H 568.742 1.11357 -1.80868 0
M  V30 6207 H 571.005 0.549175 -0.772729 0
M  V30 6208 H 570.711 2.49055 -2.48324 0
M  V30 6209 H 570.585 3.59912 -1.12885 0
M  V30 6210 H 572.972 2.92338 -0.402813 0
M  V30 6211 H 573.053 1.82762 -1.78974 0
M  V30 6212 H 572.697 3.81531 -3.35256 0
M  V30 6213 H 572.627 4.89633 -1.93823 0
M  V30 6214 H 575.118 3.34507 -1.75822 0
M  V30 6215 H 575.431 6.52728 -4.13722 0
M  V30 6216 H 573.776 5.87388 -3.71484 0
M  V30 6217 H 576.967 4.10363 -2.25211 0
M  V30 6218 H 577.14 5.55486 -3.33676 0
M  V30 6219 N 570.547 0.616602 1.45037 0
M  V30 6220 C 571.963 0.280994 1.57107 0
M  V30 6221 C 572.163 -1.21627 1.60653 0
M  V30 6222 O 571.219 -1.9997 1.54169 0
M  V30 6223 C 572.532 0.960116 2.8496 0
M  V30 6224 C 574.08 0.936884 2.98649 0
M  V30 6225 C 574.555 1.59619 4.29285 0
M  V30 6226 N 576.046 1.5621 4.36065 0
M  V30 6227 C 576.781 2.04131 5.35834 0
M  V30 6228 N 576.277 2.60177 6.4209 0
M  V30 6229 N 578.07 1.94845 5.27249 0
M  V30 6230 H 570.221 1.58867 1.40979 0
M  V30 6231 H 572.484 0.666024 0.674623 0
M  V30 6232 H 572.19 2.01473 2.88273 0
M  V30 6233 H 572.064 0.488921 3.74018 0
M  V30 6234 H 574.451 -0.109209 2.94898 0
M  V30 6235 H 574.532 1.44643 2.10979 0
M  V30 6236 H 574.176 2.64166 4.33796 0
M  V30 6237 H 574.106 1.06159 5.15789 0
M  V30 6238 H 576.597 1.15276 3.59889 0
M  V30 6239 H 576.91 2.94513 7.1448 0
M  V30 6240 H 575.255 2.64221 6.42816 0
M  V30 6241 H 578.446 1.50792 4.43147 0
M  V30 6242 H 578.619 2.32504 6.04852 0
M  V30 6243 N 572.025 -1.5352 0.356285 0
M  V30 6244 C 572.972 -2.25439 -0.494569 0
M  V30 6245 C 573.942 -1.25752 -1.08516 0
M  V30 6246 O 575.127 -1.54513 -1.1194 0
M  V30 6247 C 572.267 -3.04011 -1.63313 0
M  V30 6248 C 571.38 -4.18574 -1.06862 0
M  V30 6249 C 570.515 -4.84607 -2.17552 0
M  V30 6250 C 569.554 -5.91218 -1.58518 0
M  V30 6251 N 568.691 -6.50979 -2.63003 0
M  V30 6252 H 573.531 -2.97737 0.125244 0
M  V30 6253 H 571.068 -1.46916 0.0735789 0
M  V30 6254 H 573.026 -3.47834 -2.30363 0
M  V30 6255 H 571.656 -2.33986 -2.22374 0
M  V30 6256 H 570.708 -3.79303 -0.288672 0
M  V30 6257 H 572.02 -4.95215 -0.596924 0
M  V30 6258 H 571.174 -5.31566 -2.92442 0
M  V30 6259 H 569.913 -4.07418 -2.6807 0
M  V30 6260 H 568.918 -5.4363 -0.821391 0
M  V30 6261 H 570.143 -6.70322 -1.08836 0
M  V30 6262 H 568.089 -5.76648 -3.12751 0
M  V30 6263 H 568.006 -7.23131 -2.20493 0
M  V30 6264 H 569.274 -7.02589 -3.37623 0
M  V30 6265 N 573.503 -0.0852151 -1.57369 0
M  V30 6266 C 574.45 0.877268 -2.13478 0
M  V30 6267 C 575.42 1.28642 -1.05073 0
M  V30 6268 O 576.605 1.36992 -1.32808 0
M  V30 6269 C 573.745 2.13464 -2.71159 0
M  V30 6270 C 572.858 1.77691 -3.93764 0
M  V30 6271 C 571.993 2.98139 -4.39643 0
M  V30 6272 C 571.032 2.58447 -5.54862 0
M  V30 6273 N 570.169 3.71698 -5.95639 0
M  V30 6274 H 575.009 0.391933 -2.95411 0
M  V30 6275 H 572.546 0.181796 -1.45972 0
M  V30 6276 H 574.504 2.87086 -3.02717 0
M  V30 6277 H 573.134 2.59514 -1.91969 0
M  V30 6278 H 572.186 0.940768 -3.68583 0
M  V30 6279 H 573.498 1.44497 -4.77412 0
M  V30 6280 H 572.652 3.80026 -4.72933 0
M  V30 6281 H 571.391 3.34536 -3.54876 0
M  V30 6282 H 570.396 1.74984 -5.21211 0
M  V30 6283 H 571.621 2.23205 -6.41371 0
M  V30 6284 H 569.567 4.07831 -5.13819 0
M  V30 6285 H 569.484 3.42317 -6.74059 0
M  V30 6286 H 570.752 4.54123 -6.33555 0
M  V30 6287 N 574.981 1.5647 0.188427 0
M  V30 6288 C 575.944 1.9421 1.21718 0
M  V30 6289 C 576.944 0.823901 1.38089 0
M  V30 6290 O 578.134 1.09122 1.35787 0
M  V30 6291 C 575.266 2.22197 2.58537 0
M  V30 6292 H 576.459 2.86252 0.894418 0
M  V30 6293 H 574.012 1.50263 0.430211 0
M  V30 6294 H 574.747 1.32814 2.95856 0
M  V30 6295 H 574.532 3.03688 2.48025 0
M  V30 6296 H 576.022 2.52376 3.3271 0
M  V30 6297 N 576.459 -0.456382 1.50847 0
M  V30 6298 C 577.875 -0.791345 1.386 0
M  V30 6299 C 578.075 -1.9633 0.453498 0
M  V30 6300 O 577.131 -2.52308 -0.0984353 0
M  V30 6301 C 578.444 -1.08959 2.80265 0
M  V30 6302 C 579.992 -1.19517 2.89283 0
M  V30 6303 C 580.467 -1.52647 4.31814 0
M  V30 6304 N 581.958 -1.59609 4.34832 0
M  V30 6305 C 582.693 -1.86777 5.42127 0
M  V30 6306 N 582.189 -2.11866 6.59609 0
M  V30 6307 N 583.982 -1.88402 5.29586 0
M  V30 6308 H 576.133 0.315746 2.1004 0
M  V30 6309 H 578.396 0.0787916 0.94472 0
M  V30 6310 H 578.102 -0.301355 3.50407 0
M  V30 6311 H 577.976 -2.02211 3.18419 0
M  V30 6312 H 580.363 -1.97406 2.19351 0
M  V30 6313 H 580.444 -0.242111 2.54652 0
M  V30 6314 H 580.088 -0.752922 5.02288 0
M  V30 6315 H 580.018 -2.49127 4.63943 0
M  V30 6316 H 582.509 -1.42201 3.50125 0
M  V30 6317 H 582.822 -2.31912 7.37182 0
M  V30 6318 H 581.167 -2.09228 6.62758 0
M  V30 6319 H 584.358 -1.68307 4.36795 0
M  V30 6320 H 584.531 -2.09238 6.13289 0
M  V30 6321 N 577.937 -1.40673 -0.710563 0
M  V30 6322 C 578.9 -1.4108 -1.80635 0
M  V30 6323 C 579.9 -0.303783 -1.57904 0
M  V30 6324 O 581.09 -0.562937 -1.64853 0
M  V30 6325 C 578.222 -1.20748 -3.18799 0
M  V30 6326 H 579.415 -2.38612 -1.81671 0
M  V30 6327 H 576.968 -1.26595 -0.916704 0
M  V30 6328 H 577.703 -0.239964 -3.23411 0
M  V30 6329 H 577.488 -2.00941 -3.36698 0
M  V30 6330 H 578.978 -1.23833 -3.98817 0
M  V30 6331 N 579.415 0.9433 -1.26252 0
M  V30 6332 C 580.345 2.05902 -1.10122 0
M  V30 6333 C 581.326 1.70099 -0.00700552 0
M  V30 6334 O 582.511 1.93377 -0.178641 0
M  V30 6335 C 579.641 3.39516 -0.731175 0
M  V30 6336 C 578.595 3.89372 -1.77688 0
M  V30 6337 C 577.921 5.19613 -1.26122 0
M  V30 6338 C 579.221 4.14489 -3.17799 0
M  V30 6339 H 580.915 2.19655 -2.03451 0
M  V30 6340 H 578.461 1.05548 -0.979576 0
M  V30 6341 H 580.414 4.17031 -0.605215 0
M  V30 6342 H 579.138 3.25733 0.23782 0
M  V30 6343 H 577.797 3.14036 -1.89148 0
M  V30 6344 H 577.445 5.02208 -0.282128 0
M  V30 6345 H 577.145 5.53939 -1.96023 0
M  V30 6346 H 578.669 5.99713 -1.14789 0
M  V30 6347 H 580.083 4.82625 -3.09428 0
M  V30 6348 H 578.48 4.60094 -3.85271 0
M  V30 6349 H 579.55 3.20347 -3.64014 0
M  V30 6350 N 580.893 1.08022 1.14757 0
M  V30 6351 C 581.803 0.718292 2.23333 0
M  V30 6352 C 582.819 -0.273477 1.71837 0
M  V30 6353 O 583.995 -0.118406 2.01052 0
M  V30 6354 C 581.06 0.128855 3.4646 0
M  V30 6355 C 580.121 1.17473 4.12915 0
M  V30 6356 C 579.354 0.61333 5.30164 0
M  V30 6357 O 579.577 -0.568458 5.6756 0
M  V30 6358 O 578.511 1.3615 5.86299 0
M  V30 6359 H 582.337 1.62394 2.56636 0
M  V30 6360 H 579.922 0.853628 1.22611 0
M  V30 6361 H 581.804 -0.197249 4.20938 0
M  V30 6362 H 580.479 -0.750014 3.14891 0
M  V30 6363 H 579.386 1.5533 3.40328 0
M  V30 6364 H 580.719 2.02574 4.48581 0
M  V30 6365 N 582.371 -1.3172 0.865308 0
M  V30 6366 C 583.334 -2.26918 0.322627 0
M  V30 6367 C 584.334 -1.52031 -0.523751 0
M  V30 6368 O 585.524 -1.70973 -0.333727 0
M  V30 6369 C 582.656 -3.36558 -0.542338 0
M  V30 6370 H 583.849 -2.76432 1.16298 0
M  V30 6371 H 581.402 -1.42573 0.640512 0
M  V30 6372 H 582.137 -2.92329 -1.40407 0
M  V30 6373 H 581.922 -3.92048 0.0636395 0
M  V30 6374 H 583.412 -4.07465 -0.91446 0
M  V30 6375 N 583.85 -0.624285 -1.44708 0
M  V30 6376 C 584.812 0.0749638 -2.29077 0
M  V30 6377 C 585.812 0.778965 -1.40673 0
M  V30 6378 O 587.003 0.624591 -1.62618 0
M  V30 6379 C 584.135 1.11663 -3.22094 0
M  V30 6380 H 585.327 -0.667013 -2.92388 0
M  V30 6381 H 582.88 -0.384098 -1.51507 0
M  V30 6382 H 583.615 1.88881 -2.63618 0
M  V30 6383 H 583.401 0.61583 -3.87234 0
M  V30 6384 H 584.891 1.60585 -3.8549 0
M  V30 6385 N 585.328 1.53329 -0.364422 0
M  V30 6386 C 586.291 2.24323 0.470292 0
M  V30 6387 C 587.291 1.25068 1.01067 0
M  V30 6388 O 588.481 1.49354 0.896605 0
M  V30 6389 C 585.613 2.97908 1.65722 0
M  V30 6390 H 586.806 2.9952 -0.150917 0
M  V30 6391 H 584.359 1.55868 -0.116092 0
M  V30 6392 H 585.094 2.2695 2.31655 0
M  V30 6393 H 584.879 3.70732 1.27671 0
M  V30 6394 H 586.369 3.5188 2.24878 0
M  V30 6395 N 586.806 0.0935595 1.57322 0
M  V30 6396 C 587.736 -0.863062 2.16964 0
M  V30 6397 C 588.717 -1.29528 1.10256 0
M  V30 6398 O 589.902 -1.36245 1.38387 0
M  V30 6399 C 587.032 -2.12276 2.74875 0
M  V30 6400 C 585.986 -1.82921 3.86942 0
M  V30 6401 C 585.312 -3.15707 4.31548 0
M  V30 6402 C 586.612 -1.11737 5.10208 0
M  V30 6403 H 588.306 -0.366145 2.97153 0
M  V30 6404 H 585.852 -0.174673 1.42937 0
M  V30 6405 H 587.805 -2.79634 3.1525 0
M  V30 6406 H 586.529 -2.64248 1.91938 0
M  V30 6407 H 585.188 -1.17961 3.47103 0
M  V30 6408 H 584.836 -3.65563 3.45504 0
M  V30 6409 H 584.536 -2.96849 5.07104 0
M  V30 6410 H 586.06 -3.84226 4.74555 0
M  V30 6411 H 587.474 -1.69203 5.47762 0
M  V30 6412 H 585.871 -1.03064 5.91183 0
M  V30 6413 H 586.941 -0.0998818 4.84797 0
M  V30 6414 N 588.284 -1.56567 -0.180126 0
M  V30 6415 C 589.247 -1.94852 -1.20686 0
M  V30 6416 C 590.247 -0.831212 -1.3765 0
M  V30 6417 O 591.437 -1.09841 -1.35206 0
M  V30 6418 C 588.569 -2.23565 -2.57355 0
M  V30 6419 H 589.762 -2.86722 -0.879225 0
M  V30 6420 H 587.315 -1.50489 -0.422237 0
M  V30 6421 H 588.05 -1.34381 -2.95148 0
M  V30 6422 H 587.835 -3.04999 -2.46411 0
M  V30 6423 H 589.325 -2.54137 -3.31367 0
M  V30 6424 N 589.762 0.448376 -1.51087 0
M  V30 6425 C 590.712 1.54156 -1.67988 0
M  V30 6426 C 591.696 1.5178 -0.534015 0
M  V30 6427 O 592.888 1.58419 -0.789448 0
M  V30 6428 C 590.017 2.92437 -1.79822 0
M  V30 6429 C 589.103 2.99611 -3.00157 0
M  V30 6430 N 589.494 2.7655 -4.23502 0
M  V30 6431 C 587.792 3.30764 -2.99184 0
M  V30 6432 C 588.493 2.89281 -5.0467 0
M  V30 6433 N 587.469 3.20473 -4.39088 0
M  V30 6434 H 591.271 1.35061 -2.61028 0
M  V30 6435 H 588.785 0.655504 -1.48583 0
M  V30 6436 H 590.782 3.71068 -1.90037 0
M  V30 6437 H 589.442 3.1256 -0.879554 0
M  V30 6438 H 590.453 2.5169 -4.52628 0
M  V30 6439 H 587.13 3.56732 -2.16907 0
M  V30 6440 H 588.52 2.75499 -6.12821 0
M  V30 6441 O 591.279 1.50177 0.59407 0
M  V30 6442 H 591.97 1.48064 1.24887 0
M  V30 END ATOM
M  V30 BEGIN BOND
M  V30 END BOND
M  V30 END CTAB
M  END
$$$$
