drugbank_target|P52333 Tyrosine-protein kinase JAK3 (DB04716; DB06321; DB08895; DB11817; DB12010; DB15035)
 OpenBabel12092120333D

  0  0  0     0  0            999 V3000
M  V30 BEGIN CTAB
M  V30 COUNTS 17585 17804 0 0 0
M  V30 BEGIN ATOM
M  V30 1 H -0.908 1.98254 -0.117106 0
M  V30 2 N 0 1.576 0 0
M  V30 3 C 0.933 2.03868 1.02534 0
M  V30 4 C 1.911 0.928543 1.3348 0
M  V30 5 O 3.095 1.19667 1.45644 0
M  V30 6 C 0.222 2.43627 2.35294 0
M  V30 7 C -0.732 3.65373 2.2001 0
M  V30 8 S 0.101 5.13292 1.52614 0
M  V30 9 C 1.257 5.56322 2.86805 0
M  V30 10 H 1.49 2.90518 0.631377 0
M  V30 11 H -0.977 1.52953 0.210867 0
M  V30 12 H 0.981 2.67203 3.11629 0
M  V30 13 H -0.358 1.57376 2.7183 0
M  V30 14 H -1.165 3.90944 3.18086 0
M  V30 15 H -1.563 3.418 1.51819 0
M  V30 16 H 0.729 5.58782 3.83104 0
M  V30 17 H 1.672 6.56266 2.65933 0
M  V30 18 H 2.08 4.83886 2.90714 0
M  V30 19 N 1.4781 -0.272755 1.55222 0
M  V30 20 C 2.4411 -1.32041 1.87344 0
M  V30 21 C 3.4411 -1.42342 0.74803 0
M  V30 22 O 4.6311 -1.41488 1.0162 0
M  V30 23 C 1.7631 -2.70173 2.07893 0
M  V30 24 H 2.9561 -1.04789 2.80997 0
M  V30 25 H 0.5091 -0.51083 1.47717 0
M  V30 26 H 1.2441 -3.02605 1.16622 0
M  V30 27 H 1.0291 -2.64082 2.89833 0
M  V30 28 H 2.5191 -3.45869 2.34017 0
M  V30 29 N 2.9562 -1.48159 -0.537278 0
M  V30 30 C 4.3672 -1.49429 -1.11928 0
M  V30 31 C 4.7182 -0.26 -1.9447 0
M  V30 32 O 3.8432 0.633489 -2.0692 0
M  V30 33 C 4.4382 -2.70758 -2.03656 0
M  V30 34 C 2.9972 -2.74923 -2.57088 0
M  V30 35 C 2.1442 -2.42835 -1.3389 0
M  V30 36 H 5.0952 -1.55381 -0.322886 0
M  V30 37 H 5.1162 -2.48861 -2.87834 0
M  V30 38 H 4.6282 -3.60575 -1.43553 0
M  V30 39 H 2.7292 -1.89296 -3.20933 0
M  V30 40 H 2.8422 -3.76157 -2.9672 0
M  V30 41 H 1.2062 -1.93836 -1.65226 0
M  V30 42 H 1.9892 -3.34884 -0.755504 0
M  V30 43 N 4.4343 0.785586 -1.36625 0
M  V30 44 C 5.8453 1.36101 -1.27803 0
M  V30 45 C 6.1963 1.96035 0.0804875 0
M  V30 46 O 5.3213 1.92834 0.982042 0
M  V30 47 C 5.9163 2.47442 -2.31426 0
M  V30 48 C 4.4753 3.00789 -2.26281 0
M  V30 49 C 3.6223 1.73896 -2.15999 0
M  V30 50 H 6.5733 0.586928 -1.47448 0
M  V30 51 H 6.5943 3.2656 -1.95291 0
M  V30 52 H 6.1063 2.03791 -3.30289 0
M  V30 53 H 4.2073 3.48851 -1.30896 0
M  V30 54 H 4.3203 3.57343 -3.19128 0
M  V30 55 H 2.6843 1.9628 -1.62316 0
M  V30 56 H 3.4673 1.32368 -3.16755 0
M  V30 57 N 5.9124 1.20967 1.01018 0
M  V30 58 C 7.1374 1.0503 1.78839 0
M  V30 59 C 7.5624 -0.395752 1.8389 0
M  V30 60 O 6.9204 -1.28529 1.27867 0
M  V30 61 C 6.9684 1.64602 3.2084 0
M  V30 62 O 6.0724 0.887988 4.02726 0
M  V30 63 H 5.4134 0.369987 0.551367 0
M  V30 64 H 7.9434 1.60399 1.27018 0
M  V30 65 H 7.9534 1.68607 3.71532 0
M  V30 66 H 6.6284 2.69841 3.16479 0
M  V30 67 H 5.2054 0.922648 3.61305 0
M  V30 68 N 7.3905 -1.2043 1.01659 0
M  V30 69 C 8.3005 -2.2689 0.596484 0
M  V30 70 C 9.3165 -1.70107 -0.36599 0
M  V30 71 O 10.4925 -2.00117 -0.226942 0
M  V30 72 C 7.5575 -3.4665 -0.0586659 0
M  V30 73 C 6.6185 -4.18662 0.949751 0
M  V30 74 C 5.8515 -5.32705 0.32577 0
M  V30 75 O 6.0745 -5.63656 -0.874509 0
M  V30 76 O 5.0085 -5.92803 1.04249 0
M  V30 77 H 8.8345 -2.65041 1.4828 0
M  V30 78 H 6.4195 -1.27048 0.786082 0
M  V30 79 H 8.3015 -4.19256 -0.424564 0
M  V30 80 H 6.9765 -3.10375 -0.91918 0
M  V30 81 H 5.8835 -3.48229 1.36702 0
M  V30 82 H 7.2165 -4.58878 1.78023 0
M  V30 83 N 8.8686 -0.792821 -1.36206 0
M  V30 84 C 9.7786 -0.194808 -2.3379 0
M  V30 85 C 10.7946 0.654869 -1.61206 0
M  V30 86 O 11.9706 0.569856 -1.9317 0
M  V30 87 C 9.0356 0.657721 -3.40404 0
M  V30 88 C 8.0966 -0.210849 -4.28782 0
M  V30 89 C 7.3296 0.601086 -5.30304 0
M  V30 90 O 7.5526 1.83682 -5.40016 0
M  V30 91 O 6.4866 -0.000808277 -6.019 0
M  V30 92 H 10.3126 -1.00172 -2.86704 0
M  V30 93 H 7.8976 -0.554341 -1.38735 0
M  V30 94 H 9.7796 1.14375 -4.05581 0
M  V30 95 H 8.4546 1.44247 -2.89784 0
M  V30 96 H 7.3616 -0.743714 -3.66633 0
M  V30 97 H 8.6946 -0.959195 -4.82763 0
M  V30 98 N 10.3467 1.47872 -0.545128 0
M  V30 99 C 11.5747 2.06889 -0.021084 0
M  V30 100 C 11.9897 1.39955 1.2672 0
M  V30 101 O 11.3467 0.492036 1.75742 0
M  V30 102 C 11.3977 3.60996 0.190817 0
M  V30 103 O 11.1187 4.25419 -1.04644 0
M  V30 104 C 12.6197 4.36849 0.753521 0
M  V30 105 H 9.8397 0.669785 -0.0403635 0
M  V30 106 H 12.3837 1.90049 -0.755095 0
M  V30 107 H 10.5387 3.77391 0.87492 0
M  V30 108 H 10.9527 5.17785 -0.836611 0
M  V30 109 H 12.4267 5.45399 0.851139 0
M  V30 110 H 12.9037 4.02306 1.762 0
M  V30 111 H 13.5097 4.25169 0.105503 0
M  V30 112 N 11.8248 0.280983 1.55075 0
M  V30 113 C 13.2358 -0.215629 1.85451 0
M  V30 114 C 13.5868 -1.54991 1.203 0
M  V30 115 O 12.7118 -2.10699 0.493435 0
M  V30 116 C 13.3068 -0.398026 3.36454 0
M  V30 117 C 11.8658 -0.838866 3.66933 0
M  V30 118 C 11.0128 0.064458 2.77225 0
M  V30 119 H 13.9638 0.502601 1.50531 0
M  V30 120 H 13.9848 -1.23569 3.59876 0
M  V30 121 H 13.4968 0.573241 3.83843 0
M  V30 122 H 11.5978 -1.8214 3.25048 0
M  V30 123 H 11.7108 -0.672123 4.74362 0
M  V30 124 H 10.0748 -0.452863 2.50642 0
M  V30 125 H 10.8578 1.03172 3.2743 0
M  V30 126 N 13.3029 -1.57598 0.00835791 0
M  V30 127 C 14.2329 -2.1198 -0.979113 0
M  V30 128 C 15.2139 -1.03091 -1.35301 0
M  V30 129 O 16.3989 -1.30818 -1.43528 0
M  V30 130 C 13.5289 -2.62995 -2.26828 0
M  V30 131 C 12.4829 -3.76485 -2.03576 0
M  V30 132 C 11.8089 -4.13846 -3.38579 0
M  V30 133 C 13.1089 -5.0342 -1.39161 0
M  V30 134 H 14.8029 -2.94738 -0.526281 0
M  V30 135 H 12.3489 -1.41783 -0.251704 0
M  V30 136 H 14.3019 -2.99669 -2.96271 0
M  V30 137 H 13.0259 -1.7737 -2.7424 0
M  V30 138 H 11.6849 -3.40217 -1.36557 0
M  V30 139 H 11.3329 -3.25232 -3.83709 0
M  V30 140 H 11.0329 -4.90312 -3.23834 0
M  V30 141 H 12.5569 -4.53086 -4.09323 0
M  V30 142 H 13.9709 -5.37812 -1.98573 0
M  V30 143 H 12.3679 -5.84746 -1.34878 0
M  V30 144 H 13.4379 -4.83548 -0.361868 0
M  V30 145 N 14.781 0.264519 -1.55364 0
M  V30 146 C 16.03 0.992812 -1.75574 0
M  V30 147 C 16.343 1.87142 -0.568979 0
M  V30 148 O 17.549 2.63513 -0.653682 0
M  V30 149 C 16.005 1.81519 -3.10771 0
M  V30 150 C 15.613 0.984839 -4.37041 0
M  V30 151 C 17.357 2.53727 -3.40327 0
M  V30 152 C 15.264 1.80209 -5.63275 0
M  V30 153 H 14.194 0.374412 -0.65447 0
M  V30 154 H 16.845 0.248138 -1.81815 0
M  V30 155 H 15.227 2.60115 -2.98591 0
M  V30 156 H 16.401 0.242455 -4.60162 0
M  V30 157 H 14.716 0.37691 -4.14691 0
M  V30 158 H 17.313 3.15292 -4.3185 0
M  V30 159 H 17.656 3.24447 -2.60845 0
M  V30 160 H 18.189 1.82156 -3.53644 0
M  V30 161 H 14.928 1.13896 -6.45529 0
M  V30 162 H 14.448 2.52022 -5.44284 0
M  V30 163 H 16.127 2.37364 -6.01887 0
M  V30 164 N 16.2591 1.48442 0.529413 0
M  V30 165 C 17.6701 1.5002 1.11134 0
M  V30 166 C 18.0211 0.27031 1.94329 0
M  V30 167 O 17.1461 -0.622507 2.07253 0
M  V30 168 C 17.7411 2.71834 2.02217 0
M  V30 169 C 16.3001 2.76283 2.55627 0
M  V30 170 C 15.4471 2.43542 1.326 0
M  V30 171 H 18.3981 1.5555 0.314641 0
M  V30 172 H 18.4191 2.50384 2.8651 0
M  V30 173 H 17.9311 3.61331 1.41639 0
M  V30 174 H 16.0321 1.90995 3.19924 0
M  V30 175 H 16.1451 3.77725 2.94721 0
M  V30 176 H 14.5091 1.94709 1.64196 0
M  V30 177 H 15.2921 3.3528 0.737734 0
M  V30 178 N 17.7372 -0.778329 1.37039 0
M  V30 179 C 18.6692 -1.90034 1.2814 0
M  V30 180 C 19.6822 -1.61585 0.198558 0
M  V30 181 O 20.8712 -1.72625 0.454175 0
M  V30 182 C 17.9712 -3.25108 0.956968 0
M  V30 183 C 17.1442 -3.81253 2.14394 0
M  V30 184 C 16.2032 -4.94789 1.79082 0
M  V30 185 O 15.2292 -5.10721 2.51301 0
M  V30 186 N 16.4312 -5.75878 0.731043 0
M  V30 187 H 19.1962 -1.98186 2.24816 0
M  V30 188 H 16.7572 -0.957129 1.30578 0
M  V30 189 H 18.7492 -3.9857 0.701701 0
M  V30 190 H 17.3192 -3.125 0.0789812 0
M  V30 191 H 16.5392 -2.99647 2.56135 0
M  V30 192 H 17.8272 -4.15495 2.93668 0
M  V30 193 H 17.2252 -5.65547 0.131618 0
M  V30 194 H 15.7822 -6.49596 0.535622 0
M  V30 195 N 19.2153 -1.21501 -1.00376 0
M  V30 196 C 20.6313 -0.972629 -1.26539 0
M  V30 197 C 20.8313 0.340257 -1.98606 0
M  V30 198 O 19.8873 1.06561 -2.28913 0
M  V30 199 C 21.2003 -2.16404 -2.08781 0
M  V30 200 C 22.7483 -2.20643 -2.22004 0
M  V30 201 C 23.2233 -3.39306 -3.07629 0
M  V30 202 N 24.7143 -3.39401 -3.15217 0
M  V30 203 C 25.4493 -4.27867 -3.81729 0
M  V30 204 N 24.9453 -5.26533 -4.5026 0
M  V30 205 N 26.7383 -4.15672 -3.78382 0
M  V30 206 H 18.8893 -2.05929 -0.520281 0
M  V30 207 H 21.1523 -0.901803 -0.292328 0
M  V30 208 H 20.8583 -3.11554 -1.63178 0
M  V30 209 H 20.7323 -2.15567 -3.09533 0
M  V30 210 H 23.1193 -1.26048 -2.66825 0
M  V30 211 H 23.2003 -2.25523 -1.20718 0
M  V30 212 H 22.8443 -4.34195 -2.63509 0
M  V30 213 H 22.7743 -3.31665 -4.09031 0
M  V30 214 H 25.2653 -2.67997 -2.66432 0
M  V30 215 H 25.5783 -5.90337 -4.98721 0
M  V30 216 H 23.9233 -5.30457 -4.49044 0
M  V30 217 H 27.1143 -3.3785 -3.23998 0
M  V30 218 H 27.2873 -4.84825 -4.2994 0
M  V30 219 N 20.6934 1.19889 -1.02296 0
M  V30 220 C 21.9184 1.9393 -0.735237 0
M  V30 221 C 22.3434 1.74639 0.698782 0
M  V30 222 O 21.7014 1.04481 1.48167 0
M  V30 223 C 21.7494 3.43916 -1.08417 0
M  V30 224 O 20.8534 4.11917 -0.199446 0
M  V30 225 H 20.1944 0.605645 -0.272196 0
M  V30 226 H 22.7244 1.52137 -1.36804 0
M  V30 227 H 22.7344 3.9456 -1.03856 0
M  V30 228 H 21.4094 3.5728 -2.12894 0
M  V30 229 H 19.9864 3.71666 -0.303136 0
M  V30 230 N 22.1715 0.800033 1.35784 0
M  V30 231 C 23.4115 0.382891 2.00782 0
M  V30 232 C 23.7755 -1.02891 1.62103 0
M  V30 233 O 24.9765 -1.54771 2.19771 0
M  V30 234 C 23.2475 0.553299 3.53091 0
M  V30 235 S 24.8065 0.225608 4.3822 0
M  V30 236 H 21.6245 0.145737 0.695904 0
M  V30 237 H 24.2265 1.04085 1.65489 0
M  V30 238 H 22.9305 1.58091 3.78729 0
M  V30 239 H 22.4615 -0.120214 3.93216 0
M  V30 240 H 24.4765 -0.969074 4.86645 0
M  V30 241 N 23.6496 -1.47581 0.552962 0
M  V30 242 C 24.8746 -2.07378 0.0300593 0
M  V30 243 C 25.2996 -1.40355 -1.25229 0
M  V30 244 O 24.6576 -0.477099 -1.7491 0
M  V30 245 C 24.7056 -3.60274 -0.153231 0
M  V30 246 O 23.8096 -3.94041 -1.21678 0
M  V30 247 H 23.1506 -0.662158 0.0494182 0
M  V30 248 H 25.6806 -1.89662 0.767434 0
M  V30 249 H 25.6906 -4.0633 -0.368761 0
M  V30 250 H 24.3656 -4.08455 0.783397 0
M  V30 251 H 22.9426 -3.59735 -0.982079 0
M  V30 252 N 25.1277 -0.289203 -1.54924 0
M  V30 253 C 26.0577 0.58549 -2.2604 0
M  V30 254 C 27.0387 1.14753 -1.25562 0
M  V30 255 O 28.2237 1.17906 -1.54311 0
M  V30 256 C 25.3537 1.76305 -2.99222 0
M  V30 257 C 24.3077 1.33191 -4.06748 0
M  V30 258 C 23.6337 2.5937 -4.6758 0
M  V30 259 C 24.9337 0.471775 -5.20165 0
M  V30 260 H 26.6277 -0.00763532 -2.99399 0
M  V30 261 H 24.1737 -0.00511229 -1.43999 0
M  V30 262 H 26.1267 2.38097 -3.47689 0
M  V30 263 H 24.8507 2.38223 -2.23422 0
M  V30 264 H 23.5097 0.737121 -3.59113 0
M  V30 265 H 23.1577 3.19576 -3.88433 0
M  V30 266 H 22.8577 2.31228 -5.40192 0
M  V30 267 H 24.3817 3.21985 -5.18804 0
M  V30 268 H 25.7957 0.995056 -5.64599 0
M  V30 269 H 24.1927 0.284639 -5.99425 0
M  V30 270 H 25.2627 -0.506041 -4.82252 0
M  V30 271 N 26.6058 1.57591 -0.0167156 0
M  V30 272 C 27.5358 2.12496 0.967858 0
M  V30 273 C 28.5168 1.03807 1.34752 0
M  V30 274 O 29.7018 1.31577 1.42833 0
M  V30 275 C 26.8318 2.64194 2.25431 0
M  V30 276 C 25.7858 3.77559 2.01576 0
M  V30 277 C 25.1118 4.15636 3.36379 0
M  V30 278 C 26.4118 5.04151 1.36489 0
M  V30 279 H 28.1058 2.95013 0.510643 0
M  V30 280 H 25.6518 1.41915 0.244181 0
M  V30 281 H 27.6048 3.01236 2.94678 0
M  V30 282 H 26.3288 1.78821 2.73296 0
M  V30 283 H 24.9878 3.40937 1.34751 0
M  V30 284 H 24.6358 3.27263 3.81979 0
M  V30 285 H 24.3358 4.92022 3.21229 0
M  V30 286 H 25.8598 4.5525 4.06915 0
M  V30 287 H 27.2738 5.38857 1.95718 0
M  V30 288 H 25.6708 5.85453 1.31776 0
M  V30 289 H 26.7408 4.83733 0.336219 0
M  V30 290 N 28.0839 -0.256276 1.55502 0
M  V30 291 C 29.3089 -1.00766 1.81276 0
M  V30 292 C 29.7339 -1.78524 0.59252 0
M  V30 293 O 29.0919 -1.75413 -0.45827 0
M  V30 294 C 29.1399 -1.92869 3.04687 0
M  V30 295 O 28.2439 -3.019 2.80945 0
M  V30 296 H 27.5849 -0.287224 0.598664 0
M  V30 297 H 30.1149 -0.280109 2.02674 0
M  V30 298 H 30.1249 -2.34511 3.33869 0
M  V30 299 H 28.7999 -1.35689 3.93143 0
M  V30 300 H 27.3769 -2.64454 2.62904 0
M  V30 301 N 29.562 -1.4872 -0.521534 0
M  V30 302 C 30.79 -1.60843 -1.30142 0
M  V30 303 C 31.205 -0.271897 -1.86832 0
M  V30 304 O 30.562 0.739969 -1.66825 0
M  V30 305 C 30.613 -2.66155 -2.4463 0
M  V30 306 O 30.334 -3.94623 -1.90275 0
M  V30 307 C 31.835 -2.88795 -3.36322 0
M  V30 308 H 29.055 -0.542075 -0.395468 0
M  V30 309 H 31.599 -1.94609 -0.628285 0
M  V30 310 H 29.754 -2.35224 -3.07812 0
M  V30 311 H 30.168 -4.52468 -2.65279 0
M  V30 312 H 31.642 -3.66264 -4.12983 0
M  V30 313 H 32.119 -1.97934 -3.9207 0
M  V30 314 H 32.725 -3.21063 -2.78924 0
M  V30 315 N 31.0401 0.771051 -1.3745 0
M  V30 316 C 31.9501 1.91538 -1.35464 0
M  V30 317 C 32.9661 1.72134 -0.254123 0
M  V30 318 O 34.1421 1.95358 -0.489626 0
M  V30 319 C 31.2071 3.26671 -1.16134 0
M  V30 320 C 30.2681 3.58723 -2.35831 0
M  V30 321 C 29.5011 4.87409 -2.17413 0
M  V30 322 O 29.7241 5.58506 -1.15876 0
M  V30 323 O 28.6581 5.18539 -3.05615 0
M  V30 324 H 32.4841 1.96165 -2.31847 0
M  V30 325 H 30.0691 0.9139 -1.18187 0
M  V30 326 H 31.9511 4.07499 -1.07345 0
M  V30 327 H 30.6261 3.22894 -0.228251 0
M  V30 328 H 29.5331 2.78127 -2.50192 0
M  V30 329 H 30.8661 3.67243 -3.27709 0
M  V30 330 N 32.5182 1.22032 0.997298 0
M  V30 331 C 33.4812 0.987909 2.06816 0
M  V30 332 C 34.4812 -0.0440084 1.6074 0
M  V30 333 O 35.6712 0.194053 1.73116 0
M  V30 334 C 32.8032 0.49132 3.37341 0
M  V30 335 H 33.9962 1.93803 2.28868 0
M  V30 336 H 31.5492 1.03838 1.16822 0
M  V30 337 H 32.2842 -0.463364 3.20973 0
M  V30 338 H 32.0692 1.23575 3.72118 0
M  V30 339 H 33.5592 0.348824 4.16141 0
M  V30 340 N 33.9963 -1.19345 1.0293 0
M  V30 341 C 35.2443 -1.88665 0.724574 0
M  V30 342 C 35.5653 -1.80036 -0.749144 0
M  V30 343 O 34.8353 -1.2111 -1.53978 0
M  V30 344 H 33.4153 -0.698406 0.265025 0
M  V30 345 H 36.0773 -1.44885 1.30362 0
M  V30 346 H 35.1733 -2.94987 1.01926 0
M  V30 347 N 35.4744 -0.807222 -1.35358 0
M  V30 348 C 36.4374 -0.223665 -2.28106 0
M  V30 349 C 37.4374 0.589354 -1.4961 0
M  V30 350 O 38.6274 0.407745 -1.69361 0
M  V30 351 C 35.7594 0.688149 -3.33882 0
M  V30 352 H 36.9524 -1.04169 -2.81227 0
M  V30 353 H 34.5054 -0.577921 -1.45223 0
M  V30 354 H 35.2404 1.52984 -2.85948 0
M  V30 355 H 35.0254 0.10687 -3.91954 0
M  V30 356 H 36.5154 1.09075 -4.03104 0
M  V30 357 N 36.9525 1.47285 -0.560781 0
M  V30 358 C 37.8825 2.32857 0.173105 0
M  V30 359 C 38.8635 1.44009 0.905281 0
M  V30 360 O 40.0485 1.7286 0.885046 0
M  V30 361 C 37.1785 3.25861 1.20133 0
M  V30 362 C 36.1325 4.23978 0.585388 0
M  V30 363 C 35.4585 5.06332 1.7185 0
M  V30 364 C 36.7585 5.20242 -0.463178 0
M  V30 365 H 38.4525 2.94466 -0.541307 0
M  V30 366 H 35.9985 1.41601 -0.261764 0
M  V30 367 H 37.9515 3.84569 1.72293 0
M  V30 368 H 36.6755 2.62315 1.94573 0
M  V30 369 H 35.3345 3.66501 0.085054 0
M  V30 370 H 34.9825 4.39186 2.45203 0
M  V30 371 H 34.6825 5.72762 1.31213 0
M  V30 372 H 36.2065 5.67899 2.24329 0
M  V30 373 H 37.6205 5.73293 -0.027502 0
M  V30 374 H 36.0175 5.94896 -0.788627 0
M  V30 375 H 37.0875 4.65504 -1.35773 0
M  V30 376 N 38.4306 0.297415 1.54768 0
M  V30 377 C 39.3806 -0.595275 2.20092 0
M  V30 378 C 40.3646 -1.10163 1.17273 0
M  V30 379 O 41.5566 -1.043 1.43006 0
M  V30 380 C 38.6856 -1.7684 2.94249 0
M  V30 381 C 37.7716 -1.27818 4.0438 0
M  V30 382 N 38.1626 -0.505695 5.03266 0
M  V30 383 C 36.4606 -1.55923 4.17857 0
M  V30 384 C 37.1616 -0.245094 5.81183 0
M  V30 385 N 36.1376 -0.823881 5.3732 0
M  V30 386 H 39.9396 0.00250837 2.939 0
M  V30 387 H 37.4536 0.102007 1.62079 0
M  V30 388 H 39.4506 -2.41944 3.39513 0
M  V30 389 H 38.1106 -2.36992 2.21957 0
M  V30 390 H 39.1216 -0.150928 5.1768 0
M  V30 391 H 35.7986 -2.16849 3.56767 0
M  V30 392 H 37.1886 0.375084 6.70852 0
M  V30 393 N 39.9087 -1.5758 0.0250728 0
M  V30 394 C 41.1547 -1.91917 -0.655413 0
M  V30 395 C 41.4877 -0.901433 -1.72011 0
M  V30 396 O 40.7627 0.0764069 -1.9435 0
M  V30 397 C 41.0457 -3.36751 -1.27558 0
M  V30 398 C 40.8987 -4.49258 -0.220719 0
M  V30 399 C 42.2177 -3.81469 -2.19475 0
M  V30 400 H 39.3367 -0.697925 -0.23679 0
M  V30 401 H 41.9787 -1.89825 0.0815036 0
M  V30 402 H 40.1287 -3.38664 -1.90365 0
M  V30 403 H 41.8007 -4.59478 0.409601 0
M  V30 404 H 40.0437 -4.31415 0.454264 0
M  V30 405 H 40.7147 -5.47618 -0.694175 0
M  V30 406 H 43.1907 -3.81266 -1.66659 0
M  V30 407 H 42.0667 -4.83512 -2.59822 0
M  V30 408 H 42.3277 -3.16744 -3.08424 0
M  V30 409 N 41.3868 0.248026 -1.55636 0
M  V30 410 C 42.3168 1.31079 -1.93237 0
M  V30 411 C 43.2978 1.50264 -0.797174 0
M  V30 412 O 44.4828 1.62891 -1.05737 0
M  V30 413 C 41.6128 2.66575 -2.22609 0
M  V30 414 C 40.5668 2.62087 -3.3837 0
M  V30 415 C 39.8928 4.01369 -3.53281 0
M  V30 416 C 41.1928 2.19171 -4.7409 0
M  V30 417 H 42.8868 0.998556 -2.82257 0
M  V30 418 H 40.4328 0.47891 -1.35803 0
M  V30 419 H 42.3858 3.41057 -2.47503 0
M  V30 420 H 41.1098 2.99432 -1.30414 0
M  V30 421 H 39.7688 1.90063 -3.13483 0
M  V30 422 H 39.4168 4.31489 -2.58508 0
M  V30 423 H 39.1168 3.99254 -4.31127 0
M  V30 424 H 40.6408 4.77552 -3.80495 0
M  V30 425 H 42.0548 2.83384 -4.98363 0
M  V30 426 H 40.4518 2.2817 -5.5503 0
M  V30 427 H 41.5218 1.14336 -4.71227 0
M  V30 428 N 42.8649 1.48995 0.513639 0
M  V30 429 C 43.7949 1.67636 1.62544 0
M  V30 430 C 44.7759 0.525087 1.61793 0
M  V30 431 O 45.9609 0.759502 1.78732 0
M  V30 432 C 43.0909 1.73114 3.01079 0
M  V30 433 C 42.0449 2.87905 3.16693 0
M  V30 434 C 41.3709 2.78486 4.56453 0
M  V30 435 C 42.6709 4.29005 2.97913 0
M  V30 436 H 44.3649 2.60716 1.47198 0
M  V30 437 H 41.9109 1.25465 0.706714 0
M  V30 438 H 43.8639 1.84742 3.78746 0
M  V30 439 H 42.5879 0.766241 3.17484 0
M  V30 440 H 41.2469 2.75859 2.41448 0
M  V30 441 H 40.8949 1.7993 4.69717 0
M  V30 442 H 40.5949 3.55523 4.67843 0
M  V30 443 H 42.1189 2.92104 5.36197 0
M  V30 444 H 43.5329 4.41798 3.65359 0
M  V30 445 H 41.9299 5.07166 3.20785 0
M  V30 446 H 42.9999 4.44329 1.94165 0
M  V30 447 N 44.343 -0.763751 1.37857 0
M  V30 448 C 45.754 -1.3405 1.29952 0
M  V30 449 C 46.105 -1.96138 -0.0492898 0
M  V30 450 O 45.23 -1.94372 -0.951239 0
M  V30 451 C 45.825 -2.43729 2.35333 0
M  V30 452 C 44.384 -2.97151 2.31037 0
M  V30 453 C 43.531 -1.70438 2.18738 0
M  V30 454 H 46.482 -0.563396 1.48363 0
M  V30 455 H 46.503 -3.23412 2.00462 0
M  V30 456 H 46.015 -1.9851 3.33489 0
M  V30 457 H 44.116 -3.46724 1.3643 0
M  V30 458 H 44.229 -3.52221 3.24772 0
M  V30 459 H 42.593 -1.93673 1.65418 0
M  V30 460 H 43.376 -1.27312 3.18821 0
M  V30 461 N 45.8211 -1.22559 -0.990812 0
M  V30 462 C 46.7841 -0.998863 -2.0629 0
M  V30 463 C 47.7841 0.0354834 -1.60761 0
M  V30 464 O 48.9741 -0.203231 -1.7301 0
M  V30 465 C 46.1061 -0.509203 -3.37076 0
M  V30 466 H 47.2991 -1.95014 -2.27837 0
M  V30 467 H 44.8521 -1.04456 -1.16269 0
M  V30 468 H 45.5871 0.446335 -3.21214 0
M  V30 469 H 45.3721 -1.25547 -3.71457 0
M  V30 470 H 46.8621 -0.370888 -4.1595 0
M  V30 471 N 47.2992 1.18797 -1.03562 0
M  V30 472 C 48.7152 1.40671 -0.753917 0
M  V30 473 C 48.9152 1.9043 0.658686 0
M  V30 474 O 47.9712 2.08538 1.42366 0
M  V30 475 C 49.2842 2.41192 -1.79574 0
M  V30 476 C 50.8322 2.54928 -1.81606 0
M  V30 477 C 51.3072 3.58709 -2.84766 0
M  V30 478 N 52.7982 3.66212 -2.83625 0
M  V30 479 C 53.5332 4.46225 -3.60098 0
M  V30 480 N 53.0292 5.29888 -4.46308 0
M  V30 481 N 54.8222 4.40939 -3.4861 0
M  V30 482 H 46.9732 0.848221 -1.94728 0
M  V30 483 H 49.2362 0.435081 -0.842264 0
M  V30 484 H 48.9422 2.11669 -2.80872 0
M  V30 485 H 48.8162 3.40467 -1.62365 0
M  V30 486 H 51.2032 2.83771 -0.809817 0
M  V30 487 H 51.2842 1.55784 -2.02891 0
M  V30 488 H 50.9282 3.30607 -3.85566 0
M  V30 489 H 50.8582 4.57519 -2.60737 0
M  V30 490 H 53.3492 3.06466 -2.21105 0
M  V30 491 H 53.6622 5.88078 -5.01382 0
M  V30 492 H 52.0072 5.29326 -4.50377 0
M  V30 493 H 55.1982 3.74624 -2.80668 0
M  V30 494 H 55.3712 5.03056 -4.08459 0
M  V30 495 N 48.7773 0.814389 1.34928 0
M  V30 496 C 50.0253 0.397636 1.9815 0
M  V30 497 C 50.3463 -1.04069 1.64908 0
M  V30 498 O 49.6163 -1.72121 0.93548 0
M  V30 499 H 48.1963 0.144043 0.732981 0
M  V30 500 H 50.8583 1.04195 1.6471 0
M  V30 501 H 49.9543 0.509688 3.0791 0
M  V30 502 N 50.2554 -1.46986 0.568584 0
M  V30 503 C 51.6664 -1.86188 0.138219 0
M  V30 504 C 52.0174 -1.47388 -1.29504 0
M  V30 505 O 51.1424 -0.88219 -1.97602 0
M  V30 506 C 51.7374 -3.3792 0.244065 0
M  V30 507 C 50.2964 -3.76171 -0.131335 0
M  V30 508 C 49.4434 -2.71027 0.586465 0
M  V30 509 H 52.3944 -1.38342 0.777645 0
M  V30 510 H 52.4154 -3.76729 -0.534351 0
M  V30 511 H 51.9274 -3.66128 1.28731 0
M  V30 512 H 50.0284 -3.5358 -1.17526 0
M  V30 513 H 50.1414 -4.78523 0.235146 0
M  V30 514 H 48.5054 -2.54684 0.0282722 0
M  V30 515 H 49.2884 -3.02077 1.63109 0
M  V30 516 N 51.7335 -0.305618 -1.54608 0
M  V30 517 C 52.9815 0.301701 -1.99835 0
M  V30 518 C 53.3025 1.54054 -1.19551 0
M  V30 519 O 52.5725 1.93702 -0.292658 0
M  V30 520 H 51.1525 0.114468 -0.738178 0
M  V30 521 H 53.8145 -0.418016 -1.90364 0
M  V30 522 H 52.9105 0.570548 -3.06841 0
M  V30 523 N 53.2116 1.57565 -0.0334293 0
M  V30 524 C 54.6226 1.79746 0.504798 0
M  V30 525 C 54.9736 0.944091 1.71992 0
M  V30 526 O 54.0986 0.155694 2.15839 0
M  V30 527 C 54.6936 3.25997 0.922567 0
M  V30 528 C 53.2526 3.49159 1.40588 0
M  V30 529 C 52.3996 2.74785 0.372633 0
M  V30 530 H 55.3506 1.56565 -0.259436 0
M  V30 531 H 55.3716 3.35945 1.78666 0
M  V30 532 H 54.8836 3.88081 0.0379825 0
M  V30 533 H 52.9846 2.92332 2.31025 0
M  V30 534 H 53.0976 4.57873 1.41028 0
M  V30 535 H 51.4616 2.40391 0.841672 0
M  V30 536 H 52.2446 3.39587 -0.503559 0
M  V30 537 N 54.6897 -0.239769 1.55765 0
M  V30 538 C 56.1007 -0.808263 1.68297 0
M  V30 539 C 56.4517 -1.85736 0.632181 0
M  V30 540 O 55.5767 -2.15277 -0.220204 0
M  V30 541 C 56.1717 -1.47284 3.05111 0
M  V30 542 C 54.7307 -1.98895 3.19559 0
M  V30 543 C 53.8777 -0.842575 2.64189 0
M  V30 544 H 56.8287 -0.0154422 1.58692 0
M  V30 545 H 56.8497 -2.34111 2.99954 0
M  V30 546 H 56.3617 -0.709053 3.81568 0
M  V30 547 H 54.4627 -2.78132 2.47938 0
M  V30 548 H 54.5757 -2.18143 4.26556 0
M  V30 549 H 52.9397 -1.24501 2.22197 0
M  V30 550 H 53.7227 -0.0917552 3.43177 0
M  V30 551 N 56.1678 -1.49265 -0.50573 0
M  V30 552 C 57.0998 -1.617 -1.62437 0
M  V30 553 C 58.1128 -0.499924 -1.54934 0
M  V30 554 O 59.3018 -0.771785 -1.60953 0
M  V30 555 C 56.4018 -1.5533 -3.01207 0
M  V30 556 C 55.5748 -2.8249 -3.33943 0
M  V30 557 C 54.6338 -2.69238 -4.52103 0
M  V30 558 O 53.6598 -3.43167 -4.5412 0
M  V30 559 N 54.8618 -1.80468 -5.51735 0
M  V30 560 H 57.6268 -2.58177 -1.52199 0
M  V30 561 H 55.1878 -1.46294 -0.693511 0
M  V30 562 H 57.1798 -1.44125 -3.78167 0
M  V30 563 H 55.7498 -0.667297 -3.05395 0
M  V30 564 H 54.9698 -3.08081 -2.45926 0
M  V30 565 H 56.2578 -3.66802 -3.5261 0
M  V30 566 H 55.6558 -1.19653 -5.52901 0
M  V30 567 H 54.2128 -1.75188 -6.27816 0
M  V30 568 N 57.6459 0.756429 -1.3826 0
M  V30 569 C 59.0619 1.0591 -1.19395 0
M  V30 570 C 59.2619 2.01459 -0.0406567 0
M  V30 571 O 58.3179 2.44909 0.614467 0
M  V30 572 C 59.6309 1.64191 -2.51916 0
M  V30 573 C 61.1789 1.76376 -2.58574 0
M  V30 574 C 61.6539 2.38069 -3.91264 0
M  V30 575 N 63.1449 2.45503 -3.92788 0
M  V30 576 C 63.8799 2.94126 -4.92217 0
M  V30 577 N 63.3759 3.42805 -6.02043 0
M  V30 578 N 65.1689 2.9314 -4.7961 0
M  V30 579 H 57.3199 0.122313 -2.12048 0
M  V30 580 H 59.5829 0.116892 -0.940766 0
M  V30 581 H 59.2889 1.01451 -3.3675 0
M  V30 582 H 59.1629 2.6329 -2.70108 0
M  V30 583 H 61.5499 2.38244 -1.74137 0
M  V30 584 H 61.6309 0.759894 -2.44252 0
M  V30 585 H 61.2749 1.76835 -4.76121 0
M  V30 586 H 61.2049 3.39091 -4.02895 0
M  V30 587 H 63.6959 2.1107 -3.13461 0
M  V30 588 H 64.0089 3.78354 -6.73846 0
M  V30 589 H 62.3539 3.4087 -6.05667 0
M  V30 590 H 65.5449 2.54419 -3.92923 0
M  V30 591 H 65.7179 3.30721 -5.5725 0
M  V30 592 N 59.124 1.23083 0.984299 0
M  V30 593 C 60.054 1.03292 2.09411 0
M  V30 594 C 61.035 -0.048923 1.7003 0
M  V30 595 O 62.22 0.114967 1.93859 0
M  V30 596 C 59.35 0.619155 3.41736 0
M  V30 597 C 58.304 1.64791 3.95004 0
M  V30 598 C 57.63 1.0897 5.23478 0
M  V30 599 C 58.93 3.03999 4.24714 0
M  V30 600 H 60.624 1.96119 2.26225 0
M  V30 601 H 58.17 0.944344 1.08711 0
M  V30 602 H 60.123 0.467777 4.18796 0
M  V30 603 H 58.847 -0.344786 3.24775 0
M  V30 604 H 57.506 1.78721 3.20085 0
M  V30 605 H 57.154 0.11686 5.02864 0
M  V30 606 H 56.854 1.77704 5.60085 0
M  V30 607 H 58.378 0.950093 6.03163 0
M  V30 608 H 59.792 2.93393 4.92538 0
M  V30 609 H 58.189 3.69936 4.72512 0
M  V30 610 H 59.259 3.53285 3.32142 0
M  V30 611 N 60.6021 -1.18246 1.0419 0
M  V30 612 C 61.8271 -1.92736 0.765996 0
M  V30 613 C 62.2521 -1.75728 -0.67091 0
M  V30 614 O 61.6101 -1.06825 -1.46486 0
M  V30 615 C 61.6581 -3.42148 1.13875 0
M  V30 616 O 60.7621 -4.11548 0.264954 0
M  V30 617 H 60.1031 -0.601238 0.281797 0
M  V30 618 H 62.6331 -1.49942 1.39207 0
M  V30 619 H 62.6431 -3.92858 1.1012 0
M  V30 620 H 61.3181 -3.53848 2.18551 0
M  V30 621 H 59.8951 -3.71137 0.362226 0
M  V30 622 N 62.0802 -0.821533 -1.34494 0
M  V30 623 C 63.3272 -0.408946 -1.98328 0
M  V30 624 C 63.6552 1.02764 -1.65136 0
M  V30 625 O 62.9102 1.73026 -0.914349 0
M  V30 626 C 63.2092 -0.556512 -3.53041 0
M  V30 627 C 62.8752 -1.95861 -4.0614 0
M  V30 628 C 61.5372 -2.34217 -4.20352 0
M  V30 629 C 63.8892 -2.87523 -4.34718 0
M  V30 630 C 61.2172 -3.63572 -4.6047 0
M  V30 631 C 63.5692 -4.1634 -4.76281 0
M  V30 632 C 62.2332 -4.54675 -4.88699 0
M  V30 633 H 61.5032 -0.149644 -0.725732 0
M  V30 634 H 64.1502 -1.04521 -1.6046 0
M  V30 635 H 62.4552 0.163148 -3.9146 0
M  V30 636 H 64.1522 -0.217826 -4.00408 0
M  V30 637 H 60.7422 -1.65066 -3.95539 0
M  V30 638 H 64.9262 -2.59133 -4.23277 0
M  V30 639 H 60.1822 -3.93101 -4.68275 0
M  V30 640 H 64.3562 -4.87455 -4.97354 0
M  V30 641 H 61.9832 -5.54959 -5.19542 0
M  V30 642 N 63.5583 1.46682 -0.576371 0
M  V30 643 C 64.7833 2.07304 -0.0630475 0
M  V30 644 C 65.2083 1.42329 1.2298 0
M  V30 645 O 64.5663 0.504865 1.74129 0
M  V30 646 C 64.6143 3.60472 0.095895 0
M  V30 647 O 63.7183 3.95927 1.15394 0
M  V30 648 H 63.0593 0.661288 -0.0599463 0
M  V30 649 H 65.5893 1.88417 -0.797511 0
M  V30 650 H 65.5993 4.06865 0.304071 0
M  V30 651 H 64.2743 4.07157 -0.84828 0
M  V30 652 H 62.8513 3.61252 0.924724 0
M  V30 653 N 65.0364 0.313813 1.54444 0
M  V30 654 C 66.2834 -0.291675 2.00388 0
M  V30 655 C 66.6114 -1.52904 1.2021 0
M  V30 656 O 65.8664 -1.93833 0.269707 0
M  V30 657 C 66.1654 -0.680386 3.50864 0
M  V30 658 C 65.8314 0.456699 4.48581 0
M  V30 659 C 64.4934 0.768824 4.75018 0
M  V30 660 C 66.8454 1.22098 5.06697 0
M  V30 661 C 64.1734 1.84812 5.56831 0
M  V30 662 C 66.5254 2.29029 5.89685 0
M  V30 663 C 65.1894 2.60834 6.14428 0
M  V30 664 H 64.4594 -0.106732 0.733273 0
M  V30 665 H 67.1064 0.43557 1.86481 0
M  V30 666 H 65.4114 -1.48791 3.62448 0
M  V30 667 H 67.1084 -1.16026 3.83847 0
M  V30 668 H 63.6984 0.203337 4.28117 0
M  V30 669 H 67.8824 0.993096 4.86263 0
M  V30 670 H 63.1384 2.09912 5.74236 0
M  V30 671 H 67.3124 2.887 6.33739 0
M  V30 672 H 64.9394 3.44596 6.77612 0
M  V30 673 N 66.5145 -1.57545 0.0417849 0
M  V30 674 C 67.7625 -1.91937 -0.632829 0
M  V30 675 C 68.0835 -0.919978 -1.71934 0
M  V30 676 O 67.3535 0.0366064 -1.95866 0
M  V30 677 H 65.9335 -0.708493 -0.236742 0
M  V30 678 H 68.5955 -1.9468 0.0925745 0
M  V30 679 H 67.6915 -2.92912 -1.07746 0
M  V30 680 N 67.9926 0.231505 -1.5589 0
M  V30 681 C 69.2696 0.981096 -1.69215 0
M  V30 682 C 69.6496 2.02799 -0.586164 0
M  V30 683 O 68.9976 2.24823 0.408253 0
M  V30 684 C 69.2076 1.60054 -3.10135 0
M  V30 685 C 70.5556 2.09658 -3.69227 0
M  V30 686 O 71.5796 1.69967 -3.13033 0
M  V30 687 O 70.4386 2.8258 -4.67772 0
M  V30 688 H 67.5326 0.457653 -0.688827 0
M  V30 689 H 70.0786 0.224073 -1.68214 0
M  V30 690 H 68.8506 0.844105 -3.82087 0
M  V30 691 H 68.4736 2.42336 -3.15212 0
M  V30 692 N 69.4707 1.49531 0.497807 0
M  V30 693 C 70.4207 1.62829 1.59596 0
M  V30 694 C 71.4047 0.483824 1.53453 0
M  V30 695 O 72.5967 0.736937 1.60929 0
M  V30 696 C 69.7257 1.7011 2.98191 0
M  V30 697 C 68.8117 2.90144 3.09317 0
M  V30 698 N 69.2027 4.1418 2.90324 0
M  V30 699 C 67.5007 2.88148 3.40422 0
M  V30 700 C 68.2017 4.94886 3.05717 0
M  V30 701 N 67.1777 4.28314 3.34736 0
M  V30 702 H 70.9797 2.56446 1.4357 0
M  V30 703 H 68.4937 1.46347 0.704001 0
M  V30 704 H 70.4907 1.77735 3.77115 0
M  V30 705 H 69.1507 0.776315 3.15283 0
M  V30 706 H 70.1617 4.44109 2.66436 0
M  V30 707 H 66.8387 2.05061 3.63671 0
M  V30 708 H 68.2287 6.03432 2.95499 0
M  V30 709 N 70.9488 -0.749086 1.3866 0
M  V30 710 C 71.8788 -1.8764 1.38973 0
M  V30 711 C 72.8598 -1.68178 0.255004 0
M  V30 712 O 74.0448 -1.88704 0.458754 0
M  V30 713 C 71.1748 -3.25222 1.21851 0
M  V30 714 C 70.1288 -3.59295 2.32575 0
M  V30 715 C 69.4548 -4.95663 2.00555 0
M  V30 716 C 70.7548 -3.63709 3.7485 0
M  V30 717 H 72.4488 -1.87635 2.3331 0
M  V30 718 H 69.9948 -0.901329 1.12303 0
M  V30 719 H 71.9478 -4.03746 1.20695 0
M  V30 720 H 70.6718 -3.25719 0.239775 0
M  V30 721 H 69.3308 -2.83093 2.32925 0
M  V30 722 H 68.9788 -4.92724 1.01154 0
M  V30 723 H 68.6788 -5.19429 2.74714 0
M  V30 724 H 70.2028 -5.7656 2.01024 0
M  V30 725 H 71.6168 -4.32338 3.76506 0
M  V30 726 H 70.0138 -3.98986 4.48252 0
M  V30 727 H 71.0838 -2.63834 4.06841 0
M  V30 728 N 72.4269 -1.23603 -0.977757 0
M  V30 729 C 73.3899 -1.02069 -2.05218 0
M  V30 730 C 74.3899 0.0184305 -1.60789 0
M  V30 731 O 75.5799 -0.221569 -1.72785 0
M  V30 732 C 72.7119 -0.544926 -3.36517 0
M  V30 733 H 73.9049 -1.9742 -2.25755 0
M  V30 734 H 71.4579 -1.05684 -1.15155 0
M  V30 735 H 72.1929 0.412241 -3.21669 0
M  V30 736 H 71.9779 -1.2948 -3.70105 0
M  V30 737 H 73.4679 -0.414985 -4.15533 0
M  V30 738 N 73.905 1.17692 -1.04816 0
M  V30 739 C 74.815 2.25229 -0.65643 0
M  V30 740 C 75.831 1.71018 0.320761 0
M  V30 741 O 77.007 2.00649 0.173805 0
M  V30 742 C 74.072 3.46684 -0.0332629 0
M  V30 743 C 73.133 4.15997 -1.06042 0
M  V30 744 C 72.366 5.31654 -0.466893 0
M  V30 745 O 72.589 5.65777 0.724758 0
M  V30 746 O 71.523 5.89831 -1.1993 0
M  V30 747 H 75.349 2.61016 -1.55255 0
M  V30 748 H 72.934 1.24919 -0.81949 0
M  V30 749 H 74.816 4.20234 0.313256 0
M  V30 750 H 73.491 3.12703 0.836566 0
M  V30 751 H 72.398 3.44482 -1.45886 0
M  V30 752 H 73.731 4.53996 -1.90127 0
M  V30 753 N 75.3831 0.828654 1.34056 0
M  V30 754 C 76.6601 0.341809 1.9259 0
M  V30 755 C 77.0401 -1.17158 1.75605 0
M  V30 756 O 76.3881 -1.98132 1.13824 0
M  V30 757 C 76.5981 0.777453 3.4023 0
M  V30 758 C 77.9461 0.779579 4.17382 0
M  V30 759 O 78.9701 0.7204 3.48839 0
M  V30 760 O 77.8291 0.857996 5.39723 0
M  V30 761 H 74.9231 0.0946085 0.821571 0
M  V30 762 H 77.4691 0.913827 1.42994 0
M  V30 763 H 76.2411 1.8196 3.46419 0
M  V30 764 H 75.8641 0.181444 3.97186 0
M  V30 765 N 76.8612 -1.46375 0.584142 0
M  V30 766 C 77.7912 -2.33103 -0.136037 0
M  V30 767 C 78.7722 -1.45431 -0.882255 0
M  V30 768 O 79.9572 -1.74246 -0.857434 0
M  V30 769 C 77.0872 -3.27731 -1.14933 0
M  V30 770 C 76.0412 -4.24855 -0.517862 0
M  V30 771 C 75.3672 -5.09001 -1.63773 0
M  V30 772 C 76.6672 -5.19439 0.545886 0
M  V30 773 H 78.3612 -2.93568 0.588086 0
M  V30 774 H 75.9072 -1.41166 0.284259 0
M  V30 775 H 77.8602 -3.87261 -1.66153 0
M  V30 776 H 76.5842 -2.65377 -1.90375 0
M  V30 777 H 75.2432 -3.6659 -0.0267361 0
M  V30 778 H 74.8912 -4.43031 -2.38185 0
M  V30 779 H 74.5912 -5.74777 -1.22085 0
M  V30 780 H 76.1152 -5.71396 -2.15266 0
M  V30 781 H 77.5292 -5.73177 0.118704 0
M  V30 782 H 75.9262 -5.93566 0.88317 0
M  V30 783 H 76.9962 -4.63285 1.43162 0
M  V30 784 N 78.3393 -0.321999 -1.54275 0
M  V30 785 C 79.5793 0.281657 -2.0245 0
M  V30 786 C 79.9433 1.49468 -1.20513 0
M  V30 787 O 81.1443 2.17109 -1.58484 0
M  V30 788 C 79.4153 0.609014 -3.52173 0
M  V30 789 S 80.9743 1.19255 -4.22284 0
M  V30 790 H 77.7923 0.0852825 -0.705867 0
M  V30 791 H 80.3943 -0.454758 -1.90137 0
M  V30 792 H 79.0983 -0.281982 -4.0943 0
M  V30 793 H 78.6293 1.37567 -3.68563 0
M  V30 794 H 80.6443 2.47944 -4.29812 0
M  V30 795 N 79.8174 1.5752 -0.0501392 0
M  V30 796 C 81.0634 1.92936 0.624798 0
M  V30 797 C 81.3964 0.928685 1.70555 0
M  V30 798 O 80.6714 -0.0454779 1.94447 0
M  V30 799 C 80.9544 3.38737 1.22185 0
M  V30 800 C 80.8074 4.49552 0.149218 0
M  V30 801 C 82.1264 3.84913 2.13378 0
M  V30 802 H 79.2454 0.701604 0.225657 0
M  V30 803 H 81.8874 1.89671 -0.111693 0
M  V30 804 H 80.0374 3.4165 1.84953 0
M  V30 805 H 81.7094 4.58768 -0.482648 0
M  V30 806 H 79.9524 4.30638 -0.522841 0
M  V30 807 H 80.6234 5.48653 0.606966 0
M  V30 808 H 83.0994 3.8387 1.60572 0
M  V30 809 H 81.9754 4.87584 2.52097 0
M  V30 810 H 82.2364 3.21611 3.03346 0
M  V30 811 N 81.2955 -0.223234 1.56011 0
M  V30 812 C 82.2275 -1.30006 1.88762 0
M  V30 813 C 83.2405 -1.43129 0.775746 0
M  V30 814 O 84.4295 -1.44057 1.05403 0
M  V30 815 C 81.5295 -2.67589 2.07965 0
M  V30 816 C 80.7025 -2.76434 3.38973 0
M  V30 817 C 79.7615 -3.95019 3.47629 0
M  V30 818 O 78.7875 -3.83436 4.20672 0
M  V30 819 N 79.9895 -5.09249 2.78649 0
M  V30 820 H 82.7545 -1.02238 2.81722 0
M  V30 821 H 80.3155 -0.413278 1.56536 0
M  V30 822 H 82.3075 -3.45297 2.11073 0
M  V30 823 H 80.8775 -2.87964 1.21638 0
M  V30 824 H 80.0975 -1.85216 3.47978 0
M  V30 825 H 81.3855 -2.79313 4.25278 0
M  V30 826 H 80.7835 -5.21556 2.19081 0
M  V30 827 H 79.3405 -5.85007 2.8742 0
M  V30 828 N 82.7736 -1.49793 -0.48987 0
M  V30 829 C 83.7366 -1.66752 -1.57246 0
M  V30 830 C 84.7366 -0.538867 -1.51502 0
M  V30 831 O 85.9266 -0.805545 -1.54456 0
M  V30 832 C 83.0586 -1.67528 -2.96896 0
M  V30 833 H 84.2516 -2.63321 -1.43534 0
M  V30 834 H 81.8046 -1.38992 -0.714914 0
M  V30 835 H 82.5396 -0.725837 -3.16073 0
M  V30 836 H 82.3246 -2.49504 -3.02473 0
M  V30 837 H 83.8146 -1.82667 -3.7553 0
M  V30 838 N 84.2517 0.741722 -1.39055 0
M  V30 839 C 85.2147 1.83733 -1.37021 0
M  V30 840 C 86.2147 1.58542 -0.268534 0
M  V30 841 O 87.4047 1.66067 -0.526076 0
M  V30 842 C 84.5367 3.2141 -1.13617 0
M  V30 843 H 85.7297 1.86941 -2.34506 0
M  V30 844 H 83.2827 0.944676 -1.24521 0
M  V30 845 H 84.0177 3.23865 -0.167863 0
M  V30 846 H 83.8027 3.4109 -1.93391 0
M  V30 847 H 85.2927 4.01477 -1.14918 0
M  V30 848 N 85.7298 1.2412 0.971189 0
M  V30 849 C 86.6768 1.0305 2.06517 0
M  V30 850 C 87.6468 -0.0550666 1.66009 0
M  V30 851 O 88.8318 0.0988688 1.90544 0
M  V30 852 C 85.9718 0.637653 3.39158 0
M  V30 853 C 85.0848 1.79633 3.92882 0
M  V30 854 C 84.2198 1.34939 5.13775 0
M  V30 855 C 83.2588 2.47823 5.59687 0
M  V30 856 N 82.3958 2.04022 6.71803 0
M  V30 857 H 87.2358 1.96685 2.23873 0
M  V30 858 H 84.7728 0.979694 1.09729 0
M  V30 859 H 86.7308 0.390931 4.15364 0
M  V30 860 H 85.3608 -0.261693 3.21737 0
M  V30 861 H 84.4128 2.15681 3.13346 0
M  V30 862 H 85.7248 2.64466 4.22918 0
M  V30 863 H 84.8788 1.06134 5.97345 0
M  V30 864 H 83.6178 0.471557 4.85415 0
M  V30 865 H 82.6228 2.77392 4.74693 0
M  V30 866 H 83.8478 3.36158 5.90063 0
M  V30 867 H 81.7938 1.18632 6.45184 0
M  V30 868 H 81.7108 2.82409 7.01271 0
M  V30 869 H 82.9788 1.78347 7.58823 0
M  V30 870 N 87.2079 -1.17134 1.05439 0
M  V30 871 C 88.1709 -2.19439 0.661764 0
M  V30 872 C 89.1709 -1.58199 -0.288042 0
M  V30 873 O 90.3609 -1.74053 -0.0715803 0
M  V30 874 C 87.4929 -3.40889 -0.0276209 0
M  V30 875 H 88.6859 -2.55688 1.56728 0
M  V30 876 H 86.2389 -1.31259 0.848567 0
M  V30 877 H 86.9739 -3.10187 -0.94629 0
M  V30 878 H 86.7589 -3.86586 0.655238 0
M  V30 879 H 88.2489 -4.16603 -0.288342 0
M  V30 880 N 88.686 -0.835752 -1.33615 0
M  V30 881 C 89.911 -0.442389 -2.02627 0
M  V30 882 C 90.336 0.947735 -1.62479 0
M  V30 883 O 89.694 1.61907 -0.815826 0
M  V30 884 C 89.742 -0.567216 -3.56111 0
M  V30 885 O 88.846 0.407799 -4.10379 0
M  V30 886 H 88.187 -0.180278 -0.639059 0
M  V30 887 H 90.717 -1.12972 -1.70583 0
M  V30 888 H 90.727 -0.447708 -4.05536 0
M  V30 889 H 89.402 -1.58103 -3.84677 0
M  V30 890 H 87.979 0.246107 -3.72087 0
M  V30 891 N 90.1641 1.46063 -0.591896 0
M  V30 892 C 91.4121 2.01938 -0.0808391 0
M  V30 893 C 91.7331 1.46475 1.28725 0
M  V30 894 O 91.0031 0.652944 1.84698 0
M  V30 895 H 89.5831 0.746516 -0.0268938 0
M  V30 896 H 92.2451 1.79055 -0.769752 0
M  V30 897 H 91.3411 3.12094 -0.0187578 0
M  V30 898 N 91.6422 0.330177 1.54103 0
M  V30 899 C 92.8912 -0.271336 1.99867 0
M  V30 900 C 93.2042 -1.52723 1.22209 0
M  V30 901 O 94.4102 -2.20515 1.58383 0
M  V30 902 C 92.8662 -0.534032 3.55916 0
M  V30 903 C 92.4742 0.705193 4.42415 0
M  V30 904 C 94.2182 -1.09514 4.1013 0
M  V30 905 C 92.1252 0.414035 5.89949 0
M  V30 906 H 91.0552 -0.105166 0.74663 0
M  V30 907 H 93.7062 0.443429 1.78062 0
M  V30 908 H 92.0882 -1.30915 3.73734 0
M  V30 909 H 93.2622 1.4804 4.36372 0
M  V30 910 H 91.5772 1.18698 3.99124 0
M  V30 911 H 94.1742 -1.3277 5.17954 0
M  V30 912 H 94.5172 -2.04656 3.62521 0
M  V30 913 H 95.0502 -0.381038 3.95971 0
M  V30 914 H 91.7892 1.33481 6.41766 0
M  V30 915 H 91.3092 -0.323336 5.98928 0
M  V30 916 H 92.9882 0.0263105 6.46995 0
M  V30 917 N 93.1203 -1.57491 0.0584922 0
M  V30 918 C 94.0503 -2.14988 -0.911178 0
M  V30 919 C 95.0313 -1.07343 -1.31952 0
M  V30 920 O 96.2163 -1.35318 -1.39294 0
M  V30 921 C 93.3463 -2.70078 -2.18347 0
M  V30 922 C 92.3003 -3.82771 -1.91495 0
M  V30 923 C 91.6263 -4.24408 -3.25241 0
M  V30 924 C 92.9263 -5.07592 -1.23075 0
M  V30 925 H 94.6203 -2.96263 -0.432246 0
M  V30 926 H 92.1663 -1.42512 -0.206469 0
M  V30 927 H 94.1193 -3.08943 -2.86587 0
M  V30 928 H 92.8433 -1.86005 -2.68458 0
M  V30 929 H 91.5023 -3.44389 -1.25664 0
M  V30 930 H 91.1503 -3.37275 -3.73168 0
M  V30 931 H 90.8503 -5.00366 -3.08071 0
M  V30 932 H 92.3743 -4.65879 -3.94701 0
M  V30 933 H 93.7883 -5.43857 -1.81362 0
M  V30 934 H 92.1853 -5.88741 -1.16207 0
M  V30 935 H 93.2553 -4.84454 -0.207847 0
M  V30 936 N 94.5984 0.214957 -1.56127 0
M  V30 937 C 96.0094 0.781386 -1.69562 0
M  V30 938 C 96.3604 1.84707 -0.66165 0
M  V30 939 O 95.4854 2.156 0.185927 0
M  V30 940 C 96.0804 1.42411 -3.07416 0
M  V30 941 C 94.6394 1.93786 -3.22683 0
M  V30 942 C 93.7864 0.800438 -2.65496 0
M  V30 943 H 96.7374 -0.00980633 -1.58697 0
M  V30 944 H 96.7584 2.29309 -3.0364 0
M  V30 945 H 96.2704 0.64826 -3.82648 0
M  V30 946 H 94.3714 2.74152 -2.52332 0
M  V30 947 H 94.4844 2.1133 -4.29973 0
M  V30 948 H 92.8484 1.2095 -2.2415 0
M  V30 949 H 93.6314 0.0371471 -3.4328 0
M  V30 950 N 96.0765 1.50051 0.48192 0
M  V30 951 C 97.3225 1.60736 1.2366 0
M  V30 952 C 97.6555 0.301786 1.91841 0
M  V30 953 O 96.9305 -0.696025 1.8162 0
M  V30 954 C 97.2135 2.78009 2.28874 0
M  V30 955 C 97.0665 4.18416 1.65069 0
M  V30 956 C 98.3855 2.90867 3.30279 0
M  V30 957 H 95.5045 0.585031 0.448228 0
M  V30 958 H 98.1465 1.82402 0.531946 0
M  V30 959 H 96.2965 2.59667 2.88973 0
M  V30 960 H 97.9685 4.48322 1.0865 0
M  V30 961 H 96.2115 4.23177 0.954148 0
M  V30 962 H 96.8825 4.96381 2.41474 0
M  V30 963 H 99.3585 3.07623 2.80191 0
M  V30 964 H 98.2345 3.74566 4.01238 0
M  V30 965 H 98.4955 2.01021 3.93755 0
M  V30 966 N 97.5546 -0.734337 1.39446 0
M  V30 967 C 98.7846 -1.52137 1.39778 0
M  V30 968 C 99.1926 -1.89198 -0.00929312 0
M  V30 969 O 98.5356 -1.54666 -0.991168 0
M  V30 970 C 98.5976 -2.83762 2.20724 0
M  V30 971 C 98.2616 -2.69131 3.69347 0
M  V30 972 C 99.2586 -2.37635 4.62413 0
M  V30 973 C 96.9436 -2.85982 4.1294 0
M  V30 974 C 98.9376 -2.23172 5.97054 0
M  V30 975 C 96.6246 -2.71137 5.47657 0
M  V30 976 C 97.6226 -2.39777 6.39528 0
M  V30 977 O 97.3106 -2.25026 7.71763 0
M  V30 978 H 97.0426 -0.476717 0.479288 0
M  V30 979 H 99.5966 -0.915012 1.83893 0
M  V30 980 H 97.8266 -3.4666 1.71359 0
M  V30 981 H 99.5156 -3.45383 2.13226 0
M  V30 982 H 100.282 -2.24267 4.30034 0
M  V30 983 H 96.1606 -3.09383 3.41765 0
M  V30 984 H 99.7046 -1.98617 6.68728 0
M  V30 985 H 95.6016 -2.84083 5.79626 0
M  V30 986 H 96.3696 -2.40091 7.82495 0
M  V30 987 N 99.0327 -1.24633 -0.964593 0
M  V30 988 C 99.9827 -1.00841 -2.04487 0
M  V30 989 C 100.967 0.0512468 -1.60818 0
M  V30 990 O 102.159 -0.162865 -1.76249 0
M  V30 991 C 99.2877 -0.618474 -3.37683 0
M  V30 992 C 98.3737 -1.71437 -3.87905 0
M  V30 993 N 98.7647 -2.9477 -4.11029 0
M  V30 994 C 97.0627 -1.5926 -4.16596 0
M  V30 995 C 97.7637 -3.65834 -4.52261 0
M  V30 996 N 96.7397 -2.9341 -4.57615 0
M  V30 997 H 100.542 -1.94487 -2.20345 0
M  V30 998 H 98.0557 -1.14805 -1.14863 0
M  V30 999 H 100.053 -0.429247 -4.14684 0
M  V30 1000 H 98.7127 0.310766 -3.23209 0
M  V30 1001 H 99.7237 -3.30917 -3.9839 0
M  V30 1002 H 96.4007 -0.731606 -4.1104 0
M  V30 1003 H 97.7907 -4.71646 -4.78539 0
M  V30 1004 N 100.511 1.16574 -1.06058 0
M  V30 1005 C 101.736 1.91493 -0.796562 0
M  V30 1006 C 102.161 1.76773 0.642868 0
M  V30 1007 O 101.519 1.09142 1.44768 0
M  V30 1008 C 101.567 3.40293 -1.19303 0
M  V30 1009 O 100.671 4.11074 -0.330394 0
M  V30 1010 H 100.012 0.596678 -0.291326 0
M  V30 1011 H 102.542 1.47708 -1.41575 0
M  V30 1012 H 102.552 3.91057 -1.16356 0
M  V30 1013 H 101.227 3.50326 -2.24153 0
M  V30 1014 H 99.8038 3.70513 -0.421225 0
M  V30 1015 N 101.989 0.842826 1.3317 0
M  V30 1016 C 102.919 0.294028 2.31641 0
M  V30 1017 C 103.9 -0.600401 1.59151 0
M  V30 1018 O 105.085 -0.523124 1.87022 0
M  V30 1019 C 102.215 -0.528416 3.43257 0
M  V30 1020 C 101.169 0.27056 4.27144 0
M  V30 1021 C 100.495 -0.675881 5.30411 0
M  V30 1022 C 101.795 1.48981 5.00602 0
M  V30 1023 H 103.489 1.11681 2.77791 0
M  V30 1024 H 101.035 0.538478 1.33553 0
M  V30 1025 H 102.988 -0.922674 4.11175 0
M  V30 1026 H 101.712 -1.38445 2.95805 0
M  V30 1027 H 100.371 0.646427 3.60856 0
M  V30 1028 H 100.019 -1.52842 4.79216 0
M  V30 1029 H 99.7189 -0.145374 5.8742 0
M  V30 1030 H 101.243 -1.06757 6.01195 0
M  V30 1031 H 102.657 1.16849 5.61266 0
M  V30 1032 H 101.054 1.95739 5.6728 0
M  V30 1033 H 102.124 2.25746 4.29147 0
M  V30 1034 N 103.467 -1.45747 0.599634 0
M  V30 1035 C 104.714 -2.02292 0.0917284 0
M  V30 1036 C 105.042 -1.46906 -1.27472 0
M  V30 1037 O 104.297 -0.630652 -1.8526 0
M  V30 1038 C 104.596 -3.57399 -0.00602758 0
M  V30 1039 C 104.262 -4.31902 1.29503 0
M  V30 1040 C 102.924 -4.51974 1.65144 0
M  V30 1041 C 105.276 -4.74551 2.15525 0
M  V30 1042 C 102.604 -5.11949 2.86574 0
M  V30 1043 C 104.956 -5.35868 3.36196 0
M  V30 1044 C 103.62 -5.54165 3.72099 0
M  V30 1045 H 102.89 -0.740239 0.0335658 0
M  V30 1046 H 105.537 -1.7491 0.779661 0
M  V30 1047 H 103.842 -3.84014 -0.777183 0
M  V30 1048 H 105.539 -3.98846 -0.415038 0
M  V30 1049 H 102.129 -4.16588 1.00761 0
M  V30 1050 H 106.313 -4.58784 1.8929 0
M  V30 1051 H 101.569 -5.24305 3.14507 0
M  V30 1052 H 105.743 -5.6787 4.03109 0
M  V30 1053 H 103.37 -6.00406 4.6628 0
M  V30 1054 N 104.945 -0.338344 -1.53925 0
M  V30 1055 C 105.908 0.508299 -2.23493 0
M  V30 1056 C 106.908 1.03175 -1.23335 0
M  V30 1057 O 108.098 0.921826 -1.47811 0
M  V30 1058 C 105.23 1.70754 -2.95052 0
M  V30 1059 H 106.423 -0.100058 -2.99733 0
M  V30 1060 H 103.976 -0.0896198 -1.56043 0
M  V30 1061 H 104.711 2.35474 -2.22986 0
M  V30 1062 H 104.496 1.33946 -3.68512 0
M  V30 1063 H 105.986 2.30818 -3.48013 0
M  V30 1064 N 106.423 1.57458 -0.0668435 0
M  V30 1065 C 107.353 2.15468 0.899764 0
M  V30 1066 C 108.334 1.08042 1.31381 0
M  V30 1067 O 109.519 1.36054 1.38574 0
M  V30 1068 C 106.649 2.71232 2.16911 0
M  V30 1069 C 105.603 3.83781 1.89463 0
M  V30 1070 C 104.929 4.26127 3.22986 0
M  V30 1071 C 106.229 5.08238 1.20381 0
M  V30 1072 H 107.923 2.96488 0.416529 0
M  V30 1073 H 105.469 1.4262 0.198908 0
M  V30 1074 H 107.422 3.10458 2.84945 0
M  V30 1075 H 106.146 1.87426 2.67468 0
M  V30 1076 H 104.805 3.45051 1.23836 0
M  V30 1077 H 104.453 3.39249 3.71374 0
M  V30 1078 H 104.153 5.01993 3.05413 0
M  V30 1079 H 105.677 4.67966 3.92225 0
M  V30 1080 H 107.091 5.44811 1.78475 0
M  V30 1081 H 105.488 5.89349 1.13083 0
M  V30 1082 H 106.558 4.84558 0.182153 0
M  V30 1083 N 107.901 -0.206675 1.56239 0
M  V30 1084 C 108.864 -1.23976 1.92776 0
M  V30 1085 C 109.864 -1.39041 0.807729 0
M  V30 1086 O 111.054 -1.37051 1.0753 0
M  V30 1087 C 108.186 -2.61112 2.19165 0
M  V30 1088 H 109.379 -0.927764 2.85189 0
M  V30 1089 H 106.932 -0.447718 1.4975 0
M  V30 1090 H 107.667 -2.97386 1.29352 0
M  V30 1091 H 107.452 -2.51552 3.00772 0
M  V30 1092 H 108.942 -3.35633 2.48476 0
M  V30 1093 N 109.379 -1.50304 -0.473955 0
M  V30 1094 C 110.607 -1.64902 -1.24959 0
M  V30 1095 C 111.022 -0.331198 -1.85872 0
M  V30 1096 O 110.379 0.68652 -1.69095 0
M  V30 1097 C 110.43 -2.73803 -2.36038 0
M  V30 1098 O 110.151 -4.00477 -1.77624 0
M  V30 1099 C 111.652 -2.99349 -3.26964 0
M  V30 1100 H 108.872 -0.554383 -0.378022 0
M  V30 1101 H 111.416 -1.9651 -0.566054 0
M  V30 1102 H 109.571 -2.44898 -3.00173 0
M  V30 1103 H 109.985 -4.60678 -2.5075 0
M  V30 1104 H 111.459 -3.79217 -4.01121 0
M  V30 1105 H 111.936 -2.10307 -3.85574 0
M  V30 1106 H 112.542 -3.29774 -2.68569 0
M  V30 1107 N 110.857 0.726932 -1.39834 0
M  V30 1108 C 111.767 1.87131 -1.41489 0
M  V30 1109 C 112.783 1.71239 -0.308757 0
M  V30 1110 O 113.959 1.93701 -0.551529 0
M  V30 1111 C 111.024 3.22811 -1.26468 0
M  V30 1112 C 110.085 3.51039 -2.47124 0
M  V30 1113 C 109.318 4.80245 -2.3281 0
M  V30 1114 O 109.541 5.54537 -1.33585 0
M  V30 1115 O 108.475 5.08554 -3.21957 0
M  V30 1116 H 112.301 1.8869 -2.3797 0
M  V30 1117 H 109.886 0.875837 -1.21035 0
M  V30 1118 H 111.768 4.03877 -1.20255 0
M  V30 1119 H 110.443 3.22005 -0.330862 0
M  V30 1120 H 109.35 2.70027 -2.58914 0
M  V30 1121 H 110.683 3.56632 -3.39227 0
M  V30 1122 N 112.336 1.25143 0.95797 0
M  V30 1123 C 113.613 1.00472 1.67823 0
M  V30 1124 C 113.993 -0.470056 2.058 0
M  V30 1125 O 113.341 -1.44663 1.76875 0
M  V30 1126 C 113.551 1.9372 2.90299 0
M  V30 1127 C 114.899 2.21371 3.62326 0
M  V30 1128 O 115.923 1.91451 3.00375 0
M  V30 1129 O 114.782 2.72231 4.7387 0
M  V30 1130 H 111.876 0.380752 0.734137 0
M  V30 1131 H 114.422 1.36283 1.01119 0
M  V30 1132 H 113.194 2.93316 2.59001 0
M  V30 1133 H 112.817 1.58286 3.64735 0
M  V30 1134 N 113.814 -1.1601 1.06675 0
M  V30 1135 C 114.744 -2.22688 0.702307 0
M  V30 1136 C 115.725 -1.67306 -0.307032 0
M  V30 1137 O 116.91 -1.93352 -0.181305 0
M  V30 1138 C 114.04 -3.47178 0.092038 0
M  V30 1139 C 112.994 -4.15477 1.02777 0
M  V30 1140 C 112.32 -5.33963 0.28061 0
M  V30 1141 C 113.62 -4.66019 2.35846 0
M  V30 1142 H 115.314 -2.53429 1.59419 0
M  V30 1143 H 112.86 -1.21813 0.767961 0
M  V30 1144 H 114.813 -4.21037 -0.174814 0
M  V30 1145 H 113.537 -3.15749 -0.834877 0
M  V30 1146 H 112.196 -3.43549 1.27944 0
M  V30 1147 H 111.844 -4.98788 -0.649545 0
M  V30 1148 H 111.544 -5.806 0.904258 0
M  V30 1149 H 113.068 -6.10596 0.021396 0
M  V30 1150 H 114.482 -5.3144 2.15045 0
M  V30 1151 H 112.879 -5.23293 2.93743 0
M  V30 1152 H 113.949 -3.82023 2.98641 0
M  V30 1153 N 115.292 -0.849877 -1.32721 0
M  V30 1154 C 116.517 -0.463856 -2.02146 0
M  V30 1155 C 116.942 0.930449 -1.63476 0
M  V30 1156 O 116.3 1.61033 -0.832952 0
M  V30 1157 C 116.348 -0.604955 -3.55489 0
M  V30 1158 O 115.452 0.36425 -4.10788 0
M  V30 1159 H 114.793 -0.187046 -0.637111 0
M  V30 1160 H 117.323 -1.14775 -1.69375 0
M  V30 1161 H 117.333 -0.490696 -4.05038 0
M  V30 1162 H 116.008 -1.62174 -3.82978 0
M  V30 1163 H 114.585 0.206628 -3.72327 0
M  V30 1164 N 116.77 1.45427 -0.607355 0
M  V30 1165 C 118.01 2.04128 -0.105458 0
M  V30 1166 C 118.374 1.46555 1.24039 0
M  V30 1167 O 119.575 1.96608 1.833 0
M  V30 1168 C 117.846 3.57338 -0.0665324 0
M  V30 1169 S 119.405 4.37201 0.374207 0
M  V30 1170 H 116.223 0.709278 -0.0494575 0
M  V30 1171 H 118.825 1.78139 -0.805404 0
M  V30 1172 H 117.529 3.96752 -1.04957 0
M  V30 1173 H 117.06 3.87902 0.655415 0
M  V30 1174 H 119.075 4.6888 1.62377 0
M  V30 1175 N 118.248 0.346503 1.53744 0
M  V30 1176 C 119.494 -0.242135 2.01954 0
M  V30 1177 C 119.849 -1.47962 1.22984 0
M  V30 1178 O 119.142 -1.89077 0.309924 0
M  V30 1179 C 119.336 -0.605809 3.52228 0
M  V30 1180 C 119.165 0.594882 4.45748 0
M  V30 1181 C 117.935 1.1011 4.93157 0
M  V30 1182 C 120.133 1.45425 4.93311 0
M  V30 1183 N 118.115 2.26381 5.70636 0
M  V30 1184 C 119.486 2.46383 5.68942 0
M  V30 1185 C 121.541 1.47935 4.75415 0
M  V30 1186 C 120.244 3.49684 6.28581 0
M  V30 1187 C 122.27 2.50119 5.35905 0
M  V30 1188 C 121.632 3.49803 6.11406 0
M  V30 1189 H 117.731 -0.0518296 0.780281 0
M  V30 1190 H 120.315 0.486736 1.88518 0
M  V30 1191 H 118.486 -1.30378 3.65864 0
M  V30 1192 H 120.218 -1.17789 3.87179 0
M  V30 1193 H 116.973 0.668721 4.68855 0
M  V30 1194 H 117.397 2.85094 6.14044 0
M  V30 1195 H 122.039 0.722274 4.16585 0
M  V30 1196 H 119.757 4.26285 6.86518 0
M  V30 1197 H 123.343 2.52892 5.23963 0
M  V30 1198 H 122.223 4.27576 6.5738 0
M  V30 1199 N 119.726 -1.57421 0.075193 0
M  V30 1200 C 120.973 -1.93618 -0.593146 0
M  V30 1201 C 121.301 -0.955484 -1.69413 0
M  V30 1202 O 120.556 0.0283251 -1.9568 0
M  V30 1203 C 120.855 -3.36428 -1.20626 0
M  V30 1204 C 120.521 -4.50307 -0.231078 0
M  V30 1205 C 119.183 -4.81186 0.0371936 0
M  V30 1206 C 121.535 -5.19374 0.435888 0
M  V30 1207 C 118.863 -5.78466 0.979461 0
M  V30 1208 C 121.215 -6.17665 1.3665 0
M  V30 1209 C 119.879 -6.46958 1.6432 0
M  V30 1210 H 119.149 -0.708499 -0.217047 0
M  V30 1211 H 121.796 -1.90937 0.146793 0
M  V30 1212 H 120.101 -3.35592 -2.02201 0
M  V30 1213 H 121.798 -3.61727 -1.73073 0
M  V30 1214 H 118.388 -4.26227 -0.450357 0
M  V30 1215 H 122.572 -4.95711 0.241748 0
M  V30 1216 H 117.828 -5.99487 1.20106 0
M  V30 1217 H 122.002 -6.70284 1.88924 0
M  V30 1218 H 119.629 -7.2215 2.37494 0
M  V30 1219 N 121.204 0.198386 -1.56346 0
M  V30 1220 C 122.615 0.763358 -1.70381 0
M  V30 1221 C 122.966 1.83995 -0.681203 0
M  V30 1222 O 122.091 2.15785 0.16305 0
M  V30 1223 C 122.686 1.39143 -3.08909 0
M  V30 1224 C 121.245 1.90352 -3.2472 0
M  V30 1225 C 120.392 0.772233 -2.6633 0
M  V30 1226 H 123.343 -0.0266377 -1.58678 0
M  V30 1227 H 123.364 2.26076 -3.06055 0
M  V30 1228 H 122.876 0.607638 -3.83314 0
M  V30 1229 H 120.977 2.71461 -2.55225 0
M  V30 1230 H 121.09 2.06757 -4.3219 0
M  V30 1231 H 119.454 1.18566 -2.2542 0
M  V30 1232 H 120.237 0.00073556 -3.433 0
M  V30 1233 N 122.682 1.50554 0.465978 0
M  V30 1234 C 124.093 1.54599 1.04671 0
M  V30 1235 C 124.444 0.352488 1.93008 0
M  V30 1236 O 123.569 -0.534044 2.09707 0
M  V30 1237 C 124.164 2.80166 1.90505 0
M  V30 1238 C 122.723 2.86876 2.43678 0
M  V30 1239 C 121.87 2.48947 1.22151 0
M  V30 1240 H 124.821 1.56744 0.248384 0
M  V30 1241 H 124.842 2.62311 2.75633 0
M  V30 1242 H 124.354 3.67013 1.26186 0
M  V30 1243 H 122.455 2.04393 3.11536 0
M  V30 1244 H 122.568 3.89885 2.78436 0
M  V30 1245 H 120.932 2.01498 1.5579 0
M  V30 1246 H 121.715 3.38107 0.594866 0
M  V30 1247 N 124.16 -0.719506 1.40217 0
M  V30 1248 C 125.385 -1.51371 1.4178 0
M  V30 1249 C 125.81 -1.88091 0.0182355 0
M  V30 1250 O 125.168 -1.52997 -0.972707 0
M  V30 1251 C 125.216 -2.768 2.31115 0
M  V30 1252 O 124.32 -3.73349 1.7517 0
M  V30 1253 H 123.661 -0.456529 0.482159 0
M  V30 1254 H 126.191 -0.88644 1.844 0
M  V30 1255 H 126.201 -3.25371 2.46167 0
M  V30 1256 H 124.876 -2.49407 3.3282 0
M  V30 1257 H 123.453 -3.32179 1.69444 0
M  V30 1258 N 125.638 -1.25649 -0.95132 0
M  V30 1259 C 126.588 -1.03004 -2.03406 0
M  V30 1260 C 127.572 0.034187 -1.60864 0
M  V30 1261 O 128.764 -0.181549 -1.76066 0
M  V30 1262 C 125.893 -0.654255 -3.37008 0
M  V30 1263 C 124.979 -1.75542 -3.86065 0
M  V30 1264 N 125.37 -2.99113 -4.07879 0
M  V30 1265 C 123.668 -1.63669 -4.14884 0
M  V30 1266 C 124.369 -3.70611 -4.48356 0
M  V30 1267 N 123.345 -2.98247 -4.54477 0
M  V30 1268 H 127.147 -1.96813 -2.1827 0
M  V30 1269 H 124.661 -1.16017 -1.13639 0
M  V30 1270 H 126.658 -0.473206 -4.14206 0
M  V30 1271 H 125.318 0.276468 -3.23521 0
M  V30 1272 H 126.329 -3.35124 -3.94857 0
M  V30 1273 H 123.006 -0.775161 -4.10241 0
M  V30 1274 H 124.396 -4.76695 -4.73509 0
M  V30 1275 N 127.117 1.15442 -1.07289 0
M  V30 1276 C 128.366 1.85557 -0.790669 0
M  V30 1277 C 128.679 1.83186 0.685739 0
M  V30 1278 O 129.885 2.48977 1.0827 0
M  V30 1279 C 128.341 3.33038 -1.36433 0
M  V30 1280 C 127.949 3.43856 -2.8717 0
M  V30 1281 C 129.693 4.0834 -1.1601 0
M  V30 1282 C 127.6 4.85482 -3.3773 0
M  V30 1283 H 126.53 0.695122 -0.292098 0
M  V30 1284 H 129.181 1.30219 -1.29287 0
M  V30 1285 H 127.563 3.88043 -0.789864 0
M  V30 1286 H 128.737 2.98961 -3.50655 0
M  V30 1287 H 127.052 2.81998 -3.06376 0
M  V30 1288 H 129.649 5.12859 -1.51262 0
M  V30 1289 H 129.992 4.16182 -0.0991007 0
M  V30 1290 H 130.525 3.59603 -1.70089 0
M  V30 1291 H 127.264 4.82823 -4.43353 0
M  V30 1292 H 126.784 5.30961 -2.78999 0
M  V30 1293 H 128.463 5.54335 -3.33648 0
M  V30 1294 N 128.595 0.856903 1.32268 0
M  V30 1295 C 129.842 0.461386 1.97174 0
M  V30 1296 C 130.17 -0.983491 1.67803 0
M  V30 1297 O 129.425 -1.70541 0.959903 0
M  V30 1298 C 129.724 0.649919 3.51441 0
M  V30 1299 C 129.39 2.0656 4.00804 0
M  V30 1300 C 128.052 2.45279 4.13995 0
M  V30 1301 C 130.404 2.98947 4.26943 0
M  V30 1302 C 127.732 3.75653 4.50668 0
M  V30 1303 C 130.084 4.28822 4.65075 0
M  V30 1304 C 128.748 4.67472 4.76472 0
M  V30 1305 H 128.018 0.168833 0.72151 0
M  V30 1306 H 130.665 1.08739 1.57633 0
M  V30 1307 H 128.97 -0.0593018 3.91755 0
M  V30 1308 H 130.667 0.32391 3.9969 0
M  V30 1309 H 127.257 1.75495 3.91024 0
M  V30 1310 H 131.441 2.70265 4.16258 0
M  V30 1311 H 126.697 4.05379 4.57688 0
M  V30 1312 H 130.871 5.0047 4.84255 0
M  V30 1313 H 128.498 5.68539 5.04646 0
M  V30 1314 N 130.073 -1.45103 0.615059 0
M  V30 1315 C 131.298 -2.07064 0.117988 0
M  V30 1316 C 131.723 -1.4554 -1.19163 0
M  V30 1317 O 131.081 -0.550855 -1.72729 0
M  V30 1318 C 131.129 -3.606 -0.000288387 0
M  V30 1319 O 130.233 -3.98847 -1.04856 0
M  V30 1320 H 129.574 -0.659467 0.0774581 0
M  V30 1321 H 132.104 -1.86236 0.847186 0
M  V30 1322 H 132.114 -4.07529 -0.196091 0
M  V30 1323 H 130.789 -4.04765 0.955932 0
M  V30 1324 H 129.366 -3.63577 -0.828619 0
M  V30 1325 N 131.551 -0.354651 -1.53558 0
M  V30 1326 C 132.797 0.238797 -2.01389 0
M  V30 1327 C 133.13 1.49309 -1.2418 0
M  V30 1328 O 132.405 1.91638 -0.332457 0
M  V30 1329 C 132.688 0.541771 -3.56001 0
M  V30 1330 C 132.541 -0.725388 -4.43912 0
M  V30 1331 C 133.86 1.34685 -4.18984 0
M  V30 1332 H 130.979 0.0853177 -0.732045 0
M  V30 1333 H 133.621 -0.477384 -1.83905 0
M  V30 1334 H 131.771 1.15189 -3.71031 0
M  V30 1335 H 133.443 -1.36313 -4.407 0
M  V30 1336 H 131.686 -1.34801 -4.12324 0
M  V30 1337 H 132.357 -0.468505 -5.50008 0
M  V30 1338 H 134.833 0.830837 -4.07721 0
M  V30 1339 H 133.709 1.52759 -5.27215 0
M  V30 1340 H 133.97 2.35221 -3.74331 0
M  V30 1341 N 133.029 1.57378 -0.0835403 0
M  V30 1342 C 133.939 2.16897 0.894021 0
M  V30 1343 C 134.955 1.13528 1.31861 0
M  V30 1344 O 136.131 1.45848 1.3889 0
M  V30 1345 C 133.196 2.72831 2.13925 0
M  V30 1346 C 132.257 3.91115 1.76997 0
M  V30 1347 C 131.49 4.44371 2.95584 0
M  V30 1348 O 131.713 3.96596 4.09961 0
M  V30 1349 O 130.647 5.35549 2.74719 0
M  V30 1350 H 134.473 3.00814 0.417679 0
M  V30 1351 H 132.058 1.48741 0.140181 0
M  V30 1352 H 133.94 3.0863 2.86924 0
M  V30 1353 H 132.615 1.91967 2.60635 0
M  V30 1354 H 131.522 3.60148 1.01214 0
M  V30 1355 H 132.855 4.73307 1.3506 0
M  V30 1356 N 134.507 -0.190092 1.56449 0
M  V30 1357 C 135.784 -0.935886 1.71757 0
M  V30 1358 C 136.164 -2.01173 0.639726 0
M  V30 1359 O 135.512 -2.25827 -0.348502 0
M  V30 1360 C 135.722 -1.51775 3.1427 0
M  V30 1361 C 137.07 -1.99794 3.74656 0
M  V30 1362 O 138.094 -1.61607 3.1743 0
M  V30 1363 O 136.953 -2.70079 4.751 0
M  V30 1364 H 134.047 -0.439229 0.700719 0
M  V30 1365 H 136.593 -0.179395 1.68749 0
M  V30 1366 H 135.365 -0.742505 3.84191 0
M  V30 1367 H 134.988 -2.33894 3.21527 0
M  V30 1368 N 135.985 -1.50799 -0.457987 0
M  V30 1369 C 136.948 -1.7005 -1.53674 0
M  V30 1370 C 137.948 -0.570881 -1.50325 0
M  V30 1371 O 139.138 -0.838126 -1.52712 0
M  V30 1372 C 136.27 -1.73788 -2.93276 0
M  V30 1373 H 137.463 -2.66306 -1.37917 0
M  V30 1374 H 135.016 -1.40477 -0.685271 0
M  V30 1375 H 135.751 -0.792717 -3.14462 0
M  V30 1376 H 135.536 -2.55864 -2.97113 0
M  V30 1377 H 137.026 -1.90591 -3.71571 0
M  V30 1378 N 137.463 0.71206 -1.40597 0
M  V30 1379 C 138.688 1.50617 -1.42581 0
M  V30 1380 C 139.113 1.88079 -0.0282102 0
M  V30 1381 O 138.471 1.53511 0.964579 0
M  V30 1382 C 138.519 2.7557 -2.3258 0
M  V30 1383 O 137.623 3.72414 -1.77148 0
M  V30 1384 H 136.964 0.453966 -0.484573 0
M  V30 1385 H 139.494 0.876649 -1.84868 0
M  V30 1386 H 139.504 3.2406 -2.47889 0
M  V30 1387 H 138.179 2.47639 -3.34138 0
M  V30 1388 H 136.756 3.31276 -1.71204 0
M  V30 1389 N 138.941 1.26152 0.944643 0
M  V30 1390 C 140.169 1.14259 1.72489 0
M  V30 1391 C 140.584 -0.302555 1.8636 0
M  V30 1392 O 139.941 -1.20741 1.36849 0
M  V30 1393 C 139.992 1.80266 3.13347 0
M  V30 1394 O 139.713 3.19133 3.00143 0
M  V30 1395 C 141.214 1.74283 4.07603 0
M  V30 1396 H 138.434 0.398051 0.540181 0
M  V30 1397 H 140.978 1.66706 1.18446 0
M  V30 1398 H 139.133 1.31766 3.64303 0
M  V30 1399 H 139.547 3.51744 3.89071 0
M  V30 1400 H 141.021 2.25111 5.04013 0
M  V30 1401 H 141.498 0.708631 4.33446 0
M  V30 1402 H 142.104 2.22319 3.62567 0
M  V30 1403 N 140.419 -1.14872 1.07899 0
M  V30 1404 C 141.351 -2.19425 0.662231 0
M  V30 1405 C 142.364 -1.60231 -0.288079 0
M  V30 1406 O 143.553 -1.78336 -0.076534 0
M  V30 1407 C 140.653 -3.38867 -0.0470695 0
M  V30 1408 C 139.826 -4.27597 0.920831 0
M  V30 1409 C 138.885 -5.25616 0.247805 0
M  V30 1410 O 137.911 -5.62189 0.890599 0
M  V30 1411 N 139.113 -5.71746 -1.00435 0
M  V30 1412 H 141.878 -2.55797 1.56166 0
M  V30 1413 H 139.439 -1.30042 0.964404 0
M  V30 1414 H 141.431 -4.01497 -0.50813 0
M  V30 1415 H 140.001 -3.00864 -0.848523 0
M  V30 1416 H 139.221 -3.61982 1.56087 0
M  V30 1417 H 140.509 -4.83748 1.57688 0
M  V30 1418 H 139.907 -5.44153 -1.54642 0
M  V30 1419 H 138.464 -6.36389 -1.40899 0
M  V30 1420 N 141.898 -0.863906 -1.31812 0
M  V30 1421 C 143.144 -0.472535 -1.97218 0
M  V30 1422 C 143.477 0.971394 -1.68159 0
M  V30 1423 O 142.752 1.68309 -0.974798 0
M  V30 1424 C 143.035 -0.723054 -3.52766 0
M  V30 1425 C 142.888 -2.21608 -3.91421 0
M  V30 1426 C 144.207 -0.185522 -4.39709 0
M  V30 1427 H 141.326 -0.173158 -0.71637 0
M  V30 1428 H 143.968 -1.08403 -1.56041 0
M  V30 1429 H 142.118 -0.202577 -3.87971 0
M  V30 1430 H 143.79 -2.80334 -3.66347 0
M  V30 1431 H 142.033 -2.691 -3.40246 0
M  V30 1432 H 142.704 -2.34203 -4.99853 0
M  V30 1433 H 145.18 -0.630726 -4.11292 0
M  V30 1434 H 144.056 -0.390306 -5.47511 0
M  V30 1435 H 144.317 0.912229 -4.32586 0
M  V30 1436 N 143.376 1.44774 -0.622745 0
M  V30 1437 C 144.306 2.33382 0.0741861 0
M  V30 1438 C 145.287 1.47719 0.843387 0
M  V30 1439 O 146.472 1.76458 0.810934 0
M  V30 1440 C 143.602 3.30663 1.06204 0
M  V30 1441 C 142.556 4.26079 0.405037 0
M  V30 1442 C 141.882 5.13165 1.5022 0
M  V30 1443 C 143.182 5.1781 -0.683414 0
M  V30 1444 H 144.876 2.91905 -0.665713 0
M  V30 1445 H 142.422 1.40363 -0.321587 0
M  V30 1446 H 144.375 3.9153 1.55827 0
M  V30 1447 H 143.099 2.70331 1.83272 0
M  V30 1448 H 141.758 3.66532 -0.0704683 0
M  V30 1449 H 141.406 4.49191 2.26355 0
M  V30 1450 H 141.106 5.77812 1.06803 0
M  V30 1451 H 142.63 5.76902 2.00041 0
M  V30 1452 H 144.044 5.72661 -0.270631 0
M  V30 1453 H 142.441 5.91015 -1.04023 0
M  V30 1454 H 143.511 4.59326 -1.55395 0
M  V30 1455 N 144.854 0.36279 1.53368 0
M  V30 1456 C 145.784 -0.476976 2.28576 0
M  V30 1457 C 146.765 -1.08631 1.30894 0
M  V30 1458 O 147.95 -1.10409 1.59761 0
M  V30 1459 C 145.08 -1.61828 3.07293 0
M  V30 1460 C 144.034 -1.13633 4.1264 0
M  V30 1461 C 143.36 -2.36766 4.79423 0
M  V30 1462 C 144.66 -0.223061 5.21823 0
M  V30 1463 H 146.354 0.150474 2.99022 0
M  V30 1464 H 143.9 0.0738103 1.43811 0
M  V30 1465 H 145.853 -2.21237 3.58653 0
M  V30 1466 H 144.577 -2.27292 2.34533 0
M  V30 1467 H 143.236 -0.564945 3.62221 0
M  V30 1468 H 142.884 -3.0068 4.03238 0
M  V30 1469 H 142.584 -2.05192 5.50609 0
M  V30 1470 H 144.108 -2.96865 5.33576 0
M  V30 1471 H 145.522 -0.724545 5.68703 0
M  V30 1472 H 143.919 0.001678 6.001 0
M  V30 1473 H 144.989 0.735553 4.79289 0
M  V30 1474 N 146.332 -1.57332 0.0918853 0
M  V30 1475 C 147.562 -1.98286 -0.580205 0
M  V30 1476 C 147.97 -0.969713 -1.6246 0
M  V30 1477 O 147.313 0.0493501 -1.83634 0
M  V30 1478 C 147.375 -3.35603 -1.28882 0
M  V30 1479 C 147.039 -4.55285 -0.395559 0
M  V30 1480 C 148.036 -5.18687 0.355002 0
M  V30 1481 C 145.721 -5.01314 -0.314556 0
M  V30 1482 C 147.715 -6.26484 1.17458 0
M  V30 1483 C 145.402 -6.08979 0.508677 0
M  V30 1484 C 146.4 -6.71429 1.2519 0
M  V30 1485 O 146.088 -7.77018 2.06151 0
M  V30 1486 H 145.82 -0.656678 -0.160466 0
M  V30 1487 H 148.374 -2.04721 0.16688 0
M  V30 1488 H 146.604 -3.25842 -2.08241 0
M  V30 1489 H 148.293 -3.61026 -1.85512 0
M  V30 1490 H 149.059 -4.84058 0.302134 0
M  V30 1491 H 144.938 -4.5247 -0.882697 0
M  V30 1492 H 148.482 -6.75159 1.75518 0
M  V30 1493 H 144.379 -6.4304 0.563037 0
M  V30 1494 H 145.147 -7.93991 1.98799 0
M  V30 1495 N 147.81 0.181792 -1.56548 0
M  V30 1496 C 149.226 0.53316 -1.50431 0
M  V30 1497 C 149.426 1.85184 -0.794297 0
M  V30 1498 O 148.482 2.50058 -0.350318 0
M  V30 1499 C 149.795 0.575597 -2.9514 0
M  V30 1500 C 151.343 0.663519 -3.05886 0
M  V30 1501 C 151.818 0.736946 -4.52032 0
M  V30 1502 N 153.309 0.800118 -4.56237 0
M  V30 1503 C 154.044 0.877327 -5.66649 0
M  V30 1504 N 153.54 0.916016 -6.86718 0
M  V30 1505 N 155.333 0.915542 -5.54594 0
M  V30 1506 H 147.484 -0.683025 -2.01118 0
M  V30 1507 H 149.747 -0.244988 -0.915797 0
M  V30 1508 H 149.453 -0.324482 -3.502 0
M  V30 1509 H 149.327 1.42572 -3.49218 0
M  V30 1510 H 151.714 1.55403 -2.50867 0
M  V30 1511 H 151.795 -0.21307 -2.54911 0
M  V30 1512 H 151.439 -0.149262 -5.07681 0
M  V30 1513 H 151.369 1.62953 -5.00753 0
M  V30 1514 H 153.86 0.778926 -3.69785 0
M  V30 1515 H 154.173 0.975813 -7.66614 0
M  V30 1516 H 152.518 0.884469 -6.89349 0
M  V30 1517 H 155.709 0.882245 -4.59711 0
M  V30 1518 H 155.882 0.972253 -6.40665 0
M  V30 1519 N 149.288 1.51039 0.449983 0
M  V30 1520 C 150.537 1.62317 1.19733 0
M  V30 1521 C 150.85 0.339101 1.92638 0
M  V30 1522 O 152.056 0.331069 2.69474 0
M  V30 1523 C 150.512 2.86608 2.17678 0
M  V30 1524 C 150.12 4.21972 1.50479 0
M  V30 1525 C 151.864 3.07239 2.92924 0
M  V30 1526 C 149.771 5.37426 2.46834 0
M  V30 1527 H 148.701 0.604532 0.450619 0
M  V30 1528 H 151.352 1.77494 0.465625 0
M  V30 1529 H 149.734 2.65037 2.94231 0
M  V30 1530 H 150.908 4.53878 0.795716 0
M  V30 1531 H 149.223 4.07117 0.874344 0
M  V30 1532 H 151.82 3.90668 3.65079 0
M  V30 1533 H 152.163 2.19807 3.5354 0
M  V30 1534 H 152.696 3.29091 2.23481 0
M  V30 1535 H 149.435 6.27079 1.90926 0
M  V30 1536 H 148.955 5.09912 3.15832 0
M  V30 1537 H 150.634 5.68862 3.08228 0
M  V30 1538 N 150.766 -0.704594 1.40972 0
M  V30 1539 C 152.182 -1.01406 1.23244 0
M  V30 1540 C 152.382 -2.01169 0.115399 0
M  V30 1541 O 151.438 -2.47021 -0.523147 0
M  V30 1542 C 152.751 -1.54728 2.57836 0
M  V30 1543 C 154.299 -1.66658 2.64942 0
M  V30 1544 C 154.774 -2.23383 3.9983 0
M  V30 1545 N 156.265 -2.30756 4.01629 0
M  V30 1546 C 157 -2.75655 5.02794 0
M  V30 1547 N 156.496 -3.20225 6.14352 0
M  V30 1548 N 158.289 -2.75138 4.90159 0
M  V30 1549 H 150.44 -0.0435285 2.12355 0
M  V30 1550 H 152.703 -0.0818951 0.944456 0
M  V30 1551 H 152.409 -0.888832 3.40283 0
M  V30 1552 H 152.283 -2.53084 2.79693 0
M  V30 1553 H 154.67 -2.31617 1.8286 0
M  V30 1554 H 154.751 -0.668717 2.46904 0
M  V30 1555 H 154.395 -1.59043 4.82357 0
M  V30 1556 H 154.325 -3.23904 4.15203 0
M  V30 1557 H 156.816 -1.99291 3.21079 0
M  V30 1558 H 157.129 -3.53084 6.87424 0
M  V30 1559 H 155.474 -3.18156 6.17901 0
M  V30 1560 H 158.665 -2.39661 4.02095 0
M  V30 1561 H 158.838 -3.09812 5.6914 0
M  V30 1562 N 152.244 -1.26651 -0.937939 0
M  V30 1563 C 153.491 -1.12387 -1.6845 0
M  V30 1564 C 153.819 0.332208 -1.91642 0
M  V30 1565 O 153.074 1.2602 -1.49725 0
M  V30 1566 C 153.373 -1.84168 -3.06295 0
M  V30 1567 C 153.039 -3.34056 -3.02849 0
M  V30 1568 C 151.701 -3.74942 -3.01616 0
M  V30 1569 C 154.053 -4.29741 -2.9491 0
M  V30 1570 C 151.381 -5.09894 -2.90215 0
M  V30 1571 C 153.733 -5.64738 -2.8505 0
M  V30 1572 C 152.397 -6.0493 -2.82162 0
M  V30 1573 H 151.667 -0.411252 -0.616403 0
M  V30 1574 H 154.314 -1.57134 -1.09459 0
M  V30 1575 H 152.619 -1.319 -3.6893 0
M  V30 1576 H 154.316 -1.70569 -3.62915 0
M  V30 1577 H 150.906 -3.01534 -3.0459 0
M  V30 1578 H 155.09 -3.99133 -2.94969 0
M  V30 1579 H 150.346 -5.40194 -2.86358 0
M  V30 1580 H 154.52 -6.38561 -2.77872 0
M  V30 1581 H 152.147 -7.09457 -2.73084 0
M  V30 1582 N 153.722 1.14298 -1.08507 0
M  V30 1583 C 154.952 1.88945 -0.835663 0
M  V30 1584 C 155.36 1.78894 0.615928 0
M  V30 1585 O 154.703 1.1468 1.43506 0
M  V30 1586 C 154.765 3.39585 -1.17994 0
M  V30 1587 C 154.429 3.7342 -2.63451 0
M  V30 1588 C 155.426 3.73454 -3.61702 0
M  V30 1589 C 153.111 4.03368 -2.99332 0
M  V30 1590 C 155.105 4.02961 -4.93864 0
M  V30 1591 C 152.792 4.32538 -4.31687 0
M  V30 1592 C 153.79 4.32318 -5.28763 0
M  V30 1593 O 153.478 4.6078 -6.58739 0
M  V30 1594 H 153.21 0.605307 -0.300965 0
M  V30 1595 H 155.764 1.45673 -1.44806 0
M  V30 1596 H 153.994 3.83315 -0.51055 0
M  V30 1597 H 155.683 3.9554 -0.911182 0
M  V30 1598 H 156.449 3.50403 -3.35325 0
M  V30 1599 H 152.328 4.02692 -2.24411 0
M  V30 1600 H 155.872 4.02704 -5.69627 0
M  V30 1601 H 151.769 4.55059 -4.57812 0
M  V30 1602 H 152.537 4.78492 -6.64069 0
M  V30 1603 N 155.201 0.870884 1.31352 0
M  V30 1604 C 156.448 0.482273 1.96673 0
M  V30 1605 C 156.776 -0.965638 1.68836 0
M  V30 1606 O 156.031 -1.69514 0.977937 0
M  V30 1607 C 156.33 0.687157 3.50732 0
M  V30 1608 C 155.996 2.108 3.9859 0
M  V30 1609 C 154.658 2.49656 4.1137 0
M  V30 1610 C 157.01 3.03459 4.23748 0
M  V30 1611 C 154.338 3.80412 4.46659 0
M  V30 1612 C 156.69 4.3373 4.60501 0
M  V30 1613 C 155.354 4.725 4.71487 0
M  V30 1614 H 154.624 0.176476 0.719679 0
M  V30 1615 H 157.271 1.10405 1.56471 0
M  V30 1616 H 155.576 -0.0177476 3.91796 0
M  V30 1617 H 157.273 0.366284 3.99324 0
M  V30 1618 H 153.863 1.79633 3.8914 0
M  V30 1619 H 158.047 2.74665 4.13368 0
M  V30 1620 H 153.303 4.1021 4.53362 0
M  V30 1621 H 157.477 5.05578 4.78919 0
M  V30 1622 H 155.104 5.73859 4.98588 0
M  V30 1623 N 156.679 -1.44442 0.630414 0
M  V30 1624 C 158.09 -1.85434 0.217063 0
M  V30 1625 C 158.441 -1.52748 -1.23136 0
M  V30 1626 O 157.566 -0.965205 -1.93682 0
M  V30 1627 C 158.161 -3.36581 0.387168 0
M  V30 1628 C 156.72 -3.76389 0.0283297 0
M  V30 1629 C 155.867 -2.68296 0.700889 0
M  V30 1630 H 158.818 -1.34919 0.83562 0
M  V30 1631 H 158.839 -3.78657 -0.374086 0
M  V30 1632 H 158.351 -3.60339 1.44144 0
M  V30 1633 H 156.452 -3.58246 -1.02423 0
M  V30 1634 H 156.565 -4.77095 0.437892 0
M  V30 1635 H 154.929 -2.54335 0.136267 0
M  V30 1636 H 155.712 -2.94887 1.75774 0
M  V30 1637 N 158.157 -0.370918 -1.53173 0
M  V30 1638 C 159.105 0.488101 -2.27421 0
M  V30 1639 C 160.099 1.07884 -1.30604 0
M  V30 1640 O 161.305 1.02143 -1.48212 0
M  V30 1641 H 157.68 0.176134 -0.731082 0
M  V30 1642 H 159.651 -0.159815 -2.97972 0
M  V30 1643 C 158.4 1.61306 -3.08019 0
M  V30 1644 H 157.723 1.1678 -3.82364 0
M  V30 1645 H 159.163 2.18872 -3.63141 0
M  V30 1646 C 157.622 2.55848 -2.19188 0
M  V30 1647 O 158.152 3.58799 -1.80626 0
M  V30 1648 N 156.358 2.2516 -1.83715 0
M  V30 1649 H 155.905 1.41476 -2.15273 0
M  V30 1650 H 155.863 2.8867 -1.24567 0
M  V30 1651 N 159.635 1.57281 -0.100228 0
M  V30 1652 C 160.881 1.95626 0.556946 0
M  V30 1653 C 161.236 0.981655 1.65473 0
M  V30 1654 O 160.529 0.00849847 1.91598 0
M  V30 1655 C 160.723 3.38305 1.15259 0
M  V30 1656 C 160.552 4.49555 0.114035 0
M  V30 1657 C 159.322 5.0434 -0.311266 0
M  V30 1658 C 161.52 5.10051 -0.659768 0
M  V30 1659 N 159.502 5.99152 -1.33755 0
M  V30 1660 C 160.873 6.00628 -1.53774 0
M  V30 1661 C 162.928 4.92772 -0.712723 0
M  V30 1662 C 161.631 6.7578 -2.46403 0
M  V30 1663 C 163.657 5.6859 -1.62663 0
M  V30 1664 C 163.019 6.58838 -2.49222 0
M  V30 1665 H 159.118 0.7624 0.173982 0
M  V30 1666 H 161.702 1.93829 -0.183988 0
M  V30 1667 H 159.873 3.40786 1.86332 0
M  V30 1668 H 161.605 3.63817 1.77254 0
M  V30 1669 H 158.36 4.73537 0.0774812 0
M  V30 1670 H 158.784 6.5126 -1.84905 0
M  V30 1671 H 163.426 4.22761 -0.0576648 0
M  V30 1672 H 161.144 7.4505 -3.12931 0
M  V30 1673 H 164.73 5.57233 -1.67281 0
M  V30 1674 H 163.61 7.16479 -3.18791 0
M  V30 1675 N 161.113 -0.173488 1.56642 0
M  V30 1676 C 162.36 -0.890465 1.81871 0
M  V30 1677 C 162.688 -1.82339 0.67696 0
M  V30 1678 O 161.943 -1.92795 -0.335926 0
M  V30 1679 C 162.242 -1.72069 3.13252 0
M  V30 1680 C 161.908 -0.936878 4.41059 0
M  V30 1681 C 160.57 -0.720545 4.75775 0
M  V30 1682 C 162.922 -0.386919 5.19762 0
M  V30 1683 C 160.25 0.0568829 5.86672 0
M  V30 1684 C 162.602 0.37741 6.31473 0
M  V30 1685 C 161.266 0.604563 6.64757 0
M  V30 1686 H 160.536 -0.325844 0.665512 0
M  V30 1687 H 163.183 -0.155527 1.90867 0
M  V30 1688 H 161.488 -2.52496 2.99588 0
M  V30 1689 H 163.185 -2.27844 3.29982 0
M  V30 1690 H 159.775 -1.11553 4.13828 0
M  V30 1691 H 163.959 -0.541398 4.93338 0
M  V30 1692 H 159.215 0.242635 6.10918 0
M  V30 1693 H 163.389 0.810825 6.91664 0
M  V30 1694 H 161.016 1.20885 7.50527 0
M  V30 1695 N 162.591 -1.51276 -0.441967 0
M  V30 1696 C 163.839 -1.63392 -1.18943 0
M  V30 1697 C 164.16 -0.350159 -1.9183 0
M  V30 1698 O 163.43 0.633784 -1.85364 0
M  V30 1699 H 162.01 -0.602164 -0.442049 0
M  V30 1700 H 164.672 -1.88186 -0.507165 0
M  V30 1701 H 163.768 -2.45934 -1.92154 0
M  V30 1702 N 164.069 0.697108 -1.41344 0
M  V30 1703 C 164.999 1.82353 -1.45841 0
M  V30 1704 C 165.98 1.67115 -0.317247 0
M  V30 1705 O 167.165 1.86871 -0.528474 0
M  V30 1706 C 164.295 3.20476 -1.33838 0
M  V30 1707 C 163.249 3.50415 -2.4575 0
M  V30 1708 C 162.575 4.87878 -2.18813 0
M  V30 1709 C 163.875 3.49546 -3.88091 0
M  V30 1710 H 165.569 1.78846 -2.40113 0
M  V30 1711 H 163.115 0.859028 -1.15571 0
M  V30 1712 H 165.068 3.98988 -1.35596 0
M  V30 1713 H 163.792 3.24604 -0.360498 0
M  V30 1714 H 162.451 2.74253 -2.43271 0
M  V30 1715 H 162.099 4.8863 -1.19371 0
M  V30 1716 H 161.799 5.08875 -2.93803 0
M  V30 1717 H 163.323 5.68702 -2.22284 0
M  V30 1718 H 164.737 4.18066 -3.92293 0
M  V30 1719 H 163.134 3.82075 -4.62751 0
M  V30 1720 H 164.204 2.48552 -4.16353 0
M  V30 1721 N 165.547 1.27147 0.931209 0
M  V30 1722 C 166.457 1.11372 2.06478 0
M  V30 1723 C 167.473 0.044645 1.73943 0
M  V30 1724 O 168.649 0.250417 1.99837 0
M  V30 1725 C 165.714 0.758838 3.38294 0
M  V30 1726 C 164.775 1.90841 3.84549 0
M  V30 1727 C 164.008 1.57036 5.10074 0
M  V30 1728 O 164.231 0.476645 5.68405 0
M  V30 1729 O 163.165 2.40839 5.51616 0
M  V30 1730 H 166.991 2.06493 2.22698 0
M  V30 1731 H 164.576 1.06301 1.04978 0
M  V30 1732 H 166.458 0.574098 4.17471 0
M  V30 1733 H 165.133 -0.162879 3.2329 0
M  V30 1734 H 164.04 2.14819 3.06274 0
M  V30 1735 H 165.373 2.81021 4.04089 0
M  V30 1736 N 167.025 -1.13721 1.09112 0
M  V30 1737 C 167.972 -2.19031 0.727591 0
M  V30 1738 C 168.942 -1.63555 -0.289656 0
M  V30 1739 O 170.127 -1.90023 -0.172026 0
M  V30 1740 C 167.267 -3.4477 0.15082 0
M  V30 1741 C 166.38 -4.14365 1.22172 0
M  V30 1742 C 165.515 -5.27709 0.608042 0
M  V30 1743 C 164.554 -5.89147 1.66047 0
M  V30 1744 N 163.691 -6.93929 1.06806 0
M  V30 1745 H 168.531 -2.49475 1.62991 0
M  V30 1746 H 166.068 -1.22499 0.81439 0
M  V30 1747 H 168.026 -4.16714 -0.201358 0
M  V30 1748 H 166.656 -3.14787 -0.714783 0
M  V30 1749 H 165.708 -3.40737 1.69122 0
M  V30 1750 H 167.02 -4.56114 2.01895 0
M  V30 1751 H 166.174 -6.06355 0.204523 0
M  V30 1752 H 164.913 -4.872 -0.220769 0
M  V30 1753 H 163.918 -5.09198 2.07357 0
M  V30 1754 H 165.143 -6.31729 2.49189 0
M  V30 1755 H 163.089 -6.55483 0.260476 0
M  V30 1756 H 163.006 -7.34202 1.8023 0
M  V30 1757 H 164.274 -7.76434 0.690644 0
M  V30 1758 N 168.503 -0.877838 -1.30888 0
M  V30 1759 C 169.743 -0.499301 -1.98208 0
M  V30 1760 C 170.107 0.932649 -1.67826 0
M  V30 1761 O 171.308 1.41694 -2.28421 0
M  V30 1762 C 169.579 -0.758221 -3.49265 0
M  V30 1763 S 171.138 -0.480719 -4.36159 0
M  V30 1764 H 167.956 -0.186062 -0.686223 0
M  V30 1765 H 170.558 -1.13556 -1.59139 0
M  V30 1766 H 169.262 -1.79903 -3.68867 0
M  V30 1767 H 168.793 -0.109247 -3.93248 0
M  V30 1768 H 170.808 0.683698 -4.91467 0
M  V30 1769 N 169.982 1.44106 -0.638065 0
M  V30 1770 C 170.932 2.27843 0.0847285 0
M  V30 1771 C 171.916 1.39055 0.809471 0
M  V30 1772 O 173.108 1.62808 0.694435 0
M  V30 1773 C 170.237 3.26497 1.06089 0
M  V30 1774 C 169.323 4.22772 0.33541 0
M  V30 1775 N 169.714 5.01737 -0.639787 0
M  V30 1776 C 168.012 4.42227 0.578921 0
M  V30 1777 C 168.713 5.71792 -1.06904 0
M  V30 1778 N 167.689 5.42079 -0.406395 0
M  V30 1779 H 171.491 2.86305 -0.663814 0
M  V30 1780 H 169.005 1.55627 -0.464122 0
M  V30 1781 H 171.002 3.8525 1.59337 0
M  V30 1782 H 169.662 2.69595 1.80966 0
M  V30 1783 H 170.673 5.07799 -1.01789 0
M  V30 1784 H 167.35 3.96415 1.31003 0
M  V30 1785 H 168.74 6.45205 -1.8751 0
M  V30 1786 N 171.46 0.379036 1.52974 0
M  V30 1787 C 172.876 0.0285448 1.59574 0
M  V30 1788 C 173.076 -1.45542 1.39355 0
M  V30 1789 O 172.132 -2.2187 1.20541 0
M  V30 1790 C 173.445 0.496535 2.96572 0
M  V30 1791 C 174.993 0.451909 3.0972 0
M  V30 1792 C 175.468 0.895924 4.49152 0
M  V30 1793 N 176.959 0.851522 4.55306 0
M  V30 1794 C 177.694 1.16661 5.61407 0
M  V30 1795 N 177.19 1.55166 6.752 0
M  V30 1796 N 178.983 1.08853 5.51459 0
M  V30 1797 H 171.134 1.34525 1.64367 0
M  V30 1798 H 173.397 0.550733 0.771619 0
M  V30 1799 H 173.103 1.53258 3.16552 0
M  V30 1800 H 172.977 -0.109802 3.7704 0
M  V30 1801 H 175.364 -0.575029 2.89443 0
M  V30 1802 H 175.445 1.09392 2.3123 0
M  V30 1803 H 175.089 1.92104 4.70168 0
M  V30 1804 H 175.019 0.23103 5.26093 0
M  V30 1805 H 177.51 0.568038 3.73606 0
M  V30 1806 H 177.823 1.776 7.52116 0
M  V30 1807 H 176.168 1.59044 6.76557 0
M  V30 1808 H 179.359 0.786803 4.6144 0
M  V30 1809 H 179.532 1.33742 6.34048 0
M  V30 1810 N 172.938 -1.57226 0.108567 0
M  V30 1811 C 174.185 -1.94833 -0.551943 0
M  V30 1812 C 174.513 -0.991204 -1.67348 0
M  V30 1813 O 173.768 -0.0131878 -1.95696 0
M  V30 1814 C 174.067 -3.38911 -1.13463 0
M  V30 1815 C 173.733 -4.50696 -0.135509 0
M  V30 1816 C 172.395 -4.80998 0.139252 0
M  V30 1817 C 174.747 -5.18333 0.545957 0
M  V30 1818 C 172.075 -5.76259 1.10194 0
M  V30 1819 C 174.427 -6.14627 1.49721 0
M  V30 1820 C 173.091 -6.43327 1.78006 0
M  V30 1821 H 172.361 -0.712944 -0.20197 0
M  V30 1822 H 175.008 -1.90582 0.18726 0
M  V30 1823 H 173.313 -3.39805 -1.95037 0
M  V30 1824 H 175.01 -3.65317 -1.65362 0
M  V30 1825 H 171.6 -4.27087 -0.359846 0
M  V30 1826 H 175.784 -4.95087 0.346842 0
M  V30 1827 H 171.04 -5.96804 1.32795 0
M  V30 1828 H 175.214 -6.66126 2.03099 0
M  V30 1829 H 172.841 -7.1695 2.52759 0
M  V30 1830 N 174.416 0.165178 -1.56732 0
M  V30 1831 C 175.664 0.879068 -1.8198 0
M  V30 1832 C 175.985 1.82514 -0.686561 0
M  V30 1833 O 175.255 1.93694 0.293146 0
M  V30 1834 H 173.835 0.327608 -0.671329 0
M  V30 1835 H 176.497 0.163526 -1.94213 0
M  V30 1836 H 175.593 1.45228 -2.76252 0
M  V30 1837 N 175.894 1.51508 0.433938 0
M  V30 1838 C 176.824 1.76016 1.53429 0
M  V30 1839 C 177.805 0.610112 1.58782 0
M  V30 1840 O 178.99 0.853177 1.74455 0
M  V30 1841 C 176.12 1.88831 2.9148 0
M  V30 1842 C 175.074 3.04288 3.00987 0
M  V30 1843 C 174.4 3.0229 4.4105 0
M  V30 1844 C 175.7 4.44193 2.74754 0
M  V30 1845 H 177.394 2.68152 1.33171 0
M  V30 1846 H 174.94 1.29035 0.639214 0
M  V30 1847 H 176.893 2.04559 3.6842 0
M  V30 1848 H 175.617 0.933455 3.12976 0
M  V30 1849 H 174.276 2.8827 2.26486 0
M  V30 1850 H 173.924 2.04576 4.59519 0
M  V30 1851 H 173.624 3.79822 4.4834 0
M  V30 1852 H 175.148 3.20116 5.1996 0
M  V30 1853 H 176.562 4.60544 3.41426 0
M  V30 1854 H 174.959 5.23457 2.9345 0
M  V30 1855 H 176.029 4.53996 1.70339 0
M  V30 1856 N 177.372 -0.689602 1.41712 0
M  V30 1857 C 178.788 -1.00093 1.24312 0
M  V30 1858 C 178.988 -2.01036 0.136729 0
M  V30 1859 O 178.044 -2.47562 -0.496918 0
M  V30 1860 C 179.357 -1.51985 2.59463 0
M  V30 1861 C 180.905 -1.63838 2.66695 0
M  V30 1862 C 181.38 -2.1913 4.02177 0
M  V30 1863 N 182.871 -2.26483 4.04054 0
M  V30 1864 C 183.606 -2.70306 5.0569 0
M  V30 1865 N 183.102 -3.13691 6.17713 0
M  V30 1866 N 184.895 -2.69923 4.9305 0
M  V30 1867 H 177.046 -0.0210029 2.1239 0
M  V30 1868 H 179.309 -0.0718733 0.945272 0
M  V30 1869 H 179.015 -0.85269 3.41207 0
M  V30 1870 H 178.889 -2.50103 2.82362 0
M  V30 1871 H 181.276 -2.29664 1.85306 0
M  V30 1872 H 181.357 -0.642492 2.476 0
M  V30 1873 H 181.001 -1.53918 4.84016 0
M  V30 1874 H 180.931 -3.19482 4.18615 0
M  V30 1875 H 183.422 -1.95874 3.23174 0
M  V30 1876 H 183.735 -3.45773 6.9113 0
M  V30 1877 H 182.08 -3.11585 6.21241 0
M  V30 1878 H 185.271 -2.35382 4.04614 0
M  V30 1879 H 185.444 -3.03758 5.72394 0
M  V30 1880 N 178.85 -1.27639 -0.924453 0
M  V30 1881 C 179.797 -1.10644 -2.0255 0
M  V30 1882 C 180.767 -0.00658438 -1.66099 0
M  V30 1883 O 181.952 -0.16952 -1.90045 0
M  V30 1884 C 179.092 -0.76309 -3.36557 0
M  V30 1885 C 178.205 -1.94091 -3.85944 0
M  V30 1886 C 177.34 -1.53914 -5.08413 0
M  V30 1887 C 176.379 -2.68425 -5.50104 0
M  V30 1888 N 175.516 -2.28815 -6.63768 0
M  V30 1889 H 180.356 -2.04858 -2.16419 0
M  V30 1890 H 177.893 -1.01974 -1.06017 0
M  V30 1891 H 179.851 -0.544822 -4.13627 0
M  V30 1892 H 178.481 0.142102 -3.22487 0
M  V30 1893 H 177.533 -2.27162 -3.05125 0
M  V30 1894 H 178.845 -2.7998 -4.12811 0
M  V30 1895 H 177.999 -1.28231 -5.92994 0
M  V30 1896 H 176.738 -0.651391 -4.8333 0
M  V30 1897 H 175.743 -2.94819 -4.64071 0
M  V30 1898 H 176.968 -3.57826 -5.7718 0
M  V30 1899 H 174.914 -1.42495 -6.40337 0
M  V30 1900 H 174.831 -3.08242 -6.90306 0
M  V30 1901 H 176.099 -2.06387 -7.51681 0
M  V30 1902 N 180.328 1.1314 -1.09713 0
M  V30 1903 C 181.605 1.80762 -0.747302 0
M  V30 1904 C 181.985 1.96663 0.767265 0
M  V30 1905 O 181.333 1.53706 1.69076 0
M  V30 1906 C 181.543 3.15606 -1.48975 0
M  V30 1907 C 182.891 3.90914 -1.65746 0
M  V30 1908 O 183.915 3.25239 -1.45251 0
M  V30 1909 O 182.774 5.08718 -1.9967 0
M  V30 1910 H 179.868 0.782103 -0.268782 0
M  V30 1911 H 182.414 1.20041 -1.19951 0
M  V30 1912 H 181.186 2.99278 -2.52088 0
M  V30 1913 H 180.809 3.84029 -1.02991 0
M  V30 1914 N 181.806 0.884767 1.30421 0
M  V30 1915 C 182.736 0.367574 2.30589 0
M  V30 1916 C 183.717 -0.549464 1.60981 0
M  V30 1917 O 184.902 -0.46336 1.88591 0
M  V30 1918 C 182.032 -0.418944 3.44764 0
M  V30 1919 C 180.986 0.406316 4.26067 0
M  V30 1920 C 180.312 -0.506793 5.32293 0
M  V30 1921 C 181.612 1.64832 4.95608 0
M  V30 1922 H 183.306 1.20462 2.74097 0
M  V30 1923 H 180.852 0.580695 1.31772 0
M  V30 1924 H 182.805 -0.791395 4.13902 0
M  V30 1925 H 181.529 -1.28964 3.0006 0
M  V30 1926 H 180.188 0.760903 3.58617 0
M  V30 1927 H 179.836 -1.37519 4.83836 0
M  V30 1928 H 179.536 0.0415828 5.87585 0
M  V30 1929 H 181.06 -0.875764 6.04287 0
M  V30 1930 H 182.474 1.34646 5.57264 0
M  V30 1931 H 180.871 2.13688 5.60765 0
M  V30 1932 H 181.941 2.39284 4.21748 0
M  V30 1933 N 183.284 -1.43765 0.645699 0
M  V30 1934 C 184.247 -2.29163 -0.0409488 0
M  V30 1935 C 185.247 -1.41813 -0.757996 0
M  V30 1936 O 186.437 -1.63527 -0.600382 0
M  V30 1937 C 183.569 -3.23716 -1.06869 0
M  V30 1938 H 184.762 -2.91366 0.710345 0
M  V30 1939 H 182.315 -1.5092 0.406547 0
M  V30 1940 H 183.05 -2.66393 -1.84947 0
M  V30 1941 H 182.835 -3.88105 -0.558277 0
M  V30 1942 H 184.325 -3.87831 -1.54845 0
M  V30 1943 N 184.763 -0.387143 -1.52771 0
M  V30 1944 C 185.988 0.198407 -2.06449 0
M  V30 1945 C 186.413 1.39918 -1.25716 0
M  V30 1946 O 185.771 1.79099 -0.281657 0
M  V30 1947 C 185.819 0.548893 -3.56398 0
M  V30 1948 O 184.923 1.64315 -3.78252 0
M  V30 1949 H 184.264 0.0237731 -0.663574 0
M  V30 1950 H 186.794 -0.553989 -1.96957 0
M  V30 1951 H 186.804 0.813812 -3.99801 0
M  V30 1952 H 185.479 -0.329005 -4.14597 0
M  V30 1953 H 184.056 1.37211 -3.46738 0
M  V30 1954 N 186.241 1.57166 -0.116904 0
M  V30 1955 C 187.204 2.14039 0.819742 0
M  V30 1956 C 188.204 1.07477 1.19605 0
M  V30 1957 O 189.394 1.33263 1.1219 0
M  V30 1958 C 186.526 2.67891 2.10826 0
M  V30 1959 H 187.719 2.98128 0.325511 0
M  V30 1960 H 185.272 1.55739 0.132312 0
M  V30 1961 H 186.007 1.87384 2.64685 0
M  V30 1962 H 185.792 3.45823 1.84793 0
M  V30 1963 H 187.282 3.11809 2.77785 0
M  V30 1964 N 187.719 -0.156864 1.56817 0
M  V30 1965 C 188.968 -0.869504 1.81996 0
M  V30 1966 C 189.281 -1.82777 0.696545 0
M  V30 1967 O 190.487 -2.58384 0.833658 0
M  V30 1968 C 188.943 -1.59679 3.22538 0
M  V30 1969 C 188.551 -0.681431 4.42787 0
M  V30 1970 C 190.295 -2.2968 3.56997 0
M  V30 1971 C 188.202 -1.40978 5.74351 0
M  V30 1972 H 187.132 -0.328438 0.678708 0
M  V30 1973 H 189.783 -0.1223 1.83092 0
M  V30 1974 H 188.165 -2.38927 3.158 0
M  V30 1975 H 189.339 0.0751166 4.60739 0
M  V30 1976 H 187.654 -0.0903431 4.16302 0
M  V30 1977 H 190.251 -2.84794 4.52544 0
M  V30 1978 H 190.594 -3.05707 2.82576 0
M  V30 1979 H 191.127 -1.57361 3.65352 0
M  V30 1980 H 187.866 -0.691561 6.51842 0
M  V30 1981 H 187.386 -2.13929 5.60352 0
M  V30 1982 H 189.065 -1.95337 6.16808 0
M  V30 1983 N 189.197 -1.51736 -0.425897 0
M  V30 1984 C 190.127 -1.76827 -1.52494 0
M  V30 1985 C 191.108 -0.618524 -1.58456 0
M  V30 1986 O 192.293 -0.862416 -1.74 0
M  V30 1987 C 189.423 -1.90374 -2.90474 0
M  V30 1988 C 188.377 -3.0588 -2.99369 0
M  V30 1989 C 187.703 -3.04625 -4.3944 0
M  V30 1990 C 189.003 -4.45644 -2.72394 0
M  V30 1991 H 190.697 -2.68855 -1.31748 0
M  V30 1992 H 188.243 -1.29372 -0.632362 0
M  V30 1993 H 190.196 -2.0651 -3.6733 0
M  V30 1994 H 188.92 -0.95004 -3.12477 0
M  V30 1995 H 187.579 -2.89467 -2.24954 0
M  V30 1996 H 187.227 -2.0701 -4.58428 0
M  V30 1997 H 186.927 -3.82195 -4.46319 0
M  V30 1998 H 188.451 -3.22869 -5.18255 0
M  V30 1999 H 189.865 -4.62348 -3.38979 0
M  V30 2000 H 188.262 -5.25006 -2.9067 0
M  V30 2001 H 189.332 -4.54893 -1.67929 0
M  V30 2002 N 190.675 0.682077 -1.42076 0
M  V30 2003 C 191.952 1.43755 -1.32642 0
M  V30 2004 C 192.332 2.11063 0.0396611 0
M  V30 2005 O 191.68 2.02701 1.05474 0
M  V30 2006 C 191.89 2.44596 -2.48946 0
M  V30 2007 C 193.238 3.09454 -2.9073 0
M  V30 2008 O 194.262 2.54922 -2.48783 0
M  V30 2009 O 193.121 4.08253 -3.63307 0
M  V30 2010 H 190.215 0.640857 -0.522715 0
M  V30 2011 H 192.761 0.711415 -1.54068 0
M  V30 2012 H 191.533 1.93609 -3.40046 0
M  V30 2013 H 191.156 3.24701 -2.29467 0
M  V30 2014 N 192.153 1.28127 0.917671 0
M  V30 2015 C 193.083 1.14248 2.03641 0
M  V30 2016 C 194.064 0.0412748 1.7005 0
M  V30 2017 O 195.249 0.217566 1.92977 0
M  V30 2018 C 192.379 0.799431 3.37974 0
M  V30 2019 C 191.333 1.85497 3.85713 0
M  V30 2020 C 190.659 1.36565 5.16966 0
M  V30 2021 C 191.959 3.26085 4.08002 0
M  V30 2022 H 193.653 2.07835 2.15511 0
M  V30 2023 H 191.199 1.00064 1.03553 0
M  V30 2024 H 193.152 0.689114 4.15727 0
M  V30 2025 H 191.876 -0.172145 3.26146 0
M  V30 2026 H 190.535 1.95437 3.10161 0
M  V30 2027 H 190.183 0.383253 5.01538 0
M  V30 2028 H 189.883 2.07143 5.49878 0
M  V30 2029 H 191.407 1.26848 5.97279 0
M  V30 2030 H 192.821 3.19089 4.76293 0
M  V30 2031 H 191.218 3.94462 4.52238 0
M  V30 2032 H 192.288 3.70394 3.12948 0
M  V30 2033 N 193.631 -1.12557 1.10312 0
M  V30 2034 C 195.042 -1.65574 0.862678 0
M  V30 2035 C 195.393 -1.86566 -0.607256 0
M  V30 2036 O 194.518 -1.59121 -1.46662 0
M  V30 2037 C 195.113 -3.00776 1.55947 0
M  V30 2038 C 193.672 -3.50748 1.36576 0
M  V30 2039 C 192.819 -2.25797 1.60968 0
M  V30 2040 H 195.77 -0.963552 1.26101 0
M  V30 2041 H 195.791 -3.67185 0.997753 0
M  V30 2042 H 195.303 -2.85465 2.62928 0
M  V30 2043 H 193.404 -3.71245 0.317531 0
M  V30 2044 H 193.517 -4.30289 2.10686 0
M  V30 2045 H 191.881 -2.32841 1.03234 0
M  V30 2046 H 192.664 -2.13043 2.69198 0
M  V30 2047 N 195.109 -0.891671 -1.2995 0
M  V30 2048 C 196.355 -0.514261 -1.96171 0
M  V30 2049 C 196.688 0.935506 -1.70182 0
M  V30 2050 O 195.963 1.66204 -1.01028 0
M  V30 2051 C 196.246 -0.797719 -3.51153 0
M  V30 2052 C 196.099 -2.2986 -3.86632 0
M  V30 2053 C 197.418 -0.278749 -4.39216 0
M  V30 2054 H 194.537 -0.188314 -0.712535 0
M  V30 2055 H 197.179 -1.11689 -1.53706 0
M  V30 2056 H 195.329 -0.284826 -3.87455 0
M  V30 2057 H 197.001 -2.88042 -3.60319 0
M  V30 2058 H 195.244 -2.76257 -3.34462 0
M  V30 2059 H 195.915 -2.44753 -4.94773 0
M  V30 2060 H 198.391 -0.717825 -4.09862 0
M  V30 2061 H 197.267 -0.506353 -5.46559 0
M  V30 2062 H 197.528 0.820266 -4.34424 0
M  V30 2063 N 196.587 1.43421 -0.653314 0
M  V30 2064 C 197.517 2.33487 0.0246656 0
M  V30 2065 C 198.498 1.49475 0.811863 0
M  V30 2066 O 199.683 1.78139 0.773322 0
M  V30 2067 C 196.813 3.32841 0.99166 0
M  V30 2068 C 195.767 4.26842 0.314568 0
M  V30 2069 C 195.093 5.16236 1.39302 0
M  V30 2070 C 196.393 5.16243 -0.793095 0
M  V30 2071 H 198.087 2.90427 -0.727481 0
M  V30 2072 H 195.633 1.39649 -0.351287 0
M  V30 2073 H 197.586 3.94747 1.47487 0
M  V30 2074 H 196.31 2.74158 1.77497 0
M  V30 2075 H 194.969 3.663 -0.148199 0
M  V30 2076 H 194.617 4.53891 2.16776 0
M  V30 2077 H 194.317 5.79948 0.945223 0
M  V30 2078 H 195.841 5.81015 1.87759 0
M  V30 2079 H 197.255 5.71958 -0.392039 0
M  V30 2080 H 195.652 5.88676 -1.16536 0
M  V30 2081 H 196.722 4.55927 -1.65103 0
M  V30 2082 N 198.065 0.39524 1.52563 0
M  V30 2083 C 198.975 -0.444232 2.30356 0
M  V30 2084 C 199.991 -1.06615 1.37511 0
M  V30 2085 O 201.167 -1.07067 1.70583 0
M  V30 2086 C 198.232 -1.55315 3.09964 0
M  V30 2087 C 197.293 -0.955734 4.18526 0
M  V30 2088 C 196.526 -2.01181 4.9433 0
M  V30 2089 O 196.749 -3.22781 4.70285 0
M  V30 2090 O 195.683 -1.62579 5.79527 0
M  V30 2091 H 199.509 0.189667 3.03107 0
M  V30 2092 H 197.094 0.1588 1.48554 0
M  V30 2093 H 198.976 -2.19724 3.59582 0
M  V30 2094 H 197.651 -2.17191 2.4002 0
M  V30 2095 H 196.558 -0.274743 3.7309 0
M  V30 2096 H 197.891 -0.381109 4.90722 0
M  V30 2097 N 199.544 -1.57102 0.125237 0
M  V30 2098 C 200.494 -2.12202 -0.833936 0
M  V30 2099 C 201.478 -1.04433 -1.22403 0
M  V30 2100 O 202.67 -1.30655 -1.19408 0
M  V30 2101 C 199.799 -2.72994 -2.08157 0
M  V30 2102 C 198.885 -3.87852 -1.71556 0
M  V30 2103 N 199.276 -4.9464 -1.05662 0
M  V30 2104 C 197.574 -3.98153 -2.00973 0
M  V30 2105 C 198.275 -5.74953 -0.883376 0
M  V30 2106 N 197.251 -5.24985 -1.41036 0
M  V30 2107 H 201.053 -2.92141 -0.321035 0
M  V30 2108 H 198.567 -1.62217 -0.0770315 0
M  V30 2109 H 200.564 -3.10816 -2.77847 0
M  V30 2110 H 199.224 -1.9452 -2.59985 0
M  V30 2111 H 200.235 -5.12872 -0.719878 0
M  V30 2112 H 196.912 -3.30728 -2.54804 0
M  V30 2113 H 198.302 -6.70904 -0.365675 0
M  V30 2114 N 201.022 0.148545 -1.56898 0
M  V30 2115 C 201.952 1.18524 -2.01182 0
M  V30 2116 C 202.933 1.4489 -0.891123 0
M  V30 2117 O 204.118 1.55836 -1.15882 0
M  V30 2118 C 201.248 2.51879 -2.39112 0
M  V30 2119 C 200.202 2.40038 -3.54353 0
M  V30 2120 C 199.528 3.78089 -3.78091 0
M  V30 2121 C 200.828 1.88577 -4.87069 0
M  V30 2122 H 202.522 0.817029 -2.88036 0
M  V30 2123 H 200.068 0.391575 -1.38574 0
M  V30 2124 H 202.021 3.24627 -2.68692 0
M  V30 2125 H 200.745 2.90532 -1.49193 0
M  V30 2126 H 199.404 1.69742 -3.24936 0
M  V30 2127 H 199.052 4.14175 -2.85426 0
M  V30 2128 H 198.752 3.71028 -4.55645 0
M  V30 2129 H 200.276 4.52387 -4.10095 0
M  V30 2130 H 201.69 2.51117 -5.15377 0
M  V30 2131 H 200.087 1.9241 -5.68417 0
M  V30 2132 H 201.157 0.84136 -4.77545 0
M  V30 2133 N 202.5 1.5196 0.417844 0
M  V30 2134 C 203.747 1.65591 1.16559 0
M  V30 2135 C 204.075 0.381565 1.90721 0
M  V30 2136 O 203.33 -0.635156 1.85106 0
M  V30 2137 C 203.629 2.82269 2.19223 0
M  V30 2138 C 203.295 4.20819 1.61933 0
M  V30 2139 C 201.957 4.58506 1.46033 0
M  V30 2140 C 204.309 5.07196 1.20008 0
M  V30 2141 C 201.637 5.80257 0.867113 0
M  V30 2142 C 203.989 6.29544 0.621086 0
M  V30 2143 C 202.653 6.65987 0.449144 0
M  V30 2144 H 201.923 0.605939 0.42652 0
M  V30 2145 H 204.57 1.86041 0.45397 0
M  V30 2146 H 202.875 2.56118 2.96498 0
M  V30 2147 H 204.572 2.90012 2.76936 0
M  V30 2148 H 201.162 3.91116 1.7529 0
M  V30 2149 H 205.346 4.7867 1.31105 0
M  V30 2150 H 200.602 6.07124 0.721833 0
M  V30 2151 H 204.776 6.95805 0.287798 0
M  V30 2152 H 202.403 7.60199 -0.012632 0
M  V30 2153 N 203.978 -0.674533 1.42435 0
M  V30 2154 C 204.941 -1.76986 1.45632 0
M  V30 2155 C 205.941 -1.5708 0.343871 0
M  V30 2156 O 207.131 -1.63367 0.604709 0
M  V30 2157 C 204.263 -3.15623 1.28822 0
M  V30 2158 H 205.456 -1.75539 2.43158 0
M  V30 2159 H 203.009 -0.884189 1.28887 0
M  V30 2160 H 203.744 -3.22696 0.322193 0
M  V30 2161 H 203.529 -3.31475 2.09444 0
M  V30 2162 H 205.019 -3.95537 1.33942 0
M  V30 2163 N 205.456 -1.28612 -0.910864 0
M  V30 2164 C 206.388 -1.08589 -2.01844 0
M  V30 2165 C 207.401 -0.0367419 -1.62759 0
M  V30 2166 O 208.59 -0.280101 -1.76289 0
M  V30 2167 C 205.69 -0.628626 -3.33019 0
M  V30 2168 C 204.863 -1.75382 -4.00699 0
M  V30 2169 C 203.922 -1.28945 -5.10156 0
M  V30 2170 O 202.948 -1.9922 -5.33198 0
M  V30 2171 N 204.15 -0.154224 -5.80295 0
M  V30 2172 H 206.915 -2.03973 -2.19579 0
M  V30 2173 H 204.476 -1.20403 -1.08234 0
M  V30 2174 H 206.468 -0.301508 -4.03575 0
M  V30 2175 H 205.038 0.232451 -3.11735 0
M  V30 2176 H 204.258 -2.25039 -3.23653 0
M  V30 2177 H 205.546 -2.50854 -4.42662 0
M  V30 2178 H 204.944 0.43194 -5.64049 0
M  V30 2179 H 203.501 0.113599 -6.51701 0
M  V30 2180 N 206.934 1.1197 -1.10907 0
M  V30 2181 C 207.884 2.15946 -0.731538 0
M  V30 2182 C 208.868 1.58758 0.261699 0
M  V30 2183 O 210.06 1.76863 0.0696722 0
M  V30 2184 C 207.189 3.42877 -0.170299 0
M  V30 2185 C 206.275 4.07037 -1.19087 0
M  V30 2186 N 206.666 4.46135 -2.38322 0
M  V30 2187 C 204.964 4.33884 -1.03252 0
M  V30 2188 C 205.665 4.96331 -3.03366 0
M  V30 2189 N 204.641 4.9214 -2.30865 0
M  V30 2190 H 208.443 2.43947 -1.63912 0
M  V30 2191 H 205.957 1.28927 -0.987505 0
M  V30 2192 H 207.954 4.16732 0.118271 0
M  V30 2193 H 206.614 3.16343 0.731935 0
M  V30 2194 H 207.625 4.38345 -2.75815 0
M  V30 2195 H 204.302 4.17084 -0.186256 0
M  V30 2196 H 205.692 5.36257 -4.04818 0
M  V30 2197 N 208.412 0.89855 1.29475 0
M  V30 2198 C 209.828 0.594483 1.48115 0
M  V30 2199 C 210.028 -0.86431 1.82022 0
M  V30 2200 O 209.084 -1.64457 1.91599 0
M  V30 2201 C 210.397 1.51932 2.59494 0
M  V30 2202 C 211.945 1.5244 2.7337 0
M  V30 2203 C 212.42 2.43548 3.87877 0
M  V30 2204 N 213.911 2.41589 3.95208 0
M  V30 2205 C 214.646 3.08789 4.83153 0
M  V30 2206 N 214.142 3.85265 5.75798 0
M  V30 2207 N 215.935 2.97952 4.76635 0
M  V30 2208 H 208.086 1.84207 1.05742 0
M  V30 2209 H 210.349 0.789251 0.525154 0
M  V30 2210 H 210.055 2.55865 2.41301 0
M  V30 2211 H 209.929 1.23899 3.56271 0
M  V30 2212 H 212.316 0.492518 2.90961 0
M  V30 2213 H 212.397 1.8451 1.77172 0
M  V30 2214 H 212.041 3.46829 3.71041 0
M  V30 2215 H 211.971 2.08788 4.83441 0
M  V30 2216 H 214.462 1.86025 3.28943 0
M  V30 2217 H 214.775 4.33598 6.39697 0
M  V30 2218 H 213.12 3.89371 5.75687 0
M  V30 2219 H 216.311 2.37723 4.03244 0
M  V30 2220 H 216.484 3.50599 5.44962 0
M  V30 2221 N 209.89 -1.43072 0.660911 0
M  V30 2222 C 211.115 -2.06584 0.183805 0
M  V30 2223 C 211.54 -1.49257 -1.14472 0
M  V30 2224 O 210.898 -0.605528 -1.70889 0
M  V30 2225 C 210.946 -3.60418 0.114434 0
M  V30 2226 O 210.05 -4.01981 -0.921137 0
M  V30 2227 H 209.391 -0.656669 0.0983994 0
M  V30 2228 H 211.921 -1.83447 0.906006 0
M  V30 2229 H 211.931 -4.07946 -0.0663394 0
M  V30 2230 H 210.606 -4.01519 1.08422 0
M  V30 2231 H 209.183 -3.66029 -0.71253 0
M  V30 2232 N 211.368 -0.403325 -1.52352 0
M  V30 2233 C 212.645 0.232611 -1.94212 0
M  V30 2234 C 213.025 1.63133 -1.33981 0
M  V30 2235 O 212.373 2.22659 -0.513344 0
M  V30 2236 C 212.583 0.244811 -3.4814 0
M  V30 2237 C 213.931 0.46698 -4.22024 0
M  V30 2238 O 214.955 0.324419 -3.5472 0
M  V30 2239 O 213.814 0.74747 -5.41364 0
M  V30 2240 H 210.908 0.148223 -0.813609 0
M  V30 2241 H 213.454 -0.458848 -1.63379 0
M  V30 2242 H 212.226 -0.734378 -3.84347 0
M  V30 2243 H 211.849 0.980611 -3.85318 0
M  V30 2244 N 212.846 1.57033 -0.133567 0
M  V30 2245 C 213.776 2.1909 0.807567 0
M  V30 2246 C 214.757 1.13517 1.26681 0
M  V30 2247 O 215.942 1.41809 1.32679 0
M  V30 2248 C 213.072 2.80188 2.05212 0
M  V30 2249 C 212.026 3.91471 1.73015 0
M  V30 2250 C 211.352 4.39443 3.04622 0
M  V30 2251 C 212.652 5.12886 0.987168 0
M  V30 2252 H 214.346 2.97988 0.290403 0
M  V30 2253 H 211.892 1.43335 0.138239 0
M  V30 2254 H 213.845 3.22264 2.71521 0
M  V30 2255 H 212.569 1.98601 2.59278 0
M  V30 2256 H 211.228 3.49993 1.0909 0
M  V30 2257 H 210.876 3.54695 3.56651 0
M  V30 2258 H 210.576 5.14495 2.83847 0
M  V30 2259 H 212.1 4.8418 3.72024 0
M  V30 2260 H 213.514 5.51891 1.55208 0
M  V30 2261 H 211.911 5.93615 0.87985 0
M  V30 2262 H 212.981 4.84894 -0.0235286 0
M  V30 2263 N 214.325 -0.140222 1.56975 0
M  V30 2264 C 215.571 -0.852949 1.83991 0
M  V30 2265 C 215.904 -1.80512 0.716187 0
M  V30 2266 O 215.179 -1.92479 -0.279681 0
M  V30 2267 C 215.462 -1.6215 3.21527 0
M  V30 2268 C 215.315 -0.690363 4.4447 0
M  V30 2269 C 216.634 -2.58247 3.56366 0
M  V30 2270 H 213.753 -0.308634 0.669264 0
M  V30 2271 H 216.395 -0.117898 1.89634 0
M  V30 2272 H 214.545 -2.24812 3.16847 0
M  V30 2273 H 216.217 -0.0742264 4.6124 0
M  V30 2274 H 214.46 -0.000396433 4.338 0
M  V30 2275 H 215.131 -1.2643 5.37326 0
M  V30 2276 H 217.607 -2.05701 3.61699 0
M  V30 2277 H 216.483 -3.09067 4.53617 0
M  V30 2278 H 216.744 -3.39923 2.82674 0
M  V30 2279 N 215.803 -1.52179 -0.40978 0
M  V30 2280 C 217.028 -1.70347 -1.18308 0
M  V30 2281 C 217.453 -0.411887 -1.83535 0
M  V30 2282 O 216.811 0.630587 -1.6998 0
M  V30 2283 C 216.859 -2.83977 -2.22238 0
M  V30 2284 O 215.963 -2.495 -3.28365 0
M  V30 2285 H 215.304 -0.567103 -0.345384 0
M  V30 2286 H 217.834 -1.98879 -0.480445 0
M  V30 2287 H 217.844 -3.0887 -2.66577 0
M  V30 2288 H 216.519 -3.77685 -1.74146 0
M  V30 2289 H 215.096 -2.35277 -2.89308 0
M  V30 2290 N 217.281 0.66697 -1.42791 0
M  V30 2291 C 218.529 1.42417 -1.43394 0
M  V30 2292 C 218.85 1.94925 -0.0542373 0
M  V30 2293 O 218.12 1.73564 0.908415 0
M  V30 2294 H 216.7 0.528515 -0.527902 0
M  V30 2295 H 219.362 0.787562 -1.78279 0
M  V30 2296 H 218.458 2.27333 -2.13837 0
M  V30 2297 N 218.759 1.29093 0.90403 0
M  V30 2298 C 220.175 1.07011 1.1841 0
M  V30 2299 C 220.375 -0.181358 2.00682 0
M  V30 2300 O 219.431 -0.880331 2.36657 0
M  V30 2301 C 220.744 2.32311 1.90924 0
M  V30 2302 C 222.292 2.37587 2.03768 0
M  V30 2303 C 222.767 3.62679 2.79693 0
M  V30 2304 N 224.258 3.63376 2.87249 0
M  V30 2305 C 224.993 4.56848 3.46522 0
M  V30 2306 N 224.489 5.60648 4.06996 0
M  V30 2307 N 226.282 4.44426 3.44154 0
M  V30 2308 H 218.433 2.09412 0.354993 0
M  V30 2309 H 220.696 0.922181 0.219742 0
M  V30 2310 H 220.402 3.23536 1.37905 0
M  V30 2311 H 220.276 2.39483 2.91424 0
M  V30 2312 H 222.663 1.46853 2.55965 0
M  V30 2313 H 222.744 2.34403 1.02415 0
M  V30 2314 H 222.388 4.53762 2.28173 0
M  V30 2315 H 222.318 3.63119 3.81381 0
M  V30 2316 H 224.809 2.88321 2.44293 0
M  V30 2317 H 225.122 6.28101 4.50232 0
M  V30 2318 H 223.467 5.64463 4.05471 0
M  V30 2319 H 226.658 3.62529 2.96126 0
M  V30 2320 H 226.831 5.17457 3.90054 0
M  V30 2321 N 220.237 -1.11381 1.11499 0
M  V30 2322 C 221.167 -2.19509 0.796125 0
M  V30 2323 C 222.148 -1.68458 -0.235796 0
M  V30 2324 O 223.333 -1.93947 -0.0991344 0
M  V30 2325 C 220.463 -3.46475 0.239205 0
M  V30 2326 C 219.417 -4.10744 1.20307 0
M  V30 2327 C 218.743 -5.32293 0.50683 0
M  V30 2328 C 220.043 -4.55597 2.55399 0
M  V30 2329 H 221.737 -2.46439 1.70024 0
M  V30 2330 H 219.283 -1.18446 0.818935 0
M  V30 2331 H 221.236 -4.214 0.00392006 0
M  V30 2332 H 219.96 -3.19006 -0.700206 0
M  V30 2333 H 218.619 -3.37813 1.42399 0
M  V30 2334 H 218.267 -5.01095 -0.437408 0
M  V30 2335 H 217.967 -5.76243 1.1497 0
M  V30 2336 H 219.491 -6.09956 0.280351 0
M  V30 2337 H 220.905 -5.21841 2.37391 0
M  V30 2338 H 219.302 -5.10363 3.15673 0
M  V30 2339 H 220.372 -3.69013 3.14575 0
M  V30 2340 N 221.715 -0.905404 -1.28997 0
M  V30 2341 C 223.126 -0.581953 -1.77398 0
M  V30 2342 C 223.477 0.902552 -1.74208 0
M  V30 2343 O 222.602 1.70584 -1.33154 0
M  V30 2344 C 223.197 -1.04961 -3.22131 0
M  V30 2345 C 221.756 -0.777229 -3.68288 0
M  V30 2346 C 220.903 -1.22109 -2.48967 0
M  V30 2347 H 223.854 -1.08754 -1.15578 0
M  V30 2348 H 223.875 -0.387387 -3.78523 0
M  V30 2349 H 223.387 -2.13008 -3.24421 0
M  V30 2350 H 221.488 0.290383 -3.71467 0
M  V30 2351 H 221.601 -1.37911 -4.58822 0
M  V30 2352 H 219.965 -0.639971 -2.46529 0
M  V30 2353 H 220.748 -2.30972 -2.53982 0
M  V30 2354 N 223.193 1.4272 -0.668489 0
M  V30 2355 C 224.439 2.01923 -0.188419 0
M  V30 2356 C 224.772 1.52704 1.19979 0
M  V30 2357 O 224.047 0.726566 1.8042 0
M  V30 2358 C 224.33 3.59451 -0.216085 0
M  V30 2359 C 224.183 4.18864 -1.6393 0
M  V30 2360 C 225.502 4.37903 0.439179 0
M  V30 2361 H 222.621 0.733674 -0.0699412 0
M  V30 2362 H 225.263 1.69822 -0.852076 0
M  V30 2363 H 223.413 3.86929 0.349012 0
M  V30 2364 H 225.085 4.02362 -2.25616 0
M  V30 2365 H 223.328 3.74933 -2.18193 0
M  V30 2366 H 223.999 5.27987 -1.61039 0
M  V30 2367 H 226.475 4.16079 -0.0417878 0
M  V30 2368 H 225.351 5.47519 0.389157 0
M  V30 2369 H 225.612 4.15303 1.51577 0
M  V30 2370 N 224.671 0.411399 1.52136 0
M  V30 2371 C 225.919 -0.163322 2.01439 0
M  V30 2372 C 226.24 -1.45453 1.29879 0
M  V30 2373 O 225.51 -1.91225 0.4254 0
M  V30 2374 H 224.09 -0.0633447 0.744309 0
M  V30 2375 H 226.752 0.548161 1.87033 0
M  V30 2376 H 225.848 -0.357817 3.10042 0
M  V30 2377 N 226.149 -1.5696 0.141893 0
M  V30 2378 C 227.079 -2.19516 -0.795936 0
M  V30 2379 C 228.06 -1.14187 -1.26077 0
M  V30 2380 O 229.245 -1.42511 -1.31925 0
M  V30 2381 C 226.375 -2.81272 -2.03723 0
M  V30 2382 C 225.329 -3.92384 -1.70936 0
M  V30 2383 C 224.655 -4.41052 -3.02287 0
M  V30 2384 C 225.955 -5.13403 -0.959954 0
M  V30 2385 H 227.649 -2.98138 -0.274596 0
M  V30 2386 H 225.195 -1.43406 -0.130636 0
M  V30 2387 H 227.148 -3.237 -2.69808 0
M  V30 2388 H 225.872 -1.99973 -2.58221 0
M  V30 2389 H 224.531 -3.50566 -1.07232 0
M  V30 2390 H 224.179 -3.56582 -3.54765 0
M  V30 2391 H 223.879 -5.15993 -2.81114 0
M  V30 2392 H 225.403 -4.86146 -3.69451 0
M  V30 2393 H 226.817 -5.52706 -1.52279 0
M  V30 2394 H 225.214 -5.94073 -0.848357 0
M  V30 2395 H 226.284 -4.84875 0.0492434 0
M  V30 2396 N 227.627 0.131896 -1.57047 0
M  V30 2397 C 228.852 0.860418 -1.8871 0
M  V30 2398 C 229.277 1.73251 -0.73251 0
M  V30 2399 O 228.635 1.785 0.317429 0
M  V30 2400 C 228.683 1.68047 -3.19049 0
M  V30 2401 O 227.787 2.7862 -3.04047 0
M  V30 2402 H 227.128 0.238743 -0.619595 0
M  V30 2403 H 229.658 0.118169 -2.04258 0
M  V30 2404 H 229.668 2.07238 -3.51449 0
M  V30 2405 H 228.343 1.04018 -4.02682 0
M  V30 2406 H 226.92 2.42726 -2.83088 0
M  V30 2407 N 229.106 1.52395 0.401703 0
M  V30 2408 C 230.036 1.79231 1.49661 0
M  V30 2409 C 231.017 0.643654 1.57452 0
M  V30 2410 O 232.202 0.889989 1.72606 0
M  V30 2411 C 229.332 1.94971 2.87409 0
M  V30 2412 C 228.286 3.10604 2.94465 0
M  V30 2413 C 227.612 3.11577 4.34538 0
M  V30 2414 C 228.912 4.49921 2.6527 0
M  V30 2415 H 230.606 2.70917 1.27454 0
M  V30 2416 H 228.152 1.30362 0.6117 0
M  V30 2417 H 230.105 2.12328 3.63999 0
M  V30 2418 H 228.829 0.999632 3.10926 0
M  V30 2419 H 227.488 2.93009 2.20321 0
M  V30 2420 H 227.136 2.14277 4.55076 0
M  V30 2421 H 226.836 3.89247 4.40183 0
M  V30 2422 H 228.36 3.31073 5.13053 0
M  V30 2423 H 229.774 4.67683 3.31581 0
M  V30 2424 H 228.171 5.29564 2.82281 0
M  V30 2425 H 229.241 4.57507 1.60671 0
M  V30 2426 N 230.584 -0.659388 1.43143 0
M  V30 2427 C 231.531 -1.77249 1.47822 0
M  V30 2428 C 232.501 -1.62818 0.328558 0
M  V30 2429 O 233.686 -1.83151 0.534838 0
M  V30 2430 C 230.826 -3.15371 1.40126 0
M  V30 2431 C 229.939 -3.4098 2.65249 0
M  V30 2432 C 229.074 -4.68915 2.49584 0
M  V30 2433 C 228.113 -4.87608 3.70006 0
M  V30 2434 N 227.25 -6.06796 3.53189 0
M  V30 2435 H 232.09 -1.72584 2.42938 0
M  V30 2436 H 229.627 -0.842297 1.20598 0
M  V30 2437 H 231.585 -3.9521 1.33659 0
M  V30 2438 H 230.215 -3.19121 0.485964 0
M  V30 2439 H 229.267 -2.55282 2.8202 0
M  V30 2440 H 230.579 -3.50681 3.54717 0
M  V30 2441 H 229.733 -5.56871 2.4079 0
M  V30 2442 H 228.472 -4.61524 1.5763 0
M  V30 2443 H 227.477 -3.9809 3.79215 0
M  V30 2444 H 228.702 -4.96834 4.62961 0
M  V30 2445 H 226.648 -6.00549 2.63965 0
M  V30 2446 H 226.565 -6.17428 4.36255 0
M  V30 2447 H 227.833 -6.9739 3.48236 0
M  V30 2448 N 232.062 -1.29571 -0.897171 0
M  V30 2449 C 232.972 -1.16808 -2.03453 0
M  V30 2450 C 233.988 -0.0907471 -1.73763 0
M  V30 2451 O 235.164 -0.303312 -1.99103 0
M  V30 2452 C 232.229 -0.848264 -3.36163 0
M  V30 2453 C 231.29 -2.0097 -3.79354 0
M  V30 2454 C 230.523 -1.70505 -5.05731 0
M  V30 2455 O 230.746 -0.62718 -5.66941 0
M  V30 2456 O 229.68 -2.5538 -5.45036 0
M  V30 2457 H 233.506 -2.12325 -2.17144 0
M  V30 2458 H 231.091 -1.09047 -1.02123 0
M  V30 2459 H 232.973 -0.684581 -4.15802 0
M  V30 2460 H 231.648 0.0771071 -3.23608 0
M  V30 2461 H 230.555 -2.22863 -3.00471 0
M  V30 2462 H 231.888 -2.91636 -3.96496 0
M  V30 2463 N 233.54 1.10788 -1.12088 0
M  V30 2464 C 234.472 2.16816 -0.743213 0
M  V30 2465 C 235.485 1.6119 0.228412 0
M  V30 2466 O 236.674 1.78497 0.0102931 0
M  V30 2467 C 233.774 3.38809 -0.0787313 0
M  V30 2468 C 232.947 4.23885 -1.0789 0
M  V30 2469 C 232.006 5.24334 -0.442713 0
M  V30 2470 O 231.032 5.58497 -1.09864 0
M  V30 2471 N 232.234 5.75079 0.791457 0
M  V30 2472 H 234.999 2.49825 -1.65552 0
M  V30 2473 H 232.56 1.26373 -1.012 0
M  V30 2474 H 234.552 4.03107 0.358766 0
M  V30 2475 H 233.122 3.03805 0.736275 0
M  V30 2476 H 232.342 3.55939 -1.69414 0
M  V30 2477 H 233.63 4.77562 -1.75533 0
M  V30 2478 H 233.028 5.49517 1.3434 0
M  V30 2479 H 231.585 6.4118 1.17183 0
M  V30 2480 N 235.018 0.912232 1.28515 0
M  V30 2481 C 236.266 0.543523 1.94654 0
M  V30 2482 C 236.587 -0.9155 1.72173 0
M  V30 2483 O 235.857 -1.64708 1.06058 0
M  V30 2484 H 234.437 0.198017 0.720277 0
M  V30 2485 H 237.099 1.16126 1.56527 0
M  V30 2486 H 236.195 0.736684 3.03281 0
M  V30 2487 N 236.496 -1.42363 0.676048 0
M  V30 2488 C 237.406 -2.346 -0.00153389 0
M  V30 2489 C 238.422 -1.5516 -0.787485 0
M  V30 2490 O 239.598 -1.87723 -0.729521 0
M  V30 2491 C 236.663 -3.33705 -0.940298 0
M  V30 2492 C 235.724 -4.29042 -0.148739 0
M  V30 2493 C 234.957 -5.23413 -1.04279 0
M  V30 2494 O 235.18 -5.22749 -2.28232 0
M  V30 2495 O 234.114 -5.99795 -0.502925 0
M  V30 2496 H 237.94 -2.94082 0.758268 0
M  V30 2497 H 235.525 -1.42888 0.436289 0
M  V30 2498 H 237.407 -3.94586 -1.47917 0
M  V30 2499 H 236.082 -2.76695 -1.67993 0
M  V30 2500 H 234.989 -3.71571 0.43427 0
M  V30 2501 H 236.322 -4.89097 0.551805 0
M  V30 2502 N 237.974 -0.419461 -1.51915 0
M  V30 2503 C 239.214 0.152336 -2.03832 0
M  V30 2504 C 239.578 1.41501 -1.29775 0
M  V30 2505 O 240.779 2.06591 -1.7197 0
M  V30 2506 C 239.05 0.383812 -3.55333 0
M  V30 2507 S 240.609 0.921577 -4.29013 0
M  V30 2508 H 237.427 0.0402193 -0.709862 0
M  V30 2509 H 240.029 -0.574758 -1.8686 0
M  V30 2510 H 238.733 -0.541794 -4.06808 0
M  V30 2511 H 238.264 1.13849 -3.76566 0
M  V30 2512 H 240.279 2.20108 -4.4471 0
M  V30 2513 N 239.452 1.56882 -0.150215 0
M  V30 2514 C 240.382 2.19935 0.784284 0
M  V30 2515 C 241.363 1.14854 1.25469 0
M  V30 2516 O 242.548 1.43209 1.31168 0
M  V30 2517 C 239.678 2.82349 2.02229 0
M  V30 2518 C 238.632 3.93285 1.68853 0
M  V30 2519 C 237.958 4.42649 2.99944 0
M  V30 2520 C 239.258 5.13904 0.932714 0
M  V30 2521 H 240.952 2.9828 0.258781 0
M  V30 2522 H 238.498 1.43473 0.123029 0
M  V30 2523 H 240.451 3.25126 2.68088 0
M  V30 2524 H 239.175 2.0134 2.57157 0
M  V30 2525 H 237.834 3.5113 1.05371 0
M  V30 2526 H 237.482 3.58458 3.52869 0
M  V30 2527 H 237.182 5.17476 2.78374 0
M  V30 2528 H 238.706 4.88099 3.66868 0
M  V30 2529 H 240.12 5.53506 1.49345 0
M  V30 2530 H 238.517 5.94515 0.81684 0
M  V30 2531 H 239.587 4.84842 -0.0749568 0
M  V30 2532 N 240.93 -0.123565 1.57115 0
M  V30 2533 C 242.155 -0.850398 1.89164 0
M  V30 2534 C 242.58 -1.7286 0.741688 0
M  V30 2535 O 241.938 -1.78665 -0.307958 0
M  V30 2536 C 241.986 -1.66353 3.19936 0
M  V30 2537 O 241.09 -2.77004 3.0552 0
M  V30 2538 H 240.431 -0.235454 0.620852 0
M  V30 2539 H 242.961 -0.107335 2.04318 0
M  V30 2540 H 242.971 -2.05372 3.52543 0
M  V30 2541 H 241.646 -1.01881 4.03228 0
M  V30 2542 H 240.223 -2.41221 2.84371 0
M  V30 2543 N 242.408 -1.52605 -0.393616 0
M  V30 2544 C 243.338 -1.80022 -1.48709 0
M  V30 2545 C 244.319 -0.651995 -1.57108 0
M  V30 2546 O 245.504 -0.89913 -1.72132 0
M  V30 2547 C 242.634 -1.96492 -2.86371 0
M  V30 2548 C 241.588 -3.12161 -2.92813 0
M  V30 2549 C 240.914 -3.13877 -4.3288 0
M  V30 2550 C 242.214 -4.51322 -2.6288 0
M  V30 2551 H 243.908 -2.71589 -1.26015 0
M  V30 2552 H 241.454 -1.30684 -0.604778 0
M  V30 2553 H 243.407 -2.14255 -3.62867 0
M  V30 2554 H 242.131 -1.01611 -3.10391 0
M  V30 2555 H 240.79 -2.94173 -2.18764 0
M  V30 2556 H 240.438 -2.16687 -4.53933 0
M  V30 2557 H 240.138 -3.91576 -4.38112 0
M  V30 2558 H 241.662 -3.33789 -5.1129 0
M  V30 2559 H 243.076 -4.69435 -3.29096 0
M  V30 2560 H 241.473 -5.31053 -2.79468 0
M  V30 2561 H 242.543 -4.58353 -1.58242 0
M  V30 2562 N 243.887 0.651787 -1.4349 0
M  V30 2563 C 244.85 1.74647 -1.48429 0
M  V30 2564 C 245.85 1.56513 -0.368817 0
M  V30 2565 O 247.04 1.62385 -0.630623 0
M  V30 2566 C 244.172 3.13533 -1.33827 0
M  V30 2567 H 245.365 1.71649 -2.4592 0
M  V30 2568 H 242.918 0.863573 -1.30277 0
M  V30 2569 H 243.653 3.22142 -0.37349 0
M  V30 2570 H 243.438 3.28101 -2.14691 0
M  V30 2571 H 244.928 3.93356 -1.40218 0
M  V30 2572 N 245.365 1.30045 0.890287 0
M  V30 2573 C 246.611 1.18737 1.64406 0
M  V30 2574 C 246.944 -0.258525 1.92472 0
M  V30 2575 O 246.219 -1.18562 1.54186 0
M  V30 2576 C 246.502 2.01087 2.98724 0
M  V30 2577 C 246.355 3.53867 2.77665 0
M  V30 2578 C 247.674 1.84457 3.9958 0
M  V30 2579 H 244.793 0.432698 0.596608 0
M  V30 2580 H 247.435 1.5962 1.0306 0
M  V30 2581 H 245.585 1.66349 3.51084 0
M  V30 2582 H 247.257 3.98637 2.32133 0
M  V30 2583 H 245.5 3.78318 2.12269 0
M  V30 2584 H 246.171 4.06772 3.7315 0
M  V30 2585 H 248.647 2.14817 3.56361 0
M  V30 2586 H 247.523 2.44411 4.91482 0
M  V30 2587 H 247.784 0.802276 4.3476 0
M  V30 2588 N 246.843 -1.10192 1.12674 0
M  V30 2589 C 247.773 -2.18652 0.819362 0
M  V30 2590 C 248.754 -1.68698 -0.217915 0
M  V30 2591 O 249.939 -1.94041 -0.0785581 0
M  V30 2592 C 247.069 -3.46202 0.27594 0
M  V30 2593 C 246.023 -4.09444 1.24656 0
M  V30 2594 C 245.349 -5.31725 0.563258 0
M  V30 2595 C 246.649 -4.52863 2.60217 0
M  V30 2596 H 248.343 -2.44622 1.72628 0
M  V30 2597 H 245.889 -1.17571 0.831451 0
M  V30 2598 H 247.842 -4.21372 0.0486149 0
M  V30 2599 H 246.566 -3.1973 -0.666331 0
M  V30 2600 H 245.225 -3.36284 1.45974 0
M  V30 2601 H 244.873 -5.0153 -0.384235 0
M  V30 2602 H 244.573 -5.74991 1.21075 0
M  V30 2603 H 246.097 -6.09624 0.34503 0
M  V30 2604 H 247.511 -5.19294 2.42913 0
M  V30 2605 H 245.908 -5.06986 3.21068 0
M  V30 2606 H 246.978 -3.65656 3.18471 0
M  V30 2607 N 248.321 -0.919034 -1.28029 0
M  V30 2608 C 249.598 -0.473668 -1.89778 0
M  V30 2609 C 249.978 1.04783 -1.83259 0
M  V30 2610 O 249.326 1.8982 -1.27202 0
M  V30 2611 C 249.536 -1.00998 -3.34066 0
M  V30 2612 C 250.884 -1.06525 -4.1102 0
M  V30 2613 O 251.908 -0.958996 -3.43048 0
M  V30 2614 O 250.767 -1.22776 -5.3253 0
M  V30 2615 H 247.861 -0.15098 -0.813101 0
M  V30 2616 H 250.407 -1.01016 -1.36359 0
M  V30 2617 H 249.179 -2.05392 -3.33061 0
M  V30 2618 H 248.802 -0.454626 -3.94992 0
M  V30 2619 N 249.799 1.42003 -0.683588 0
M  V30 2620 C 250.729 2.33487 -0.024866 0
M  V30 2621 C 251.71 1.51163 0.779975 0
M  V30 2622 O 252.895 1.79739 0.735362 0
M  V30 2623 C 250.025 3.3487 0.920836 0
M  V30 2624 C 248.979 4.27414 0.223958 0
M  V30 2625 C 248.305 5.19074 1.2832 0
M  V30 2626 C 249.605 5.14445 -0.90242 0
M  V30 2627 H 251.299 2.88819 -0.788921 0
M  V30 2628 H 248.845 1.38873 -0.38083 0
M  V30 2629 H 250.798 3.97787 1.39081 0
M  V30 2630 H 249.522 2.77861 1.71642 0
M  V30 2631 H 248.181 3.65904 -0.225864 0
M  V30 2632 H 247.829 4.58387 2.071 0
M  V30 2633 H 247.529 5.81822 0.821995 0
M  V30 2634 H 249.053 5.84867 1.75392 0
M  V30 2635 H 250.467 5.70998 -0.513272 0
M  V30 2636 H 248.864 5.86072 -1.28997 0
M  V30 2637 H 249.934 4.52322 -1.74737 0
M  V30 2638 N 251.277 0.427512 1.51691 0
M  V30 2639 C 252.24 -0.377132 2.26076 0
M  V30 2640 C 253.24 -0.958089 1.29141 0
M  V30 2641 O 254.43 -0.83408 1.52934 0
M  V30 2642 C 251.562 -1.53262 3.04506 0
M  V30 2643 H 252.755 0.27464 2.9864 0
M  V30 2644 H 250.308 0.180445 1.55255 0
M  V30 2645 H 251.043 -2.22072 2.36335 0
M  V30 2646 H 250.828 -1.12232 3.75694 0
M  V30 2647 H 252.318 -2.10135 3.60878 0
M  V30 2648 N 252.755 -1.56801 0.158532 0
M  V30 2649 C 254.171 -1.5837 -0.197774 0
M  V30 2650 C 254.371 -1.17334 -1.63814 0
M  V30 2651 O 253.427 -0.878988 -2.36707 0
M  V30 2652 C 254.74 -3.00615 0.0714459 0
M  V30 2653 C 256.288 -3.12999 0.00864533 0
M  V30 2654 C 256.763 -4.57313 0.250685 0
M  V30 2655 N 258.254 -4.62777 0.198014 0
M  V30 2656 C 258.989 -5.72271 0.359642 0
M  V30 2657 N 258.485 -6.90371 0.579625 0
M  V30 2658 N 260.278 -5.61318 0.296438 0
M  V30 2659 H 252.429 -1.81765 1.09887 0
M  V30 2660 H 254.692 -0.841849 0.435884 0
M  V30 2661 H 254.398 -3.35068 1.06874 0
M  V30 2662 H 254.272 -3.71683 -0.642757 0
M  V30 2663 H 256.659 -2.7838 -0.979217 0
M  V30 2664 H 256.74 -2.44393 0.755359 0
M  V30 2665 H 256.384 -4.92639 1.2357 0
M  V30 2666 H 256.314 -5.24061 -0.516489 0
M  V30 2667 H 258.805 -3.77885 0.0331115 0
M  V30 2668 H 259.118 -7.69689 0.69275 0
M  V30 2669 H 257.463 -6.92264 0.616087 0
M  V30 2670 H 260.654 -4.67932 0.125258 0
M  V30 2671 H 260.827 -6.46599 0.425831 0
M  V30 2672 N 254.233 0.115231 -1.57178 0
M  V30 2673 C 255.166 1.17166 -1.95825 0
M  V30 2674 C 256.144 1.39912 -0.828463 0
M  V30 2675 O 257.328 1.54004 -1.08697 0
M  V30 2676 C 254.455 2.52478 -2.25771 0
M  V30 2677 C 253.501 2.46136 -3.48309 0
M  V30 2678 S 254.334 1.89736 -5.0076 0
M  V30 2679 C 255.49 3.26713 -5.33863 0
M  V30 2680 H 255.723 0.842103 -2.85124 0
M  V30 2681 H 253.256 0.322136 -1.51002 0
M  V30 2682 H 255.214 3.30332 -2.43702 0
M  V30 2683 H 253.875 2.82609 -1.37079 0
M  V30 2684 H 253.068 3.45819 -3.66641 0
M  V30 2685 H 252.67 1.76404 -3.29784 0
M  V30 2686 H 254.962 4.22935 -5.29275 0
M  V30 2687 H 255.905 3.13205 -6.35065 0
M  V30 2688 H 256.313 3.25316 -4.61335 0
M  V30 2689 N 255.711 1.52812 0.385517 0
M  V30 2690 C 256.674 1.77188 1.45386 0
M  V30 2691 C 257.674 0.641953 1.4743 0
M  V30 2692 O 258.864 0.910033 1.4854 0
M  V30 2693 C 255.996 1.87582 2.8465 0
M  V30 2694 H 257.189 2.72583 1.25054 0
M  V30 2695 H 254.742 1.43586 0.617467 0
M  V30 2696 H 255.477 0.941849 3.10322 0
M  V30 2697 H 255.262 2.69748 2.84567 0
M  V30 2698 H 256.752 2.08102 3.62054 0
M  V30 2699 N 257.189 -0.644168 1.43834 0
M  V30 2700 C 258.605 -0.960875 1.27434 0
M  V30 2701 C 258.805 -2.00499 0.200618 0
M  V30 2702 O 257.861 -2.49018 -0.417906 0
M  V30 2703 C 259.174 -1.43653 2.64167 0
M  V30 2704 C 260.722 -1.55271 2.71772 0
M  V30 2705 C 261.197 -2.06224 4.08944 0
M  V30 2706 N 262.688 -2.13513 4.11055 0
M  V30 2707 C 263.423 -2.54081 5.14033 0
M  V30 2708 N 262.919 -2.9388 6.27381 0
M  V30 2709 N 264.712 -2.54101 5.01387 0
M  V30 2710 H 256.863 0.0465779 2.12349 0
M  V30 2711 H 259.126 -0.0417638 0.94708 0
M  V30 2712 H 258.832 -0.743706 3.43747 0
M  V30 2713 H 258.706 -2.40993 2.90176 0
M  V30 2714 H 261.093 -2.23653 1.92519 0
M  V30 2715 H 261.174 -0.563395 2.49519 0
M  V30 2716 H 260.818 -1.38441 4.88668 0
M  V30 2717 H 260.748 -3.06003 4.28567 0
M  V30 2718 H 263.239 -1.85493 3.29242 0
M  V30 2719 H 263.552 -3.2361 7.01781 0
M  V30 2720 H 261.897 -2.91663 6.30839 0
M  V30 2721 H 265.088 -2.22391 4.11898 0
M  V30 2722 H 265.261 -2.85394 5.81768 0
M  V30 2723 N 258.668 -1.30515 -0.883378 0
M  V30 2724 C 259.578 -1.18959 -2.02203 0
M  V30 2725 C 260.594 -0.109172 -1.73657 0
M  V30 2726 O 261.77 -0.324413 -1.9877 0
M  V30 2727 C 258.835 -0.883871 -3.35244 0
M  V30 2728 C 257.896 -2.04982 -3.77201 0
M  V30 2729 C 257.129 -1.75859 -5.03894 0
M  V30 2730 O 257.352 -0.687276 -5.66244 0
M  V30 2731 O 256.286 -2.61146 -5.42297 0
M  V30 2732 H 260.112 -2.14616 -2.1488 0
M  V30 2733 H 257.697 -1.10124 -1.0096 0
M  V30 2734 H 259.579 -0.728644 -4.15053 0
M  V30 2735 H 258.254 0.0427798 -3.23672 0
M  V30 2736 H 257.161 -2.26038 -2.9809 0
M  V30 2737 H 258.494 -2.95825 -3.93381 0
M  V30 2738 N 260.146 1.09593 -1.13257 0
M  V30 2739 C 261.078 2.16015 -0.766167 0
M  V30 2740 C 262.091 1.61423 0.211303 0
M  V30 2741 O 263.28 1.78498 -0.00863946 0
M  V30 2742 C 260.38 3.38706 -0.114662 0
M  V30 2743 C 259.553 4.22717 -1.12379 0
M  V30 2744 C 258.612 5.23835 -0.498301 0
M  V30 2745 O 257.638 5.573 -1.15781 0
M  V30 2746 N 258.84 5.75886 0.730417 0
M  V30 2747 H 261.605 2.48055 -1.68193 0
M  V30 2748 H 259.166 1.25292 -1.02535 0
M  V30 2749 H 261.158 4.03464 0.315991 0
M  V30 2750 H 259.728 3.04569 0.704011 0
M  V30 2751 H 258.948 3.54122 -1.73179 0
M  V30 2752 H 260.236 4.75673 -1.80589 0
M  V30 2753 H 259.634 5.50911 1.28504 0
M  V30 2754 H 258.191 6.42387 1.10376 0
M  V30 2755 N 261.624 0.925811 1.2754 0
M  V30 2756 C 262.587 0.428129 2.25166 0
M  V30 2757 C 263.587 -0.452261 1.54309 0
M  V30 2758 O 264.777 -0.253608 1.72344 0
M  V30 2759 C 261.909 -0.384749 3.38722 0
M  V30 2760 H 263.102 1.29066 2.70706 0
M  V30 2761 H 260.655 0.706323 1.3943 0
M  V30 2762 H 261.39 -1.26618 2.98561 0
M  V30 2763 H 261.175 0.246454 3.91325 0
M  V30 2764 H 262.665 -0.723389 4.11287 0
M  V30 2765 N 263.102 -1.41638 0.69111 0
M  V30 2766 C 264.034 -2.29194 -0.0161523 0
M  V30 2767 C 265.047 -1.44549 -0.748955 0
M  V30 2768 O 266.236 -1.681 -0.6004 0
M  V30 2769 C 263.336 -3.22325 -1.0469 0
M  V30 2770 C 262.509 -4.35706 -0.384621 0
M  V30 2771 C 261.568 -5.09443 -1.31737 0
M  V30 2772 O 260.594 -5.63386 -0.811451 0
M  V30 2773 N 261.796 -5.16487 -2.64993 0
M  V30 2774 H 264.561 -2.90534 0.735523 0
M  V30 2775 H 262.122 -1.52742 0.53679 0
M  V30 2776 H 264.114 -3.68522 -1.67252 0
M  V30 2777 H 262.684 -2.62323 -1.70015 0
M  V30 2778 H 261.904 -3.91948 0.420804 0
M  V30 2779 H 263.192 -5.08743 0.0760765 0
M  V30 2780 H 262.59 -4.741 -3.08619 0
M  V30 2781 H 261.147 -5.66276 -3.22761 0
M  V30 2782 N 264.58 -0.43555 -1.51462 0
M  V30 2783 C 265.996 -0.0877501 -1.59359 0
M  V30 2784 C 266.196 1.4027 -1.4466 0
M  V30 2785 O 265.252 2.17243 -1.28693 0
M  V30 2786 C 266.565 -0.606264 -2.94525 0
M  V30 2787 C 268.113 -0.566548 -3.0783 0
M  V30 2788 C 268.588 -1.06201 -4.45517 0
M  V30 2789 N 270.079 -1.01992 -4.51832 0
M  V30 2790 C 270.814 -1.37417 -5.5669 0
M  V30 2791 N 270.31 -1.80119 -6.68976 0
M  V30 2792 N 272.103 -1.29245 -5.47039 0
M  V30 2793 H 264.254 -1.40533 -1.59261 0
M  V30 2794 H 266.517 -0.578992 -0.750648 0
M  V30 2795 H 266.223 -1.64901 -3.10645 0
M  V30 2796 H 266.097 -0.0302097 -3.77188 0
M  V30 2797 H 268.484 0.467208 -2.91378 0
M  V30 2798 H 268.565 -1.17898 -2.2701 0
M  V30 2799 H 268.209 -2.09422 -4.62715 0
M  V30 2800 H 268.139 -0.426127 -5.24873 0
M  V30 2801 H 270.63 -0.706308 -3.71241 0
M  V30 2802 H 270.943 -2.05392 -7.45006 0
M  V30 2803 H 269.288 -1.84044 -6.70189 0
M  V30 2804 H 272.479 -0.957522 -4.58202 0
M  V30 2805 H 272.652 -1.57182 -6.28648 0
M  V30 2806 N 266.058 1.56714 -0.166846 0
M  V30 2807 C 267.469 1.83378 0.350646 0
M  V30 2808 C 267.82 1.08646 1.63372 0
M  V30 2809 O 266.945 0.338058 2.13743 0
M  V30 2810 C 267.54 3.32643 0.642963 0
M  V30 2811 C 266.099 3.59818 1.10491 0
M  V30 2812 C 265.246 2.76954 0.138411 0
M  V30 2813 H 268.197 1.53803 -0.391193 0
M  V30 2814 H 268.218 3.49878 1.49551 0
M  V30 2815 H 267.73 3.87007 -0.291055 0
M  V30 2816 H 265.831 3.1086 2.05418 0
M  V30 2817 H 265.944 4.68178 1.01716 0
M  V30 2818 H 264.308 2.4666 0.634911 0
M  V30 2819 H 265.091 3.34097 -0.789549 0
M  V30 2820 N 267.536 -0.106894 1.57237 0
M  V30 2821 C 268.784 -0.810921 1.85117 0
M  V30 2822 C 269.105 -1.7984 0.753827 0
M  V30 2823 O 268.375 -1.94649 -0.221056 0
M  V30 2824 H 266.955 -0.302466 0.683025 0
M  V30 2825 H 269.617 -0.0913324 1.94686 0
M  V30 2826 H 268.713 -1.34875 2.81452 0
M  V30 2827 N 269.014 -1.53014 -0.377408 0
M  V30 2828 C 269.924 -1.81557 -1.48574 0
M  V30 2829 C 270.94 -0.703102 -1.59162 0
M  V30 2830 O 272.116 -0.99192 -1.75279 0
M  V30 2831 C 269.181 -1.9889 -2.83978 0
M  V30 2832 C 268.242 -3.22801 -2.83016 0
M  V30 2833 C 267.475 -3.39298 -4.11962 0
M  V30 2834 O 267.698 -2.60345 -5.0752 0
M  V30 2835 O 266.632 -4.32604 -4.18494 0
M  V30 2836 H 270.458 -2.75695 -1.27382 0
M  V30 2837 H 268.043 -1.38248 -0.566373 0
M  V30 2838 H 269.925 -2.11931 -3.6423 0
M  V30 2839 H 268.6 -1.07942 -3.05172 0
M  V30 2840 H 267.507 -3.15193 -2.01505 0
M  V30 2841 H 268.84 -4.13632 -2.66775 0
M  V30 2842 N 270.492 0.636531 -1.44174 0
M  V30 2843 C 271.422 1.76003 -1.53444 0
M  V30 2844 C 272.403 1.65619 -0.387841 0
M  V30 2845 O 273.588 1.84461 -0.607257 0
M  V30 2846 C 270.718 3.14511 -1.4731 0
M  V30 2847 C 269.672 3.39677 -2.60391 0
M  V30 2848 C 268.998 4.78159 -2.39308 0
M  V30 2849 C 270.298 3.32772 -4.02567 0
M  V30 2850 H 271.992 1.68501 -2.47483 0
M  V30 2851 H 269.538 0.809237 -1.19111 0
M  V30 2852 H 271.491 3.92878 -1.52397 0
M  V30 2853 H 270.215 3.22783 -0.49785 0
M  V30 2854 H 268.874 2.63688 -2.54684 0
M  V30 2855 H 268.522 4.83128 -1.39988 0
M  V30 2856 H 268.222 4.95956 -3.15122 0
M  V30 2857 H 269.746 5.58762 -2.46205 0
M  V30 2858 H 271.16 4.01051 -4.09672 0
M  V30 2859 H 269.557 3.62104 -4.7854 0
M  V30 2860 H 270.627 2.30669 -4.2652 0
M  V30 2861 N 271.97 1.30982 0.876444 0
M  V30 2862 C 272.9 1.20668 1.99903 0
M  V30 2863 C 273.881 0.095354 1.69833 0
M  V30 2864 O 275.066 0.27885 1.92188 0
M  V30 2865 C 272.196 0.90655 3.3526 0
M  V30 2866 C 271.15 1.97675 3.79617 0
M  V30 2867 C 270.476 1.52943 5.1236 0
M  V30 2868 C 271.776 3.389 3.97422 0
M  V30 2869 H 273.47 2.14586 2.0879 0
M  V30 2870 H 271.016 1.03308 1.00317 0
M  V30 2871 H 272.969 0.821025 4.13324 0
M  V30 2872 H 271.693 -0.0682969 3.26529 0
M  V30 2873 H 270.352 2.05205 3.03787 0
M  V30 2874 H 270 0.54262 5.00065 0
M  V30 2875 H 269.7 2.24532 5.43009 0
M  V30 2876 H 271.224 1.45786 5.92941 0
M  V30 2877 H 272.638 3.34081 4.659 0
M  V30 2878 H 271.035 4.0865 4.3946 0
M  V30 2879 H 272.105 3.80163 3.01006 0
M  V30 2880 N 273.449 -1.08991 1.13837 0
M  V30 2881 C 274.396 -2.15748 0.819835 0
M  V30 2882 C 275.366 -1.64636 -0.220026 0
M  V30 2883 O 276.551 -1.90582 -0.0912757 0
M  V30 2884 C 273.691 -3.4382 0.296913 0
M  V30 2885 C 272.804 -4.0881 1.39636 0
M  V30 2886 C 271.939 -5.24655 0.831314 0
M  V30 2887 C 270.978 -5.81575 1.90886 0
M  V30 2888 N 270.115 -6.88774 1.36142 0
M  V30 2889 H 274.955 -2.42338 1.73426 0
M  V30 2890 H 272.492 -1.18935 0.865613 0
M  V30 2891 H 274.45 -4.17193 -0.0244339 0
M  V30 2892 H 273.08 -3.17535 -0.580628 0
M  V30 2893 H 272.132 -3.33258 1.83422 0
M  V30 2894 H 273.444 -4.47141 2.21058 0
M  V30 2895 H 272.598 -6.04942 0.461515 0
M  V30 2896 H 271.337 -4.87698 -0.013932 0
M  V30 2897 H 270.342 -4.99946 2.28767 0
M  V30 2898 H 271.567 -6.20592 2.75758 0
M  V30 2899 H 269.513 -6.53788 0.538254 0
M  V30 2900 H 269.43 -7.25898 2.11208 0
M  V30 2901 H 270.698 -7.72806 1.01933 0
M  V30 2902 N 274.927 -0.932562 -1.27047 0
M  V30 2903 C 276.155 -0.592031 -1.98249 0
M  V30 2904 C 276.57 0.831062 -1.69525 0
M  V30 2905 O 275.927 1.55299 -0.958561 0
M  V30 2906 C 275.978 -0.814279 -3.5221 0
M  V30 2907 O 275.699 -2.18139 -3.7993 0
M  V30 2908 C 277.2 -0.483121 -4.4066 0
M  V30 2909 H 274.42 -0.223896 -0.632544 0
M  V30 2910 H 276.964 -1.25091 -1.61779 0
M  V30 2911 H 275.119 -0.20213 -3.86872 0
M  V30 2912 H 275.533 -2.235 -4.74498 0
M  V30 2913 H 277.007 -0.689298 -5.47679 0
M  V30 2914 H 277.484 0.581546 -4.35333 0
M  V30 2915 H 278.09 -1.07362 -4.11526 0
M  V30 2916 N 276.405 1.4127 -0.698611 0
M  V30 2917 C 277.651 2.01478 -0.231207 0
M  V30 2918 C 277.984 1.55215 1.16713 0
M  V30 2919 O 277.259 0.764672 1.78838 0
M  V30 2920 C 277.542 3.58912 -0.292281 0
M  V30 2921 C 277.395 4.15293 -1.72778 0
M  V30 2922 C 278.714 4.38736 0.346194 0
M  V30 2923 H 275.833 0.732025 -0.0854878 0
M  V30 2924 H 278.475 1.67977 -0.887906 0
M  V30 2925 H 276.625 3.87582 0.26686 0
M  V30 2926 H 278.297 3.97486 -2.341 0
M  V30 2927 H 276.54 3.7022 -2.26096 0
M  V30 2928 H 277.211 5.24452 -1.72202 0
M  V30 2929 H 279.687 4.15897 -0.130035 0
M  V30 2930 H 278.563 5.48221 0.272932 0
M  V30 2931 H 278.824 4.18425 1.42734 0
M  V30 2932 N 277.883 0.443576 1.51229 0
M  V30 2933 C 279.108 -0.121648 2.07043 0
M  V30 2934 C 279.533 -1.35156 1.30823 0
M  V30 2935 O 278.891 -1.7793 0.347934 0
M  V30 2936 C 278.939 -0.41624 3.5819 0
M  V30 2937 O 278.043 -1.50163 3.8409 0
M  V30 2938 H 277.384 0.000871367 0.663999 0
M  V30 2939 H 279.914 0.626706 1.94765 0
M  V30 2940 H 279.924 -0.664867 4.02546 0
M  V30 2941 H 278.599 0.482653 4.1309 0
M  V30 2942 H 277.176 -1.24248 3.51592 0
M  V30 2943 N 279.361 -1.56624 0.175154 0
M  V30 2944 C 280.591 -2.01082 -0.474283 0
M  V30 2945 C 280.999 -1.05447 -1.57091 0
M  V30 2946 O 280.342 -0.0480595 -1.83637 0
M  V30 2947 C 280.404 -3.41963 -1.10911 0
M  V30 2948 C 280.068 -4.56742 -0.153666 0
M  V30 2949 C 281.065 -5.16076 0.629448 0
M  V30 2950 C 278.75 -5.02277 -0.0483776 0
M  V30 2951 C 280.744 -6.19377 1.50501 0
M  V30 2952 C 278.431 -6.05427 0.830768 0
M  V30 2953 C 279.429 -6.63849 1.60605 0
M  V30 2954 O 279.117 -7.64998 2.47049 0
M  V30 2955 H 278.849 -0.664261 -0.125432 0
M  V30 2956 H 281.403 -2.03549 0.275163 0
M  V30 2957 H 279.633 -3.36422 -1.90676 0
M  V30 2958 H 281.322 -3.70352 -1.66114 0
M  V30 2959 H 282.088 -4.81776 0.558297 0
M  V30 2960 H 277.967 -4.56513 -0.641611 0
M  V30 2961 H 281.511 -6.64906 2.1106 0
M  V30 2962 H 277.408 -6.39151 0.903107 0
M  V30 2963 H 278.176 -7.82336 2.40607 0
M  V30 2964 N 280.839 0.0985539 -1.57292 0
M  V30 2965 C 281.786 1.11981 -2.01814 0
M  V30 2966 C 282.756 1.39999 -0.89384 0
M  V30 2967 O 283.941 1.5152 -1.15958 0
M  V30 2968 C 281.081 2.43577 -2.44467 0
M  V30 2969 C 280.194 2.2232 -3.70402 0
M  V30 2970 C 279.329 3.4729 -4.01949 0
M  V30 2971 C 278.368 3.2128 -5.21005 0
M  V30 2972 N 277.505 4.38507 -5.48321 0
M  V30 2973 H 282.345 0.733149 -2.88841 0
M  V30 2974 H 279.882 0.350482 -1.42864 0
M  V30 2975 H 281.84 3.20373 -2.6724 0
M  V30 2976 H 280.47 2.80097 -1.60455 0
M  V30 2977 H 279.522 1.36343 -3.55126 0
M  V30 2978 H 280.834 1.99089 -4.57345 0
M  V30 2979 H 279.988 4.32495 -4.25479 0
M  V30 2980 H 278.727 3.73572 -3.13521 0
M  V30 2981 H 277.732 2.34468 -4.97298 0
M  V30 2982 H 278.957 2.96348 -6.11028 0
M  V30 2983 H 276.903 4.64871 -4.62851 0
M  V30 2984 H 276.82 4.18455 -6.29628 0
M  V30 2985 H 278.088 5.24787 -5.76385 0
M  V30 2986 N 282.317 1.53212 0.369288 0
M  V30 2987 C 283.28 1.7872 1.43498 0
M  V30 2988 C 284.28 0.657554 1.46741 0
M  V30 2989 O 285.47 0.925736 1.47566 0
M  V30 2990 C 282.602 1.90591 2.82645 0
M  V30 2991 H 283.795 2.73894 1.22156 0
M  V30 2992 H 281.348 1.44233 0.602203 0
M  V30 2993 H 282.083 0.974709 3.09306 0
M  V30 2994 H 281.868 2.72751 2.8169 0
M  V30 2995 H 283.358 2.11931 3.59826 0
M  V30 2996 N 283.795 -0.628877 1.44509 0
M  V30 2997 C 285.035 -1.39993 1.48934 0
M  V30 2998 C 285.399 -1.91627 0.119604 0
M  V30 2999 O 286.6 -2.68772 0.0385283 0
M  V30 3000 C 284.871 -2.53241 2.52198 0
M  V30 3001 S 286.43 -3.41383 2.75687 0
M  V30 3002 H 283.248 -0.477558 0.526744 0
M  V30 3003 H 285.85 -0.727804 1.81448 0
M  V30 3004 H 284.554 -2.13622 3.50419 0
M  V30 3005 H 284.085 -3.25278 2.21264 0
M  V30 3006 H 286.1 -4.50752 2.07453 0
M  V30 3007 N 285.273 -1.31445 -0.869486 0
M  V30 3008 C 286.203 -1.21727 -1.99261 0
M  V30 3009 C 287.184 -0.104359 -1.6978 0
M  V30 3010 O 288.369 -0.289038 -1.92037 0
M  V30 3011 C 285.499 -0.924317 -3.34774 0
M  V30 3012 C 284.453 -1.99685 -3.78563 0
M  V30 3013 C 283.779 -1.55658 -5.11541 0
M  V30 3014 C 285.079 -3.41003 -3.95619 0
M  V30 3015 H 286.773 -2.1569 -2.07649 0
M  V30 3016 H 284.319 -1.03839 -0.997675 0
M  V30 3017 H 286.272 -0.842934 -4.12883 0
M  V30 3018 H 284.996 0.0509793 -3.2656 0
M  V30 3019 H 283.655 -2.06813 -3.02694 0
M  V30 3020 H 283.303 -0.569132 -4.9977 0
M  V30 3021 H 283.003 -2.27409 -5.41811 0
M  V30 3022 H 284.527 -1.48928 -5.92159 0
M  V30 3023 H 285.941 -3.36547 -4.64122 0
M  V30 3024 H 284.338 -4.10975 -4.37286 0
M  V30 3025 H 285.408 -3.81754 -2.98985 0
M  V30 3026 N 286.751 1.08385 -1.14413 0
M  V30 3027 C 288.162 1.62258 -0.923535 0
M  V30 3028 C 288.513 1.88691 0.537595 0
M  V30 3029 O 287.638 1.64454 1.40655 0
M  V30 3030 C 288.233 2.94781 -1.67002 0
M  V30 3031 C 286.792 3.45437 -1.495 0
M  V30 3032 C 285.939 2.19668 -1.69238 0
M  V30 3033 H 288.89 0.916086 -1.2959 0
M  V30 3034 H 288.911 3.63229 -1.13334 0
M  V30 3035 H 288.423 2.7551 -2.73342 0
M  V30 3036 H 286.524 3.6981 -0.455097 0
M  V30 3037 H 286.637 4.22173 -2.2651 0
M  V30 3038 H 285.001 2.28849 -1.11804 0
M  V30 3039 H 285.784 2.02905 -2.7692 0
M  V30 3040 N 288.23 0.939286 1.26551 0
M  V30 3041 C 289.641 0.628782 1.75793 0
M  V30 3042 C 289.992 -0.856046 1.7654 0
M  V30 3043 O 289.117 -1.66994 1.3763 0
M  V30 3044 C 289.712 1.13465 3.19235 0
M  V30 3045 C 288.271 0.874601 3.66098 0
M  V30 3046 C 287.418 1.28667 2.45642 0
M  V30 3047 H 290.369 1.1178 1.12654 0
M  V30 3048 H 290.39 0.487609 3.77363 0
M  V30 3049 H 289.902 2.21535 3.1866 0
M  V30 3050 H 288.003 -0.191793 3.72106 0
M  V30 3051 H 288.116 1.50028 4.55004 0
M  V30 3052 H 286.48 0.705109 2.44745 0
M  V30 3053 H 287.263 2.37625 2.47769 0
M  V30 3054 N 289.708 -1.40897 0.706093 0
M  V30 3055 C 290.933 -2.05895 0.249435 0
M  V30 3056 C 291.358 -1.52823 -1.09666 0
M  V30 3057 O 290.716 -0.659589 -1.68876 0
M  V30 3058 C 290.764 -3.59872 0.22904 0
M  V30 3059 O 289.868 -4.04708 -0.792784 0
M  V30 3060 H 289.209 -0.653206 0.119241 0
M  V30 3061 H 291.739 -1.80471 0.96391 0
M  V30 3062 H 291.749 -4.07951 0.0634791 0
M  V30 3063 H 290.424 -3.97866 1.21141 0
M  V30 3064 H 289.001 -3.68111 -0.59572 0
M  V30 3065 N 291.186 -0.45159 -1.50991 0
M  V30 3066 C 292.116 0.342898 -2.30969 0
M  V30 3067 C 293.097 1.00815 -1.37005 0
M  V30 3068 O 294.282 1.00907 -1.65926 0
M  V30 3069 C 291.412 1.43637 -3.16205 0
M  V30 3070 C 290.366 0.893818 -4.18563 0
M  V30 3071 C 289.692 2.08411 -4.92411 0
M  V30 3072 C 290.992 -0.0815568 -5.22236 0
M  V30 3073 H 292.686 -0.324556 -2.97636 0
M  V30 3074 H 290.232 -0.157531 -1.43136 0
M  V30 3075 H 292.185 1.9995 -3.70942 0
M  V30 3076 H 290.909 2.13232 -2.47386 0
M  V30 3077 H 289.568 0.352798 -3.64898 0
M  V30 3078 H 289.216 2.76658 -4.20082 0
M  V30 3079 H 288.916 1.72741 -5.61636 0
M  V30 3080 H 290.44 2.65251 -5.49976 0
M  V30 3081 H 291.854 0.391742 -5.7196 0
M  V30 3082 H 290.251 -0.351551 -5.99069 0
M  V30 3083 H 291.321 -1.01374 -4.74185 0
M  V30 3084 N 292.664 1.56529 -0.183458 0
M  V30 3085 C 294.08 1.58664 0.172554 0
M  V30 3086 C 294.28 1.19925 1.61926 0
M  V30 3087 O 293.336 0.916534 2.35278 0
M  V30 3088 C 294.649 3.00463 -0.119262 0
M  V30 3089 C 296.197 3.12945 -0.0584396 0
M  V30 3090 C 296.672 4.56857 -0.323408 0
M  V30 3091 N 298.163 4.62403 -0.271612 0
M  V30 3092 C 298.898 5.71626 -0.450639 0
M  V30 3093 N 298.394 6.89362 -0.689384 0
M  V30 3094 N 300.187 5.60775 -0.385701 0
M  V30 3095 H 292.338 1.79994 -1.12765 0
M  V30 3096 H 294.601 0.834808 -0.449222 0
M  V30 3097 H 294.307 3.33326 -1.12192 0
M  V30 3098 H 294.181 3.72659 0.583544 0
M  V30 3099 H 296.568 2.79902 0.934805 0
M  V30 3100 H 296.649 2.4316 -0.794144 0
M  V30 3101 H 296.293 4.9061 -1.31392 0
M  V30 3102 H 296.223 5.24816 0.43305 0
M  V30 3103 H 298.714 3.77785 -0.0932256 0
M  V30 3104 H 299.027 7.68489 -0.815113 0
M  V30 3105 H 297.372 6.91196 -0.726142 0
M  V30 3106 H 300.563 4.67674 -0.199687 0
M  V30 3107 H 300.736 6.4584 -0.528646 0
M  V30 3108 N 294.142 -0.090211 1.57342 0
M  V30 3109 C 295.419 -0.824761 1.77361 0
M  V30 3110 C 295.799 -1.96698 0.76637 0
M  V30 3111 O 295.147 -2.27586 -0.204179 0
M  V30 3112 C 295.357 -1.31481 3.23286 0
M  V30 3113 C 296.705 -1.75563 3.86604 0
M  V30 3114 O 297.729 -1.41093 3.27065 0
M  V30 3115 O 296.588 -2.39317 4.91314 0
M  V30 3116 H 293.682 -0.393776 0.727234 0
M  V30 3117 H 296.228 -0.0717138 1.69548 0
M  V30 3118 H 295 -0.496671 3.88135 0
M  V30 3119 H 294.623 -2.12973 3.35751 0
M  V30 3120 N 295.62 -1.53406 -0.361157 0
M  V30 3121 C 296.55 -1.83136 -1.44857 0
M  V30 3122 C 297.531 -0.685174 -1.5569 0
M  V30 3123 O 298.716 -0.93544 -1.70186 0
M  V30 3124 C 295.846 -2.02522 -2.82138 0
M  V30 3125 C 294.8 -3.18302 -2.86126 0
M  V30 3126 C 294.126 -3.22989 -4.26125 0
M  V30 3127 C 295.426 -4.56796 -2.53248 0
M  V30 3128 H 297.12 -2.74201 -1.20226 0
M  V30 3129 H 294.666 -1.31938 -0.576922 0
M  V30 3130 H 296.619 -2.21904 -3.58241 0
M  V30 3131 H 295.343 -1.08172 -3.08166 0
M  V30 3132 H 294.002 -2.98747 -2.12475 0
M  V30 3133 H 293.65 -2.26267 -4.49235 0
M  V30 3134 H 293.35 -4.00781 -4.29708 0
M  V30 3135 H 294.874 -3.44559 -5.04094 0
M  V30 3136 H 296.288 -4.7631 -3.19064 0
M  V30 3137 H 294.685 -5.36862 -2.68141 0
M  V30 3138 H 295.755 -4.61606 -1.48484 0
M  V30 3139 N 297.098 0.621204 -1.44841 0
M  V30 3140 C 298.347 1.37658 -1.47422 0
M  V30 3141 C 298.66 1.95264 -0.114629 0
M  V30 3142 O 299.866 2.71494 -0.0180199 0
M  V30 3143 C 298.322 2.49285 -2.59586 0
M  V30 3144 C 297.93 1.98149 -4.01797 0
M  V30 3145 C 299.674 3.26409 -2.71399 0
M  V30 3146 C 297.581 3.07178 -5.05367 0
M  V30 3147 H 296.511 0.517344 -0.548517 0
M  V30 3148 H 299.162 0.667257 -1.70938 0
M  V30 3149 H 297.544 3.22839 -2.29328 0
M  V30 3150 H 298.718 1.31395 -4.41669 0
M  V30 3151 H 297.033 1.33812 -3.94314 0
M  V30 3152 H 299.63 4.07706 -3.45948 0
M  V30 3153 H 299.973 3.76535 -1.77559 0
M  V30 3154 H 300.506 2.5995 -3.01116 0
M  V30 3155 H 297.245 2.61985 -6.00869 0
M  V30 3156 H 296.765 3.72542 -4.70077 0
M  V30 3157 H 298.444 3.71789 -5.29511 0
M  V30 3158 N 298.576 1.31904 0.862503 0
M  V30 3159 C 299.508 1.16005 1.97675 0
M  V30 3160 C 300.521 0.0971234 1.6251 0
M  V30 3161 O 301.71 0.345337 1.75128 0
M  V30 3162 C 298.81 0.751791 3.30456 0
M  V30 3163 C 297.983 1.90133 3.93914 0
M  V30 3164 C 297.042 1.4779 5.05019 0
M  V30 3165 O 296.068 2.18872 5.25437 0
M  V30 3166 N 297.27 0.369491 5.79323 0
M  V30 3167 H 300.035 2.11982 2.11857 0
M  V30 3168 H 297.596 1.24337 1.03691 0
M  V30 3169 H 299.588 0.451084 4.02178 0
M  V30 3170 H 298.158 -0.116593 3.12382 0
M  V30 3171 H 297.378 2.36896 3.15078 0
M  V30 3172 H 298.666 2.67111 4.33047 0
M  V30 3173 H 298.064 -0.222299 5.65263 0
M  V30 3174 H 296.621 0.128354 6.51674 0
M  V30 3175 N 300.054 -1.07777 1.14986 0
M  V30 3176 C 301.302 -1.79934 0.920235 0
M  V30 3177 C 301.623 -1.86955 -0.554336 0
M  V30 3178 O 300.893 -1.36731 -1.40291 0
M  V30 3179 H 299.473 -0.666424 0.337473 0
M  V30 3180 H 302.135 -1.3027 1.44968 0
M  V30 3181 H 301.231 -2.82539 1.32583 0
M  V30 3182 N 301.532 -0.945985 -1.26051 0
M  V30 3183 C 302.462 -0.477172 -2.28572 0
M  V30 3184 C 303.443 0.472032 -1.63419 0
M  V30 3185 O 304.628 0.372853 -1.90587 0
M  V30 3186 C 301.758 0.253975 -3.4637 0
M  V30 3187 C 300.712 -0.609135 -4.23643 0
M  V30 3188 C 300.038 0.252252 -5.34105 0
M  V30 3189 C 301.338 -1.8829 -4.8718 0
M  V30 3190 H 303.032 -1.33402 -2.68038 0
M  V30 3191 H 300.578 -0.642904 -1.28852 0
M  V30 3192 H 302.531 0.593016 -4.17207 0
M  V30 3193 H 301.255 1.145 -3.05871 0
M  V30 3194 H 299.914 -0.931138 -3.54578 0
M  V30 3195 H 299.562 1.14278 -4.89846 0
M  V30 3196 H 299.262 -0.32188 -5.86718 0
M  V30 3197 H 300.786 0.586454 -6.07777 0
M  V30 3198 H 302.2 -1.61081 -5.50205 0
M  V30 3199 H 300.597 -2.40199 -5.49931 0
M  V30 3200 H 301.667 -2.59134 -4.09851 0
M  V30 3201 N 303.011 1.40521 -0.713556 0
M  V30 3202 C 304.236 2.05759 -0.26035 0
M  V30 3203 C 304.661 1.53403 1.08854 0
M  V30 3204 O 304.019 0.668535 1.68524 0
M  V30 3205 C 304.067 3.59745 -0.248122 0
M  V30 3206 O 303.171 4.05123 0.77131 0
M  V30 3207 H 302.512 0.652564 -0.122703 0
M  V30 3208 H 305.042 1.79958 -0.973467 0
M  V30 3209 H 305.052 4.07911 -0.0851129 0
M  V30 3210 H 303.727 3.97218 -1.2325 0
M  V30 3211 H 302.304 3.68422 0.57619 0
M  V30 3212 N 304.489 0.459591 1.5075 0
M  V30 3213 C 305.736 -0.0993495 2.02256 0
M  V30 3214 C 306.064 -1.40751 1.34237 0
M  V30 3215 O 305.319 -1.90379 0.453228 0
M  V30 3216 C 305.618 -0.342866 3.55752 0
M  V30 3217 C 305.284 0.88218 4.42186 0
M  V30 3218 C 303.946 1.21808 4.65528 0
M  V30 3219 C 306.298 1.69837 4.92752 0
M  V30 3220 C 303.626 2.37045 5.36681 0
M  V30 3221 C 305.978 2.84192 5.65171 0
M  V30 3222 C 304.642 3.1821 5.8677 0
M  V30 3223 H 303.912 -0.0363545 0.740108 0
M  V30 3224 H 306.559 0.611329 1.8148 0
M  V30 3225 H 304.864 -1.13567 3.7498 0
M  V30 3226 H 306.561 -0.789121 3.93159 0
M  V30 3227 H 303.151 0.610467 4.2423 0
M  V30 3228 H 307.335 1.45205 4.74583 0
M  V30 3229 H 302.591 2.63689 5.51614 0
M  V30 3230 H 306.765 3.4779 6.03337 0
M  V30 3231 H 304.392 4.07613 6.41682 0
M  V30 3232 N 305.967 -1.56429 0.191757 0
M  V30 3233 C 307.213 -1.97777 -0.448554 0
M  V30 3234 C 307.546 -1.07847 -1.61501 0
M  V30 3235 O 306.821 -0.129774 -1.94067 0
M  V30 3236 C 307.104 -3.48362 -0.911906 0
M  V30 3237 C 306.957 -4.4907 0.256136 0
M  V30 3238 C 308.276 -4.02561 -1.77857 0
M  V30 3239 H 305.395 -0.719071 -0.161572 0
M  V30 3240 H 308.037 -1.87896 0.282007 0
M  V30 3241 H 306.187 -3.56914 -1.53442 0
M  V30 3242 H 307.859 -4.5256 0.893733 0
M  V30 3243 H 306.102 -4.24181 0.908436 0
M  V30 3244 H 306.773 -5.51889 -0.11053 0
M  V30 3245 H 309.249 -3.96767 -1.25359 0
M  V30 3246 H 308.125 -5.08301 -2.07174 0
M  V30 3247 H 308.386 -3.47616 -2.73158 0
M  V30 3248 N 307.445 0.0818655 -1.57387 0
M  V30 3249 C 308.673 0.796108 -1.9097 0
M  V30 3250 C 309.088 1.71626 -0.786757 0
M  V30 3251 O 308.445 1.80908 0.240513 0
M  V30 3252 C 308.496 1.59829 -3.24248 0
M  V30 3253 O 308.217 0.715131 -4.32224 0
M  V30 3254 C 309.718 2.41442 -3.7178 0
M  V30 3255 H 306.938 0.22691 -0.631469 0
M  V30 3256 H 309.482 0.0551439 -2.04426 0
M  V30 3257 H 307.637 2.29163 -3.12351 0
M  V30 3258 H 308.051 1.27205 -5.08841 0
M  V30 3259 H 309.525 2.932 -4.67694 0
M  V30 3260 H 310.002 3.2051 -3.00283 0
M  V30 3261 H 310.608 1.77283 -3.86589 0
M  V30 3262 N 308.923 1.53595 0.353017 0
M  V30 3263 C 310.339 1.43648 0.695516 0
M  V30 3264 C 310.539 0.585617 1.92802 0
M  V30 3265 O 309.595 0.0729223 2.52395 0
M  V30 3266 C 310.908 2.8701 0.896991 0
M  V30 3267 C 312.456 2.96723 0.996209 0
M  V30 3268 C 312.931 4.41173 1.23007 0
M  V30 3269 N 314.422 4.44657 1.29749 0
M  V30 3270 C 315.157 5.53547 1.49577 0
M  V30 3271 N 314.653 6.72461 1.66639 0
M  V30 3272 N 316.446 5.41145 1.52048 0
M  V30 3273 H 308.597 2.07415 -0.457481 0
M  V30 3274 H 310.86 0.9372 -0.142687 0
M  V30 3275 H 310.566 3.51644 0.0629938 0
M  V30 3276 H 310.44 3.31401 1.80148 0
M  V30 3277 H 312.827 2.32235 1.82074 0
M  V30 3278 H 312.908 2.55707 0.0688331 0
M  V30 3279 H 312.552 5.06238 0.410505 0
M  V30 3280 H 312.482 4.79772 2.17086 0
M  V30 3281 H 314.973 3.58963 1.18126 0
M  V30 3282 H 315.286 7.51214 1.81378 0
M  V30 3283 H 313.631 6.75423 1.63794 0
M  V30 3284 H 316.822 4.47205 1.38294 0
M  V30 3285 H 316.995 6.26068 1.67159 0
M  V30 3286 N 310.401 -0.613514 1.45168 0
M  V30 3287 C 311.817 -0.933629 1.29443 0
M  V30 3288 C 312.017 -2.00028 0.243101 0
M  V30 3289 O 311.073 -2.49848 -0.364992 0
M  V30 3290 C 312.386 -1.38018 2.67155 0
M  V30 3291 C 313.934 -1.49471 2.75004 0
M  V30 3292 C 314.409 -1.97503 4.13227 0
M  V30 3293 N 315.9 -2.04746 4.15491 0
M  V30 3294 C 316.635 -2.43121 5.19307 0
M  V30 3295 N 316.131 -2.80506 6.33473 0
M  V30 3296 N 317.924 -2.43408 5.06664 0
M  V30 3297 H 310.075 0.0916097 2.12202 0
M  V30 3298 H 312.338 -0.0216655 0.947752 0
M  V30 3299 H 312.044 -0.670625 3.45247 0
M  V30 3300 H 311.918 -2.34784 2.95222 0
M  V30 3301 H 314.305 -2.19519 1.9722 0
M  V30 3302 H 314.386 -0.510342 2.50657 0
M  V30 3303 H 314.03 -1.28045 4.91495 0
M  V30 3304 H 313.96 -2.96843 4.34962 0
M  V30 3305 H 316.451 -1.78468 3.33103 0
M  V30 3306 H 316.764 -3.08652 7.08487 0
M  V30 3307 H 315.109 -2.78216 6.36884 0
M  V30 3308 H 318.3 -2.13604 4.16523 0
M  V30 3309 H 318.473 -2.72989 5.87691 0
M  V30 3310 N 311.879 -1.3236 -0.855495 0
M  V30 3311 C 313.295 -1.11332 -1.14356 0
M  V30 3312 C 313.495 0.106751 -2.01217 0
M  V30 3313 O 312.551 0.791891 -2.39761 0
M  V30 3314 C 313.864 -2.39237 -1.82171 0
M  V30 3315 C 315.412 -2.44986 -1.9481 0
M  V30 3316 C 315.887 -3.7281 -2.66039 0
M  V30 3317 N 317.378 -3.73787 -2.73565 0
M  V30 3318 C 318.113 -4.69394 -3.29327 0
M  V30 3319 N 317.609 -5.75367 -3.85907 0
M  V30 3320 N 319.402 -4.56893 -3.27423 0
M  V30 3321 H 311.553 -2.10586 -0.277027 0
M  V30 3322 H 313.816 -0.929701 -0.185364 0
M  V30 3323 H 313.522 -3.28431 -1.25802 0
M  V30 3324 H 313.396 -2.50134 -2.82335 0
M  V30 3325 H 315.783 -1.56252 -2.50338 0
M  V30 3326 H 315.864 -2.38043 -0.936448 0
M  V30 3327 H 315.508 -4.61918 -2.11174 0
M  V30 3328 H 315.438 -3.77024 -3.67642 0
M  V30 3329 H 317.929 -2.97189 -2.33424 0
M  V30 3330 H 318.242 -6.44378 -4.26611 0
M  V30 3331 H 316.587 -5.79123 -3.84242 0
M  V30 3332 H 319.778 -3.73269 -2.82467 0
M  V30 3333 H 319.951 -5.31577 -3.7058 0
M  V30 3334 N 313.357 1.07166 -1.15556 0
M  V30 3335 C 314.606 1.79181 -0.926132 0
M  V30 3336 C 314.919 1.87768 0.547967 0
M  V30 3337 O 316.125 2.56323 0.895036 0
M  V30 3338 C 314.581 3.22 -1.60761 0
M  V30 3339 C 314.189 3.21607 -3.11886 0
M  V30 3340 C 315.933 3.9861 -1.4598 0
M  V30 3341 C 313.84 4.59092 -3.72812 0
M  V30 3342 H 312.77 0.67154 -0.342856 0
M  V30 3343 H 315.421 1.2027 -1.3859 0
M  V30 3344 H 313.803 3.81115 -1.07553 0
M  V30 3345 H 314.977 2.72127 -3.71865 0
M  V30 3346 H 313.292 2.58495 -3.2645 0
M  V30 3347 H 315.889 5.00225 -1.88888 0
M  V30 3348 H 316.232 4.143 -0.407541 0
M  V30 3349 H 316.765 3.45996 -1.96295 0
M  V30 3350 H 313.504 4.48606 -4.77946 0
M  V30 3351 H 313.024 5.08803 -3.17616 0
M  V30 3352 H 314.703 5.28059 -3.73848 0
M  V30 3353 N 314.835 0.952656 1.25548 0
M  V30 3354 C 316.251 0.656769 1.4546 0
M  V30 3355 C 316.451 -0.78633 1.85524 0
M  V30 3356 O 315.507 -1.56183 1.98402 0
M  V30 3357 C 316.82 1.62801 2.52817 0
M  V30 3358 C 318.368 1.63897 2.66659 0
M  V30 3359 C 318.843 2.5978 3.77198 0
M  V30 3360 N 320.334 2.58133 3.84606 0
M  V30 3361 C 321.069 3.29003 4.69621 0
M  V30 3362 N 320.565 4.09339 5.58939 0
M  V30 3363 N 322.358 3.179 4.63569 0
M  V30 3364 H 314.509 1.88526 0.978344 0
M  V30 3365 H 316.772 0.810815 0.491206 0
M  V30 3366 H 316.478 2.65869 2.30232 0
M  V30 3367 H 316.352 1.38898 3.50695 0
M  V30 3368 H 318.739 0.615481 2.8861 0
M  V30 3369 H 318.82 1.91858 1.69187 0
M  V30 3370 H 318.464 3.62254 3.55997 0
M  V30 3371 H 318.394 2.29105 4.7415 0
M  V30 3372 H 320.885 1.99809 3.20757 0
M  V30 3373 H 321.198 4.6034 6.20731 0
M  V30 3374 H 319.543 4.13438 5.58654 0
M  V30 3375 H 322.734 2.54612 3.92798 0
M  V30 3376 H 322.907 3.73398 5.29602 0
M  V30 3377 N 316.313 -1.40141 0.720998 0
M  V30 3378 C 317.729 -1.54632 0.395113 0
M  V30 3379 C 317.929 -1.69115 -1.09555 0
M  V30 3380 O 316.985 -1.68377 -1.88163 0
M  V30 3381 C 318.298 -2.77177 1.1659 0
M  V30 3382 C 319.846 -2.91 1.15274 0
M  V30 3383 C 320.321 -4.16465 1.90579 0
M  V30 3384 N 321.812 -4.23476 1.87675 0
M  V30 3385 C 322.547 -5.19475 2.42762 0
M  V30 3386 N 322.043 -6.21348 3.06428 0
M  V30 3387 N 323.836 -5.11592 2.32874 0
M  V30 3388 H 315.987 -1.28986 1.68749 0
M  V30 3389 H 318.25 -0.62412 0.713567 0
M  V30 3390 H 317.956 -2.72771 2.22011 0
M  V30 3391 H 317.83 -3.69442 0.76108 0
M  V30 3392 H 320.217 -2.94907 0.106702 0
M  V30 3393 H 320.298 -1.99838 1.59682 0
M  V30 3394 H 319.942 -4.1332 2.95176 0
M  V30 3395 H 319.872 -5.06646 1.43587 0
M  V30 3396 H 322.363 -3.50497 1.41281 0
M  V30 3397 H 322.676 -6.91034 3.45965 0
M  V30 3398 H 321.021 -6.21777 3.10514 0
M  V30 3399 H 324.212 -4.30936 1.82789 0
M  V30 3400 H 324.385 -5.86233 2.76106 0
M  V30 3401 N 317.792 -0.46758 -1.50504 0
M  V30 3402 C 319.02 0.0864133 -2.06719 0
M  V30 3403 C 319.435 1.33819 -1.33184 0
M  V30 3404 O 318.792 1.78061 -0.400083 0
M  V30 3405 C 318.843 0.378079 -3.59517 0
M  V30 3406 O 318.564 -0.824044 -4.3028 0
M  V30 3407 C 320.065 0.979426 -4.32345 0
M  V30 3408 H 317.285 -0.00551697 -0.670977 0
M  V30 3409 H 319.829 -0.655354 -1.93715 0
M  V30 3410 H 317.984 1.06977 -3.72337 0
M  V30 3411 H 318.398 -0.566518 -5.21432 0
M  V30 3412 H 319.872 1.1333 -5.40241 0
M  V30 3413 H 320.349 1.9686 -3.9261 0
M  V30 3414 H 320.955 0.326216 -4.24047 0
M  V30 3415 N 319.27 1.56325 -0.20005 0
M  V30 3416 C 320.516 1.98012 0.438059 0
M  V30 3417 C 320.849 1.08702 1.60927 0
M  V30 3418 O 320.124 0.140064 1.93995 0
M  V30 3419 C 320.407 3.48841 0.893419 0
M  V30 3420 C 320.26 4.48928 -0.279947 0
M  V30 3421 C 321.579 4.03498 1.75719 0
M  V30 3422 H 318.698 0.719918 0.157757 0
M  V30 3423 H 321.34 1.87743 -0.291968 0
M  V30 3424 H 319.49 3.57723 1.51547 0
M  V30 3425 H 321.162 4.52079 -0.91772 0
M  V30 3426 H 319.405 4.23694 -0.930919 0
M  V30 3427 H 320.076 5.5194 0.0812601 0
M  V30 3428 H 322.552 3.97427 1.23253 0
M  V30 3429 H 321.428 5.09393 2.04476 0
M  V30 3430 H 321.689 3.4906 2.71311 0
M  V30 3431 N 320.748 -0.0735177 1.57428 0
M  V30 3432 C 322.164 -0.428264 1.53747 0
M  V30 3433 C 322.364 -1.79272 0.91998 0
M  V30 3434 O 321.42 -2.47051 0.521745 0
M  V30 3435 C 322.733 -0.370914 2.98404 0
M  V30 3436 C 324.281 -0.451224 3.0973 0
M  V30 3437 C 324.756 -0.4238 4.56035 0
M  V30 3438 N 326.247 -0.483925 4.60665 0
M  V30 3439 C 326.982 -0.484891 5.71346 0
M  V30 3440 N 326.478 -0.440775 6.91396 0
M  V30 3441 N 328.271 -0.531319 5.59583 0
M  V30 3442 H 320.422 0.819949 1.95935 0
M  V30 3443 H 322.685 0.307493 0.896745 0
M  V30 3444 H 322.391 0.564956 3.47133 0
M  V30 3445 H 322.265 -1.18176 3.5821 0
M  V30 3446 H 324.652 -1.37752 2.60976 0
M  V30 3447 H 324.733 0.388167 2.52838 0
M  V30 3448 H 324.377 0.498638 5.05446 0
M  V30 3449 H 324.307 -1.2807 5.10789 0
M  V30 3450 H 326.798 -0.522338 3.74273 0
M  V30 3451 H 327.111 -0.44539 7.71515 0
M  V30 3452 H 325.456 -0.40749 6.93804 0
M  V30 3453 H 328.647 -0.563464 4.64696 0
M  V30 3454 H 328.82 -0.528603 6.4584 0
M  V30 3455 N 322.226 -1.5378 -0.344866 0
M  V30 3456 C 323.642 -1.44015 -0.687888 0
M  V30 3457 C 323.842 -0.595834 -1.92489 0
M  V30 3458 O 322.898 -0.0863064 -2.52352 0
M  V30 3459 C 324.211 -2.87481 -0.881758 0
M  V30 3460 C 325.759 -2.97247 -0.980459 0
M  V30 3461 C 326.234 -4.41819 -1.20665 0
M  V30 3462 N 327.725 -4.45339 -1.27389 0
M  V30 3463 C 328.46 -5.54333 -1.46639 0
M  V30 3464 N 327.956 -6.73335 -1.63071 0
M  V30 3465 N 329.749 -5.41944 -1.49176 0
M  V30 3466 H 321.9 -2.07169 0.468475 0
M  V30 3467 H 324.163 -0.93643 0.147655 0
M  V30 3468 H 323.869 -3.51672 -0.0443444 0
M  V30 3469 H 323.743 -3.32352 -1.78388 0
M  V30 3470 H 326.13 -2.33197 -1.8084 0
M  V30 3471 H 326.211 -2.5574 -0.0552713 0
M  V30 3472 H 325.855 -5.06449 -0.383652 0
M  V30 3473 H 325.785 -4.80917 -2.14539 0
M  V30 3474 H 328.276 -3.59585 -1.1622 0
M  V30 3475 H 328.589 -7.52165 -1.77391 0
M  V30 3476 H 326.934 -6.76282 -1.60209 0
M  V30 3477 H 330.125 -4.47932 -1.3592 0
M  V30 3478 H 330.298 -6.26946 -1.63837 0
M  V30 3479 N 323.704 0.605807 -1.45491 0
M  V30 3480 C 324.667 1.69836 -1.5391 0
M  V30 3481 C 325.667 1.55261 -0.418424 0
M  V30 3482 O 326.857 1.60296 -0.681965 0
M  V30 3483 C 323.989 3.09117 -1.43734 0
M  V30 3484 H 325.182 1.63738 -2.51257 0
M  V30 3485 H 322.735 0.821689 -1.32959 0
M  V30 3486 H 323.47 3.20791 -0.475788 0
M  V30 3487 H 323.255 3.21104 -2.25021 0
M  V30 3488 H 324.745 3.88696 -1.52661 0
M  V30 3489 N 325.182 1.32811 0.848464 0
M  V30 3490 C 326.112 1.24882 1.97299 0
M  V30 3491 C 327.093 0.131357 1.69592 0
M  V30 3492 O 328.278 0.319553 1.91553 0
M  V30 3493 C 325.408 0.97746 3.33261 0
M  V30 3494 C 324.362 2.05682 3.75338 0
M  V30 3495 C 323.688 1.63777 5.09 0
M  V30 3496 C 324.988 3.47254 3.90144 0
M  V30 3497 H 326.682 2.18966 2.04191 0
M  V30 3498 H 324.228 1.05413 0.981029 0
M  V30 3499 H 326.181 0.908513 4.1149 0
M  V30 3500 H 324.905 0.000980011 3.266 0
M  V30 3501 H 323.564 2.11603 2.99366 0
M  V30 3502 H 323.212 0.648569 4.98801 0
M  V30 3503 H 322.912 2.36 5.38124 0
M  V30 3504 H 324.436 1.5833 5.89715 0
M  V30 3505 H 325.85 3.43888 4.58709 0
M  V30 3506 H 324.247 4.1788 4.30693 0
M  V30 3507 H 325.317 3.86462 2.92874 0
M  V30 3508 N 326.66 -1.06551 1.16123 0
M  V30 3509 C 328.076 -1.3142 0.905585 0
M  V30 3510 C 328.276 -1.96571 -0.442964 0
M  V30 3511 O 327.332 -2.23068 -1.18308 0
M  V30 3512 C 328.645 -2.19741 2.05267 0
M  V30 3513 C 330.193 -2.33165 2.08813 0
M  V30 3514 C 330.668 -3.24838 3.22868 0
M  V30 3515 N 332.159 -3.32421 3.22568 0
M  V30 3516 C 332.894 -4.0344 4.0746 0
M  V30 3517 N 332.39 -4.77003 5.02434 0
M  V30 3518 N 334.183 -3.99464 3.95456 0
M  V30 3519 H 326.334 -0.626548 2.02949 0
M  V30 3520 H 328.597 -0.338777 0.8854 0
M  V30 3521 H 328.303 -1.79142 3.02657 0
M  V30 3522 H 328.177 -3.20313 1.99198 0
M  V30 3523 H 330.564 -2.73013 1.12018 0
M  V30 3524 H 330.645 -1.3227 2.18948 0
M  V30 3525 H 330.289 -2.85708 4.19921 0
M  V30 3526 H 330.219 -4.25707 3.0997 0
M  V30 3527 H 332.71 -2.79994 2.53795 0
M  V30 3528 H 333.023 -5.28712 5.63634 0
M  V30 3529 H 331.368 -4.75992 5.06415 0
M  V30 3530 H 334.559 -3.4111 3.20564 0
M  V30 3531 H 334.732 -4.54544 4.61837 0
M  V30 3532 N 328.138 -0.959301 -1.25041 0
M  V30 3533 C 329.554 -0.664474 -1.4511 0
M  V30 3534 C 329.754 0.776481 -1.85938 0
M  V30 3535 O 328.81 1.55128 -1.99227 0
M  V30 3536 C 330.123 -1.64139 -2.5195 0
M  V30 3537 C 331.671 -1.65309 -2.65786 0
M  V30 3538 C 332.146 -2.61777 -3.75815 0
M  V30 3539 N 333.637 -2.60169 -3.83231 0
M  V30 3540 C 334.372 -3.31489 -4.6787 0
M  V30 3541 N 333.868 -4.12298 -5.56761 0
M  V30 3542 N 335.661 -3.20354 -4.61876 0
M  V30 3543 H 327.812 -1.89043 -0.968332 0
M  V30 3544 H 330.075 -0.813408 -0.4869 0
M  V30 3545 H 329.781 -2.67086 -2.28819 0
M  V30 3546 H 329.655 -1.40756 -3.49954 0
M  V30 3547 H 332.042 -0.630778 -2.8828 0
M  V30 3548 H 332.123 -1.92753 -1.68167 0
M  V30 3549 H 331.767 -3.64137 -3.54071 0
M  V30 3550 H 331.697 -2.31616 -4.72929 0
M  V30 3551 H 334.188 -2.01507 -3.19692 0
M  V30 3552 H 334.501 -4.63625 -6.18281 0
M  V30 3553 H 332.846 -4.16395 -5.56454 0
M  V30 3554 H 336.037 -2.56692 -3.91442 0
M  V30 3555 H 336.21 -3.76201 -5.27614 0
M  V30 3556 N 329.616 1.39756 -0.72842 0
M  V30 3557 C 330.862 2.00942 -0.273892 0
M  V30 3558 C 331.195 1.57656 1.13394 0
M  V30 3559 O 330.47 0.802434 1.77176 0
M  V30 3560 C 330.753 3.58211 -0.368346 0
M  V30 3561 C 330.606 4.11534 -1.81548 0
M  V30 3562 C 331.925 4.39372 0.253054 0
M  V30 3563 H 329.044 0.730047 -0.100996 0
M  V30 3564 H 331.686 1.66056 -0.923337 0
M  V30 3565 H 329.836 3.88061 0.184588 0
M  V30 3566 H 331.508 3.92431 -2.42478 0
M  V30 3567 H 329.751 3.65341 -2.33898 0
M  V30 3568 H 330.422 5.20682 -1.83288 0
M  V30 3569 H 332.898 4.15527 -0.218224 0
M  V30 3570 H 331.774 5.48677 0.156585 0
M  V30 3571 H 332.035 4.21358 1.33826 0
M  V30 3572 N 331.094 0.475555 1.50254 0
M  V30 3573 C 332.057 -0.305016 2.27161 0
M  V30 3574 C 333.057 -0.916519 1.32123 0
M  V30 3575 O 334.247 -0.785003 1.5551 0
M  V30 3576 C 331.379 -1.43496 3.09227 0
M  V30 3577 H 332.572 0.369511 2.97615 0
M  V30 3578 H 330.125 0.229747 1.54602 0
M  V30 3579 H 330.86 -2.14441 2.43281 0
M  V30 3580 H 330.645 -1.00223 3.79075 0
M  V30 3581 H 332.135 -1.98548 3.67381 0
M  V30 3582 N 332.573 -1.56217 0.208337 0
M  V30 3583 C 333.536 -2.18455 -0.693557 0
M  V30 3584 C 334.536 -1.14268 -1.13135 0
M  V30 3585 O 335.726 -1.39577 -1.0423 0
M  V30 3586 C 332.858 -2.79727 -1.94848 0
M  V30 3587 H 334.051 -2.99519 -0.15114 0
M  V30 3588 H 331.604 -1.56245 -0.041287 0
M  V30 3589 H 332.339 -2.02497 -2.53309 0
M  V30 3590 H 332.124 -3.56009 -1.64316 0
M  V30 3591 H 333.614 -3.27475 -2.59133 0
M  V30 3592 N 334.051 0.0651679 -1.57465 0
M  V30 3593 C 335.291 0.768329 -1.8941 0
M  V30 3594 C 335.655 1.74406 -0.802894 0
M  V30 3595 O 336.856 2.49281 -1.0056 0
M  V30 3596 C 335.127 1.45199 -3.26576 0
M  V30 3597 S 336.686 2.1893 -3.80283 0
M  V30 3598 H 333.504 0.255359 -0.663561 0
M  V30 3599 H 336.106 0.024167 -1.95485 0
M  V30 3600 H 334.81 0.728123 -4.03889 0
M  V30 3601 H 334.341 2.23545 -3.23715 0
M  V30 3602 H 336.356 3.45551 -3.56102 0
M  V30 3603 N 335.529 1.53961 0.336706 0
M  V30 3604 C 336.461 1.78751 1.4346 0
M  V30 3605 C 337.474 0.669019 1.48418 0
M  V30 3606 O 338.663 0.945884 1.51378 0
M  V30 3607 C 335.763 1.87844 2.82078 0
M  V30 3608 C 334.936 3.17854 3.00479 0
M  V30 3609 C 333.995 3.17816 4.19379 0
M  V30 3610 O 333.021 3.91511 4.13168 0
M  V30 3611 N 334.223 2.40669 5.2826 0
M  V30 3612 H 336.988 2.73493 1.22563 0
M  V30 3613 H 334.549 1.53096 0.526625 0
M  V30 3614 H 336.541 1.85261 3.59806 0
M  V30 3615 H 335.111 1.00257 2.96086 0
M  V30 3616 H 334.331 3.33504 2.10163 0
M  V30 3617 H 335.619 4.03718 3.0966 0
M  V30 3618 H 335.017 1.8036 5.36178 0
M  V30 3619 H 333.574 2.43877 6.04456 0
M  V30 3620 N 337.007 -0.598083 1.45811 0
M  V30 3621 C 337.97 -1.69018 1.54808 0
M  V30 3622 C 338.97 -1.55037 0.426652 0
M  V30 3623 O 340.16 -1.59932 0.690456 0
M  V30 3624 C 337.292 -3.0835 1.45371 0
M  V30 3625 H 338.485 -1.62403 2.52121 0
M  V30 3626 H 336.038 -0.814626 1.33392 0
M  V30 3627 H 336.773 -3.20534 0.492793 0
M  V30 3628 H 336.558 -3.19907 2.26721 0
M  V30 3629 H 338.048 -3.8788 1.54721 0
M  V30 3630 N 338.485 -1.33259 -0.841409 0
M  V30 3631 C 339.762 -1.15174 -1.58096 0
M  V30 3632 C 340.142 0.282858 -2.09196 0
M  V30 3633 O 339.49 1.28151 -1.89181 0
M  V30 3634 C 339.7 -2.1907 -2.71679 0
M  V30 3635 C 341.048 -2.53093 -3.40924 0
M  V30 3636 O 342.072 -2.17717 -2.81918 0
M  V30 3637 O 340.931 -3.1379 -4.47435 0
M  V30 3638 H 338.025 -0.445303 -0.696875 0
M  V30 3639 H 340.571 -1.44833 -0.884385 0
M  V30 3640 H 339.343 -3.15443 -2.31541 0
M  V30 3641 H 338.966 -1.90481 -3.49002 0
M  V30 3642 N 339.963 1.05934 -1.16686 0
M  V30 3643 C 341.379 1.30938 -0.912542 0
M  V30 3644 C 341.579 1.96803 0.432533 0
M  V30 3645 O 340.635 2.23693 1.17123 0
M  V30 3646 C 341.948 2.18649 -2.06429 0
M  V30 3647 C 343.496 2.32055 -2.10047 0
M  V30 3648 C 343.971 3.23122 -3.24586 0
M  V30 3649 N 345.462 3.30706 -3.24327 0
M  V30 3650 C 346.197 4.01273 -4.09594 0
M  V30 3651 N 345.693 4.74332 -5.04956 0
M  V30 3652 N 347.486 3.97361 -3.97569 0
M  V30 3653 H 339.637 0.615777 -2.03278 0
M  V30 3654 H 341.9 0.334077 -0.887185 0
M  V30 3655 H 341.606 1.77534 -3.03603 0
M  V30 3656 H 341.48 3.19252 -2.00894 0
M  V30 3657 H 343.867 2.72415 -1.13464 0
M  V30 3658 H 343.948 1.31107 -2.19647 0
M  V30 3659 H 343.592 2.83477 -4.2143 0
M  V30 3660 H 343.522 4.24057 -3.12223 0
M  V30 3661 H 346.013 2.78644 -2.55276 0
M  V30 3662 H 346.326 5.25716 -5.6643 0
M  V30 3663 H 344.671 4.733 -5.08933 0
M  V30 3664 H 347.862 3.39405 -3.22369 0
M  V30 3665 H 348.035 4.52089 -4.64241 0
M  V30 3666 N 341.441 0.965919 1.2453 0
M  V30 3667 C 342.391 0.465731 2.23193 0
M  V30 3668 C 343.375 -0.451277 1.54442 0
M  V30 3669 O 344.567 -0.282489 1.74731 0
M  V30 3670 C 341.696 -0.244511 3.42428 0
M  V30 3671 C 340.782 0.691222 4.18429 0
M  V30 3672 N 341.173 1.82771 4.71623 0
M  V30 3673 C 339.471 0.501649 4.4317 0
M  V30 3674 C 340.172 2.41285 5.29298 0
M  V30 3675 N 339.148 1.69819 5.16394 0
M  V30 3676 H 342.95 1.33291 2.61937 0
M  V30 3677 H 340.464 0.824789 1.39896 0
M  V30 3678 H 342.461 -0.620056 4.12263 0
M  V30 3679 H 341.121 -1.10815 3.05205 0
M  V30 3680 H 342.132 2.20929 4.68413 0
M  V30 3681 H 338.809 -0.318177 4.16286 0
M  V30 3682 H 340.199 3.37181 5.8117 0
M  V30 3683 N 342.919 -1.39368 0.735821 0
M  V30 3684 C 344.144 -2.05319 0.293052 0
M  V30 3685 C 344.569 -1.55115 -1.064 0
M  V30 3686 O 343.927 -0.695261 -1.67439 0
M  V30 3687 C 343.975 -3.59305 0.305323 0
M  V30 3688 O 343.079 -4.06299 -0.706761 0
M  V30 3689 H 342.42 -0.650529 0.13307 0
M  V30 3690 H 344.95 -1.78386 1.00197 0
M  V30 3691 H 344.96 -4.07724 0.149997 0
M  V30 3692 H 343.635 -3.95207 1.29553 0
M  V30 3693 H 342.212 -3.69292 -0.517504 0
M  V30 3694 N 344.397 -0.483516 -1.5 0
M  V30 3695 C 345.327 0.293829 -2.31644 0
M  V30 3696 C 346.308 0.978864 -1.39112 0
M  V30 3697 O 347.493 0.973644 -1.68029 0
M  V30 3698 C 344.623 1.36897 -3.19181 0
M  V30 3699 C 343.577 0.804833 -4.20365 0
M  V30 3700 C 342.903 1.9792 -4.96721 0
M  V30 3701 C 344.203 -0.192313 -5.21946 0
M  V30 3702 H 345.897 -0.387616 -2.9688 0
M  V30 3703 H 343.443 -0.187856 -1.42769 0
M  V30 3704 H 345.396 1.92037 -3.751 0
M  V30 3705 H 344.12 2.07936 -2.51853 0
M  V30 3706 H 342.779 0.275319 -3.65565 0
M  V30 3707 H 342.427 2.67686 -4.25856 0
M  V30 3708 H 342.127 1.60789 -5.65173 0
M  V30 3709 H 343.651 2.53526 -5.55479 0
M  V30 3710 H 345.065 0.270333 -5.72662 0
M  V30 3711 H 343.462 -0.478543 -5.98189 0
M  V30 3712 H 344.532 -1.11409 -4.71928 0
M  V30 3713 N 345.875 1.56104 -0.216619 0
M  V30 3714 C 346.808 2.16026 0.735395 0
M  V30 3715 C 347.786 1.1032 1.1945 0
M  V30 3716 O 348.97 1.38549 1.27814 0
M  V30 3717 C 346.097 2.73656 1.99575 0
M  V30 3718 C 345.143 3.92146 1.67702 0
M  V30 3719 S 345.976 5.29397 0.806145 0
M  V30 3720 C 347.132 5.90463 2.07617 0
M  V30 3721 H 347.365 2.96439 0.226072 0
M  V30 3722 H 344.898 1.544 -0.00136639 0
M  V30 3723 H 346.856 3.075 2.71945 0
M  V30 3724 H 345.517 1.93245 2.47619 0
M  V30 3725 H 344.71 4.30954 2.61332 0
M  V30 3726 H 344.312 3.59423 1.03398 0
M  V30 3727 H 346.604 6.06136 3.02664 0
M  V30 3728 H 347.547 6.86589 1.73207 0
M  V30 3729 H 347.955 5.19252 2.21445 0
M  V30 3730 N 347.353 -0.0568162 1.57498 0
M  V30 3731 C 348.316 -1.05038 2.03715 0
M  V30 3732 C 349.316 -1.30709 0.936577 0
M  V30 3733 O 350.506 -1.26178 1.20103 0
M  V30 3734 C 347.638 -2.39034 2.43055 0
M  V30 3735 H 348.831 -0.651715 2.92733 0
M  V30 3736 H 346.384 -0.302947 1.53336 0
M  V30 3737 H 347.119 -2.83703 1.57108 0
M  V30 3738 H 346.904 -2.21739 3.2338 0
M  V30 3739 H 348.394 -3.10421 2.79336 0
M  V30 3740 N 348.832 -1.54138 -0.328536 0
M  V30 3741 C 349.779 -1.83176 -1.40411 0
M  V30 3742 C 350.749 -0.678494 -1.5161 0
M  V30 3743 O 351.934 -0.92443 -1.6691 0
M  V30 3744 C 349.074 -2.06035 -2.76846 0
M  V30 3745 C 348.187 -3.33727 -2.74318 0
M  V30 3746 C 347.322 -3.46574 -4.02567 0
M  V30 3747 C 346.361 -4.68159 -3.94327 0
M  V30 3748 N 345.498 -4.77959 -5.14296 0
M  V30 3749 H 350.338 -2.74938 -1.14948 0
M  V30 3750 H 347.875 -1.36166 -0.556538 0
M  V30 3751 H 349.833 -2.1728 -3.56153 0
M  V30 3752 H 348.463 -1.1757 -3.00628 0
M  V30 3753 H 347.515 -3.31246 -1.8703 0
M  V30 3754 H 348.827 -4.23139 -2.64111 0
M  V30 3755 H 347.981 -3.57333 -4.90304 0
M  V30 3756 H 346.72 -2.55245 -4.15574 0
M  V30 3757 H 345.725 -4.57461 -3.04974 0
M  V30 3758 H 346.95 -5.60868 -3.82889 0
M  V30 3759 H 344.896 -3.89544 -5.27818 0
M  V30 3760 H 344.813 -5.6133 -5.06404 0
M  V30 3761 H 346.081 -4.93044 -6.03761 0
M  V30 3762 N 350.31 0.590341 -1.46126 0
M  V30 3763 C 351.54 1.37304 -1.54373 0
M  V30 3764 C 351.948 1.88332 -0.181071 0
M  V30 3765 O 351.291 1.63852 0.830559 0
M  V30 3766 C 351.353 2.6012 -2.48149 0
M  V30 3767 C 351.017 2.30613 -3.94546 0
M  V30 3768 C 352.014 1.89915 -4.83971 0
M  V30 3769 C 349.699 2.42993 -4.39613 0
M  V30 3770 C 351.693 1.61981 -6.16475 0
M  V30 3771 C 349.38 2.14672 -5.72153 0
M  V30 3772 C 350.378 1.7423 -6.60404 0
M  V30 3773 O 350.066 1.46251 -7.90485 0
M  V30 3774 H 349.798 0.426086 -0.524811 0
M  V30 3775 H 352.352 0.72539 -1.92165 0
M  V30 3776 H 350.582 3.27664 -2.05361 0
M  V30 3777 H 352.271 3.22182 -2.46887 0
M  V30 3778 H 353.037 1.79872 -4.50412 0
M  V30 3779 H 348.916 2.73435 -3.71153 0
M  V30 3780 H 352.46 1.30341 -6.85315 0
M  V30 3781 H 348.357 2.24337 -6.05263 0
M  V30 3782 H 349.125 1.6016 -8.02677 0
M  V30 3783 N 351.788 1.33704 0.83433 0
M  V30 3784 C 353.037 1.24763 1.58484 0
M  V30 3785 C 353.35 -0.183775 1.94735 0
M  V30 3786 O 354.556 -0.395234 2.68608 0
M  V30 3787 C 353.012 2.18638 2.85876 0
M  V30 3788 C 352.62 3.66974 2.56971 0
M  V30 3789 C 354.364 2.18581 3.63899 0
M  V30 3790 C 352.271 4.5275 3.80488 0
M  V30 3791 H 351.201 0.463425 0.594772 0
M  V30 3792 H 353.852 1.58797 0.919551 0
M  V30 3793 H 352.234 1.77542 3.5397 0
M  V30 3794 H 353.408 4.16538 1.9706 0
M  V30 3795 H 351.723 3.69366 1.92244 0
M  V30 3796 H 354.32 2.79894 4.55591 0
M  V30 3797 H 354.663 1.18207 3.99165 0
M  V30 3798 H 355.196 2.58062 3.02735 0
M  V30 3799 H 351.935 5.54017 3.5035 0
M  V30 3800 H 351.455 4.07927 4.39722 0
M  V30 3801 H 353.134 4.66784 4.4802 0
M  V30 3802 N 353.266 -1.05314 1.17247 0
M  V30 3803 C 354.199 -2.12512 0.831507 0
M  V30 3804 C 355.177 -1.61351 -0.201168 0
M  V30 3805 O 356.361 -1.88317 -0.0829831 0
M  V30 3806 C 353.488 -3.37848 0.24015 0
M  V30 3807 C 352.534 -4.07832 1.24801 0
M  V30 3808 S 353.367 -4.56537 2.79882 0
M  V30 3809 C 354.523 -5.85122 2.22223 0
M  V30 3810 H 354.756 -2.41106 1.7394 0
M  V30 3811 H 352.289 -1.17896 0.996988 0
M  V30 3812 H 354.247 -4.10391 -0.0945588 0
M  V30 3813 H 352.908 -3.07392 -0.645668 0
M  V30 3814 H 352.101 -4.97883 0.78287 0
M  V30 3815 H 351.703 -3.41348 1.52831 0
M  V30 3816 H 353.995 -6.58408 1.59703 0
M  V30 3817 H 354.938 -6.36381 3.10523 0
M  V30 3818 H 355.346 -5.39626 1.65722 0
M  V30 3819 N 354.744 -0.972509 -1.24016 0
M  V30 3820 C 356.021 -0.553733 -1.87598 0
M  V30 3821 C 356.401 0.969158 -1.87538 0
M  V30 3822 O 355.749 1.84255 -1.35139 0
M  V30 3823 C 355.959 -1.15076 -3.29482 0
M  V30 3824 C 357.307 -1.23862 -4.06132 0
M  V30 3825 O 358.331 -1.10363 -3.38672 0
M  V30 3826 O 357.19 -1.45252 -5.26844 0
M  V30 3827 H 354.284 -0.185331 -0.805966 0
M  V30 3828 H 356.83 -1.06709 -1.31952 0
M  V30 3829 H 355.602 -2.19333 -3.2405 0
M  V30 3830 H 355.225 -0.621746 -3.92709 0
M  V30 3831 N 356.222 1.38976 -0.743202 0
M  V30 3832 C 357.152 2.33171 -0.123873 0
M  V30 3833 C 358.133 1.54336 0.71516 0
M  V30 3834 O 359.318 1.82696 0.658467 0
M  V30 3835 C 356.448 3.38474 0.777978 0
M  V30 3836 C 355.402 4.27979 0.0424758 0
M  V30 3837 C 354.728 5.2405 1.06189 0
M  V30 3838 C 356.028 5.10155 -1.1198 0
M  V30 3839 H 357.722 2.85213 -0.910709 0
M  V30 3840 H 355.268 1.37133 -0.439388 0
M  V30 3841 H 357.221 4.03328 1.22084 0
M  V30 3842 H 355.945 2.84891 1.59702 0
M  V30 3843 H 354.604 3.64616 -0.380853 0
M  V30 3844 H 354.252 4.66758 1.87472 0
M  V30 3845 H 353.952 5.84785 0.574485 0
M  V30 3846 H 355.476 5.9178 1.50428 0
M  V30 3847 H 356.89 5.68307 -0.75499 0
M  V30 3848 H 355.287 5.80073 -1.53738 0
M  V30 3849 H 356.357 4.44504 -1.93764 0
M  V30 3850 N 357.7 0.491464 1.49741 0
M  V30 3851 C 358.61 -0.296835 2.32715 0
M  V30 3852 C 359.626 -0.976536 1.44013 0
M  V30 3853 O 360.802 -0.960023 1.77047 0
M  V30 3854 C 357.867 -1.35288 3.19215 0
M  V30 3855 C 356.928 -0.687632 4.23757 0
M  V30 3856 C 356.161 -1.69336 5.06123 0
M  V30 3857 O 356.384 -2.92219 4.89861 0
M  V30 3858 O 355.318 -1.25394 5.88693 0
M  V30 3859 H 359.144 0.382048 3.01287 0
M  V30 3860 H 356.729 0.252953 1.47243 0
M  V30 3861 H 358.611 -1.96411 3.72828 0
M  V30 3862 H 357.286 -2.01487 2.53347 0
M  V30 3863 H 356.193 -0.0369159 3.74082 0
M  V30 3864 H 357.526 -0.0682566 4.92153 0
M  V30 3865 N 359.178 -1.55987 0.224894 0
M  V30 3866 C 360.594 -1.59066 -0.130426 0
M  V30 3867 C 360.794 -1.24176 -1.5869 0
M  V30 3868 O 359.85 -0.978592 -2.32766 0
M  V30 3869 C 361.163 -3.00042 0.198883 0
M  V30 3870 C 362.711 -3.1268 0.141391 0
M  V30 3871 C 363.186 -4.55839 0.444422 0
M  V30 3872 N 364.677 -4.6152 0.394115 0
M  V30 3873 C 365.412 -5.70231 0.602038 0
M  V30 3874 N 364.908 -6.87291 0.871914 0
M  V30 3875 N 366.701 -5.59555 0.534245 0
M  V30 3876 H 358.852 -1.76941 1.17497 0
M  V30 3877 H 361.115 -0.822604 0.471197 0
M  V30 3878 H 360.821 -3.30234 1.2099 0
M  V30 3879 H 360.695 -3.74075 -0.484535 0
M  V30 3880 H 363.082 -2.82283 -0.860265 0
M  V30 3881 H 363.163 -2.40969 0.858335 0
M  V30 3882 H 362.807 -4.86954 1.44353 0
M  V30 3883 H 362.737 -5.2578 -0.293752 0
M  V30 3884 H 365.228 -3.77405 0.193356 0
M  V30 3885 H 365.541 -7.66058 1.01858 0
M  V30 3886 H 363.886 -6.89028 0.909145 0
M  V30 3887 H 367.077 -4.6698 0.323612 0
M  V30 3888 H 367.25 -6.44211 0.699693 0
M  V30 3889 N 360.656 0.0484629 -1.57525 0
M  V30 3890 C 361.586 1.0549 -2.08313 0
M  V30 3891 C 362.567 1.38929 -0.981463 0
M  V30 3892 O 363.752 1.48151 -1.25558 0
M  V30 3893 C 360.882 2.36162 -2.54646 0
M  V30 3894 C 359.836 2.17016 -3.68901 0
M  V30 3895 C 359.162 3.53278 -4.01371 0
M  V30 3896 C 360.462 1.57219 -4.98076 0
M  V30 3897 H 362.156 0.632195 -2.92649 0
M  V30 3898 H 359.702 0.302654 -1.40784 0
M  V30 3899 H 361.655 3.06882 -2.88793 0
M  V30 3900 H 360.379 2.80456 -1.67368 0
M  V30 3901 H 359.038 1.48733 -3.35073 0
M  V30 3902 H 358.686 3.95185 -3.11188 0
M  V30 3903 H 358.386 3.41299 -4.78318 0
M  V30 3904 H 359.91 4.25391 -4.38035 0
M  V30 3905 H 361.324 2.17832 -5.30304 0
M  V30 3906 H 359.721 1.55871 -5.79503 0
M  V30 3907 H 360.791 0.535956 -4.81929 0
M  V30 3908 N 362.134 1.5431 0.320358 0
M  V30 3909 C 363.411 1.63322 1.07635 0
M  V30 3910 C 363.791 0.46912 2.05821 0
M  V30 3911 O 363.139 -0.536274 2.22118 0
M  V30 3912 C 363.349 3.00465 1.77544 0
M  V30 3913 C 364.697 3.56621 2.30449 0
M  V30 3914 O 365.721 3.02791 1.87606 0
M  V30 3915 O 364.58 4.5083 3.08892 0
M  V30 3916 H 361.674 0.661502 0.496331 0
M  V30 3917 H 364.22 1.66656 0.319992 0
M  V30 3918 H 362.992 3.76629 1.06143 0
M  V30 3919 H 362.615 3.00824 2.59982 0
M  V30 3920 N 363.613 -0.582584 1.46437 0
M  V30 3921 C 365.024 -1.1647 1.45916 0
M  V30 3922 C 365.375 -1.95177 0.200077 0
M  V30 3923 O 364.5 -2.04874 -0.696819 0
M  V30 3924 C 365.095 -2.11885 2.64367 0
M  V30 3925 C 363.654 -2.65421 2.66887 0
M  V30 3926 C 362.801 -1.41294 2.38603 0
M  V30 3927 H 365.752 -0.370514 1.54314 0
M  V30 3928 H 365.773 -2.9535 2.39892 0
M  V30 3929 H 365.285 -1.54573 3.5599 0
M  V30 3930 H 363.386 -3.26602 1.79338 0
M  V30 3931 H 363.499 -3.08147 3.66854 0
M  V30 3932 H 361.863 -1.71109 1.88663 0
M  V30 3933 H 362.646 -0.858125 3.32402 0
M  V30 3934 N 365.091 -1.34144 -0.827227 0
M  V30 3935 C 366.054 -1.25264 -1.91942 0
M  V30 3936 C 367.054 -0.168866 -1.59911 0
M  V30 3937 O 368.244 -0.421198 -1.69031 0
M  V30 3938 C 365.376 -0.932952 -3.27885 0
M  V30 3939 H 366.569 -2.22357 -2.0124 0
M  V30 3940 H 364.122 -1.1837 -1.0207 0
M  V30 3941 H 364.857 0.0349917 -3.24281 0
M  V30 3942 H 364.642 -1.71682 -3.52516 0
M  V30 3943 H 366.132 -0.895874 -4.07877 0
M  V30 3944 N 366.569 1.04691 -1.17803 0
M  V30 3945 C 367.817 1.7743 -0.967617 0
M  V30 3946 C 368.138 1.88359 0.504574 0
M  V30 3947 O 367.408 1.40402 1.36617 0
M  V30 3948 H 365.988 0.657242 -0.355024 0
M  V30 3949 H 368.65 1.2638 -1.48371 0
M  V30 3950 H 367.746 2.78924 -1.40027 0
M  V30 3951 N 368.047 0.979072 1.23499 0
M  V30 3952 C 369.01 0.523244 2.23147 0
M  V30 3953 C 370.01 -0.386406 1.56088 0
M  V30 3954 O 371.2 -0.180283 1.73265 0
M  V30 3955 C 368.332 -0.240739 3.40049 0
M  V30 3956 H 369.525 1.40432 2.64989 0
M  V30 3957 H 367.078 0.764824 1.36309 0
M  V30 3958 H 367.813 -1.13841 3.03662 0
M  V30 3959 H 367.598 0.412207 3.89927 0
M  V30 3960 H 369.088 -0.548297 4.13985 0
M  V30 3961 N 369.525 -1.3858 0.750561 0
M  V30 3962 C 370.488 -2.28836 0.129152 0
M  V30 3963 C 371.488 -1.47045 -0.650714 0
M  V30 3964 O 372.678 -1.6753 -0.477428 0
M  V30 3965 C 369.81 -3.30751 -0.825622 0
M  V30 3966 H 371.003 -2.85294 0.924516 0
M  V30 3967 H 368.556 -1.47489 0.517376 0
M  V30 3968 H 369.291 -2.79378 -1.64677 0
M  V30 3969 H 369.076 -3.91177 -0.268852 0
M  V30 3970 H 370.566 -3.98249 -1.2565 0
M  V30 3971 N 371.003 -0.499398 -1.49478 0
M  V30 3972 C 371.913 0.284489 -2.32869 0
M  V30 3973 C 372.929 0.968885 -1.44529 0
M  V30 3974 O 374.105 0.95062 -1.77553 0
M  V30 3975 C 371.17 1.33594 -3.19928 0
M  V30 3976 C 370.231 0.665149 -4.24116 0
M  V30 3977 C 369.464 1.6665 -5.07014 0
M  V30 3978 O 369.687 2.89618 -4.91404 0
M  V30 3979 O 368.621 1.22271 -5.8935 0
M  V30 3980 H 372.447 -0.39802 -3.01081 0
M  V30 3981 H 370.032 -0.260758 -1.47107 0
M  V30 3982 H 371.914 1.94431 -3.73864 0
M  V30 3983 H 370.589 2.0014 -2.54412 0
M  V30 3984 H 369.496 0.0170769 -3.74096 0
M  V30 3985 H 370.829 0.0421555 -4.92182 0
M  V30 3986 N 372.481 1.55866 -0.233164 0
M  V30 3987 C 373.709 2.02998 0.399905 0
M  V30 3988 C 374.124 1.11274 1.52524 0
M  V30 3989 O 373.481 0.124528 1.82075 0
M  V30 3990 C 373.532 3.4958 0.920639 0
M  V30 3991 O 373.253 4.37808 -0.159834 0
M  V30 3992 C 374.754 4.12411 1.62578 0
M  V30 3993 H 371.974 0.664006 0.0966281 0
M  V30 3994 H 374.518 2.0143 -0.353013 0
M  V30 3995 H 372.673 3.51727 1.62379 0
M  V30 3996 H 373.087 5.23981 0.23337 0
M  V30 3997 H 374.561 5.16711 1.94201 0
M  V30 3998 H 375.038 3.5809 2.54299 0
M  V30 3999 H 375.644 4.14148 0.967553 0
M  V30 4000 N 373.959 -0.0401083 1.57549 0
M  V30 4001 C 375.206 -0.733125 1.88763 0
M  V30 4002 C 375.534 -1.75946 0.829058 0
M  V30 4003 O 374.789 -1.94949 -0.171323 0
M  V30 4004 C 375.088 -1.44902 3.26708 0
M  V30 4005 C 374.754 -0.559707 4.47413 0
M  V30 4006 C 373.416 -0.314731 4.8017 0
M  V30 4007 C 375.768 0.0549743 5.21171 0
M  V30 4008 C 373.096 0.553886 5.8408 0
M  V30 4009 C 375.448 0.911229 6.26003 0
M  V30 4010 C 374.112 1.16577 6.57241 0
M  V30 4011 H 373.382 -0.268269 0.690733 0
M  V30 4012 H 376.029 0.00679408 1.91499 0
M  V30 4013 H 374.334 -2.26197 3.1991 0
M  V30 4014 H 376.031 -1.99058 3.48105 0
M  V30 4015 H 372.621 -0.760793 4.21794 0
M  V30 4016 H 376.805 -0.121344 4.96152 0
M  V30 4017 H 372.061 0.759518 6.06664 0
M  V30 4018 H 376.235 1.3941 6.82303 0
M  V30 4019 H 373.862 1.84058 7.37582 0
M  V30 4020 N 375.437 -1.54477 -0.31217 0
M  V30 4021 C 376.387 -1.81037 -1.38598 0
M  V30 4022 C 377.371 -0.666941 -1.46426 0
M  V30 4023 O 378.563 -0.927269 -1.50767 0
M  V30 4024 C 375.692 -2.05127 -2.75277 0
M  V30 4025 C 374.778 -3.25624 -2.71716 0
M  V30 4026 N 375.169 -4.46428 -2.37773 0
M  V30 4027 C 373.467 -3.27427 -3.02833 0
M  V30 4028 C 374.168 -5.28406 -2.43232 0
M  V30 4029 N 373.144 -4.6586 -2.80135 0
M  V30 4030 H 376.946 -2.7201 -1.11301 0
M  V30 4031 H 374.46 -1.53826 -0.520705 0
M  V30 4032 H 376.457 -2.22299 -3.52688 0
M  V30 4033 H 375.117 -1.15416 -3.03495 0
M  V30 4034 H 376.128 -4.73227 -2.1042 0
M  V30 4035 H 372.805 -2.47786 -3.36018 0
M  V30 4036 H 374.195 -6.34903 -2.19882 0
M  V30 4037 N 376.915 0.57481 -1.46744 0
M  V30 4038 C 378.161 1.3347 -1.52688 0
M  V30 4039 C 378.494 1.93353 -0.181229 0
M  V30 4040 O 377.769 1.76912 0.808237 0
M  V30 4041 C 378.052 2.45811 -2.63152 0
M  V30 4042 C 377.905 1.90912 -4.07275 0
M  V30 4043 C 379.224 3.47822 -2.69644 0
M  V30 4044 H 376.343 0.483935 -0.555856 0
M  V30 4045 H 378.985 0.644968 -1.78718 0
M  V30 4046 H 377.135 3.04646 -2.41088 0
M  V30 4047 H 378.807 1.36473 -4.4065 0
M  V30 4048 H 377.05 1.21691 -4.16382 0
M  V30 4049 H 377.721 2.72042 -4.80309 0
M  V30 4050 H 380.197 2.9888 -2.895 0
M  V30 4051 H 379.073 4.23876 -3.48742 0
M  V30 4052 H 379.334 4.05555 -1.76005 0
M  V30 4053 N 378.394 1.34581 0.820102 0
M  V30 4054 C 379.642 1.26845 1.57336 0
M  V30 4055 C 379.963 -0.160667 1.94337 0
M  V30 4056 O 379.233 -1.09396 1.6251 0
M  V30 4057 H 377.813 0.466514 0.583415 0
M  V30 4058 H 380.475 1.68526 0.979027 0
M  V30 4059 H 379.571 1.87513 2.4949 0
M  V30 4060 N 379.872 -1.04064 1.18357 0
M  V30 4061 C 380.802 -2.14001 0.934113 0
M  V30 4062 C 381.783 -1.69616 -0.128186 0
M  V30 4063 O 382.968 -1.94185 0.0244093 0
M  V30 4064 C 380.098 -3.44253 0.459066 0
M  V30 4065 C 379.052 -4.02261 1.46185 0
M  V30 4066 C 378.378 -5.27992 0.844322 0
M  V30 4067 C 379.678 -4.38432 2.83856 0
M  V30 4068 H 381.372 -2.35127 1.85352 0
M  V30 4069 H 378.918 -1.12998 0.892604 0
M  V30 4070 H 380.871 -4.20522 0.271907 0
M  V30 4071 H 379.595 -3.22813 -0.495912 0
M  V30 4072 H 378.254 -3.28074 1.63595 0
M  V30 4073 H 377.902 -5.02862 -0.117845 0
M  V30 4074 H 377.602 -5.67765 1.51384 0
M  V30 4075 H 379.126 -6.06938 0.667693 0
M  V30 4076 H 380.54 -5.05688 2.70098 0
M  V30 4077 H 378.937 -4.89254 3.47491 0
M  V30 4078 H 380.007 -3.4826 3.37406 0
M  V30 4079 N 381.35 -0.985608 -1.22978 0
M  V30 4080 C 382.761 -0.693593 -1.73338 0
M  V30 4081 C 383.112 0.789935 -1.79595 0
M  V30 4082 O 382.237 1.61771 -1.43733 0
M  V30 4083 C 382.832 -1.25235 -3.14804 0
M  V30 4084 C 381.391 -1.00987 -3.626 0
M  V30 4085 C 380.538 -1.37695 -2.40698 0
M  V30 4086 H 383.489 -1.15884 -1.08428 0
M  V30 4087 H 383.51 -0.627329 -3.75293 0
M  V30 4088 H 383.022 -2.33209 -3.10218 0
M  V30 4089 H 381.123 0.0535565 -3.72562 0
M  V30 4090 H 381.236 -1.66812 -4.49122 0
M  V30 4091 H 379.6 -0.795459 -2.4196 0
M  V30 4092 H 380.383 -2.46657 -2.38779 0
M  V30 4093 N 382.828 1.3818 -0.7579 0
M  V30 4094 C 384.076 1.99624 -0.315361 0
M  V30 4095 C 384.397 1.60464 1.10799 0
M  V30 4096 O 383.667 0.863507 1.75842 0
M  V30 4097 H 382.247 0.73831 -0.113611 0
M  V30 4098 H 384.909 1.68878 -0.972952 0
M  V30 4099 H 384.005 3.09754 -0.381931 0
M  V30 4100 N 384.306 0.507319 1.49211 0
M  V30 4101 C 385.269 -0.256763 2.27757 0
M  V30 4102 C 386.269 -0.888287 1.34038 0
M  V30 4103 O 387.459 -0.751841 1.5714 0
M  V30 4104 C 384.591 -1.36905 3.12202 0
M  V30 4105 H 385.784 0.432557 2.96764 0
M  V30 4106 H 383.337 0.262488 1.5408 0
M  V30 4107 H 384.072 -2.09233 2.47775 0
M  V30 4108 H 383.857 -0.921599 3.81115 0
M  V30 4109 H 385.347 -1.9071 3.7151 0
M  V30 4110 N 385.784 -1.5574 0.241426 0
M  V30 4111 C 386.714 -2.24133 -0.654722 0
M  V30 4112 C 387.695 -1.21974 -1.1856 0
M  V30 4113 O 388.88 -1.50612 -1.22595 0
M  V30 4114 C 386.01 -2.93659 -1.85423 0
M  V30 4115 C 384.964 -4.0246 -1.45636 0
M  V30 4116 C 384.29 -4.59383 -2.73626 0
M  V30 4117 C 385.59 -5.18468 -0.631506 0
M  V30 4118 H 387.284 -2.99281 -0.0844353 0
M  V30 4119 H 384.83 -1.43947 -0.0391707 0
M  V30 4120 H 386.783 -3.40203 -2.48676 0
M  V30 4121 H 385.507 -2.15991 -2.44981 0
M  V30 4122 H 384.166 -3.56676 -0.847202 0
M  V30 4123 H 383.814 -3.78422 -3.3137 0
M  V30 4124 H 383.514 -5.32826 -2.4773 0
M  V30 4125 H 385.038 -5.08658 -3.37786 0
M  V30 4126 H 386.452 -5.61272 -1.1682 0
M  V30 4127 H 384.849 -5.98266 -0.468831 0
M  V30 4128 H 385.919 -4.8358 0.357506 0
M  V30 4129 N 387.262 0.0317525 -1.57568 0
M  V30 4130 C 388.51 0.721676 -1.88776 0
M  V30 4131 C 388.831 1.76039 -0.838772 0
M  V30 4132 O 388.101 1.95482 0.127935 0
M  V30 4133 H 386.681 0.269534 -0.696678 0
M  V30 4134 H 389.343 -0.00165879 -1.949 0
M  V30 4135 H 388.439 1.21293 -2.87566 0
M  V30 4136 N 388.74 1.54641 0.303973 0
M  V30 4137 C 389.988 1.73437 1.0375 0
M  V30 4138 C 390.309 0.521449 1.87899 0
M  V30 4139 O 389.579 -0.46432 1.90318 0
M  V30 4140 H 388.159 0.639518 0.386039 0
M  V30 4141 H 390.821 1.91988 0.335675 0
M  V30 4142 H 389.917 2.62235 1.69231 0
M  V30 4143 N 390.218 -0.567019 1.47046 0
M  V30 4144 C 391.168 -1.67018 1.55207 0
M  V30 4145 C 392.152 -1.55543 0.411714 0
M  V30 4146 O 393.344 -1.64192 0.661064 0
M  V30 4147 C 390.473 -3.05801 1.56014 0
M  V30 4148 C 389.559 -3.22515 2.75399 0
M  V30 4149 N 389.95 -3.09329 4.00186 0
M  V30 4150 C 388.248 -3.53493 2.71954 0
M  V30 4151 C 388.949 -3.2847 4.80086 0
M  V30 4152 N 387.925 -3.54352 4.12233 0
M  V30 4153 H 391.727 -1.55377 2.4947 0
M  V30 4154 H 389.241 -0.771503 1.42904 0
M  V30 4155 H 391.238 -3.84996 1.59949 0
M  V30 4156 H 389.898 -3.18561 0.628396 0
M  V30 4157 H 390.909 -2.86863 4.31196 0
M  V30 4158 H 387.586 -3.7284 1.87873 0
M  V30 4159 H 388.976 -3.23326 5.88991 0
M  V30 4160 N 391.696 -1.35014 -0.812953 0
M  V30 4161 C 392.973 -1.18502 -1.55617 0
M  V30 4162 C 393.353 0.238421 -2.09749 0
M  V30 4163 O 392.701 1.2411 -1.91857 0
M  V30 4164 C 392.911 -2.24783 -2.66971 0
M  V30 4165 C 394.259 -2.60268 -3.35478 0
M  V30 4166 O 395.283 -2.23648 -2.77236 0
M  V30 4167 O 394.142 -3.2321 -4.40678 0
M  V30 4168 H 391.236 -0.459984 -0.687272 0
M  V30 4169 H 393.782 -1.46677 -0.853464 0
M  V30 4170 H 392.554 -3.20284 -2.24798 0
M  V30 4171 H 392.177 -1.97841 -3.44884 0
M  V30 4172 N 393.175 1.03435 -1.18907 0
M  V30 4173 C 394.423 1.76394 -0.986382 0
M  V30 4174 C 394.744 1.88883 0.484567 0
M  V30 4175 O 394.014 1.41843 1.3512 0
M  V30 4176 H 392.594 0.65344 -0.361975 0
M  V30 4177 H 395.256 1.248 -1.49703 0
M  V30 4178 H 394.352 2.77424 -1.42978 0
M  V30 4179 N 394.653 0.992116 1.22453 0
M  V30 4180 C 395.583 0.561677 2.26644 0
M  V30 4181 C 396.564 -0.411055 1.65059 0
M  V30 4182 O 397.749 -0.301861 1.9184 0
M  V30 4183 C 394.879 -0.125247 3.47074 0
M  V30 4184 C 393.833 0.765948 4.21091 0
M  V30 4185 C 393.159 -0.0538484 5.34673 0
M  V30 4186 C 394.459 2.06242 4.79856 0
M  V30 4187 H 396.153 1.43259 2.62902 0
M  V30 4188 H 393.699 0.690283 1.26377 0
M  V30 4189 H 395.652 -0.437764 4.1912 0
M  V30 4190 H 394.376 -1.03069 3.0991 0
M  V30 4191 H 393.035 1.0621 3.50878 0
M  V30 4192 H 392.683 -0.960188 4.9375 0
M  V30 4193 H 392.383 0.539415 5.85119 0
M  V30 4194 H 393.907 -0.360477 6.09535 0
M  V30 4195 H 395.321 1.8139 5.43848 0
M  V30 4196 H 393.718 2.60444 5.40638 0
M  V30 4197 H 394.788 2.74167 3.99951 0
M  V30 4198 N 396.131 -1.37776 0.765217 0
M  V30 4199 C 397.379 -1.99454 0.325943 0
M  V30 4200 C 397.7 -1.61049 -1.09947 0
M  V30 4201 O 396.97 -0.872821 -1.75381 0
M  V30 4202 H 395.55 -0.737697 0.117525 0
M  V30 4203 H 398.212 -1.68359 0.981895 0
M  V30 4204 H 397.308 -3.09547 0.398353 0
M  V30 4205 N 397.609 -0.515225 -1.4894 0
M  V30 4206 C 398.539 0.244628 -2.32215 0
M  V30 4207 C 399.52 0.949136 -1.41157 0
M  V30 4208 O 400.705 0.937783 -1.70057 0
M  V30 4209 C 397.835 1.30096 -3.22013 0
M  V30 4210 C 396.789 0.715486 -4.21977 0
M  V30 4211 C 396.115 1.87339 -5.00808 0
M  V30 4212 C 397.415 -0.302982 -5.2142 0
M  V30 4213 H 399.109 -0.450501 -2.95991 0
M  V30 4214 H 396.655 -0.218098 -1.42339 0
M  V30 4215 H 398.608 1.84037 -3.79089 0
M  V30 4216 H 397.332 2.02547 -2.56207 0
M  V30 4217 H 395.991 0.197715 -3.66066 0
M  V30 4218 H 395.639 2.58592 -4.31438 0
M  V30 4219 H 395.339 1.48764 -5.68457 0
M  V30 4220 H 396.863 2.41686 -5.60732 0
M  V30 4221 H 398.277 0.148802 -5.73107 0
M  V30 4222 H 396.674 -0.60532 -5.97039 0
M  V30 4223 H 397.744 -1.21395 -4.69459 0
M  V30 4224 N 399.087 1.5561 -0.249682 0
M  V30 4225 C 400.017 2.24477 0.642826 0
M  V30 4226 C 400.998 1.22601 1.17911 0
M  V30 4227 O 402.183 1.5126 1.21795 0
M  V30 4228 C 399.313 2.94638 1.83863 0
M  V30 4229 C 398.267 4.03227 1.435 0
M  V30 4230 C 397.593 4.60828 2.71186 0
M  V30 4231 C 398.893 5.18796 0.604002 0
M  V30 4232 H 400.587 2.99321 0.0685625 0
M  V30 4233 H 398.133 1.43965 0.0315363 0
M  V30 4234 H 400.086 3.41517 2.46868 0
M  V30 4235 H 398.81 2.17287 2.43832 0
M  V30 4236 H 397.469 3.57121 0.828275 0
M  V30 4237 H 397.117 3.80174 3.29358 0
M  V30 4238 H 396.817 5.34132 2.44901 0
M  V30 4239 H 398.341 5.10442 3.35084 0
M  V30 4240 H 399.755 5.61883 1.13842 0
M  V30 4241 H 398.152 5.98506 0.437097 0
M  V30 4242 H 399.222 4.83384 -0.383147 0
M  V30 4243 N 400.565 -0.0233959 1.57583 0
M  V30 4244 C 401.981 -0.379134 1.55031 0
M  V30 4245 C 402.181 -1.76255 0.976548 0
M  V30 4246 O 401.237 -2.45266 0.600078 0
M  V30 4247 C 402.55 -0.275792 2.99433 0
M  V30 4248 C 404.098 -0.352458 3.11009 0
M  V30 4249 C 404.573 -0.278501 4.57152 0
M  V30 4250 N 406.064 -0.337123 4.61972 0
M  V30 4251 C 406.799 -0.302876 5.726 0
M  V30 4252 N 406.295 -0.220589 6.92449 0
M  V30 4253 N 408.088 -0.353023 5.6099 0
M  V30 4254 H 400.239 0.881869 1.93227 0
M  V30 4255 H 402.502 0.335867 0.886509 0
M  V30 4256 H 402.208 0.675108 3.4516 0
M  V30 4257 H 402.082 -1.06721 3.61788 0
M  V30 4258 H 404.469 -1.29379 2.65226 0
M  V30 4259 H 404.55 0.468409 2.51475 0
M  V30 4260 H 404.194 0.659189 5.03604 0
M  V30 4261 H 404.124 -1.11755 5.14605 0
M  V30 4262 H 406.615 -0.403002 3.75745 0
M  V30 4263 H 406.928 -0.199713 7.72542 0
M  V30 4264 H 405.273 -0.186555 6.9475 0
M  V30 4265 H 408.464 -0.415339 4.66254 0
M  V30 4266 H 408.637 -0.322866 6.47195 0
M  V30 4267 N 402.043 -1.548 -0.295768 0
M  V30 4268 C 403.289 -1.74588 -1.03184 0
M  V30 4269 C 403.622 -0.532962 -1.86744 0
M  V30 4270 O 402.897 0.469872 -1.88739 0
M  V30 4271 C 403.18 -3.03791 -1.93347 0
M  V30 4272 C 403.033 -4.35392 -1.12933 0
M  V30 4273 C 404.352 -3.28892 -2.92435 0
M  V30 4274 H 401.471 -0.635221 -0.373715 0
M  V30 4275 H 404.113 -1.87519 -0.30606 0
M  V30 4276 H 402.263 -2.92898 -2.55232 0
M  V30 4277 H 403.935 -4.58211 -0.532943 0
M  V30 4278 H 402.178 -4.31642 -0.432168 0
M  V30 4279 H 402.849 -5.22074 -1.79284 0
M  V30 4280 H 405.325 -3.39429 -2.4068 0
M  V30 4281 H 404.201 -4.20603 -3.52682 0
M  V30 4282 H 404.462 -2.47437 -3.6637 0
M  V30 4283 N 403.521 0.559213 -1.47345 0
M  V30 4284 C 404.484 1.64854 -1.59235 0
M  V30 4285 C 405.484 1.53851 -0.467607 0
M  V30 4286 O 406.674 1.58045 -0.732617 0
M  V30 4287 C 403.806 3.04388 -1.53496 0
M  V30 4288 H 404.999 1.55662 -2.56339 0
M  V30 4289 H 402.552 0.778973 -1.35505 0
M  V30 4290 H 403.287 3.19115 -0.577604 0
M  V30 4291 H 403.072 3.13783 -2.35123 0
M  V30 4292 H 404.562 3.83642 -1.6495 0
M  V30 4293 N 404.999 1.35443 0.805782 0
M  V30 4294 C 406.247 1.28507 1.55982 0
M  V30 4295 C 406.568 -0.140046 1.94496 0
M  V30 4296 O 405.838 -1.07666 1.63661 0
M  V30 4297 H 404.418 0.472676 0.578434 0
M  V30 4298 H 407.08 1.69555 0.961098 0
M  V30 4299 H 406.176 1.90148 2.47488 0
M  V30 4300 N 406.477 -1.02803 1.19454 0
M  V30 4301 C 407.754 -1.73299 0.907013 0
M  V30 4302 C 408.134 -2.02772 -0.587086 0
M  V30 4303 O 407.482 -1.68304 -1.54551 0
M  V30 4304 C 407.692 -3.00912 1.76785 0
M  V30 4305 C 409.04 -3.74403 2.00268 0
M  V30 4306 O 410.064 -3.10841 1.73943 0
M  V30 4307 O 408.923 -4.88675 2.4466 0
M  V30 4308 H 406.017 -0.754727 0.338106 0
M  V30 4309 H 408.563 -1.08754 1.30271 0
M  V30 4310 H 407.335 -2.75366 2.7801 0
M  V30 4311 H 406.958 -3.73197 1.37149 0
M  V30 4312 N 407.956 -0.998596 -1.21925 0
M  V30 4313 C 409.204 -0.676325 -1.90448 0
M  V30 4314 C 409.525 0.794719 -1.78071 0
M  V30 4315 O 408.795 1.5701 -1.17152 0
M  V30 4316 H 407.375 -0.247165 -0.704925 0
M  V30 4317 H 410.037 -1.26633 -1.48156 0
M  V30 4318 H 409.133 -0.943858 -2.97486 0
M  V30 4319 N 409.434 1.37368 -0.772513 0
M  V30 4320 C 410.682 1.99279 -0.336516 0
M  V30 4321 C 411.003 1.6163 1.09091 0
M  V30 4322 O 410.273 0.882109 1.74916 0
M  V30 4323 H 408.853 0.737063 -0.121435 0
M  V30 4324 H 411.515 1.67836 -0.990809 0
M  V30 4325 H 410.611 3.09332 -0.414763 0
M  V30 4326 N 410.912 0.523116 1.48665 0
M  V30 4327 C 412.161 -0.01544 2.01694 0
M  V30 4328 C 412.474 -1.35975 1.40606 0
M  V30 4329 O 413.68 -1.98627 1.85093 0
M  V30 4330 C 412.136 -0.0779303 3.59816 0
M  V30 4331 C 411.744 1.26107 4.29885 0
M  V30 4332 C 413.488 -0.565678 4.20714 0
M  V30 4333 C 411.395 1.15954 5.79921 0
M  V30 4334 H 410.325 -0.00954163 0.75394 0
M  V30 4335 H 412.976 0.665865 1.70993 0
M  V30 4336 H 411.358 -0.824165 3.87329 0
M  V30 4337 H 412.532 2.02233 4.14051 0
M  V30 4338 H 410.847 1.68401 3.80828 0
M  V30 4339 H 413.444 -0.6595 5.30617 0
M  V30 4340 H 413.787 -1.56984 3.85567 0
M  V30 4341 H 414.32 0.12467 3.97605 0
M  V30 4342 H 411.059 2.13864 6.19631 0
M  V30 4343 H 410.579 0.439529 5.98187 0
M  V30 4344 H 412.258 0.847361 6.41427 0
M  V30 4345 N 412.39 -1.55475 0.257931 0
M  V30 4346 C 413.353 -2.20551 -0.623706 0
M  V30 4347 C 414.353 -1.17809 -1.09443 0
M  V30 4348 O 415.543 -1.42823 -0.997362 0
M  V30 4349 C 412.675 -2.85784 -1.8585 0
M  V30 4350 H 413.868 -2.99848 -0.0557743 0
M  V30 4351 H 411.421 -1.56298 0.0084422 0
M  V30 4352 H 412.156 -2.10453 -2.46739 0
M  V30 4353 H 411.941 -3.61057 -1.52907 0
M  V30 4354 H 413.431 -3.35553 -2.48584 0
M  V30 4355 N 413.868 0.0150385 -1.57593 0
M  V30 4356 C 415.114 0.69849 -1.91031 0
M  V30 4357 C 415.469 1.72208 -0.85804 0
M  V30 4358 O 414.762 1.91147 0.131614 0
M  V30 4359 C 414.956 1.39686 -3.28972 0
M  V30 4360 C 414.785 0.442428 -4.47518 0
M  V30 4361 C 413.555 0.0583223 -5.05266 0
M  V30 4362 C 415.753 -0.285072 -5.13509 0
M  V30 4363 N 413.735 -0.895893 -6.07328 0
M  V30 4364 C 415.106 -1.09447 -6.10263 0
M  V30 4365 C 417.161 -0.350518 -4.96665 0
M  V30 4366 C 415.864 -1.96333 -6.91987 0
M  V30 4367 C 417.89 -1.20655 -5.78962 0
M  V30 4368 C 417.252 -2.00383 -6.75297 0
M  V30 4369 H 413.351 0.22926 -0.747639 0
M  V30 4370 H 415.935 -0.0417748 -1.94655 0
M  V30 4371 H 414.106 2.1075 -3.2625 0
M  V30 4372 H 415.838 2.03381 -3.49883 0
M  V30 4373 H 412.593 0.423506 -4.71703 0
M  V30 4374 H 413.017 -1.36792 -6.63036 0
M  V30 4375 H 417.659 0.251596 -4.22051 0
M  V30 4376 H 415.377 -2.57618 -7.65936 0
M  V30 4377 H 418.963 -1.2609 -5.67972 0
M  V30 4378 H 417.843 -2.65552 -7.3787 0
M  V30 4379 N 415.346 1.54954 0.287554 0
M  V30 4380 C 416.574 1.78881 1.03967 0
M  V30 4381 C 416.989 0.554894 1.80462 0
M  V30 4382 O 416.346 -0.475676 1.76192 0
M  V30 4383 C 416.397 3.00488 2.0097 0
M  V30 4384 O 416.118 4.19113 1.27577 0
M  V30 4385 C 417.619 3.36907 2.88112 0
M  V30 4386 H 414.839 0.596259 0.307761 0
M  V30 4387 H 417.383 2.01937 0.322749 0
M  V30 4388 H 415.538 2.79601 2.68145 0
M  V30 4389 H 415.952 4.87765 1.92835 0
M  V30 4390 H 417.426 4.25205 3.52001 0
M  V30 4391 H 417.903 2.55659 3.57121 0
M  V30 4392 H 418.509 3.60001 2.26449 0
M  V30 4393 N 416.824 -0.551391 1.4764 0
M  V30 4394 C 417.756 -1.67333 1.56628 0
M  V30 4395 C 418.769 -1.56398 0.452045 0
M  V30 4396 O 419.958 -1.6325 0.721926 0
M  V30 4397 C 417.058 -3.05841 1.45994 0
M  V30 4398 C 416.231 -3.42472 2.72088 0
M  V30 4399 C 415.29 -4.60168 2.55209 0
M  V30 4400 O 414.316 -4.64458 3.2904 0
M  V30 4401 N 415.518 -5.57024 1.63416 0
M  V30 4402 H 418.283 -1.60066 2.53375 0
M  V30 4403 H 415.844 -0.738169 1.44093 0
M  V30 4404 H 417.836 -3.8242 1.32428 0
M  V30 4405 H 416.406 -3.07302 0.573071 0
M  V30 4406 H 415.626 -2.55284 3.00373 0
M  V30 4407 H 416.914 -3.63723 3.55785 0
M  V30 4408 H 416.312 -5.56319 1.02594 0
M  V30 4409 H 414.869 -6.32906 1.558 0
M  V30 4410 N 418.302 -1.35869 -0.798587 0
M  V30 4411 C 419.55 -1.29332 -1.55298 0
M  V30 4412 C 419.871 0.129729 -1.94568 0
M  V30 4413 O 419.141 1.06796 -1.6423 0
M  V30 4414 H 417.721 -0.475737 -0.57592 0
M  V30 4415 H 420.383 -1.70062 -0.952093 0
M  V30 4416 H 419.479 -1.91458 -2.46476 0
M  V30 4417 N 419.78 1.02168 -1.19998 0
M  V30 4418 C 420.69 2.14069 -0.959774 0
M  V30 4419 C 421.706 1.73804 0.082655 0
M  V30 4420 O 422.882 2.01133 -0.103633 0
M  V30 4421 C 419.947 3.42936 -0.509459 0
M  V30 4422 C 419.008 3.97474 -1.62213 0
M  V30 4423 C 418.241 5.2019 -1.19321 0
M  V30 4424 O 418.464 5.70369 -0.0597726 0
M  V30 4425 O 417.398 5.67749 -1.99863 0
M  V30 4426 H 421.224 2.37199 -1.89658 0
M  V30 4427 H 418.809 1.12469 -0.983411 0
M  V30 4428 H 420.691 4.20551 -0.267322 0
M  V30 4429 H 419.366 3.21234 0.398821 0
M  V30 4430 H 418.273 3.21161 -1.9185 0
M  V30 4431 H 419.606 4.23555 -2.50723 0
M  V30 4432 N 421.258 1.00505 1.21394 0
M  V30 4433 C 422.19 0.52372 2.23136 0
M  V30 4434 C 423.203 -0.387714 1.58116 0
M  V30 4435 O 424.392 -0.187905 1.77508 0
M  V30 4436 C 421.492 -0.258885 3.3791 0
M  V30 4437 C 420.665 0.651634 4.32519 0
M  V30 4438 C 419.724 -0.0813705 5.26137 0
M  V30 4439 O 418.75 0.537295 5.66658 0
M  V30 4440 N 419.952 -1.35992 5.64346 0
M  V30 4441 H 422.717 1.39865 2.65062 0
M  V30 4442 H 420.278 0.881196 1.35818 0
M  V30 4443 H 422.27 -0.758208 3.97534 0
M  V30 4444 H 420.84 -1.035 2.94968 0
M  V30 4445 H 420.06 1.33145 3.71034 0
M  V30 4446 H 421.348 1.27129 4.92662 0
M  V30 4447 H 420.746 -1.88368 5.33417 0
M  V30 4448 H 419.303 -1.8042 6.26332 0
M  V30 4449 N 422.737 -1.36956 0.779787 0
M  V30 4450 C 423.647 -2.33965 0.172491 0
M  V30 4451 C 424.663 -1.60574 -0.670222 0
M  V30 4452 O 425.839 -1.92617 -0.588263 0
M  V30 4453 C 422.904 -3.39761 -0.690173 0
M  V30 4454 C 421.965 -4.28964 0.169924 0
M  V30 4455 C 421.198 -5.29707 -0.651662 0
M  V30 4456 O 421.421 -5.38238 -1.88827 0
M  V30 4457 O 420.355 -6.01873 -0.0566264 0
M  V30 4458 H 424.181 -2.87647 0.974321 0
M  V30 4459 H 421.766 -1.39258 0.541078 0
M  V30 4460 H 423.648 -4.04471 -1.1824 0
M  V30 4461 H 422.323 -2.88394 -1.47006 0
M  V30 4462 H 421.23 -3.67326 0.708696 0
M  V30 4463 H 422.563 -4.83656 0.913085 0
M  V30 4464 N 424.215 -0.530993 -1.48385 0
M  V30 4465 C 425.461 0.00274135 -2.028 0
M  V30 4466 C 425.794 1.33838 -1.40716 0
M  V30 4467 O 425.069 1.86465 -0.553277 0
M  V30 4468 C 425.352 0.123676 -3.59888 0
M  V30 4469 C 425.205 -1.2372 -4.3245 0
M  V30 4470 C 426.524 0.849967 -4.31814 0
M  V30 4471 H 423.643 -0.000477758 -0.737 0
M  V30 4472 H 426.285 -0.688217 -1.77098 0
M  V30 4473 H 424.435 0.712157 -3.81917 0
M  V30 4474 H 426.107 -1.86687 -4.21836 0
M  V30 4475 H 424.35 -1.81882 -3.93829 0
M  V30 4476 H 425.021 -1.10557 -5.40815 0
M  V30 4477 H 427.497 0.350572 -4.14621 0
M  V30 4478 H 426.373 0.903486 -5.41413 0
M  V30 4479 H 426.634 1.90047 -3.99167 0
M  V30 4480 N 425.693 1.55336 -0.266172 0
M  V30 4481 C 426.623 2.25146 0.618981 0
M  V30 4482 C 427.604 1.23845 1.16604 0
M  V30 4483 O 428.789 1.52544 1.20183 0
M  V30 4484 C 425.919 2.96572 1.80728 0
M  V30 4485 C 424.873 4.04726 1.39215 0
M  V30 4486 C 424.199 4.63678 2.66283 0
M  V30 4487 C 425.499 5.19407 0.548942 0
M  V30 4488 H 427.193 2.99377 0.0368116 0
M  V30 4489 H 424.739 1.43991 0.0162651 0
M  V30 4490 H 426.692 3.44116 2.43232 0
M  V30 4491 H 425.416 2.19861 2.41514 0
M  V30 4492 H 424.075 3.57979 0.790351 0
M  V30 4493 H 423.723 3.83646 3.25308 0
M  V30 4494 H 423.423 5.367 2.39222 0
M  V30 4495 H 424.947 5.13967 3.29651 0
M  V30 4496 H 426.361 5.63059 1.07876 0
M  V30 4497 H 424.758 5.98936 0.373593 0
M  V30 4498 H 425.828 4.8295 -0.434394 0
M  V30 4499 N 427.171 -0.0066808 1.57599 0
M  V30 4500 C 428.103 -1.02827 2.04839 0
M  V30 4501 C 429.116 -1.31108 0.965113 0
M  V30 4502 O 430.305 -1.28202 1.24203 0
M  V30 4503 C 427.405 -2.36464 2.42771 0
M  V30 4504 C 426.578 -2.27219 3.73751 0
M  V30 4505 C 425.637 -3.43489 3.98625 0
M  V30 4506 O 424.663 -3.21976 4.69382 0
M  V30 4507 N 425.865 -4.66116 3.46 0
M  V30 4508 H 428.63 -0.625455 2.93101 0
M  V30 4509 H 426.191 -0.194198 1.60731 0
M  V30 4510 H 428.183 -3.13008 2.56531 0
M  V30 4511 H 426.753 -2.68512 1.60063 0
M  V30 4512 H 425.973 -1.35629 3.70133 0
M  V30 4513 H 427.261 -2.18208 4.59633 0
M  V30 4514 H 426.659 -4.86493 2.88688 0
M  V30 4515 H 425.216 -5.39949 3.65101 0
M  V30 4516 N 428.649 -1.55105 -0.279332 0
M  V30 4517 C 430.06 -1.66186 -0.850832 0
M  V30 4518 C 430.411 -0.584707 -1.87285 0
M  V30 4519 O 429.536 0.274919 -2.14647 0
M  V30 4520 C 430.131 -3.01264 -1.55001 0
M  V30 4521 C 428.69 -3.14394 -2.06963 0
M  V30 4522 C 427.837 -2.61959 -0.909536 0
M  V30 4523 H 430.788 -1.58602 -0.0558235 0
M  V30 4524 H 430.809 -2.93899 -2.41669 0
M  V30 4525 H 430.321 -3.7964 -0.805931 0
M  V30 4526 H 428.422 -2.4078 -2.84352 0
M  V30 4527 H 428.535 -4.20867 -2.28928 0
M  V30 4528 H 426.899 -2.18957 -1.30116 0
M  V30 4529 H 427.682 -3.42833 -0.179062 0
M  V30 4530 N 430.127 0.543554 -1.4793 0
M  V30 4531 C 431.374 1.30008 -1.55255 0
M  V30 4532 C 431.702 1.93245 -0.220612 0
M  V30 4533 O 430.957 1.79141 0.787843 0
M  V30 4534 C 431.256 2.42078 -2.62932 0
M  V30 4535 C 430.922 1.96583 -4.0579 0
M  V30 4536 C 429.584 1.83893 -4.44676 0
M  V30 4537 C 431.936 1.62034 -4.95373 0
M  V30 4538 C 429.264 1.34969 -5.70964 0
M  V30 4539 C 431.616 1.14577 -6.22137 0
M  V30 4540 C 430.28 1.00493 -6.59892 0
M  V30 4541 H 429.55 0.475735 -0.568117 0
M  V30 4542 H 432.197 0.608075 -1.81589 0
M  V30 4543 H 430.502 3.16892 -2.30406 0
M  V30 4544 H 432.199 3.00236 -2.65818 0
M  V30 4545 H 428.789 2.07407 -3.75074 0
M  V30 4546 H 432.973 1.70705 -4.66019 0
M  V30 4547 H 428.229 1.2274 -5.98953 0
M  V30 4548 H 432.403 0.869109 -6.90955 0
M  V30 4549 H 430.03 0.623624 -7.57638 0
M  V30 4550 N 431.605 1.3629 0.791371 0
M  V30 4551 C 432.845 1.31792 1.56238 0
M  V30 4552 C 433.209 -0.102237 1.91728 0
M  V30 4553 O 434.41 -0.271759 2.67423 0
M  V30 4554 C 432.681 2.21303 2.80642 0
M  V30 4555 S 434.24 2.34468 3.70904 0
M  V30 4556 H 431.058 0.468141 0.535131 0
M  V30 4557 H 433.66 1.71841 0.932246 0
M  V30 4558 H 432.364 3.23439 2.52617 0
M  V30 4559 H 431.895 1.82266 3.4863 0
M  V30 4560 H 433.91 1.54074 4.71673 0
M  V30 4561 N 433.083 -1.0153 1.20538 0
M  V30 4562 C 434.36 -1.72327 0.925343 0
M  V30 4563 C 434.74 -2.03383 -0.565547 0
M  V30 4564 O 434.088 -1.69934 -1.52757 0
M  V30 4565 C 434.298 -2.9902 1.79967 0
M  V30 4566 C 435.646 -3.72258 2.04228 0
M  V30 4567 O 436.67 -3.08979 1.77231 0
M  V30 4568 O 435.529 -4.86053 2.4983 0
M  V30 4569 H 432.623 -0.751099 0.346092 0
M  V30 4570 H 435.169 -1.07366 1.31417 0
M  V30 4571 H 433.941 -2.72402 2.80915 0
M  V30 4572 H 433.564 -3.71721 1.41099 0
M  V30 4573 N 434.561 -1.01147 -1.20859 0
M  V30 4574 C 435.808 -0.697865 -1.90095 0
M  V30 4575 C 436.136 0.772014 -1.78522 0
M  V30 4576 O 435.391 1.57595 -1.16027 0
M  V30 4577 C 435.69 -1.0727 -3.40922 0
M  V30 4578 C 435.356 -2.53792 -3.72693 0
M  V30 4579 C 434.018 -2.93829 -3.81075 0
M  V30 4580 C 436.37 -3.48674 -3.87397 0
M  V30 4581 C 433.698 -4.27696 -4.01613 0
M  V30 4582 C 436.05 -4.82223 -4.09444 0
M  V30 4583 C 434.714 -5.21973 -4.16054 0
M  V30 4584 H 433.984 -0.255367 -0.695607 0
M  V30 4585 H 436.631 -1.27111 -1.43231 0
M  V30 4586 H 434.936 -0.417799 -3.89566 0
M  V30 4587 H 436.633 -0.807818 -3.92779 0
M  V30 4588 H 433.223 -2.21768 -3.66765 0
M  V30 4589 H 437.407 -3.18904 -3.80281 0
M  V30 4590 H 432.663 -4.58055 -4.04964 0
M  V30 4591 H 436.837 -5.55672 -4.19763 0
M  V30 4592 H 434.464 -6.25717 -4.31721 0
M  V30 4593 N 436.039 1.36541 -0.78704 0
M  V30 4594 C 437.45 1.81873 -0.421807 0
M  V30 4595 C 437.801 1.65487 1.05397 0
M  V30 4596 O 436.926 1.17448 1.81755 0
M  V30 4597 C 437.521 3.30192 -0.758841 0
M  V30 4598 C 436.08 3.73743 -0.446468 0
M  V30 4599 C 435.227 2.58844 -0.994728 0
M  V30 4600 H 438.178 1.24796 -0.98039 0
M  V30 4601 H 438.199 3.80468 -0.0490648 0
M  V30 4602 H 437.711 3.42087 -1.83299 0
M  V30 4603 H 435.812 3.6741 0.619739 0
M  V30 4604 H 435.925 4.69272 -0.965415 0
M  V30 4605 H 434.289 2.51245 -0.418087 0
M  V30 4606 H 435.072 2.73525 -2.07458 0
M  V30 4607 N 437.518 0.538854 1.48102 0
M  V30 4608 C 438.428 -0.222648 2.33541 0
M  V30 4609 C 439.444 -0.930225 1.47047 0
M  V30 4610 O 440.62 -0.903211 1.80011 0
M  V30 4611 C 437.685 -1.25064 3.23357 0
M  V30 4612 C 436.746 -0.552469 4.2573 0
M  V30 4613 C 435.979 -1.53149 5.11254 0
M  V30 4614 O 436.202 -2.76487 4.9891 0
M  V30 4615 O 435.136 -1.06602 5.92385 0
M  V30 4616 H 438.962 0.477707 2.99919 0
M  V30 4617 H 436.547 0.299669 1.46364 0
M  V30 4618 H 438.429 -1.8445 3.78888 0
M  V30 4619 H 437.104 -1.93325 2.59629 0
M  V30 4620 H 436.011 0.082114 3.7401 0
M  V30 4621 H 437.344 0.0883526 4.92121 0
M  V30 4622 N 438.996 -1.55193 0.274407 0
M  V30 4623 C 440.245 -1.98758 -0.343213 0
M  V30 4624 C 440.558 -1.16624 -1.5703 0
M  V30 4625 O 441.764 -1.5033 -2.26082 0
M  V30 4626 C 440.22 -3.53759 -0.661996 0
M  V30 4627 C 439.828 -4.4467 0.54524 0
M  V30 4628 C 441.572 -4.05916 -1.24228 0
M  V30 4629 C 439.479 -5.91058 0.201084 0
M  V30 4630 H 438.409 -0.742353 -0.132014 0
M  V30 4631 H 441.06 -1.79545 0.378948 0
M  V30 4632 H 439.442 -3.68772 -1.44304 0
M  V30 4633 H 440.616 -4.41426 1.32212 0
M  V30 4634 H 438.931 -4.03143 1.04232 0
M  V30 4635 H 441.528 -5.12831 -1.51357 0
M  V30 4636 H 441.871 -3.54908 -2.17592 0
M  V30 4637 H 442.404 -3.9434 -0.523542 0
M  V30 4638 H 439.143 -6.46161 1.10258 0
M  V30 4639 H 438.663 -5.97373 -0.539045 0
M  V30 4640 H 440.342 -6.46669 -0.206954 0
M  V30 4641 N 440.474 -0.00167713 -1.576 0
M  V30 4642 C 441.72 0.683832 -1.90923 0
M  V30 4643 C 442.053 1.7333 -0.875799 0
M  V30 4644 O 441.328 1.94215 0.10525 0
M  V30 4645 C 441.611 1.32543 -3.3482 0
M  V30 4646 C 441.464 0.287387 -4.48881 0
M  V30 4647 C 442.783 2.25114 -3.78169 0
M  V30 4648 H 439.902 0.247125 -0.694333 0
M  V30 4649 H 442.544 -0.0533149 -1.89925 0
M  V30 4650 H 440.694 1.95372 -3.35801 0
M  V30 4651 H 442.366 -0.341346 -4.60035 0
M  V30 4652 H 440.609 -0.39017 -4.32042 0
M  V30 4653 H 441.28 0.775393 -5.46527 0
M  V30 4654 H 443.756 1.723 -3.7875 0
M  V30 4655 H 442.632 2.66971 -4.79602 0
M  V30 4656 H 442.893 3.13092 -3.12131 0
M  V30 4657 N 441.952 1.55251 0.271103 0
M  V30 4658 C 443.229 1.66664 1.02384 0
M  V30 4659 C 443.609 0.534363 2.04225 0
M  V30 4660 O 442.957 -0.465337 2.23712 0
M  V30 4661 C 443.167 3.05961 1.67895 0
M  V30 4662 C 444.515 3.63772 2.18986 0
M  V30 4663 O 445.539 3.08606 1.77878 0
M  V30 4664 O 444.398 4.60429 2.94393 0
M  V30 4665 H 441.492 0.676957 0.475035 0
M  V30 4666 H 444.038 1.67589 0.26681 0
M  V30 4667 H 442.81 3.79815 0.941071 0
M  V30 4668 H 442.433 3.08943 2.5028 0
M  V30 4669 N 443.43 -0.535701 1.48216 0
M  V30 4670 C 444.679 -1.28828 1.55197 0
M  V30 4671 C 444.992 -1.94263 0.228278 0
M  V30 4672 O 446.198 -2.70927 0.176278 0
M  V30 4673 C 444.654 -2.33727 2.73678 0
M  V30 4674 C 444.262 -1.74386 4.12666 0
M  V30 4675 C 446.006 -3.1003 2.89968 0
M  V30 4676 C 443.913 -2.77192 5.22416 0
M  V30 4677 H 442.843 -0.484484 0.577747 0
M  V30 4678 H 445.494 -0.56646 1.74538 0
M  V30 4679 H 443.876 -3.08919 2.4776 0
M  V30 4680 H 445.05 -1.05421 4.48579 0
M  V30 4681 H 443.365 -1.10595 4.01445 0
M  V30 4682 H 445.962 -3.86842 3.6913 0
M  V30 4683 H 446.305 -3.65542 1.9921 0
M  V30 4684 H 446.838 -2.41952 3.15759 0
M  V30 4685 H 443.577 -2.26507 6.15122 0
M  V30 4686 H 443.097 -3.44502 4.90998 0
M  V30 4687 H 444.776 -3.40285 5.50286 0
M  V30 4688 N 444.908 -1.36708 -0.784132 0
M  V30 4689 C 446.133 -1.34565 -1.5782 0
M  V30 4690 C 446.558 0.0695257 -1.87971 0
M  V30 4691 O 445.916 1.04302 -1.48293 0
M  V30 4692 C 445.964 -2.17952 -2.87279 0
M  V30 4693 O 445.068 -1.57563 -3.81114 0
M  V30 4694 H 444.409 -0.460337 -0.478524 0
M  V30 4695 H 446.939 -1.80064 -0.971495 0
M  V30 4696 H 446.949 -2.30721 -3.365 0
M  V30 4697 H 445.624 -3.20823 -2.64661 0
M  V30 4698 H 444.201 -1.53764 -3.39722 0
M  V30 4699 N 446.386 1.0089 -1.21074 0
M  V30 4700 C 447.635 1.74019 -1.01981 0
M  V30 4701 C 447.948 1.90408 0.447665 0
M  V30 4702 O 449.154 2.60707 0.757906 0
M  V30 4703 C 447.61 3.13026 -1.77603 0
M  V30 4704 C 447.218 3.04623 -3.28495 0
M  V30 4705 C 448.962 3.90312 -1.66904 0
M  V30 4706 C 446.869 4.38685 -3.96623 0
M  V30 4707 H 445.799 0.652422 -0.377971 0
M  V30 4708 H 448.45 1.12755 -1.44771 0
M  V30 4709 H 446.832 3.74878 -1.27604 0
M  V30 4710 H 448.006 2.52032 -3.85767 0
M  V30 4711 H 446.321 2.40827 -3.39693 0
M  V30 4712 H 448.918 4.8951 -2.15138 0
M  V30 4713 H 449.261 4.11558 -0.62658 0
M  V30 4714 H 449.794 3.35104 -2.14359 0
M  V30 4715 H 446.533 4.22641 -5.01054 0
M  V30 4716 H 446.053 4.91252 -3.4414 0
M  V30 4717 H 447.732 5.075 -4.01314 0
M  V30 4718 N 447.864 1.01787 1.20321 0
M  V30 4719 C 448.811 0.589197 2.23153 0
M  V30 4720 C 449.781 -0.391367 1.61423 0
M  V30 4721 O 450.966 -0.290518 1.88575 0
M  V30 4722 C 448.106 -0.0650747 3.45039 0
M  V30 4723 C 447.219 0.960207 4.21194 0
M  V30 4724 C 446.354 0.276854 5.30478 0
M  V30 4725 C 445.393 1.2888 5.98378 0
M  V30 4726 N 444.53 0.632031 6.99249 0
M  V30 4727 H 449.37 1.47071 2.59179 0
M  V30 4728 H 446.907 0.736192 1.27352 0
M  V30 4729 H 448.865 -0.461552 4.14639 0
M  V30 4730 H 447.495 -0.910233 3.09701 0
M  V30 4731 H 446.547 1.47484 3.50646 0
M  V30 4732 H 447.859 1.72977 4.67847 0
M  V30 4733 H 447.013 -0.175056 6.06447 0
M  V30 4734 H 445.752 -0.525004 4.84866 0
M  V30 4735 H 444.757 1.75109 5.21169 0
M  V30 4736 H 445.982 2.09196 6.46076 0
M  V30 4737 H 443.928 -0.149935 6.55829 0
M  V30 4738 H 443.845 1.33964 7.44036 0
M  V30 4739 H 445.113 0.203755 7.79234 0
M  V30 4740 N 449.342 -1.36122 0.79427 0
M  V30 4741 C 450.274 -2.28683 0.153903 0
M  V30 4742 C 451.287 -1.49707 -0.639669 0
M  V30 4743 O 452.476 -1.7209 -0.474054 0
M  V30 4744 C 449.576 -3.29202 -0.804921 0
M  V30 4745 C 448.749 -4.37358 -0.060366 0
M  V30 4746 C 447.808 -5.17811 -0.935849 0
M  V30 4747 O 446.834 -5.67853 -0.391309 0
M  V30 4748 N 448.036 -5.34721 -2.25951 0
M  V30 4749 H 450.801 -2.84278 0.949008 0
M  V30 4750 H 448.362 -1.4834 0.648611 0
M  V30 4751 H 450.354 -3.79914 -1.39455 0
M  V30 4752 H 448.924 -2.74212 -1.50088 0
M  V30 4753 H 448.144 -3.87746 0.710382 0
M  V30 4754 H 449.432 -5.06777 0.45324 0
M  V30 4755 H 448.83 -4.95687 -2.72601 0
M  V30 4756 H 447.387 -5.88657 -2.79867 0
M  V30 4757 N 450.82 -0.546701 -1.47814 0
M  V30 4758 C 451.783 0.196287 -2.28358 0
M  V30 4759 C 452.783 0.852437 -1.36346 0
M  V30 4760 O 453.973 0.709913 -1.59078 0
M  V30 4761 C 451.105 1.28579 -3.15722 0
M  V30 4762 H 452.298 -0.511086 -2.95513 0
M  V30 4763 H 449.851 -0.303248 -1.5333 0
M  V30 4764 H 450.586 2.0259 -2.53235 0
M  V30 4765 H 450.371 0.820229 -3.83425 0
M  V30 4766 H 451.861 1.80793 -3.76435 0
M  V30 4767 N 452.299 1.55045 -0.282633 0
M  V30 4768 C 453.71 1.85473 0.213655 0
M  V30 4769 C 454.061 1.20465 1.54863 0
M  V30 4770 O 453.186 0.495676 2.10647 0
M  V30 4771 C 453.781 3.36496 0.394445 0
M  V30 4772 C 452.34 3.67022 0.834961 0
M  V30 4773 C 451.487 2.77218 -0.0674081 0
M  V30 4774 H 454.438 1.50478 -0.504202 0
M  V30 4775 H 454.459 3.60007 1.23186 0
M  V30 4776 H 453.971 3.83782 -0.577326 0
M  V30 4777 H 452.072 3.25241 1.81794 0
M  V30 4778 H 452.185 4.74433 0.667075 0
M  V30 4779 H 450.549 2.5069 0.450196 0
M  V30 4780 H 451.332 3.2732 -1.0352 0
M  V30 4781 N 453.777 0.010035 1.57597 0
M  V30 4782 C 455.193 -0.346164 1.55801 0
M  V30 4783 C 455.393 -1.74144 1.01371 0
M  V30 4784 O 454.449 -2.43938 0.651968 0
M  V30 4785 C 455.762 -0.212216 2.9995 0
M  V30 4786 C 457.31 -0.286409 3.11687 0
M  V30 4787 C 457.785 -0.18147 4.5764 0
M  V30 4788 N 459.276 -0.239056 4.62583 0
M  V30 4789 C 460.011 -0.181351 5.73113 0
M  V30 4790 N 459.507 -0.073661 6.92761 0
M  V30 4791 N 461.3 -0.233949 5.61613 0
M  V30 4792 H 453.451 0.922657 1.91313 0
M  V30 4793 H 455.714 0.354595 0.879185 0
M  V30 4794 H 455.42 0.748169 3.4365 0
M  V30 4795 H 455.294 -0.990224 3.6397 0
M  V30 4796 H 457.681 -1.23724 2.67911 0
M  V30 4797 H 457.762 0.521645 2.50425 0
M  V30 4798 H 457.406 0.765863 5.02093 0
M  V30 4799 H 457.336 -1.00814 5.1686 0
M  V30 4800 H 459.827 -0.32321 3.76515 0
M  V30 4801 H 460.14 -0.0358003 7.72792 0
M  V30 4802 H 458.485 -0.0391461 6.94989 0
M  V30 4803 H 461.676 -0.316347 4.6703 0
M  V30 4804 H 461.849 -0.185514 6.47734 0
M  V30 4805 N 455.255 -1.55392 -0.262866 0
M  V30 4806 C 456.501 -1.76737 -0.99458 0
M  V30 4807 C 456.834 -0.572453 -1.85571 0
M  V30 4808 O 456.109 0.429732 -1.89693 0
M  V30 4809 C 456.392 -3.07824 -1.8686 0
M  V30 4810 C 456.245 -4.3769 -1.03672 0
M  V30 4811 C 457.564 -3.35021 -2.85393 0
M  V30 4812 H 454.683 -0.643005 -0.360157 0
M  V30 4813 H 457.325 -1.88126 -0.266216 0
M  V30 4814 H 455.475 -2.98245 -2.48962 0
M  V30 4815 H 457.147 -4.59238 -0.43563 0
M  V30 4816 H 455.39 -4.32461 -0.340513 0
M  V30 4817 H 456.061 -5.25759 -1.6817 0
M  V30 4818 H 458.537 -3.44458 -2.33426 0
M  V30 4819 H 457.413 -4.27989 -3.43681 0
M  V30 4820 H 457.674 -2.55153 -3.61039 0
M  V30 4821 N 456.733 0.527833 -1.48498 0
M  V30 4822 C 457.981 1.28101 -1.56316 0
M  V30 4823 C 458.302 1.9352 -0.239781 0
M  V30 4824 O 457.572 1.81433 0.738849 0
M  V30 4825 H 456.152 0.475793 -0.575873 0
M  V30 4826 H 458.814 0.614052 -1.84974 0
M  V30 4827 H 457.91 2.05916 -2.34532 0
M  V30 4828 N 458.211 1.37122 0.776871 0
M  V30 4829 C 459.622 1.28667 1.35284 0
M  V30 4830 C 459.973 -0.0680035 1.96082 0
M  V30 4831 O 459.098 -0.969743 1.93455 0
M  V30 4832 C 459.693 2.32997 2.45963 0
M  V30 4833 C 458.252 2.28191 2.99342 0
M  V30 4834 C 457.399 2.17101 1.72517 0
M  V30 4835 H 460.35 1.47819 0.577527 0
M  V30 4836 H 460.371 1.97366 3.2531 0
M  V30 4837 H 459.883 3.3158 2.01684 0
M  V30 4838 H 457.984 1.33115 3.4801 0
M  V30 4839 H 458.097 3.21397 3.55304 0
M  V30 4840 H 456.461 1.63562 1.95242 0
M  V30 4841 H 457.244 3.17591 1.30348 0
M  V30 4842 N 459.689 -1.00246 1.21608 0
M  V30 4843 C 460.652 -2.07233 0.979133 0
M  V30 4844 C 461.652 -1.6072 -0.0508219 0
M  V30 4845 O 462.842 -1.73196 0.186712 0
M  V30 4846 C 459.974 -3.37546 0.477016 0
M  V30 4847 H 461.167 -2.29687 1.92831 0
M  V30 4848 H 458.72 -1.17261 1.03342 0
M  V30 4849 H 459.455 -3.20773 -0.476966 0
M  V30 4850 H 459.24 -3.72638 1.21997 0
M  V30 4851 H 460.73 -4.16285 0.331181 0
M  V30 4852 N 461.167 -1.02423 -1.1978 0
M  V30 4853 C 462.415 -0.716569 -1.8897 0
M  V30 4854 C 462.736 0.756769 -1.79716 0
M  V30 4855 O 462.006 1.5449 -1.20456 0
M  V30 4856 H 460.586 -0.262062 -0.699523 0
M  V30 4857 H 463.248 -1.29747 -1.45436 0
M  V30 4858 H 462.344 -1.00675 -2.95417 0
M  V30 4859 N 462.645 1.35699 -0.801477 0
M  V30 4860 C 463.555 2.33661 -0.209691 0
M  V30 4861 C 464.571 1.6162 0.644591 0
M  V30 4862 O 465.747 1.93529 0.557545 0
M  V30 4863 C 462.812 3.40816 0.636033 0
M  V30 4864 C 461.873 4.28639 -0.238147 0
M  V30 4865 C 461.106 5.30676 0.567307 0
M  V30 4866 O 461.329 5.41174 1.8024 0
M  V30 4867 O 460.263 6.01887 -0.0391336 0
M  V30 4868 H 464.089 2.8606 -1.01996 0
M  V30 4869 H 461.674 1.38379 -0.563164 0
M  V30 4870 H 463.556 4.06301 1.11791 0
M  V30 4871 H 462.231 2.90696 1.42399 0
M  V30 4872 H 461.138 3.66152 -0.767044 0
M  V30 4873 H 462.471 4.82143 -0.989915 0
M  V30 4874 N 464.123 0.554532 1.47522 0
M  V30 4875 C 465.073 -0.215008 2.26984 0
M  V30 4876 C 466.057 -0.88774 1.34194 0
M  V30 4877 O 467.249 -0.786489 1.58567 0
M  V30 4878 C 464.378 -1.24604 3.19889 0
M  V30 4879 C 463.464 -0.576857 4.20159 0
M  V30 4880 N 463.855 0.351541 5.04577 0
M  V30 4881 C 462.153 -0.831104 4.38188 0
M  V30 4882 C 462.854 0.739995 5.76974 0
M  V30 4883 N 461.83 0.0954407 5.43516 0
M  V30 4884 H 465.632 0.498843 2.89636 0
M  V30 4885 H 463.146 0.374279 1.58028 0
M  V30 4886 H 465.143 -1.81128 3.75498 0
M  V30 4887 H 463.803 -1.96101 2.58794 0
M  V30 4888 H 464.814 0.725556 5.12792 0
M  V30 4889 H 461.491 -1.53479 3.88266 0
M  V30 4890 H 462.881 1.50271 6.5488 0
M  V30 4891 N 465.601 -1.54893 0.290851 0
M  V30 4892 C 467.017 -1.59476 -0.0628432 0
M  V30 4893 C 467.217 -1.30795 -1.5328 0
M  V30 4894 O 466.273 -1.07644 -2.28406 0
M  V30 4895 C 467.586 -2.98928 0.325962 0
M  V30 4896 C 469.134 -3.11799 0.273882 0
M  V30 4897 C 469.609 -4.53544 0.637359 0
M  V30 4898 N 471.1 -4.59433 0.589507 0
M  V30 4899 C 471.835 -5.67164 0.84335 0
M  V30 4900 N 471.331 -6.82975 1.16263 0
M  V30 4901 N 473.124 -5.56786 0.771091 0
M  V30 4902 H 465.275 -1.71798 1.24896 0
M  V30 4903 H 467.538 -0.801879 0.505663 0
M  V30 4904 H 467.244 -3.24805 1.34887 0
M  V30 4905 H 467.118 -3.75793 -0.325441 0
M  V30 4906 H 469.505 -2.85677 -0.739765 0
M  V30 4907 H 469.586 -2.37112 0.959766 0
M  V30 4908 H 469.23 -4.80394 1.64877 0
M  V30 4909 H 469.16 -5.26553 -0.0704866 0
M  V30 4910 H 471.651 -3.76245 0.353252 0
M  V30 4911 H 471.964 -7.61048 1.34257 0
M  V30 4912 H 470.309 -6.84552 1.20057 0
M  V30 4913 H 473.5 -4.65187 0.521383 0
M  V30 4914 H 473.673 -6.40664 0.972295 0
M  V30 4915 N 467.08 -0.0183926 -1.57589 0
M  V30 4916 C 468.01 0.965596 -2.12599 0
M  V30 4917 C 468.991 1.34641 -1.0395 0
M  V30 4918 O 470.176 1.42693 -1.31729 0
M  V30 4919 C 467.306 2.25149 -2.64434 0
M  V30 4920 C 466.26 2.01175 -3.77773 0
M  V30 4921 C 465.586 3.35937 -4.15994 0
M  V30 4922 C 466.886 1.35953 -5.04296 0
M  V30 4923 H 468.58 0.507504 -2.95067 0
M  V30 4924 H 466.126 0.242671 -1.41941 0
M  V30 4925 H 468.079 2.94357 -3.01549 0
M  V30 4926 H 466.803 2.73105 -1.79112 0
M  V30 4927 H 465.462 1.34388 -3.4108 0
M  V30 4928 H 465.11 3.81631 -3.27669 0
M  V30 4929 H 464.81 3.20705 -4.92364 0
M  V30 4930 H 466.334 4.0643 -4.55683 0
M  V30 4931 H 467.748 1.95144 -5.39065 0
M  V30 4932 H 466.145 1.31152 -5.85593 0
M  V30 4933 H 467.215 0.331071 -4.83768 0
M  V30 4934 N 468.558 1.5553 0.254621 0
M  V30 4935 C 469.804 1.77262 0.985193 0
M  V30 4936 C 470.137 0.582286 1.85265 0
M  V30 4937 O 469.412 -0.419666 1.89919 0
M  V30 4938 C 469.695 3.0881 1.85225 0
M  V30 4939 C 469.548 4.38233 1.0135 0
M  V30 4940 C 470.867 3.3653 2.83612 0
M  V30 4941 H 467.986 0.644906 0.356742 0
M  V30 4942 H 470.628 1.88264 0.256236 0
M  V30 4943 H 468.778 2.99562 2.47376 0
M  V30 4944 H 470.45 4.59463 0.411269 0
M  V30 4945 H 468.693 4.32636 0.317574 0
M  V30 4946 H 469.364 5.26644 1.65379 0
M  V30 4947 H 471.84 3.45691 2.31596 0
M  V30 4948 H 470.716 4.29805 3.41407 0
M  V30 4949 H 470.977 2.57064 3.59681 0
M  V30 4950 N 470.036 -0.519951 1.48776 0
M  V30 4951 C 471.264 -1.29971 1.60982 0
M  V30 4952 C 471.679 -1.86803 0.273885 0
M  V30 4953 O 471.036 -1.66904 -0.738193 0
M  V30 4954 C 471.087 -2.44346 2.66415 0
M  V30 4955 O 470.808 -1.89855 3.94825 0
M  V30 4956 C 472.309 -3.36014 2.89153 0
M  V30 4957 H 469.529 -0.394891 0.542496 0
M  V30 4958 H 472.073 -0.626214 1.94676 0
M  V30 4959 H 470.228 -3.07562 2.35552 0
M  V30 4960 H 470.642 -2.64798 4.5275 0
M  V30 4961 H 472.116 -4.12593 3.66703 0
M  V30 4962 H 472.593 -3.91859 1.98351 0
M  V30 4963 H 473.199 -2.78582 3.21359 0
M  V30 4964 N 471.514 -1.37532 -0.769588 0
M  V30 4965 C 472.76 -1.33057 -1.53048 0
M  V30 4966 C 473.093 0.0841865 -1.94017 0
M  V30 4967 O 472.368 1.04198 -1.64235 0
M  V30 4968 C 472.651 -2.27166 -2.79406 0
M  V30 4969 C 472.504 -3.77429 -2.44677 0
M  V30 4970 C 473.823 -2.19683 -3.81349 0
M  V30 4971 H 470.942 -0.484655 -0.555228 0
M  V30 4972 H 473.584 -1.68251 -0.882702 0
M  V30 4973 H 471.734 -1.97283 -3.34682 0
M  V30 4974 H 473.406 -4.17918 -1.953 0
M  V30 4975 H 471.649 -3.95892 -1.77346 0
M  V30 4976 H 472.32 -4.38716 -3.35011 0
M  V30 4977 H 474.796 -2.46029 -3.35573 0
M  V30 4978 H 473.672 -2.87668 -4.67481 0
M  V30 4979 H 473.933 -1.19045 -4.25771 0
M  V30 4980 N 472.992 0.995999 -1.22138 0
M  V30 4981 C 474.22 1.77066 -1.07029 0
M  V30 4982 C 474.635 1.8495 0.379357 0
M  V30 4983 O 473.992 1.3174 1.26297 0
M  V30 4984 C 474.043 3.20533 -1.67155 0
M  V30 4985 O 473.764 3.13082 -3.06449 0
M  V30 4986 C 475.265 4.14461 -1.5728 0
M  V30 4987 H 472.485 0.556179 -0.375374 0
M  V30 4988 H 475.029 1.25238 -1.61666 0
M  V30 4989 H 473.184 3.6944 -1.16589 0
M  V30 4990 H 473.598 4.03283 -3.35355 0
M  V30 4991 H 475.072 5.1289 -2.04078 0
M  V30 4992 H 475.549 4.36005 -0.528795 0
M  V30 4993 H 476.155 3.71449 -2.07136 0
M  V30 4994 N 474.47 1.03057 1.19235 0
M  V30 4995 C 475.886 0.747947 1.40989 0
M  V30 4996 C 476.086 -0.666752 1.90149 0
M  V30 4997 O 475.142 -1.43249 2.07933 0
M  V30 4998 C 476.455 1.7855 2.41951 0
M  V30 4999 C 478.003 1.80524 2.55695 0
M  V30 5000 C 478.478 2.83243 3.59913 0
M  V30 5001 N 479.969 2.8207 3.67411 0
M  V30 5002 C 480.704 3.58204 4.47747 0
M  V30 5003 N 480.2 4.44057 5.31775 0
M  V30 5004 N 481.993 3.46738 4.42413 0
M  V30 5005 H 474.144 1.94367 0.856468 0
M  V30 5006 H 476.407 0.840412 0.438647 0
M  V30 5007 H 476.113 2.79973 2.12857 0
M  V30 5008 H 475.987 1.6092 3.41152 0
M  V30 5009 H 478.374 0.79778 2.84112 0
M  V30 5010 H 478.455 2.02229 1.56643 0
M  V30 5011 H 478.099 3.84161 3.32239 0
M  V30 5012 H 478.029 2.58795 4.5862 0
M  V30 5013 H 480.52 2.19803 3.074 0
M  V30 5014 H 480.833 4.98884 5.90199 0
M  V30 5015 H 479.178 4.48129 5.3123 0
M  V30 5016 H 482.369 2.79077 3.75811 0
M  V30 5017 H 482.542 4.06322 5.04783 0
M  V30 5018 N 475.948 -1.35272 0.808662 0
M  V30 5019 C 477.176 -2.02946 0.402537 0
M  V30 5020 C 477.591 -1.60937 -0.987147 0
M  V30 5021 O 476.948 -0.807917 -1.63643 0
M  V30 5022 C 476.999 -3.58317 0.47868 0
M  V30 5023 O 476.72 -3.98799 1.81358 0
M  V30 5024 C 478.221 -4.43251 0.0656281 0
M  V30 5025 H 475.441 -0.650831 0.163279 0
M  V30 5026 H 477.985 -1.72849 1.09286 0
M  V30 5027 H 476.14 -3.87055 -0.163415 0
M  V30 5028 H 476.554 -4.93451 1.77781 0
M  V30 5029 H 478.028 -5.51738 0.170017 0
M  V30 5030 H 478.505 -4.27913 -0.989278 0
M  V30 5031 H 479.111 -4.19813 0.68096 0
M  V30 5032 N 477.426 -0.562348 -1.47226 0
M  V30 5033 C 478.703 0.0256985 -1.95583 0
M  V30 5034 C 479.083 1.48032 -1.50498 0
M  V30 5035 O 478.431 2.15973 -0.746181 0
M  V30 5036 C 478.641 -0.125129 -3.48776 0
M  V30 5037 C 479.989 0.0175728 -4.24596 0
M  V30 5038 O 481.013 -0.0529341 -3.56161 0
M  V30 5039 O 479.872 0.170145 -5.46235 0
M  V30 5040 H 476.966 0.0612565 -0.824728 0
M  V30 5041 H 479.512 -0.629233 -1.57603 0
M  V30 5042 H 478.284 -1.13715 -3.74412 0
M  V30 5043 H 477.907 0.567178 -3.93534 0
M  V30 5044 N 478.904 1.54736 -0.299062 0
M  V30 5045 C 479.852 2.24897 0.593658 0
M  V30 5046 C 480.846 1.25429 1.13859 0
M  V30 5047 O 482.052 1.43286 1.08945 0
M  V30 5048 H 478.427 0.72207 0.210046 0
M  V30 5049 H 480.398 2.98393 -0.0206421 0
M  V30 5050 C 479.147 3.00159 1.75499 0
M  V30 5051 H 478.47 3.76501 1.34489 0
M  V30 5052 H 479.91 3.52535 2.35574 0
M  V30 5053 C 478.369 2.07015 2.65794 0
M  V30 5054 O 478.899 1.63692 3.66835 0
M  V30 5055 N 477.105 1.73012 2.33485 0
M  V30 5056 H 476.652 2.08439 1.51364 0
M  V30 5057 H 476.61 1.10965 2.94167 0
M  V30 5058 N 480.382 0.0267497 1.57577 0
M  V30 5059 C 481.314 -0.984594 2.06974 0
M  V30 5060 C 482.327 -1.29032 0.992705 0
M  V30 5061 O 483.516 -1.25539 1.26895 0
M  V30 5062 C 480.616 -2.31262 2.47732 0
M  V30 5063 C 479.789 -2.1924 3.78487 0
M  V30 5064 C 478.848 -3.34956 4.05821 0
M  V30 5065 O 477.874 -3.11948 4.76106 0
M  V30 5066 N 479.076 -4.58672 3.55809 0
M  V30 5067 H 481.841 -0.563143 2.94362 0
M  V30 5068 H 479.402 -0.160061 1.61107 0
M  V30 5069 H 481.394 -3.07496 2.63112 0
M  V30 5070 H 479.964 -2.65056 1.65723 0
M  V30 5071 H 479.184 -1.27747 3.72927 0
M  V30 5072 H 480.472 -2.08409 4.64158 0
M  V30 5073 H 479.87 -4.8026 2.98942 0
M  V30 5074 H 478.427 -5.32083 3.76472 0
M  V30 5075 N 481.861 -1.55662 -0.24637 0
M  V30 5076 C 483.11 -1.7672 -0.972254 0
M  V30 5077 C 483.423 -0.59078 -1.86465 0
M  V30 5078 O 484.629 -0.684391 -2.62732 0
M  V30 5079 C 483.085 -3.12869 -1.7788 0
M  V30 5080 C 482.693 -4.38161 -0.933768 0
M  V30 5081 C 484.437 -3.43265 -2.49738 0
M  V30 5082 C 482.344 -5.6534 -1.73623 0
M  V30 5083 H 481.274 -0.658795 -0.366749 0
M  V30 5084 H 483.925 -1.82092 -0.226902 0
M  V30 5085 H 482.307 -3.01606 -2.56612 0
M  V30 5086 H 483.481 -4.60413 -0.188736 0
M  V30 5087 H 481.796 -4.15102 -0.328488 0
M  V30 5088 H 484.393 -4.35501 -3.10231 0
M  V30 5089 H 484.736 -2.64614 -3.2138 0
M  V30 5090 H 485.269 -3.55746 -1.78016 0
M  V30 5091 H 482.008 -6.46814 -1.06354 0
M  V30 5092 H 481.528 -5.47188 -2.45653 0
M  V30 5093 H 483.207 -6.04616 -2.30323 0
M  V30 5094 N 483.339 0.512053 -1.4905 0
M  V30 5095 C 484.269 1.62365 -1.67809 0
M  V30 5096 C 485.25 1.61737 -0.526809 0
M  V30 5097 O 486.435 1.78651 -0.761404 0
M  V30 5098 C 483.565 3.00895 -1.73435 0
M  V30 5099 C 482.519 3.16387 -2.88242 0
M  V30 5100 C 481.845 4.56157 -2.78971 0
M  V30 5101 C 483.145 2.97457 -4.29321 0
M  V30 5102 H 484.839 1.46921 -2.60873 0
M  V30 5103 H 482.385 0.705379 -1.2554 0
M  V30 5104 H 484.338 3.78549 -1.85145 0
M  V30 5105 H 483.062 3.17403 -0.769619 0
M  V30 5106 H 481.721 2.41155 -2.76116 0
M  V30 5107 H 481.369 4.69525 -1.8043 0
M  V30 5108 H 481.069 4.67465 -3.5602 0
M  V30 5109 H 482.593 5.35886 -2.92675 0
M  V30 5110 H 484.007 3.64888 -4.42187 0
M  V30 5111 H 482.404 3.20245 -5.07507 0
M  V30 5112 H 483.474 1.93692 -4.44535 0
M  V30 5113 N 484.817 1.37938 0.762283 0
M  V30 5114 C 485.727 1.36681 1.90671 0
M  V30 5115 C 486.743 0.265078 1.71969 0
M  V30 5116 O 487.919 0.502055 1.95042 0
M  V30 5117 C 484.984 1.18211 3.25925 0
M  V30 5118 C 484.045 2.3811 3.57214 0
M  V30 5119 C 483.278 2.20512 4.86014 0
M  V30 5120 O 483.501 1.19429 5.57757 0
M  V30 5121 O 482.435 3.08911 5.16583 0
M  V30 5122 H 486.261 2.33091 1.94685 0
M  V30 5123 H 483.846 1.18767 0.906356 0
M  V30 5124 H 485.728 1.09937 4.06807 0
M  V30 5125 H 484.403 0.248807 3.22742 0
M  V30 5126 H 483.31 2.51958 2.76529 0
M  V30 5127 H 484.643 3.30041 3.65149 0
M  V30 5128 N 486.295 -0.989507 1.22664 0
M  V30 5129 C 487.258 -2.06183 1.00106 0
M  V30 5130 C 488.258 -1.60765 -0.0337726 0
M  V30 5131 O 489.448 -1.72989 0.205072 0
M  V30 5132 C 486.58 -3.37021 0.51279 0
M  V30 5133 H 487.773 -2.27629 1.95256 0
M  V30 5134 H 485.326 -1.16158 1.0458 0
M  V30 5135 H 486.061 -3.21261 -0.442917 0
M  V30 5136 H 485.846 -3.71323 1.25942 0
M  V30 5137 H 487.336 -4.1591 0.375315 0
M  V30 5138 N 487.773 -1.03688 -1.18687 0
M  V30 5139 C 488.683 -0.634908 -2.25845 0
M  V30 5140 C 489.699 0.337065 -1.70704 0
M  V30 5141 O 490.875 0.192943 -2.00474 0
M  V30 5142 C 487.94 -0.000180054 -3.467 0
M  V30 5143 C 487.001 -1.02067 -4.1699 0
M  V30 5144 C 486.234 -0.41614 -5.32075 0
M  V30 5145 O 486.457 0.778712 -5.65059 0
M  V30 5146 O 485.391 -1.14296 -5.90948 0
M  V30 5147 H 489.217 -1.52757 -2.62486 0
M  V30 5148 H 486.802 -0.807533 -1.25695 0
M  V30 5149 H 488.684 0.353342 -4.19916 0
M  V30 5150 H 487.359 0.866367 -3.11891 0
M  V30 5151 H 486.266 -1.42592 -3.45859 0
M  V30 5152 H 487.599 -1.85786 -4.5579 0
M  V30 5153 N 489.251 1.34841 -0.815825 0
M  V30 5154 C 490.498 1.98499 -0.400535 0
M  V30 5155 C 490.826 1.64699 1.03463 0
M  V30 5156 O 490.081 0.907006 1.73412 0
M  V30 5157 C 490.38 3.53273 -0.541541 0
M  V30 5158 C 490.046 4.06966 -1.94138 0
M  V30 5159 C 488.708 4.21341 -2.32433 0
M  V30 5160 C 491.06 4.35933 -2.85677 0
M  V30 5161 C 488.388 4.62007 -3.61617 0
M  V30 5162 C 490.74 4.78042 -4.14317 0
M  V30 5163 C 489.404 4.90622 -4.52599 0
M  V30 5164 H 488.674 0.72636 -0.146566 0
M  V30 5165 H 491.321 1.60902 -1.0384 0
M  V30 5166 H 489.626 3.91387 0.179741 0
M  V30 5167 H 491.323 4.00497 -0.20085 0
M  V30 5168 H 487.913 3.96235 -1.63388 0
M  V30 5169 H 492.097 4.24372 -2.57337 0
M  V30 5170 H 487.353 4.69937 -3.91113 0
M  V30 5171 H 491.527 4.99415 -4.85342 0
M  V30 5172 H 489.154 5.2189 -5.52752 0
M  V30 5173 N 490.729 0.570148 1.46925 0
M  V30 5174 C 492.14 0.1402 1.86173 0
M  V30 5175 C 492.491 -1.29347 1.47526 0
M  V30 5176 O 491.616 -1.97508 0.884292 0
M  V30 5177 C 492.211 0.247661 3.37894 0
M  V30 5178 C 490.77 -0.127332 3.76185 0
M  V30 5179 C 489.917 0.589349 2.70965 0
M  V30 5180 H 492.868 0.779117 1.38259 0
M  V30 5181 H 492.889 -0.530341 3.76786 0
M  V30 5182 H 492.401 1.29121 3.65991 0
M  V30 5183 H 490.502 -1.17149 3.53704 0
M  V30 5184 H 490.615 0.240238 4.78497 0
M  V30 5185 H 488.979 0.0309824 2.54681 0
M  V30 5186 H 489.762 1.6343 3.01903 0
M  V30 5187 N 492.207 -1.54576 0.307264 0
M  V30 5188 C 493.455 -1.99867 -0.299574 0
M  V30 5189 C 493.776 -1.19714 -1.53927 0
M  V30 5190 O 493.046 -0.29472 -1.9367 0
M  V30 5191 H 491.626 -0.738299 -0.113683 0
M  V30 5192 H 494.288 -1.9032 0.420042 0
M  V30 5193 H 493.384 -3.06901 -0.567283 0
M  V30 5194 N 493.685 -0.035106 -1.57561 0
M  V30 5195 C 494.615 0.942993 -2.13612 0
M  V30 5196 C 495.596 1.33531 -1.05373 0
M  V30 5197 O 496.781 1.41287 -1.33235 0
M  V30 5198 C 493.911 2.22332 -2.66807 0
M  V30 5199 C 492.865 1.97156 -3.79886 0
M  V30 5200 C 492.191 3.31506 -4.19533 0
M  V30 5201 C 493.491 1.30596 -5.05709 0
M  V30 5202 H 495.185 0.476179 -2.95589 0
M  V30 5203 H 492.731 0.227602 -1.4219 0
M  V30 5204 H 494.684 2.91142 -3.04654 0
M  V30 5205 H 493.408 2.7119 -1.81999 0
M  V30 5206 H 492.067 1.30763 -3.42486 0
M  V30 5207 H 491.715 3.78134 -3.31698 0
M  V30 5208 H 491.415 3.15465 -4.95738 0
M  V30 5209 H 492.939 4.01574 -4.59968 0
M  V30 5210 H 494.353 1.89416 -5.41105 0
M  V30 5211 H 492.75 1.24934 -5.86951 0
M  V30 5212 H 493.82 0.279742 -4.84092 0
M  V30 5213 N 495.163 1.55791 0.238111 0
M  V30 5214 C 496.574 1.68383 0.806472 0
M  V30 5215 C 496.925 0.634157 1.85669 0
M  V30 5216 O 496.05 -0.217913 2.153 0
M  V30 5217 C 496.645 3.05268 1.46959 0
M  V30 5218 C 495.204 3.1977 1.98555 0
M  V30 5219 C 494.351 2.64279 0.839763 0
M  V30 5220 H 497.302 1.58694 0.0137535 0
M  V30 5221 H 497.323 3.00203 2.33792 0
M  V30 5222 H 496.835 3.81643 0.704993 0
M  V30 5223 H 494.936 2.48234 2.77868 0
M  V30 5224 H 495.049 4.26788 2.17689 0
M  V30 5225 H 493.413 2.22329 1.24265 0
M  V30 5226 H 494.196 3.43187 0.0881032 0
M  V30 5227 N 496.642 -0.504142 1.49319 0
M  V30 5228 C 497.552 -1.63248 1.68486 0
M  V30 5229 C 498.568 -1.64488 0.567432 0
M  V30 5230 O 499.744 -1.82966 0.841749 0
M  V30 5231 C 496.809 -2.99627 1.74426 0
M  V30 5232 C 495.87 -3.09039 2.97982 0
M  V30 5233 C 495.103 -4.38913 3.0363 0
M  V30 5234 O 495.326 -5.27528 2.16958 0
M  V30 5235 O 494.26 -4.53231 3.96062 0
M  V30 5236 H 498.086 -1.50008 2.64067 0
M  V30 5237 H 495.671 -0.680086 1.33023 0
M  V30 5238 H 497.553 -3.80689 1.80705 0
M  V30 5239 H 496.228 -3.13136 0.820233 0
M  V30 5240 H 495.135 -2.27177 2.97223 0
M  V30 5241 H 496.468 -3.00456 3.89855 0
M  V30 5242 N 498.12 -1.38341 -0.754957 0
M  V30 5243 C 499.083 -1.35262 -1.85032 0
M  V30 5244 C 500.083 -0.253393 -1.58791 0
M  V30 5245 O 501.273 -0.510205 -1.66561 0
M  V30 5246 C 498.405 -1.10544 -3.22479 0
M  V30 5247 H 499.598 -2.32712 -1.8917 0
M  V30 5248 H 497.151 -1.23614 -0.956515 0
M  V30 5249 H 497.886 -0.136952 -3.24011 0
M  V30 5250 H 497.671 -1.90127 -3.4292 0
M  V30 5251 H 499.161 -1.11082 -4.02555 0
M  V30 5252 N 499.598 0.982988 -1.23187 0
M  V30 5253 C 500.528 2.09301 -1.03515 0
M  V30 5254 C 501.509 1.70035 0.0471136 0
M  V30 5255 O 502.694 1.93847 -0.117029 0
M  V30 5256 C 499.824 3.4167 -0.622791 0
M  V30 5257 C 498.778 3.94828 -1.65211 0
M  V30 5258 C 498.104 5.23362 -1.09527 0
M  V30 5259 C 499.404 4.2439 -3.04451 0
M  V30 5260 H 501.098 2.26016 -1.96359 0
M  V30 5261 H 498.644 1.08611 -0.945501 0
M  V30 5262 H 500.597 4.18746 -0.472233 0
M  V30 5263 H 499.321 3.24811 0.341329 0
M  V30 5264 H 497.98 3.19895 -1.79061 0
M  V30 5265 H 497.628 5.02852 -0.122211 0
M  V30 5266 H 497.328 5.59895 -1.783 0
M  V30 5267 H 498.852 6.03062 -0.956511 0
M  V30 5268 H 500.266 4.92225 -2.93917 0
M  V30 5269 H 498.663 4.72118 -3.70438 0
M  V30 5270 H 499.733 3.31765 -3.53638 0
M  V30 5271 N 501.076 1.04316 1.18135 0
M  V30 5272 C 502.301 0.768047 1.92655 0
M  V30 5273 C 502.726 -0.66904 1.758 0
M  V30 5274 O 502.084 -1.46372 1.06981 0
M  V30 5275 C 502.132 1.14239 3.42026 0
M  V30 5276 O 501.236 0.269333 4.1152 0
M  V30 5277 H 500.577 0.282436 0.600937 0
M  V30 5278 H 503.107 1.39367 1.49793 0
M  V30 5279 H 503.117 1.10538 3.92741 0
M  V30 5280 H 501.792 2.18928 3.53615 0
M  V30 5281 H 500.369 0.366175 3.71098 0
M  V30 5282 N 502.554 -1.34406 0.822964 0
M  V30 5283 C 503.801 -1.98284 0.411057 0
M  V30 5284 C 504.129 -1.65245 -1.02588 0
M  V30 5285 O 503.384 -0.91619 -1.72929 0
M  V30 5286 C 503.683 -3.52981 0.560268 0
M  V30 5287 C 503.349 -4.05931 1.96293 0
M  V30 5288 C 502.011 -4.20103 2.34664 0
M  V30 5289 C 504.363 -4.34412 2.87985 0
M  V30 5290 C 501.691 -4.60082 3.64062 0
M  V30 5291 C 504.043 -4.75838 4.16847 0
M  V30 5292 C 502.707 -4.88215 4.55195 0
M  V30 5293 H 501.977 -0.725573 0.150416 0
M  V30 5294 H 504.624 -1.60349 1.04692 0
M  V30 5295 H 502.929 -3.91477 -0.158982 0
M  V30 5296 H 504.626 -4.00385 0.222087 0
M  V30 5297 H 501.216 -3.95363 1.65487 0
M  V30 5298 H 505.4 -4.23001 2.59584 0
M  V30 5299 H 500.656 -4.67856 3.93599 0
M  V30 5300 H 504.83 -4.96834 4.87984 0
M  V30 5301 H 502.457 -5.18952 5.55512 0
M  V30 5302 N 504.032 -0.577932 -1.46621 0
M  V30 5303 C 505.278 -0.0617793 -2.02706 0
M  V30 5304 C 505.611 1.29294 -1.44903 0
M  V30 5305 O 504.886 1.8461 -0.61232 0
M  V30 5306 C 505.169 0.00911824 -3.60099 0
M  V30 5307 C 505.022 -1.37416 -4.28295 0
M  V30 5308 C 506.341 0.712159 -4.343 0
M  V30 5309 H 503.46 -0.0239246 -0.736612 0
M  V30 5310 H 506.102 -0.744211 -1.74818 0
M  V30 5311 H 504.252 0.590292 -3.83989 0
M  V30 5312 H 505.924 -2.00013 -4.15683 0
M  V30 5313 H 504.167 -1.94319 -3.87843 0
M  V30 5314 H 504.838 -1.27707 -5.37024 0
M  V30 5315 H 507.314 0.218486 -4.15526 0
M  V30 5316 H 506.19 0.730782 -5.44014 0
M  V30 5317 H 506.451 1.77251 -4.05012 0
M  V30 5318 N 505.51 1.54411 -0.315457 0
M  V30 5319 C 506.473 2.22713 0.54142 0
M  V30 5320 C 507.473 1.2179 1.04995 0
M  V30 5321 O 508.663 1.46426 0.943667 0
M  V30 5322 C 505.795 2.92485 1.75116 0
M  V30 5323 H 506.988 2.99849 -0.0555508 0
M  V30 5324 H 504.541 1.56159 -0.0664453 0
M  V30 5325 H 505.276 2.19466 2.38758 0
M  V30 5326 H 505.061 3.66483 1.39401 0
M  V30 5327 H 506.551 3.44548 2.35959 0
M  V30 5328 N 506.988 0.0434614 1.5754 0
M  V30 5329 C 507.918 -0.931651 2.14109 0
M  V30 5330 C 508.899 -1.32971 1.06079 0
M  V30 5331 O 510.084 -1.40579 1.33982 0
M  V30 5332 C 507.214 -2.20914 2.67982 0
M  V30 5333 C 506.168 -1.95139 3.80926 0
M  V30 5334 C 505.494 -3.29276 4.21285 0
M  V30 5335 C 506.794 -1.27913 5.06395 0
M  V30 5336 H 508.488 -0.460497 2.95837 0
M  V30 5337 H 506.034 -0.220058 1.42309 0
M  V30 5338 H 507.987 -2.89522 3.06194 0
M  V30 5339 H 506.711 -2.70221 1.83434 0
M  V30 5340 H 505.37 -1.28945 3.43175 0
M  V30 5341 H 505.018 -3.76369 3.33699 0
M  V30 5342 H 504.718 -3.12831 4.97404 0
M  V30 5343 H 506.242 -3.99129 4.62091 0
M  V30 5344 H 507.656 -1.86544 5.42102 0
M  V30 5345 H 506.053 -1.2182 5.87605 0
M  V30 5346 H 507.123 -0.254066 4.84234 0
M  V30 5347 N 508.466 -1.55915 -0.229846 0
M  V30 5348 C 509.712 -1.78807 -0.956868 0
M  V30 5349 C 510.045 -0.611687 -1.84315 0
M  V30 5350 O 509.32 0.389398 -1.90562 0
M  V30 5351 C 509.603 -3.11718 -1.80288 0
M  V30 5352 C 509.456 -4.3979 -0.943649 0
M  V30 5353 C 510.775 -3.40999 -2.78222 0
M  V30 5354 H 507.894 -0.6505 -0.346437 0
M  V30 5355 H 510.536 -1.88648 -0.226252 0
M  V30 5356 H 508.686 -3.03459 -2.42579 0
M  V30 5357 H 510.358 -4.60059 -0.338121 0
M  V30 5358 H 508.601 -4.33086 -0.248705 0
M  V30 5359 H 509.272 -5.29208 -1.5698 0
M  V30 5360 H 511.748 -3.49332 -2.26067 0
M  V30 5361 H 510.624 -4.35183 -3.34526 0
M  V30 5362 H 510.885 -2.62754 -3.55546 0
M  V30 5363 N 509.944 0.496216 -1.49584 0
M  V30 5364 C 511.221 1.25755 -1.49816 0
M  V30 5365 C 511.601 2.09859 -0.228572 0
M  V30 5366 O 510.949 2.14449 0.788908 0
M  V30 5367 C 511.159 2.11017 -2.7798 0
M  V30 5368 C 512.507 2.70047 -3.27658 0
M  V30 5369 O 513.531 2.21281 -2.79129 0
M  V30 5370 O 512.39 3.58834 -4.1219 0
M  V30 5371 H 509.484 0.569322 -0.599834 0
M  V30 5372 H 512.03 0.510094 -1.61852 0
M  V30 5373 H 510.802 1.48879 -3.61871 0
M  V30 5374 H 510.425 2.92947 -2.68827 0
M  V30 5375 N 511.423 1.38739 0.74761 0
M  V30 5376 C 512.671 1.35007 1.50391 0
M  V30 5377 C 512.992 -0.0574274 1.94915 0
M  V30 5378 O 512.262 -1.00628 1.6808 0
M  V30 5379 H 510.842 0.496784 0.557866 0
M  V30 5380 H 513.504 1.73479 0.888319 0
M  V30 5381 H 512.6 2.00474 2.392 0
M  V30 5382 N 512.901 -0.976442 1.23707 0
M  V30 5383 C 514.131 -1.75087 1.09673 0
M  V30 5384 C 514.539 -1.85852 -0.354344 0
M  V30 5385 O 513.882 -1.33985 -1.25673 0
M  V30 5386 C 513.944 -3.19272 1.65245 0
M  V30 5387 C 513.608 -3.32004 3.14042 0
M  V30 5388 C 514.605 -3.18017 4.11292 0
M  V30 5389 C 512.29 -3.56525 3.53829 0
M  V30 5390 C 514.284 -3.28363 5.46312 0
M  V30 5391 C 511.971 -3.6651 4.88993 0
M  V30 5392 C 512.969 -3.52439 5.85043 0
M  V30 5393 O 512.657 -3.62063 7.1775 0
M  V30 5394 H 512.389 -0.556164 0.384262 0
M  V30 5395 H 514.943 -1.23518 1.64111 0
M  V30 5396 H 513.173 -3.72107 1.05231 0
M  V30 5397 H 514.862 -3.7849 1.46629 0
M  V30 5398 H 515.628 -2.98966 3.81896 0
M  V30 5399 H 511.507 -3.66547 2.79579 0
M  V30 5400 H 515.051 -3.17297 6.21263 0
M  V30 5401 H 510.948 -3.85072 5.18063 0
M  V30 5402 H 511.716 -3.78833 7.25553 0
M  V30 5403 N 514.379 -1.04941 -1.1758 0
M  V30 5404 C 515.626 -0.757989 -1.87779 0
M  V30 5405 C 515.954 0.714827 -1.80888 0
M  V30 5406 O 515.209 1.53824 -1.20982 0
M  V30 5407 C 515.508 -1.18062 -3.37337 0
M  V30 5408 C 515.174 -2.65521 -3.6443 0
M  V30 5409 C 513.836 -3.05804 -3.71534 0
M  V30 5410 C 516.188 -3.60822 -3.76108 0
M  V30 5411 C 513.516 -4.40256 -3.87803 0
M  V30 5412 C 515.868 -4.95005 -3.93895 0
M  V30 5413 C 514.532 -5.34945 -3.99237 0
M  V30 5414 H 513.802 -0.277368 -0.68713 0
M  V30 5415 H 516.449 -1.31603 -1.39115 0
M  V30 5416 H 514.754 -0.541525 -3.8804 0
M  V30 5417 H 516.451 -0.932368 -3.9001 0
M  V30 5418 H 513.041 -2.33324 -3.59524 0
M  V30 5419 H 517.225 -3.30841 -3.69943 0
M  V30 5420 H 512.481 -4.70707 -3.90186 0
M  V30 5421 H 516.655 -5.68746 -4.01872 0
M  V30 5422 H 514.282 -6.39135 -4.11596 0
M  V30 5423 N 515.857 1.33968 -0.830081 0
M  V30 5424 C 517.273 1.51003 -0.516742 0
M  V30 5425 C 517.473 1.77286 0.957694 0
M  V30 5426 O 516.529 1.82797 1.74188 0
M  V30 5427 C 517.842 2.67036 -1.38247 0
M  V30 5428 C 519.39 2.80919 -1.38034 0
M  V30 5429 C 519.865 4.00004 -2.23071 0
M  V30 5430 N 521.356 4.07224 -2.20733 0
M  V30 5431 C 522.091 4.98541 -2.83275 0
M  V30 5432 N 521.587 5.95033 -3.54835 0
M  V30 5433 N 523.38 4.91469 -2.72791 0
M  V30 5434 H 515.531 1.15168 -1.78466 0
M  V30 5435 H 517.794 0.565443 -0.760906 0
M  V30 5436 H 517.5 2.54266 -2.42985 0
M  V30 5437 H 517.374 3.62226 -1.05225 0
M  V30 5438 H 519.761 2.93127 -0.340713 0
M  V30 5439 H 519.842 1.86517 -1.75057 0
M  V30 5440 H 519.486 3.88557 -3.27087 0
M  V30 5441 H 519.416 4.93634 -1.83394 0
M  V30 5442 H 521.907 3.38162 -1.68687 0
M  V30 5443 H 522.22 6.61357 -3.99784 0
M  V30 5444 H 520.565 5.95135 -3.58942 0
M  V30 5445 H 523.756 4.15048 -2.16456 0
M  V30 5446 H 523.929 5.62439 -3.21818 0
M  V30 5447 N 517.335 0.585699 1.46312 0
M  V30 5448 C 518.265 -0.133556 2.33118 0
M  V30 5449 C 519.246 -0.880707 1.45525 0
M  V30 5450 O 520.431 -0.855579 1.74337 0
M  V30 5451 C 517.561 -1.14585 3.27853 0
M  V30 5452 C 516.515 -0.513341 4.2491 0
M  V30 5453 C 515.841 -1.63231 5.09175 0
M  V30 5454 C 517.141 0.551413 5.19381 0
M  V30 5455 H 518.835 0.59121 2.93505 0
M  V30 5456 H 516.381 0.285761 1.41136 0
M  V30 5457 H 518.334 -1.65741 3.87438 0
M  V30 5458 H 517.058 -1.90093 2.65579 0
M  V30 5459 H 515.717 -0.0228349 3.66593 0
M  V30 5460 H 515.365 -2.37713 4.43285 0
M  V30 5461 H 515.065 -1.21473 5.74907 0
M  V30 5462 H 516.589 -2.14658 5.71624 0
M  V30 5463 H 518.003 0.124804 5.73164 0
M  V30 5464 H 516.4 0.889486 5.93471 0
M  V30 5465 H 517.47 1.43655 4.63132 0
M  V30 5466 N 518.813 -1.54241 0.323641 0
M  V30 5467 C 520.041 -2.04985 -0.280871 0
M  V30 5468 C 520.456 -1.19978 -1.45777 0
M  V30 5469 O 519.813 -0.230471 -1.81039 0
M  V30 5470 C 519.864 -3.54353 -0.715258 0
M  V30 5471 O 519.585 -4.36132 0.414817 0
M  V30 5472 C 521.086 -4.21189 -1.38257 0
M  V30 5473 H 518.306 -0.66851 -0.0577502 0
M  V30 5474 H 520.85 -1.99029 0.469852 0
M  V30 5475 H 519.005 -3.60596 -1.41596 0
M  V30 5476 H 519.419 -5.2445 0.0725227 0
M  V30 5477 H 520.893 -5.27154 -1.63745 0
M  V30 5478 H 521.37 -3.72307 -2.32989 0
M  V30 5479 H 521.976 -4.19085 -0.724447 0
M  V30 5480 N 520.291 -0.0518155 -1.57515 0
M  V30 5481 C 521.519 0.631395 -1.9703 0
M  V30 5482 C 521.934 1.64341 -0.92938 0
M  V30 5483 O 521.291 1.82296 0.0863266 0
M  V30 5484 C 521.342 1.31774 -3.36627 0
M  V30 5485 O 521.063 0.346247 -4.3673 0
M  V30 5486 C 522.564 2.09065 -3.90905 0
M  V30 5487 H 519.784 0.172576 -0.648428 0
M  V30 5488 H 522.328 -0.118306 -2.04158 0
M  V30 5489 H 520.483 2.01867 -3.30649 0
M  V30 5490 H 520.897 0.836226 -5.17791 0
M  V30 5491 H 522.371 2.52508 -4.9086 0
M  V30 5492 H 522.848 2.93908 -3.26366 0
M  V30 5493 H 523.454 1.43882 -4.00223 0
M  V30 5494 N 521.769 1.56035 0.221574 0
M  V30 5495 C 523.046 1.69837 0.970301 0
M  V30 5496 C 523.426 0.599065 2.02421 0
M  V30 5497 O 522.774 -0.393929 2.25079 0
M  V30 5498 C 522.984 3.11148 1.58076 0
M  V30 5499 C 524.332 3.70555 2.07302 0
M  V30 5500 O 525.356 3.14109 1.6797 0
M  V30 5501 O 524.215 4.69562 2.79596 0
M  V30 5502 H 521.309 0.691727 0.453257 0
M  V30 5503 H 523.855 1.68353 0.213358 0
M  V30 5504 H 522.627 3.82617 0.819759 0
M  V30 5505 H 522.25 3.16749 2.40324 0
M  V30 5506 N 523.247 -0.488276 1.49845 0
M  V30 5507 C 524.472 -1.26997 1.63971 0
M  V30 5508 C 524.897 -1.85427 0.315994 0
M  V30 5509 O 524.255 -1.66475 -0.718032 0
M  V30 5510 C 524.303 -2.36689 2.72049 0
M  V30 5511 O 523.407 -3.40882 2.32107 0
M  V30 5512 H 522.748 -0.374376 0.548396 0
M  V30 5513 H 525.278 -0.583104 1.96115 0
M  V30 5514 H 525.288 -2.82262 2.94605 0
M  V30 5515 H 523.963 -1.93529 3.68129 0
M  V30 5516 H 522.54 -3.01139 2.19931 0
M  V30 5517 N 524.725 -1.39134 -0.740242 0
M  V30 5518 C 525.657 -1.33332 -1.86428 0
M  V30 5519 C 526.67 -0.243042 -1.60976 0
M  V30 5520 O 527.859 -0.501608 -1.71307 0
M  V30 5521 C 524.959 -1.04626 -3.22346 0
M  V30 5522 C 524.132 -2.24826 -3.75196 0
M  V30 5523 C 523.191 -1.92659 -4.89662 0
M  V30 5524 O 522.217 -2.6529 -5.03597 0
M  V30 5525 N 523.419 -0.889575 -5.73643 0
M  V30 5526 H 526.184 -2.30196 -1.91911 0
M  V30 5527 H 523.745 -1.33168 -0.920756 0
M  V30 5528 H 525.737 -0.811347 -3.96484 0
M  V30 5529 H 524.307 -0.165129 -3.12164 0
M  V30 5530 H 523.527 -2.64301 -2.9247 0
M  V30 5531 H 524.815 -3.05015 -4.07239 0
M  V30 5532 H 524.213 -0.287529 -5.64969 0
M  V30 5533 H 522.77 -0.714557 -6.47871 0
M  V30 5534 N 526.204 0.969867 -1.24223 0
M  V30 5535 C 527.154 2.04913 -0.999732 0
M  V30 5536 C 528.138 1.60795 0.0580636 0
M  V30 5537 O 529.33 1.76317 -0.155392 0
M  V30 5538 C 526.459 3.37942 -0.604154 0
M  V30 5539 C 525.545 3.88628 -1.69791 0
M  V30 5540 N 525.936 4.12274 -2.93025 0
M  V30 5541 C 524.234 4.17268 -1.57492 0
M  V30 5542 C 524.935 4.53808 -3.63914 0
M  V30 5543 N 523.911 4.58855 -2.91468 0
M  V30 5544 H 527.713 2.21168 -1.93551 0
M  V30 5545 H 525.227 1.15349 -1.14317 0
M  V30 5546 H 527.224 4.14863 -0.411665 0
M  V30 5547 H 525.884 3.23075 0.324465 0
M  V30 5548 H 526.895 3.99789 -3.29225 0
M  V30 5549 H 523.572 4.11346 -0.714175 0
M  V30 5550 H 524.962 4.80534 -4.69614 0
M  V30 5551 N 527.682 1.05563 1.17022 0
M  V30 5552 C 528.929 0.767937 1.87374 0
M  V30 5553 C 529.257 -0.705224 1.81265 0
M  V30 5554 O 528.512 -1.5318 1.21796 0
M  V30 5555 C 528.811 1.19849 3.36706 0
M  V30 5556 C 528.477 2.6745 3.63017 0
M  V30 5557 C 527.139 3.0777 3.69907 0
M  V30 5558 C 529.491 3.62811 3.74189 0
M  V30 5559 C 526.819 4.42307 3.85463 0
M  V30 5560 C 529.171 4.97087 3.91264 0
M  V30 5561 C 527.835 5.37055 3.96394 0
M  V30 5562 H 527.105 0.281008 0.68565 0
M  V30 5563 H 529.752 1.32339 1.38415 0
M  V30 5564 H 528.057 0.562096 3.87747 0
M  V30 5565 H 529.754 0.953038 3.8951 0
M  V30 5566 H 526.344 2.35228 3.58282 0
M  V30 5567 H 530.528 3.32798 3.68183 0
M  V30 5568 H 525.784 4.72769 3.87684 0
M  V30 5569 H 529.958 5.70869 3.9885 0
M  V30 5570 H 527.585 6.41308 4.082 0
M  V30 5571 N 529.16 -1.33526 0.837174 0
M  V30 5572 C 530.407 -1.97837 0.432064 0
M  V30 5573 C 530.735 -1.66324 -1.00829 0
M  V30 5574 O 529.99 -0.93448 -1.71948 0
M  V30 5575 C 530.289 -3.52367 0.597675 0
M  V30 5576 C 529.955 -4.03826 2.00587 0
M  V30 5577 C 528.617 -4.1759 2.39106 0
M  V30 5578 C 530.969 -4.31333 2.92576 0
M  V30 5579 C 528.297 -4.56195 3.68921 0
M  V30 5580 C 530.649 -4.7139 4.2187 0
M  V30 5581 C 529.313 -4.8336 4.60347 0
M  V30 5582 H 528.583 -0.723937 0.158104 0
M  V30 5583 H 531.23 -1.5923 1.06387 0
M  V30 5584 H 529.535 -3.91624 -0.117452 0
M  V30 5585 H 531.232 -4.00126 0.26454 0
M  V30 5586 H 527.822 -3.93586 1.69671 0
M  V30 5587 H 532.006 -4.20224 2.64056 0
M  V30 5588 H 527.262 -4.63655 3.9854 0
M  V30 5589 H 531.436 -4.91631 4.93226 0
M  V30 5590 H 529.063 -5.1303 5.60985 0
M  V30 5591 N 530.638 -0.59345 -1.46 0
M  V30 5592 C 531.878 -0.0859747 -2.04219 0
M  V30 5593 C 532.242 1.25432 -1.45364 0
M  V30 5594 O 533.443 1.85168 -1.9485 0
M  V30 5595 C 531.714 -0.0324314 -3.57385 0
M  V30 5596 S 533.273 0.415908 -4.36824 0
M  V30 5597 H 530.091 -0.0426872 -0.709717 0
M  V30 5598 H 532.693 -0.788369 -1.78899 0
M  V30 5599 H 531.397 -1.01166 -3.97735 0
M  V30 5600 H 530.928 0.6924 -3.87259 0
M  V30 5601 H 532.943 1.66844 -4.67309 0
M  V30 5602 N 532.116 1.54067 -0.331816 0
M  V30 5603 C 533.063 2.24623 0.530372 0
M  V30 5604 C 534.033 1.24009 1.10503 0
M  V30 5605 O 535.218 1.52712 1.14384 0
M  V30 5606 C 532.358 3.01374 1.68129 0
M  V30 5607 C 531.471 4.16821 1.13507 0
M  V30 5608 C 530.606 4.81085 2.25234 0
M  V30 5609 C 529.645 5.88621 1.67903 0
M  V30 5610 N 528.782 6.46713 2.73326 0
M  V30 5611 H 533.622 2.97898 -0.0778607 0
M  V30 5612 H 531.159 1.47014 -0.0501965 0
M  V30 5613 H 533.117 3.44125 2.35868 0
M  V30 5614 H 531.747 2.30419 2.26069 0
M  V30 5615 H 530.799 3.78796 0.348979 0
M  V30 5616 H 532.111 4.94203 0.675633 0
M  V30 5617 H 531.265 5.26846 3.00862 0
M  V30 5618 H 530.004 4.03102 2.74518 0
M  V30 5619 H 529.009 5.42254 0.907773 0
M  V30 5620 H 530.234 6.68506 1.19487 0
M  V30 5621 H 528.18 5.71599 3.21886 0
M  V30 5622 H 528.097 7.19532 2.3197 0
M  V30 5623 H 529.365 6.97129 3.48758 0
M  V30 5624 N 533.594 0.0601682 1.57485 0
M  V30 5625 C 534.504 -0.926121 2.15546 0
M  V30 5626 C 535.52 -1.33532 1.11558 0
M  V30 5627 O 536.696 -1.4104 1.4377 0
M  V30 5628 C 533.761 -2.17952 2.69625 0
M  V30 5629 C 532.822 -1.82783 3.88444 0
M  V30 5630 C 532.055 -3.02148 4.39935 0
M  V30 5631 O 532.278 -4.15803 3.90466 0
M  V30 5632 O 531.212 -2.82639 5.31412 0
M  V30 5633 H 535.038 -0.462289 3.00161 0
M  V30 5634 H 532.623 -0.162246 1.48516 0
M  V30 5635 H 534.505 -2.91474 3.04337 0
M  V30 5636 H 533.18 -2.63456 1.88077 0
M  V30 5637 H 532.087 -1.06549 3.58606 0
M  V30 5638 H 533.42 -1.42072 4.7125 0
M  V30 5639 N 535.072 -1.5615 -0.213296 0
M  V30 5640 C 536.318 -1.79812 -0.937849 0
M  V30 5641 C 536.651 -0.631201 -1.83656 0
M  V30 5642 O 535.926 0.369165 -1.90964 0
M  V30 5643 C 536.209 -3.13613 -1.76972 0
M  V30 5644 C 536.062 -4.40766 -0.89695 0
M  V30 5645 C 537.381 -3.43931 -2.7459 0
M  V30 5646 H 534.5 -0.654138 -0.339518 0
M  V30 5647 H 537.142 -1.88877 -0.20623 0
M  V30 5648 H 535.292 -3.06015 -2.39347 0
M  V30 5649 H 536.964 -4.60392 -0.289306 0
M  V30 5650 H 535.207 -4.33326 -0.202756 0
M  V30 5651 H 535.878 -5.30843 -1.51358 0
M  V30 5652 H 538.354 -3.5171 -2.22349 0
M  V30 5653 H 537.23 -4.38706 -3.29891 0
M  V30 5654 H 537.491 -2.6651 -3.52739 0
M  V30 5655 N 536.55 0.480323 -1.50102 0
M  V30 5656 C 537.513 1.56181 -1.6775 0
M  V30 5657 C 538.513 1.51156 -0.548503 0
M  V30 5658 O 539.703 1.5394 -0.815363 0
M  V30 5659 C 536.835 2.95823 -1.69415 0
M  V30 5660 H 538.028 1.41855 -2.6423 0
M  V30 5661 H 535.581 0.70605 -1.39444 0
M  V30 5662 H 536.316 3.15604 -0.745948 0
M  V30 5663 H 536.101 3.00878 -2.51425 0
M  V30 5664 H 537.591 3.74359 -1.85054 0
M  V30 5665 N 538.028 1.39524 0.732853 0
M  V30 5666 C 539.439 1.32905 1.31122 0
M  V30 5667 C 539.79 -0.00558708 1.96199 0
M  V30 5668 O 538.915 -0.907706 1.96443 0
M  V30 5669 C 539.51 2.40704 2.38426 0
M  V30 5670 C 538.069 2.37599 2.91931 0
M  V30 5671 C 537.216 2.2248 1.65523 0
M  V30 5672 H 540.167 1.49581 0.530207 0
M  V30 5673 H 540.188 2.07616 3.18867 0
M  V30 5674 H 539.7 3.37829 1.91033 0
M  V30 5675 H 537.801 1.44119 3.43599 0
M  V30 5676 H 537.914 3.32538 3.44899 0
M  V30 5677 H 536.278 1.69691 1.8994 0
M  V30 5678 H 537.061 3.21577 1.20178 0
M  V30 5679 N 539.506 -0.963266 1.24736 0
M  V30 5680 C 540.917 -1.52145 1.08207 0
M  V30 5681 C 541.268 -1.93142 -0.345061 0
M  V30 5682 O 540.393 -1.77769 -1.23399 0
M  V30 5683 C 540.988 -2.76486 1.95808 0
M  V30 5684 C 539.547 -3.28646 1.8349 0
M  V30 5685 C 538.694 -2.01529 1.90476 0
M  V30 5686 H 541.645 -0.781083 1.38148 0
M  V30 5687 H 541.666 -3.49986 1.49297 0
M  V30 5688 H 541.178 -2.46617 2.99669 0
M  V30 5689 H 539.279 -3.63357 0.824787 0
M  V30 5690 H 539.392 -3.97246 2.67829 0
M  V30 5691 H 537.756 -2.16442 1.34258 0
M  V30 5692 H 538.539 -1.7402 2.95926 0
M  V30 5693 N 540.985 -1.06182 -1.16461 0
M  V30 5694 C 542.401 -0.785065 -1.38956 0
M  V30 5695 C 542.601 0.616103 -1.9185 0
M  V30 5696 O 541.657 1.37686 -2.11657 0
M  V30 5697 C 542.97 -1.84902 -2.37132 0
M  V30 5698 C 544.518 -1.8724 -2.50819 0
M  V30 5699 C 544.993 -2.92686 -3.52277 0
M  V30 5700 N 546.484 -2.91712 -3.59803 0
M  V30 5701 C 547.219 -3.69949 -4.38093 0
M  V30 5702 N 546.715 -4.58 -5.19815 0
M  V30 5703 N 548.508 -3.58346 -4.33064 0
M  V30 5704 H 540.659 -1.96569 -0.804634 0
M  V30 5705 H 542.922 -0.851747 -0.416211 0
M  V30 5706 H 542.628 -2.85518 -2.0536 0
M  V30 5707 H 542.502 -1.69908 -3.36766 0
M  V30 5708 H 544.889 -0.872827 -2.81897 0
M  V30 5709 H 544.97 -2.06311 -1.51226 0
M  V30 5710 H 544.614 -3.92835 -3.21937 0
M  V30 5711 H 544.544 -2.70864 -4.51598 0
M  V30 5712 H 547.035 -2.27876 -3.01464 0
M  V30 5713 H 547.348 -5.14357 -5.76764 0
M  V30 5714 H 545.693 -4.62056 -5.19162 0
M  V30 5715 H 548.884 -2.88943 -3.68279 0
M  V30 5716 H 549.057 -4.19563 -4.93833 0
M  V30 5717 N 542.463 1.3308 -0.844243 0
M  V30 5718 C 543.393 2.3161 -0.296493 0
M  V30 5719 C 544.374 1.59215 0.598707 0
M  V30 5720 O 545.559 1.87077 0.521134 0
M  V30 5721 C 542.689 3.43313 0.524762 0
M  V30 5722 C 541.643 4.27115 -0.275106 0
M  V30 5723 C 540.969 5.30483 0.670236 0
M  V30 5724 C 542.269 5.00443 -1.49514 0
M  V30 5725 H 543.963 2.77672 -1.11976 0
M  V30 5726 H 541.509 1.33496 -0.539899 0
M  V30 5727 H 543.462 4.11273 0.918298 0
M  V30 5728 H 542.186 2.95952 1.3813 0
M  V30 5729 H 540.845 3.60787 -0.650267 0
M  V30 5730 H 540.493 4.79379 1.52332 0
M  V30 5731 H 540.193 5.87435 0.139123 0
M  V30 5732 H 541.717 6.01308 1.06117 0
M  V30 5733 H 543.131 5.61141 -1.17447 0
M  V30 5734 H 541.528 5.67071 -1.96343 0
M  V30 5735 H 542.598 4.28906 -2.26202 0
M  V30 5736 N 543.941 0.601185 1.45683 0
M  V30 5737 C 544.871 -0.108824 2.33246 0
M  V30 5738 C 545.852 -0.865223 1.46451 0
M  V30 5739 O 547.037 -0.83704 1.75235 0
M  V30 5740 C 544.167 -1.11101 3.2905 0
M  V30 5741 C 543.121 -0.468244 4.25431 0
M  V30 5742 C 542.447 -1.57822 5.10878 0
M  V30 5743 C 543.747 0.606469 5.18767 0
M  V30 5744 H 545.441 0.622306 2.92861 0
M  V30 5745 H 542.987 0.300714 1.40825 0
M  V30 5746 H 544.94 -1.61622 3.89174 0
M  V30 5747 H 543.664 -1.87265 2.67581 0
M  V30 5748 H 542.323 0.0160484 3.66596 0
M  V30 5749 H 541.971 -2.32998 4.45781 0
M  V30 5750 H 541.671 -1.15369 5.76163 0
M  V30 5751 H 543.195 -2.08583 5.73869 0
M  V30 5752 H 544.609 0.185589 5.73 0
M  V30 5753 H 543.006 0.952381 5.92494 0
M  V30 5754 H 544.076 1.48559 4.61582 0
M  V30 5755 N 545.419 -1.53889 0.339982 0
M  V30 5756 C 546.329 -2.28604 -0.526988 0
M  V30 5757 C 547.345 -1.33578 -1.11503 0
M  V30 5758 O 548.521 -1.66612 -1.13148 0
M  V30 5759 C 545.586 -3.04164 -1.66389 0
M  V30 5760 C 544.647 -4.14809 -1.10599 0
M  V30 5761 C 543.88 -4.86756 -2.18871 0
M  V30 5762 O 544.103 -4.58343 -3.39526 0
M  V30 5763 O 543.037 -5.73289 -1.83366 0
M  V30 5764 H 546.863 -3.03594 0.0802707 0
M  V30 5765 H 544.448 -1.4903 0.105141 0
M  V30 5766 H 546.33 -3.51427 -2.32544 0
M  V30 5767 H 545.005 -2.32035 -2.25703 0
M  V30 5768 H 543.912 -3.71857 -0.409067 0
M  V30 5769 H 545.245 -4.89029 -0.557771 0
M  V30 5770 N 546.897 -0.0685191 -1.57451 0
M  V30 5771 C 547.807 0.914677 -2.16034 0
M  V30 5772 C 548.823 1.32938 -1.12265 0
M  V30 5773 O 549.999 1.40275 -1.44516 0
M  V30 5774 C 547.064 2.16519 -2.70777 0
M  V30 5775 C 546.125 1.80721 -3.89408 0
M  V30 5776 C 545.358 2.9981 -4.41531 0
M  V30 5777 O 545.581 4.13727 -3.92666 0
M  V30 5778 O 544.515 2.79817 -5.32903 0
M  V30 5779 H 548.341 0.446364 -3.00402 0
M  V30 5780 H 545.926 0.154367 -1.486 0
M  V30 5781 H 547.808 2.89856 -3.05878 0
M  V30 5782 H 546.483 2.62454 -1.89471 0
M  V30 5783 H 545.39 1.04646 -3.59166 0
M  V30 5784 H 546.723 1.39571 -4.71997 0
M  V30 5785 N 548.375 1.56261 0.205012 0
M  V30 5786 C 549.621 1.80306 0.9283 0
M  V30 5787 C 549.954 0.640932 1.83319 0
M  V30 5788 O 549.229 -0.359032 1.91158 0
M  V30 5789 C 549.512 3.14547 1.75306 0
M  V30 5790 C 549.365 4.41236 0.873562 0
M  V30 5791 C 550.684 3.45382 2.72762 0
M  V30 5792 H 547.803 0.655929 0.336044 0
M  V30 5793 H 550.445 1.88984 0.196211 0
M  V30 5794 H 548.595 3.0728 2.37721 0
M  V30 5795 H 550.267 4.60539 0.264887 0
M  V30 5796 H 548.51 4.33427 0.179773 0
M  V30 5797 H 549.181 5.31639 1.48541 0
M  V30 5798 H 551.657 3.52884 2.20481 0
M  V30 5799 H 550.533 4.40449 3.2756 0
M  V30 5800 H 550.794 2.68377 3.51321 0
M  V30 5801 N 549.853 -0.472356 1.50355 0
M  V30 5802 C 550.816 -1.5529 1.68576 0
M  V30 5803 C 551.816 -1.50863 0.556511 0
M  V30 5804 O 553.006 -1.53505 0.823516 0
M  V30 5805 C 550.138 -2.94921 1.70981 0
M  V30 5806 H 551.331 -1.40451 2.64978 0
M  V30 5807 H 548.884 -0.698645 1.39816 0
M  V30 5808 H 549.619 -3.15204 0.762675 0
M  V30 5809 H 549.404 -2.99541 2.53017 0
M  V30 5810 H 550.894 -3.73372 1.87037 0
M  V30 5811 N 551.331 -1.39911 -0.725443 0
M  V30 5812 C 552.241 -1.41688 -1.8698 0
M  V30 5813 C 553.257 -0.310579 -1.71206 0
M  V30 5814 O 554.433 -0.55359 -1.93642 0
M  V30 5815 C 551.498 -1.26811 -3.22676 0
M  V30 5816 C 550.559 -2.47497 -3.50776 0
M  V30 5817 C 549.792 -2.3332 -4.79997 0
M  V30 5818 O 550.015 -1.34175 -5.54394 0
M  V30 5819 O 548.949 -3.22498 -5.08211 0
M  V30 5820 H 552.775 -2.38171 -1.88436 0
M  V30 5821 H 550.36 -1.21128 -0.874548 0
M  V30 5822 H 552.242 -1.20684 -4.03749 0
M  V30 5823 H 550.917 -0.334289 -3.21969 0
M  V30 5824 H 549.824 -2.59201 -2.69751 0
M  V30 5825 H 551.157 -3.39606 -3.5627 0
M  V30 5826 N 552.809 0.956637 -1.25245 0
M  V30 5827 C 553.741 2.05628 -1.01242 0
M  V30 5828 C 554.754 1.62785 0.0219579 0
M  V30 5829 O 555.943 1.77184 -0.216365 0
M  V30 5830 C 553.043 3.35069 -0.508161 0
M  V30 5831 C 552.216 4.06761 -1.60823 0
M  V30 5832 C 551.275 5.14473 -1.1047 0
M  V30 5833 O 550.301 5.40033 -1.79868 0
M  V30 5834 N 551.503 5.80474 0.0550773 0
M  V30 5835 H 554.268 2.2679 -1.95925 0
M  V30 5836 H 551.829 1.12505 -1.16423 0
M  V30 5837 H 553.821 4.044 -0.155819 0
M  V30 5838 H 552.391 3.10694 0.344683 0
M  V30 5839 H 551.611 3.31555 -2.13224 0
M  V30 5840 H 552.899 4.51418 -2.34733 0
M  V30 5841 H 552.297 5.62125 0.635004 0
M  V30 5842 H 550.854 6.50868 0.348469 0
M  V30 5843 N 554.287 1.06798 1.15896 0
M  V30 5844 C 555.527 0.797041 1.8822 0
M  V30 5845 C 555.891 -0.664549 1.80133 0
M  V30 5846 O 557.092 -1.0503 2.47431 0
M  V30 5847 C 555.363 1.28431 3.33527 0
M  V30 5848 S 556.922 1.14319 4.23647 0
M  V30 5849 H 553.74 0.288988 0.649621 0
M  V30 5850 H 556.342 1.36594 1.39865 0
M  V30 5851 H 555.046 2.34286 3.36954 0
M  V30 5852 H 554.577 0.710371 3.86933 0
M  V30 5853 H 556.592 0.0772467 4.9614 0
M  V30 5854 N 555.766 -1.3263 0.851289 0
M  V30 5855 C 556.716 -2.26451 0.265302 0
M  V30 5856 C 557.7 -1.49814 -0.586899 0
M  V30 5857 O 558.892 -1.71525 -0.436834 0
M  V30 5858 C 556.021 -3.38895 -0.548212 0
M  V30 5859 C 555.107 -4.2292 0.316189 0
M  V30 5860 N 555.498 -4.86014 1.40084 0
M  V30 5861 C 553.796 -4.45876 0.105356 0
M  V30 5862 C 554.497 -5.48667 1.93235 0
M  V30 5863 N 553.473 -5.29455 1.232 0
M  V30 5864 H 557.275 -2.72757 1.09457 0
M  V30 5865 H 554.789 -1.4668 0.697047 0
M  V30 5866 H 556.786 -4.05111 -0.984402 0
M  V30 5867 H 555.446 -2.94135 -1.37531 0
M  V30 5868 H 556.457 -4.86212 1.78377 0
M  V30 5869 H 553.134 -4.11804 -0.687299 0
M  V30 5870 H 554.524 -6.08865 2.84135 0
M  V30 5871 N 557.244 -0.608902 -1.45362 0
M  V30 5872 C 558.492 -0.104401 -2.0183 0
M  V30 5873 C 558.813 1.27007 -1.47967 0
M  V30 5874 O 558.083 1.83924 -0.674455 0
M  V30 5875 H 556.663 -0.0356042 -0.746151 0
M  V30 5876 H 559.325 -0.790596 -1.78145 0
M  V30 5877 H 558.421 -0.0551793 -3.12051 0
M  V30 5878 N 558.722 1.53707 -0.348139 0
M  V30 5879 C 560.133 1.86213 0.134797 0
M  V30 5880 C 560.484 1.26925 1.49614 0
M  V30 5881 O 559.609 0.584573 2.08355 0
M  V30 5882 C 560.204 3.37866 0.251371 0
M  V30 5883 C 558.763 3.70233 0.678543 0
M  V30 5884 C 557.91 2.76683 -0.184925 0
M  V30 5885 H 560.861 1.48204 -0.567571 0
M  V30 5886 H 560.882 3.64908 1.07806 0
M  V30 5887 H 560.394 3.80988 -0.739581 0
M  V30 5888 H 558.495 3.32659 1.67835 0
M  V30 5889 H 558.608 4.76836 0.465251 0
M  V30 5890 H 556.972 2.52374 0.343465 0
M  V30 5891 H 557.755 3.22635 -1.1731 0
M  V30 5892 N 560.2 0.0768682 1.57412 0
M  V30 5893 C 561.449 -0.590679 1.92857 0
M  V30 5894 C 561.762 -1.70461 0.959293 0
M  V30 5895 O 562.968 -2.43207 1.20675 0
M  V30 5896 C 561.424 -1.10204 3.42612 0
M  V30 5897 C 561.032 -0.0188447 4.47996 0
M  V30 5898 C 562.776 -1.74336 3.87049 0
M  V30 5899 C 560.683 -0.544536 5.88888 0
M  V30 5900 H 559.613 -0.224411 0.71983 0
M  V30 5901 H 562.264 0.149924 1.82887 0
M  V30 5902 H 560.646 -1.89577 3.47673 0
M  V30 5903 H 561.82 0.755936 4.54557 0
M  V30 5904 H 560.135 0.526555 4.13057 0
M  V30 5905 H 562.732 -2.14708 4.89699 0
M  V30 5906 H 563.075 -2.60537 3.24694 0
M  V30 5907 H 563.608 -1.01577 3.84613 0
M  V30 5908 H 560.347 0.280426 6.549 0
M  V30 5909 H 559.867 -1.28673 5.85836 0
M  V30 5910 H 561.546 -1.01933 6.3892 0
M  V30 5911 N 561.678 -1.56367 -0.196722 0
M  V30 5912 C 562.906 -1.84639 -0.933608 0
M  V30 5913 C 563.321 -0.659164 -1.76919 0
M  V30 5914 O 562.678 0.372142 -1.78665 0
M  V30 5915 C 562.729 -3.11694 -1.83109 0
M  V30 5916 O 562.45 -4.25838 -1.02924 0
M  V30 5917 C 563.951 -3.53132 -2.67979 0
M  V30 5918 H 561.171 -0.613188 -0.272473 0
M  V30 5919 H 563.715 -2.03475 -0.204465 0
M  V30 5920 H 561.87 -2.94759 -2.51387 0
M  V30 5921 H 562.284 -4.98178 -1.64069 0
M  V30 5922 H 563.758 -4.45005 -3.26611 0
M  V30 5923 H 564.235 -2.76045 -3.41608 0
M  V30 5924 H 564.841 -3.72592 -2.05074 0
M  V30 5925 N 563.156 0.464375 -1.50603 0
M  V30 5926 C 564.086 1.56944 -1.72889 0
M  V30 5927 C 565.067 1.59979 -0.577997 0
M  V30 5928 O 566.252 1.76138 -0.817855 0
M  V30 5929 C 563.382 2.95225 -1.8292 0
M  V30 5930 C 562.336 3.07056 -2.98162 0
M  V30 5931 C 561.662 4.47051 -2.93343 0
M  V30 5932 C 562.962 2.83648 -4.38567 0
M  V30 5933 H 564.656 1.38547 -2.65415 0
M  V30 5934 H 562.202 0.665082 -1.27721 0
M  V30 5935 H 564.155 3.72467 -1.97095 0
M  V30 5936 H 562.879 3.14793 -0.870209 0
M  V30 5937 H 561.538 2.32248 -2.83648 0
M  V30 5938 H 561.186 4.63547 -1.95276 0
M  V30 5939 H 560.886 4.55902 -3.70712 0
M  V30 5940 H 562.41 5.26304 -3.09575 0
M  V30 5941 H 563.824 3.50636 -4.53572 0
M  V30 5942 H 562.221 3.03937 -5.17438 0
M  V30 5943 H 563.291 1.79451 -4.50472 0
M  V30 5944 N 564.634 1.40294 0.718013 0
M  V30 5945 C 565.911 1.2894 1.47084 0
M  V30 5946 C 566.291 -0.0933625 2.10893 0
M  V30 5947 O 565.639 -1.10598 1.99951 0
M  V30 5948 C 565.849 2.4264 2.50852 0
M  V30 5949 C 567.197 2.8276 3.16752 0
M  V30 5950 O 568.221 2.42215 2.61171 0
M  V30 5951 O 567.08 3.528 4.17366 0
M  V30 5952 H 564.174 0.506236 0.653952 0
M  V30 5953 H 566.72 1.52208 0.750394 0
M  V30 5954 H 565.492 3.35009 2.022 0
M  V30 5955 H 565.115 2.21129 3.30435 0
M  V30 5956 N 566.112 -0.949982 1.2575 0
M  V30 5957 C 567.359 -1.69515 1.10774 0
M  V30 5958 C 567.687 -1.91316 -0.350479 0
M  V30 5959 O 566.942 -1.48515 -1.27443 0
M  V30 5960 C 567.241 -3.08039 1.81237 0
M  V30 5961 C 566.907 -3.06023 3.31151 0
M  V30 5962 C 565.569 -3.0518 3.72047 0
M  V30 5963 C 567.921 -2.98998 4.26907 0
M  V30 5964 C 565.249 -2.95067 5.07102 0
M  V30 5965 C 567.601 -2.90426 5.61992 0
M  V30 5966 C 566.265 -2.87922 6.0221 0
M  V30 5967 H 565.535 -0.6203 0.405351 0
M  V30 5968 H 568.182 -1.10953 1.56082 0
M  V30 5969 H 566.487 -3.70172 1.28373 0
M  V30 5970 H 568.184 -3.64526 1.67098 0
M  V30 5971 H 564.774 -3.07453 2.98614 0
M  V30 5972 H 568.958 -2.98764 3.963 0
M  V30 5973 H 564.214 -2.915 5.37436 0
M  V30 5974 H 568.388 -2.83952 6.35881 0
M  V30 5975 H 566.015 -2.79841 7.06819 0
M  V30 5976 N 567.59 -1.07411 -1.15328 0
M  V30 5977 C 568.553 -0.698914 -2.18284 0
M  V30 5978 C 569.553 0.261149 -1.58665 0
M  V30 5979 O 570.743 0.0420277 -1.74149 0
M  V30 5980 C 567.875 -0.0302427 -3.40887 0
M  V30 5981 H 569.068 -1.61045 -2.52991 0
M  V30 5982 H 566.621 -0.870724 -1.298 0
M  V30 5983 H 567.356 0.893505 -3.11748 0
M  V30 5984 H 567.141 -0.720759 -3.85419 0
M  V30 5985 H 568.631 0.21759 -4.17033 0
M  V30 5986 N 569.068 1.32177 -0.85831 0
M  V30 5987 C 570.317 1.96392 -0.459689 0
M  V30 5988 C 570.63 1.68659 0.990632 0
M  V30 5989 O 571.836 2.26641 1.49485 0
M  V30 5990 C 570.292 3.51542 -0.7711 0
M  V30 5991 C 569.9 3.8813 -2.2374 0
M  V30 5992 C 571.644 4.2221 -0.44038 0
M  V30 5993 C 569.551 5.36341 -2.49183 0
M  V30 5994 H 568.481 0.735007 -0.168169 0
M  V30 5995 H 571.132 1.50518 -1.0496 0
M  V30 5996 H 569.514 3.95846 -0.11058 0
M  V30 5997 H 570.688 3.54824 -2.94001 0
M  V30 5998 H 569.003 3.30497 -2.533 0
M  V30 5999 H 571.6 5.31234 -0.607855 0
M  V30 6000 H 571.943 4.11683 0.618291 0
M  V30 6001 H 572.476 3.83502 -1.05695 0
M  V30 6002 H 569.215 5.51892 -3.53689 0
M  V30 6003 H 568.735 5.7104 -1.83504 0
M  V30 6004 H 570.414 6.03466 -2.33318 0
M  V30 6005 N 570.547 0.616602 1.45037 0
M  V30 6006 C 571.495 -0.109318 2.32343 0
M  V30 6007 C 572.489 -0.850543 1.465 0
M  V30 6008 O 573.695 -0.765088 1.62931 0
M  V30 6009 H 570.07 -0.0541091 0.750051 0
M  V30 6010 H 572.041 0.645326 2.91338 0
M  V30 6011 C 570.79 -1.0872 3.30266 0
M  V30 6012 H 570.113 -0.526267 3.96321 0
M  V30 6013 H 571.553 -1.56489 3.94065 0
M  V30 6014 C 570.012 -2.16525 2.58105 0
M  V30 6015 O 570.542 -3.244 2.36913 0
M  V30 6016 N 568.748 -1.92057 2.18088 0
M  V30 6017 H 568.295 -1.04337 2.35524 0
M  V30 6018 H 568.253 -2.64391 1.70131 0
M  V30 6019 N 572.025 -1.5352 0.356285 0
M  V30 6020 C 572.972 -2.25439 -0.494569 0
M  V30 6021 C 573.942 -1.25752 -1.08516 0
M  V30 6022 O 575.127 -1.54513 -1.1194 0
M  V30 6023 C 572.267 -3.04011 -1.63313 0
M  V30 6024 C 571.38 -4.18574 -1.06862 0
M  V30 6025 C 570.515 -4.84607 -2.17552 0
M  V30 6026 C 569.554 -5.91218 -1.58518 0
M  V30 6027 N 568.691 -6.50979 -2.63003 0
M  V30 6028 H 573.531 -2.97737 0.125244 0
M  V30 6029 H 571.068 -1.46916 0.0735789 0
M  V30 6030 H 573.026 -3.47834 -2.30363 0
M  V30 6031 H 571.656 -2.33986 -2.22374 0
M  V30 6032 H 570.708 -3.79303 -0.288672 0
M  V30 6033 H 572.02 -4.95215 -0.596924 0
M  V30 6034 H 571.174 -5.31566 -2.92442 0
M  V30 6035 H 569.913 -4.07418 -2.6807 0
M  V30 6036 H 568.918 -5.4363 -0.821391 0
M  V30 6037 H 570.143 -6.70322 -1.08836 0
M  V30 6038 H 568.089 -5.76648 -3.12751 0
M  V30 6039 H 568.006 -7.23131 -2.20493 0
M  V30 6040 H 569.274 -7.02589 -3.37623 0
M  V30 6041 N 573.503 -0.0852151 -1.57369 0
M  V30 6042 C 574.433 0.874556 -2.16503 0
M  V30 6043 C 575.414 1.30111 -1.09568 0
M  V30 6044 O 576.599 1.36977 -1.37662 0
M  V30 6045 C 573.729 2.13731 -2.73745 0
M  V30 6046 C 572.683 1.84971 -3.85966 0
M  V30 6047 C 572.009 3.17991 -4.29867 0
M  V30 6048 C 573.309 1.14442 -5.09608 0
M  V30 6049 H 575.003 0.381899 -2.96954 0
M  V30 6050 H 572.549 0.18225 -1.42842 0
M  V30 6051 H 574.502 2.81302 -3.13763 0
M  V30 6052 H 573.226 2.65263 -1.90534 0
M  V30 6053 H 571.885 1.19801 -3.46473 0
M  V30 6054 H 571.533 3.6739 -3.4356 0
M  V30 6055 H 571.233 2.99534 -5.05523 0
M  V30 6056 H 572.757 3.86737 -4.72511 0
M  V30 6057 H 574.171 1.72105 -5.46857 0
M  V30 6058 H 572.568 1.06197 -5.90629 0
M  V30 6059 H 573.638 0.12559 -4.84737 0
M  V30 6060 N 574.981 1.5647 0.188427 0
M  V30 6061 C 575.928 1.95073 1.23349 0
M  V30 6062 C 576.898 0.812238 1.44886 0
M  V30 6063 O 578.083 1.07095 1.57909 0
M  V30 6064 C 575.223 2.30124 2.57171 0
M  V30 6065 C 574.336 3.57069 2.43157 0
M  V30 6066 C 573.471 3.81411 3.69729 0
M  V30 6067 C 572.51 5.0176 3.50575 0
M  V30 6068 N 571.647 5.22321 4.69175 0
M  V30 6069 H 576.487 2.84171 0.89728 0
M  V30 6070 H 574.024 1.40623 0.431683 0
M  V30 6071 H 575.982 2.48463 3.35145 0
M  V30 6072 H 574.612 1.44159 2.88822 0
M  V30 6073 H 573.664 3.4674 1.56447 0
M  V30 6074 H 574.976 4.452 2.24942 0
M  V30 6075 H 574.13 4.00026 4.56141 0
M  V30 6076 H 572.869 2.91624 3.90905 0
M  V30 6077 H 571.874 4.83061 2.62549 0
M  V30 6078 H 573.099 5.93063 3.30837 0
M  V30 6079 H 571.045 4.35483 4.90602 0
M  V30 6080 H 570.962 6.04643 4.53809 0
M  V30 6081 H 572.23 5.45401 5.56919 0
M  V30 6082 N 576.459 -0.456382 1.50847 0
M  V30 6083 C 577.687 -1.23026 1.66349 0
M  V30 6084 C 578.102 -1.85473 0.352868 0
M  V30 6085 O 577.459 -1.69885 -0.666739 0
M  V30 6086 C 577.51 -2.32827 2.76539 0
M  V30 6087 O 577.231 -1.72938 4.02522 0
M  V30 6088 C 578.732 -3.23448 3.03144 0
M  V30 6089 H 575.952 -0.371527 0.558756 0
M  V30 6090 H 578.496 -0.543082 1.97157 0
M  V30 6091 H 576.651 -2.97294 2.48384 0
M  V30 6092 H 577.065 -2.45357 4.63573 0
M  V30 6093 H 578.539 -3.96669 3.83872 0
M  V30 6094 H 579.016 -3.83094 2.14793 0
M  V30 6095 H 579.622 -2.64702 3.32886 0
M  V30 6096 N 577.937 -1.40673 -0.710563 0
M  V30 6097 C 579.185 -1.38947 -1.46759 0
M  V30 6098 C 579.506 0.00572879 -1.94999 0
M  V30 6099 O 578.776 0.961358 -1.70689 0
M  V30 6100 H 577.356 -0.5114 -0.544499 0
M  V30 6101 H 580.018 -1.75773 -0.842012 0
M  V30 6102 H 579.114 -2.06745 -2.33801 0
M  V30 6103 N 579.415 0.9433 -1.26252 0
M  V30 6104 C 580.663 1.68592 -1.11451 0
M  V30 6105 C 580.984 1.91957 0.343123 0
M  V30 6106 O 580.254 1.51475 1.24226 0
M  V30 6107 H 578.834 0.624789 -0.409448 0
M  V30 6108 H 581.496 1.13351 -1.58548 0
M  V30 6109 H 580.592 2.66054 -1.63162 0
M  V30 6110 N 580.893 1.08022 1.14757 0
M  V30 6111 C 582.118 0.82895 1.90114 0
M  V30 6112 C 582.543 -0.612772 1.77839 0
M  V30 6113 O 581.901 -1.42895 1.11583 0
M  V30 6114 C 581.949 1.25062 3.38219 0
M  V30 6115 O 581.053 0.400119 4.10454 0
M  V30 6116 H 580.394 0.301412 0.591648 0
M  V30 6117 H 582.924 1.44062 1.45284 0
M  V30 6118 H 582.934 1.22977 3.89025 0
M  V30 6119 H 581.609 2.30067 3.46471 0
M  V30 6120 H 580.186 0.484052 3.69745 0
M  V30 6121 N 582.371 -1.3172 0.865308 0
M  V30 6122 C 583.787 -1.4958 0.556596 0
M  V30 6123 C 583.987 -1.79763 -0.910353 0
M  V30 6124 O 583.043 -1.87351 -1.6928 0
M  V30 6125 C 584.356 -2.63277 1.45279 0
M  V30 6126 C 585.904 -2.77161 1.45433 0
M  V30 6127 C 586.379 -3.93949 2.33598 0
M  V30 6128 N 587.87 -4.01228 2.31453 0
M  V30 6129 C 588.605 -4.90855 2.96393 0
M  V30 6130 N 588.101 -5.85416 3.70486 0
M  V30 6131 N 589.894 -4.84063 2.85726 0
M  V30 6132 H 582.045 -1.10396 1.81456 0
M  V30 6133 H 584.308 -0.54507 0.775631 0
M  V30 6134 H 584.014 -2.47734 2.49641 0
M  V30 6135 H 583.888 -3.59309 1.14792 0
M  V30 6136 H 586.275 -2.9212 0.41831 0
M  V30 6137 H 586.356 -1.8181 1.79941 0
M  V30 6138 H 586 -3.79748 3.37274 0
M  V30 6139 H 585.93 -4.88598 1.96417 0
M  V30 6140 H 588.421 -3.3357 1.77593 0
M  V30 6141 H 588.734 -6.50525 4.17178 0
M  V30 6142 H 587.079 -5.85409 3.74594 0
M  V30 6143 H 590.27 -4.09163 2.27384 0
M  V30 6144 H 590.443 -5.53708 3.36617 0
M  V30 6145 N 583.85 -0.624285 -1.44708 0
M  V30 6146 C 585.26 -0.2092 -1.85524 0
M  V30 6147 C 585.611 1.23783 -1.52225 0
M  V30 6148 O 584.736 1.94089 -0.956986 0
M  V30 6149 C 585.332 -0.372897 -3.36742 0
M  V30 6150 C 583.891 -0.012374 -3.76398 0
M  V30 6151 C 583.038 -0.68951 -2.68591 0
M  V30 6152 H 585.989 -0.829894 -1.35272 0
M  V30 6153 H 586.01 0.390134 -3.78495 0
M  V30 6154 H 585.522 -1.42615 -3.60947 0
M  V30 6155 H 583.623 1.03941 -3.57809 0
M  V30 6156 H 583.736 -0.417663 -4.77276 0
M  V30 6157 H 582.1 -0.125484 -2.54391 0
M  V30 6158 H 582.883 -1.74522 -2.9563 0
M  V30 6159 N 585.328 1.53329 -0.364422 0
M  V30 6160 C 586.576 2.00842 0.225189 0
M  V30 6161 C 586.897 1.25345 1.49378 0
M  V30 6162 O 586.167 0.366396 1.92443 0
M  V30 6163 H 584.747 0.742009 0.0862027 0
M  V30 6164 H 587.409 1.8863 -0.490389 0
M  V30 6165 H 586.505 3.08795 0.452987 0
M  V30 6166 N 586.806 0.0935595 1.57322 0
M  V30 6167 C 588.031 -0.582324 1.99057 0
M  V30 6168 C 588.456 -1.61025 0.972242 0
M  V30 6169 O 587.814 -1.81202 -0.0594622 0
M  V30 6170 C 587.862 -1.20799 3.39765 0
M  V30 6171 O 586.966 -2.32382 3.40694 0
M  V30 6172 H 586.307 -0.147884 0.647323 0
M  V30 6173 H 588.837 0.174516 2.03854 0
M  V30 6174 H 588.847 -1.54966 3.77425 0
M  V30 6175 H 587.522 -0.454914 4.13405 0
M  V30 6176 H 586.099 -1.99845 3.14827 0
M  V30 6177 N 588.284 -1.56567 -0.180126 0
M  V30 6178 C 589.514 -1.85349 -0.912647 0
M  V30 6179 C 589.922 -0.675795 -1.76719 0
M  V30 6180 O 589.265 0.3645 -1.80047 0
M  V30 6181 C 589.327 -3.08431 -1.84691 0
M  V30 6182 C 588.991 -4.41694 -1.17284 0
M  V30 6183 C 589.988 -5.17062 -0.542532 0
M  V30 6184 C 587.673 -4.8843 -1.17223 0
M  V30 6185 C 589.667 -6.37351 0.0793953 0
M  V30 6186 C 587.354 -6.08652 -0.54647 0
M  V30 6187 C 588.352 -6.82955 0.0782458 0
M  V30 6188 O 588.04 -8.00897 0.694158 0
M  V30 6189 H 587.772 -0.619286 -0.271036 0
M  V30 6190 H 590.326 -2.0454 -0.187768 0
M  V30 6191 H 588.556 -2.85163 -2.61188 0
M  V30 6192 H 590.245 -3.23733 -2.44851 0
M  V30 6193 H 591.011 -4.8204 -0.535045 0
M  V30 6194 H 586.89 -4.30542 -1.64788 0
M  V30 6195 H 590.434 -6.95287 0.567612 0
M  V30 6196 H 586.331 -6.4314 -0.55151 0
M  V30 6197 H 587.099 -8.16352 0.592537 0
M  V30 6198 N 589.762 0.448376 -1.51087 0
M  V30 6199 C 591.008 1.20049 -1.6345 0
M  V30 6200 C 591.341 1.91121 -0.344444 0
M  V30 6201 O 590.616 1.83125 0.655396 0
M  V30 6202 C 590.899 2.22624 -2.83038 0
M  V30 6203 C 590.752 1.55708 -4.21989 0
M  V30 6204 C 592.071 3.23718 -2.98152 0
M  V30 6205 H 589.19 0.435085 -0.59487 0
M  V30 6206 H 591.832 0.491183 -1.83541 0
M  V30 6207 H 589.982 2.83117 -2.66039 0
M  V30 6208 H 591.654 0.986367 -4.50631 0
M  V30 6209 H 589.897 0.859647 -4.25197 0
M  V30 6210 H 590.568 2.30357 -5.01637 0
M  V30 6211 H 593.044 2.73269 -3.13788 0
M  V30 6212 H 591.92 3.92795 -3.83411 0
M  V30 6213 H 592.181 3.89179 -2.09743 0
M  V30 6214 N 591.24 1.41047 0.703093 0
M  V30 6215 C 592.17 1.45067 1.82969 0
M  V30 6216 C 593.151 0.31016 1.67248 0
M  V30 6217 O 594.336 0.520548 1.87093 0
M  V30 6218 C 591.466 1.32478 3.2104 0
M  V30 6219 C 590.42 2.44262 3.51454 0
M  V30 6220 C 589.746 2.16742 4.88801 0
M  V30 6221 C 591.046 3.86606 3.51189 0
M  V30 6222 H 592.74 2.39353 1.79863 0
M  V30 6223 H 590.286 1.15206 0.863919 0
M  V30 6224 H 592.239 1.33904 3.99559 0
M  V30 6225 H 590.963 0.346735 3.24754 0
M  V30 6226 H 589.622 2.42107 2.75282 0
M  V30 6227 H 589.27 1.17299 4.89132 0
M  V30 6228 H 588.97 2.91643 5.10116 0
M  V30 6229 H 590.494 2.19872 5.69639 0
M  V30 6230 H 591.908 3.90517 4.19725 0
M  V30 6231 H 590.305 4.61128 3.84033 0
M  V30 6232 H 591.375 4.15296 2.50315 0
M  V30 6233 N 592.718 -0.936591 1.26751 0
M  V30 6234 C 594.134 -1.21095 1.03963 0
M  V30 6235 C 594.334 -2.00156 -0.232372 0
M  V30 6236 O 593.39 -2.3434 -0.940274 0
M  V30 6237 C 594.703 -1.96775 2.27377 0
M  V30 6238 C 596.251 -2.09749 2.32324 0
M  V30 6239 C 596.726 -2.88832 3.55443 0
M  V30 6240 N 598.217 -2.96404 3.55948 0
M  V30 6241 C 598.952 -3.58036 4.47881 0
M  V30 6242 N 598.448 -4.21132 5.50109 0
M  V30 6243 N 600.241 -3.55353 4.35523 0
M  V30 6244 H 592.392 -0.408173 2.08441 0
M  V30 6245 H 594.655 -0.243139 0.91629 0
M  V30 6246 H 594.361 -1.46094 3.19921 0
M  V30 6247 H 594.235 -2.97424 2.31989 0
M  V30 6248 H 596.622 -2.5962 1.40291 0
M  V30 6249 H 596.703 -1.08347 2.31721 0
M  V30 6250 H 596.347 -2.39647 4.47808 0
M  V30 6251 H 596.277 -3.90499 3.53296 0
M  V30 6252 H 598.768 -2.51552 2.82011 0
M  V30 6253 H 599.081 -4.66071 6.16439 0
M  V30 6254 H 597.426 -4.19705 5.53961 0
M  V30 6255 H 600.617 -3.05256 3.54875 0
M  V30 6256 H 600.79 -4.03097 5.07363 0
M  V30 6257 N 594.196 -1.08629 -1.14182 0
M  V30 6258 C 595.612 -0.814363 -1.3726 0
M  V30 6259 C 595.812 0.575271 -1.93114 0
M  V30 6260 O 594.868 1.33165 -2.1453 0
M  V30 6261 C 596.181 -1.8989 -2.33157 0
M  V30 6262 C 597.729 -1.92518 -2.46791 0
M  V30 6263 C 598.204 -3.00092 -3.45989 0
M  V30 6264 N 599.695 -2.99279 -3.53534 0
M  V30 6265 C 600.43 -3.79158 -4.30147 0
M  V30 6266 N 599.926 -4.68923 -5.09983 0
M  V30 6267 N 601.719 -3.67451 -4.25366 0
M  V30 6268 H 593.87 -1.98232 -0.762758 0
M  V30 6269 H 596.133 -0.860383 -0.398051 0
M  V30 6270 H 595.839 -2.89809 -1.99257 0
M  V30 6271 H 595.713 -1.77013 -3.33086 0
M  V30 6272 H 598.1 -0.932425 -2.79982 0
M  V30 6273 H 598.181 -2.09473 -1.46816 0
M  V30 6274 H 597.825 -3.99575 -3.13532 0
M  V30 6275 H 597.755 -2.80382 -4.45751 0
M  V30 6276 H 600.246 -2.3422 -2.96563 0
M  V30 6277 H 600.559 -5.26475 -5.65724 0
M  V30 6278 H 598.904 -4.72964 -5.09244 0
M  V30 6279 H 602.095 -2.9669 -3.62067 0
M  V30 6280 H 602.268 -4.29944 -4.84822 0
M  V30 6281 N 595.674 1.31259 -0.872281 0
M  V30 6282 C 596.899 2.0133 -0.498099 0
M  V30 6283 C 597.324 1.65031 0.902568 0
M  V30 6284 O 596.682 0.860164 1.59596 0
M  V30 6285 C 596.73 3.54411 -0.665205 0
M  V30 6286 O 595.834 4.11347 0.294473 0
M  V30 6287 H 595.175 0.633844 -0.197832 0
M  V30 6288 H 597.705 1.67402 -1.17633 0
M  V30 6289 H 597.715 4.04147 -0.559373 0
M  V30 6290 H 596.39 3.80171 -1.68651 0
M  V30 6291 H 594.967 3.72624 0.143403 0
M  V30 6292 N 597.152 0.631951 1.44375 0
M  V30 6293 C 598.563 0.219036 1.85411 0
M  V30 6294 C 598.914 -1.22974 1.52879 0
M  V30 6295 O 598.039 -1.93579 0.967266 0
M  V30 6296 C 598.634 0.39075 3.36539 0
M  V30 6297 C 597.193 0.0323351 3.76386 0
M  V30 6298 C 596.34 0.703744 2.68221 0
M  V30 6299 H 599.291 0.837056 1.3483 0
M  V30 6300 H 599.312 -0.370056 3.78696 0
M  V30 6301 H 598.824 1.44527 3.60185 0
M  V30 6302 H 596.925 -1.02042 3.58355 0
M  V30 6303 H 597.038 0.442969 4.77048 0
M  V30 6304 H 595.402 0.138974 2.54321 0
M  V30 6305 H 596.185 1.76088 2.947 0
M  V30 6306 N 598.631 -1.53133 0.372548 0
M  V30 6307 C 599.563 -2.23557 -0.505444 0
M  V30 6308 C 600.576 -1.25211 -1.04049 0
M  V30 6309 O 601.765 -1.51391 -0.945675 0
M  V30 6310 C 598.865 -2.92516 -1.71136 0
M  V30 6311 C 598.038 -4.17428 -1.30661 0
M  V30 6312 C 597.097 -4.69535 -2.37536 0
M  V30 6313 O 596.123 -5.33042 -1.99637 0
M  V30 6314 N 597.325 -4.47947 -3.6922 0
M  V30 6315 H 600.09 -2.9954 0.0978259 0
M  V30 6316 H 597.651 -1.60684 0.198068 0
M  V30 6317 H 599.643 -3.24281 -2.42124 0
M  V30 6318 H 598.213 -2.19944 -2.22134 0
M  V30 6319 H 597.433 -3.91888 -0.426292 0
M  V30 6320 H 598.721 -4.98622 -1.01259 0
M  V30 6321 H 598.119 -3.97219 -4.02783 0
M  V30 6322 H 596.676 -4.84245 -4.36292 0
M  V30 6323 N 600.109 -0.101901 -1.5727 0
M  V30 6324 C 601.386 0.602832 -1.86079 0
M  V30 6325 C 601.766 1.85912 -1 0
M  V30 6326 O 601.114 2.28379 -0.0742488 0
M  V30 6327 C 601.324 0.911694 -3.36881 0
M  V30 6328 C 602.672 1.2722 -4.05093 0
M  V30 6329 O 603.696 1.0025 -3.41802 0
M  V30 6330 O 602.555 1.7776 -5.16782 0
M  V30 6331 H 599.649 0.302366 -0.769743 0
M  V30 6332 H 602.195 -0.135113 -1.69161 0
M  V30 6333 H 600.967 0.0207256 -3.91295 0
M  V30 6334 H 600.59 1.70538 -3.59169 0
M  V30 6335 N 601.587 1.56661 0.17182 0
M  V30 6336 C 602.834 1.81965 0.888529 0
M  V30 6337 C 603.162 0.6789 1.82267 0
M  V30 6338 O 602.417 -0.333875 1.92831 0
M  V30 6339 C 602.716 3.13435 1.71736 0
M  V30 6340 C 602.382 4.41159 0.932184 0
M  V30 6341 C 601.044 4.75851 0.715481 0
M  V30 6342 C 603.396 5.19803 0.381387 0
M  V30 6343 C 600.724 5.86666 -0.063126 0
M  V30 6344 C 603.076 6.31433 -0.384129 0
M  V30 6345 C 601.74 6.64692 -0.611637 0
M  V30 6346 H 601.01 0.665859 0.325136 0
M  V30 6347 H 603.657 1.90884 0.153495 0
M  V30 6348 H 601.962 2.99857 2.52177 0
M  V30 6349 H 603.659 3.30224 2.27493 0
M  V30 6350 H 600.249 4.13947 1.11112 0
M  V30 6351 H 604.433 4.93396 0.536148 0
M  V30 6352 H 599.689 6.10892 -0.249136 0
M  V30 6353 H 603.863 6.91577 -0.818185 0
M  V30 6354 H 601.49 7.50398 -1.21684 0
M  V30 6355 N 603.065 -0.440357 1.51323 0
M  V30 6356 C 604.342 -1.20109 1.5438 0
M  V30 6357 C 604.722 -2.08866 0.306303 0
M  V30 6358 O 604.07 -2.1723 -0.708773 0
M  V30 6359 C 604.28 -2.00555 2.8562 0
M  V30 6360 C 605.628 -2.577 3.37455 0
M  V30 6361 O 606.652 -2.10769 2.8715 0
M  V30 6362 O 605.511 -3.43289 4.25224 0
M  V30 6363 H 602.605 -0.546668 0.620551 0
M  V30 6364 H 605.151 -0.449672 1.63634 0
M  V30 6365 H 603.923 -1.35346 3.67147 0
M  V30 6366 H 603.546 -2.82768 2.79514 0
M  V30 6367 N 604.543 -1.41418 -0.695603 0
M  V30 6368 C 605.768 -1.44329 -1.48942 0
M  V30 6369 C 606.193 -0.0501579 -1.88033 0
M  V30 6370 O 605.551 0.946598 -1.54626 0
M  V30 6371 C 605.599 -2.3578 -2.72837 0
M  V30 6372 O 604.703 -1.81482 -3.70322 0
M  V30 6373 H 604.044 -0.489838 -0.44828 0
M  V30 6374 H 606.574 -1.85878 -0.855014 0
M  V30 6375 H 606.584 -2.51654 -3.21145 0
M  V30 6376 H 605.259 -3.37005 -2.43722 0
M  V30 6377 H 603.836 -1.75058 -3.29255 0
M  V30 6378 N 606.021 0.929856 -1.27246 0
M  V30 6379 C 607.268 1.67731 -1.13457 0
M  V30 6380 C 607.596 1.9185 0.319998 0
M  V30 6381 O 606.851 1.50524 1.25064 0
M  V30 6382 C 607.15 3.05116 -1.86115 0
M  V30 6383 C 606.816 3.00715 -3.35978 0
M  V30 6384 C 605.478 2.99222 -3.76855 0
M  V30 6385 C 607.83 2.92168 -4.3161 0
M  V30 6386 C 605.158 2.86962 -5.11732 0
M  V30 6387 C 607.51 2.81449 -5.66542 0
M  V30 6388 C 606.174 2.78305 -6.06715 0
M  V30 6389 H 605.444 0.613772 -0.415168 0
M  V30 6390 H 608.091 1.08456 -1.57827 0
M  V30 6391 H 606.396 3.68083 -1.34246 0
M  V30 6392 H 608.093 3.61822 -1.72876 0
M  V30 6393 H 604.683 3.02664 -3.03468 0
M  V30 6394 H 608.867 2.92421 -4.01003 0
M  V30 6395 H 604.123 2.82913 -5.42006 0
M  V30 6396 H 608.297 2.738 -6.40317 0
M  V30 6397 H 605.924 2.68561 -7.11181 0
M  V30 6398 N 607.499 1.09233 1.13605 0
M  V30 6399 C 608.429 0.751738 2.21068 0
M  V30 6400 C 609.41 -0.269688 1.67948 0
M  V30 6401 O 610.595 -0.13819 1.93708 0
M  V30 6402 C 607.725 0.16935 3.46887 0
M  V30 6403 C 606.679 1.12007 4.13084 0
M  V30 6404 C 606.005 0.399483 5.33206 0
M  V30 6405 C 607.305 2.46168 4.6065 0
M  V30 6406 H 608.999 1.65024 2.49815 0
M  V30 6407 H 606.545 0.794905 1.20072 0
M  V30 6408 H 608.498 -0.0809824 4.21322 0
M  V30 6409 H 607.222 -0.764335 3.1753 0
M  V30 6410 H 605.881 1.35564 3.40614 0
M  V30 6411 H 605.529 -0.538277 5.00112 0
M  V30 6412 H 605.229 1.03337 5.78442 0
M  V30 6413 H 606.753 0.157403 6.10397 0
M  V30 6414 H 608.167 2.26829 5.26518 0
M  V30 6415 H 606.564 3.05326 5.1662 0
M  V30 6416 H 607.634 3.07076 3.75276 0
M  V30 6417 N 608.977 -1.30795 0.87923 0
M  V30 6418 C 609.907 -2.30742 0.357796 0
M  V30 6419 C 610.888 -1.60747 -0.556283 0
M  V30 6420 O 612.073 -1.88393 -0.47135 0
M  V30 6421 C 609.203 -3.44583 -0.433555 0
M  V30 6422 C 608.157 -4.26235 0.388251 0
M  V30 6423 C 607.483 -5.32073 -0.529352 0
M  V30 6424 C 608.783 -4.96303 1.62729 0
M  V30 6425 H 610.477 -2.74605 1.19299 0
M  V30 6426 H 608.023 -1.32017 0.575104 0
M  V30 6427 H 609.976 -4.13563 -0.808934 0
M  V30 6428 H 608.7 -2.99511 -1.30234 0
M  V30 6429 H 607.359 -3.58936 0.745695 0
M  V30 6430 H 607.007 -4.83249 -1.39569 0
M  V30 6431 H 606.707 -5.87598 0.0166741 0
M  V30 6432 H 608.231 -6.0391 -0.901373 0
M  V30 6433 H 609.645 -5.5783 1.32283 0
M  V30 6434 H 608.042 -5.61666 2.11309 0
M  V30 6435 H 609.112 -4.22758 2.37494 0
M  V30 6436 N 610.455 -0.639598 -1.44038 0
M  V30 6437 C 611.683 -0.154811 -2.0632 0
M  V30 6438 C 612.098 1.17406 -1.47856 0
M  V30 6439 O 611.455 1.72193 -0.604638 0
M  V30 6440 C 611.506 -0.0429958 -3.61474 0
M  V30 6441 O 611.227 -1.31932 -4.17763 0
M  V30 6442 C 612.728 0.469486 -4.40807 0
M  V30 6443 H 609.948 -0.0835862 -0.665773 0
M  V30 6444 H 612.492 -0.876397 -1.84769 0
M  V30 6445 H 610.647 0.629075 -3.82258 0
M  V30 6446 H 611.061 -1.16965 -5.11292 0
M  V30 6447 H 612.535 0.496712 -5.49761 0
M  V30 6448 H 613.012 1.49819 -4.12857 0
M  V30 6449 H 613.618 -0.169624 -4.24962 0
M  V30 6450 N 611.933 1.52934 -0.380664 0
M  V30 6451 C 613.179 2.01765 0.20458 0
M  V30 6452 C 613.512 1.26696 1.47179 0
M  V30 6453 O 612.787 0.364936 1.91046 0
M  V30 6454 C 613.07 3.56869 0.481269 0
M  V30 6455 C 612.923 4.42617 -0.800629 0
M  V30 6456 C 614.242 4.2121 1.27554 0
M  V30 6457 H 611.361 0.733388 0.0728803 0
M  V30 6458 H 614.003 1.83068 -0.50853 0
M  V30 6459 H 612.153 3.72932 1.08875 0
M  V30 6460 H 613.825 4.38323 -1.43773 0
M  V30 6461 H 612.068 4.09977 -1.4178 0
M  V30 6462 H 612.739 5.49134 -0.561791 0
M  V30 6463 H 615.215 4.09072 0.761514 0
M  V30 6464 H 614.091 5.29732 1.43788 0
M  V30 6465 H 614.352 3.78269 2.28833 0
M  V30 6466 N 613.412 0.11024 1.57214 0
M  V30 6467 C 614.652 -0.553061 1.96775 0
M  V30 6468 C 615.016 -1.64403 0.991753 0
M  V30 6469 O 616.217 -2.36561 1.27642 0
M  V30 6470 C 614.488 -1.08004 3.4069 0
M  V30 6471 S 616.047 -1.75309 4.02259 0
M  V30 6472 H 612.865 -0.18003 0.68783 0
M  V30 6473 H 615.467 0.193242 1.94543 0
M  V30 6474 H 614.171 -0.274735 4.09479 0
M  V30 6475 H 613.702 -1.86182 3.46554 0
M  V30 6476 H 615.717 -3.03834 3.923 0
M  V30 6477 N 614.89 -1.56749 -0.16351 0
M  V30 6478 C 616.136 -1.82704 -0.880168 0
M  V30 6479 C 616.469 -0.689311 -1.81555 0
M  V30 6480 O 615.744 0.308224 -1.92042 0
M  V30 6481 C 616.027 -3.19084 -1.66905 0
M  V30 6482 C 615.88 -4.43397 -0.756269 0
M  V30 6483 C 617.199 -3.52493 -2.63509 0
M  V30 6484 H 614.318 -0.664608 -0.318535 0
M  V30 6485 H 616.96 -1.89438 -0.146036 0
M  V30 6486 H 615.11 -3.13475 -2.2949 0
M  V30 6487 H 616.782 -4.61079 -0.14269 0
M  V30 6488 H 615.025 -4.33752 -0.0647944 0
M  V30 6489 H 615.696 -5.3539 -1.34393 0
M  V30 6490 H 618.172 -3.58606 -2.11047 0
M  V30 6491 H 617.048 -4.48979 -3.15767 0
M  V30 6492 H 617.309 -2.77597 -3.44082 0
M  V30 6493 N 616.368 0.432326 -1.51554 0
M  V30 6494 C 617.3 1.54357 -1.6943 0
M  V30 6495 C 618.313 1.52311 -0.574897 0
M  V30 6496 O 619.502 1.56997 -0.849369 0
M  V30 6497 C 616.602 2.93273 -1.69836 0
M  V30 6498 C 615.775 3.19768 -2.98442 0
M  V30 6499 C 614.834 4.38433 -2.90969 0
M  V30 6500 O 613.86 4.36842 -3.64908 0
M  V30 6501 N 615.062 5.42276 -2.07163 0
M  V30 6502 H 617.827 1.39426 -2.65293 0
M  V30 6503 H 615.388 0.621331 -1.49503 0
M  V30 6504 H 617.38 3.70687 -1.62399 0
M  V30 6505 H 615.95 3.01777 -0.815456 0
M  V30 6506 H 615.17 2.30607 -3.19709 0
M  V30 6507 H 616.458 3.343 -3.83563 0
M  V30 6508 H 615.856 5.46407 -1.46477 0
M  V30 6509 H 614.413 6.18524 -2.05601 0
M  V30 6510 N 617.846 1.41785 0.688094 0
M  V30 6511 C 618.794 1.44436 1.82321 0
M  V30 6512 C 619.788 0.321544 1.6632 0
M  V30 6513 O 620.994 0.493931 1.73091 0
M  V30 6514 H 617.369 0.452084 0.600936 0
M  V30 6515 H 619.34 2.40087 1.77202 0
M  V30 6516 C 618.089 1.35071 3.20392 0
M  V30 6517 H 617.412 2.2076 3.33324 0
M  V30 6518 H 618.852 1.40988 3.99873 0
M  V30 6519 C 617.311 0.0639127 3.36839 0
M  V30 6520 O 617.841 -0.888495 3.91751 0
M  V30 6521 N 616.047 -0.0146114 2.90596 0
M  V30 6522 H 615.594 0.761191 2.46097 0
M  V30 6523 H 615.552 -0.874988 3.01979 0
M  V30 6524 N 619.324 -0.923095 1.27737 0
M  V30 6525 C 620.735 -1.48626 1.12993 0
M  V30 6526 C 621.086 -1.94142 -0.283439 0
M  V30 6527 O 620.211 -1.81605 -1.17681 0
M  V30 6528 C 620.806 -2.70117 2.04505 0
M  V30 6529 C 619.365 -3.22642 1.93853 0
M  V30 6530 C 618.512 -1.95368 1.96791 0
M  V30 6531 H 621.463 -0.736737 1.40563 0
M  V30 6532 H 621.484 -3.4506 1.60356 0
M  V30 6533 H 620.996 -2.36959 3.07363 0
M  V30 6534 H 619.097 -3.60549 0.939968 0
M  V30 6535 H 619.21 -3.88525 2.80331 0
M  V30 6536 H 617.574 -2.12061 1.41076 0
M  V30 6537 H 618.357 -1.64517 3.01312 0
M  V30 6538 N 620.802 -1.09834 -1.13024 0
M  V30 6539 C 621.732 -0.763451 -2.20666 0
M  V30 6540 C 622.713 0.260778 -1.68089 0
M  V30 6541 O 623.898 0.127915 -1.93778 0
M  V30 6542 C 621.028 -0.187744 -3.46792 0
M  V30 6543 C 619.982 -1.14196 -4.12484 0
M  V30 6544 C 619.308 -0.427755 -5.32986 0
M  V30 6545 C 620.608 -2.48607 -4.59338 0
M  V30 6546 H 622.302 -1.66347 -2.48936 0
M  V30 6547 H 619.848 -0.801261 -1.19649 0
M  V30 6548 H 621.801 0.0586375 -4.21359 0
M  V30 6549 H 620.525 0.747485 -3.17931 0
M  V30 6550 H 619.184 -1.37369 -3.3989 0
M  V30 6551 H 618.832 0.511747 -5.0039 0
M  V30 6552 H 618.532 -1.06403 -5.77886 0
M  V30 6553 H 620.056 -0.189772 -6.10305 0
M  V30 6554 H 621.47 -2.29618 -5.25308 0
M  V30 6555 H 619.867 -3.08062 -5.14993 0
M  V30 6556 H 620.937 -3.09062 -3.73642 0
M  V30 6557 N 622.28 1.30327 -0.886154 0
M  V30 6558 C 623.528 1.9571 -0.504195 0
M  V30 6559 C 623.849 1.70294 0.950003 0
M  V30 6560 O 623.119 1.02718 1.66811 0
M  V30 6561 H 621.699 0.72412 -0.183465 0
M  V30 6562 H 624.361 1.58835 -1.12949 0
M  V30 6563 H 623.457 3.04704 -0.675431 0
M  V30 6564 N 623.758 0.647228 1.43697 0
M  V30 6565 C 625.169 0.238689 1.85168 0
M  V30 6566 C 625.52 -1.21345 1.54175 0
M  V30 6567 O 624.645 -1.92542 0.987743 0
M  V30 6568 C 625.24 0.426422 3.36106 0
M  V30 6569 C 623.799 0.0722541 3.76331 0
M  V30 6570 C 622.946 0.732153 2.6746 0
M  V30 6571 H 625.897 0.851309 1.33934 0
M  V30 6572 H 625.918 -0.32987 3.79067 0
M  V30 6573 H 625.43 1.48339 3.58632 0
M  V30 6574 H 623.531 -0.982355 3.59417 0
M  V30 6575 H 623.644 0.493541 4.76551 0
M  V30 6576 H 622.008 0.16594 2.54159 0
M  V30 6577 H 622.791 1.79204 2.92816 0
M  V30 6578 N 625.236 -1.5273 0.388769 0
M  V30 6579 C 626.513 -1.93981 -0.251133 0
M  V30 6580 C 626.893 -1.32418 -1.64404 0
M  V30 6581 O 626.241 -0.492074 -2.23139 0
M  V30 6582 C 626.451 -3.47891 -0.27802 0
M  V30 6583 C 627.799 -4.21559 -0.507229 0
M  V30 6584 O 628.823 -3.54394 -0.358252 0
M  V30 6585 O 627.682 -5.40626 -0.799094 0
M  V30 6586 H 624.776 -0.812157 -0.15598 0
M  V30 6587 H 627.322 -1.63809 0.443237 0
M  V30 6588 H 626.094 -3.8503 0.697669 0
M  V30 6589 H 625.717 -3.84364 -1.01733 0
M  V30 6590 N 626.714 -0.118576 -1.57153 0
M  V30 6591 C 627.944 0.546466 -1.99242 0
M  V30 6592 C 628.352 1.60791 -0.997148 0
M  V30 6593 O 627.695 1.83691 0.0181745 0
M  V30 6594 C 627.757 1.23167 -3.37743 0
M  V30 6595 C 627.421 0.318226 -4.55891 0
M  V30 6596 C 628.418 -0.442988 -5.18009 0
M  V30 6597 C 626.103 0.229421 -5.01776 0
M  V30 6598 C 628.097 -1.28074 -6.244 0
M  V30 6599 C 625.784 -0.611966 -6.08028 0
M  V30 6600 C 626.782 -1.36568 -6.69207 0
M  V30 6601 O 626.47 -2.1931 -7.73407 0
M  V30 6602 H 626.202 0.149297 -0.659307 0
M  V30 6603 H 628.756 -0.201603 -2.04408 0
M  V30 6604 H 626.986 2.0268 -3.29329 0
M  V30 6605 H 628.675 1.79358 -3.64123 0
M  V30 6606 H 629.441 -0.38425 -4.83475 0
M  V30 6607 H 625.32 0.805771 -4.53903 0
M  V30 6608 H 628.864 -1.86952 -6.72082 0
M  V30 6609 H 624.761 -0.6721 -6.41991 0
M  V30 6610 H 625.529 -2.12247 -7.90502 0
M  V30 6611 N 628.193 1.56834 0.155195 0
M  V30 6612 C 629.14 1.97646 1.19184 0
M  V30 6613 C 630.11 0.842788 1.4313 0
M  V30 6614 O 631.295 1.1042 1.55602 0
M  V30 6615 C 628.435 2.35527 2.52232 0
M  V30 6616 C 627.548 3.62147 2.35529 0
M  V30 6617 C 626.683 3.89167 3.61555 0
M  V30 6618 C 625.722 5.09084 3.39853 0
M  V30 6619 N 624.859 5.32156 4.5799 0
M  V30 6620 H 629.699 2.8601 0.836802 0
M  V30 6621 H 627.236 1.41507 0.401758 0
M  V30 6622 H 629.194 2.55516 3.29799 0
M  V30 6623 H 627.824 1.50253 2.85699 0
M  V30 6624 H 626.876 3.4998 1.49057 0
M  V30 6625 H 628.188 4.49871 2.15448 0
M  V30 6626 H 627.342 4.09611 4.47553 0
M  V30 6627 H 626.081 2.9985 3.84632 0
M  V30 6628 H 625.086 4.88522 2.52243 0
M  V30 6629 H 626.311 5.99947 3.18183 0
M  V30 6630 H 624.257 4.45791 4.81255 0
M  V30 6631 H 624.174 6.14133 4.40882 0
M  V30 6632 H 625.442 5.57091 5.45225 0
M  V30 6633 N 629.671 -0.424282 1.51781 0
M  V30 6634 C 630.919 -1.17028 1.64769 0
M  V30 6635 C 631.24 -1.91409 0.372523 0
M  V30 6636 O 630.51 -1.86091 -0.612108 0
M  V30 6637 H 629.09 -0.434992 0.607282 0
M  V30 6638 H 631.752 -0.485169 1.88765 0
M  V30 6639 H 630.848 -1.8927 2.4816 0
M  V30 6640 N 631.149 -1.42148 -0.680565 0
M  V30 6641 C 632.389 -1.4379 -1.45271 0
M  V30 6642 C 632.753 -0.0504426 -1.91934 0
M  V30 6643 O 633.954 0.0583916 -2.68737 0
M  V30 6644 C 632.225 -2.42904 -2.62168 0
M  V30 6645 S 633.784 -2.63201 -3.51099 0
M  V30 6646 H 630.602 -0.509185 -0.496237 0
M  V30 6647 H 633.204 -1.78706 -0.792744 0
M  V30 6648 H 631.908 -3.4249 -2.26116 0
M  V30 6649 H 631.439 -2.09394 -3.33043 0
M  V30 6650 H 633.454 -1.91068 -4.57938 0
M  V30 6651 N 632.627 0.916307 -1.28225 0
M  V30 6652 C 633.557 2.0352 -1.14464 0
M  V30 6653 C 634.538 1.70045 -0.0430844 0
M  V30 6654 O 635.723 1.92954 -0.219619 0
M  V30 6655 C 632.853 3.37889 -0.803027 0
M  V30 6656 C 631.807 3.85516 -1.85908 0
M  V30 6657 C 631.133 5.1682 -1.37116 0
M  V30 6658 C 632.433 4.07655 -3.26519 0
M  V30 6659 H 634.127 2.1529 -2.08064 0
M  V30 6660 H 631.673 1.03446 -1.00174 0
M  V30 6661 H 633.626 4.15654 -0.693537 0
M  V30 6662 H 632.35 3.26164 0.168674 0
M  V30 6663 H 631.009 3.09953 -1.95767 0
M  V30 6664 H 630.657 5.01497 -0.38859 0
M  V30 6665 H 630.357 5.49657 -2.07728 0
M  V30 6666 H 631.881 5.97143 -1.27484 0
M  V30 6667 H 633.295 4.75953 -3.19596 0
M  V30 6668 H 631.692 4.51818 -3.94943 0
M  V30 6669 H 632.762 3.12553 -3.70727 0
M  V30 6670 N 634.105 1.10431 1.1244 0
M  V30 6671 C 635.354 0.841539 1.83306 0
M  V30 6672 C 635.667 -0.634961 1.85007 0
M  V30 6673 O 636.873 -1.01363 2.51869 0
M  V30 6674 C 635.329 1.45565 3.29149 0
M  V30 6675 C 634.937 2.96544 3.35806 0
M  V30 6676 C 636.681 1.27227 4.04986 0
M  V30 6677 C 634.588 3.5099 4.75983 0
M  V30 6678 H 633.518 0.311156 0.686803 0
M  V30 6679 H 636.169 1.32829 1.26604 0
M  V30 6680 H 634.551 0.896574 3.85717 0
M  V30 6681 H 635.725 3.58766 2.89177 0
M  V30 6682 H 634.04 3.14036 2.73442 0
M  V30 6683 H 636.637 1.65348 5.08492 0
M  V30 6684 H 636.98 0.213834 4.1575 0
M  V30 6685 H 637.513 1.79941 3.54776 0
M  V30 6686 H 634.252 4.56499 4.70413 0
M  V30 6687 H 633.772 2.93535 5.23065 0
M  V30 6688 H 635.451 3.48808 5.44924 0
M  V30 6689 N 635.583 -1.29855 0.893053 0
M  V30 6690 C 636.999 -1.48366 0.588199 0
M  V30 6691 C 637.199 -1.81654 -0.872018 0
M  V30 6692 O 636.255 -1.909 -1.65268 0
M  V30 6693 C 637.568 -2.60136 1.5083 0
M  V30 6694 C 639.116 -2.74014 1.51279 0
M  V30 6695 C 639.591 -3.88905 2.41902 0
M  V30 6696 N 641.082 -3.96228 2.39911 0
M  V30 6697 C 641.817 -4.84458 3.06738 0
M  V30 6698 N 641.313 -5.77426 3.8282 0
M  V30 6699 N 643.106 -4.77894 2.95929 0
M  V30 6700 H 635.257 -1.06522 1.83757 0
M  V30 6701 H 637.52 -0.528495 0.787018 0
M  V30 6702 H 637.226 -2.42383 2.54839 0
M  V30 6703 H 637.1 -3.56793 1.22388 0
M  V30 6704 H 639.487 -2.91167 0.480179 0
M  V30 6705 H 639.568 -1.77952 1.83757 0
M  V30 6706 H 639.212 -3.72508 3.45253 0
M  V30 6707 H 639.142 -4.84322 2.06737 0
M  V30 6708 H 641.633 -3.29728 1.84629 0
M  V30 6709 H 641.946 -6.41529 4.30883 0
M  V30 6710 H 640.291 -5.77332 3.86927 0
M  V30 6711 H 643.482 -4.04248 2.36012 0
M  V30 6712 H 643.655 -5.46444 3.48286 0
M  V30 6713 N 637.061 -0.65484 -1.43351 0
M  V30 6714 C 638.477 -0.32255 -1.56307 0
M  V30 6715 C 638.677 1.17324 -1.63821 0
M  V30 6716 O 637.733 1.95813 -1.59417 0
M  V30 6717 C 639.046 -1.03533 -2.82314 0
M  V30 6718 C 640.594 -1.01574 -2.9606 0
M  V30 6719 C 641.069 -1.70945 -4.24902 0
M  V30 6720 N 642.56 -1.67716 -4.3177 0
M  V30 6721 C 643.295 -2.18265 -5.30234 0
M  V30 6722 N 642.791 -2.7711 -6.34966 0
M  V30 6723 N 644.584 -2.08756 -5.21898 0
M  V30 6724 H 636.735 -1.62549 -1.36717 0
M  V30 6725 H 638.998 -0.683676 -0.656727 0
M  V30 6726 H 638.704 -2.09045 -2.8283 0
M  V30 6727 H 638.578 -0.587913 -3.7259 0
M  V30 6728 H 640.965 0.0309834 -2.95084 0
M  V30 6729 H 641.046 -1.50186 -2.07069 0
M  V30 6730 H 640.69 -2.75574 -4.26639 0
M  V30 6731 H 640.62 -1.19797 -5.12793 0
M  V30 6732 H 643.111 -1.24777 -3.56706 0
M  V30 6733 H 643.424 -3.13353 -7.06421 0
M  V30 6734 H 641.769 -2.81171 -6.35585 0
M  V30 6735 H 644.96 -1.62488 -4.38994 0
M  V30 6736 H 645.133 -2.48459 -5.98475 0
M  V30 6737 N 638.539 1.52521 -0.396863 0
M  V30 6738 C 639.764 2.06571 0.185258 0
M  V30 6739 C 640.189 1.26605 1.39115 0
M  V30 6740 O 639.547 0.293055 1.78916 0
M  V30 6741 C 639.595 3.5674 0.526189 0
M  V30 6742 O 638.699 3.7929 1.61903 0
M  V30 6743 H 638.04 0.663712 0.0195474 0
M  V30 6744 H 640.57 1.966 -0.566519 0
M  V30 6745 H 640.58 4.00311 0.788338 0
M  V30 6746 H 639.255 4.14379 -0.355397 0
M  V30 6747 H 637.832 3.47605 1.35 0
M  V30 6748 N 640.017 0.126909 1.57088 0
M  V30 6749 C 641.428 -0.397201 1.82426 0
M  V30 6750 C 641.779 -1.66084 1.04453 0
M  V30 6751 O 640.904 -2.14534 0.283552 0
M  V30 6752 C 641.499 -0.727411 3.30899 0
M  V30 6753 C 640.058 -1.19612 3.56889 0
M  V30 6754 C 639.205 -0.20885 2.76512 0
M  V30 6755 H 642.156 0.351924 1.54749 0
M  V30 6756 H 642.177 -1.58407 3.45959 0
M  V30 6757 H 641.689 0.19247 3.87622 0
M  V30 6758 H 639.79 -2.13263 3.05532 0
M  V30 6759 H 639.903 -1.13598 4.65438 0
M  V30 6760 H 638.267 -0.697479 2.44964 0
M  V30 6761 H 639.05 0.704267 3.35998 0
M  V30 6762 N 641.495 -1.56914 -0.146875 0
M  V30 6763 C 642.723 -1.87515 -0.874394 0
M  V30 6764 C 643.138 -0.715116 -1.74733 0
M  V30 6765 O 642.495 0.315113 -1.79759 0
M  V30 6766 C 642.546 -3.17362 -1.731 0
M  V30 6767 O 642.267 -4.28897 -0.893245 0
M  V30 6768 C 643.768 -3.61479 -2.56609 0
M  V30 6769 H 640.988 -0.621546 -0.252827 0
M  V30 6770 H 643.532 -2.04023 -0.139627 0
M  V30 6771 H 641.687 -3.02608 -2.41883 0
M  V30 6772 H 642.101 -5.03146 -1.48137 0
M  V30 6773 H 643.575 -4.5517 -3.12289 0
M  V30 6774 H 644.052 -2.86773 -3.32653 0
M  V30 6775 H 644.658 -3.78927 -1.93117 0
M  V30 6776 N 642.974 0.416227 -1.52004 0
M  V30 6777 C 644.222 1.16153 -1.65387 0
M  V30 6778 C 644.543 1.91208 -0.382669 0
M  V30 6779 O 643.813 1.86413 0.602231 0
M  V30 6780 H 642.393 0.431765 -0.60958 0
M  V30 6781 H 645.055 0.475151 -1.89019 0
M  V30 6782 H 644.151 1.87952 -2.4916 0
M  V30 6783 N 644.452 1.42507 0.673017 0
M  V30 6784 C 645.68 1.46473 1.46128 0
M  V30 6785 C 646.095 0.0765912 1.88645 0
M  V30 6786 O 645.452 -0.909057 1.58248 0
M  V30 6787 C 645.503 2.39339 2.70923 0
M  V30 6788 O 645.224 3.72752 2.3019 0
M  V30 6789 C 646.725 2.52343 3.64469 0
M  V30 6790 H 643.945 0.49812 0.449575 0
M  V30 6791 H 646.489 1.87041 0.826802 0
M  V30 6792 H 644.644 2.02019 3.30556 0
M  V30 6793 H 645.058 4.22503 3.10791 0
M  V30 6794 H 646.532 3.2144 4.48754 0
M  V30 6795 H 647.009 1.56189 4.1049 0
M  V30 6796 H 647.615 2.90392 3.10729 0
M  V30 6797 N 645.93 -0.909495 1.28709 0
M  V30 6798 C 647.177 -1.65905 1.16111 0
M  V30 6799 C 647.505 -1.92334 -0.289436 0
M  V30 6800 O 646.76 -1.52495 -1.22653 0
M  V30 6801 C 647.059 -3.02117 1.90945 0
M  V30 6802 C 646.725 -2.95332 3.40719 0
M  V30 6803 C 645.387 -2.93189 3.81567 0
M  V30 6804 C 647.739 -2.85264 4.36204 0
M  V30 6805 C 645.067 -2.78784 5.16233 0
M  V30 6806 C 647.419 -2.724 5.70948 0
M  V30 6807 C 646.083 -2.68617 6.11066 0
M  V30 6808 H 645.353 -0.60709 0.42488 0
M  V30 6809 H 648 -1.05932 1.59533 0
M  V30 6810 H 646.305 -3.65901 1.40085 0
M  V30 6811 H 648.002 -3.59026 1.7861 0
M  V30 6812 H 644.592 -2.97797 3.08245 0
M  V30 6813 H 648.776 -2.86005 4.05605 0
M  V30 6814 H 644.032 -2.74254 5.46438 0
M  V30 6815 H 648.206 -2.63579 6.44592 0
M  V30 6816 H 645.833 -2.57213 7.15364 0
M  V30 6817 N 647.408 -1.11026 -1.11852 0
M  V30 6818 C 648.338 -0.786812 -2.19844 0
M  V30 6819 C 649.319 0.242935 -1.68356 0
M  V30 6820 O 650.504 0.107355 -1.93903 0
M  V30 6821 C 647.634 -0.224516 -3.46574 0
M  V30 6822 C 646.588 -1.18564 -4.1125 0
M  V30 6823 C 645.914 -0.484261 -5.32503 0
M  V30 6824 C 647.214 -2.53465 -4.56676 0
M  V30 6825 H 648.908 -1.68978 -2.47158 0
M  V30 6826 H 646.454 -0.813906 -1.18792 0
M  V30 6827 H 648.407 0.0139435 -4.21398 0
M  V30 6828 H 647.131 0.713722 -3.18706 0
M  V30 6829 H 645.79 -1.40966 -3.38414 0
M  V30 6830 H 645.438 0.458646 -5.00905 0
M  V30 6831 H 645.138 -1.12526 -5.76725 0
M  V30 6832 H 646.662 -0.254492 -6.10069 0
M  V30 6833 H 648.076 -2.35177 -5.22843 0
M  V30 6834 H 646.473 -3.13507 -5.11697 0
M  V30 6835 H 647.543 -3.13008 -3.70343 0
M  V30 6836 N 648.886 1.2938 -0.899927 0
M  V30 6837 C 649.816 2.30144 -0.39446 0
M  V30 6838 C 650.797 1.61611 0.530639 0
M  V30 6839 O 651.982 1.89119 0.441319 0
M  V30 6840 C 649.112 3.45229 0.37868 0
M  V30 6841 C 648.066 4.25564 -0.456012 0
M  V30 6842 C 647.392 5.32848 0.444637 0
M  V30 6843 C 648.692 4.93651 -1.70605 0
M  V30 6844 H 650.386 2.72673 -1.23653 0
M  V30 6845 H 647.932 1.31086 -0.596034 0
M  V30 6846 H 649.885 4.14797 0.743037 0
M  V30 6847 H 648.609 3.01545 1.25453 0
M  V30 6848 H 647.268 3.57704 -0.802704 0
M  V30 6849 H 646.916 4.85408 1.31863 0
M  V30 6850 H 646.616 5.87497 -0.110154 0
M  V30 6851 H 648.14 6.05268 0.805182 0
M  V30 6852 H 649.554 5.55655 -1.41141 0
M  V30 6853 H 647.951 5.58233 -2.20217 0
M  V30 6854 H 649.021 4.18926 -2.4419 0
M  V30 6855 N 650.364 0.662433 1.43002 0
M  V30 6856 C 651.61 0.179857 2.02001 0
M  V30 6857 C 651.943 -1.20625 1.52195 0
M  V30 6858 O 651.218 -1.80726 0.718911 0
M  V30 6859 C 651.501 0.200845 3.59539 0
M  V30 6860 C 651.354 1.62153 4.19555 0
M  V30 6861 C 652.673 -0.457738 4.37713 0
M  V30 6862 H 649.792 0.0668305 0.733964 0
M  V30 6863 H 652.434 0.84487 1.70182 0
M  V30 6864 H 650.584 -0.365411 3.86778 0
M  V30 6865 H 652.256 2.23908 4.03315 0
M  V30 6866 H 650.499 2.16601 3.75854 0
M  V30 6867 H 651.17 1.58799 5.28665 0
M  V30 6868 H 653.646 0.0241495 4.16093 0
M  V30 6869 H 652.522 -0.412363 5.47349 0
M  V30 6870 H 652.783 -1.53336 4.14657 0
M  V30 6871 N 651.842 -1.52309 0.404946 0
M  V30 6872 C 653.09 -2.01368 -0.17186 0
M  V30 6873 C 653.411 -1.29261 -1.46002 0
M  V30 6874 O 652.681 -0.41729 -1.91404 0
M  V30 6875 H 651.261 -0.744034 -0.0664993 0
M  V30 6876 H 653.923 -1.87263 0.540228 0
M  V30 6877 H 653.019 -3.09888 -0.370957 0
M  V30 6878 N 653.32 -0.135238 -1.57019 0
M  V30 6879 C 654.25 0.805235 -2.19176 0
M  V30 6880 C 655.231 1.2656 -1.13651 0
M  V30 6881 O 656.416 1.32528 -1.4195 0
M  V30 6882 C 653.546 2.04914 -2.80406 0
M  V30 6883 C 652.5 1.72598 -3.91655 0
M  V30 6884 C 651.826 3.04154 -4.39766 0
M  V30 6885 C 653.126 0.981709 -5.12991 0
M  V30 6886 H 654.82 0.287232 -2.98019 0
M  V30 6887 H 652.366 0.136714 -1.4335 0
M  V30 6888 H 654.319 2.71178 -3.22553 0
M  V30 6889 H 653.043 2.59067 -1.98877 0
M  V30 6890 H 651.702 1.08717 -3.50109 0
M  V30 6891 H 651.35 3.56274 -3.55075 0
M  V30 6892 H 651.05 2.83299 -5.14796 0
M  V30 6893 H 652.574 3.71509 -4.84576 0
M  V30 6894 H 653.988 1.5462 -5.52056 0
M  V30 6895 H 652.385 0.873533 -5.93708 0
M  V30 6896 H 653.455 -0.0286887 -4.84892 0
M  V30 6897 N 654.798 1.5699 0.138552 0
M  V30 6898 C 656.023 1.88344 0.86841 0
M  V30 6899 C 656.448 0.725159 1.7356 0
M  V30 6900 O 655.806 -0.324992 1.78363 0
M  V30 6901 C 655.854 3.18334 1.69398 0
M  V30 6902 O 654.958 3.02863 2.79907 0
M  V30 6903 H 654.299 0.618577 0.241367 0
M  V30 6904 H 656.829 2.04207 0.126826 0
M  V30 6905 H 656.839 3.50567 2.08726 0
M  V30 6906 H 655.514 4.02238 1.05725 0
M  V30 6907 H 654.091 2.82056 2.43924 0
M  V30 6908 N 656.276 -0.40816 1.52223 0
M  V30 6909 C 657.692 -0.74685 1.41047 0
M  V30 6910 C 657.892 -1.94788 0.51573 0
M  V30 6911 O 656.948 -2.52494 -0.0181156 0
M  V30 6912 C 658.261 -0.999878 2.83589 0
M  V30 6913 C 659.809 -1.10253 2.92939 0
M  V30 6914 C 660.284 -1.38832 4.36451 0
M  V30 6915 N 661.775 -1.45694 4.3969 0
M  V30 6916 C 662.51 -1.69435 5.47795 0
M  V30 6917 N 662.006 -1.90774 6.66016 0
M  V30 6918 N 663.799 -1.71458 5.35312 0
M  V30 6919 H 655.95 0.382409 2.08929 0
M  V30 6920 H 658.213 0.108807 0.941735 0
M  V30 6921 H 657.919 -0.189723 3.51188 0
M  V30 6922 H 657.793 -1.91978 3.24691 0
M  V30 6923 H 660.18 -1.90328 2.2552 0
M  V30 6924 H 660.261 -0.160973 2.55293 0
M  V30 6925 H 659.905 -0.592741 5.04429 0
M  V30 6926 H 659.835 -2.34241 4.71634 0
M  V30 6927 H 662.326 -1.3099 3.54472 0
M  V30 6928 H 662.639 -2.08342 7.44186 0
M  V30 6929 H 660.984 -1.88037 6.69079 0
M  V30 6930 H 664.175 -1.54326 4.41929 0
M  V30 6931 H 664.348 -1.89621 6.19635 0
M  V30 6932 N 657.755 -1.42862 -0.66545 0
M  V30 6933 C 659.166 -1.3901 -1.24632 0
M  V30 6934 C 659.517 -0.0880285 -1.96002 0
M  V30 6935 O 658.642 0.812947 -2.0055 0
M  V30 6936 C 659.237 -2.51806 -2.2667 0
M  V30 6937 C 657.796 -2.51257 -2.80262 0
M  V30 6938 C 656.943 -2.30124 -1.5472 0
M  V30 6939 H 659.894 -1.5194 -0.458237 0
M  V30 6940 H 659.915 -2.22593 -3.08598 0
M  V30 6941 H 659.427 -3.46558 -1.74697 0
M  V30 6942 H 657.528 -1.60349 -3.36332 0
M  V30 6943 H 657.641 -3.48614 -3.28641 0
M  V30 6944 H 656.005 -1.7856 -1.81627 0
M  V30 6945 H 656.788 -3.26945 -1.04699 0
M  V30 6946 N 659.233 0.902656 -1.29189 0
M  V30 6947 C 660.183 1.99326 -1.10695 0
M  V30 6948 C 661.167 1.60877 -0.0272521 0
M  V30 6949 O 662.359 1.75245 -0.248635 0
M  V30 6950 C 659.488 3.34265 -0.78244 0
M  V30 6951 C 658.574 3.79081 -1.90153 0
M  V30 6952 N 658.965 3.96162 -3.14466 0
M  V30 6953 C 657.263 4.08333 -1.79389 0
M  V30 6954 C 657.964 4.3388 -3.87458 0
M  V30 6955 N 656.94 4.42759 -3.15381 0
M  V30 6956 H 660.742 2.10597 -2.05003 0
M  V30 6957 H 658.256 1.09127 -1.20271 0
M  V30 6958 H 660.253 4.12097 -0.630996 0
M  V30 6959 H 658.913 3.2434 0.152754 0
M  V30 6960 H 659.924 3.81775 -3.49954 0
M  V30 6961 H 656.601 4.06982 -0.931217 0
M  V30 6962 H 657.991 4.54965 -4.94425 0
M  V30 6963 N 660.711 1.11618 1.11262 0
M  V30 6964 C 661.936 0.889013 1.8738 0
M  V30 6965 C 662.361 -0.555884 1.79698 0
M  V30 6966 O 661.719 -1.39272 1.16073 0
M  V30 6967 C 661.767 1.35759 3.34069 0
M  V30 6968 O 660.871 0.530499 4.08974 0
M  V30 6969 H 660.212 0.320082 0.581759 0
M  V30 6970 H 662.742 1.48611 1.40627 0
M  V30 6971 H 662.752 1.35291 3.84916 0
M  V30 6972 H 661.427 2.40973 3.38976 0
M  V30 6973 H 660.004 0.601439 3.68018 0
M  V30 6974 N 662.189 -1.289 0.906776 0
M  V30 6975 C 663.414 -1.99939 0.551303 0
M  V30 6976 C 663.839 -1.67366 -0.858496 0
M  V30 6977 O 663.197 -0.902176 -1.57259 0
M  V30 6978 C 663.245 -3.52523 0.758937 0
M  V30 6979 O 662.349 -4.11983 -0.185308 0
M  V30 6980 H 661.69 -0.628376 0.214568 0
M  V30 6981 H 664.22 -1.64225 1.2203 0
M  V30 6982 H 664.23 -4.02522 0.666329 0
M  V30 6983 H 662.905 -3.75566 1.78671 0
M  V30 6984 H 661.482 -3.72873 -0.0445577 0
M  V30 6985 N 663.667 -0.670007 -1.42649 0
M  V30 6986 C 664.597 -0.00258501 -2.335 0
M  V30 6987 C 665.578 0.794364 -1.50412 0
M  V30 6988 O 666.763 0.75248 -1.79029 0
M  V30 6989 C 663.893 0.952748 -3.33976 0
M  V30 6990 C 662.847 0.264733 -4.2718 0
M  V30 6991 C 662.173 1.33267 -5.17826 0
M  V30 6992 C 663.473 -0.853289 -5.15283 0
M  V30 6993 H 665.167 -0.761326 -2.89559 0
M  V30 6994 H 662.713 -0.367561 -1.3923 0
M  V30 6995 H 664.666 1.4287 -3.96442 0
M  V30 6996 H 663.39 1.74285 -2.7621 0
M  V30 6997 H 662.049 -0.190938 -3.66102 0
M  V30 6998 H 661.697 2.11464 -4.5639 0
M  V30 6999 H 661.397 0.877476 -5.81011 0
M  V30 7000 H 662.921 1.80965 -5.83167 0
M  V30 7001 H 664.335 -0.458763 -5.71462 0
M  V30 7002 H 662.732 -1.23398 -5.87276 0
M  V30 7003 H 663.802 -1.70412 -4.53969 0
M  V30 7004 N 665.145 1.52092 -0.413018 0
M  V30 7005 C 666.561 1.59471 -0.0640836 0
M  V30 7006 C 666.761 1.42562 1.42402 0
M  V30 7007 O 665.817 1.25453 2.19129 0
M  V30 7008 C 667.13 2.95392 -0.562474 0
M  V30 7009 C 668.678 3.08637 -0.520788 0
M  V30 7010 C 669.153 4.47044 -0.995752 0
M  V30 7011 N 670.644 4.53296 -0.952732 0
M  V30 7012 C 671.379 5.58669 -1.29138 0
M  V30 7013 N 670.875 6.71576 -1.70168 0
M  V30 7014 N 672.668 5.48898 -1.2111 0
M  V30 7015 H 664.819 1.6133 -1.38153 0
M  V30 7016 H 667.082 0.75916 -0.567785 0
M  V30 7017 H 666.788 3.13059 -1.60271 0
M  V30 7018 H 666.662 3.77191 0.0257875 0
M  V30 7019 H 669.049 2.90652 0.510412 0
M  V30 7020 H 669.13 2.28735 -1.14515 0
M  V30 7021 H 668.774 4.65773 -2.0253 0
M  V30 7022 H 668.704 5.25448 -0.348162 0
M  V30 7023 H 671.195 3.72248 -0.651119 0
M  V30 7024 H 671.508 7.47973 -1.9431 0
M  V30 7025 H 669.853 6.72847 -1.74075 0
M  V30 7026 H 673.044 4.59573 -0.889396 0
M  V30 7027 H 673.217 6.30912 -1.47833 0
M  V30 7028 N 666.623 0.143563 1.56945 0
M  V30 7029 C 667.533 -0.810562 2.20152 0
M  V30 7030 C 668.549 -1.27431 1.1848 0
M  V30 7031 O 669.725 -1.33221 1.51044 0
M  V30 7032 C 666.79 -2.03353 2.80799 0
M  V30 7033 C 665.851 -1.61936 3.97587 0
M  V30 7034 C 665.084 -2.78403 4.55332 0
M  V30 7035 O 665.307 -3.94521 4.11958 0
M  V30 7036 O 664.241 -2.54073 5.45647 0
M  V30 7037 H 668.067 -0.30253 3.02189 0
M  V30 7038 H 665.652 -0.0832925 1.49168 0
M  V30 7039 H 667.534 -2.74932 3.19359 0
M  V30 7040 H 666.209 -2.53116 2.01777 0
M  V30 7041 H 665.116 -0.873904 3.6375 0
M  V30 7042 H 666.449 -1.16892 4.78118 0
M  V30 7043 N 668.101 -1.57061 -0.130224 0
M  V30 7044 C 669.031 -2.02552 -1.16168 0
M  V30 7045 C 670.012 -0.907971 -1.4384 0
M  V30 7046 O 671.197 -1.17693 -1.54473 0
M  V30 7047 C 668.327 -2.42035 -2.49071 0
M  V30 7048 C 667.281 -3.5713 -2.35886 0
M  V30 7049 C 666.607 -3.82478 -3.7365 0
M  V30 7050 C 667.907 -4.89236 -1.8288 0
M  V30 7051 H 669.601 -2.8897 -0.783359 0
M  V30 7052 H 667.147 -1.39021 -0.375376 0
M  V30 7053 H 669.1 -2.72462 -3.21469 0
M  V30 7054 H 667.824 -1.52573 -2.88771 0
M  V30 7055 H 666.483 -3.26895 -1.65938 0
M  V30 7056 H 666.131 -2.9024 -4.10816 0
M  V30 7057 H 665.831 -4.59944 -3.65685 0
M  V30 7058 H 667.355 -4.15347 -4.47571 0
M  V30 7059 H 668.769 -5.18272 -2.45085 0
M  V30 7060 H 667.166 -5.70624 -1.85763 0
M  V30 7061 H 668.236 -4.78494 -0.785571 0
M  V30 7062 N 669.579 0.400081 -1.52437 0
M  V30 7063 C 670.509 1.4947 -1.7939 0
M  V30 7064 C 671.49 1.57383 -0.645329 0
M  V30 7065 O 672.675 1.72511 -0.891826 0
M  V30 7066 C 669.805 2.87201 -1.95276 0
M  V30 7067 C 668.759 2.94134 -3.10917 0
M  V30 7068 C 668.085 4.34207 -3.1204 0
M  V30 7069 C 669.385 2.64791 -4.50203 0
M  V30 7070 H 671.079 1.27165 -2.71052 0
M  V30 7071 H 668.625 0.610312 -1.30427 0
M  V30 7072 H 670.578 3.63772 -2.12715 0
M  V30 7073 H 669.302 3.10819 -1.00294 0
M  V30 7074 H 667.961 2.20009 -2.93243 0
M  V30 7075 H 667.609 4.54848 -2.14761 0
M  V30 7076 H 667.309 4.39768 -3.89715 0
M  V30 7077 H 668.833 5.127 -3.31619 0
M  V30 7078 H 670.247 3.31083 -4.68035 0
M  V30 7079 H 668.644 2.81717 -5.29864 0
M  V30 7080 H 669.714 1.60184 -4.57678 0
M  V30 7081 N 671.057 1.43213 0.657864 0
M  V30 7082 C 672.02 1.47687 1.75275 0
M  V30 7083 C 673.02 0.362179 1.56668 0
M  V30 7084 O 674.21 0.623734 1.62651 0
M  V30 7085 C 671.342 1.32497 3.14098 0
M  V30 7086 H 672.535 2.4519 1.7269 0
M  V30 7087 H 670.088 1.2991 0.869087 0
M  V30 7088 H 670.823 0.359831 3.22298 0
M  V30 7089 H 670.608 2.13299 3.29008 0
M  V30 7090 H 672.098 1.38549 3.93946 0
M  V30 7091 N 672.536 -0.895792 1.29666 0
M  V30 7092 C 673.764 -1.68001 1.20761 0
M  V30 7093 C 674.179 -1.87379 -0.231187 0
M  V30 7094 O 673.536 -1.41359 -1.15429 0
M  V30 7095 C 673.587 -3.06236 1.92098 0
M  V30 7096 O 673.308 -2.8774 3.30359 0
M  V30 7097 C 674.809 -4.00652 1.89717 0
M  V30 7098 H 672.029 -0.524591 0.418384 0
M  V30 7099 H 674.573 -1.11995 1.71106 0
M  V30 7100 H 672.728 -3.59007 1.45578 0
M  V30 7101 H 673.142 -3.75359 3.66342 0
M  V30 7102 H 674.616 -4.95051 2.44189 0
M  V30 7103 H 675.093 -4.30424 0.873595 0
M  V30 7104 H 675.699 -3.53815 2.35998 0
M  V30 7105 N 674.014 -1.12206 -1.10668 0
M  V30 7106 C 675.254 -0.885935 -1.84202 0
M  V30 7107 C 675.618 0.577849 -1.83098 0
M  V30 7108 O 676.819 0.931051 -2.5216 0
M  V30 7109 C 675.09 -1.44197 -3.2702 0
M  V30 7110 S 676.649 -1.34402 -4.1771 0
M  V30 7111 H 673.467 -0.319653 -0.635093 0
M  V30 7112 H 676.069 -1.43112 -1.33189 0
M  V30 7113 H 674.773 -2.50096 -3.25392 0
M  V30 7114 H 674.304 -0.894173 -3.83103 0
M  V30 7115 H 676.319 -0.313873 -4.95206 0
M  V30 7116 N 675.492 1.28418 -0.913599 0
M  V30 7117 C 676.738 1.95627 -0.556933 0
M  V30 7118 C 677.093 1.706 0.889565 0
M  V30 7119 O 676.386 1.01637 1.6242 0
M  V30 7120 C 676.58 3.48283 -0.802099 0
M  V30 7121 C 676.409 3.88151 -2.27088 0
M  V30 7122 C 675.179 4.1232 -2.92096 0
M  V30 7123 C 677.377 3.98819 -3.24728 0
M  V30 7124 N 675.359 4.3886 -4.29272 0
M  V30 7125 C 676.73 4.29571 -4.47067 0
M  V30 7126 C 678.785 3.81342 -3.20129 0
M  V30 7127 C 677.488 4.44667 -5.65388 0
M  V30 7128 C 679.514 3.97656 -4.37749 0
M  V30 7129 C 678.876 4.2878 -5.58862 0
M  V30 7130 H 674.975 0.739715 -0.253664 0
M  V30 7131 H 677.559 1.55074 -1.1773 0
M  V30 7132 H 675.73 3.87826 -0.211007 0
M  V30 7133 H 677.462 4.02623 -0.409478 0
M  V30 7134 H 674.217 4.06611 -2.42826 0
M  V30 7135 H 674.641 4.56214 -5.00198 0
M  V30 7136 H 679.283 3.56331 -2.2757 0
M  V30 7137 H 677.001 4.68509 -6.58426 0
M  V30 7138 H 680.587 3.85569 -4.35692 0
M  V30 7139 H 679.467 4.41136 -6.48359 0
M  V30 7140 N 676.97 0.677563 1.42291 0
M  V30 7141 C 678.247 0.129803 1.95169 0
M  V30 7142 C 678.627 -1.35605 1.61786 0
M  V30 7143 O 677.975 -2.09361 0.915444 0
M  V30 7144 C 678.185 0.401889 3.46678 0
M  V30 7145 C 679.533 0.319889 4.23393 0
M  V30 7146 O 680.557 0.33579 3.54614 0
M  V30 7147 O 679.416 0.264459 5.4586 0
M  V30 7148 H 676.51 0.00447433 0.826988 0
M  V30 7149 H 679.056 0.752483 1.52105 0
M  V30 7150 H 677.828 1.43108 3.64192 0
M  V30 7151 H 677.451 -0.252662 3.96796 0
M  V30 7152 N 678.448 -1.51871 0.421078 0
M  V30 7153 C 679.696 -2.01539 -0.150492 0
M  V30 7154 C 680.017 -1.30803 -1.44623 0
M  V30 7155 O 679.287 -0.437568 -1.90951 0
M  V30 7156 H 677.867 -0.744698 -0.0586041 0
M  V30 7157 H 680.529 -1.8668 0.560059 0
M  V30 7158 H 679.625 -3.10264 -0.338068 0
M  V30 7159 N 679.926 -0.151884 -1.56866 0
M  V30 7160 C 681.174 0.497021 -1.95893 0
M  V30 7161 C 681.495 1.65078 -1.03799 0
M  V30 7162 O 680.765 1.95642 -0.10049 0
M  V30 7163 H 679.345 0.186603 -0.723318 0
M  V30 7164 H 682.007 -0.228525 -1.93556 0
M  V30 7165 H 681.103 0.869933 -2.99731 0
M  V30 7166 N 681.404 1.57128 0.121893 0
M  V30 7167 C 682.334 2.03165 1.15092 0
M  V30 7168 C 683.315 0.915587 1.43356 0
M  V30 7169 O 684.5 1.1851 1.53847 0
M  V30 7170 C 681.63 2.43352 2.47784 0
M  V30 7171 C 680.584 3.58376 2.33989 0
M  V30 7172 C 679.91 3.84454 3.71617 0
M  V30 7173 C 681.21 4.90199 1.80283 0
M  V30 7174 H 682.904 2.89382 0.768023 0
M  V30 7175 H 680.45 1.39218 0.367998 0
M  V30 7176 H 682.403 2.74163 3.20019 0
M  V30 7177 H 681.127 1.54103 2.87958 0
M  V30 7178 H 679.786 3.2777 1.64202 0
M  V30 7179 H 679.434 2.92414 4.09271 0
M  V30 7180 H 679.134 4.61877 3.6324 0
M  V30 7181 H 680.658 4.17714 4.45362 0
M  V30 7182 H 682.072 5.19565 2.42333 0
M  V30 7183 H 680.469 5.71601 1.82735 0
M  V30 7184 H 681.539 4.78904 0.760184 0
M  V30 7185 N 682.882 -0.391992 1.52647 0
M  V30 7186 C 683.832 -1.47815 1.73594 0
M  V30 7187 C 684.816 -1.49693 0.589979 0
M  V30 7188 O 686.008 -1.5538 0.847701 0
M  V30 7189 C 683.137 -2.85561 1.90551 0
M  V30 7190 C 682.223 -2.88264 3.1107 0
M  V30 7191 N 682.614 -2.60642 4.33474 0
M  V30 7192 C 680.912 -3.19432 3.11254 0
M  V30 7193 C 681.613 -2.70351 5.15058 0
M  V30 7194 N 680.589 -3.03956 4.50679 0
M  V30 7195 H 684.391 -1.2528 2.65861 0
M  V30 7196 H 681.905 -0.599907 1.50913 0
M  V30 7197 H 683.902 -3.63759 2.03678 0
M  V30 7198 H 682.562 -3.09081 0.994952 0
M  V30 7199 H 683.573 -2.34718 4.61658 0
M  V30 7200 H 680.25 -3.48436 2.29997 0
M  V30 7201 H 681.64 -2.52565 6.22624 0
M  V30 7202 N 684.36 -1.4356 -0.65026 0
M  V30 7203 C 685.606 -1.45549 -1.41221 0
M  V30 7204 C 685.939 -0.0805472 -1.94033 0
M  V30 7205 O 685.214 0.899043 -1.72475 0
M  V30 7206 C 685.497 -2.50028 -2.59148 0
M  V30 7207 C 685.35 -3.96808 -2.1181 0
M  V30 7208 C 686.669 -2.51212 -3.61359 0
M  V30 7209 H 683.788 -0.529967 -0.512156 0
M  V30 7210 H 686.43 -1.75127 -0.736933 0
M  V30 7211 H 684.58 -2.24937 -3.16758 0
M  V30 7212 H 686.252 -4.32966 -1.59178 0
M  V30 7213 H 684.495 -4.09498 -1.43156 0
M  V30 7214 H 685.166 -4.6553 -2.96625 0
M  V30 7215 H 687.642 -2.73583 -3.13515 0
M  V30 7216 H 686.518 -3.26252 -4.41419 0
M  V30 7217 H 686.779 -1.54701 -4.1415 0
M  V30 7218 N 685.838 0.888903 -1.30139 0
M  V30 7219 C 687.115 1.62145 -1.094 0
M  V30 7220 C 687.495 2.08041 0.358091 0
M  V30 7221 O 686.843 1.84438 1.34888 0
M  V30 7222 C 687.053 2.794 -2.09133 0
M  V30 7223 C 688.401 3.49826 -2.40638 0
M  V30 7224 O 689.425 2.89583 -2.07412 0
M  V30 7225 O 688.284 4.58457 -2.97455 0
M  V30 7226 H 685.378 0.712475 -0.41989 0
M  V30 7227 H 687.924 0.936023 -1.41551 0
M  V30 7228 H 686.696 2.42762 -3.06891 0
M  V30 7229 H 686.319 3.55643 -1.77776 0
M  V30 7230 N 687.317 1.12792 1.10072 0
M  V30 7231 C 688.565 0.883796 1.81751 0
M  V30 7232 C 688.886 -0.591891 1.858 0
M  V30 7233 O 688.156 -1.43017 1.33876 0
M  V30 7234 H 686.736 0.323978 0.673088 0
M  V30 7235 H 689.398 1.42314 1.33164 0
M  V30 7236 H 688.494 1.26863 2.85153 0
M  V30 7237 N 688.795 -1.27931 0.920396 0
M  V30 7238 C 690.041 -1.94977 0.557832 0
M  V30 7239 C 690.374 -1.72224 -0.897365 0
M  V30 7240 O 689.649 -1.04705 -1.63912 0
M  V30 7241 C 689.932 -3.49289 0.875741 0
M  V30 7242 C 689.785 -3.81416 2.38416 0
M  V30 7243 C 691.104 -4.38486 0.376517 0
M  V30 7244 H 688.223 -0.708164 0.20414 0
M  V30 7245 H 690.865 -1.5118 1.15085 0
M  V30 7246 H 689.015 -3.86724 0.371062 0
M  V30 7247 H 690.687 -3.53813 2.95997 0
M  V30 7248 H 688.93 -3.28225 2.83639 0
M  V30 7249 H 689.601 -4.89198 2.55713 0
M  V30 7250 H 692.077 -4.08161 0.808945 0
M  V30 7251 H 690.953 -5.45296 0.627976 0
M  V30 7252 H 691.214 -4.36143 -0.723293 0
M  V30 7253 N 690.273 -0.685099 -1.4193 0
M  V30 7254 C 691.236 -0.0222632 -2.29189 0
M  V30 7255 C 692.236 0.7186 -1.4385 0
M  V30 7256 O 693.426 0.555058 -1.6512 0
M  V30 7257 C 690.558 0.979013 -3.2654 0
M  V30 7258 H 691.751 -0.790424 -2.89296 0
M  V30 7259 H 689.304 -0.448012 -1.49742 0
M  V30 7260 H 690.039 1.77531 -2.71392 0
M  V30 7261 H 689.824 0.451037 -3.89497 0
M  V30 7262 H 691.314 1.44091 -3.91954 0
M  V30 7263 N 691.751 1.51645 -0.429126 0
M  V30 7264 C 692.997 2.02314 0.140286 0
M  V30 7265 C 693.33 1.31314 1.43074 0
M  V30 7266 O 692.605 0.425531 1.89788 0
M  V30 7267 C 692.888 3.5822 0.36749 0
M  V30 7268 C 692.741 4.39846 -0.941039 0
M  V30 7269 C 694.06 4.25055 1.14089 0
M  V30 7270 H 691.179 0.735335 0.0495112 0
M  V30 7271 H 693.821 1.81358 -0.566514 0
M  V30 7272 H 691.971 3.76207 0.969556 0
M  V30 7273 H 693.643 4.33527 -1.57646 0
M  V30 7274 H 691.886 4.05259 -1.54751 0
M  V30 7275 H 692.557 5.47069 -0.73621 0
M  V30 7276 H 695.033 4.11288 0.630986 0
M  V30 7277 H 693.909 5.34038 1.26863 0
M  V30 7278 H 694.17 3.85358 2.16683 0
M  V30 7279 N 693.229 0.160201 1.56784 0
M  V30 7280 C 694.457 -0.494165 2.00912 0
M  V30 7281 C 694.872 -1.57548 1.04038 0
M  V30 7282 O 694.229 -1.82457 0.0394581 0
M  V30 7283 C 694.28 -1.08271 3.44905 0
M  V30 7284 O 694.001 -0.0445704 4.38077 0
M  V30 7285 C 695.502 -1.8164 4.04378 0
M  V30 7286 H 692.722 -0.127498 0.658776 0
M  V30 7287 H 695.266 0.258665 2.02858 0
M  V30 7288 H 693.421 -1.78609 3.4377 0
M  V30 7289 H 693.835 -0.477544 5.22322 0
M  V30 7290 H 695.309 -2.18094 5.07089 0
M  V30 7291 H 695.786 -2.70727 3.45838 0
M  V30 7292 H 696.392 -1.15969 4.09184 0
M  V30 7293 N 694.707 -1.5719 -0.113559 0
M  V30 7294 C 695.637 -2.03772 -1.14013 0
M  V30 7295 C 696.618 -0.923176 -1.42869 0
M  V30 7296 O 697.803 -1.19325 -1.53216 0
M  V30 7297 C 694.933 -2.44663 -2.4649 0
M  V30 7298 C 693.887 -3.59612 -2.32085 0
M  V30 7299 C 693.213 -3.8642 -3.69573 0
M  V30 7300 C 694.513 -4.91149 -1.7768 0
M  V30 7301 H 696.207 -2.89785 -0.752665 0
M  V30 7302 H 693.753 -1.39412 -0.360609 0
M  V30 7303 H 695.706 -2.75857 -3.18561 0
M  V30 7304 H 694.43 -1.55628 -2.87137 0
M  V30 7305 H 693.089 -3.28636 -1.62461 0
M  V30 7306 H 692.737 -2.94581 -4.07715 0
M  V30 7307 H 692.437 -4.63797 -3.60786 0
M  V30 7308 H 693.961 -4.2007 -4.4314 0
M  V30 7309 H 695.375 -5.20843 -2.39574 0
M  V30 7310 H 693.772 -5.72562 -1.79701 0
M  V30 7311 H 694.842 -4.79301 -0.734776 0
M  V30 7312 N 696.185 0.383891 -1.52853 0
M  V30 7313 C 697.413 1.1495 -1.7203 0
M  V30 7314 C 697.828 1.83578 -0.440957 0
M  V30 7315 O 697.185 1.72872 0.584925 0
M  V30 7316 C 697.236 2.19368 -2.87333 0
M  V30 7317 O 696.957 1.53536 -4.10315 0
M  V30 7318 C 698.458 3.08616 -3.18231 0
M  V30 7319 H 695.678 0.344445 -0.575846 0
M  V30 7320 H 698.222 0.448397 -1.99524 0
M  V30 7321 H 696.377 2.85105 -2.62286 0
M  V30 7322 H 696.791 2.2296 -4.74752 0
M  V30 7323 H 698.265 3.77902 -4.02361 0
M  V30 7324 H 698.742 3.72409 -2.32826 0
M  V30 7325 H 699.348 2.48518 -3.45136 0
M  V30 7326 N 697.663 1.43903 0.642637 0
M  V30 7327 C 698.888 1.49758 1.43483 0
M  V30 7328 C 699.313 0.119911 1.87717 0
M  V30 7329 O 698.671 -0.888558 1.58033 0
M  V30 7330 C 698.719 2.45744 2.63898 0
M  V30 7331 O 697.823 1.95101 3.63331 0
M  V30 7332 H 697.164 0.506138 0.429791 0
M  V30 7333 H 699.694 1.88923 0.785438 0
M  V30 7334 H 699.704 2.63399 3.11584 0
M  V30 7335 H 698.379 3.45818 2.31046 0
M  V30 7336 H 696.956 1.87158 3.22531 0
M  V30 7337 N 699.141 -0.881989 1.30609 0
M  V30 7338 C 700.381 -1.64817 1.20891 0
M  V30 7339 C 700.745 -1.90593 -0.232043 0
M  V30 7340 O 701.946 -2.64964 -0.452516 0
M  V30 7341 C 700.217 -2.95006 2.01758 0
M  V30 7342 S 701.776 -3.85953 2.08771 0
M  V30 7343 H 698.594 -0.565651 0.430767 0
M  V30 7344 H 701.196 -1.04665 1.65122 0
M  V30 7345 H 699.9 -2.73973 3.0556 0
M  V30 7346 H 699.431 -3.60189 1.582 0
M  V30 7347 H 701.446 -4.81037 1.21727 0
M  V30 7348 N 700.619 -1.13374 -1.09472 0
M  V30 7349 C 701.859 -0.905422 -1.83252 0
M  V30 7350 C 702.223 0.558396 -1.83701 0
M  V30 7351 O 703.424 0.904254 -2.53134 0
M  V30 7352 C 701.695 -1.47658 -3.25472 0
M  V30 7353 S 703.254 -1.38825 -4.16261 0
M  V30 7354 H 700.072 -0.326371 -0.631667 0
M  V30 7355 H 702.674 -1.44517 -1.31663 0
M  V30 7356 H 701.378 -2.53533 -3.22722 0
M  V30 7357 H 700.909 -0.934756 -3.82133 0
M  V30 7358 H 702.924 -0.366379 -4.94846 0
M  V30 7359 N 702.098 1.27442 -0.927168 0
M  V30 7360 C 703.347 1.93679 -0.563146 0
M  V30 7361 C 703.66 1.73673 0.899837 0
M  V30 7362 O 704.866 2.34247 1.37262 0
M  V30 7363 C 703.322 3.46961 -0.95636 0
M  V30 7364 C 702.93 3.75724 -2.43999 0
M  V30 7365 C 704.674 4.19282 -0.663565 0
M  V30 7366 C 702.581 5.22378 -2.77263 0
M  V30 7367 H 701.511 0.725059 -0.206894 0
M  V30 7368 H 704.162 1.44743 -1.12791 0
M  V30 7369 H 702.544 3.94703 -0.320254 0
M  V30 7370 H 703.718 3.38741 -3.12396 0
M  V30 7371 H 702.033 3.16605 -2.70463 0
M  V30 7372 H 704.63 5.27265 -0.888596 0
M  V30 7373 H 704.973 4.14382 0.399198 0
M  V30 7374 H 705.506 3.7736 -1.25875 0
M  V30 7375 H 702.245 5.32367 -3.82446 0
M  V30 7376 H 701.765 5.6051 -2.13516 0
M  V30 7377 H 703.444 5.9025 -2.64979 0
M  V30 7378 N 703.576 0.692616 1.41565 0
M  V30 7379 C 704.987 0.297478 1.84315 0
M  V30 7380 C 705.338 -1.16379 1.57957 0
M  V30 7381 O 704.463 -1.89303 1.0485 0
M  V30 7382 C 705.058 0.533136 3.34579 0
M  V30 7383 C 703.617 0.191944 3.7591 0
M  V30 7384 C 702.764 0.816873 2.64995 0
M  V30 7385 H 705.715 0.893488 1.31158 0
M  V30 7386 H 705.736 -0.209105 3.79925 0
M  V30 7387 H 705.248 1.59674 3.53731 0
M  V30 7388 H 703.349 -0.867512 3.6236 0
M  V30 7389 H 703.462 0.644902 4.7474 0
M  V30 7390 H 701.826 0.246715 2.53502 0
M  V30 7391 H 702.609 1.88429 2.86966 0
M  V30 7392 N 705.054 -1.51416 0.437162 0
M  V30 7393 C 706.47 -1.59349 0.0894459 0
M  V30 7394 C 706.67 -1.44809 -1.40116 0
M  V30 7395 O 705.726 -1.28924 -2.17106 0
M  V30 7396 C 707.039 -2.9446 0.609398 0
M  V30 7397 C 708.587 -3.07769 0.569824 0
M  V30 7398 C 709.062 -4.45404 1.06675 0
M  V30 7399 N 710.553 -4.51723 1.02473 0
M  V30 7400 C 711.288 -5.56544 1.3801 0
M  V30 7401 N 710.784 -6.68784 1.80831 0
M  V30 7402 N 712.577 -5.46901 1.29828 0
M  V30 7403 H 704.728 -1.59112 1.40703 0
M  V30 7404 H 706.991 -0.750031 0.579791 0
M  V30 7405 H 706.697 -3.1047 1.65231 0
M  V30 7406 H 706.571 -3.77184 0.0342236 0
M  V30 7407 H 708.958 -2.91428 -0.464107 0
M  V30 7408 H 709.039 -2.26885 1.1814 0
M  V30 7409 H 708.683 -4.62492 2.09914 0
M  V30 7410 H 708.613 -5.24827 0.431712 0
M  V30 7411 H 711.104 -3.71165 0.710258 0
M  V30 7412 H 711.417 -7.44787 2.06185 0
M  V30 7413 H 709.762 -6.69992 1.84757 0
M  V30 7414 H 712.953 -4.581 0.962397 0
M  V30 7415 H 713.126 -6.2848 1.57851 0
M  V30 7416 N 706.532 -0.168513 -1.56696 0
M  V30 7417 C 707.943 0.348694 -1.83415 0
M  V30 7418 C 708.294 1.63257 -1.0882 0
M  V30 7419 O 707.419 2.13707 -0.340333 0
M  V30 7420 C 708.014 0.639423 -3.32711 0
M  V30 7421 C 706.573 1.10108 -3.59935 0
M  V30 7422 C 705.72 0.135464 -2.76969 0
M  V30 7423 H 708.671 -0.392829 -1.53761 0
M  V30 7424 H 708.692 1.49179 -3.50037 0
M  V30 7425 H 708.204 -0.295173 -3.86976 0
M  V30 7426 H 706.305 2.05088 -3.11079 0
M  V30 7427 H 706.418 1.01218 -4.68286 0
M  V30 7428 H 704.782 0.632286 -2.46727 0
M  V30 7429 H 705.565 -0.793104 -3.34013 0
M  V30 7430 N 708.01 1.57248 0.105221 0
M  V30 7431 C 708.957 2.01338 1.12835 0
M  V30 7432 C 709.927 0.887897 1.40377 0
M  V30 7433 O 711.112 1.15315 1.5201 0
M  V30 7434 C 708.252 2.43432 2.44611 0
M  V30 7435 C 707.365 3.69457 2.23888 0
M  V30 7436 C 706.5 4.00473 3.48991 0
M  V30 7437 C 705.539 5.19638 3.23485 0
M  V30 7438 N 704.676 5.46457 4.40828 0
M  V30 7439 H 709.516 2.88527 0.745386 0
M  V30 7440 H 707.053 1.42714 0.356535 0
M  V30 7441 H 709.011 2.65879 3.21503 0
M  V30 7442 H 707.641 1.59266 2.80774 0
M  V30 7443 H 706.693 3.54545 1.37847 0
M  V30 7444 H 708.005 4.56497 2.01026 0
M  V30 7445 H 707.159 4.23642 4.34295 0
M  V30 7446 H 705.898 3.11935 3.74897 0
M  V30 7447 H 704.903 4.96299 2.36574 0
M  V30 7448 H 706.128 6.09766 2.98935 0
M  V30 7449 H 704.074 4.60876 4.66829 0
M  V30 7450 H 703.991 6.27849 4.2112 0
M  V30 7451 H 705.259 5.74155 5.27225 0
M  V30 7452 N 709.488 -0.375779 1.53054 0
M  V30 7453 C 710.398 -1.48381 1.81715 0
M  V30 7454 C 711.414 -1.59087 0.704795 0
M  V30 7455 O 712.59 -1.75174 0.993785 0
M  V30 7456 C 709.655 -2.83767 1.99192 0
M  V30 7457 C 708.716 -2.82673 3.23102 0
M  V30 7458 C 707.949 -4.11601 3.39736 0
M  V30 7459 O 708.172 -5.07243 2.60885 0
M  V30 7460 O 707.106 -4.18034 4.33049 0
M  V30 7461 H 710.932 -1.27089 2.7583 0
M  V30 7462 H 708.517 -0.564902 1.38308 0
M  V30 7463 H 710.399 -3.64004 2.12318 0
M  V30 7464 H 709.074 -3.05057 1.08267 0
M  V30 7465 H 707.981 -2.0117 3.15407 0
M  V30 7466 H 709.314 -2.66335 4.13916 0
M  V30 7467 N 710.966 -1.44241 -0.634997 0
M  V30 7468 C 711.913 -1.5081 -1.74714 0
M  V30 7469 C 712.883 -0.356147 -1.62237 0
M  V30 7470 O 714.068 -0.565848 -1.82216 0
M  V30 7471 C 711.208 -1.45458 -3.12947 0
M  V30 7472 C 710.321 -2.70998 -3.36428 0
M  V30 7473 C 709.456 -2.57507 -4.64611 0
M  V30 7474 C 708.495 -3.78229 -4.81258 0
M  V30 7475 N 707.632 -3.63438 -6.00714 0
M  V30 7476 H 712.472 -2.45832 -1.68436 0
M  V30 7477 H 710.009 -1.2201 -0.821706 0
M  V30 7478 H 711.967 -1.40347 -3.92885 0
M  V30 7479 H 710.597 -0.540058 -3.1825 0
M  V30 7480 H 709.649 -2.86312 -2.50458 0
M  V30 7481 H 710.961 -3.60619 -3.44609 0
M  V30 7482 H 710.115 -2.50207 -5.52703 0
M  V30 7483 H 708.854 -1.65441 -4.58782 0
M  V30 7484 H 707.859 -3.85918 -3.91596 0
M  V30 7485 H 709.084 -4.71327 -4.88904 0
M  V30 7486 H 707.03 -2.7412 -5.95982 0
M  V30 7487 H 706.947 -4.46672 -6.09934 0
M  V30 7488 H 708.215 -3.60022 -6.91378 0
M  V30 7489 N 712.444 0.87505 -1.31075 0
M  V30 7490 C 713.669 1.66583 -1.23551 0
M  V30 7491 C 714.094 1.87067 0.19686 0
M  V30 7492 O 713.452 1.40877 1.1412 0
M  V30 7493 C 713.5 3.01401 -1.97965 0
M  V30 7494 O 712.604 3.90923 -1.31351 0
M  V30 7495 H 711.945 0.508645 -0.426821 0
M  V30 7496 H 714.475 1.09139 -1.7306 0
M  V30 7497 H 714.485 3.51374 -2.07366 0
M  V30 7498 H 713.16 2.85812 -3.02133 0
M  V30 7499 H 711.737 3.49369 -1.30368 0
M  V30 7500 N 713.922 1.13953 1.08869 0
M  V30 7501 C 714.87 0.817664 2.17754 0
M  V30 7502 C 715.864 -0.202444 1.68186 0
M  V30 7503 O 717.07 -0.0590159 1.79903 0
M  V30 7504 H 713.445 0.246671 0.710392 0
M  V30 7505 H 715.416 1.74401 2.4213 0
M  V30 7506 C 714.165 0.3063 3.46348 0
M  V30 7507 H 713.488 1.08259 3.84864 0
M  V30 7508 H 714.928 0.119584 4.23831 0
M  V30 7509 C 713.387 -0.969158 3.22659 0
M  V30 7510 O 713.917 -2.04386 3.45817 0
M  V30 7511 N 712.123 -0.902516 2.7623 0
M  V30 7512 H 711.67 -0.027801 2.57585 0
M  V30 7513 H 711.628 -1.75649 2.60758 0
M  V30 7514 N 715.4 -1.26948 0.933913 0
M  V30 7515 C 716.33 -2.29017 0.45534 0
M  V30 7516 C 717.311 -1.62961 -0.487605 0
M  V30 7517 O 718.496 -1.90223 -0.391022 0
M  V30 7518 C 715.626 -3.46112 -0.287015 0
M  V30 7519 C 714.58 -4.24205 0.568682 0
M  V30 7520 C 713.906 -5.3384 -0.303206 0
M  V30 7521 C 715.206 -4.88954 1.83633 0
M  V30 7522 H 716.9 -2.69298 1.30839 0
M  V30 7523 H 714.446 -1.29459 0.630579 0
M  V30 7524 H 716.399 -4.16622 -0.6328 0
M  V30 7525 H 715.123 -3.04765 -1.17414 0
M  V30 7526 H 713.782 -3.5545 0.897261 0
M  V30 7527 H 713.43 -4.88734 -1.18947 0
M  V30 7528 H 713.13 -5.86998 0.265879 0
M  V30 7529 H 714.654 -6.0719 -0.644423 0
M  V30 7530 H 716.068 -5.51717 1.55823 0
M  V30 7531 H 714.465 -5.52198 2.34941 0
M  V30 7532 H 715.535 -4.12305 2.55211 0
M  V30 7533 N 716.879 -0.700114 -1.41195 0
M  V30 7534 C 718.128 -0.230082 -2.00383 0
M  V30 7535 C 718.441 1.17857 -1.56106 0
M  V30 7536 O 719.647 1.74631 -2.07885 0
M  V30 7537 C 718.103 -0.360447 -3.5809 0
M  V30 7538 C 717.711 -1.77475 -4.11347 0
M  V30 7539 C 719.455 0.0495799 -4.24471 0
M  V30 7540 C 717.362 -1.85653 -5.61504 0
M  V30 7541 H 716.292 -0.0822633 -0.749499 0
M  V30 7542 H 718.943 -0.868969 -1.6162 0
M  V30 7543 H 717.325 0.346768 -3.94479 0
M  V30 7544 H 718.499 -2.51109 -3.86369 0
M  V30 7545 H 716.814 -2.13486 -3.57509 0
M  V30 7546 H 719.411 0.00898219 -5.34699 0
M  V30 7547 H 719.754 1.08904 -4.01803 0
M  V30 7548 H 720.287 -0.607521 -3.93134 0
M  V30 7549 H 717.026 -2.87667 -5.89006 0
M  V30 7550 H 716.546 -1.1641 -5.88395 0
M  V30 7551 H 718.225 -1.62151 -6.26351 0
M  V30 7552 N 718.357 1.51182 -0.445186 0
M  V30 7553 C 719.603 2.02452 0.11882 0
M  V30 7554 C 719.936 1.32824 1.41673 0
M  V30 7555 O 719.211 0.445637 1.89326 0
M  V30 7556 C 719.494 3.5859 0.329475 0
M  V30 7557 C 719.347 4.38823 -0.987638 0
M  V30 7558 C 720.666 4.26241 1.09575 0
M  V30 7559 H 717.785 0.735819 0.0417092 0
M  V30 7560 H 720.427 1.80747 -0.585718 0
M  V30 7561 H 718.577 3.77214 0.9296 0
M  V30 7562 H 720.249 4.3183 -1.62235 0
M  V30 7563 H 718.492 4.03594 -1.59041 0
M  V30 7564 H 719.163 5.46257 -0.794192 0
M  V30 7565 H 721.639 4.11934 0.587328 0
M  V30 7566 H 720.515 5.35354 1.21191 0
M  V30 7567 H 720.776 3.87635 2.12584 0
M  V30 7568 N 719.835 0.176821 1.56605 0
M  V30 7569 C 721.081 -0.467406 1.9734 0
M  V30 7570 C 721.414 -1.62523 1.06301 0
M  V30 7571 O 720.689 -1.94182 0.11125 0
M  V30 7572 C 720.972 -0.945106 3.47476 0
M  V30 7573 C 720.825 0.213273 4.49294 0
M  V30 7574 C 722.144 -1.8169 4.00845 0
M  V30 7575 H 719.263 -0.168426 0.717497 0
M  V30 7576 H 721.905 0.264065 1.88156 0
M  V30 7577 H 720.055 -1.56841 3.55434 0
M  V30 7578 H 721.727 0.850508 4.53392 0
M  V30 7579 H 719.97 0.867918 4.25029 0
M  V30 7580 H 720.641 -0.163187 5.51759 0
M  V30 7581 H 723.117 -1.29139 3.95553 0
M  V30 7582 H 721.993 -2.12015 5.06301 0
M  V30 7583 H 722.254 -2.76463 3.44994 0
M  V30 7584 N 721.313 -1.57302 -0.09688 0
M  V30 7585 C 722.245 -1.98618 -1.14384 0
M  V30 7586 C 723.258 -0.888483 -1.36418 0
M  V30 7587 O 724.447 -1.16661 -1.35101 0
M  V30 7588 C 721.547 -2.28838 -2.49973 0
M  V30 7589 C 720.72 -3.60132 -2.48241 0
M  V30 7590 C 719.779 -3.7831 -3.65743 0
M  V30 7591 O 718.805 -4.50183 -3.48316 0
M  V30 7592 N 720.007 -3.18752 -4.85157 0
M  V30 7593 H 722.772 -2.8904 -0.792202 0
M  V30 7594 H 720.333 -1.59356 -0.285883 0
M  V30 7595 H 722.325 -2.38193 -3.27179 0
M  V30 7596 H 720.895 -1.44431 -2.77233 0
M  V30 7597 H 720.115 -3.61763 -1.56593 0
M  V30 7598 H 721.403 -4.46389 -2.4416 0
M  V30 7599 H 720.801 -2.60368 -5.0222 0
M  V30 7600 H 719.358 -3.33595 -5.59962 0
M  V30 7601 N 722.791 0.367657 -1.53252 0
M  V30 7602 C 724.207 0.709191 -1.42978 0
M  V30 7603 C 724.407 1.93352 -0.567193 0
M  V30 7604 O 723.463 2.52453 -0.0488349 0
M  V30 7605 C 724.776 0.924338 -2.86141 0
M  V30 7606 C 726.324 1.02448 -2.95759 0
M  V30 7607 C 726.799 1.27211 -4.39979 0
M  V30 7608 N 728.29 1.33986 -4.43398 0
M  V30 7609 C 729.025 1.54852 -5.52095 0
M  V30 7610 N 728.521 1.73049 -6.7084 0
M  V30 7611 N 730.314 1.57205 -5.39669 0
M  V30 7612 H 722.465 -0.437669 -2.07842 0
M  V30 7613 H 724.728 -0.133737 -0.938519 0
M  V30 7614 H 724.434 0.0965455 -3.51567 0
M  V30 7615 H 724.308 1.83302 -3.29667 0
M  V30 7616 H 726.695 1.84282 -2.30487 0
M  V30 7617 H 726.776 0.0932301 -2.5563 0
M  V30 7618 H 726.42 0.458792 -5.05824 0
M  V30 7619 H 726.35 2.21654 -4.77679 0
M  V30 7620 H 728.841 1.21545 -3.5782 0
M  V30 7621 H 729.154 1.88538 -7.49449 0
M  V30 7622 H 727.499 1.70231 -6.7383 0
M  V30 7623 H 730.69 1.42555 -4.45865 0
M  V30 7624 H 730.863 1.73126 -6.24445 0
M  V30 7625 N 724.269 1.44576 0.627338 0
M  V30 7626 C 725.517 1.47267 1.38408 0
M  V30 7627 C 725.838 0.107971 1.94701 0
M  V30 7628 O 725.108 -0.860206 1.76004 0
M  V30 7629 H 723.688 0.542276 0.513756 0
M  V30 7630 H 726.35 1.80383 0.738099 0
M  V30 7631 H 725.446 2.20025 2.21349 0
M  V30 7632 N 725.747 -0.868086 1.31537 0
M  V30 7633 C 726.697 -1.96321 1.1594 0
M  V30 7634 C 727.681 -1.60748 0.0698962 0
M  V30 7635 O 728.873 -1.74524 0.295011 0
M  V30 7636 C 726.002 -3.32073 0.870789 0
M  V30 7637 C 725.088 -3.73907 2.00136 0
M  V30 7638 N 725.479 -3.87685 3.24859 0
M  V30 7639 C 723.777 -4.03433 1.90152 0
M  V30 7640 C 724.478 -4.23454 3.98825 0
M  V30 7641 N 723.454 -4.34242 3.27009 0
M  V30 7642 H 727.256 -2.05088 2.10514 0
M  V30 7643 H 724.77 -1.059 1.23122 0
M  V30 7644 H 726.767 -4.10279 0.740034 0
M  V30 7645 H 725.427 -3.24631 -0.0667068 0
M  V30 7646 H 726.438 -3.72363 3.59953 0
M  V30 7647 H 723.115 -4.0437 1.03879 0
M  V30 7648 H 724.505 -4.41696 5.06314 0
M  V30 7649 N 727.225 -1.14528 -1.08264 0
M  V30 7650 C 728.45 -0.938381 -1.84957 0
M  V30 7651 C 728.875 0.508044 -1.81109 0
M  V30 7652 O 728.233 1.36146 -1.19724 0
M  V30 7653 C 728.281 -1.44568 -3.30352 0
M  V30 7654 O 727.385 -0.638745 -4.07423 0
M  V30 7655 H 726.726 -0.335394 -0.573068 0
M  V30 7656 H 729.256 -1.52287 -1.36637 0
M  V30 7657 H 729.266 -1.45449 -3.81194 0
M  V30 7658 H 727.941 -2.49876 -3.32468 0
M  V30 7659 H 726.518 -0.698801 -3.66294 0
M  V30 7660 N 728.703 1.26451 -0.940633 0
M  V30 7661 C 730.114 1.75726 -0.630653 0
M  V30 7662 C 730.465 1.76631 0.854167 0
M  V30 7663 O 729.59 1.37807 1.66848 0
M  V30 7664 C 730.185 3.19114 -1.13805 0
M  V30 7665 C 728.744 3.66005 -0.878497 0
M  V30 7666 C 727.891 2.45505 -1.28928 0
M  V30 7667 H 730.842 1.12535 -1.119 0
M  V30 7668 H 730.863 3.77311 -0.491625 0
M  V30 7669 H 730.375 3.18424 -2.21874 0
M  V30 7670 H 728.476 3.72126 0.187833 0
M  V30 7671 H 728.589 4.54844 -1.50512 0
M  V30 7672 H 726.953 2.4467 -0.707713 0
M  V30 7673 H 727.736 2.47516 -2.37888 0
M  V30 7674 N 730.181 0.707592 1.40822 0
M  V30 7675 C 731.592 0.317011 1.83989 0
M  V30 7676 C 731.943 -1.14697 1.59182 0
M  V30 7677 O 731.068 -1.8818 1.06852 0
M  V30 7678 C 731.663 0.568593 3.33995 0
M  V30 7679 C 730.222 0.231804 3.75686 0
M  V30 7680 C 729.369 0.844933 2.64114 0
M  V30 7681 H 732.32 0.907349 1.30203 0
M  V30 7682 H 732.341 -0.168798 3.80125 0
M  V30 7683 H 731.853 1.63417 3.52018 0
M  V30 7684 H 729.954 -0.82903 3.6326 0
M  V30 7685 H 730.067 0.695219 4.74029 0
M  V30 7686 H 728.431 0.273588 2.53226 0
M  V30 7687 H 729.214 1.91462 2.84951 0
M  V30 7688 N 731.66 -1.50943 0.453197 0
M  V30 7689 C 732.888 -2.06628 -0.106135 0
M  V30 7690 C 733.303 -1.31901 -1.35084 0
M  V30 7691 O 732.66 -0.383074 -1.78434 0
M  V30 7692 C 732.711 -3.5914 -0.412368 0
M  V30 7693 O 732.432 -4.31047 0.782948 0
M  V30 7694 C 733.933 -4.31391 -1.02064 0
M  V30 7695 H 731.153 -0.670999 -0.000885896 0
M  V30 7696 H 733.697 -1.94331 0.63684 0
M  V30 7697 H 731.852 -3.71299 -1.10526 0
M  V30 7698 H 732.266 -5.21948 0.516736 0
M  V30 7699 H 733.74 -5.39135 -1.1848 0
M  V30 7700 H 734.217 -3.90714 -2.00598 0
M  V30 7701 H 734.823 -4.23716 -0.366664 0
M  V30 7702 N 733.138 -0.185124 -1.56509 0
M  V30 7703 C 734.363 0.465278 -2.02114 0
M  V30 7704 C 734.788 1.55083 -1.06447 0
M  V30 7705 O 734.146 1.81241 -0.0462852 0
M  V30 7706 C 734.194 1.00784 -3.46229 0
M  V30 7707 O 733.298 2.12123 -3.53663 0
M  V30 7708 H 732.639 0.109891 -0.654843 0
M  V30 7709 H 735.169 -0.293072 -2.0249 0
M  V30 7710 H 735.179 1.32697 -3.85818 0
M  V30 7711 H 733.854 0.213113 -4.15354 0
M  V30 7712 H 732.431 1.8115 -3.25943 0
M  V30 7713 N 734.616 1.57351 0.0885366 0
M  V30 7714 C 735.841 1.91011 0.80805 0
M  V30 7715 C 736.266 0.780009 1.71165 0
M  V30 7716 O 735.624 -0.268083 1.79307 0
M  V30 7717 C 735.672 3.23562 1.59185 0
M  V30 7718 O 734.776 3.11615 2.7013 0
M  V30 7719 H 734.117 0.625943 0.221565 0
M  V30 7720 H 736.647 2.04507 0.0617954 0
M  V30 7721 H 736.657 3.5703 1.97468 0
M  V30 7722 H 735.332 4.05398 0.928741 0
M  V30 7723 H 733.909 2.89673 2.34827 0
M  V30 7724 N 736.094 -0.359525 1.53444 0
M  V30 7725 C 737.024 -1.44662 1.8329 0
M  V30 7726 C 738.005 -1.55617 0.68683 0
M  V30 7727 O 739.19 -1.70086 0.93725 0
M  V30 7728 C 736.32 -2.81923 2.02822 0
M  V30 7729 C 735.274 -2.85787 3.18606 0
M  V30 7730 C 734.6 -4.25781 3.23442 0
M  V30 7731 C 735.9 -2.52762 4.57065 0
M  V30 7732 H 737.594 -1.19934 2.74329 0
M  V30 7733 H 735.14 -0.575517 1.31999 0
M  V30 7734 H 737.093 -3.58005 2.22285 0
M  V30 7735 H 735.817 -3.08051 1.085 0
M  V30 7736 H 734.476 -2.12157 2.98973 0
M  V30 7737 H 734.124 -4.48994 2.26745 0
M  V30 7738 H 733.824 -4.29281 4.01238 0
M  V30 7739 H 735.348 -5.03727 3.45096 0
M  V30 7740 H 736.762 -3.18557 4.76649 0
M  V30 7741 H 735.159 -2.67569 5.37147 0
M  V30 7742 H 736.229 -1.47993 4.61764 0
M  V30 7743 N 737.572 -1.44907 -0.619662 0
M  V30 7744 C 738.818 -1.48512 -1.38102 0
M  V30 7745 C 739.151 -0.121686 -1.93818 0
M  V30 7746 O 738.426 0.862256 -1.74343 0
M  V30 7747 C 738.709 -2.55469 -2.53787 0
M  V30 7748 C 738.562 -4.01212 -2.03345 0
M  V30 7749 C 739.881 -2.58821 -3.55949 0
M  V30 7750 H 737 -0.540712 -0.500799 0
M  V30 7751 H 739.642 -1.7665 -0.69962 0
M  V30 7752 H 737.792 -2.31606 -3.11915 0
M  V30 7753 H 739.464 -4.36245 -1.49959 0
M  V30 7754 H 737.707 -4.12443 -1.34438 0
M  V30 7755 H 738.378 -4.71717 -2.86683 0
M  V30 7756 H 740.854 -2.80172 -3.07641 0
M  V30 7757 H 739.73 -3.35542 -4.34399 0
M  V30 7758 H 739.991 -1.63451 -4.10775 0
M  V30 7759 N 739.05 0.861098 -1.31996 0
M  V30 7760 C 739.982 1.97551 -1.16216 0
M  V30 7761 C 740.995 1.625 -0.0988527 0
M  V30 7762 O 742.184 1.75091 -0.3472 0
M  V30 7763 C 739.284 3.30376 -0.755307 0
M  V30 7764 C 738.457 3.93711 -1.90552 0
M  V30 7765 C 737.516 5.04862 -1.48328 0
M  V30 7766 O 736.542 5.25204 -2.19431 0
M  V30 7767 N 737.744 5.79283 -0.375656 0
M  V30 7768 H 740.509 2.11632 -2.12208 0
M  V30 7769 H 738.07 1.03559 -1.24448 0
M  V30 7770 H 740.062 4.0213 -0.455364 0
M  V30 7771 H 738.632 3.12395 0.113269 0
M  V30 7772 H 737.852 3.14825 -2.37231 0
M  V30 7773 H 739.14 4.32762 -2.67571 0
M  V30 7774 H 738.538 5.65286 0.216284 0
M  V30 7775 H 737.095 6.5166 -0.135289 0
M  V30 7776 N 740.528 1.15101 1.07655 0
M  V30 7777 C 741.939 0.933848 1.61667 0
M  V30 7778 C 742.29 -0.525569 1.8903 0
M  V30 7779 O 741.415 -1.39605 1.65346 0
M  V30 7780 C 742.01 1.68876 2.93711 0
M  V30 7781 C 740.569 1.51697 3.44478 0
M  V30 7782 C 739.716 1.70633 2.18586 0
M  V30 7783 H 742.667 1.30171 0.907816 0
M  V30 7784 H 742.688 1.15645 3.625 0
M  V30 7785 H 742.2 2.7509 2.73764 0
M  V30 7786 H 740.301 0.478635 3.69513 0
M  V30 7787 H 740.414 2.29194 4.20722 0
M  V30 7788 H 738.778 1.13259 2.28132 0
M  V30 7789 H 739.561 2.78206 2.01137 0
M  V30 7790 N 742.006 -1.2595 0.947325 0
M  V30 7791 C 742.938 -2.25336 0.41906 0
M  V30 7792 C 743.951 -1.56135 -0.461051 0
M  V30 7793 O 745.14 -1.76438 -0.270505 0
M  V30 7794 C 742.24 -3.36334 -0.416233 0
M  V30 7795 C 741.413 -4.35088 0.449162 0
M  V30 7796 C 740.472 -5.25185 -0.326716 0
M  V30 7797 O 739.498 -5.68548 0.272374 0
M  V30 7798 N 740.7 -5.57388 -1.6217 0
M  V30 7799 H 743.465 -2.71298 1.27348 0
M  V30 7800 H 741.026 -1.39781 0.81688 0
M  V30 7801 H 743.018 -3.93564 -0.942826 0
M  V30 7802 H 741.588 -2.89819 -1.17148 0
M  V30 7803 H 740.808 -3.76841 1.15692 0
M  V30 7804 H 742.096 -4.98056 1.04008 0
M  V30 7805 H 741.494 -5.2405 -2.13046 0
M  V30 7806 H 740.051 -6.17234 -2.0944 0
M  V30 7807 N 743.484 -0.715051 -1.40445 0
M  V30 7808 C 744.709 -0.26254 -2.05732 0
M  V30 7809 C 745.134 1.08691 -1.53519 0
M  V30 7810 O 744.492 1.68453 -0.670328 0
M  V30 7811 C 744.54 -0.25195 -3.59719 0
M  V30 7812 O 743.644 0.766998 -4.05205 0
M  V30 7813 H 742.985 -0.123398 -0.652433 0
M  V30 7814 H 745.515 -0.975382 -1.79854 0
M  V30 7815 H 745.525 -0.0894537 -4.07902 0
M  V30 7816 H 744.2 -1.23672 -3.97087 0
M  V30 7817 H 742.777 0.572269 -3.68483 0
M  V30 7818 N 744.962 1.50701 -0.461195 0
M  V30 7819 C 745.894 2.26124 0.374244 0
M  V30 7820 C 746.907 1.31064 0.965715 0
M  V30 7821 O 748.096 1.56647 0.855801 0
M  V30 7822 C 745.196 3.01996 1.5379 0
M  V30 7823 C 744.369 4.24336 1.06101 0
M  V30 7824 C 743.428 4.82585 2.09756 0
M  V30 7825 O 742.454 5.43775 1.68219 0
M  V30 7826 N 743.656 4.68712 3.42475 0
M  V30 7827 H 746.421 2.9846 -0.2723 0
M  V30 7828 H 743.982 1.59256 -0.291415 0
M  V30 7829 H 745.974 3.37846 2.22806 0
M  V30 7830 H 744.544 2.32521 2.08933 0
M  V30 7831 H 743.764 3.93707 0.197085 0
M  V30 7832 H 745.052 5.03678 0.720156 0
M  V30 7833 H 744.45 4.20026 3.78938 0
M  V30 7834 H 743.007 5.08858 4.07317 0
M  V30 7835 N 746.441 0.193421 1.56409 0
M  V30 7836 C 747.671 -0.450783 2.01622 0
M  V30 7837 C 748.079 -1.5585 1.07273 0
M  V30 7838 O 747.422 -1.83569 0.0694875 0
M  V30 7839 C 747.484 -1.06913 3.43235 0
M  V30 7840 C 747.148 -0.100352 4.5689 0
M  V30 7841 C 748.145 0.689633 5.15306 0
M  V30 7842 C 745.83 0.0102436 5.02299 0
M  V30 7843 C 747.824 1.5772 6.17579 0
M  V30 7844 C 745.511 0.901368 6.04416 0
M  V30 7845 C 746.509 1.68341 6.61929 0
M  V30 7846 O 746.197 2.5596 7.62063 0
M  V30 7847 H 745.929 -0.117671 0.66568 0
M  V30 7848 H 748.483 0.2989 2.03214 0
M  V30 7849 H 746.713 -1.86736 3.38624 0
M  V30 7850 H 748.402 -1.61781 3.72266 0
M  V30 7851 H 749.168 0.614485 4.81092 0
M  V30 7852 H 745.047 -0.58829 4.57231 0
M  V30 7853 H 748.591 2.18805 6.62397 0
M  V30 7854 H 744.488 0.977637 6.38054 0
M  V30 7855 H 745.256 2.49721 7.79475 0
M  V30 7856 N 747.919 -1.57396 -0.0801906 0
M  V30 7857 C 748.851 -1.9982 -1.12271 0
M  V30 7858 C 749.864 -0.902902 -1.35468 0
M  V30 7859 O 751.053 -1.18088 -1.33856 0
M  V30 7860 C 748.153 -2.31476 -2.47532 0
M  V30 7861 C 747.326 -3.62745 -2.44407 0
M  V30 7862 C 746.385 -3.82168 -3.6171 0
M  V30 7863 O 745.411 -4.53852 -3.43522 0
M  V30 7864 N 746.613 -3.2388 -4.81749 0
M  V30 7865 H 749.378 -2.89864 -0.761501 0
M  V30 7866 H 746.939 -1.5965 -0.268965 0
M  V30 7867 H 748.931 -2.4165 -3.24634 0
M  V30 7868 H 747.501 -1.47364 -2.75686 0
M  V30 7869 H 746.721 -3.63403 -1.52747 0
M  V30 7870 H 748.009 -4.48954 -2.39412 0
M  V30 7871 H 747.407 -2.6568 -4.9943 0
M  V30 7872 H 745.964 -3.39515 -5.56392 0
M  V30 7873 N 749.397 0.351382 -1.53633 0
M  V30 7874 C 750.327 1.43688 -1.84055 0
M  V30 7875 C 751.308 1.55251 -0.695073 0
M  V30 7876 O 752.493 1.69587 -0.946257 0
M  V30 7877 C 749.623 2.80843 -2.04315 0
M  V30 7878 C 748.577 2.84094 -3.20117 0
M  V30 7879 C 747.903 4.2406 -3.25696 0
M  V30 7880 C 749.203 2.50334 -4.58399 0
M  V30 7881 H 750.897 1.18478 -2.74961 0
M  V30 7882 H 748.443 0.568509 -1.32303 0
M  V30 7883 H 750.396 3.56821 -2.2418 0
M  V30 7884 H 749.12 3.07471 -1.10132 0
M  V30 7885 H 747.779 2.10568 -3.00094 0
M  V30 7886 H 747.427 4.47785 -2.29123 0
M  V30 7887 H 747.127 4.27147 -4.03509 0
M  V30 7888 H 748.651 5.0189 -3.47762 0
M  V30 7889 H 750.065 3.16025 -4.78332 0
M  V30 7890 H 748.462 2.64717 -5.38558 0
M  V30 7891 H 749.532 1.45542 -4.62543 0
M  V30 7892 N 750.875 1.45233 0.611969 0
M  V30 7893 C 752.1 1.52767 1.40274 0
M  V30 7894 C 752.525 0.159701 1.87421 0
M  V30 7895 O 751.883 -0.854837 1.59882 0
M  V30 7896 C 751.931 2.51286 2.58626 0
M  V30 7897 O 751.035 2.02764 3.59111 0
M  V30 7898 H 750.376 0.515141 0.418958 0
M  V30 7899 H 752.906 1.90547 0.745188 0
M  V30 7900 H 752.916 2.69949 3.05927 0
M  V30 7901 H 751.591 3.50641 2.23659 0
M  V30 7902 H 750.168 1.93957 3.18489 0
M  V30 7903 N 752.353 -0.854086 1.3245 0
M  V30 7904 C 753.285 -1.96932 1.17262 0
M  V30 7905 C 754.298 -1.62445 0.107469 0
M  V30 7906 O 755.487 -1.74904 0.356481 0
M  V30 7907 C 752.587 -3.29971 0.772817 0
M  V30 7908 C 751.76 -3.92695 1.92638 0
M  V30 7909 C 750.819 -5.04068 1.51003 0
M  V30 7910 O 749.845 -5.24032 2.22213 0
M  V30 7911 N 751.047 -5.79076 0.406371 0
M  V30 7912 H 753.812 -2.10503 2.13327 0
M  V30 7913 H 751.373 -1.02897 1.24995 0
M  V30 7914 H 753.365 -4.01883 0.476684 0
M  V30 7915 H 751.935 -3.1245 -0.0967 0
M  V30 7916 H 751.155 -3.13563 2.38897 0
M  V30 7917 H 752.443 -4.31337 2.69863 0
M  V30 7918 H 751.841 -5.65393 -0.186302 0
M  V30 7919 H 750.398 -6.51579 0.169846 0
M  V30 7920 N 753.831 -1.1567 -1.07043 0
M  V30 7921 C 754.764 -0.799867 -2.13723 0
M  V30 7922 C 755.742 0.225098 -1.61034 0
M  V30 7923 O 756.926 0.11093 -1.88173 0
M  V30 7924 C 754.053 -0.18997 -3.38167 0
M  V30 7925 C 753.099 -1.18733 -4.0964 0
M  V30 7926 S 753.932 -2.73074 -4.60642 0
M  V30 7927 C 755.088 -2.13512 -5.88356 0
M  V30 7928 H 755.321 -1.70342 -2.43661 0
M  V30 7929 H 752.854 -0.979377 -1.19363 0
M  V30 7930 H 754.812 0.155471 -4.10205 0
M  V30 7931 H 753.473 0.691229 -3.064 0
M  V30 7932 H 752.666 -0.708873 -4.9899 0
M  V30 7933 H 752.268 -1.47747 -3.43579 0
M  V30 7934 H 754.56 -1.49911 -6.60706 0
M  V30 7935 H 755.503 -3.01042 -6.40921 0
M  V30 7936 H 755.911 -1.57693 -5.42027 0
M  V30 7937 N 755.309 1.25446 -0.953992 0
M  V30 7938 C 756.537 1.97215 -0.625595 0
M  V30 7939 C 756.952 1.70911 0.802168 0
M  V30 7940 O 756.309 0.984782 1.5365 0
M  V30 7941 C 756.36 3.50777 -0.873943 0
M  V30 7942 O 756.081 3.76173 -2.24556 0
M  V30 7943 C 757.582 4.39776 -0.557845 0
M  V30 7944 H 754.802 0.628652 -0.2346 0
M  V30 7945 H 757.346 1.59632 -1.27819 0
M  V30 7946 H 755.501 3.86474 -0.267765 0
M  V30 7947 H 755.915 4.70636 -2.31522 0
M  V30 7948 H 757.389 5.46431 -0.782157 0
M  V30 7949 H 757.866 4.36257 0.507573 0
M  V30 7950 H 758.472 4.09644 -1.14332 0
M  V30 7951 N 756.787 0.722489 1.40064 0
M  V30 7952 C 758.034 0.264979 2.00759 0
M  V30 7953 C 758.362 -1.14395 1.57302 0
M  V30 7954 O 757.617 -1.79165 0.787298 0
M  V30 7955 C 757.916 0.300682 3.56133 0
M  V30 7956 C 757.582 1.66087 4.19197 0
M  V30 7957 C 756.244 2.03319 4.36136 0
M  V30 7958 C 758.596 2.55452 4.54306 0
M  V30 7959 C 755.924 3.29448 4.8547 0
M  V30 7960 C 758.276 3.8094 5.05042 0
M  V30 7961 C 756.94 4.1828 5.2019 0
M  V30 7962 H 756.21 0.0969625 0.734629 0
M  V30 7963 H 758.857 0.926877 1.67575 0
M  V30 7964 H 757.162 -0.44479 3.89267 0
M  V30 7965 H 758.859 -0.0712542 4.00937 0
M  V30 7966 H 755.449 1.36137 4.06405 0
M  V30 7967 H 759.633 2.27961 4.40849 0
M  V30 7968 H 754.889 3.58338 4.95382 0
M  V30 7969 H 759.063 4.50351 5.31184 0
M  V30 7970 H 756.69 5.16081 5.58179 0
M  V30 7971 N 758.265 -1.50454 0.469181 0
M  V30 7972 C 759.215 -2.25381 -0.344582 0
M  V30 7973 C 760.199 -1.28892 -0.963098 0
M  V30 7974 O 761.391 -1.53805 -0.875964 0
M  V30 7975 C 758.52 -3.12232 -1.4271 0
M  V30 7976 C 757.606 -4.16168 -0.816411 0
M  V30 7977 N 757.997 -5.05762 0.0621424 0
M  V30 7978 C 756.295 -4.32712 -1.08056 0
M  V30 7979 C 756.996 -5.80264 0.408519 0
M  V30 7980 N 755.972 -5.43171 -0.215827 0
M  V30 7981 H 759.774 -2.92016 0.332237 0
M  V30 7982 H 757.288 -1.59911 0.283209 0
M  V30 7983 H 759.285 -3.64514 -2.02324 0
M  V30 7984 H 757.945 -2.47145 -2.10593 0
M  V30 7985 H 758.956 -5.16105 0.430841 0
M  V30 7986 H 755.633 -3.78844 -1.75452 0
M  V30 7987 H 757.023 -6.62408 1.12539 0
M  V30 7988 N 759.743 -0.201713 -1.56304 0
M  V30 7989 C 760.69 0.716499 -2.19397 0
M  V30 7990 C 761.66 1.20494 -1.14326 0
M  V30 7991 O 762.845 1.26763 -1.42604 0
M  V30 7992 C 759.985 1.92762 -2.86246 0
M  V30 7993 C 759.098 1.47993 -4.0586 0
M  V30 7994 C 758.233 2.64706 -4.60547 0
M  V30 7995 C 757.272 2.16576 -5.72504 0
M  V30 7996 N 756.409 3.26491 -6.21569 0
M  V30 7997 H 761.249 0.171724 -2.97505 0
M  V30 7998 H 758.786 0.073016 -1.46919 0
M  V30 7999 H 760.744 2.6384 -3.23178 0
M  V30 8000 H 759.374 2.44559 -2.10691 0
M  V30 8001 H 758.426 0.66477 -3.74546 0
M  V30 8002 H 759.738 1.08686 -4.86815 0
M  V30 8003 H 758.892 3.43898 -4.99819 0
M  V30 8004 H 757.631 3.0729 -3.78713 0
M  V30 8005 H 756.636 1.3584 -5.32755 0
M  V30 8006 H 757.861 1.75015 -6.56161 0
M  V30 8007 H 755.807 3.68594 -5.42655 0
M  V30 8008 H 755.724 2.91374 -6.97594 0
M  V30 8009 H 756.992 4.05877 -6.65495 0
M  V30 8010 N 761.222 1.57436 0.0718424 0
M  V30 8011 C 762.471 1.86431 0.769826 0
M  V30 8012 C 762.784 0.794355 1.78744 0
M  V30 8013 O 763.99 0.972148 2.53499 0
M  V30 8014 C 762.446 3.307 1.42006 0
M  V30 8015 C 762.054 4.45824 0.441017 0
M  V30 8016 C 763.798 3.68894 2.10041 0
M  V30 8017 C 761.705 5.81134 1.09717 0
M  V30 8018 H 760.635 0.695474 0.291259 0
M  V30 8019 H 763.286 1.83485 0.0231224 0
M  V30 8020 H 761.668 3.28257 2.21502 0
M  V30 8021 H 762.842 4.59659 -0.32413 0
M  V30 8022 H 761.157 4.16181 -0.134886 0
M  V30 8023 H 763.754 4.67281 2.59908 0
M  V30 8024 H 764.097 2.98692 2.89981 0
M  V30 8025 H 764.63 3.73326 1.37376 0
M  V30 8026 H 761.369 6.54628 0.338095 0
M  V30 8027 H 760.889 5.711 1.83317 0
M  V30 8028 H 762.568 6.26468 1.617 0
M  V30 8029 N 762.7 -0.34323 1.53817 0
M  V30 8030 C 764.111 -0.918823 1.62525 0
M  V30 8031 C 764.462 -1.89542 0.506765 0
M  V30 8032 O 763.587 -2.13326 -0.363441 0
M  V30 8033 C 764.182 -1.67326 2.94597 0
M  V30 8034 C 762.741 -2.19786 3.05567 0
M  V30 8035 C 761.888 -1.01708 2.57974 0
M  V30 8036 H 764.839 -0.121358 1.58235 0
M  V30 8037 H 764.86 -2.53615 2.83654 0
M  V30 8038 H 764.372 -0.962223 3.75983 0
M  V30 8039 H 762.473 -2.94065 2.28816 0
M  V30 8040 H 762.586 -2.46135 4.1104 0
M  V30 8041 H 760.95 -1.39058 2.13389 0
M  V30 8042 H 761.733 -0.320671 3.41799 0
M  V30 8043 N 764.178 -1.45556 -0.604258 0
M  V30 8044 C 765.141 -1.54091 -1.69672 0
M  V30 8045 C 766.141 -0.420076 -1.55216 0
M  V30 8046 O 767.331 -0.683671 -1.60224 0
M  V30 8047 C 764.463 -1.44063 -3.08964 0
M  V30 8048 H 765.656 -2.51431 -1.6347 0
M  V30 8049 H 763.209 -1.33046 -0.820273 0
M  V30 8050 H 763.944 -0.479201 -3.2074 0
M  V30 8051 H 763.729 -2.25362 -3.20865 0
M  V30 8052 H 765.219 -1.53075 -3.88533 0
M  V30 8053 N 765.656 0.84705 -1.32902 0
M  V30 8054 C 766.933 1.58583 -1.14503 0
M  V30 8055 C 767.313 2.09075 0.291724 0
M  V30 8056 O 766.661 1.88636 1.28952 0
M  V30 8057 C 766.871 2.72605 -2.17916 0
M  V30 8058 C 768.219 3.41993 -2.51646 0
M  V30 8059 O 769.243 2.82838 -2.1652 0
M  V30 8060 O 768.102 4.48761 -3.1189 0
M  V30 8061 H 765.196 0.698756 -0.442345 0
M  V30 8062 H 767.742 0.890516 -1.44457 0
M  V30 8063 H 766.514 2.32876 -3.14459 0
M  V30 8064 H 766.137 3.49807 -1.89 0
M  V30 8065 N 767.134 1.16236 1.06428 0
M  V30 8066 C 768.359 0.967688 1.83441 0
M  V30 8067 C 768.784 -0.479167 1.81894 0
M  V30 8068 O 768.142 -1.34224 1.21875 0
M  V30 8069 C 768.19 1.49806 3.2801 0
M  V30 8070 O 767.294 0.703481 4.06356 0
M  V30 8071 H 766.635 0.344468 0.56766 0
M  V30 8072 H 769.165 1.54442 1.34197 0
M  V30 8073 H 769.175 1.51495 3.78831 0
M  V30 8074 H 767.85 2.55133 3.2845 0
M  V30 8075 H 766.427 0.756986 3.65136 0
M  V30 8076 N 768.612 -1.24939 0.960631 0
M  V30 8077 C 769.542 -2.28 0.503815 0
M  V30 8078 C 770.523 -1.63959 -0.452928 0
M  V30 8079 O 771.708 -1.91009 -0.350585 0
M  V30 8080 C 768.838 -3.46643 -0.213535 0
M  V30 8081 C 767.792 -4.22903 0.658535 0
M  V30 8082 C 767.118 -5.34363 -0.189902 0
M  V30 8083 C 768.418 -4.84949 1.93963 0
M  V30 8084 H 770.112 -2.66462 1.36521 0
M  V30 8085 H 767.658 -1.28093 0.657897 0
M  V30 8086 H 769.611 -4.1787 -0.544286 0
M  V30 8087 H 768.335 -3.07187 -1.10923 0
M  V30 8088 H 766.994 -3.53467 0.972455 0
M  V30 8089 H 766.642 -4.91147 -1.08553 0
M  V30 8090 H 766.342 -5.86302 0.390331 0
M  V30 8091 H 767.866 -6.0842 -0.515484 0
M  V30 8092 H 769.28 -5.48288 1.67491 0
M  V30 8093 H 767.677 -5.47091 2.46601 0
M  V30 8094 H 768.747 -4.06799 2.639 0
M  V30 8095 N 770.09 -0.729906 -1.39679 0
M  V30 8096 C 771 -0.0880322 -2.34435 0
M  V30 8097 C 772.016 0.727674 -1.58053 0
M  V30 8098 O 773.192 0.657321 -1.90371 0
M  V30 8099 C 770.257 0.812211 -3.37052 0
M  V30 8100 C 769.318 -0.0151681 -4.29297 0
M  V30 8101 C 768.551 0.842202 -5.27013 0
M  V30 8102 O 768.774 2.08108 -5.31081 0
M  V30 8103 O 767.708 0.27357 -6.01278 0
M  V30 8104 H 771.534 -0.869989 -2.90972 0
M  V30 8105 H 769.119 -0.490522 -1.41118 0
M  V30 8106 H 771.001 1.32745 -3.99946 0
M  V30 8107 H 769.676 1.57307 -2.82907 0
M  V30 8108 H 768.583 -0.575811 -3.69642 0
M  V30 8109 H 769.916 -0.738129 -4.86634 0
M  V30 8110 N 771.568 1.50203 -0.477153 0
M  V30 8111 C 772.814 2.03286 0.0679442 0
M  V30 8112 C 773.169 1.35227 1.36863 0
M  V30 8113 O 772.462 0.471029 1.8572 0
M  V30 8114 C 772.656 3.56127 0.301325 0
M  V30 8115 C 772.485 4.38999 -0.975188 0
M  V30 8116 C 771.255 4.81889 -1.52022 0
M  V30 8117 C 773.453 4.79013 -1.8722 0
M  V30 8118 N 771.435 5.49105 -2.74513 0
M  V30 8119 C 772.806 5.45701 -2.94296 0
M  V30 8120 C 774.861 4.60967 -1.88185 0
M  V30 8121 C 773.564 5.96255 -4.02333 0
M  V30 8122 C 775.59 5.12466 -2.95183 0
M  V30 8123 C 774.952 5.79134 -4.00977 0
M  V30 8124 H 771.051 0.78185 -0.015318 0
M  V30 8125 H 773.635 1.83646 -0.64671 0
M  V30 8126 H 771.806 3.75702 0.985021 0
M  V30 8127 H 773.538 3.95859 0.841304 0
M  V30 8128 H 770.293 4.61387 -1.06858 0
M  V30 8129 H 770.717 5.87315 -3.36734 0
M  V30 8130 H 775.359 4.0885 -1.07708 0
M  V30 8131 H 773.077 6.47406 -4.83623 0
M  V30 8132 H 776.663 5.00329 -2.96921 0
M  V30 8133 H 775.543 6.18265 -4.82409 0
M  V30 8134 N 773.046 0.209999 1.56195 0
M  V30 8135 C 773.996 -0.717978 2.164 0
M  V30 8136 C 774.98 -1.16577 1.10899 0
M  V30 8137 O 776.172 -1.12169 1.3692 0
M  V30 8138 C 773.301 -1.93091 2.8385 0
M  V30 8139 C 772.387 -1.50333 3.96561 0
M  V30 8140 N 772.778 -0.787621 4.9963 0
M  V30 8141 C 771.076 -1.79151 4.08437 0
M  V30 8142 C 771.777 -0.571204 5.78889 0
M  V30 8143 N 770.753 -1.12444 5.31843 0
M  V30 8144 H 774.555 -0.162603 2.9345 0
M  V30 8145 H 772.069 0.0107928 1.62396 0
M  V30 8146 H 774.066 -2.60635 3.25384 0
M  V30 8147 H 772.726 -2.49087 2.08293 0
M  V30 8148 H 773.737 -0.441513 5.16015 0
M  V30 8149 H 770.414 -2.36549 3.44022 0
M  V30 8150 H 771.804 -0.00237941 6.719 0
M  V30 8151 N 774.524 -1.57472 -0.0634922 0
M  V30 8152 C 775.434 -2.07621 -1.09227 0
M  V30 8153 C 776.45 -1.00746 -1.41867 0
M  V30 8154 O 777.626 -1.32269 -1.51878 0
M  V30 8155 C 774.691 -2.51707 -2.38421 0
M  V30 8156 C 773.752 -3.72917 -2.12676 0
M  V30 8157 C 772.985 -4.14891 -3.3571 0
M  V30 8158 O 773.208 -3.56663 -4.45137 0
M  V30 8159 O 772.142 -5.07616 -3.23434 0
M  V30 8160 H 775.968 -2.95612 -0.696205 0
M  V30 8161 H 773.553 -1.46787 -0.27819 0
M  V30 8162 H 775.435 -2.80547 -3.14438 0
M  V30 8163 H 774.11 -1.66842 -2.77391 0
M  V30 8164 H 773.017 -3.49148 -1.34337 0
M  V30 8165 H 774.35 -4.5866 -1.78583 0
M  V30 8166 N 776.003 0.335068 -1.53997 0
M  V30 8167 C 776.951 1.43206 -1.83289 0
M  V30 8168 C 777.945 1.54081 -0.703953 0
M  V30 8169 O 779.151 1.56603 -0.887432 0
M  V30 8170 H 775.526 0.477655 -0.580818 0
M  V30 8171 H 777.497 1.15719 -2.75049 0
M  V30 8172 C 776.246 2.79602 -2.06683 0
M  V30 8173 H 775.569 2.72004 -2.93008 0
M  V30 8174 H 777.009 3.55459 -2.31139 0
M  V30 8175 C 775.468 3.25873 -0.854883 0
M  V30 8176 O 775.998 4.01657 -0.0584648 0
M  V30 8177 N 774.204 2.82777 -0.669729 0
M  V30 8178 H 773.751 2.21269 -1.31901 0
M  V30 8179 H 773.709 3.1409 0.13969 0
M  V30 8180 N 777.481 1.45874 0.596531 0
M  V30 8181 C 778.411 1.5824 1.71705 0
M  V30 8182 C 779.392 0.433366 1.64487 0
M  V30 8183 O 780.577 0.657895 1.82717 0
M  V30 8184 C 777.707 1.55927 3.10329 0
M  V30 8185 C 776.661 2.69659 3.32367 0
M  V30 8186 C 775.987 2.52403 4.71377 0
M  V30 8187 C 777.287 4.11591 3.21544 0
M  V30 8188 H 778.981 2.52035 1.61613 0
M  V30 8189 H 776.527 1.21297 0.776082 0
M  V30 8190 H 778.48 1.63173 3.88526 0
M  V30 8191 H 777.204 0.586674 3.21288 0
M  V30 8192 H 775.863 2.61859 2.56564 0
M  V30 8193 H 775.511 1.53258 4.79083 0
M  V30 8194 H 775.211 3.28679 4.87077 0
M  V30 8195 H 776.735 2.6152 5.5176 0
M  V30 8196 H 778.149 4.20576 3.89601 0
M  V30 8197 H 776.546 4.88344 3.4877 0
M  V30 8198 H 777.616 4.32719 2.1882 0
M  V30 8199 N 778.959 -0.83999 1.33349 0
M  V30 8200 C 780.207 -1.59202 1.24496 0
M  V30 8201 C 780.528 -1.94077 -0.189499 0
M  V30 8202 O 779.798 -1.60868 -1.11796 0
M  V30 8203 H 778.378 -0.590276 0.457802 0
M  V30 8204 H 781.04 -1.00394 1.67054 0
M  V30 8205 H 780.136 -2.52247 1.83788 0
M  V30 8206 N 780.437 -1.16799 -1.0581 0
M  V30 8207 C 781.387 -0.847231 -2.11674 0
M  V30 8208 C 782.371 0.175476 -1.5994 0
M  V30 8209 O 783.563 -0.0260602 -1.76981 0
M  V30 8210 C 780.692 -0.355446 -3.41455 0
M  V30 8211 C 779.778 -1.40922 -4.00002 0
M  V30 8212 N 780.169 -2.62096 -4.32596 0
M  V30 8213 C 778.467 -1.26562 -4.27666 0
M  V30 8214 C 779.168 -3.29759 -4.79201 0
M  V30 8215 N 778.144 -2.57138 -4.78938 0
M  V30 8216 H 781.946 -1.76862 -2.34727 0
M  V30 8217 H 779.46 -1.05577 -1.23399 0
M  V30 8218 H 781.457 -0.107231 -4.16762 0
M  V30 8219 H 780.117 0.559817 -3.19838 0
M  V30 8220 H 781.128 -2.99113 -4.22791 0
M  V30 8221 H 777.805 -0.411503 -4.15467 0
M  V30 8222 H 779.195 -4.33222 -5.13584 0
M  V30 8223 N 781.915 1.24427 -0.967243 0
M  V30 8224 C 783.163 1.92107 -0.627638 0
M  V30 8225 C 783.484 1.75991 0.83978 0
M  V30 8226 O 782.754 1.13118 1.59941 0
M  V30 8227 H 781.334 0.710986 -0.229145 0
M  V30 8228 H 783.996 1.51331 -1.22821 0
M  V30 8229 H 783.092 2.99791 -0.867844 0
M  V30 8230 N 783.393 0.737304 1.3929 0
M  V30 8231 C 784.618 0.295237 2.05288 0
M  V30 8232 C 785.043 -1.06235 1.55228 0
M  V30 8233 O 784.401 -1.67365 0.697043 0
M  V30 8234 C 784.449 0.309146 3.59272 0
M  V30 8235 O 783.553 -0.702437 4.06374 0
M  V30 8236 H 782.894 0.133762 0.650387 0
M  V30 8237 H 785.424 1.00387 1.78279 0
M  V30 8238 H 785.434 0.154336 4.07708 0
M  V30 8239 H 784.109 1.29974 3.95069 0
M  V30 8240 H 782.686 -0.513574 3.69346 0
M  V30 8241 N 784.871 -1.49948 0.485112 0
M  V30 8242 C 786.118 -2.02396 -0.0650059 0
M  V30 8243 C 786.446 -1.36606 -1.38452 0
M  V30 8244 O 785.701 -0.485476 -1.89583 0
M  V30 8245 C 786 -3.56282 -0.282434 0
M  V30 8246 C 785.666 -4.40625 0.957106 0
M  V30 8247 C 784.328 -4.63393 1.29692 0
M  V30 8248 C 786.68 -4.89799 1.78176 0
M  V30 8249 C 784.008 -5.3258 2.4612 0
M  V30 8250 C 786.36 -5.60266 2.93743 0
M  V30 8251 C 785.024 -5.81284 3.28124 0
M  V30 8252 H 784.294 -0.740618 -0.0237873 0
M  V30 8253 H 786.941 -1.80416 0.642044 0
M  V30 8254 H 785.246 -3.76853 -1.07186 0
M  V30 8255 H 786.943 -3.94442 -0.722276 0
M  V30 8256 H 783.533 -4.23133 0.682384 0
M  V30 8257 H 787.717 -4.7205 1.53239 0
M  V30 8258 H 782.973 -5.47059 2.73014 0
M  V30 8259 H 787.147 -5.97347 3.5798 0
M  V30 8260 H 784.774 -6.34671 4.18446 0
M  V30 8261 N 786.349 -0.21828 -1.56081 0
M  V30 8262 C 787.577 0.419258 -2.02608 0
M  V30 8263 C 787.992 1.53578 -1.09814 0
M  V30 8264 O 787.349 1.82185 -0.107149 0
M  V30 8265 C 787.4 0.953955 -3.48686 0
M  V30 8266 O 787.121 -0.11805 -4.37941 0
M  V30 8267 C 788.622 1.66506 -4.10841 0
M  V30 8268 H 785.842 0.10296 -0.663054 0
M  V30 8269 H 788.386 -0.333776 -2.01758 0
M  V30 8270 H 786.541 1.65727 -3.50162 0
M  V30 8271 H 786.955 0.283359 -5.23734 0
M  V30 8272 H 788.429 1.99123 -5.14834 0
M  V30 8273 H 788.906 2.57705 -3.55647 0
M  V30 8274 H 789.512 1.00703 -4.13206 0
M  V30 8275 N 787.827 1.57504 0.0551401 0
M  V30 8276 C 788.774 2.04825 1.06373 0
M  V30 8277 C 789.744 0.932108 1.37481 0
M  V30 8278 O 790.929 1.20093 1.48265 0
M  V30 8279 C 788.069 2.51091 2.36743 0
M  V30 8280 C 787.182 3.76392 2.12021 0
M  V30 8281 C 786.317 4.11373 3.36074 0
M  V30 8282 C 785.356 5.29666 3.0679 0
M  V30 8283 N 784.493 5.60205 4.2322 0
M  V30 8284 H 789.333 2.90753 0.653216 0
M  V30 8285 H 786.87 1.43776 0.310951 0
M  V30 8286 H 788.828 2.75973 3.12881 0
M  V30 8287 H 787.458 1.68118 2.75565 0
M  V30 8288 H 786.51 3.58751 1.26498 0
M  V30 8289 H 787.822 4.62662 1.86401 0
M  V30 8290 H 786.976 4.37245 4.20597 0
M  V30 8291 H 785.715 3.23704 3.64784 0
M  V30 8292 H 784.72 5.03574 2.20664 0
M  V30 8293 H 785.945 6.18968 2.79385 0
M  V30 8294 H 783.891 4.75495 4.5193 0
M  V30 8295 H 783.808 6.40928 4.00933 0
M  V30 8296 H 785.076 5.90637 5.08692 0
M  V30 8297 N 789.305 -0.326896 1.54172 0
M  V30 8298 C 790.554 -1.06274 1.71431 0
M  V30 8299 C 790.867 -1.89282 0.493123 0
M  V30 8300 O 792.073 -2.65933 0.54699 0
M  V30 8301 C 790.529 -1.93892 3.03206 0
M  V30 8302 C 790.137 -1.16011 4.32719 0
M  V30 8303 C 791.881 -2.67232 3.29829 0
M  V30 8304 C 789.788 -2.02755 5.55558 0
M  V30 8305 H 788.718 -0.400475 0.638855 0
M  V30 8306 H 791.369 -0.321184 1.80667 0
M  V30 8307 H 789.751 -2.71933 2.87869 0
M  V30 8308 H 790.925 -0.427643 4.58811 0
M  V30 8309 H 789.24 -0.54367 4.12836 0
M  V30 8310 H 791.837 -3.32434 4.18798 0
M  V30 8311 H 792.18 -3.34692 2.47562 0
M  V30 8312 H 792.713 -1.96255 3.46018 0
M  V30 8313 H 789.452 -1.3981 6.40417 0
M  V30 8314 H 788.972 -2.73745 5.33689 0
M  V30 8315 H 790.651 -2.61419 5.91835 0
M  V30 8316 N 790.784 -1.46188 -0.588786 0
M  V30 8317 C 792.014 -1.54519 -1.3714 0
M  V30 8318 C 792.422 -0.183075 -1.88312 0
M  V30 8319 O 791.765 0.828815 -1.6394 0
M  V30 8320 C 791.827 -2.48426 -2.59856 0
M  V30 8321 C 791.491 -3.94791 -2.30193 0
M  V30 8322 C 792.488 -4.84173 -1.894 0
M  V30 8323 C 790.173 -4.39872 -2.42525 0
M  V30 8324 C 792.167 -6.16647 -1.61325 0
M  V30 8325 C 789.854 -5.72381 -2.14063 0
M  V30 8326 C 790.852 -6.60589 -1.73527 0
M  V30 8327 O 790.54 -7.9064 -1.4541 0
M  V30 8328 H 790.272 -0.525264 -0.425527 0
M  V30 8329 H 792.826 -1.92242 -0.723344 0
M  V30 8330 H 791.056 -2.05709 -3.27446 0
M  V30 8331 H 792.745 -2.4723 -3.21919 0
M  V30 8332 H 793.511 -4.50603 -1.79393 0
M  V30 8333 H 789.39 -3.71444 -2.7304 0
M  V30 8334 H 792.934 -6.85454 -1.29611 0
M  V30 8335 H 788.831 -6.05501 -2.23693 0
M  V30 8336 H 789.599 -8.02847 -1.59306 0
M  V30 8337 N 792.262 0.832906 -1.33792 0
M  V30 8338 C 793.678 1.1245 -1.13257 0
M  V30 8339 C 793.878 2.01369 0.0725832 0
M  V30 8340 O 792.934 2.41071 0.751082 0
M  V30 8341 C 794.247 1.78084 -2.42294 0
M  V30 8342 C 795.795 1.90624 -2.48257 0
M  V30 8343 C 796.27 2.59673 -3.77271 0
M  V30 8344 N 797.761 2.67181 -3.78376 0
M  V30 8345 C 798.496 3.21313 -4.74916 0
M  V30 8346 N 797.992 3.76086 -5.81835 0
M  V30 8347 N 799.785 3.19621 -4.62384 0
M  V30 8348 H 791.936 0.241244 -2.11026 0
M  V30 8349 H 794.199 0.169557 -0.932713 0
M  V30 8350 H 793.905 1.20209 -3.30519 0
M  V30 8351 H 793.779 2.78049 -2.5489 0
M  V30 8352 H 796.166 2.4765 -1.60478 0
M  V30 8353 H 796.247 0.89591 -2.39598 0
M  V30 8354 H 795.891 2.03304 -4.65435 0
M  V30 8355 H 795.821 3.61189 -3.8321 0
M  V30 8356 H 798.312 2.28346 -3.01108 0
M  V30 8357 H 798.625 4.15612 -6.51526 0
M  V30 8358 H 796.97 3.74357 -5.85561 0
M  V30 8359 H 800.161 2.76091 -3.7801 0
M  V30 8360 H 800.334 3.61504 -5.37791 0
M  V30 8361 N 793.74 1.17359 1.05189 0
M  V30 8362 C 794.988 0.960087 1.77839 0
M  V30 8363 C 795.309 -0.512554 1.88143 0
M  V30 8364 O 794.579 -1.3721 1.39822 0
M  V30 8365 H 793.159 0.352234 0.658741 0
M  V30 8366 H 795.821 1.47834 1.27008 0
M  V30 8367 H 794.917 1.38843 2.79516 0
M  V30 8368 N 795.218 -1.23913 0.973828 0
M  V30 8369 C 796.458 -1.93889 0.647015 0
M  V30 8370 C 796.822 -1.74368 -0.803735 0
M  V30 8371 O 798.023 -2.38435 -1.24106 0
M  V30 8372 C 796.294 -3.4257 1.01885 0
M  V30 8373 S 797.853 -4.31306 0.807517 0
M  V30 8374 H 794.671 -0.670279 0.237165 0
M  V30 8375 H 797.273 -1.50144 1.25208 0
M  V30 8376 H 795.977 -3.54286 2.07146 0
M  V30 8377 H 795.508 -3.91312 0.404812 0
M  V30 8378 H 797.523 -4.95218 -0.311986 0
M  V30 8379 N 796.696 -0.74468 -1.38897 0
M  V30 8380 C 798.112 -0.421302 -1.53939 0
M  V30 8381 C 798.312 1.06668 -1.70951 0
M  V30 8382 O 797.368 1.85278 -1.71547 0
M  V30 8383 C 798.681 -1.21278 -2.75159 0
M  V30 8384 C 800.229 -1.20196 -2.89001 0
M  V30 8385 C 800.704 -1.97621 -4.13171 0
M  V30 8386 N 802.195 -1.94836 -4.2023 0
M  V30 8387 C 802.93 -2.51545 -5.15279 0
M  V30 8388 N 802.426 -3.1693 -6.16058 0
M  V30 8389 N 804.219 -2.41524 -5.07565 0
M  V30 8390 H 796.37 -1.70914 -1.26103 0
M  V30 8391 H 798.633 -0.724058 -0.611919 0
M  V30 8392 H 798.339 -2.26609 -2.68963 0
M  V30 8393 H 798.213 -0.823677 -3.68097 0
M  V30 8394 H 800.6 -0.156742 -2.94683 0
M  V30 8395 H 800.681 -1.63051 -1.97099 0
M  V30 8396 H 800.325 -3.02149 -4.0825 0
M  V30 8397 H 800.255 -1.52166 -5.04136 0
M  V30 8398 H 802.746 -1.4721 -3.48048 0
M  V30 8399 H 803.059 -3.57644 -6.85062 0
M  V30 8400 H 801.404 -3.21023 -6.16417 0
M  V30 8401 H 804.595 -1.90077 -4.27771 0
M  V30 8402 H 804.768 -2.86016 -5.81462 0
M  V30 8403 N 798.174 1.49689 -0.493057 0
M  V30 8404 C 799.124 2.25901 0.308682 0
M  V30 8405 C 800.108 1.30408 0.94247 0
M  V30 8406 O 801.3 1.55179 0.851384 0
M  V30 8407 C 798.429 3.14463 1.37725 0
M  V30 8408 C 797.515 4.17414 0.7501 0
M  V30 8409 N 797.906 5.05599 -0.142597 0
M  V30 8410 C 796.204 4.34377 1.01159 0
M  V30 8411 C 796.905 5.7954 -0.500782 0
M  V30 8412 N 795.881 5.43446 0.129386 0
M  V30 8413 H 799.683 2.91451 -0.378652 0
M  V30 8414 H 797.197 1.59441 -0.308614 0
M  V30 8415 H 799.194 3.67687 1.965 0
M  V30 8416 H 797.854 2.50464 2.06635 0
M  V30 8417 H 798.865 5.15354 -0.512894 0
M  V30 8418 H 795.542 3.81588 1.69402 0
M  V30 8419 H 796.932 6.60534 -1.23063 0
M  V30 8420 N 799.652 0.226554 1.55963 0
M  V30 8421 C 800.562 -0.692725 2.24139 0
M  V30 8422 C 801.578 -1.20971 1.25068 0
M  V30 8423 O 802.754 -1.25027 1.57893 0
M  V30 8424 C 799.819 -1.88183 2.91184 0
M  V30 8425 C 798.88 -1.40633 4.05612 0
M  V30 8426 C 798.113 -2.53875 4.6945 0
M  V30 8427 O 798.336 -3.72129 4.32292 0
M  V30 8428 O 797.27 -2.24792 5.58348 0
M  V30 8429 H 801.096 -0.141921 3.03368 0
M  V30 8430 H 798.681 -0.0041049 1.49399 0
M  V30 8431 H 800.563 -2.57617 3.33484 0
M  V30 8432 H 799.238 -2.42064 2.14911 0
M  V30 8433 H 798.145 -0.67986 3.67871 0
M  V30 8434 H 799.478 -0.913838 4.83642 0
M  V30 8435 N 801.13 -1.57531 -0.0467866 0
M  V30 8436 C 802.376 -1.8873 -0.742218 0
M  V30 8437 C 802.709 -0.822084 -1.75941 0
M  V30 8438 O 801.984 0.164922 -1.938 0
M  V30 8439 C 802.267 -3.30586 -1.42776 0
M  V30 8440 C 802.12 -4.47785 -0.425285 0
M  V30 8441 C 803.439 -3.71068 -2.36636 0
M  V30 8442 H 800.558 -0.686406 -0.268359 0
M  V30 8443 H 803.2 -1.89999 -0.00511341 0
M  V30 8444 H 801.35 -3.29634 -2.05605 0
M  V30 8445 H 803.022 -4.60867 0.199721 0
M  V30 8446 H 801.265 -4.33037 0.25713 0
M  V30 8447 H 801.936 -5.43884 -0.943086 0
M  V30 8448 H 804.412 -3.73273 -1.83866 0
M  V30 8449 H 803.288 -4.71165 -2.81593 0
M  V30 8450 H 803.549 -3.02355 -3.22542 0
M  V30 8451 N 802.608 0.318715 -1.54344 0
M  V30 8452 C 803.854 1.05765 -1.73037 0
M  V30 8453 C 804.187 1.87514 -0.505181 0
M  V30 8454 O 803.462 1.88021 0.497838 0
M  V30 8455 C 803.745 1.97836 -3.00887 0
M  V30 8456 C 803.598 1.19384 -4.33668 0
M  V30 8457 C 804.917 2.97285 -3.24514 0
M  V30 8458 H 802.036 0.383104 -0.629603 0
M  V30 8459 H 804.678 0.333864 -1.87044 0
M  V30 8460 H 802.828 2.59552 -2.89076 0
M  V30 8461 H 804.5 0.600906 -4.57369 0
M  V30 8462 H 802.743 0.496198 -4.30953 0
M  V30 8463 H 803.414 1.87014 -5.19355 0
M  V30 8464 H 805.89 2.45693 -3.35819 0
M  V30 8465 H 804.766 3.58887 -4.15321 0
M  V30 8466 H 805.027 3.70003 -2.41971 0
M  V30 8467 N 804.086 1.46499 0.581025 0
M  V30 8468 C 805.363 1.42372 1.34125 0
M  V30 8469 C 805.743 0.108073 2.10823 0
M  V30 8470 O 805.091 -0.910366 2.09582 0
M  V30 8471 C 805.301 2.65445 2.26583 0
M  V30 8472 C 806.649 3.11664 2.88359 0
M  V30 8473 O 807.673 2.66006 2.36896 0
M  V30 8474 O 806.532 3.90974 3.81839 0
M  V30 8475 H 803.626 0.566262 0.602724 0
M  V30 8476 H 806.172 1.58667 0.601903 0
M  V30 8477 H 804.944 3.52756 1.69348 0
M  V30 8478 H 804.567 2.51618 3.07854 0
M  V30 8479 N 805.565 -0.825799 1.34232 0
M  V30 8480 C 806.813 -1.57873 1.26177 0
M  V30 8481 C 807.134 -1.94267 -0.168904 0
M  V30 8482 O 806.404 -1.62045 -1.10084 0
M  V30 8483 H 804.984 -0.585388 0.464037 0
M  V30 8484 H 807.646 -0.986163 1.6811 0
M  V30 8485 H 806.742 -2.50283 1.86453 0
M  V30 8486 N 807.043 -1.17915 -1.04565 0
M  V30 8487 C 807.953 -0.916449 -2.15959 0
M  V30 8488 C 808.969 0.117655 -1.73602 0
M  V30 8489 O 810.145 -0.063089 -2.01301 0
M  V30 8490 C 807.21 -0.440262 -3.43893 0
M  V30 8491 C 806.271 -1.54172 -4.00661 0
M  V30 8492 C 805.504 -1.08816 -5.22489 0
M  V30 8493 O 805.727 0.0551547 -5.70373 0
M  V30 8494 O 804.661 -1.88383 -5.7166 0
M  V30 8495 H 808.487 -1.8484 -2.40972 0
M  V30 8496 H 806.072 -0.960552 -1.14428 0
M  V30 8497 H 807.954 -0.182537 -4.21004 0
M  V30 8498 H 806.629 0.46346 -3.20365 0
M  V30 8499 H 805.536 -1.85341 -3.24961 0
M  V30 8500 H 806.869 -2.42139 -4.2852 0
M  V30 8501 N 808.521 1.23394 -0.980386 0
M  V30 8502 C 809.484 2.23092 -0.525619 0
M  V30 8503 C 810.484 1.56129 0.384745 0
M  V30 8504 O 811.674 1.73284 0.178439 0
M  V30 8505 C 808.806 3.40074 0.23712 0
M  V30 8506 H 809.999 2.64839 -1.40714 0
M  V30 8507 H 807.552 1.36227 -0.766275 0
M  V30 8508 H 808.287 3.03783 1.13518 0
M  V30 8509 H 808.072 3.89883 -0.416356 0
M  V30 8510 H 809.562 4.14043 0.543892 0
M  V30 8511 N 809.999 0.752036 1.385 0
M  V30 8512 C 811.415 0.42946 1.53713 0
M  V30 8513 C 811.615 -1.0576 1.71514 0
M  V30 8514 O 810.671 -1.84366 1.72527 0
M  V30 8515 C 811.984 1.22735 2.74511 0
M  V30 8516 C 813.532 1.21727 2.8836 0
M  V30 8517 C 814.007 1.99809 4.12117 0
M  V30 8518 N 815.498 1.97062 4.19191 0
M  V30 8519 C 816.233 2.54274 5.13938 0
M  V30 8520 N 815.729 3.20193 6.14368 0
M  V30 8521 N 817.522 2.44212 5.06277 0
M  V30 8522 H 809.673 1.71581 1.25195 0
M  V30 8523 H 811.936 0.727293 0.60807 0
M  V30 8524 H 811.642 2.28032 2.67758 0
M  V30 8525 H 811.516 0.843186 3.67655 0
M  V30 8526 H 813.903 0.172367 2.94596 0
M  V30 8527 H 813.984 1.64094 1.96232 0
M  V30 8528 H 813.628 3.0431 4.06642 0
M  V30 8529 H 813.558 1.54837 5.03322 0
M  V30 8530 H 816.049 1.49054 3.47263 0
M  V30 8531 H 816.362 3.61272 6.83156 0
M  V30 8532 H 814.707 3.24287 6.14705 0
M  V30 8533 H 817.898 1.92343 4.26757 0
M  V30 8534 H 818.071 2.89096 5.79937 0
M  V30 8535 N 811.477 -1.49425 0.500989 0
M  V30 8536 C 812.424 -2.29126 -0.277443 0
M  V30 8537 C 813.394 -1.35522 -0.960363 0
M  V30 8538 O 814.579 -1.64479 -0.967027 0
M  V30 8539 C 811.719 -3.18193 -1.33593 0
M  V30 8540 C 810.832 -4.26854 -0.664791 0
M  V30 8541 C 809.967 -5.03137 -1.70372 0
M  V30 8542 C 809.006 -6.03635 -1.01445 0
M  V30 8543 N 808.143 -6.73083 -1.99758 0
M  V30 8544 H 812.983 -2.95187 0.408458 0
M  V30 8545 H 810.52 -1.45546 0.213275 0
M  V30 8546 H 812.478 -3.68207 -1.96161 0
M  V30 8547 H 811.108 -2.54116 -1.9906 0
M  V30 8548 H 810.16 -3.80328 0.0741708 0
M  V30 8549 H 811.472 -4.9865 -0.122197 0
M  V30 8550 H 810.626 -5.5702 -2.40445 0
M  V30 8551 H 809.365 -4.31114 -2.28017 0
M  V30 8552 H 808.37 -5.48984 -0.299496 0
M  V30 8553 H 809.595 -6.77644 -0.444497 0
M  V30 8554 H 807.541 -6.03832 -2.56365 0
M  V30 8555 H 807.458 -7.40855 -1.50565 0
M  V30 8556 H 808.726 -7.3157 -2.69119 0
M  V30 8557 N 812.955 -0.234822 -1.55841 0
M  V30 8558 C 814.183 0.397745 -2.03041 0
M  V30 8559 C 814.598 1.52405 -1.11437 0
M  V30 8560 O 813.955 1.82061 -0.126466 0
M  V30 8561 C 814.006 0.916919 -3.49678 0
M  V30 8562 O 813.727 -0.164493 -4.37791 0
M  V30 8563 C 815.228 1.62139 -4.12584 0
M  V30 8564 H 812.448 0.0959214 -0.664108 0
M  V30 8565 H 814.992 -0.355156 -2.01392 0
M  V30 8566 H 813.147 1.62004 -3.519 0
M  V30 8567 H 813.561 0.227794 -5.24005 0
M  V30 8568 H 815.035 1.93651 -5.16917 0
M  V30 8569 H 815.512 2.53918 -3.58361 0
M  V30 8570 H 816.118 0.963145 -4.14251 0
M  V30 8571 N 814.433 1.57553 0.0384317 0
M  V30 8572 C 815.343 2.09333 1.0591 0
M  V30 8573 C 816.359 1.0299 1.40247 0
M  V30 8574 O 817.535 1.34669 1.49754 0
M  V30 8575 C 814.6 2.55468 2.34386 0
M  V30 8576 C 813.661 3.76254 2.06716 0
M  V30 8577 C 812.894 4.20179 3.29067 0
M  V30 8578 O 813.117 3.637 4.39407 0
M  V30 8579 O 812.051 5.12697 3.15317 0
M  V30 8580 H 815.877 2.96683 0.649087 0
M  V30 8581 H 813.462 1.47211 0.254802 0
M  V30 8582 H 815.344 2.85514 3.09935 0
M  V30 8583 H 814.019 1.71234 2.74701 0
M  V30 8584 H 812.926 3.51241 1.28766 0
M  V30 8585 H 814.259 4.61443 1.71263 0
M  V30 8586 N 815.911 -0.310526 1.54511 0
M  V30 8587 C 817.157 -1.04846 1.73595 0
M  V30 8588 C 817.49 -1.87244 0.515118 0
M  V30 8589 O 816.765 -1.88282 -0.48786 0
M  V30 8590 C 817.048 -1.96237 3.01932 0
M  V30 8591 C 816.901 -1.17082 4.34295 0
M  V30 8592 C 818.22 -2.9556 3.26086 0
M  V30 8593 H 815.339 -0.37976 0.631626 0
M  V30 8594 H 817.981 -0.32394 1.87218 0
M  V30 8595 H 816.131 -2.58015 2.90449 0
M  V30 8596 H 817.803 -0.576643 4.57682 0
M  V30 8597 H 816.046 -0.473336 4.3121 0
M  V30 8598 H 816.717 -1.84257 5.20339 0
M  V30 8599 H 819.193 -2.43908 3.37117 0
M  V30 8600 H 818.069 -3.5668 4.17218 0
M  V30 8601 H 818.33 -3.68715 2.4393 0
M  V30 8602 N 817.389 -1.46805 -0.573248 0
M  V30 8603 C 818.319 -1.60951 -1.69165 0
M  V30 8604 C 819.3 -0.45948 -1.63777 0
M  V30 8605 O 820.485 -0.68688 -1.81647 0
M  V30 8606 C 817.615 -1.60844 -3.07809 0
M  V30 8607 C 816.569 -2.74913 -3.28035 0
M  V30 8608 C 815.895 -2.59871 -4.67302 0
M  V30 8609 C 817.195 -4.16654 -3.14955 0
M  V30 8610 H 818.889 -2.54574 -1.57582 0
M  V30 8611 H 816.435 -1.22516 -0.756686 0
M  V30 8612 H 818.388 -1.69334 -3.85881 0
M  V30 8613 H 817.112 -0.637714 -3.20314 0
M  V30 8614 H 815.771 -2.65908 -2.52366 0
M  V30 8615 H 815.419 -1.60861 -4.76585 0
M  V30 8616 H 815.119 -3.36386 -4.81786 0
M  V30 8617 H 816.643 -2.70265 -5.4753 0
M  V30 8618 H 818.057 -4.26721 -3.82861 0
M  V30 8619 H 816.454 -4.93831 -3.40956 0
M  V30 8620 H 817.524 -4.36146 -2.11908 0
M  V30 8621 N 818.867 0.818669 -1.34668 0
M  V30 8622 C 819.797 1.94468 -1.29245 0
M  V30 8623 C 820.778 1.69257 -0.169101 0
M  V30 8624 O 821.963 1.90794 -0.362143 0
M  V30 8625 C 819.093 3.31001 -1.05145 0
M  V30 8626 C 818.047 3.70663 -2.13992 0
M  V30 8627 C 817.373 5.05226 -1.75074 0
M  V30 8628 C 818.673 3.82312 -3.55858 0
M  V30 8629 H 820.367 1.99263 -2.2346 0
M  V30 8630 H 817.913 0.957304 -1.07572 0
M  V30 8631 H 819.866 4.09364 -0.999949 0
M  V30 8632 H 818.59 3.26517 -0.0737312 0
M  V30 8633 H 817.249 2.94578 -2.18219 0
M  V30 8634 H 816.897 4.97233 -0.759518 0
M  V30 8635 H 816.597 5.32734 -2.47928 0
M  V30 8636 H 818.121 5.86042 -1.71427 0
M  V30 8637 H 819.535 4.50935 -3.5402 0
M  V30 8638 H 817.932 4.21278 -4.2737 0
M  V30 8639 H 819.002 2.84193 -3.9289 0
M  V30 8640 N 820.346 1.18468 1.03938 0
M  V30 8641 C 821.293 0.912859 2.1198 0
M  V30 8642 C 822.263 -0.14824 1.65437 0
M  V30 8643 O 823.448 -0.008331 1.90798 0
M  V30 8644 C 820.588 0.446114 3.42204 0
M  V30 8645 C 819.701 1.57278 4.02353 0
M  V30 8646 C 818.836 1.05863 5.20544 0
M  V30 8647 C 817.875 2.1599 5.72726 0
M  V30 8648 N 817.012 1.65959 6.82204 0
M  V30 8649 H 821.852 1.83798 2.34569 0
M  V30 8650 H 819.389 0.916504 1.15059 0
M  V30 8651 H 821.347 0.15697 4.16905 0
M  V30 8652 H 819.977 -0.442025 3.19759 0
M  V30 8653 H 819.029 1.97737 3.24968 0
M  V30 8654 H 820.341 2.40289 4.37107 0
M  V30 8655 H 819.495 0.724087 6.02364 0
M  V30 8656 H 818.234 0.198116 4.87297 0
M  V30 8657 H 817.239 2.50287 4.89527 0
M  V30 8658 H 818.464 3.02479 6.08016 0
M  V30 8659 H 816.41 0.82199 6.5083 0
M  V30 8660 H 816.327 2.42567 7.16029 0
M  V30 8661 H 817.595 1.35436 7.67644 0
M  V30 8662 N 821.824 -1.22873 0.986916 0
M  V30 8663 C 823.07 -1.91746 0.660401 0
M  V30 8664 C 823.403 -1.76738 -0.804812 0
M  V30 8665 O 822.678 -1.13246 -1.58131 0
M  V30 8666 C 822.961 -3.44156 1.05966 0
M  V30 8667 C 822.814 -3.68242 2.58298 0
M  V30 8668 C 824.133 -4.35874 0.60842 0
M  V30 8669 H 821.252 -0.696347 0.241391 0
M  V30 8670 H 823.894 -1.44867 1.22937 0
M  V30 8671 H 822.044 -3.84213 0.575534 0
M  V30 8672 H 823.716 -3.37626 3.14335 0
M  V30 8673 H 821.959 -3.12728 3.00638 0
M  V30 8674 H 822.63 -4.74956 2.81285 0
M  V30 8675 H 825.106 -4.03299 1.02417 0
M  V30 8676 H 823.982 -5.41201 0.916142 0
M  V30 8677 H 824.243 -4.39364 -0.491086 0
M  V30 8678 N 823.302 -0.75937 -1.38099 0
M  V30 8679 C 824.235 -0.0838362 -2.28046 0
M  V30 8680 C 825.213 0.722229 -1.4568 0
M  V30 8681 O 826.397 0.699629 -1.75036 0
M  V30 8682 C 823.524 0.887916 -3.26854 0
M  V30 8683 C 822.57 0.167374 -4.26171 0
M  V30 8684 S 823.403 -1.13592 -5.23314 0
M  V30 8685 C 824.559 -0.167385 -6.25676 0
M  V30 8686 H 824.792 -0.846564 -2.84992 0
M  V30 8687 H 822.325 -0.552206 -1.44188 0
M  V30 8688 H 824.283 1.44322 -3.84293 0
M  V30 8689 H 822.944 1.62366 -2.68879 0
M  V30 8690 H 822.137 0.903567 -4.95834 0
M  V30 8691 H 821.739 -0.316572 -3.72658 0
M  V30 8692 H 824.031 0.664598 -6.74232 0
M  V30 8693 H 824.974 -0.831836 -7.03197 0
M  V30 8694 H 825.382 0.21589 -5.64087 0
M  V30 8695 N 824.78 1.49157 -0.508906 0
M  V30 8696 C 826.057 1.95363 0.0961913 0
M  V30 8697 C 826.437 1.45064 1.53362 0
M  V30 8698 O 825.785 0.667835 2.18523 0
M  V30 8699 C 825.995 3.49 0.000688881 0
M  V30 8700 C 827.343 4.24257 0.170632 0
M  V30 8701 O 828.367 3.5612 0.0754994 0
M  V30 8702 O 827.226 5.45267 0.366957 0
M  V30 8703 H 824.32 0.821984 0.0909489 0
M  V30 8704 H 826.866 1.59769 -0.572007 0
M  V30 8705 H 825.638 3.78269 -1.00143 0
M  V30 8706 H 825.261 3.91233 0.708682 0
M  V30 8707 N 826.258 0.243083 1.55714 0
M  V30 8708 C 827.221 -0.644723 2.19945 0
M  V30 8709 C 828.221 -1.10562 1.16759 0
M  V30 8710 O 829.411 -1.01095 1.41865 0
M  V30 8711 C 826.543 -1.88569 2.83997 0
M  V30 8712 H 827.736 -0.0843839 2.99781 0
M  V30 8713 H 825.289 -0.00647246 1.56299 0
M  V30 8714 H 826.024 -2.48736 2.08089 0
M  V30 8715 H 825.809 -1.56345 3.59581 0
M  V30 8716 H 827.299 -2.51774 3.33166 0
M  V30 8717 N 827.736 -1.57571 -0.0300757 0
M  V30 8718 C 828.683 -2.06492 -1.03101 0
M  V30 8719 C 829.653 -0.953862 -1.3598 0
M  V30 8720 O 830.838 -1.22436 -1.46335 0
M  V30 8721 C 827.978 -2.54826 -2.32718 0
M  V30 8722 C 827.091 -3.79718 -2.06006 0
M  V30 8723 C 826.226 -4.16668 -3.29487 0
M  V30 8724 C 825.265 -5.3448 -2.98324 0
M  V30 8725 N 824.402 -5.66867 -4.14254 0
M  V30 8726 H 829.242 -2.91755 -0.606877 0
M  V30 8727 H 826.779 -1.44252 -0.288038 0
M  V30 8728 H 828.737 -2.80916 -3.08451 0
M  V30 8729 H 827.367 -1.72481 -2.72856 0
M  V30 8730 H 826.419 -3.60718 -1.20774 0
M  V30 8731 H 827.731 -4.65569 -1.79017 0
M  V30 8732 H 826.885 -4.43881 -4.13588 0
M  V30 8733 H 825.624 -3.29466 -3.59588 0
M  V30 8734 H 824.629 -5.07021 -2.12625 0
M  V30 8735 H 825.854 -6.23334 -2.69502 0
M  V30 8736 H 823.8 -4.82625 -4.44308 0
M  V30 8737 H 823.717 -6.47226 -3.90685 0
M  V30 8738 H 824.985 -5.98656 -4.99231 0
M  V30 8739 N 829.214 0.302327 -1.54673 0
M  V30 8740 C 830.164 1.37443 -1.81916 0
M  V30 8741 C 831.148 1.45999 -0.676251 0
M  V30 8742 O 832.34 1.50174 -0.93685 0
M  V30 8743 C 829.469 2.73966 -2.06876 0
M  V30 8744 C 828.555 2.69637 -3.27348 0
M  V30 8745 N 828.946 2.34926 -4.47933 0
M  V30 8746 C 827.244 3.00742 -3.29348 0
M  V30 8747 C 827.945 2.39862 -5.29944 0
M  V30 8748 N 826.921 2.77163 -4.67634 0
M  V30 8749 H 830.723 1.09567 -2.72713 0
M  V30 8750 H 828.237 0.5109 -1.54154 0
M  V30 8751 H 830.234 3.51265 -2.2454 0
M  V30 8752 H 828.894 3.02754 -1.17346 0
M  V30 8753 H 829.905 2.07403 -4.74557 0
M  V30 8754 H 826.582 3.34434 -2.49921 0
M  V30 8755 H 827.972 2.15835 -6.3629 0
M  V30 8756 N 830.692 1.47107 0.565454 0
M  V30 8757 C 831.639 1.58974 1.6732 0
M  V30 8758 C 832.609 0.433146 1.60353 0
M  V30 8759 O 833.794 0.652141 1.79309 0
M  V30 8760 C 830.934 1.60224 3.05651 0
M  V30 8761 C 830.047 2.86741 3.23116 0
M  V30 8762 C 829.182 2.79381 4.51796 0
M  V30 8763 C 828.221 4.0076 4.62664 0
M  V30 8764 N 827.358 3.91685 5.8269 0
M  V30 8765 H 832.198 2.53588 1.56515 0
M  V30 8766 H 829.735 1.25791 0.762558 0
M  V30 8767 H 831.693 1.58933 3.85741 0
M  V30 8768 H 830.323 0.691285 3.15311 0
M  V30 8769 H 829.375 2.97936 2.36513 0
M  V30 8770 H 830.687 3.7665 3.27011 0
M  V30 8771 H 829.841 2.76293 5.40136 0
M  V30 8772 H 828.58 1.87142 4.50366 0
M  V30 8773 H 827.585 4.04162 3.72738 0
M  V30 8774 H 828.81 4.94117 4.6586 0
M  V30 8775 H 826.756 3.02243 5.82224 0
M  V30 8776 H 826.673 4.75264 5.87929 0
M  V30 8777 H 827.941 3.92599 6.73414 0
M  V30 8778 N 832.17 -0.811516 1.35101 0
M  V30 8779 C 833.118 -1.94449 1.27642 0
M  V30 8780 C 834.112 -1.68522 0.172287 0
M  V30 8781 O 835.318 -1.76799 0.337967 0
M  V30 8782 H 831.693 -0.638776 0.396824 0
M  V30 8783 H 833.664 -1.97861 2.23369 0
M  V30 8784 C 832.413 -3.31139 1.06029 0
M  V30 8785 H 831.736 -3.51644 1.90227 0
M  V30 8786 H 833.176 -4.10831 1.0485 0
M  V30 8787 C 831.635 -3.36072 -0.236039 0
M  V30 8788 O 832.165 -3.82292 -1.23353 0
M  V30 8789 N 830.371 -2.89314 -0.273107 0
M  V30 8790 H 829.918 -2.51893 0.539211 0
M  V30 8791 H 829.876 -2.92996 -1.1402 0
M  V30 8792 N 833.648 -1.19017 -1.03309 0
M  V30 8793 C 834.888 -1.00129 -1.78195 0
M  V30 8794 C 835.252 0.460236 -1.86402 0
M  V30 8795 O 836.453 0.768802 -2.57571 0
M  V30 8796 C 834.724 -1.64703 -3.17187 0
M  V30 8797 S 836.283 -1.60695 -4.08317 0
M  V30 8798 H 833.101 -0.359395 -0.613479 0
M  V30 8799 H 835.703 -1.51293 -1.23818 0
M  V30 8800 H 834.407 -2.70283 -3.08829 0
M  V30 8801 H 833.938 -1.136 -3.76641 0
M  V30 8802 H 835.953 -0.628171 -4.92208 0
M  V30 8803 N 835.127 1.22348 -0.993418 0
M  V30 8804 C 836.06 2.22898 -0.489073 0
M  V30 8805 C 837.038 1.56222 0.450927 0
M  V30 8806 O 838.222 1.84705 0.376351 0
M  V30 8807 C 835.349 3.37448 0.290946 0
M  V30 8808 C 834.395 4.22328 -0.595123 0
M  V30 8809 S 835.228 4.94677 -2.05072 0
M  V30 8810 C 836.384 6.12667 -1.28021 0
M  V30 8811 H 836.617 2.65333 -1.34111 0
M  V30 8812 H 834.15 1.32032 -0.800429 0
M  V30 8813 H 836.108 4.03867 0.734944 0
M  V30 8814 H 834.769 2.93519 1.11826 0
M  V30 8815 H 833.962 5.04 0.00507413 0
M  V30 8816 H 833.564 3.61043 -0.975906 0
M  V30 8817 H 835.856 6.75279 -0.548129 0
M  V30 8818 H 836.799 6.771 -2.07223 0
M  V30 8819 H 837.207 5.58898 -0.793272 0
M  V30 8820 N 836.605 0.766683 1.37694 0
M  V30 8821 C 837.515 0.150158 2.34119 0
M  V30 8822 C 838.531 -0.685513 1.59927 0
M  V30 8823 O 839.707 -0.606616 1.92047 0
M  V30 8824 C 836.772 -0.722562 3.39087 0
M  V30 8825 C 835.833 0.128983 4.29106 0
M  V30 8826 C 835.066 -0.702178 5.29061 0
M  V30 8827 O 835.289 -1.93954 5.36412 0
M  V30 8828 O 834.223 -0.114056 6.01792 0
M  V30 8829 H 838.049 0.946829 2.88563 0
M  V30 8830 H 835.634 0.527765 1.39768 0
M  V30 8831 H 837.516 -1.22095 4.03325 0
M  V30 8832 H 836.191 -1.49751 2.86978 0
M  V30 8833 H 835.098 0.673612 3.67985 0
M  V30 8834 H 836.431 0.866892 4.84506 0
M  V30 8835 N 838.083 -1.48885 0.516809 0
M  V30 8836 C 839.308 -2.0739 -0.0205201 0
M  V30 8837 C 839.733 -1.37259 -1.28614 0
M  V30 8838 O 839.091 -0.434304 -1.76021 0
M  V30 8839 C 839.139 -3.59793 -0.24104 0
M  V30 8840 O 838.243 -3.90957 -1.31251 0
M  V30 8841 H 837.584 -0.663167 0.0332564 0
M  V30 8842 H 840.114 -1.91477 0.720956 0
M  V30 8843 H 840.124 -4.0531 -0.467737 0
M  V30 8844 H 838.799 -4.10244 0.68356 0
M  V30 8845 H 837.376 -3.57234 -1.06951 0
M  V30 8846 N 839.561 -0.251338 -1.55583 0
M  V30 8847 C 840.808 0.372169 -1.99051 0
M  V30 8848 C 841.136 1.57623 -1.13953 0
M  V30 8849 O 840.391 1.94762 -0.191398 0
M  V30 8850 C 840.69 0.821186 -3.47838 0
M  V30 8851 C 840.356 -0.275608 -4.50057 0
M  V30 8852 C 839.018 -0.57683 -4.7773 0
M  V30 8853 C 841.37 -1.01585 -5.11204 0
M  V30 8854 C 838.698 -1.62229 -5.63825 0
M  V30 8855 C 841.05 -2.05087 -5.98433 0
M  V30 8856 C 839.714 -2.35869 -6.24437 0
M  V30 8857 H 838.984 0.136186 -0.728378 0
M  V30 8858 H 841.631 -0.360089 -1.88084 0
M  V30 8859 H 839.936 1.63272 -3.56159 0
M  V30 8860 H 841.633 1.31396 -3.78861 0
M  V30 8861 H 838.223 -0.030697 -4.28589 0
M  V30 8862 H 842.407 -0.79639 -4.89869 0
M  V30 8863 H 837.663 -1.86607 -5.82226 0
M  V30 8864 H 841.837 -2.62934 -6.44855 0
M  V30 8865 H 839.464 -3.17017 -6.90944 0
M  V30 8866 N 841.039 1.57585 0.0217189 0
M  V30 8867 C 841.969 2.10073 1.01939 0
M  V30 8868 C 842.95 1.0049 1.37243 0
M  V30 8869 O 844.135 1.28055 1.45999 0
M  V30 8870 C 841.265 2.58618 2.31806 0
M  V30 8871 C 840.219 3.72531 2.10724 0
M  V30 8872 C 839.545 4.07309 3.46415 0
M  V30 8873 C 840.845 5.00672 1.48743 0
M  V30 8874 H 842.539 2.9368 0.582432 0
M  V30 8875 H 840.085 1.41277 0.278715 0
M  V30 8876 H 842.038 2.9396 3.01936 0
M  V30 8877 H 840.762 1.72104 2.77575 0
M  V30 8878 H 839.421 3.37549 1.43025 0
M  V30 8879 H 839.069 3.17851 3.89846 0
M  V30 8880 H 838.769 4.84042 3.33132 0
M  V30 8881 H 840.293 4.45192 4.17895 0
M  V30 8882 H 841.707 5.33925 2.088 0
M  V30 8883 H 840.104 5.82065 1.46013 0
M  V30 8884 H 841.174 4.82769 0.45408 0
M  V30 8885 N 842.517 -0.29412 1.54831 0
M  V30 8886 C 843.427 -1.3854 1.89325 0
M  V30 8887 C 844.443 -1.55127 0.788133 0
M  V30 8888 O 845.619 -1.6966 1.08524 0
M  V30 8889 C 842.684 -2.72809 2.13954 0
M  V30 8890 C 841.745 -2.65148 3.37631 0
M  V30 8891 C 840.978 -3.93014 3.61076 0
M  V30 8892 O 841.201 -4.927 2.87406 0
M  V30 8893 O 840.135 -3.94491 4.54599 0
M  V30 8894 H 843.961 -1.12289 2.82179 0
M  V30 8895 H 841.546 -0.490793 1.41108 0
M  V30 8896 H 843.428 -3.52238 2.31315 0
M  V30 8897 H 842.103 -2.9889 1.24285 0
M  V30 8898 H 841.01 -1.84168 3.25627 0
M  V30 8899 H 842.343 -2.4402 4.27452 0
M  V30 8900 N 843.995 -1.47404 -0.557645 0
M  V30 8901 C 844.958 -1.59411 -1.64684 0
M  V30 8902 C 845.958 -0.469244 -1.53801 0
M  V30 8903 O 847.148 -0.734298 -1.57967 0
M  V30 8904 C 844.28 -1.5382 -3.04224 0
M  V30 8905 H 845.473 -2.56504 -1.55389 0
M  V30 8906 H 843.026 -1.35588 -0.777531 0
M  V30 8907 H 843.761 -0.581 -3.19053 0
M  V30 8908 H 843.546 -2.35456 -3.13533 0
M  V30 8909 H 845.036 -1.65358 -3.83466 0
M  V30 8910 N 845.473 0.80434 -1.35529 0
M  V30 8911 C 846.436 1.89788 -1.28503 0
M  V30 8912 C 847.436 1.59601 -0.195983 0
M  V30 8913 O 848.626 1.68292 -0.449827 0
M  V30 8914 C 845.758 3.26255 -0.98847 0
M  V30 8915 H 846.951 1.97436 -2.25741 0
M  V30 8916 H 844.504 1.00046 -1.20086 0
M  V30 8917 H 845.239 3.24294 -0.0200541 0
M  V30 8918 H 845.024 3.49551 -1.77641 0
M  V30 8919 H 846.514 4.06298 -0.964975 0
M  V30 8920 N 846.951 1.19563 1.02676 0
M  V30 8921 C 848.176 1.02556 1.80269 0
M  V30 8922 C 848.601 -0.421056 1.83327 0
M  V30 8923 O 847.959 -1.30279 1.26084 0
M  V30 8924 C 848.007 1.60165 3.23078 0
M  V30 8925 O 847.111 0.832404 4.03912 0
M  V30 8926 H 846.452 0.362354 0.556413 0
M  V30 8927 H 848.982 1.58633 1.29216 0
M  V30 8928 H 848.992 1.6347 3.7382 0
M  V30 8929 H 847.667 2.65454 3.20167 0
M  V30 8930 H 846.244 0.872768 3.62543 0
M  V30 8931 N 848.429 -1.21819 0.999893 0
M  V30 8932 C 849.359 -2.26282 0.576096 0
M  V30 8933 C 850.34 -1.65317 -0.400537 0
M  V30 8934 O 851.525 -1.92028 -0.28964 0
M  V30 8935 C 848.655 -3.47147 -0.103145 0
M  V30 8936 C 847.609 -4.20594 0.792745 0
M  V30 8937 C 846.935 -5.34696 -0.0198026 0
M  V30 8938 C 848.235 -4.78533 2.09293 0
M  V30 8939 H 849.929 -2.61984 1.4493 0
M  V30 8940 H 847.475 -1.25935 0.698316 0
M  V30 8941 H 849.428 -4.1939 -0.411068 0
M  V30 8942 H 848.152 -3.1056 -1.01094 0
M  V30 8943 H 846.811 -3.50194 1.08442 0
M  V30 8944 H 846.459 -4.94352 -0.928729 0
M  V30 8945 H 846.159 -5.84764 0.576661 0
M  V30 8946 H 847.683 -6.09752 -0.321659 0
M  V30 8947 H 849.097 -5.42682 1.8485 0
M  V30 8948 H 847.494 -5.38968 2.63881 0
M  V30 8949 H 848.564 -3.98197 2.76708 0
M  V30 8950 N 849.908 -0.773975 -1.37286 0
M  V30 8951 C 850.841 -0.108019 -2.27944 0
M  V30 8952 C 851.819 0.706737 -1.46438 0
M  V30 8953 O 853.003 0.681025 -1.75768 0
M  V30 8954 C 850.13 0.853199 -3.27778 0
M  V30 8955 C 849.176 0.122164 -4.26325 0
M  V30 8956 S 850.009 -1.19136 -5.22079 0
M  V30 8957 C 851.165 -0.233737 -6.25463 0
M  V30 8958 H 851.398 -0.876743 -2.84078 0
M  V30 8959 H 848.931 -0.567468 -1.43594 0
M  V30 8960 H 850.889 1.40238 -3.85803 0
M  V30 8961 H 849.55 1.59505 -2.70586 0
M  V30 8962 H 848.743 0.850926 -4.96765 0
M  V30 8963 H 848.345 -0.356079 -3.72301 0
M  V30 8964 H 850.637 0.59305 -6.74899 0
M  V30 8965 H 851.58 -0.906373 -7.02275 0
M  V30 8966 H 851.988 0.156048 -5.64284 0
M  V30 8967 N 851.386 1.48609 -0.524698 0
M  V30 8968 C 852.611 2.07398 0.00952139 0
M  V30 8969 C 853.036 1.37939 1.27884 0
M  V30 8970 O 852.394 0.443633 1.75788 0
M  V30 8971 C 852.442 3.59916 0.221956 0
M  V30 8972 O 851.546 3.91647 1.29175 0
M  V30 8973 H 850.887 0.662981 -0.0367729 0
M  V30 8974 H 853.417 1.91092 -0.7311 0
M  V30 8975 H 853.427 4.05552 0.446236 0
M  V30 8976 H 852.102 4.09876 -0.705306 0
M  V30 8977 H 850.679 3.57796 1.05055 0
M  V30 8978 N 852.864 0.259585 1.55447 0
M  V30 8979 C 853.796 -0.667548 2.19263 0
M  V30 8980 C 854.809 -1.12925 1.17268 0
M  V30 8981 O 855.998 -1.05384 1.44071 0
M  V30 8982 C 853.098 -1.92066 2.7922 0
M  V30 8983 C 852.271 -1.60832 4.06758 0
M  V30 8984 C 851.33 -2.71231 4.50911 0
M  V30 8985 O 850.356 -2.38077 5.17019 0
M  V30 8986 N 851.558 -4.00984 4.19752 0
M  V30 8987 H 854.323 -0.121449 2.99454 0
M  V30 8988 H 851.884 0.0800519 1.61702 0
M  V30 8989 H 853.876 -2.65186 3.0571 0
M  V30 8990 H 852.446 -2.37621 2.03113 0
M  V30 8991 H 851.666 -0.711685 3.87722 0
M  V30 8992 H 852.954 -1.37445 4.89884 0
M  V30 8993 H 852.352 -4.30748 3.66706 0
M  V30 8994 H 850.909 -4.7053 4.51048 0
M  V30 8995 N 854.342 -1.57594 -0.0133615 0
M  V30 8996 C 855.588 -1.90262 -0.702019 0
M  V30 8997 C 855.921 -0.859219 -1.74158 0
M  V30 8998 O 855.196 0.123778 -1.94106 0
M  V30 8999 C 855.479 -3.3354 -1.35732 0
M  V30 9000 C 855.332 -4.48586 -0.330208 0
M  V30 9001 C 856.651 -3.76004 -2.28712 0
M  V30 9002 H 853.77 -0.691943 -0.253739 0
M  V30 9003 H 856.412 -1.89967 0.0351894 0
M  V30 9004 H 854.562 -3.33921 -1.98567 0
M  V30 9005 H 856.234 -4.6034 0.297433 0
M  V30 9006 H 854.477 -4.32394 0.348926 0
M  V30 9007 H 855.148 -5.45762 -0.827508 0
M  V30 9008 H 857.624 -3.77089 -1.75906 0
M  V30 9009 H 856.5 -4.77032 -2.71535 0
M  V30 9010 H 856.761 -3.09129 -3.16056 0
M  V30 9011 N 855.82 0.285905 -1.54985 0
M  V30 9012 C 857.045 1.04207 -1.7932 0
M  V30 9013 C 857.47 1.79622 -0.558343 0
M  V30 9014 O 856.828 1.74506 0.491661 0
M  V30 9015 C 856.876 1.98648 -3.0095 0
M  V30 9016 O 855.98 3.07207 -2.75132 0
M  V30 9017 H 855.321 0.298596 -0.593074 0
M  V30 9018 H 857.851 0.318736 -2.02102 0
M  V30 9019 H 857.861 2.4084 -3.29333 0
M  V30 9020 H 856.536 1.43167 -3.90482 0
M  V30 9021 H 855.113 2.69423 -2.57809 0
M  V30 9022 N 857.298 1.47698 0.54982 0
M  V30 9023 C 858.528 1.58101 1.32995 0
M  V30 9024 C 858.936 0.232939 1.87761 0
M  V30 9025 O 858.279 -0.785058 1.6608 0
M  V30 9026 C 858.341 2.55228 2.53178 0
M  V30 9027 C 858.005 4.00756 2.19645 0
M  V30 9028 C 859.002 4.89025 1.76496 0
M  V30 9029 C 856.687 4.46147 2.30777 0
M  V30 9030 C 858.681 6.20707 1.44919 0
M  V30 9031 C 856.368 5.77856 1.98812 0
M  V30 9032 C 857.366 6.64957 1.55952 0
M  V30 9033 O 857.054 7.94217 1.24396 0
M  V30 9034 H 856.786 0.536362 0.411451 0
M  V30 9035 H 859.34 1.94092 0.67212 0
M  V30 9036 H 857.57 2.14319 3.21876 0
M  V30 9037 H 859.259 2.55678 3.15251 0
M  V30 9038 H 860.025 4.55201 1.67383 0
M  V30 9039 H 855.904 3.78552 2.63096 0
M  V30 9040 H 859.448 6.88649 1.11392 0
M  V30 9041 H 855.345 6.11219 2.0756 0
M  V30 9042 H 856.113 8.06789 1.37964 0
M  V30 9043 N 858.776 -0.797141 1.35954 0
M  V30 9044 C 860.192 -1.09408 1.16198 0
M  V30 9045 C 860.392 -2.01491 -0.0191682 0
M  V30 9046 O 859.448 -2.42977 -0.686902 0
M  V30 9047 C 860.761 -1.71597 2.46931 0
M  V30 9048 C 862.309 -1.83974 2.53224 0
M  V30 9049 C 862.784 -2.49579 3.84024 0
M  V30 9050 N 864.275 -2.57055 3.85327 0
M  V30 9051 C 865.01 -3.08608 4.83268 0
M  V30 9052 N 864.506 -3.60527 5.91601 0
M  V30 9053 N 866.299 -3.07249 4.70696 0
M  V30 9054 H 858.45 -0.185209 2.11591 0
M  V30 9055 H 860.713 -0.144768 0.936881 0
M  V30 9056 H 860.419 -1.11404 3.3359 0
M  V30 9057 H 860.293 -2.71193 2.62172 0
M  V30 9058 H 862.68 -2.43308 1.66988 0
M  V30 9059 H 862.761 -0.83207 2.41889 0
M  V30 9060 H 862.405 -1.90892 4.70662 0
M  V30 9061 H 862.335 -3.50902 3.92651 0
M  V30 9062 H 864.826 -2.20283 3.07057 0
M  V30 9063 H 865.139 -3.98192 6.62317 0
M  V30 9064 H 863.484 -3.587 5.95281 0
M  V30 9065 H 866.675 -2.65972 3.85197 0
M  V30 9066 H 866.848 -3.47119 5.47186 0
M  V30 9067 N 860.254 -1.20106 -1.0204 0
M  V30 9068 C 861.204 -0.914145 -2.08872 0
M  V30 9069 C 862.188 0.124503 -1.60418 0
M  V30 9070 O 863.38 -0.0823521 -1.76808 0
M  V30 9071 C 860.509 -0.463897 -3.40151 0
M  V30 9072 C 859.595 -1.53576 -3.95317 0
M  V30 9073 N 859.986 -2.75726 -4.24038 0
M  V30 9074 C 858.284 -1.40103 -4.23423 0
M  V30 9075 C 858.985 -3.44838 -4.68468 0
M  V30 9076 N 857.961 -2.72245 -4.70514 0
M  V30 9077 H 861.763 -1.8424 -2.28982 0
M  V30 9078 H 859.277 -1.0945 -1.19977 0
M  V30 9079 H 861.274 -0.239766 -4.1621 0
M  V30 9080 H 859.934 0.457779 -3.21457 0
M  V30 9081 H 860.945 -3.12412 -4.13061 0
M  V30 9082 H 857.622 -0.543472 -4.13948 0
M  V30 9083 H 859.012 -4.49342 -4.99541 0
M  V30 9084 N 861.732 1.21287 -1.00634 0
M  V30 9085 C 862.662 2.25973 -0.588089 0
M  V30 9086 C 863.643 1.65527 0.391764 0
M  V30 9087 O 864.828 1.92179 0.279452 0
M  V30 9088 C 861.958 3.47197 0.0847336 0
M  V30 9089 C 860.912 4.20168 -0.815039 0
M  V30 9090 C 860.238 5.34699 -0.00855393 0
M  V30 9091 C 861.538 4.77416 -2.11828 0
M  V30 9092 H 863.232 2.61212 -1.46317 0
M  V30 9093 H 860.778 1.25563 -0.704985 0
M  V30 9094 H 862.731 4.19602 0.388821 0
M  V30 9095 H 861.455 3.11092 0.994456 0
M  V30 9096 H 860.114 3.49614 -1.10297 0
M  V30 9097 H 859.762 4.94837 0.902499 0
M  V30 9098 H 859.462 5.84449 -0.607664 0
M  V30 9099 H 860.986 6.09914 0.289317 0
M  V30 9100 H 862.4 5.41694 -1.87725 0
M  V30 9101 H 860.797 5.37561 -2.66736 0
M  V30 9102 H 861.867 3.96724 -2.78816 0
M  V30 9103 N 863.21 0.781244 1.36873 0
M  V30 9104 C 864.456 0.350407 1.9975 0
M  V30 9105 C 864.789 -1.07293 1.6187 0
M  V30 9106 O 864.064 -1.73983 0.869491 0
M  V30 9107 C 864.347 0.504834 3.56544 0
M  V30 9108 C 864.2 1.97127 4.04303 0
M  V30 9109 C 865.519 -0.0851272 4.40018 0
M  V30 9110 H 862.638 0.128794 0.725659 0
M  V30 9111 H 865.28 0.98606 1.6241 0
M  V30 9112 H 863.43 -0.0363006 3.88483 0
M  V30 9113 H 865.102 2.57284 3.82887 0
M  V30 9114 H 863.345 2.47676 3.56145 0
M  V30 9115 H 864.016 2.03033 5.13305 0
M  V30 9116 H 866.492 0.376704 4.14391 0
M  V30 9117 H 865.368 0.0530015 5.48874 0
M  V30 9118 H 865.629 -1.17642 4.2616 0
M  V30 9119 N 864.689 -1.48329 0.532571 0
M  V30 9120 C 865.619 -2.32485 -0.217511 0
M  V30 9121 C 866.6 -1.42255 -0.932598 0
M  V30 9122 O 867.785 -1.7114 -0.917873 0
M  V30 9123 C 864.915 -3.23509 -1.26329 0
M  V30 9124 C 863.869 -4.22784 -0.666191 0
M  V30 9125 C 863.195 -5.0296 -1.81482 0
M  V30 9126 C 864.495 -5.21031 0.363813 0
M  V30 9127 H 866.189 -2.95445 0.485014 0
M  V30 9128 H 863.735 -1.42075 0.234694 0
M  V30 9129 H 865.688 -3.81211 -1.79601 0
M  V30 9130 H 864.412 -2.58554 -1.99543 0
M  V30 9131 H 863.071 -3.66272 -0.15498 0
M  V30 9132 H 862.719 -4.34427 -2.5354 0
M  V30 9133 H 862.419 -5.70154 -1.4212 0
M  V30 9134 H 863.943 -5.63514 -2.35126 0
M  V30 9135 H 865.357 -5.73241 -0.0819079 0
M  V30 9136 H 863.754 -5.96292 0.674956 0
M  V30 9137 H 864.824 -4.6801 1.26865 0
M  V30 9138 N 866.167 -0.267825 -1.55308 0
M  V30 9139 C 867.097 0.616585 -2.25212 0
M  V30 9140 C 868.078 1.16472 -1.23969 0
M  V30 9141 O 869.263 1.20021 -1.52672 0
M  V30 9142 C 866.393 1.80412 -2.96764 0
M  V30 9143 C 865.347 1.38784 -4.04874 0
M  V30 9144 C 864.673 2.65789 -4.63961 0
M  V30 9145 C 865.973 0.543415 -5.19465 0
M  V30 9146 H 867.667 0.0336257 -2.99381 0
M  V30 9147 H 865.213 0.0147328 -1.43992 0
M  V30 9148 H 867.166 2.42866 -3.44375 0
M  V30 9149 H 865.89 2.4128 -2.20118 0
M  V30 9150 H 864.549 0.786541 -3.58063 0
M  V30 9151 H 864.197 3.24899 -3.83992 0
M  V30 9152 H 863.897 2.38651 -5.36954 0
M  V30 9153 H 865.421 3.29104 -5.14318 0
M  V30 9154 H 866.835 1.07277 -5.63174 0
M  V30 9155 H 865.232 0.367219 -5.98975 0
M  V30 9156 H 866.302 -0.439534 -4.82904 0
M  V30 9157 N 867.645 1.57599 0.00500368 0
M  V30 9158 C 868.595 2.04585 1.00643 0
M  V30 9159 C 869.579 0.939622 1.30614 0
M  V30 9160 O 870.771 1.20342 1.29796 0
M  V30 9161 C 867.9 2.5486 2.30002 0
M  V30 9162 C 866.986 3.7235 2.03017 0
M  V30 9163 N 867.377 4.84218 1.46173 0
M  V30 9164 C 865.675 3.80185 2.33185 0
M  V30 9165 C 866.376 5.65688 1.35544 0
M  V30 9166 N 865.352 5.11536 1.83933 0
M  V30 9167 H 869.154 2.8849 0.561332 0
M  V30 9168 H 866.668 1.61026 0.210808 0
M  V30 9169 H 868.665 2.86794 3.0258 0
M  V30 9170 H 867.325 1.72372 2.75169 0
M  V30 9171 H 868.336 5.0517 1.1412 0
M  V30 9172 H 865.013 3.08543 2.81261 0
M  V30 9173 H 866.403 6.65588 0.918791 0
M  V30 9174 N 869.123 -0.277682 1.55134 0
M  V30 9175 C 870.371 -1.00791 1.75173 0
M  V30 9176 C 870.692 -1.86987 0.553266 0
M  V30 9177 O 869.962 -1.91079 -0.43195 0
M  V30 9178 H 868.542 -0.375129 0.645978 0
M  V30 9179 H 871.204 -0.303041 1.9253 0
M  V30 9180 H 870.3 -1.64756 2.6507 0
M  V30 9181 N 870.601 -1.47988 -0.541979 0
M  V30 9182 C 871.847 -1.55623 -1.30036 0
M  V30 9183 C 872.18 -0.224254 -1.92901 0
M  V30 9184 O 871.455 0.768629 -1.78668 0
M  V30 9185 C 871.738 -2.68562 -2.39888 0
M  V30 9186 C 871.591 -4.11426 -1.81792 0
M  V30 9187 C 872.91 -2.77325 -3.41729 0
M  V30 9188 H 870.029 -0.566498 -0.471433 0
M  V30 9189 H 872.671 -1.8011 -0.604998 0
M  V30 9190 H 870.821 -2.47814 -2.992 0
M  V30 9191 H 872.493 -4.43581 -1.26624 0
M  V30 9192 H 870.736 -4.18989 -1.12386 0
M  V30 9193 H 871.407 -4.8625 -2.61276 0
M  V30 9194 H 873.883 -2.96085 -2.92357 0
M  V30 9195 H 872.759 -3.58097 -4.16002 0
M  V30 9196 H 873.02 -1.84995 -4.01534 0
M  V30 9197 N 872.079 0.78992 -1.36375 0
M  V30 9198 C 873.319 1.56098 -1.31958 0
M  V30 9199 C 873.683 1.91738 0.100197 0
M  V30 9200 O 874.884 2.67451 0.268913 0
M  V30 9201 C 873.155 2.80406 -2.21601 0
M  V30 9202 S 874.714 3.70655 -2.34863 0
M  V30 9203 H 871.532 0.534632 -0.46871 0
M  V30 9204 H 874.134 0.930417 -1.7194 0
M  V30 9205 H 872.838 2.52273 -3.23707 0
M  V30 9206 H 872.369 3.48436 -1.82637 0
M  V30 9207 H 874.384 4.71509 -1.54575 0
M  V30 9208 N 873.557 1.20646 1.01402 0
M  V30 9209 C 874.49 0.900926 2.09663 0
M  V30 9210 C 875.468 -0.14801 1.61925 0
M  V30 9211 O 876.652 -0.0210235 1.88488 0
M  V30 9212 C 873.779 0.351097 3.36875 0
M  V30 9213 C 872.825 1.38142 4.03508 0
M  V30 9214 S 873.658 2.94741 4.47089 0
M  V30 9215 C 874.814 2.41341 5.77499 0
M  V30 9216 H 875.047 1.81773 2.35257 0
M  V30 9217 H 872.58 1.03521 1.14555 0
M  V30 9218 H 874.538 0.0404201 4.1048 0
M  V30 9219 H 873.199 -0.544255 3.09349 0
M  V30 9220 H 872.392 0.94614 4.9504 0
M  V30 9221 H 871.994 1.63971 3.36139 0
M  V30 9222 H 874.286 1.81263 6.52802 0
M  V30 9223 H 875.229 3.31278 6.25828 0
M  V30 9224 H 875.637 1.83374 5.33886 0
M  V30 9225 N 875.035 -1.20752 1.01276 0
M  V30 9226 C 875.998 -2.2162 0.584583 0
M  V30 9227 C 876.998 -1.57094 -0.343215 0
M  V30 9228 O 878.188 -1.73696 -0.132433 0
M  V30 9229 C 875.32 -3.40583 -0.146872 0
M  V30 9230 H 876.513 -2.61015 1.47686 0
M  V30 9231 H 874.066 -1.34148 0.802123 0
M  V30 9232 H 874.801 -3.06686 -1.05424 0
M  V30 9233 H 874.586 -3.88642 0.51958 0
M  V30 9234 H 876.076 -4.15339 -0.433924 0
M  V30 9235 N 876.513 -0.788492 -1.36457 0
M  V30 9236 C 877.761 -0.359749 -1.98872 0
M  V30 9237 C 878.082 1.07197 -1.62892 0
M  V30 9238 O 877.352 1.73875 -0.902463 0
M  V30 9239 H 875.932 -0.130029 -0.735596 0
M  V30 9240 H 878.594 -1.01033 -1.66668 0
M  V30 9241 H 877.69 -0.450835 -3.08827 0
M  V30 9242 N 877.991 1.48044 -0.54043 0
M  V30 9243 C 879.268 1.95523 0.0547302 0
M  V30 9244 C 879.648 1.48284 1.5025 0
M  V30 9245 O 878.996 0.714037 2.17057 0
M  V30 9246 C 879.206 3.48923 -0.0733393 0
M  V30 9247 C 880.554 4.24523 0.0806026 0
M  V30 9248 O 881.578 3.562 -5.58687e-05 0
M  V30 9249 O 880.437 5.45922 0.251216 0
M  V30 9250 H 877.531 0.823728 0.073493 0
M  V30 9251 H 880.077 1.5852 -0.605768 0
M  V30 9252 H 878.849 3.76059 -1.08144 0
M  V30 9253 H 878.472 3.92648 0.625536 0
M  V30 9254 N 879.47 0.276058 1.55163 0
M  V30 9255 C 880.695 -0.346648 2.04483 0
M  V30 9256 C 881.12 -1.48613 1.15308 0
M  V30 9257 O 880.478 -1.80663 0.151875 0
M  V30 9258 C 880.526 -0.804268 3.51517 0
M  V30 9259 O 879.63 -1.91143 3.65429 0
M  V30 9260 H 878.971 -0.0715251 0.660136 0
M  V30 9261 H 881.501 0.410631 2.00437 0
M  V30 9262 H 881.511 -1.09977 3.92898 0
M  V30 9263 H 880.186 0.0294123 4.1589 0
M  V30 9264 H 878.763 -1.61839 3.3595 0
M  V30 9265 N 880.948 -1.576 0.00335426 0
M  V30 9266 C 882.176 -1.94996 -0.691685 0
M  V30 9267 C 882.591 -0.878405 -1.67121 0
M  V30 9268 O 881.948 0.142343 -1.81944 0
M  V30 9269 C 881.999 -3.32416 -1.42063 0
M  V30 9270 O 881.72 -4.35458 -0.48038 0
M  V30 9271 C 883.221 -3.84291 -2.20987 0
M  V30 9272 H 880.441 -0.642814 -0.192434 0
M  V30 9273 H 882.985 -2.04425 0.0554706 0
M  V30 9274 H 881.14 -3.24285 -2.11939 0
M  V30 9275 H 881.554 -5.14975 -0.995054 0
M  V30 9276 H 883.028 -4.82863 -2.67483 0
M  V30 9277 H 883.505 -3.17174 -3.03805 0
M  V30 9278 H 884.111 -3.95609 -1.56121 0
M  V30 9279 N 882.426 0.269451 -1.5528 0
M  V30 9280 C 883.359 1.3588 -1.83336 0
M  V30 9281 C 884.337 1.4739 -0.68666 0
M  V30 9282 O 885.521 1.63959 -0.930037 0
M  V30 9283 C 882.648 2.73483 -1.99812 0
M  V30 9284 C 881.694 2.79239 -3.22378 0
M  V30 9285 S 882.527 2.38125 -4.79642 0
M  V30 9286 C 883.683 3.77697 -4.99095 0
M  V30 9287 H 883.916 1.11878 -2.75446 0
M  V30 9288 H 881.449 0.469268 -1.47096 0
M  V30 9289 H 883.407 3.52725 -2.09989 0
M  V30 9290 H 882.068 2.94735 -1.08583 0
M  V30 9291 H 881.261 3.80243 -3.30804 0
M  V30 9292 H 880.863 2.08022 -3.1081 0
M  V30 9293 H 883.155 4.72999 -4.85055 0
M  V30 9294 H 884.098 3.7422 -6.01136 0
M  V30 9295 H 884.506 3.69164 -4.27058 0
M  V30 9296 N 883.904 1.48273 0.534124 0
M  V30 9297 C 885.15 1.56311 1.29208 0
M  V30 9298 C 885.483 0.234481 1.92779 0
M  V30 9299 O 884.758 -0.759143 1.79073 0
M  V30 9300 C 885.041 2.69831 2.3846 0
M  V30 9301 C 884.894 4.12385 1.79608 0
M  V30 9302 C 886.213 2.79133 3.40254 0
M  V30 9303 H 883.332 0.56899 0.468422 0
M  V30 9304 H 885.974 1.80429 0.595438 0
M  V30 9305 H 884.124 2.49397 2.97881 0
M  V30 9306 H 885.796 4.44246 1.24269 0
M  V30 9307 H 884.039 4.19579 1.10162 0
M  V30 9308 H 884.71 4.87629 2.58693 0
M  V30 9309 H 887.186 2.97632 2.90783 0
M  V30 9310 H 886.062 3.60298 4.14097 0
M  V30 9311 H 886.323 1.87122 4.00547 0
M  V30 9312 N 885.382 -0.782676 1.36792 0
M  V30 9313 C 886.314 -1.9044 1.27536 0
M  V30 9314 C 887.327 -1.61647 0.193426 0
M  V30 9315 O 888.516 -1.72769 0.448692 0
M  V30 9316 C 885.616 -3.2541 0.946641 0
M  V30 9317 C 884.789 -3.81932 2.13183 0
M  V30 9318 C 883.848 -4.95355 1.7751 0
M  V30 9319 O 882.874 -5.11517 2.49678 0
M  V30 9320 N 884.076 -5.76108 0.712755 0
M  V30 9321 H 886.841 -1.98899 2.24186 0
M  V30 9322 H 884.402 -0.96127 1.30274 0
M  V30 9323 H 886.394 -3.98791 0.689043 0
M  V30 9324 H 884.964 -3.12524 0.0690591 0
M  V30 9325 H 884.184 -3.00459 2.55183 0
M  V30 9326 H 885.472 -4.16426 2.92347 0
M  V30 9327 H 884.87 -5.65586 0.113662 0
M  V30 9328 H 883.427 -6.49762 0.514995 0
M  V30 9329 N 886.86 -1.21182 -1.00761 0
M  V30 9330 C 887.77 -0.984691 -2.12934 0
M  V30 9331 C 888.786 0.0623657 -1.73888 0
M  V30 9332 O 889.962 -0.1271 -2.00999 0
M  V30 9333 C 887.027 -0.549447 -3.42319 0
M  V30 9334 C 886.088 -1.66841 -3.95553 0
M  V30 9335 C 885.321 -1.25384 -5.18763 0
M  V30 9336 O 885.544 -0.126333 -5.7026 0
M  V30 9337 O 884.478 -2.06475 -5.65377 0
M  V30 9338 H 888.304 -1.92413 -2.3497 0
M  V30 9339 H 885.889 -0.99647 -1.11314 0
M  V30 9340 H 887.771 -0.316384 -4.20211 0
M  V30 9341 H 886.446 0.361304 -3.21677 0
M  V30 9342 H 885.353 -1.95585 -3.189 0
M  V30 9343 H 886.686 -2.55649 -4.206 0
M  V30 9344 N 888.338 1.20213 -1.01915 0
M  V30 9345 C 889.585 1.89647 -0.709955 0
M  V30 9346 C 889.913 1.7901 0.760631 0
M  V30 9347 O 889.168 1.17028 1.56853 0
M  V30 9348 C 889.467 3.40232 -1.09438 0
M  V30 9349 C 889.133 3.7107 -2.5616 0
M  V30 9350 C 887.795 3.79196 -2.96249 0
M  V30 9351 C 890.147 3.85169 -3.51133 0
M  V30 9352 C 887.475 3.98882 -4.30244 0
M  V30 9353 C 889.827 4.06365 -4.8482 0
M  V30 9354 C 888.491 4.12722 -5.24611 0
M  V30 9355 H 887.761 0.693967 -0.259791 0
M  V30 9356 H 890.408 1.42419 -1.2802 0
M  V30 9357 H 888.713 3.89292 -0.442596 0
M  V30 9358 H 890.41 3.92257 -0.832811 0
M  V30 9359 H 887 3.65346 -2.24099 0
M  V30 9360 H 891.184 3.78243 -3.21319 0
M  V30 9361 H 886.44 4.02039 -4.60624 0
M  V30 9362 H 890.614 4.16216 -5.58334 0
M  V30 9363 H 888.241 4.27728 -6.28453 0
M  V30 9364 N 889.816 0.795718 1.36037 0
M  V30 9365 C 891.062 0.371574 1.99367 0
M  V30 9366 C 891.395 -1.0557 1.62999 0
M  V30 9367 O 890.67 -1.73051 0.887895 0
M  V30 9368 C 890.953 0.542622 3.55988 0
M  V30 9369 C 890.806 2.01404 4.0219 0
M  V30 9370 C 892.125 -0.0384527 4.40083 0
M  V30 9371 H 889.244 0.136483 0.724252 0
M  V30 9372 H 891.886 1.00323 1.61355 0
M  V30 9373 H 890.036 0.0049053 3.885 0
M  V30 9374 H 891.708 2.6133 3.80137 0
M  V30 9375 H 889.951 2.51439 3.53498 0
M  V30 9376 H 890.622 2.08466 5.11122 0
M  V30 9377 H 893.098 0.420634 4.13968 0
M  V30 9378 H 891.974 0.111214 5.48787 0
M  V30 9379 H 892.235 -1.13116 4.27384 0
M  V30 9380 N 891.294 -1.47756 0.548274 0
M  V30 9381 C 892.244 -2.26891 -0.224628 0
M  V30 9382 C 893.228 -1.33816 -0.893421 0
M  V30 9383 O 894.42 -1.58232 -0.793204 0
M  V30 9384 C 891.549 -3.19358 -1.25959 0
M  V30 9385 C 890.635 -4.1991 -0.594662 0
M  V30 9386 N 891.026 -5.04721 0.330148 0
M  V30 9387 C 889.324 -4.37832 -0.849672 0
M  V30 9388 C 890.025 -5.77282 0.71553 0
M  V30 9389 N 889.001 -5.43552 0.0723997 0
M  V30 9390 H 892.803 -2.89844 0.486561 0
M  V30 9391 H 890.317 -1.58185 0.367577 0
M  V30 9392 H 892.314 -3.74726 -1.82718 0
M  V30 9393 H 890.974 -2.57961 -1.97196 0
M  V30 9394 H 891.985 -5.13095 0.703811 0
M  V30 9395 H 888.662 -3.87612 -1.55123 0
M  V30 9396 H 890.052 -6.55512 1.47493 0
M  V30 9397 N 892.772 -0.284283 -1.55015 0
M  V30 9398 C 893.702 0.592663 -2.25853 0
M  V30 9399 C 894.683 1.15151 -1.25197 0
M  V30 9400 O 895.868 1.18395 -1.53936 0
M  V30 9401 C 892.998 1.77254 -2.98661 0
M  V30 9402 C 891.952 1.34482 -4.06323 0
M  V30 9403 C 891.278 2.60853 -4.66754 0
M  V30 9404 C 892.578 0.488288 -5.20013 0
M  V30 9405 H 894.272 0.00187041 -2.994 0
M  V30 9406 H 891.818 -0.000540402 -1.44 0
M  V30 9407 H 893.771 2.39199 -3.46932 0
M  V30 9408 H 892.495 2.38931 -2.22664 0
M  V30 9409 H 891.154 0.748519 -3.58877 0
M  V30 9410 H 890.802 3.20808 -3.87416 0
M  V30 9411 H 890.502 2.32942 -5.39455 0
M  V30 9412 H 892.026 3.23631 -5.1778 0
M  V30 9413 H 893.44 1.01298 -5.6428 0
M  V30 9414 H 891.837 0.303669 -5.99331 0
M  V30 9415 H 892.907 -0.490727 -4.8241 0
M  V30 9416 N 894.251 1.57596 -0.0117121 0
M  V30 9417 C 895.499 1.90694 0.669342 0
M  V30 9418 C 895.82 0.886999 1.73659 0
M  V30 9419 O 895.09 -0.0739779 1.9576 0
M  V30 9420 H 893.67 0.703846 0.250219 0
M  V30 9421 H 896.332 1.94821 -0.0554057 0
M  V30 9422 H 895.428 2.90802 1.13316 0
M  V30 9423 N 895.729 -0.261212 1.5542 0
M  V30 9424 C 896.692 -1.30645 1.8832 0
M  V30 9425 C 897.692 -1.41782 0.758588 0
M  V30 9426 O 898.882 -1.40729 1.02669 0
M  V30 9427 C 896.014 -2.6862 2.09895 0
M  V30 9428 H 897.207 -1.02698 2.81768 0
M  V30 9429 H 894.76 -0.499838 1.48092 0
M  V30 9430 H 895.495 -3.0173 1.18868 0
M  V30 9431 H 895.28 -2.61921 2.91787 0
M  V30 9432 H 896.77 -3.44121 2.36581 0
M  V30 9433 N 897.207 -1.48554 -0.526253 0
M  V30 9434 C 898.456 -1.56014 -1.27837 0
M  V30 9435 C 898.769 -0.240643 -1.94114 0
M  V30 9436 O 899.975 -0.193525 -2.70809 0
M  V30 9437 C 898.431 -2.75161 -2.31979 0
M  V30 9438 C 898.039 -4.13768 -1.71755 0
M  V30 9439 C 899.783 -2.91936 -3.08178 0
M  V30 9440 C 897.69 -5.24171 -2.7386 0
M  V30 9441 H 896.62 -0.58082 -0.480795 0
M  V30 9442 H 899.271 -1.74895 -0.555335 0
M  V30 9443 H 897.653 -2.49722 -3.07335 0
M  V30 9444 H 898.827 -4.49241 -1.02563 0
M  V30 9445 H 897.142 -4.02141 -1.08036 0
M  V30 9446 H 899.739 -3.71586 -3.84484 0
M  V30 9447 H 900.082 -2.01533 -3.64267 0
M  V30 9448 H 900.615 -3.17294 -2.39937 0
M  V30 9449 H 897.354 -6.16552 -2.22586 0
M  V30 9450 H 896.874 -4.93181 -3.41368 0
M  V30 9451 H 898.553 -5.52442 -3.36774 0
M  V30 9452 N 898.685 0.775411 -1.37205 0
M  V30 9453 C 899.962 1.5229 -1.22748 0
M  V30 9454 C 900.342 2.10327 0.180487 0
M  V30 9455 O 899.69 1.95206 1.18772 0
M  V30 9456 C 899.9 2.60671 -2.3206 0
M  V30 9457 C 901.248 3.28173 -2.6942 0
M  V30 9458 O 902.272 2.70963 -2.31208 0
M  V30 9459 O 901.131 4.31598 -3.3524 0
M  V30 9460 H 898.225 0.674326 -0.478762 0
M  V30 9461 H 900.771 0.812691 -1.48975 0
M  V30 9462 H 899.543 2.1588 -3.26361 0
M  V30 9463 H 899.166 3.39296 -2.07277 0
M  V30 9464 N 900.163 1.21714 1.00117 0
M  V30 9465 C 901.096 0.923113 2.08696 0
M  V30 9466 C 902.074 -0.130827 1.62073 0
M  V30 9467 O 903.258 -0.00103064 1.885 0
M  V30 9468 C 900.385 0.386807 3.36484 0
M  V30 9469 C 899.431 1.42414 4.0202 0
M  V30 9470 S 900.264 2.99466 4.43937 0
M  V30 9471 C 901.42 2.47452 5.74907 0
M  V30 9472 H 901.653 1.84258 2.33315 0
M  V30 9473 H 899.186 1.0473 1.1345 0
M  V30 9474 H 901.144 0.0839547 4.10414 0
M  V30 9475 H 899.805 -0.511413 3.09909 0
M  V30 9476 H 898.998 0.998593 4.94008 0
M  V30 9477 H 898.6 1.67527 3.34381 0
M  V30 9478 H 900.892 1.88177 6.50842 0
M  V30 9479 H 901.835 3.37898 6.22279 0
M  V30 9480 H 902.243 1.89027 5.31911 0
M  V30 9481 N 901.641 -1.19671 1.02551 0
M  V30 9482 C 902.871 -1.92952 0.738441 0
M  V30 9483 C 903.279 -1.75528 -0.706155 0
M  V30 9484 O 902.622 -1.0723 -1.49156 0
M  V30 9485 C 902.684 -3.45149 1.00562 0
M  V30 9486 C 902.348 -3.86341 2.44109 0
M  V30 9487 C 903.345 -3.91374 3.42231 0
M  V30 9488 C 901.03 -4.18076 2.7842 0
M  V30 9489 C 903.024 -4.27568 4.7272 0
M  V30 9490 C 900.711 -4.53943 4.0912 0
M  V30 9491 C 901.709 -4.58663 5.06081 0
M  V30 9492 O 901.397 -4.93701 6.3444 0
M  V30 9493 H 901.129 -0.619836 0.269776 0
M  V30 9494 H 903.683 -1.52852 1.37206 0
M  V30 9495 H 901.913 -3.85416 0.314849 0
M  V30 9496 H 903.602 -3.99664 0.708742 0
M  V30 9497 H 904.368 -3.67011 3.17061 0
M  V30 9498 H 900.247 -4.13589 2.03631 0
M  V30 9499 H 903.791 -4.31166 5.48399 0
M  V30 9500 H 899.688 -4.77764 4.34064 0
M  V30 9501 H 900.456 -5.11662 6.38862 0
M  V30 9502 N 903.119 -0.802921 -1.35613 0
M  V30 9503 C 904.049 -0.225131 -2.32412 0
M  V30 9504 C 905.03 0.647383 -1.57299 0
M  V30 9505 O 906.215 0.578414 -1.85386 0
M  V30 9506 C 903.345 0.630085 -3.41537 0
M  V30 9507 C 902.299 -0.143635 -4.27759 0
M  V30 9508 C 901.625 0.833046 -5.28171 0
M  V30 9509 C 902.925 -1.34054 -5.04804 0
M  V30 9510 H 904.619 -1.03385 -2.80984 0
M  V30 9511 H 902.165 -0.498593 -1.35093 0
M  V30 9512 H 904.118 1.04433 -4.08254 0
M  V30 9513 H 902.842 1.47165 -2.91565 0
M  V30 9514 H 901.501 -0.539015 -3.62616 0
M  V30 9515 H 901.149 1.67001 -4.74468 0
M  V30 9516 H 900.849 0.319697 -5.8673 0
M  V30 9517 H 902.373 1.24558 -5.97761 0
M  V30 9518 H 903.787 -1.00136 -5.64487 0
M  V30 9519 H 902.184 -1.78812 -5.72841 0
M  V30 9520 H 903.254 -2.12906 -4.35659 0
M  V30 9521 N 904.597 1.47463 -0.556102 0
M  V30 9522 C 906.013 1.58134 -0.21579 0
M  V30 9523 C 906.213 1.55486 1.28166 0
M  V30 9524 O 905.269 1.45768 2.06174 0
M  V30 9525 C 906.582 2.88686 -0.841464 0
M  V30 9526 C 908.13 3.02268 -0.812591 0
M  V30 9527 C 908.605 4.35518 -1.41731 0
M  V30 9528 N 910.096 4.42151 -1.38045 0
M  V30 9529 C 910.831 5.43817 -1.81799 0
M  V30 9530 N 910.327 6.52299 -2.33404 0
M  V30 9531 N 912.12 5.34855 -1.72877 0
M  V30 9532 H 904.271 1.47428 -1.52901 0
M  V30 9533 H 906.534 0.701586 -0.637559 0
M  V30 9534 H 906.24 2.96358 -1.8938 0
M  V30 9535 H 906.114 3.7572 -0.333846 0
M  V30 9536 H 908.501 2.94194 0.231056 0
M  V30 9537 H 908.582 2.16779 -1.35796 0
M  V30 9538 H 908.226 4.44348 -2.46002 0
M  V30 9539 H 908.156 5.19737 -0.847402 0
M  V30 9540 H 910.647 3.64348 -1.00296 0
M  V30 9541 H 910.96 7.26047 -2.64717 0
M  V30 9542 H 909.305 6.53192 -2.37414 0
M  V30 9543 H 912.496 4.49004 -1.32338 0
M  V30 9544 H 912.669 6.13949 -2.07294 0
M  V30 9545 N 906.075 0.2925 1.54862 0
M  V30 9546 C 907.022 -0.587365 2.23201 0
M  V30 9547 C 907.992 -1.13623 1.21157 0
M  V30 9548 O 909.177 -1.18233 1.49752 0
M  V30 9549 C 906.317 -1.75745 2.96998 0
M  V30 9550 C 905.43 -1.24078 4.13798 0
M  V30 9551 C 904.565 -2.37405 4.75197 0
M  V30 9552 C 903.604 -1.82829 5.84157 0
M  V30 9553 N 902.741 -2.89696 6.39547 0
M  V30 9554 H 907.581 0.00202207 2.98 0
M  V30 9555 H 905.118 0.012766 1.47094 0
M  V30 9556 H 907.076 -2.44549 3.38011 0
M  V30 9557 H 905.706 -2.3186 2.24591 0
M  V30 9558 H 904.758 -0.445268 3.77785 0
M  V30 9559 H 906.07 -0.801186 4.92324 0
M  V30 9560 H 905.224 -3.14172 5.19019 0
M  V30 9561 H 903.963 -2.84688 3.95985 0
M  V30 9562 H 902.968 -1.04548 5.39768 0
M  V30 9563 H 904.193 -1.36461 6.65248 0
M  V30 9564 H 902.139 -3.36328 5.63222 0
M  V30 9565 H 902.056 -2.50206 7.13395 0
M  V30 9566 H 903.324 -3.66386 6.88027 0
M  V30 9567 N 907.553 -1.57587 0.0200696 0
M  V30 9568 C 908.969 -1.56018 -0.336237 0
M  V30 9569 C 909.169 -1.02478 -1.73495 0
M  V30 9570 O 908.225 -0.667487 -2.43518 0
M  V30 9571 C 909.538 -3.00079 -0.193112 0
M  V30 9572 C 911.086 -3.11863 -0.266557 0
M  V30 9573 C 911.561 -4.57747 -0.152326 0
M  V30 9574 N 913.052 -4.62726 -0.209596 0
M  V30 9575 C 913.787 -5.73217 -0.144855 0
M  V30 9576 N 913.283 -6.92794 -0.0295487 0
M  V30 9577 N 915.076 -5.61751 -0.198184 0
M  V30 9578 H 907.227 -1.90722 0.93482 0
M  V30 9579 H 909.49 -0.876909 0.360186 0
M  V30 9580 H 909.196 -3.43167 0.770036 0
M  V30 9581 H 909.07 -3.64593 -0.967029 0
M  V30 9582 H 911.457 -2.68693 -1.22016 0
M  V30 9583 H 911.538 -2.50087 0.53758 0
M  V30 9584 H 911.182 -5.01595 0.797817 0
M  V30 9585 H 911.112 -5.17491 -0.97521 0
M  V30 9586 H 913.603 -3.76713 -0.299229 0
M  V30 9587 H 913.916 -7.72799 0.0134071 0
M  V30 9588 H 912.261 -6.95 0.00510737 0
M  V30 9589 H 915.452 -4.67222 -0.286603 0
M  V30 9590 H 915.625 -6.47839 -0.144266 0
M  V30 9591 N 909.032 0.252966 -1.55557 0
M  V30 9592 C 910.28 0.979912 -1.76754 0
M  V30 9593 C 910.601 1.86083 -0.582944 0
M  V30 9594 O 909.871 1.91742 0.401497 0
M  V30 9595 H 908.451 0.364805 -0.651864 0
M  V30 9596 H 911.113 0.272372 -1.92987 0
M  V30 9597 H 910.209 1.60518 -2.67657 0
M  V30 9598 N 910.51 1.48831 0.518367 0
M  V30 9599 C 911.46 1.60614 1.61824 0
M  V30 9600 C 912.444 0.462631 1.54106 0
M  V30 9601 O 913.636 0.714689 1.6193 0
M  V30 9602 C 910.765 1.65984 3.00507 0
M  V30 9603 C 909.851 2.85854 3.13286 0
M  V30 9604 N 910.242 4.1014 2.96005 0
M  V30 9605 C 908.54 2.83429 3.4436 0
M  V30 9606 C 909.241 4.90626 3.12508 0
M  V30 9607 N 908.217 4.2366 3.40607 0
M  V30 9608 H 912.019 2.54443 1.47091 0
M  V30 9609 H 909.533 1.45363 0.724102 0
M  V30 9610 H 911.53 1.72521 3.79529 0
M  V30 9611 H 910.19 0.732792 3.16323 0
M  V30 9612 H 911.201 4.40395 2.72531 0
M  V30 9613 H 907.878 2.0003 3.66462 0
M  V30 9614 H 909.268 5.99302 3.03786 0
M  V30 9615 N 911.988 -0.768124 1.37614 0
M  V30 9616 C 912.918 -1.89537 1.36374 0
M  V30 9617 C 913.899 -1.68513 0.231803 0
M  V30 9618 O 915.084 -1.89318 0.432705 0
M  V30 9619 C 912.214 -3.26871 1.17358 0
M  V30 9620 C 911.168 -3.62466 2.27602 0
M  V30 9621 C 910.494 -4.9838 1.93705 0
M  V30 9622 C 911.794 -3.68841 3.69802 0
M  V30 9623 H 913.488 -1.90832 2.30702 0
M  V30 9624 H 911.034 -0.91672 1.11051 0
M  V30 9625 H 912.987 -4.05371 1.15119 0
M  V30 9626 H 911.711 -3.26018 0.194865 0
M  V30 9627 H 910.37 -2.86276 2.29002 0
M  V30 9628 H 910.018 -4.94071 0.943539 0
M  V30 9629 H 909.718 -5.23165 2.6753 0
M  V30 9630 H 911.242 -5.79276 1.93059 0
M  V30 9631 H 912.656 -4.37485 3.70513 0
M  V30 9632 H 911.053 -4.05126 4.42711 0
M  V30 9633 H 912.123 -2.69415 4.03167 0
M  V30 9634 N 913.466 -1.22244 -0.994698 0
M  V30 9635 C 914.712 -1.04746 -1.73655 0
M  V30 9636 C 915.045 0.41668 -1.89677 0
M  V30 9637 O 914.32 1.30897 -1.43862 0
M  V30 9638 C 914.603 -1.75716 -3.14318 0
M  V30 9639 C 914.456 -3.29714 -3.05955 0
M  V30 9640 C 915.775 -1.50809 -4.13455 0
M  V30 9641 H 912.894 -0.381921 -0.630322 0
M  V30 9642 H 915.536 -1.50559 -1.15897 0
M  V30 9643 H 913.686 -1.3677 -3.63629 0
M  V30 9644 H 915.358 -3.78093 -2.64279 0
M  V30 9645 H 913.601 -3.59484 -2.42804 0
M  V30 9646 H 914.272 -3.74547 -4.05485 0
M  V30 9647 H 916.748 -1.84636 -3.72892 0
M  V30 9648 H 915.624 -2.02964 -5.09997 0
M  V30 9649 H 915.885 -0.440292 -4.39902 0
M  V30 9650 N 914.944 1.19125 -1.03184 0
M  V30 9651 C 916.355 1.70564 -0.759264 0
M  V30 9652 C 916.706 1.8248 0.720794 0
M  V30 9653 O 915.831 1.49804 1.56166 0
M  V30 9654 C 916.426 3.09793 -1.37163 0
M  V30 9655 C 914.985 3.5848 -1.14757 0
M  V30 9656 C 914.132 2.35265 -1.46784 0
M  V30 9657 H 917.083 1.03925 -1.19939 0
M  V30 9658 H 917.104 3.72624 -0.77015 0
M  V30 9659 H 916.616 3.01088 -2.44882 0
M  V30 9660 H 914.717 3.72494 -0.0887182 0
M  V30 9661 H 914.83 4.42426 -1.83836 0
M  V30 9662 H 913.194 2.38747 -0.887254 0
M  V30 9663 H 913.977 2.29188 -2.55593 0
M  V30 9664 N 916.422 0.810101 1.35185 0
M  V30 9665 C 917.385 0.22852 2.28058 0
M  V30 9666 C 918.385 -0.586168 1.49735 0
M  V30 9667 O 919.575 -0.40414 1.69447 0
M  V30 9668 C 916.707 -0.681041 3.34028 0
M  V30 9669 H 917.9 1.04768 2.81005 0
M  V30 9670 H 915.453 0.58101 1.451 0
M  V30 9671 H 916.188 -1.52375 2.86273 0
M  V30 9672 H 915.973 -0.0985276 3.91976 0
M  V30 9673 H 917.463 -1.08217 4.03335 0
M  V30 9674 N 917.9 -1.47166 0.563914 0
M  V30 9675 C 919.125 -2.0735 0.0454698 0
M  V30 9676 C 919.55 -1.41281 -1.24182 0
M  V30 9677 O 918.908 -0.490084 -1.7455 0
M  V30 9678 C 918.956 -3.60378 -0.126453 0
M  V30 9679 O 918.06 -3.94934 -1.18746 0
M  V30 9680 H 917.401 -0.661773 0.0543377 0
M  V30 9681 H 919.931 -1.89086 0.781508 0
M  V30 9682 H 919.941 -4.06593 -0.338554 0
M  V30 9683 H 918.616 -4.07862 0.81373 0
M  V30 9684 H 917.193 -3.60455 -0.955318 0
M  V30 9685 N 919.378 -0.300708 -1.54705 0
M  V30 9686 C 920.624 0.301982 -2.01146 0
M  V30 9687 C 920.979 1.51548 -1.18537 0
M  V30 9688 O 920.272 1.89914 -0.253656 0
M  V30 9689 C 920.466 0.710108 -3.50275 0
M  V30 9690 C 920.295 -0.462291 -4.47318 0
M  V30 9691 C 919.065 -0.954214 -4.96208 0
M  V30 9692 C 921.263 -1.30716 -4.97411 0
M  V30 9693 N 919.245 -2.09341 -5.77105 0
M  V30 9694 C 920.616 -2.29384 -5.76006 0
M  V30 9695 C 922.671 -1.33756 -4.79597 0
M  V30 9696 C 921.374 -3.30869 -6.38685 0
M  V30 9697 C 923.4 -2.34099 -5.43094 0
M  V30 9698 C 922.762 -3.31498 -6.21521 0
M  V30 9699 H 918.861 0.0749709 -0.778398 0
M  V30 9700 H 921.445 -0.430557 -1.8988 0
M  V30 9701 H 919.616 1.41182 -3.61832 0
M  V30 9702 H 921.348 1.29231 -3.83512 0
M  V30 9703 H 918.103 -0.529238 -4.70634 0
M  V30 9704 H 918.527 -2.66739 -6.22237 0
M  V30 9705 H 923.169 -0.598284 -4.18546 0
M  V30 9706 H 920.887 -4.05717 -6.9887 0
M  V30 9707 H 924.473 -2.37225 -5.31239 0
M  V30 9708 H 923.353 -4.07872 -6.69784 0
M  V30 9709 N 920.856 1.57574 -0.0284266 0
M  V30 9710 C 921.803 2.10176 0.953658 0
M  V30 9711 C 922.773 1.00367 1.32347 0
M  V30 9712 O 923.958 1.27783 1.4169 0
M  V30 9713 C 921.098 2.63287 2.231 0
M  V30 9714 C 920.211 3.87102 1.91771 0
M  V30 9715 C 919.346 4.28609 3.13795 0
M  V30 9716 C 918.385 5.45184 2.78282 0
M  V30 9717 N 917.522 5.81851 3.92929 0
M  V30 9718 H 922.362 2.93806 0.498176 0
M  V30 9719 H 919.899 1.45222 0.234302 0
M  V30 9720 H 921.857 2.9217 2.97813 0
M  V30 9721 H 920.487 1.82489 2.66266 0
M  V30 9722 H 919.539 3.64952 1.07303 0
M  V30 9723 H 920.851 4.71892 1.61615 0
M  V30 9724 H 920.005 4.58925 3.96829 0
M  V30 9725 H 918.744 3.42585 3.47112 0
M  V30 9726 H 917.749 5.14563 1.93661 0
M  V30 9727 H 918.974 6.32907 2.46182 0
M  V30 9728 H 916.92 4.98782 4.2609 0
M  V30 9729 H 916.837 6.6128 3.66395 0
M  V30 9730 H 918.105 6.16772 4.76669 0
M  V30 9731 N 922.334 -0.244713 1.55689 0
M  V30 9732 C 923.264 -1.30667 1.93516 0
M  V30 9733 C 924.245 -1.50094 0.800371 0
M  V30 9734 O 925.43 -1.62665 1.06083 0
M  V30 9735 C 922.56 -2.66101 2.23176 0
M  V30 9736 C 921.514 -2.61366 3.38927 0
M  V30 9737 C 920.84 -4.00616 3.54134 0
M  V30 9738 C 922.14 -2.18161 4.74555 0
M  V30 9739 H 923.834 -0.992546 2.82469 0
M  V30 9740 H 921.38 -0.476018 1.35905 0
M  V30 9741 H 923.333 -3.4053 2.48228 0
M  V30 9742 H 922.057 -2.99154 1.31051 0
M  V30 9743 H 920.716 -1.89395 3.13887 0
M  V30 9744 H 920.364 -4.30938 2.59426 0
M  V30 9745 H 920.064 -3.98335 4.31975 0
M  V30 9746 H 921.588 -4.76741 3.8151 0
M  V30 9747 H 923.002 -2.82323 4.98965 0
M  V30 9748 H 921.399 -2.26988 5.55515 0
M  V30 9749 H 922.469 -1.13333 4.7147 0
M  V30 9750 N 923.813 -1.49104 -0.510467 0
M  V30 9751 C 924.745 -1.61183 -1.6295 0
M  V30 9752 C 925.758 -0.495003 -1.55092 0
M  V30 9753 O 926.947 -0.766671 -1.61197 0
M  V30 9754 C 924.047 -1.54373 -3.01699 0
M  V30 9755 C 923.22 -2.81428 -3.34838 0
M  V30 9756 C 922.279 -2.67802 -4.52956 0
M  V30 9757 O 921.305 -3.41723 -4.55208 0
M  V30 9758 N 922.507 -1.78715 -5.52305 0
M  V30 9759 H 925.272 -2.57693 -1.53018 0
M  V30 9760 H 922.833 -1.46073 -0.698152 0
M  V30 9761 H 924.825 -1.42924 -3.78622 0
M  V30 9762 H 923.395 -0.657597 -3.05605 0
M  V30 9763 H 922.615 -3.07299 -2.46903 0
M  V30 9764 H 923.903 -3.6568 -3.53773 0
M  V30 9765 H 923.301 -1.17897 -5.53278 0
M  V30 9766 H 921.858 -1.73194 -6.28369 0
M  V30 9767 N 925.291 0.760815 -1.38019 0
M  V30 9768 C 926.537 1.52198 -1.34028 0
M  V30 9769 C 926.87 1.94067 0.0718309 0
M  V30 9770 O 926.145 1.64895 1.0315 0
M  V30 9771 C 926.428 2.77954 -2.2894 0
M  V30 9772 C 926.281 2.42269 -3.7898 0
M  V30 9773 C 927.6 3.79943 -2.22107 0
M  V30 9774 H 924.719 0.552131 -0.488181 0
M  V30 9775 H 927.361 0.871971 -1.6881 0
M  V30 9776 H 925.511 3.33419 -1.9941 0
M  V30 9777 H 927.183 1.92635 -4.19153 0
M  V30 9778 H 925.426 1.74822 -3.97014 0
M  V30 9779 H 926.097 3.32211 -4.4084 0
M  V30 9780 H 928.573 3.34 -2.4816 0
M  V30 9781 H 927.449 4.6564 -2.90639 0
M  V30 9782 H 927.71 4.25004 -1.21753 0
M  V30 9783 N 926.769 1.22769 0.988202 0
M  V30 9784 C 928.015 1.05665 1.73097 0
M  V30 9785 C 928.348 -0.406615 1.89895 0
M  V30 9786 O 927.623 -1.30132 1.44554 0
M  V30 9787 C 927.906 1.77381 3.13382 0
M  V30 9788 C 927.759 3.31332 3.04203 0
M  V30 9789 C 929.078 1.52999 4.12649 0
M  V30 9790 H 926.197 0.385258 0.628288 0
M  V30 9791 H 928.839 1.51171 1.15097 0
M  V30 9792 H 926.989 1.38696 3.62899 0
M  V30 9793 H 928.661 3.79489 2.6227 0
M  V30 9794 H 926.904 3.60767 2.40894 0
M  V30 9795 H 927.575 3.76692 4.03493 0
M  V30 9796 H 930.051 1.86611 3.71908 0
M  V30 9797 H 928.927 2.05666 5.08913 0
M  V30 9798 H 929.188 0.463615 4.39662 0
M  V30 9799 N 928.247 -1.18576 1.03814 0
M  V30 9800 C 929.194 -2.2212 0.626988 0
M  V30 9801 C 930.164 -1.62064 -0.363912 0
M  V30 9802 O 931.349 -1.89041 -0.258469 0
M  V30 9803 C 928.489 -3.45099 -0.00650133 0
M  V30 9804 C 927.602 -4.19503 1.03156 0
M  V30 9805 C 926.737 -5.29932 0.366852 0
M  V30 9806 C 925.776 -5.96104 1.39018 0
M  V30 9807 N 924.913 -6.98076 0.750625 0
M  V30 9808 H 929.753 -2.56646 1.51449 0
M  V30 9809 H 927.29 -1.26084 0.757702 0
M  V30 9810 H 929.248 -4.15363 -0.391108 0
M  V30 9811 H 927.878 -3.11201 -0.857536 0
M  V30 9812 H 926.93 -3.48092 1.53414 0
M  V30 9813 H 928.242 -4.64843 1.80893 0
M  V30 9814 H 927.396 -6.06657 -0.0720979 0
M  V30 9815 H 926.135 -4.85687 -0.442631 0
M  V30 9816 H 925.14 -5.18122 1.8393 0
M  V30 9817 H 926.365 -6.42432 2.20132 0
M  V30 9818 H 924.311 -6.55989 -0.0385981 0
M  V30 9819 H 924.228 -7.41655 1.46574 0
M  V30 9820 H 925.496 -7.78776 0.335986 0
M  V30 9821 N 929.725 -0.817259 -1.34754 0
M  V30 9822 C 930.657 -0.192695 -2.28389 0
M  V30 9823 C 931.67 0.614167 -1.50771 0
M  V30 9824 O 932.859 0.444776 -1.7287 0
M  V30 9825 C 929.959 0.748929 -3.30521 0
M  V30 9826 C 929.132 -0.0138762 -4.37398 0
M  V30 9827 C 928.191 0.847825 -5.19325 0
M  V30 9828 O 927.217 0.29487 -5.68436 0
M  V30 9829 N 928.419 2.16843 -5.38479 0
M  V30 9830 H 931.184 -0.997122 -2.82626 0
M  V30 9831 H 928.745 -0.673696 -1.47217 0
M  V30 9832 H 930.737 1.32987 -3.82226 0
M  V30 9833 H 929.307 1.45412 -2.7672 0
M  V30 9834 H 928.527 -0.776093 -3.86485 0
M  V30 9835 H 929.815 -0.539191 -5.05935 0
M  V30 9836 H 929.213 2.64148 -5.00242 0
M  V30 9837 H 927.77 2.69835 -5.93323 0
M  V30 9838 N 931.203 1.46865 -0.571711 0
M  V30 9839 C 932.133 2.3298 0.155795 0
M  V30 9840 C 933.114 1.44678 0.894553 0
M  V30 9841 O 934.299 1.73513 0.872176 0
M  V30 9842 C 931.429 3.26745 1.17708 0
M  V30 9843 C 930.383 4.24401 0.553863 0
M  V30 9844 C 929.709 5.07595 1.68083 0
M  V30 9845 C 931.009 5.19884 -0.501827 0
M  V30 9846 H 932.703 2.94056 -0.563176 0
M  V30 9847 H 930.249 1.41402 -0.27228 0
M  V30 9848 H 932.202 3.85838 1.6943 0
M  V30 9849 H 930.926 2.63753 1.92618 0
M  V30 9850 H 929.585 3.66554 0.057815 0
M  V30 9851 H 929.233 4.40996 2.41933 0
M  V30 9852 H 928.933 5.73722 1.26953 0
M  V30 9853 H 930.457 5.6955 2.20103 0
M  V30 9854 H 931.871 5.73257 -0.0701057 0
M  V30 9855 H 930.268 5.94293 -0.832815 0
M  V30 9856 H 931.338 4.64482 -1.39229 0
M  V30 9857 N 932.681 0.308908 1.54543 0
M  V30 9858 C 933.644 -0.550857 2.22482 0
M  V30 9859 C 934.644 -1.0551 1.21344 0
M  V30 9860 O 935.834 -0.949866 1.46025 0
M  V30 9861 C 932.966 -1.76354 2.9174 0
M  V30 9862 H 934.159 0.0428395 2.99869 0
M  V30 9863 H 931.712 0.059825 1.56185 0
M  V30 9864 H 932.447 -2.39686 2.18451 0
M  V30 9865 H 932.232 -1.40954 3.65889 0
M  V30 9866 H 933.722 -2.37417 3.43545 0
M  V30 9867 N 934.159 -1.57557 0.0367827 0
M  V30 9868 C 935.389 -1.96134 -0.649225 0
M  V30 9869 C 935.797 -0.912279 -1.65753 0
M  V30 9870 O 935.14 0.113569 -1.83349 0
M  V30 9871 C 935.202 -3.30889 -1.40545 0
M  V30 9872 C 934.866 -4.53622 -0.554609 0
M  V30 9873 C 935.863 -5.19611 0.17331 0
M  V30 9874 C 933.548 -4.99907 -0.48976 0
M  V30 9875 C 935.542 -6.3021 0.95467 0
M  V30 9876 C 933.229 -6.10386 0.295299 0
M  V30 9877 C 934.227 -6.75398 1.01621 0
M  V30 9878 O 933.915 -7.83755 1.78839 0
M  V30 9879 H 933.647 -0.650662 -0.183344 0
M  V30 9880 H 936.201 -2.05179 0.0951512 0
M  V30 9881 H 934.431 -3.18356 -2.19513 0
M  V30 9882 H 936.12 -3.54315 -1.9803 0
M  V30 9883 H 936.886 -4.84819 0.132589 0
M  V30 9884 H 932.765 -4.49105 -1.04046 0
M  V30 9885 H 936.309 -6.80886 1.51789 0
M  V30 9886 H 932.206 -6.44616 0.33771 0
M  V30 9887 H 932.974 -8.0046 1.70898 0
M  V30 9888 N 935.637 0.236453 -1.55816 0
M  V30 9889 C 936.6 1.27633 -1.90375 0
M  V30 9890 C 937.6 1.40557 -0.781048 0
M  V30 9891 O 938.79 1.39078 -1.04895 0
M  V30 9892 C 935.922 2.65247 -2.14142 0
M  V30 9893 H 937.115 0.982019 -2.83366 0
M  V30 9894 H 934.668 0.476215 -1.48869 0
M  V30 9895 H 935.403 2.99801 -1.23653 0
M  V30 9896 H 935.188 2.57246 -2.95917 0
M  V30 9897 H 936.678 3.40313 -2.42026 0
M  V30 9898 N 937.115 1.49373 0.502552 0
M  V30 9899 C 938.045 1.68839 1.61294 0
M  V30 9900 C 939.026 0.537096 1.61398 0
M  V30 9901 O 940.211 0.772764 1.78163 0
M  V30 9902 C 937.341 1.75347 2.99784 0
M  V30 9903 C 936.295 2.90251 3.14545 0
M  V30 9904 C 935.621 2.8187 4.54371 0
M  V30 9905 C 936.921 4.31207 2.94717 0
M  V30 9906 H 938.615 2.61803 1.45257 0
M  V30 9907 H 936.161 1.25987 0.697371 0
M  V30 9908 H 938.114 1.87552 3.77362 0
M  V30 9909 H 936.838 0.789814 3.16906 0
M  V30 9910 H 935.497 2.77646 2.39392 0
M  V30 9911 H 935.145 1.83416 4.68367 0
M  V30 9912 H 934.845 3.5899 4.65188 0
M  V30 9913 H 936.369 2.96081 5.34012 0
M  V30 9914 H 937.783 4.44501 3.62065 0
M  V30 9915 H 936.18 5.09536 3.17007 0
M  V30 9916 H 937.25 4.45759 1.90857 0
M  V30 9917 N 938.594 -0.753485 1.38421 0
M  V30 9918 C 939.542 -1.8886 1.35774 0
M  V30 9919 C 940.536 -1.67639 0.243608 0
M  V30 9920 O 941.742 -1.75206 0.412649 0
M  V30 9921 H 938.117 -0.62137 0.42356 0
M  V30 9922 H 940.088 -1.88209 2.3156 0
M  V30 9923 C 938.837 -3.26344 1.19979 0
M  V30 9924 H 938.16 -3.43259 2.04971 0
M  V30 9925 H 939.6 -4.06015 1.22181 0
M  V30 9926 C 938.059 -3.36771 -0.0932867 0
M  V30 9927 O 938.589 -3.8718 -1.07027 0
M  V30 9928 N 936.795 -2.90212 -0.150154 0
M  V30 9929 H 936.342 -2.4938 0.645562 0
M  V30 9930 H 936.3 -2.97569 -1.0149 0
M  V30 9931 N 940.072 -1.23292 -0.981677 0
M  V30 9932 C 941.302 -1.0893 -1.7555 0
M  V30 9933 C 941.71 0.362219 -1.857 0
M  V30 9934 O 941.053 1.2624 -1.33451 0
M  V30 9935 C 941.115 -1.6389 -3.19969 0
M  V30 9936 C 940.779 -3.12632 -3.33332 0
M  V30 9937 C 941.776 -4.0994 -3.19758 0
M  V30 9938 C 939.461 -3.52314 -3.58022 0
M  V30 9939 C 941.455 -5.44915 -3.30676 0
M  V30 9940 C 939.142 -4.87434 -3.6858 0
M  V30 9941 C 940.14 -5.83544 -3.54916 0
M  V30 9942 O 939.828 -7.16209 -3.65102 0
M  V30 9943 H 939.56 -0.381901 -0.557788 0
M  V30 9944 H 942.114 -1.63586 -1.24213 0
M  V30 9945 H 940.344 -1.03653 -3.72549 0
M  V30 9946 H 942.033 -1.45023 -3.79108 0
M  V30 9947 H 942.799 -3.80625 -3.00582 0
M  V30 9948 H 938.678 -2.78022 -3.67729 0
M  V30 9949 H 942.222 -6.19913 -3.19928 0
M  V30 9950 H 938.119 -5.16426 -3.87265 0
M  V30 9951 H 938.887 -7.23941 -3.81905 0
M  V30 9952 N 941.55 1.18024 -1.04442 0
M  V30 9953 C 942.48 2.23988 -0.659683 0
M  V30 9954 C 943.461 1.6669 0.338904 0
M  V30 9955 O 944.646 1.92971 0.21817 0
M  V30 9956 C 941.776 3.4729 -0.0257672 0
M  V30 9957 C 940.73 4.17362 -0.948299 0
M  V30 9958 C 940.056 5.34401 -0.17866 0
M  V30 9959 C 941.356 4.70435 -2.26909 0
M  V30 9960 H 943.05 2.56425 -1.54553 0
M  V30 9961 H 940.596 1.23256 -0.744575 0
M  V30 9962 H 942.549 4.20627 0.255131 0
M  V30 9963 H 941.273 3.14098 0.894981 0
M  V30 9964 H 939.932 3.45928 -1.21364 0
M  V30 9965 H 939.58 4.97458 0.744614 0
M  V30 9966 H 939.28 5.8222 -0.793294 0
M  V30 9967 H 940.804 6.10526 0.0951315 0
M  V30 9968 H 942.218 5.35447 -2.04864 0
M  V30 9969 H 940.615 5.28803 -2.83703 0
M  V30 9970 H 941.685 3.87653 -2.91296 0
M  V30 9971 N 943.028 0.824394 1.34319 0
M  V30 9972 C 943.938 0.24932 2.33271 0
M  V30 9973 C 944.954 -0.617066 1.62691 0
M  V30 9974 O 946.13 -0.524616 1.94447 0
M  V30 9975 C 943.195 -0.578094 3.41846 0
M  V30 9976 C 942.256 0.310866 4.28173 0
M  V30 9977 C 941.489 -0.477153 5.31563 0
M  V30 9978 O 941.712 -1.71028 5.44156 0
M  V30 9979 O 940.646 0.141287 6.01734 0
M  V30 9980 H 944.472 1.06837 2.84288 0
M  V30 9981 H 942.057 0.58657 1.37403 0
M  V30 9982 H 943.939 -1.04878 4.0814 0
M  V30 9983 H 942.614 -1.37444 2.93071 0
M  V30 9984 H 941.521 0.829081 3.64797 0
M  V30 9985 H 942.854 1.07161 4.80393 0
M  V30 9986 N 944.506 -1.46559 0.579492 0
M  V30 9987 C 945.783 -1.956 -0.00287136 0
M  V30 9988 C 946.163 -1.52215 -1.46266 0
M  V30 9989 O 945.511 -0.771335 -2.15088 0
M  V30 9990 C 945.721 -3.48606 0.165824 0
M  V30 9991 C 947.069 -4.24588 0.0319807 0
M  V30 9992 O 948.093 -3.56075 0.094496 0
M  V30 9993 O 946.952 -5.46396 -0.106386 0
M  V30 9994 H 944.046 -0.825387 -0.0516274 0
M  V30 9995 H 946.592 -1.56858 0.647584 0
M  V30 9996 H 945.364 -3.7306 1.18076 0
M  V30 9997 H 944.987 -3.94169 -0.521212 0
M  V30 9998 N 945.984 -0.3171 -1.54377 0
M  V30 9999 C 946.931 0.551782 -2.24107 0
M  V30 10000 C 947.901 1.11681 -1.22949 0
M  V30 10001 O 949.086 1.15836 -1.51614 0
M  V30 10002 C 946.226 1.70997 -2.99756 0
M  V30 10003 C 945.339 1.17479 -4.15719 0
M  V30 10004 C 944.474 2.29815 -4.78914 0
M  V30 10005 C 943.513 1.73513 -5.86992 0
M  V30 10006 N 942.65 2.79485 -6.44075 0
M  V30 10007 H 947.49 -0.049431 -2.97959 0
M  V30 10008 H 945.027 -0.0361658 -1.47056 0
M  V30 10009 H 946.985 2.39141 -3.41859 0
M  V30 10010 H 945.615 2.28257 -2.28251 0
M  V30 10011 H 944.667 0.385109 -3.78446 0
M  V30 10012 H 945.979 0.72276 -4.93536 0
M  V30 10013 H 945.133 3.05875 -5.23952 0
M  V30 10014 H 943.872 2.78352 -4.00464 0
M  V30 10015 H 942.877 0.959475 -5.41363 0
M  V30 10016 H 944.102 1.2586 -6.67335 0
M  V30 10017 H 942.048 3.27325 -5.68502 0
M  V30 10018 H 941.965 2.38825 -7.17286 0
M  V30 10019 H 943.233 3.55394 -6.93769 0
M  V30 10020 N 947.462 1.57535 -0.0451378 0
M  V30 10021 C 948.71 1.92071 0.628743 0
M  V30 10022 C 949.031 0.923635 1.71738 0
M  V30 10023 O 948.301 -0.0324376 1.95873 0
M  V30 10024 H 946.881 0.708995 0.235233 0
M  V30 10025 H 949.543 1.9466 -0.0967177 0
M  V30 10026 H 948.639 2.9314 1.07123 0
M  V30 10027 N 948.94 -0.228186 1.55939 0
M  V30 10028 C 949.87 -1.28607 1.94891 0
M  V30 10029 C 950.851 -1.49236 0.816245 0
M  V30 10030 O 952.036 -1.61531 1.07803 0
M  V30 10031 C 949.166 -2.63719 2.25986 0
M  V30 10032 C 948.12 -2.57757 3.4168 0
M  V30 10033 C 947.446 -3.96837 3.58364 0
M  V30 10034 C 948.746 -2.13116 4.76843 0
M  V30 10035 H 950.44 -0.962531 2.83506 0
M  V30 10036 H 947.986 -0.461577 1.36402 0
M  V30 10037 H 949.939 -3.37878 2.51826 0
M  V30 10038 H 948.663 -2.97747 1.34217 0
M  V30 10039 H 947.322 -1.86055 3.15878 0
M  V30 10040 H 946.97 -4.28162 2.63982 0
M  V30 10041 H 946.67 -3.93731 4.36176 0
M  V30 10042 H 948.194 -4.72668 3.86545 0
M  V30 10043 H 949.608 -2.77015 5.01932 0
M  V30 10044 H 948.005 -2.21083 5.57891 0
M  V30 10045 H 949.075 -1.08326 4.72645 0
M  V30 10046 N 950.418 -1.49637 -0.494624 0
M  V30 10047 C 951.829 -1.52573 -1.07603 0
M  V30 10048 C 952.18 -0.315591 -1.93645 0
M  V30 10049 O 951.305 0.573966 -2.08649 0
M  V30 10050 C 951.9 -2.7648 -1.95817 0
M  V30 10051 C 950.459 -2.82173 -2.49109 0
M  V30 10052 C 949.606 -2.4657 -1.2688 0
M  V30 10053 H 952.557 -1.56242 -0.278251 0
M  V30 10054 H 952.578 -2.57003 -2.80588 0
M  V30 10055 H 952.09 -3.64538 -1.33167 0
M  V30 10056 H 950.191 -1.9841 -3.15379 0
M  V30 10057 H 950.304 -3.84501 -2.85825 0
M  V30 10058 H 948.668 -1.98489 -1.59607 0
M  V30 10059 H 949.451 -3.3691 -0.659281 0
M  V30 10060 N 951.896 0.746133 -1.38819 0
M  V30 10061 C 952.846 1.85085 -1.33145 0
M  V30 10062 C 953.83 1.59466 -0.214339 0
M  V30 10063 O 955.022 1.71159 -0.450943 0
M  V30 10064 C 952.151 3.22884 -1.16623 0
M  V30 10065 C 951.237 3.54369 -2.32988 0
M  V30 10066 N 951.628 3.56863 -3.58445 0
M  V30 10067 C 949.926 3.84674 -2.25703 0
M  V30 10068 C 950.627 3.85827 -4.3533 0
M  V30 10069 N 949.603 4.03037 -3.64777 0
M  V30 10070 H 953.405 1.85301 -2.28124 0
M  V30 10071 H 950.919 0.943847 -1.32156 0
M  V30 10072 H 952.916 4.0195 -1.10642 0
M  V30 10073 H 951.576 3.23914 -0.225841 0
M  V30 10074 H 952.587 3.38443 -3.92017 0
M  V30 10075 H 949.264 3.93375 -1.39864 0
M  V30 10076 H 950.654 3.94317 -5.44025 0
M  V30 10077 N 953.375 1.23811 0.975125 0
M  V30 10078 C 954.623 1.07124 1.71373 0
M  V30 10079 C 954.944 -0.391864 1.91022 0
M  V30 10080 O 954.214 -1.28041 1.48265 0
M  V30 10081 H 952.794 0.393415 0.635007 0
M  V30 10082 H 955.456 1.55612 1.17349 0
M  V30 10083 H 954.552 1.56338 2.7012 0
M  V30 10084 N 954.853 -1.17469 1.05066 0
M  V30 10085 C 955.801 -2.23495 0.644418 0
M  V30 10086 C 956.795 -1.66081 -0.333685 0
M  V30 10087 O 958.001 -1.78887 -0.199886 0
M  V30 10088 H 954.376 -0.727546 0.190214 0
M  V30 10089 H 956.347 -2.55058 1.5488 0
M  V30 10090 C 955.096 -3.47684 0.0338051 0
M  V30 10091 H 954.419 -3.92167 0.777513 0
M  V30 10092 H 955.859 -4.23464 -0.213086 0
M  V30 10093 C 954.318 -3.14067 -1.21915 0
M  V30 10094 O 954.848 -3.28728 -2.3087 0
M  V30 10095 N 953.054 -2.68304 -1.11631 0
M  V30 10096 H 952.601 -2.56574 -0.229673 0
M  V30 10097 H 952.559 -2.46184 -1.95553 0
M  V30 10098 N 956.331 -0.831506 -1.3388 0
M  V30 10099 C 957.577 -0.424302 -1.98312 0
M  V30 10100 C 957.91 1.01211 -1.65741 0
M  V30 10101 O 957.185 1.70636 -0.933464 0
M  V30 10102 C 957.468 -0.636815 -3.54424 0
M  V30 10103 C 957.321 -2.11997 -3.96708 0
M  V30 10104 C 958.64 -0.0782411 -4.4003 0
M  V30 10105 H 955.759 -0.155637 -0.720379 0
M  V30 10106 H 958.401 -1.04566 -1.58638 0
M  V30 10107 H 956.551 -0.107907 -3.8835 0
M  V30 10108 H 958.223 -2.71317 -3.73075 0
M  V30 10109 H 956.466 -2.60723 -3.46707 0
M  V30 10110 H 957.137 -2.21944 -5.05416 0
M  V30 10111 H 959.613 -0.530243 -4.12708 0
M  V30 10112 H 958.489 -0.256676 -5.483 0
M  V30 10113 H 958.75 1.01745 -4.30233 0
M  V30 10114 N 957.809 1.4625 -0.587256 0
M  V30 10115 C 959.034 2.07252 -0.0784517 0
M  V30 10116 C 959.459 1.43239 1.21919 0
M  V30 10117 O 958.817 0.517791 1.73749 0
M  V30 10118 C 958.865 3.60534 0.0691037 0
M  V30 10119 O 957.969 3.96773 1.12448 0
M  V30 10120 H 957.31 0.660825 -0.064859 0
M  V30 10121 H 959.84 1.87819 -0.811491 0
M  V30 10122 H 959.85 4.0708 0.273826 0
M  V30 10123 H 958.525 4.06516 -0.878514 0
M  V30 10124 H 957.102 3.6193 0.897852 0
M  V30 10125 N 959.287 0.325282 1.54207 0
M  V30 10126 C 960.25 -0.527228 2.23054 0
M  V30 10127 C 961.25 -1.04217 1.22456 0
M  V30 10128 O 962.44 -0.934325 1.47024 0
M  V30 10129 C 959.572 -1.7325 2.93594 0
M  V30 10130 H 960.765 0.0746423 2.99807 0
M  V30 10131 H 958.318 0.0763872 1.56113 0
M  V30 10132 H 959.053 -2.37356 2.20981 0
M  V30 10133 H 958.838 -1.37065 3.67363 0
M  V30 10134 H 960.328 -2.3376 3.46043 0
M  V30 10135 N 960.765 -1.57509 0.0534917 0
M  V30 10136 C 962.181 -1.56696 -0.303067 0
M  V30 10137 C 962.381 -1.06135 -1.71282 0
M  V30 10138 O 961.437 -0.71899 -2.42047 0
M  V30 10139 C 962.75 -3.00421 -0.129418 0
M  V30 10140 C 964.298 -3.12358 -0.200346 0
M  V30 10141 C 964.773 -4.57967 -0.0551971 0
M  V30 10142 N 966.264 -4.63066 -0.111398 0
M  V30 10143 C 966.999 -5.73395 -0.0232344 0
M  V30 10144 N 966.495 -6.92701 0.11741 0
M  V30 10145 N 968.288 -5.62045 -0.078984 0
M  V30 10146 H 960.439 -1.88696 0.975064 0
M  V30 10147 H 962.702 -0.869072 0.378706 0
M  V30 10148 H 962.408 -3.41456 0.842653 0
M  V30 10149 H 962.282 -3.66563 -0.889476 0
M  V30 10150 H 964.669 -2.71221 -1.16289 0
M  V30 10151 H 964.75 -2.48891 0.590506 0
M  V30 10152 H 964.394 -4.9979 0.904034 0
M  V30 10153 H 964.324 -5.19443 -0.865223 0
M  V30 10154 H 966.815 -3.77263 -0.219256 0
M  V30 10155 H 967.128 -7.72597 0.177326 0
M  V30 10156 H 965.473 -6.94833 0.152526 0
M  V30 10157 H 968.664 -4.67725 -0.187434 0
M  V30 10158 H 968.837 -6.48 -0.00681731 0
M  V30 10159 N 962.243 0.219913 -1.56058 0
M  V30 10160 C 963.19 1.27254 -1.92549 0
M  V30 10161 C 964.16 1.46493 -0.782883 0
M  V30 10162 O 965.345 1.60035 -1.03892 0
M  V30 10163 C 962.485 2.61756 -2.24896 0
M  V30 10164 C 961.598 2.50302 -3.52098 0
M  V30 10165 C 960.733 3.77338 -3.73884 0
M  V30 10166 C 959.772 3.60613 -4.94595 0
M  V30 10167 N 958.909 4.79603 -5.12763 0
M  V30 10168 H 963.749 0.954352 -2.82305 0
M  V30 10169 H 961.286 0.459928 -1.39725 0
M  V30 10170 H 963.244 3.40082 -2.4166 0
M  V30 10171 H 961.874 2.91668 -1.38311 0
M  V30 10172 H 960.926 1.63401 -3.43517 0
M  V30 10173 H 962.238 2.33866 -4.40577 0
M  V30 10174 H 961.392 4.64108 -3.90754 0
M  V30 10175 H 960.131 3.96702 -2.83689 0
M  V30 10176 H 959.136 2.72228 -4.77674 0
M  V30 10177 H 960.361 3.42719 -5.86277 0
M  V30 10178 H 958.307 4.99277 -4.2551 0
M  V30 10179 H 958.224 4.65899 -5.95377 0
M  V30 10180 H 959.492 5.67794 -5.34069 0
M  V30 10181 N 963.721 1.49897 0.486681 0
M  V30 10182 C 964.967 1.60342 1.2417 0
M  V30 10183 C 965.3 0.295694 1.91936 0
M  V30 10184 O 964.575 -0.701788 1.81398 0
M  V30 10185 C 964.858 2.77281 2.29755 0
M  V30 10186 C 964.711 4.1789 1.66397 0
M  V30 10187 C 966.03 2.89817 3.31201 0
M  V30 10188 H 963.149 0.583605 0.450083 0
M  V30 10189 H 965.791 1.82232 0.537734 0
M  V30 10190 H 963.941 2.58748 2.89796 0
M  V30 10191 H 965.613 4.47975 1.10073 0
M  V30 10192 H 963.856 4.22872 0.967579 0
M  V30 10193 H 964.527 4.95612 2.43049 0
M  V30 10194 H 967.003 3.06732 2.81167 0
M  V30 10195 H 965.879 3.7329 4.02425 0
M  V30 10196 H 966.14 1.9977 3.94391 0
M  V30 10197 N 965.199 -0.738761 1.39212 0
M  V30 10198 C 966.129 -1.86602 1.40364 0
M  V30 10199 C 967.11 -1.67984 0.267495 0
M  V30 10200 O 968.295 -1.88358 0.472765 0
M  V30 10201 C 965.425 -3.24308 1.24265 0
M  V30 10202 C 964.379 -3.57557 2.35239 0
M  V30 10203 C 963.705 -4.94159 2.04233 0
M  V30 10204 C 965.005 -3.60914 3.77543 0
M  V30 10205 H 966.699 -1.85896 2.34698 0
M  V30 10206 H 964.245 -0.892959 1.1297 0
M  V30 10207 H 966.198 -4.02838 1.23692 0
M  V30 10208 H 964.922 -3.25531 0.263974 0
M  V30 10209 H 963.581 -2.81354 2.35022 0
M  V30 10210 H 963.229 -4.91959 1.04813 0
M  V30 10211 H 962.929 -5.17373 2.78567 0
M  V30 10212 H 964.453 -5.7505 2.05303 0
M  V30 10213 H 965.867 -4.29528 3.79709 0
M  V30 10214 H 964.264 -3.95644 4.51205 0
M  V30 10215 H 965.334 -2.60803 4.08791 0
M  V30 10216 N 966.677 -1.24326 -0.968545 0
M  V30 10217 C 967.607 -1.05951 -2.08079 0
M  V30 10218 C 968.588 0.0272666 -1.70078 0
M  V30 10219 O 969.773 -0.139644 -1.93697 0
M  V30 10220 C 966.903 -0.662623 -3.4092 0
M  V30 10221 C 965.857 -1.69807 -3.92873 0
M  V30 10222 C 965.183 -1.15628 -5.22048 0
M  V30 10223 C 966.483 -3.09383 -4.20808 0
M  V30 10224 H 968.177 -1.98984 -2.23709 0
M  V30 10225 H 965.723 -0.958112 -1.075 0
M  V30 10226 H 967.676 -0.521071 -4.18166 0
M  V30 10227 H 966.4 0.303399 -3.25188 0
M  V30 10228 H 965.059 -1.82783 -3.17783 0
M  V30 10229 H 964.707 -0.180888 -5.02675 0
M  V30 10230 H 964.407 -1.84822 -5.57776 0
M  V30 10231 H 965.931 -1.02683 -6.01904 0
M  V30 10232 H 967.345 -2.99642 -4.88761 0
M  V30 10233 H 965.742 -3.75923 -4.67763 0
M  V30 10234 H 966.812 -3.57486 -3.27616 0
M  V30 10235 N 968.156 1.1691 -1.05688 0
M  V30 10236 C 969.119 2.19297 -0.666433 0
M  V30 10237 C 970.119 1.5826 0.284674 0
M  V30 10238 O 971.309 1.74068 0.0678757 0
M  V30 10239 C 968.441 3.40894 0.0203656 0
M  V30 10240 H 969.634 2.55354 -1.57272 0
M  V30 10241 H 967.187 1.31078 -0.851359 0
M  V30 10242 H 967.922 3.10388 0.939686 0
M  V30 10243 H 967.707 3.86446 -0.663464 0
M  V30 10244 H 969.197 4.16664 0.279475 0
M  V30 10245 N 969.634 0.838594 1.33437 0
M  V30 10246 C 971.05 0.526347 1.50671 0
M  V30 10247 C 971.25 -0.946387 1.77893 0
M  V30 10248 O 970.306 -1.7302 1.83903 0
M  V30 10249 C 971.619 1.39945 2.6615 0
M  V30 10250 C 973.167 1.3982 2.80035 0
M  V30 10251 C 973.642 2.25614 3.98576 0
M  V30 10252 N 975.133 2.23322 4.0581 0
M  V30 10253 C 975.868 2.86443 4.96727 0
M  V30 10254 N 975.364 3.58616 5.92762 0
M  V30 10255 N 977.157 2.75915 4.89722 0
M  V30 10256 H 969.308 1.79195 1.1403 0
M  V30 10257 H 971.571 0.764491 0.560586 0
M  V30 10258 H 971.277 2.44599 2.52714 0
M  V30 10259 H 971.151 1.07529 3.61548 0
M  V30 10260 H 973.538 0.35937 2.92904 0
M  V30 10261 H 973.619 1.76241 1.85399 0
M  V30 10262 H 973.263 3.29555 3.86466 0
M  V30 10263 H 973.193 1.86533 4.92456 0
M  V30 10264 H 975.684 1.70836 3.37081 0
M  V30 10265 H 975.997 4.03987 6.58798 0
M  V30 10266 H 974.342 3.62724 5.92838 0
M  V30 10267 H 977.533 2.19094 4.13661 0
M  V30 10268 H 977.706 3.25393 5.60378 0
M  V30 10269 N 971.112 -1.45937 0.595003 0
M  V30 10270 C 972.022 -2.34221 -0.133325 0
M  V30 10271 C 973.038 -1.50491 -0.873407 0
M  V30 10272 O 974.214 -1.83328 -0.833828 0
M  V30 10273 C 971.279 -3.27896 -1.12628 0
M  V30 10274 C 970.34 -4.27529 -0.389532 0
M  V30 10275 C 969.573 -5.16729 -1.33519 0
M  V30 10276 O 969.796 -5.09102 -2.57238 0
M  V30 10277 O 968.73 -5.96023 -0.839084 0
M  V30 10278 H 972.556 -2.97877 0.591861 0
M  V30 10279 H 970.141 -1.45113 0.355329 0
M  V30 10280 H 972.023 -3.85654 -1.69851 0
M  V30 10281 H 970.698 -2.6682 -1.83272 0
M  V30 10282 H 969.605 -3.73424 0.224843 0
M  V30 10283 H 970.938 -4.91425 0.276169 0
M  V30 10284 N 972.59 -0.333456 -1.54032 0
M  V30 10285 C 973.838 0.265608 -2.00347 0
M  V30 10286 C 974.159 1.51873 -1.2231 0
M  V30 10287 O 973.429 1.93142 -0.327549 0
M  V30 10288 H 972.009 0.101135 -0.740122 0
M  V30 10289 H 974.671 -0.452285 -1.8958 0
M  V30 10290 H 973.767 0.51511 -3.0782 0
M  V30 10291 N 974.068 1.57479 -0.061844 0
M  V30 10292 C 975.031 2.1104 0.894127 0
M  V30 10293 C 976.031 1.03227 1.23292 0
M  V30 10294 O 977.221 1.29256 1.16784 0
M  V30 10295 C 974.353 2.6035 2.20069 0
M  V30 10296 H 975.546 2.96807 0.429619 0
M  V30 10297 H 973.099 1.55181 0.18672 0
M  V30 10298 H 973.834 1.78008 2.71079 0
M  V30 10299 H 973.619 3.39146 1.9678 0
M  V30 10300 H 975.109 3.019 2.88525 0
M  V30 10301 N 975.546 -0.211634 1.56173 0
M  V30 10302 C 976.823 -0.959467 1.70451 0
M  V30 10303 C 977.203 -2.02036 0.611942 0
M  V30 10304 O 976.551 -2.25325 -0.37959 0
M  V30 10305 C 976.761 -1.56092 3.12148 0
M  V30 10306 C 978.109 -2.04939 3.71867 0
M  V30 10307 O 979.133 -1.65966 3.15172 0
M  V30 10308 O 977.992 -2.766 4.71333 0
M  V30 10309 H 975.086 -0.448844 0.6946 0
M  V30 10310 H 977.632 -0.202633 1.68486 0
M  V30 10311 H 976.404 -0.79538 3.83131 0
M  V30 10312 H 976.027 -2.38303 3.18273 0
M  V30 10313 N 977.024 -1.50153 -0.478725 0
M  V30 10314 C 978.272 -1.60443 -1.22892 0
M  V30 10315 C 978.593 -0.303276 -1.92627 0
M  V30 10316 O 977.863 0.678798 -1.83764 0
M  V30 10317 H 976.443 -0.591205 -0.456602 0
M  V30 10318 H 979.105 -1.86893 -0.552905 0
M  V30 10319 H 978.201 -2.41175 -1.98094 0
M  V30 10320 N 978.502 0.731368 -1.39602 0
M  V30 10321 C 979.727 1.52567 -1.40492 0
M  V30 10322 C 980.152 1.881 -0.00228828 0
M  V30 10323 O 979.51 1.52167 0.985643 0
M  V30 10324 C 979.558 2.78749 -2.2876 0
M  V30 10325 O 978.662 3.7482 -1.71999 0
M  V30 10326 H 978.003 0.460601 -0.478271 0
M  V30 10327 H 980.533 0.902042 -1.83642 0
M  V30 10328 H 980.543 3.27446 -2.43399 0
M  V30 10329 H 979.218 2.5222 -3.30693 0
M  V30 10330 H 977.795 3.33604 -1.66622 0
M  V30 10331 N 979.98 1.24838 0.961938 0
M  V30 10332 C 981.391 1.08369 1.5203 0
M  V30 10333 C 981.742 -0.343005 1.93178 0
M  V30 10334 O 980.867 -1.2321 1.779 0
M  V30 10335 C 981.462 1.96102 2.76278 0
M  V30 10336 C 980.021 1.8384 3.28451 0
M  V30 10337 C 979.168 1.9069 2.01327 0
M  V30 10338 H 982.119 1.38231 0.779613 0
M  V30 10339 H 982.14 1.4967 3.49827 0
M  V30 10340 H 981.652 2.99931 2.46298 0
M  V30 10341 H 979.753 0.828653 3.63269 0
M  V30 10342 H 979.866 2.68251 3.96961 0
M  V30 10343 H 978.23 1.34488 2.16299 0
M  V30 10344 H 979.013 2.96111 1.73705 0
M  V30 10345 N 981.458 -1.16348 1.06306 0
M  V30 10346 C 982.869 -1.68491 0.80422 0
M  V30 10347 C 983.22 -1.84327 -0.672159 0
M  V30 10348 O 982.345 -1.53892 -1.52139 0
M  V30 10349 C 982.94 -3.06048 1.45328 0
M  V30 10350 C 981.499 -3.55311 1.24221 0
M  V30 10351 C 980.646 -2.31291 1.5297 0
M  V30 10352 H 983.597 -1.00708 1.22652 0
M  V30 10353 H 983.618 -3.70451 0.868674 0
M  V30 10354 H 983.13 -2.9449 2.52779 0
M  V30 10355 H 981.231 -3.72128 0.187447 0
M  V30 10356 H 981.344 -4.37397 1.95502 0
M  V30 10357 H 979.708 -2.3631 0.950241 0
M  V30 10358 H 980.491 -2.22331 2.6158 0
M  V30 10359 N 982.937 -0.845659 -1.3299 0
M  V30 10360 C 984.184 -0.444653 -1.97558 0
M  V30 10361 C 984.512 0.997682 -1.66963 0
M  V30 10362 O 983.767 1.71349 -0.94541 0
M  V30 10363 C 984.066 -0.6201 -3.51979 0
M  V30 10364 C 983.732 -2.03155 -4.02541 0
M  V30 10365 C 982.394 -2.4176 -4.16059 0
M  V30 10366 C 984.746 -2.95317 -4.29462 0
M  V30 10367 C 982.074 -3.71818 -4.53837 0
M  V30 10368 C 984.426 -4.24863 -4.68694 0
M  V30 10369 C 983.09 -4.63416 -4.80419 0
M  V30 10370 H 982.36 -0.16271 -0.722915 0
M  V30 10371 H 985.007 -1.07399 -1.58549 0
M  V30 10372 H 983.312 0.092513 -3.91691 0
M  V30 10373 H 985.009 -0.290012 -3.9995 0
M  V30 10374 H 981.599 -1.72174 -3.92497 0
M  V30 10375 H 985.783 -2.66726 -4.18534 0
M  V30 10376 H 981.039 -4.01484 -4.61108 0
M  V30 10377 H 985.213 -4.96347 -4.8848 0
M  V30 10378 H 982.84 -5.6424 -5.09448 0
M  V30 10379 N 984.415 1.45619 -0.602734 0
M  V30 10380 C 985.664 2.01483 -0.0936395 0
M  V30 10381 C 985.977 1.47753 1.28173 0
M  V30 10382 O 987.183 1.95562 1.88329 0
M  V30 10383 C 985.639 3.59711 -0.116738 0
M  V30 10384 C 985.247 4.22437 -1.49166 0
M  V30 10385 C 986.991 4.23157 0.337368 0
M  V30 10386 C 984.898 5.72803 -1.47141 0
M  V30 10387 H 983.828 0.753353 -0.0312382 0
M  V30 10388 H 986.479 1.67142 -0.757347 0
M  V30 10389 H 984.861 3.91218 0.613529 0
M  V30 10390 H 986.035 4.02511 -2.24325 0
M  V30 10391 H 984.35 3.71166 -1.88746 0
M  V30 10392 H 986.947 5.33407 0.371628 0
M  V30 10393 H 987.29 3.93491 1.35906 0
M  V30 10394 H 987.823 3.96349 -0.339474 0
M  V30 10395 H 984.562 6.07161 -2.47055 0
M  V30 10396 H 984.082 5.94936 -0.762329 0
M  V30 10397 H 985.761 6.35907 -1.19294 0
M  V30 10398 N 985.893 0.34162 1.53853 0
M  V30 10399 C 986.84 -0.516058 2.24957 0
M  V30 10400 C 987.81 -1.09711 1.2471 0
M  V30 10401 O 988.995 -1.13409 1.53438 0
M  V30 10402 C 986.135 -1.66207 3.02439 0
M  V30 10403 C 985.248 -1.10851 4.17536 0
M  V30 10404 C 984.383 -2.22167 4.82509 0
M  V30 10405 C 983.422 -1.64152 5.89678 0
M  V30 10406 N 982.559 -2.69203 6.4844 0
M  V30 10407 H 987.399 0.0968275 2.97843 0
M  V30 10408 H 984.936 0.0595565 1.46979 0
M  V30 10409 H 986.894 -2.33672 3.4562 0
M  V30 10410 H 985.524 -2.24597 2.31853 0
M  V30 10411 H 984.576 -0.324853 3.7901 0
M  V30 10412 H 985.888 -0.644151 4.94623 0
M  V30 10413 H 985.042 -2.97501 5.28751 0
M  V30 10414 H 983.781 -2.71946 4.04842 0
M  V30 10415 H 982.786 -0.873228 5.42821 0
M  V30 10416 H 984.011 -1.15228 6.69253 0
M  V30 10417 H 981.957 -3.1824 5.73637 0
M  V30 10418 H 981.874 -2.27383 7.20994 0
M  V30 10419 H 983.142 -3.44312 6.99335 0
M  V30 10420 N 987.371 -1.57444 0.0701946 0
M  V30 10421 C 988.301 -2.15659 -0.895176 0
M  V30 10422 C 989.282 -1.08321 -1.31151 0
M  V30 10423 O 990.467 -1.36349 -1.38284 0
M  V30 10424 C 987.597 -2.71693 -2.16334 0
M  V30 10425 C 986.551 -3.84183 -1.88645 0
M  V30 10426 C 985.877 -4.26814 -3.22078 0
M  V30 10427 C 987.177 -5.08493 -1.19299 0
M  V30 10428 H 988.871 -2.96576 -0.410217 0
M  V30 10429 H 986.417 -1.42662 -0.195872 0
M  V30 10430 H 988.37 -3.11064 -2.84284 0
M  V30 10431 H 987.094 -1.87994 -2.67069 0
M  V30 10432 H 985.753 -3.45314 -1.23101 0
M  V30 10433 H 985.401 -3.40039 -3.70651 0
M  V30 10434 H 985.101 -5.02642 -3.04344 0
M  V30 10435 H 986.625 -4.68799 -3.91228 0
M  V30 10436 H 988.039 -5.4519 -1.77316 0
M  V30 10437 H 986.436 -5.89588 -1.11828 0
M  V30 10438 H 987.506 -4.84595 -0.171839 0
M  V30 10439 N 988.849 0.203349 -1.56283 0
M  V30 10440 C 990.074 0.945548 -1.84592 0
M  V30 10441 C 990.499 1.7641 -0.652772 0
M  V30 10442 O 989.857 1.76867 0.398468 0
M  V30 10443 C 989.905 1.82416 -3.11057 0
M  V30 10444 O 989.009 2.92191 -2.9103 0
M  V30 10445 H 988.35 0.266739 -0.608068 0
M  V30 10446 H 990.88 0.211158 -2.03507 0
M  V30 10447 H 990.89 2.23044 -3.41636 0
M  V30 10448 H 989.565 1.22267 -3.97522 0
M  V30 10449 H 988.142 2.55378 -2.71728 0
M  V30 10450 N 990.327 1.50405 0.470755 0
M  V30 10451 C 991.604 1.51929 1.23195 0
M  V30 10452 C 991.984 0.264159 2.09441 0
M  V30 10453 O 991.332 -0.752395 2.15757 0
M  V30 10454 C 991.542 2.81521 2.06269 0
M  V30 10455 C 992.89 3.32195 2.64446 0
M  V30 10456 O 993.914 2.82845 2.16511 0
M  V30 10457 O 992.773 4.18221 3.51786 0
M  V30 10458 H 989.867 0.609411 0.559059 0
M  V30 10459 H 992.413 1.62695 0.482549 0
M  V30 10460 H 991.185 3.64346 1.42715 0
M  V30 10461 H 990.808 2.7376 2.88342 0
M  V30 10462 N 991.805 -0.723954 1.39988 0
M  V30 10463 C 993.216 -1.30273 1.33738 0
M  V30 10464 C 993.567 -1.96199 0.00690581 0
M  V30 10465 O 992.692 -1.97016 -0.895179 0
M  V30 10466 C 993.287 -2.36889 2.42217 0
M  V30 10467 C 991.846 -2.90412 2.39453 0
M  V30 10468 C 990.993 -1.64103 2.2353 0
M  V30 10469 H 993.944 -0.520672 1.49916 0
M  V30 10470 H 993.965 -3.17538 2.09642 0
M  V30 10471 H 993.477 -1.88878 3.39038 0
M  V30 10472 H 991.578 -3.42674 1.46304 0
M  V30 10473 H 991.691 -3.42775 3.34727 0
M  V30 10474 H 990.055 -1.88855 1.70897 0
M  V30 10475 H 990.838 -1.18128 3.22336 0
M  V30 10476 N 993.283 -1.25346 -0.955304 0
M  V30 10477 C 994.531 -1.09837 -1.69647 0
M  V30 10478 C 994.852 0.361425 -1.91621 0
M  V30 10479 O 994.122 1.25666 -1.50283 0
M  V30 10480 H 992.702 -0.403467 -0.628668 0
M  V30 10481 H 995.364 -1.57459 -1.14859 0
M  V30 10482 H 994.46 -1.60616 -2.67598 0
M  V30 10483 N 994.761 1.15782 -1.06922 0
M  V30 10484 C 996.007 1.86741 -0.790922 0
M  V30 10485 C 996.34 1.81863 0.681149 0
M  V30 10486 O 995.615 1.23871 1.49954 0
M  V30 10487 C 995.898 3.36038 -1.29422 0
M  V30 10488 C 995.751 3.49573 -2.83052 0
M  V30 10489 C 997.07 4.30647 -0.907239 0
M  V30 10490 H 994.189 0.678064 -0.288787 0
M  V30 10491 H 996.831 1.36054 -1.32624 0
M  V30 10492 H 994.981 3.79336 -0.838843 0
M  V30 10493 H 996.653 3.1517 -3.36847 0
M  V30 10494 H 994.896 2.91275 -3.21467 0
M  V30 10495 H 995.567 4.5445 -3.13335 0
M  V30 10496 H 998.043 3.95286 -1.29956 0
M  V30 10497 H 996.919 5.33604 -1.28679 0
M  V30 10498 H 997.18 4.41703 0.187251 0
M  V30 10499 N 996.239 0.8527 1.3254 0
M  V30 10500 C 997.464 0.468157 2.02047 0
M  V30 10501 C 997.889 -0.926967 1.63673 0
M  V30 10502 O 997.247 -1.60855 0.836378 0
M  V30 10503 C 997.295 0.612519 3.5536 0
M  V30 10504 O 996.399 -0.355506 4.10865 0
M  V30 10505 H 995.74 0.188401 0.636711 0
M  V30 10506 H 998.27 1.15135 1.6913 0
M  V30 10507 H 998.28 0.499315 4.04933 0
M  V30 10508 H 996.955 1.62988 3.82632 0
M  V30 10509 H 995.532 -0.198703 3.7237 0
M  V30 10510 N 997.718 -1.45297 0.610449 0
M  V30 10511 C 999.129 -1.85715 0.191488 0
M  V30 10512 C 999.48 -1.51036 -1.25229 0
M  V30 10513 O 998.605 -0.938422 -1.94994 0
M  V30 10514 C 999.2 -3.37082 0.340747 0
M  V30 10515 C 997.759 -3.76393 -0.0235433 0
M  V30 10516 C 996.906 -2.69237 0.663849 0
M  V30 10517 H 999.857 -1.36058 0.816948 0
M  V30 10518 H 999.878 -3.78105 -0.426233 0
M  V30 10519 H 999.39 -3.62291 1.39164 0
M  V30 10520 H 997.491 -3.56801 -1.07351 0
M  V30 10521 H 997.604 -4.77653 0.372102 0
M  V30 10522 H 995.968 -2.54499 0.101204 0
M  V30 10523 H 996.751 -2.97281 1.71694 0
M  V30 10524 N 999.196 -0.349774 -1.5367 0
M  V30 10525 C 1000.16 0.491676 -2.23864 0
M  V30 10526 C 1001.16 1.02256 -1.24098 0
M  V30 10527 O 1002.35 0.910816 -1.48492 0
M  V30 10528 C 999.481 1.68557 -2.96313 0
M  V30 10529 H 1000.67 -0.12233 -2.9965 0
M  V30 10530 H 998.227 -0.101214 -1.55972 0
M  V30 10531 H 998.962 2.3381 -2.2473 0
M  V30 10532 H 998.747 1.31203 -3.69497 0
M  V30 10533 H 1000.24 2.28225 -3.49718 0
M  V30 10534 N 1000.67 1.57404 -0.0785433 0
M  V30 10535 C 1001.92 1.94031 0.589896 0
M  V30 10536 C 1002.25 0.959297 1.68852 0
M  V30 10537 O 1001.53 -0.0103978 1.94497 0
M  V30 10538 C 1001.81 3.40886 1.16055 0
M  V30 10539 C 1001.66 4.49748 0.0681072 0
M  V30 10540 C 1002.98 3.88699 2.06401 0
M  V30 10541 H 1000.1 0.70556 0.212965 0
M  V30 10542 H 1002.74 1.89439 -0.145886 0
M  V30 10543 H 1000.89 3.4493 1.78761 0
M  V30 10544 H 1002.57 4.57823 -0.565318 0
M  V30 10545 H 1000.81 4.29625 -0.600431 0
M  V30 10546 H 1001.48 5.49658 0.507906 0
M  V30 10547 H 1003.96 3.86703 1.53622 0
M  V30 10548 H 1002.83 4.92052 2.43261 0
M  V30 10549 H 1003.09 3.2703 2.97496 0
M  V30 10550 N 1002.15 -0.195058 1.56388 0
M  V30 10551 C 1003.08 -1.24444 1.97575 0
M  V30 10552 C 1004.06 -1.47471 0.847717 0
M  V30 10553 O 1005.25 -1.59208 1.11205 0
M  V30 10554 C 1002.38 -2.58866 2.31529 0
M  V30 10555 C 1001.33 -2.50451 3.47071 0
M  V30 10556 C 1000.66 -3.89146 3.667 0
M  V30 10557 C 1001.96 -2.02953 4.81256 0
M  V30 10558 H 1003.65 -0.902178 2.85484 0
M  V30 10559 H 1001.2 -0.43254 1.3735 0
M  V30 10560 H 1003.15 -3.3246 2.58936 0
M  V30 10561 H 1001.87 -2.94833 1.40502 0
M  V30 10562 H 1000.53 -1.79313 3.19754 0
M  V30 10563 H 1000.18 -4.22466 2.73004 0
M  V30 10564 H 999.882 -3.84391 4.44429 0
M  V30 10565 H 1001.41 -4.64363 3.96484 0
M  V30 10566 H 1002.82 -2.66306 5.07695 0
M  V30 10567 H 1001.22 -2.092 5.62455 0
M  V30 10568 H 1002.29 -0.982757 4.74837 0
M  V30 10569 N 1003.63 -1.50653 -0.462772 0
M  V30 10570 C 1004.85 -1.66103 -1.24196 0
M  V30 10571 C 1005.28 -0.347421 -1.84864 0
M  V30 10572 O 1004.64 0.689673 -1.6767 0
M  V30 10573 C 1004.69 -2.76027 -2.32037 0
M  V30 10574 O 1003.79 -2.37859 -3.36893 0
M  V30 10575 H 1003.13 -0.554672 -0.365014 0
M  V30 10576 H 1005.66 -1.97076 -0.549734 0
M  V30 10577 H 1005.67 -2.99354 -2.77221 0
M  V30 10578 H 1004.35 -3.71361 -1.87253 0
M  V30 10579 H 1002.92 -2.2501 -2.97363 0
M  V30 10580 N 1005.11 0.71652 -1.4037 0
M  V30 10581 C 1006.04 1.84345 -1.43315 0
M  V30 10582 C 1007.02 1.67537 -0.294186 0
M  V30 10583 O 1008.2 1.87582 -0.502671 0
M  V30 10584 C 1005.33 3.2229 -1.29408 0
M  V30 10585 C 1004.29 3.53769 -2.40897 0
M  V30 10586 C 1003.61 4.90847 -2.12068 0
M  V30 10587 C 1004.91 3.54862 -3.83237 0
M  V30 10588 H 1006.61 1.82138 -2.37626 0
M  V30 10589 H 1004.15 0.874873 -1.14376 0
M  V30 10590 H 1006.11 4.00819 -1.30085 0
M  V30 10591 H 1004.83 3.2507 -0.31573 0
M  V30 10592 H 1003.49 2.77579 -2.39469 0
M  V30 10593 H 1003.14 4.90229 -1.12626 0
M  V30 10594 H 1002.84 5.12875 -2.86762 0
M  V30 10595 H 1004.36 5.71711 -2.14426 0
M  V30 10596 H 1005.78 4.23432 -3.86494 0
M  V30 10597 H 1004.17 3.88416 -4.57442 0
M  V30 10598 H 1005.24 2.54266 -4.12888 0
M  V30 10599 N 1006.59 1.25851 0.948643 0
M  V30 10600 C 1007.5 1.08516 2.07994 0
M  V30 10601 C 1008.51 0.0206696 1.73988 0
M  V30 10602 O 1009.69 0.222854 2.00163 0
M  V30 10603 C 1006.75 0.712145 3.39307 0
M  V30 10604 C 1005.81 1.85523 3.87143 0
M  V30 10605 C 1005.05 1.49992 5.1219 0
M  V30 10606 O 1005.27 0.398268 5.69008 0
M  V30 10607 O 1004.2 2.33215 5.54882 0
M  V30 10608 H 1008.03 2.03405 2.25522 0
M  V30 10609 H 1005.62 1.04844 1.06433 0
M  V30 10610 H 1007.5 0.516512 4.18223 0
M  V30 10611 H 1006.17 -0.207416 3.23035 0
M  V30 10612 H 1005.08 2.10578 3.09205 0
M  V30 10613 H 1006.41 2.75425 4.07924 0
M  V30 10614 N 1008.06 -1.15214 1.07534 0
M  V30 10615 C 1009 -2.18999 0.641461 0
M  V30 10616 C 1009.98 -1.58958 -0.342238 0
M  V30 10617 O 1011.16 -1.86859 -0.248218 0
M  V30 10618 C 1008.29 -3.38651 -0.0577939 0
M  V30 10619 C 1007.33 -4.17225 0.884641 0
M  V30 10620 S 1008.17 -4.79375 2.38663 0
M  V30 10621 C 1009.32 -6.02393 1.69923 0
M  V30 10622 H 1009.55 -2.55464 1.52071 0
M  V30 10623 H 1007.09 -1.26205 0.889481 0
M  V30 10624 H 1009.05 -4.07971 -0.454982 0
M  V30 10625 H 1007.71 -3.00526 -0.913407 0
M  V30 10626 H 1006.9 -5.02837 0.342133 0
M  V30 10627 H 1006.5 -3.53463 1.2223 0
M  V30 10628 H 1008.79 -6.69899 1.01201 0
M  V30 10629 H 1009.74 -6.61216 2.53375 0
M  V30 10630 H 1010.14 -5.52106 1.1764 0
M  V30 10631 N 1009.54 -0.859717 -1.32086 0
M  V30 10632 C 1010.47 -0.323502 -2.31248 0
M  V30 10633 C 1011.45 0.580085 -1.59903 0
M  V30 10634 O 1012.64 0.499265 -1.87673 0
M  V30 10635 C 1009.77 0.484661 -3.43902 0
M  V30 10636 C 1008.72 -0.324933 -4.26765 0
M  V30 10637 C 1008.05 0.608281 -5.31229 0
M  V30 10638 C 1009.35 -1.55344 -4.98664 0
M  V30 10639 H 1011.04 -1.15209 -2.76346 0
M  V30 10640 H 1008.59 -0.555442 -1.32856 0
M  V30 10641 H 1010.54 0.870238 -4.12316 0
M  V30 10642 H 1009.27 1.34666 -2.97544 0
M  V30 10643 H 1007.92 -0.692328 -3.60003 0
M  V30 10644 H 1007.57 1.46727 -4.81124 0
M  V30 10645 H 1007.27 0.0705571 -5.87558 0
M  V30 10646 H 1008.8 0.990925 -6.02506 0
M  V30 10647 H 1010.21 -1.23987 -5.59732 0
M  V30 10648 H 1008.61 -2.02947 -5.64741 0
M  V30 10649 H 1009.68 -2.31192 -4.26237 0
M  V30 10650 N 1011.02 1.44971 -0.618145 0
M  V30 10651 C 1012.25 2.06527 -0.124165 0
M  V30 10652 C 1012.66 1.46097 1.19588 0
M  V30 10653 O 1012.02 0.57901 1.73071 0
M  V30 10654 C 1012.07 3.61498 0.0106701 0
M  V30 10655 O 1011.79 4.19675 -1.25716 0
M  V30 10656 C 1013.29 4.40061 0.534872 0
M  V30 10657 H 1010.51 0.666941 -0.0736935 0
M  V30 10658 H 1013.06 1.8605 -0.848871 0
M  V30 10659 H 1011.21 3.81282 0.685752 0
M  V30 10660 H 1011.63 5.12972 -1.09362 0
M  V30 10661 H 1013.1 5.48963 0.57827 0
M  V30 10662 H 1013.58 4.10587 1.55931 0
M  V30 10663 H 1014.18 4.25167 -0.10652 0
M  V30 10664 N 1012.5 0.357919 1.53482 0
M  V30 10665 C 1013.78 -0.290164 1.93436 0
M  V30 10666 C 1014.16 -1.67039 1.29079 0
M  V30 10667 O 1013.5 -2.24085 0.447017 0
M  V30 10668 C 1013.71 -0.348055 3.4726 0
M  V30 10669 C 1015.06 -0.59206 4.20452 0
M  V30 10670 O 1016.09 -0.429581 3.536 0
M  V30 10671 O 1014.94 -0.907855 5.38907 0
M  V30 10672 H 1012.04 -0.172312 0.80885 0
M  V30 10673 H 1014.58 0.410144 1.64669 0
M  V30 10674 H 1013.36 0.619953 3.86358 0
M  V30 10675 H 1012.98 -1.09457 3.82237 0
M  V30 10676 N 1013.98 -1.5736 0.0868897 0
M  V30 10677 C 1015.39 -1.57304 -0.269762 0
M  V30 10678 C 1015.59 -1.09745 -1.68992 0
M  V30 10679 O 1014.65 -0.77017 -2.40468 0
M  V30 10680 C 1015.96 -3.00628 -0.0656646 0
M  V30 10681 C 1017.51 -3.12713 -0.134045 0
M  V30 10682 C 1017.98 -4.57981 0.0419569 0
M  V30 10683 N 1019.48 -4.63198 -0.0131501 0
M  V30 10684 C 1020.21 -5.73316 0.0983964 0
M  V30 10685 N 1019.71 -6.92296 0.264315 0
M  V30 10686 N 1021.5 -5.62086 0.0402517 0
M  V30 10687 H 1013.65 -1.86585 1.01487 0
M  V30 10688 H 1015.91 -0.860843 0.397055 0
M  V30 10689 H 1015.62 -3.39592 0.914891 0
M  V30 10690 H 1015.49 -3.68367 -0.811522 0
M  V30 10691 H 1017.88 -2.73627 -1.1051 0
M  V30 10692 H 1017.96 -2.47582 0.643167 0
M  V30 10693 H 1017.61 -4.9776 1.00984 0
M  V30 10694 H 1017.54 -5.21162 -0.754847 0
M  V30 10695 H 1020.03 -3.77644 -0.139183 0
M  V30 10696 H 1020.34 -7.72047 0.341165 0
M  V30 10697 H 1018.68 -6.94353 0.299876 0
M  V30 10698 H 1021.88 -4.68017 -0.0881801 0
M  V30 10699 H 1022.05 -6.47868 0.130635 0
M  V30 10700 N 1015.45 0.186762 -1.56489 0
M  V30 10701 C 1016.7 0.904077 -1.80303 0
M  V30 10702 C 1017.02 1.84073 -0.661538 0
M  V30 10703 O 1018.22 2.59928 -0.784197 0
M  V30 10704 C 1016.68 1.65806 -3.19432 0
M  V30 10705 C 1016.29 0.765807 -4.41406 0
M  V30 10706 C 1018.03 2.36451 -3.52549 0
M  V30 10707 C 1015.94 1.51913 -5.71556 0
M  V30 10708 H 1014.87 0.34133 -0.672317 0
M  V30 10709 H 1017.52 0.157218 -1.82825 0
M  V30 10710 H 1015.9 2.44911 -3.11183 0
M  V30 10711 H 1017.07 0.0128225 -4.60798 0
M  V30 10712 H 1015.39 0.169772 -4.16054 0
M  V30 10713 H 1017.99 2.93378 -4.47027 0
M  V30 10714 H 1018.33 3.11044 -2.7669 0
M  V30 10715 H 1018.86 1.64305 -3.62283 0
M  V30 10716 H 1015.6 0.815829 -6.50403 0
M  V30 10717 H 1015.12 2.24583 -5.56168 0
M  V30 10718 H 1016.8 2.07073 -6.12968 0
M  V30 10719 N 1016.93 1.50896 0.454776 0
M  V30 10720 C 1018.34 1.55372 1.0352 0
M  V30 10721 C 1018.69 0.366822 1.9274 0
M  V30 10722 O 1017.82 -0.518444 2.10098 0
M  V30 10723 C 1018.41 2.81574 1.88418 0
M  V30 10724 C 1016.97 2.88679 2.4154 0
M  V30 10725 C 1016.12 2.49847 1.20298 0
M  V30 10726 H 1019.07 1.56924 0.236729 0
M  V30 10727 H 1019.09 2.64352 2.73676 0
M  V30 10728 H 1018.6 3.67941 1.23455 0
M  V30 10729 H 1016.71 2.06702 3.10008 0
M  V30 10730 H 1016.82 3.91944 2.7553 0
M  V30 10731 H 1015.18 2.02651 1.54288 0
M  V30 10732 H 1015.97 3.3854 0.569723 0
M  V30 10733 N 1018.41 -0.709066 1.40748 0
M  V30 10734 C 1019.66 -1.46993 1.40587 0
M  V30 10735 C 1020.01 -1.92397 0.00986301 0
M  V30 10736 O 1019.3 -1.65712 -0.961772 0
M  V30 10737 C 1019.5 -2.70543 2.33541 0
M  V30 10738 C 1019.33 -2.37222 3.82041 0
M  V30 10739 C 1018.1 -2.28244 4.50813 0
M  V30 10740 C 1020.3 -2.01069 4.73367 0
M  V30 10741 N 1018.28 -1.87667 5.84512 0
M  V30 10742 C 1019.65 -1.71144 5.95911 0
M  V30 10743 C 1021.7 -1.87761 4.6114 0
M  V30 10744 C 1020.41 -1.2925 7.07592 0
M  V30 10745 C 1022.43 -1.47271 5.7277 0
M  V30 10746 C 1021.79 -1.18249 6.94404 0
M  V30 10747 H 1017.89 -0.535708 0.569685 0
M  V30 10748 H 1020.48 -0.821669 1.76513 0
M  V30 10749 H 1018.65 -3.33109 1.99733 0
M  V30 10750 H 1020.38 -3.36927 2.24192 0
M  V30 10751 H 1017.14 -2.46199 4.04578 0
M  V30 10752 H 1017.56 -1.69899 6.55335 0
M  V30 10753 H 1022.2 -2.08858 3.67611 0
M  V30 10754 H 1019.92 -1.06896 8.00999 0
M  V30 10755 H 1023.51 -1.37544 5.65308 0
M  V30 10756 H 1022.39 -0.873897 7.79316 0
M  V30 10757 N 1019.89 -1.26353 -0.941956 0
M  V30 10758 C 1021.14 -1.12017 -1.69056 0
M  V30 10759 C 1021.47 0.335856 -1.91274 0
M  V30 10760 O 1020.74 1.24677 -1.49285 0
M  V30 10761 C 1021.03 -1.88889 -3.06583 0
M  V30 10762 C 1020.88 -3.42394 -2.91696 0
M  V30 10763 C 1022.2 -1.68209 -4.06686 0
M  V30 10764 H 1019.32 -0.408311 -0.613556 0
M  V30 10765 H 1021.96 -1.55339 -1.09407 0
M  V30 10766 H 1020.11 -1.5207 -3.57501 0
M  V30 10767 H 1021.78 -3.88962 -2.48005 0
M  V30 10768 H 1020.02 -3.69459 -2.27338 0
M  V30 10769 H 1020.7 -3.91408 -3.89235 0
M  V30 10770 H 1023.17 -2.00286 -3.64726 0
M  V30 10771 H 1022.05 -2.24412 -5.00929 0
M  V30 10772 H 1022.31 -0.626474 -4.37639 0
M  V30 10773 N 1021.37 1.14642 -1.08144 0
M  V30 10774 C 1022.33 2.17834 -0.712799 0
M  V30 10775 C 1023.33 1.58828 0.251041 0
M  V30 10776 O 1024.52 1.74173 0.0309381 0
M  V30 10777 C 1021.65 3.4086 -0.0519477 0
M  V30 10778 H 1022.85 2.51961 -1.62653 0
M  V30 10779 H 1020.4 1.29243 -0.878971 0
M  V30 10780 H 1021.13 3.12311 0.873636 0
M  V30 10781 H 1020.92 3.84952 -0.745286 0
M  V30 10782 H 1022.41 4.17163 0.191031 0
M  V30 10783 N 1022.85 0.866709 1.31628 0
M  V30 10784 C 1024.26 0.529032 1.79048 0
M  V30 10785 C 1024.61 -0.953871 1.71452 0
M  V30 10786 O 1023.73 -1.74462 1.28031 0
M  V30 10787 C 1024.33 0.953522 3.25105 0
M  V30 10788 C 1022.89 0.667554 3.70433 0
M  V30 10789 C 1022.03 1.14664 2.52483 0
M  V30 10790 H 1024.98 1.05275 1.18756 0
M  V30 10791 H 1025.01 0.274844 3.79506 0
M  V30 10792 H 1024.52 2.03283 3.30602 0
M  V30 10793 H 1022.62 -0.400532 3.70441 0
M  V30 10794 H 1022.73 1.2423 4.62714 0
M  V30 10795 H 1021.1 0.566502 2.4832 0
M  V30 10796 H 1021.88 2.2333 2.60727 0
M  V30 10797 N 1024.32 -1.44642 0.625825 0
M  V30 10798 C 1025.23 -2.34451 -0.0836134 0
M  V30 10799 C 1026.25 -1.5231 -0.841289 0
M  V30 10800 O 1027.43 -1.85056 -0.794754 0
M  V30 10801 C 1024.49 -3.30211 -1.05648 0
M  V30 10802 C 1023.55 -4.28259 -0.298759 0
M  V30 10803 C 1022.78 -5.19444 -1.22528 0
M  V30 10804 O 1023.01 -5.14444 -2.46382 0
M  V30 10805 O 1021.94 -5.97668 -0.71247 0
M  V30 10806 H 1025.77 -2.96555 0.654912 0
M  V30 10807 H 1023.35 -1.44327 0.386029 0
M  V30 10808 H 1025.23 -3.8917 -1.61632 0
M  V30 10809 H 1023.91 -2.70648 -1.77571 0
M  V30 10810 H 1022.82 -3.72863 0.304001 0
M  V30 10811 H 1024.15 -4.90728 0.380345 0
M  V30 10812 N 1025.8 -0.366053 -1.5329 0
M  V30 10813 C 1027.04 0.223558 -2.03174 0
M  V30 10814 C 1027.41 1.45955 -1.24745 0
M  V30 10815 O 1028.61 2.12481 -1.64637 0
M  V30 10816 C 1026.88 0.507899 -3.53773 0
M  V30 10817 S 1028.44 1.07111 -4.25526 0
M  V30 10818 H 1025.25 0.0650309 -0.70802 0
M  V30 10819 H 1027.86 -0.509028 -1.88757 0
M  V30 10820 H 1026.56 -0.39913 -4.08455 0
M  V30 10821 H 1026.09 1.26954 -3.72352 0
M  V30 10822 H 1028.11 2.35533 -4.36737 0
M  V30 10823 N 1027.28 1.57312 -0.0952337 0
M  V30 10824 C 1028.21 2.17056 0.860753 0
M  V30 10825 C 1029.19 1.10394 1.29411 0
M  V30 10826 O 1030.38 1.38532 1.36098 0
M  V30 10827 C 1027.51 2.751 2.11984 0
M  V30 10828 C 1026.46 3.87136 1.8251 0
M  V30 10829 C 1025.79 4.31883 3.15247 0
M  V30 10830 C 1027.09 5.10326 1.11194 0
M  V30 10831 H 1028.78 2.97192 0.362983 0
M  V30 10832 H 1026.33 1.42955 0.173151 0
M  V30 10833 H 1028.28 3.15547 2.79299 0
M  V30 10834 H 1027 1.92219 2.64044 0
M  V30 10835 H 1025.66 3.47229 1.17592 0
M  V30 10836 H 1025.31 3.45893 3.65195 0
M  V30 10837 H 1025.01 5.0742 2.96309 0
M  V30 10838 H 1026.53 4.74964 3.83721 0
M  V30 10839 H 1027.95 5.47942 1.6862 0
M  V30 10840 H 1026.34 5.91293 1.02435 0
M  V30 10841 H 1027.41 4.84807 0.0947227 0
M  V30 10842 N 1028.76 -0.17846 1.56586 0
M  V30 10843 C 1030.17 -0.529957 1.50544 0
M  V30 10844 C 1030.37 -1.85015 0.798237 0
M  V30 10845 O 1029.43 -2.49983 0.355639 0
M  V30 10846 C 1030.74 -0.569314 2.95261 0
M  V30 10847 C 1032.29 -0.657008 3.06027 0
M  V30 10848 C 1032.77 -0.727323 4.52188 0
M  V30 10849 N 1034.26 -0.790406 4.56406 0
M  V30 10850 C 1034.99 -0.865265 5.66834 0
M  V30 10851 N 1034.49 -0.901398 6.86911 0
M  V30 10852 N 1036.28 -0.903736 5.54787 0
M  V30 10853 H 1028.43 0.687304 2.00972 0
M  V30 10854 H 1030.69 0.246936 0.915274 0
M  V30 10855 H 1030.4 0.331934 3.5013 0
M  V30 10856 H 1030.27 -1.41828 3.4952 0
M  V30 10857 H 1032.66 -1.54868 2.51197 0
M  V30 10858 H 1032.74 0.218495 2.54865 0
M  V30 10859 H 1032.39 0.160067 5.07648 0
M  V30 10860 H 1032.32 -1.61887 5.01099 0
M  V30 10861 H 1034.81 -0.771054 3.6995 0
M  V30 10862 H 1035.12 -0.959494 7.6682 0
M  V30 10863 H 1033.47 -0.869795 6.89536 0
M  V30 10864 H 1036.66 -0.872459 4.59898 0
M  V30 10865 H 1036.83 -0.958615 6.4087 0
M  V30 10866 N 1030.24 -1.51135 -0.446768 0
M  V30 10867 C 1031.15 -1.74595 -1.56696 0
M  V30 10868 C 1032.16 -0.629816 -1.62201 0
M  V30 10869 O 1033.34 -0.910987 -1.79619 0
M  V30 10870 C 1030.4 -1.85738 -2.9275 0
M  V30 10871 C 1029.46 -3.09564 -2.97437 0
M  V30 10872 C 1028.7 -3.20165 -4.27001 0
M  V30 10873 O 1028.92 -2.36939 -5.1886 0
M  V30 10874 O 1027.85 -4.13077 -4.3778 0
M  V30 10875 H 1031.68 -2.69601 -1.39817 0
M  V30 10876 H 1029.26 -1.35523 -0.628805 0
M  V30 10877 H 1031.15 -1.95107 -3.73512 0
M  V30 10878 H 1029.82 -0.939184 -3.09776 0
M  V30 10879 H 1028.73 -3.05679 -2.15664 0
M  V30 10880 H 1030.06 -4.01041 -2.85353 0
M  V30 10881 N 1031.71 0.701592 -1.41122 0
M  V30 10882 C 1032.68 1.79733 -1.42227 0
M  V30 10883 C 1033.68 1.57708 -0.313831 0
M  V30 10884 O 1034.87 1.64492 -0.573423 0
M  V30 10885 C 1032 3.18024 -1.22775 0
M  V30 10886 H 1033.19 1.80148 -2.39764 0
M  V30 10887 H 1030.74 0.908624 -1.27176 0
M  V30 10888 H 1031.48 3.23252 -0.260552 0
M  V30 10889 H 1031.26 3.35411 -2.0308 0
M  V30 10890 H 1032.75 3.98021 -1.2637 0
M  V30 10891 N 1033.19 1.2685 0.935242 0
M  V30 10892 C 1034.12 1.04717 2.0388 0
M  V30 10893 C 1035.14 0.00567507 1.62799 0
M  V30 10894 O 1036.33 0.246408 1.76791 0
M  V30 10895 C 1033.43 0.56496 3.34158 0
M  V30 10896 C 1032.6 1.67704 4.03973 0
M  V30 10897 C 1031.66 1.19186 5.12524 0
M  V30 10898 O 1030.68 1.89008 5.36903 0
M  V30 10899 N 1031.89 0.0434554 5.80484 0
M  V30 10900 H 1034.65 1.99746 2.23431 0
M  V30 10901 H 1032.21 1.18316 1.10512 0
M  V30 10902 H 1034.2 0.224436 4.04077 0
M  V30 10903 H 1032.77 -0.291899 3.11234 0
M  V30 10904 H 1031.99 2.18821 3.27889 0
M  V30 10905 H 1033.28 2.42361 4.47368 0
M  V30 10906 H 1032.68 -0.539502 5.63122 0
M  V30 10907 H 1031.24 -0.237946 6.51366 0
M  V30 10908 N 1034.67 -1.14067 1.0875 0
M  V30 10909 C 1035.9 -1.89041 0.840902 0
M  V30 10910 C 1036.31 -1.78768 -0.60725 0
M  V30 10911 O 1035.67 -1.14945 -1.41753 0
M  V30 10912 C 1035.72 -3.38891 1.25838 0
M  V30 10913 O 1035.44 -3.48886 2.64972 0
M  V30 10914 C 1036.94 -4.30852 1.04315 0
M  V30 10915 H 1034.16 -0.598685 0.303014 0
M  V30 10916 H 1036.71 -1.44438 1.44769 0
M  V30 10917 H 1034.86 -3.81103 0.695627 0
M  V30 10918 H 1035.28 -4.41989 2.82393 0
M  V30 10919 H 1036.75 -5.34353 1.38461 0
M  V30 10920 H 1037.23 -4.39196 -0.0195784 0
M  V30 10921 H 1037.83 -3.944 1.59151 0
M  V30 10922 N 1036.15 -0.873678 -1.31166 0
M  V30 10923 C 1037.08 -0.348011 -2.30892 0
M  V30 10924 C 1038.06 0.563092 -1.60509 0
M  V30 10925 O 1039.24 0.479332 -1.88192 0
M  V30 10926 C 1036.37 0.448158 -3.44396 0
M  V30 10927 C 1035.33 -0.370179 -4.26396 0
M  V30 10928 C 1034.65 0.551903 -5.31844 0
M  V30 10929 C 1035.95 -1.60624 -4.96988 0
M  V30 10930 H 1037.65 -1.18134 -2.75109 0
M  V30 10931 H 1035.19 -0.569502 -1.3226 0
M  V30 10932 H 1037.15 0.826458 -4.13216 0
M  V30 10933 H 1035.87 1.31503 -2.98956 0
M  V30 10934 H 1034.53 -0.730472 -3.59249 0
M  V30 10935 H 1034.18 1.41616 -4.82653 0
M  V30 10936 H 1033.88 0.00823478 -5.87599 0
M  V30 10937 H 1035.4 0.926965 -6.03523 0
M  V30 10938 H 1036.82 -1.29917 -5.58386 0
M  V30 10939 H 1035.21 -2.08926 -5.62557 0
M  V30 10940 H 1036.28 -2.357 -4.23761 0
M  V30 10941 N 1037.63 1.44308 -0.633487 0
M  V30 10942 C 1038.85 2.06897 -0.144347 0
M  V30 10943 C 1039.28 1.47045 1.173 0
M  V30 10944 O 1038.63 0.572806 1.72013 0
M  V30 10945 C 1038.68 3.60571 -0.0456324 0
M  V30 10946 O 1037.79 4.0015 0.997682 0
M  V30 10947 H 1037.13 0.658427 -0.0858499 0
M  V30 10948 H 1039.66 1.85142 -0.870833 0
M  V30 10949 H 1039.67 4.07745 0.144178 0
M  V30 10950 H 1038.34 4.03515 -1.0074 0
M  V30 10951 H 1036.92 3.64603 0.782252 0
M  V30 10952 N 1039.1 0.374177 1.53094 0
M  V30 10953 C 1040.03 -0.459976 2.28925 0
M  V30 10954 C 1041.02 -1.07656 1.31698 0
M  V30 10955 O 1042.2 -1.09219 1.60577 0
M  V30 10956 C 1039.33 -1.5954 3.08487 0
M  V30 10957 C 1038.28 -1.10563 4.13473 0
M  V30 10958 C 1037.61 -2.33196 4.81169 0
M  V30 10959 C 1038.91 -0.184275 5.21975 0
M  V30 10960 H 1040.6 0.172692 2.98902 0
M  V30 10961 H 1038.15 0.0844956 1.43752 0
M  V30 10962 H 1040.1 -2.18565 3.60288 0
M  V30 10963 H 1038.83 -2.25543 2.36216 0
M  V30 10964 H 1037.49 -0.53801 3.62631 0
M  V30 10965 H 1037.13 -2.97675 4.05461 0
M  V30 10966 H 1036.83 -2.01094 5.52119 0
M  V30 10967 H 1038.36 -2.92892 5.35767 0
M  V30 10968 H 1039.77 -0.682262 5.69226 0
M  V30 10969 H 1038.17 0.0462746 6.00082 0
M  V30 10970 H 1039.24 0.771152 4.78729 0
M  V30 10971 N 1040.58 -1.57259 0.103575 0
M  V30 10972 C 1041.49 -2.18018 -0.866327 0
M  V30 10973 C 1042.51 -1.15198 -1.30404 0
M  V30 10974 O 1043.68 -1.47605 -1.37021 0
M  V30 10975 C 1040.75 -2.75533 -2.10434 0
M  V30 10976 C 1039.81 -3.93337 -1.72002 0
M  V30 10977 C 1039.04 -4.481 -2.89901 0
M  V30 10978 O 1039.27 -4.01784 -4.04877 0
M  V30 10979 O 1038.2 -5.39004 -2.67877 0
M  V30 10980 H 1042.03 -3.01322 -0.379338 0
M  V30 10981 H 1039.61 -1.48907 -0.121228 0
M  V30 10982 H 1041.49 -3.12259 -2.8297 0
M  V30 10983 H 1040.17 -1.9527 -2.58169 0
M  V30 10984 H 1039.08 -3.61408 -0.966193 0
M  V30 10985 H 1040.41 -4.74989 -1.29022 0
M  V30 10986 N 1042.06 0.170153 -1.56679 0
M  V30 10987 C 1043.02 1.19443 -1.95617 0
M  V30 10988 C 1044.02 1.37118 -0.83996 0
M  V30 10989 O 1045.21 1.34504 -1.10699 0
M  V30 10990 C 1042.35 2.55926 -2.25199 0
M  V30 10991 H 1043.54 0.86095 -2.87276 0
M  V30 10992 H 1041.09 0.412646 -1.50755 0
M  V30 10993 H 1041.83 2.94286 -1.36257 0
M  V30 10994 H 1041.61 2.44464 -3.06562 0
M  V30 10995 H 1043.1 3.29742 -2.56242 0
M  V30 10996 N 1043.54 1.5137 0.438746 0
M  V30 10997 C 1044.82 1.54508 1.19944 0
M  V30 10998 C 1045.2 0.308525 2.08833 0
M  V30 10999 O 1044.54 -0.706461 2.17305 0
M  V30 11000 C 1044.75 2.85833 2.00251 0
M  V30 11001 C 1046.1 3.37729 2.5734 0
M  V30 11002 O 1047.13 2.87374 2.10463 0
M  V30 11003 O 1045.98 4.25589 3.42836 0
M  V30 11004 H 1043.08 0.621132 0.546007 0
M  V30 11005 H 1045.62 1.63682 0.447931 0
M  V30 11006 H 1044.4 3.67291 1.34955 0
M  V30 11007 H 1044.02 2.79815 2.8247 0
M  V30 11008 N 1045.02 -0.694098 1.41492 0
M  V30 11009 C 1045.96 -1.80801 1.43456 0
M  V30 11010 C 1046.93 -1.63571 0.288757 0
M  V30 11011 O 1048.12 -1.844 0.490017 0
M  V30 11012 C 1045.26 -3.18694 1.32394 0
M  V30 11013 C 1044.37 -3.47346 2.56855 0
M  V30 11014 C 1043.51 -4.74862 2.38075 0
M  V30 11015 C 1042.55 -4.96486 3.58005 0
M  V30 11016 N 1041.68 -6.15229 3.38287 0
M  V30 11017 H 1046.52 -1.78457 2.38657 0
M  V30 11018 H 1044.06 -0.871455 1.18508 0
M  V30 11019 H 1046.02 -3.98352 1.23982 0
M  V30 11020 H 1044.65 -3.20211 0.407999 0
M  V30 11021 H 1043.7 -2.62083 2.75711 0
M  V30 11022 H 1045.01 -3.59226 3.4606 0
M  V30 11023 H 1044.17 -5.62577 2.27139 0
M  V30 11024 H 1042.9 -4.6523 1.46329 0
M  V30 11025 H 1041.91 -4.07219 3.69395 0
M  V30 11026 H 1043.13 -5.07976 4.50708 0
M  V30 11027 H 1041.08 -6.06807 2.49242 0
M  V30 11028 H 1041 -6.27883 4.21069 0
M  V30 11029 H 1042.27 -7.05674 3.31126 0
M  V30 11030 N 1046.49 -1.27344 -0.928501 0
M  V30 11031 C 1047.74 -1.14813 -1.67897 0
M  V30 11032 C 1048.1 0.303129 -1.89997 0
M  V30 11033 O 1047.39 1.21844 -1.47867 0
M  V30 11034 C 1047.58 -1.86439 -3.04918 0
M  V30 11035 C 1047.41 -3.38381 -2.96189 0
M  V30 11036 C 1046.18 -4.07698 -2.98514 0
M  V30 11037 C 1048.38 -4.3437 -2.75367 0
M  V30 11038 N 1046.36 -5.46215 -2.80218 0
M  V30 11039 C 1047.73 -5.60149 -2.65768 0
M  V30 11040 C 1049.79 -4.2447 -2.60249 0
M  V30 11041 C 1048.49 -6.77157 -2.42593 0
M  V30 11042 C 1050.52 -5.41198 -2.3845 0
M  V30 11043 C 1049.88 -6.65933 -2.29593 0
M  V30 11044 H 1045.98 -0.47499 -0.621215 0
M  V30 11045 H 1048.56 -1.60802 -1.09776 0
M  V30 11046 H 1046.73 -1.42907 -3.61154 0
M  V30 11047 H 1048.46 -1.6642 -3.68899 0
M  V30 11048 H 1045.22 -3.59158 -3.08711 0
M  V30 11049 H 1045.64 -6.18985 -2.74203 0
M  V30 11050 H 1050.29 -3.28756 -2.65856 0
M  V30 11051 H 1048 -7.72955 -2.35725 0
M  V30 11052 H 1051.59 -5.35417 -2.27639 0
M  V30 11053 H 1050.47 -7.54732 -2.12952 0
M  V30 11054 N 1047.97 1.13488 -1.09353 0
M  V30 11055 C 1049.22 1.84383 -0.827488 0
M  V30 11056 C 1049.54 1.83892 0.648745 0
M  V30 11057 O 1048.81 1.29415 1.47066 0
M  V30 11058 H 1047.39 0.682732 -0.303127 0
M  V30 11059 H 1050.05 1.37477 -1.38152 0
M  V30 11060 H 1049.15 2.88919 -1.18035 0
M  V30 11061 N 1049.45 0.880621 1.30701 0
M  V30 11062 C 1050.7 0.496875 1.96309 0
M  V30 11063 C 1051.03 -0.953064 1.69549 0
M  V30 11064 O 1050.28 -1.68782 0.990507 0
M  V30 11065 C 1050.58 0.713203 3.50212 0
M  V30 11066 C 1050.25 2.13756 3.97013 0
M  V30 11067 C 1048.91 2.52706 4.09503 0
M  V30 11068 C 1051.26 3.066 4.21481 0
M  V30 11069 C 1048.59 3.8372 4.43819 0
M  V30 11070 C 1050.94 4.3714 4.57265 0
M  V30 11071 C 1049.6 4.7599 4.67963 0
M  V30 11072 H 1048.87 0.18182 0.718347 0
M  V30 11073 H 1051.52 1.11564 1.55646 0
M  V30 11074 H 1049.83 0.0113694 3.91798 0
M  V30 11075 H 1051.52 0.39595 3.9904 0
M  V30 11076 H 1048.11 1.8252 3.87794 0
M  V30 11077 H 1052.3 2.77729 4.11315 0
M  V30 11078 H 1047.55 4.13568 4.50301 0
M  V30 11079 H 1051.73 5.09123 4.75149 0
M  V30 11080 H 1049.35 5.77549 4.94309 0
M  V30 11081 N 1050.93 -1.4397 0.641131 0
M  V30 11082 C 1052.18 -2.01548 0.149333 0
M  V30 11083 C 1052.5 -1.50759 -1.23679 0
M  V30 11084 O 1051.77 -0.715257 -1.82376 0
M  V30 11085 H 1050.35 -0.745173 0.0522161 0
M  V30 11086 H 1053.01 -1.7634 0.830082 0
M  V30 11087 H 1052.11 -3.11851 0.124676 0
M  V30 11088 N 1052.41 -0.382291 -1.52893 0
M  V30 11089 C 1053.37 0.44408 -2.24857 0
M  V30 11090 C 1054.37 0.996004 -1.26239 0
M  V30 11091 O 1055.56 0.879114 -1.5039 0
M  V30 11092 C 1052.69 1.62234 -2.99822 0
M  V30 11093 H 1053.89 -0.185862 -2.99324 0
M  V30 11094 H 1051.44 -0.134275 -1.55722 0
M  V30 11095 H 1052.17 2.28991 -2.29638 0
M  V30 11096 H 1051.96 1.23336 -3.72197 0
M  V30 11097 H 1053.45 2.20756 -3.54481 0
M  V30 11098 N 1053.89 1.57202 -0.111913 0
M  V30 11099 C 1055.11 1.99297 0.555713 0
M  V30 11100 C 1055.53 0.991444 1.60673 0
M  V30 11101 O 1054.89 -0.0166672 1.82492 0
M  V30 11102 C 1054.94 3.41413 1.18826 0
M  V30 11103 O 1054.66 4.37733 0.179261 0
M  V30 11104 C 1056.16 3.98602 1.93989 0
M  V30 11105 H 1053.38 0.654543 0.147695 0
M  V30 11106 H 1055.92 2.03557 -0.196163 0
M  V30 11107 H 1054.08 3.38115 1.89096 0
M  V30 11108 H 1054.49 5.20606 0.637935 0
M  V30 11109 H 1055.97 5.00143 2.33584 0
M  V30 11110 H 1056.44 3.37349 2.81233 0
M  V30 11111 H 1057.05 4.05424 1.28497 0
M  V30 11112 N 1055.36 -0.161842 1.56767 0
M  V30 11113 C 1056.61 -0.878224 1.82798 0
M  V30 11114 C 1056.94 -1.81481 0.691242 0
M  V30 11115 O 1056.22 -1.92075 -0.30618 0
M  V30 11116 C 1056.5 -1.66565 3.19262 0
M  V30 11117 C 1056.35 -0.751551 4.43477 0
M  V30 11118 C 1057.67 -2.63134 3.52773 0
M  V30 11119 H 1054.79 -0.317828 0.664947 0
M  V30 11120 H 1057.43 -0.14402 1.89453 0
M  V30 11121 H 1055.58 -2.29157 3.13719 0
M  V30 11122 H 1057.26 -0.137783 4.61094 0
M  V30 11123 H 1055.5 -0.0601785 4.33758 0
M  V30 11124 H 1056.17 -1.33823 5.35533 0
M  V30 11125 H 1058.65 -2.10666 3.5883 0
M  V30 11126 H 1057.52 -3.15289 4.49315 0
M  V30 11127 H 1057.78 -3.43786 2.77963 0
M  V30 11128 N 1056.84 -1.516 -0.430713 0
M  V30 11129 C 1058.09 -1.65801 -1.17821 0
M  V30 11130 C 1058.44 -0.372769 -1.88754 0
M  V30 11131 O 1057.74 0.631767 -1.80885 0
M  V30 11132 C 1057.93 -2.804 -2.21609 0
M  V30 11133 C 1057.76 -4.19944 -1.60863 0
M  V30 11134 C 1056.53 -4.85786 -1.39068 0
M  V30 11135 C 1058.73 -5.02806 -1.08124 0
M  V30 11136 N 1056.71 -6.09425 -0.73989 0
M  V30 11137 C 1058.08 -6.17501 -0.556114 0
M  V30 11138 C 1060.13 -4.88288 -0.973635 0
M  V30 11139 C 1058.84 -7.1927 0.0660558 0
M  V30 11140 C 1060.86 -5.9027 -0.36535 0
M  V30 11141 C 1060.23 -7.04242 0.149205 0
M  V30 11142 H 1056.32 -0.660545 -0.418574 0
M  V30 11143 H 1058.91 -1.88847 -0.473799 0
M  V30 11144 H 1057.08 -2.59006 -2.89431 0
M  V30 11145 H 1058.81 -2.83747 -2.88565 0
M  V30 11146 H 1055.57 -4.4377 -1.65425 0
M  V30 11147 H 1055.99 -6.75622 -0.431745 0
M  V30 11148 H 1060.63 -4.00421 -1.35731 0
M  V30 11149 H 1058.35 -8.06779 0.461848 0
M  V30 11150 H 1061.94 -5.81107 -0.283902 0
M  V30 11151 H 1060.82 -7.81804 0.61249 0
M  V30 11152 N 1058.32 0.686584 -1.41858 0
M  V30 11153 C 1059.23 1.83002 -1.46791 0
M  V30 11154 C 1060.25 1.70284 -0.357675 0
M  V30 11155 O 1061.42 1.92042 -0.606781 0
M  V30 11156 C 1058.49 3.19056 -1.35661 0
M  V30 11157 C 1057.55 3.43817 -2.57077 0
M  V30 11158 C 1056.78 4.7338 -2.46469 0
M  V30 11159 O 1057 5.50483 -1.49413 0
M  V30 11160 O 1055.94 4.99124 -3.36391 0
M  V30 11161 H 1059.76 1.81797 -2.43277 0
M  V30 11162 H 1057.35 0.840812 -1.23494 0
M  V30 11163 H 1059.23 4.00267 -1.31773 0
M  V30 11164 H 1057.91 3.20925 -0.422951 0
M  V30 11165 H 1056.81 2.625 -2.66541 0
M  V30 11166 H 1058.15 3.4677 -3.49302 0
M  V30 11167 N 1059.8 1.27835 0.921735 0
M  V30 11168 C 1061.04 1.14692 1.67253 0
M  V30 11169 C 1061.38 -0.305384 1.91784 0
M  V30 11170 O 1060.65 -1.22286 1.51249 0
M  V30 11171 C 1060.93 1.93743 3.03539 0
M  V30 11172 C 1060.79 3.46991 2.86212 0
M  V30 11173 C 1062.11 1.74658 4.03959 0
M  V30 11174 H 1059.23 0.418021 0.606983 0
M  V30 11175 H 1061.87 1.5706 1.06922 0
M  V30 11176 H 1060.02 1.57738 3.55037 0
M  V30 11177 H 1061.69 3.92858 2.41785 0
M  V30 11178 H 1059.93 3.73029 2.21432 0
M  V30 11179 H 1060.6 3.97551 3.82958 0
M  V30 11180 H 1063.08 2.06063 3.61493 0
M  V30 11181 H 1061.96 2.32353 4.97296 0
M  V30 11182 H 1062.22 0.696019 4.36587 0
M  V30 11183 N 1061.28 -1.12907 1.09954 0
M  V30 11184 C 1062.52 -1.84306 0.838912 0
M  V30 11185 C 1062.85 -1.83825 -0.635508 0
M  V30 11186 O 1062.11 -1.27556 -1.48418 0
M  V30 11187 C 1062.4 -3.31885 1.32616 0
M  V30 11188 C 1062.07 -3.52542 2.81114 0
M  V30 11189 C 1060.73 -3.57888 3.21667 0
M  V30 11190 C 1063.08 -3.60065 3.76833 0
M  V30 11191 C 1060.41 -3.68296 4.567 0
M  V30 11192 C 1062.76 -3.72001 5.11662 0
M  V30 11193 C 1061.43 -3.75602 5.51797 0
M  V30 11194 H 1060.7 -0.674422 0.30698 0
M  V30 11195 H 1063.35 -1.33261 1.37527 0
M  V30 11196 H 1061.65 -3.85318 0.709719 0
M  V30 11197 H 1063.35 -3.85588 1.10105 0
M  V30 11198 H 1059.94 -3.4904 2.48735 0
M  V30 11199 H 1064.12 -3.55209 3.46612 0
M  V30 11200 H 1059.38 -3.69352 4.87226 0
M  V30 11201 H 1063.55 -3.76765 5.8568 0
M  V30 11202 H 1061.18 -3.83419 6.56425 0
M  V30 11203 N 1062.75 -0.88754 -1.30232 0
M  V30 11204 C 1063.98 -0.521562 -2.00735 0
M  V30 11205 C 1064.4 0.883247 -1.66073 0
M  V30 11206 O 1063.76 1.58581 -0.878731 0
M  V30 11207 C 1063.81 -0.706521 -3.53611 0
M  V30 11208 O 1062.91 0.246447 -4.11663 0
M  V30 11209 H 1062.25 -0.205216 -0.631492 0
M  V30 11210 H 1064.78 -1.19579 -1.66018 0
M  V30 11211 H 1064.79 -0.606501 -4.03467 0
M  V30 11212 H 1063.47 -1.73076 -3.78177 0
M  V30 11213 H 1062.05 0.0999062 -3.72766 0
M  V30 11214 N 1064.23 1.43628 -0.648757 0
M  V30 11215 C 1065.48 2.01465 -0.16002 0
M  V30 11216 C 1065.8 1.51413 1.22878 0
M  V30 11217 O 1065.07 0.724919 1.81994 0
M  V30 11218 H 1063.65 0.744885 -0.0561672 0
M  V30 11219 H 1066.31 1.75897 -0.839422 0
M  V30 11220 H 1065.41 3.1178 -0.141213 0
M  V30 11221 N 1065.71 0.390394 1.52688 0
M  V30 11222 C 1066.96 -0.191729 2.01892 0
M  V30 11223 C 1067.29 -1.4637 1.27631 0
M  V30 11224 O 1066.56 -1.90809 0.377094 0
M  V30 11225 C 1066.85 -0.458535 3.57169 0
M  V30 11226 C 1066.7 0.828796 4.42098 0
M  V30 11227 C 1068.02 -1.2487 4.22014 0
M  V30 11228 H 1065.14 -0.0682091 0.733837 0
M  V30 11229 H 1067.78 0.520176 1.82741 0
M  V30 11230 H 1065.93 -1.06498 3.73618 0
M  V30 11231 H 1067.6 1.46562 4.37398 0
M  V30 11232 H 1065.85 1.44388 4.09066 0
M  V30 11233 H 1066.52 0.596746 5.48765 0
M  V30 11234 H 1068.99 -0.735452 4.09549 0
M  V30 11235 H 1067.87 -1.40412 5.30637 0
M  V30 11236 H 1068.13 -2.2642 3.79719 0
M  V30 11237 N 1067.19 -1.57141 0.120249 0
M  V30 11238 C 1068.42 -1.99589 -0.545136 0
M  V30 11239 C 1068.83 -0.999951 -1.60145 0
M  V30 11240 O 1068.19 0.00698897 -1.82499 0
M  V30 11241 C 1068.24 -3.42038 -1.17014 0
M  V30 11242 O 1067.96 -4.37822 -0.156044 0
M  V30 11243 C 1069.46 -3.99625 -1.91872 0
M  V30 11244 H 1066.68 -0.655318 -0.144222 0
M  V30 11245 H 1069.23 -2.0345 0.206955 0
M  V30 11246 H 1067.38 -3.39113 -1.873 0
M  V30 11247 H 1067.79 -5.20937 -0.610317 0
M  V30 11248 H 1069.27 -5.01374 -2.30928 0
M  V30 11249 H 1069.75 -3.38836 -2.7944 0
M  V30 11250 H 1070.35 -4.061 -1.26345 0
M  V30 11251 N 1068.67 0.153526 -1.5685 0
M  V30 11252 C 1069.6 1.21906 -1.9291 0
M  V30 11253 C 1070.58 1.4189 -0.794098 0
M  V30 11254 O 1071.76 1.56609 -1.0491 0
M  V30 11255 C 1068.89 2.57908 -2.19548 0
M  V30 11256 C 1067.93 2.54557 -3.42203 0
M  V30 11257 S 1068.77 2.01891 -4.95984 0
M  V30 11258 C 1069.92 3.39635 -5.25737 0
M  V30 11259 H 1070.16 0.911382 -2.82986 0
M  V30 11260 H 1067.69 0.358863 -1.50172 0
M  V30 11261 H 1069.65 3.36177 -2.35575 0
M  V30 11262 H 1068.31 2.85868 -1.30147 0
M  V30 11263 H 1067.5 3.54657 -3.58098 0
M  V30 11264 H 1067.1 1.84393 -3.25385 0
M  V30 11265 H 1069.4 4.35716 -5.18804 0
M  V30 11266 H 1070.34 3.28599 -6.27239 0
M  V30 11267 H 1070.75 3.36469 -4.53265 0
M  V30 11268 N 1070.14 1.51827 0.422667 0
M  V30 11269 C 1071.56 1.57533 1.00201 0
M  V30 11270 C 1071.91 0.407623 1.91919 0
M  V30 11271 O 1071.03 -0.473763 2.1115 0
M  V30 11272 C 1071.63 2.85508 1.82403 0
M  V30 11273 C 1070.19 2.93737 2.35362 0
M  V30 11274 C 1069.33 2.52343 1.14971 0
M  V30 11275 H 1072.28 1.57391 0.20339 0
M  V30 11276 H 1072.3 2.70097 2.68007 0
M  V30 11277 H 1071.82 3.70477 1.15623 0
M  V30 11278 H 1069.92 2.13231 3.05554 0
M  V30 11279 H 1070.03 3.977 2.67155 0
M  V30 11280 H 1068.39 2.05878 1.49955 0
M  V30 11281 H 1069.18 3.39672 0.497786 0
M  V30 11282 N 1071.62 -0.679052 1.4222 0
M  V30 11283 C 1072.87 -1.43485 1.41757 0
M  V30 11284 C 1073.18 -1.95567 0.0358698 0
M  V30 11285 O 1074.39 -2.71346 -0.0913713 0
M  V30 11286 C 1072.85 -2.59541 2.49332 0
M  V30 11287 C 1072.45 -2.14176 3.93488 0
M  V30 11288 C 1074.2 -3.37078 2.58029 0
M  V30 11289 C 1072.11 -3.27289 4.92581 0
M  V30 11290 H 1071.04 -0.539022 0.52723 0
M  V30 11291 H 1073.69 -0.735581 1.68111 0
M  V30 11292 H 1072.07 -3.31815 2.16135 0
M  V30 11293 H 1073.24 -1.49082 4.36017 0
M  V30 11294 H 1071.56 -1.49589 3.88603 0
M  V30 11295 H 1074.15 -4.21312 3.29242 0
M  V30 11296 H 1074.5 -3.83383 1.62245 0
M  V30 11297 H 1075.03 -2.7187 2.90399 0
M  V30 11298 H 1071.77 -2.8598 5.89827 0
M  V30 11299 H 1071.29 -3.91178 4.54687 0
M  V30 11300 H 1072.97 -3.9282 5.14103 0
M  V30 11301 N 1073.1 -1.28322 -0.914942 0
M  V30 11302 C 1074.33 -1.1837 -1.70304 0
M  V30 11303 C 1074.75 0.254291 -1.86373 0
M  V30 11304 O 1074.11 1.18398 -1.37301 0
M  V30 11305 C 1074.16 -1.88603 -3.07346 0
M  V30 11306 O 1073.26 -1.19268 -3.94777 0
M  V30 11307 H 1072.6 -0.410978 -0.52153 0
M  V30 11308 H 1075.13 -1.69622 -1.14409 0
M  V30 11309 H 1075.14 -1.96463 -3.57584 0
M  V30 11310 H 1073.82 -2.93201 -2.94967 0
M  V30 11311 H 1072.39 -1.19563 -3.53212 0
M  V30 11312 N 1074.58 1.12322 -1.10551 0
M  V30 11313 C 1075.54 2.16273 -0.758844 0
M  V30 11314 C 1076.54 1.59325 0.217294 0
M  V30 11315 O 1077.73 1.74199 -0.00601346 0
M  V30 11316 C 1074.86 3.40674 -0.124238 0
M  V30 11317 H 1076.06 2.48454 -1.6796 0
M  V30 11318 H 1073.61 1.2735 -0.906188 0
M  V30 11319 H 1074.34 3.14094 0.807194 0
M  V30 11320 H 1074.13 3.83284 -0.826772 0
M  V30 11321 H 1075.62 4.17474 0.102502 0
M  V30 11322 N 1076.06 0.894434 1.2976 0
M  V30 11323 C 1076.99 0.3847 2.30309 0
M  V30 11324 C 1077.97 -0.537486 1.61385 0
M  V30 11325 O 1079.15 -0.449332 1.8893 0
M  V30 11326 C 1076.28 -0.393311 3.45066 0
M  V30 11327 C 1075.24 0.437968 4.25753 0
M  V30 11328 C 1074.56 -0.467221 5.32655 0
M  V30 11329 C 1075.86 1.6851 4.9437 0
M  V30 11330 H 1077.56 1.22496 2.73194 0
M  V30 11331 H 1075.1 0.590471 1.31337 0
M  V30 11332 H 1077.06 -0.760614 4.14479 0
M  V30 11333 H 1075.78 -1.2673 3.0101 0
M  V30 11334 H 1074.44 0.787533 3.58041 0
M  V30 11335 H 1074.09 -1.33919 4.84845 0
M  V30 11336 H 1073.79 0.0852482 5.87538 0
M  V30 11337 H 1075.31 -0.830833 6.04921 0
M  V30 11338 H 1076.72 1.38784 5.56248 0
M  V30 11339 H 1075.12 2.17849 5.59162 0
M  V30 11340 H 1076.19 2.42412 4.19958 0
M  V30 11341 N 1077.53 -1.43282 0.656365 0
M  V30 11342 C 1078.81 -1.9534 0.100816 0
M  V30 11343 C 1079.19 -1.59755 -1.37992 0
M  V30 11344 O 1078.54 -0.884264 -2.10697 0
M  V30 11345 C 1078.75 -3.47237 0.35038 0
M  V30 11346 C 1080.1 -4.23822 0.257001 0
M  V30 11347 O 1081.12 -3.55073 0.283111 0
M  V30 11348 O 1079.98 -5.46192 0.183397 0
M  V30 11349 H 1077.07 -0.826963 -0.00780287 0
M  V30 11350 H 1079.62 -1.53205 0.72982 0
M  V30 11351 H 1078.39 -3.66276 1.37685 0
M  V30 11352 H 1078.02 -3.96378 -0.311539 0
M  V30 11353 N 1079.01 -0.398486 -1.52479 0
M  V30 11354 C 1080.42 0.0735015 -1.86555 0
M  V30 11355 C 1080.78 1.45361 -1.31775 0
M  V30 11356 O 1079.9 2.0632 -0.652759 0
M  V30 11357 C 1080.5 0.140152 -3.3851 0
M  V30 11358 C 1079.05 0.556451 -3.72264 0
M  V30 11359 C 1078.2 -0.275792 -2.75925 0
M  V30 11360 H 1081.15 -0.615991 -1.46257 0
M  V30 11361 H 1081.17 0.957507 -3.68255 0
M  V30 11362 H 1080.69 -0.864442 -3.7835 0
M  V30 11363 H 1078.79 1.56808 -3.37997 0
M  V30 11364 H 1078.9 0.308227 -4.78107 0
M  V30 11365 H 1077.26 0.260304 -2.53366 0
M  V30 11366 H 1078.05 -1.27854 -3.18604 0
M  V30 11367 N 1080.49 1.57075 -0.12858 0
M  V30 11368 C 1081.45 2.14643 0.803813 0
M  V30 11369 C 1082.45 1.08363 1.18803 0
M  V30 11370 O 1083.64 1.34093 1.11197 0
M  V30 11371 C 1080.78 2.6945 2.08829 0
M  V30 11372 H 1081.97 2.98362 0.303347 0
M  V30 11373 H 1079.52 1.55833 0.120735 0
M  V30 11374 H 1080.26 1.89345 2.63285 0
M  V30 11375 H 1080.04 3.47187 1.82218 0
M  V30 11376 H 1081.53 3.13865 2.7546 0
M  V30 11377 N 1081.97 -0.145205 1.5693 0
M  V30 11378 C 1082.92 -1.17923 1.98401 0
M  V30 11379 C 1083.89 -1.42591 0.851885 0
M  V30 11380 O 1085.07 -1.54896 1.11409 0
M  V30 11381 C 1082.21 -2.50727 2.37128 0
M  V30 11382 C 1081.32 -2.33218 3.63639 0
M  V30 11383 C 1080.46 -3.5907 3.91462 0
M  V30 11384 C 1079.5 -3.36605 5.11237 0
M  V30 11385 N 1078.64 -4.54592 5.35061 0
M  V30 11386 H 1083.48 -0.818573 2.86537 0
M  V30 11387 H 1081.01 -0.392739 1.4176 0
M  V30 11388 H 1082.97 -3.28165 2.57611 0
M  V30 11389 H 1081.6 -2.84736 1.52069 0
M  V30 11390 H 1080.65 -1.46826 3.50922 0
M  V30 11391 H 1081.96 -2.12579 4.51234 0
M  V30 11392 H 1081.12 -4.44936 4.12453 0
M  V30 11393 H 1079.86 -3.82715 3.02293 0
M  V30 11394 H 1078.86 -2.49127 4.90118 0
M  V30 11395 H 1080.09 -3.14357 6.01961 0
M  V30 11396 H 1078.03 -4.78406 4.48847 0
M  V30 11397 H 1077.95 -4.36962 6.16928 0
M  V30 11398 H 1079.22 -5.41666 5.60551 0
M  V30 11399 N 1083.45 -1.52049 -0.414609 0
M  V30 11400 C 1084.39 -1.74998 -1.5048 0
M  V30 11401 C 1085.36 -0.592251 -1.55182 0
M  V30 11402 O 1086.55 -0.829203 -1.7184 0
M  V30 11403 C 1083.69 -1.90157 -2.87983 0
M  V30 11404 C 1082.8 -3.17789 -2.92633 0
M  V30 11405 C 1081.94 -3.23411 -4.21401 0
M  V30 11406 C 1080.98 -4.45267 -4.20004 0
M  V30 11407 N 1080.11 -4.48312 -5.40334 0
M  V30 11408 H 1084.95 -2.68046 -1.30212 0
M  V30 11409 H 1082.49 -1.32824 -0.632154 0
M  V30 11410 H 1084.45 -1.96929 -3.67797 0
M  V30 11411 H 1083.08 -1.00496 -3.06758 0
M  V30 11412 H 1082.13 -3.20216 -2.05343 0
M  V30 11413 H 1083.44 -4.07634 -2.87465 0
M  V30 11414 H 1082.6 -3.29224 -5.09604 0
M  V30 11415 H 1081.34 -2.31495 -4.29257 0
M  V30 11416 H 1080.34 -4.39606 -3.30192 0
M  V30 11417 H 1081.57 -5.38472 -4.13793 0
M  V30 11418 H 1079.51 -3.59277 -5.48868 0
M  V30 11419 H 1079.43 -5.31994 -5.37139 0
M  V30 11420 H 1080.7 -4.58347 -6.30506 0
M  V30 11421 N 1084.93 0.6715 -1.42579 0
M  V30 11422 C 1085.86 1.79693 -1.49107 0
M  V30 11423 C 1086.84 1.66516 -0.347338 0
M  V30 11424 O 1088.02 1.85887 -0.562094 0
M  V30 11425 C 1085.15 3.1801 -1.39596 0
M  V30 11426 C 1084.11 3.45926 -2.5203 0
M  V30 11427 C 1083.43 4.83852 -2.27577 0
M  V30 11428 C 1084.73 3.4249 -3.94333 0
M  V30 11429 H 1086.43 1.74486 -2.433 0
M  V30 11430 H 1083.97 0.838042 -1.17102 0
M  V30 11431 H 1085.92 3.96478 -1.42771 0
M  V30 11432 H 1084.65 3.23901 -0.418989 0
M  V30 11433 H 1083.31 2.6982 -2.48178 0
M  V30 11434 H 1082.96 4.86398 -1.28165 0
M  V30 11435 H 1082.66 5.03493 -3.02934 0
M  V30 11436 H 1084.18 5.646 -2.32506 0
M  V30 11437 H 1085.59 4.10922 -3.9977 0
M  V30 11438 H 1083.99 3.73666 -4.69568 0
M  V30 11439 H 1085.06 2.41002 -4.20768 0
M  V30 11440 N 1086.4 1.28806 0.908124 0
M  V30 11441 C 1087.34 1.09018 2.01613 0
M  V30 11442 C 1088.35 0.0402059 1.6275 0
M  V30 11443 O 1089.54 0.283853 1.76229 0
M  V30 11444 C 1086.64 0.635712 3.32884 0
M  V30 11445 C 1085.81 1.76235 4.00325 0
M  V30 11446 C 1084.87 1.3003 5.09881 0
M  V30 11447 O 1083.9 2.00354 5.32773 0
M  V30 11448 N 1085.1 0.166575 5.80261 0
M  V30 11449 H 1087.86 2.0444 2.19144 0
M  V30 11450 H 1085.42 1.20633 1.07978 0
M  V30 11451 H 1087.42 0.310097 4.0351 0
M  V30 11452 H 1085.99 -0.225816 3.11783 0
M  V30 11453 H 1085.21 2.25727 3.23173 0
M  V30 11454 H 1086.49 2.51796 4.42127 0
M  V30 11455 H 1085.89 -0.419934 5.64139 0
M  V30 11456 H 1084.45 -0.0997281 6.51724 0
M  V30 11457 N 1087.88 -1.11734 1.11145 0
M  V30 11458 C 1089.13 -1.83405 0.858413 0
M  V30 11459 C 1089.46 -1.84488 -0.615975 0
M  V30 11460 O 1088.71 -1.29123 -1.47057 0
M  V30 11461 C 1089.01 -3.3046 1.36129 0
M  V30 11462 C 1088.68 -3.4954 2.84837 0
M  V30 11463 C 1087.34 -3.54456 3.25445 0
M  V30 11464 C 1089.69 -3.56048 3.8063 0
M  V30 11465 C 1087.02 -3.63431 4.60581 0
M  V30 11466 C 1089.37 -3.66554 5.15579 0
M  V30 11467 C 1088.03 -3.69728 5.55749 0
M  V30 11468 H 1087.3 -0.671128 0.314115 0
M  V30 11469 H 1089.95 -1.31795 1.38933 0
M  V30 11470 H 1088.26 -3.84544 0.750547 0
M  V30 11471 H 1089.95 -3.84398 1.14188 0
M  V30 11472 H 1086.54 -3.46382 2.52423 0
M  V30 11473 H 1090.73 -3.51513 3.5036 0
M  V30 11474 H 1085.98 -3.64164 4.91116 0
M  V30 11475 H 1090.16 -3.70532 5.89643 0
M  V30 11476 H 1087.78 -3.76435 6.60455 0
M  V30 11477 N 1089.36 -0.901303 -1.29284 0
M  V30 11478 C 1090.59 -0.542723 -1.99344 0
M  V30 11479 C 1091 0.877357 -1.67628 0
M  V30 11480 O 1090.34 1.59088 -0.918515 0
M  V30 11481 C 1090.4 -0.657088 -3.53444 0
M  V30 11482 C 1090.07 -2.04444 -4.0872 0
M  V30 11483 C 1091.06 -3.01577 -4.23494 0
M  V30 11484 C 1088.75 -2.35425 -4.43712 0
M  V30 11485 C 1090.74 -4.27816 -4.72496 0
M  V30 11486 C 1088.43 -3.61906 -4.9241 0
M  V30 11487 C 1089.43 -4.57916 -5.06757 0
M  V30 11488 O 1089.12 -5.8215 -5.54397 0
M  V30 11489 H 1088.85 -0.206742 -0.64361 0
M  V30 11490 H 1091.4 -1.21311 -1.65749 0
M  V30 11491 H 1089.63 0.0703305 -3.86636 0
M  V30 11492 H 1091.32 -0.307425 -4.04734 0
M  V30 11493 H 1092.09 -2.78957 -3.96747 0
M  V30 11494 H 1087.97 -1.61454 -4.31803 0
M  V30 11495 H 1091.51 -5.0276 -4.83609 0
M  V30 11496 H 1087.41 -3.84356 -5.18595 0
M  V30 11497 H 1088.17 -5.84762 -5.72709 0
M  V30 11498 N 1090.84 1.42931 -0.663954 0
M  V30 11499 C 1091.75 2.3459 0.0214234 0
M  V30 11500 C 1092.76 1.54487 0.800611 0
M  V30 11501 O 1093.94 1.87098 0.74541 0
M  V30 11502 C 1091 3.32896 0.968556 0
M  V30 11503 C 1090.07 4.28901 0.185108 0
M  V30 11504 C 1089.3 5.2251 1.08713 0
M  V30 11505 O 1089.52 5.20795 2.32655 0
M  V30 11506 O 1088.46 5.99347 0.553758 0
M  V30 11507 H 1092.28 2.94714 -0.733308 0
M  V30 11508 H 1089.87 1.43252 -0.424159 0
M  V30 11509 H 1091.75 3.93318 1.51257 0
M  V30 11510 H 1090.42 2.75261 1.70333 0
M  V30 11511 H 1089.33 3.71926 -0.402752 0
M  V30 11512 H 1090.66 4.89547 -0.510319 0
M  V30 11513 N 1092.32 0.406567 1.52266 0
M  V30 11514 C 1093.59 -0.228477 1.94261 0
M  V30 11515 C 1093.97 -1.62848 1.34328 0
M  V30 11516 O 1093.32 -2.22549 0.518082 0
M  V30 11517 C 1093.53 -0.237401 3.48192 0
M  V30 11518 C 1094.88 -0.457997 4.22123 0
M  V30 11519 O 1095.9 -0.316868 3.54788 0
M  V30 11520 O 1094.76 -0.735946 5.41522 0
M  V30 11521 H 1091.86 -0.146492 0.813922 0
M  V30 11522 H 1094.4 0.462325 1.63281 0
M  V30 11523 H 1093.17 0.742556 3.8419 0
M  V30 11524 H 1092.8 -0.972408 3.85526 0
M  V30 11525 N 1093.79 -1.57004 0.136909 0
M  V30 11526 C 1095.21 -1.58082 -0.21958 0
M  V30 11527 C 1095.41 -1.15065 -1.65415 0
M  V30 11528 O 1094.47 -0.846284 -2.37896 0
M  V30 11529 C 1095.78 -3.00685 0.0300112 0
M  V30 11530 C 1097.33 -3.12981 -0.0344899 0
M  V30 11531 C 1097.8 -4.57615 0.187639 0
M  V30 11532 N 1099.29 -4.63005 0.134219 0
M  V30 11533 C 1100.03 -5.72712 0.280743 0
M  V30 11534 N 1099.52 -6.91104 0.48443 0
M  V30 11535 N 1101.32 -5.61673 0.219055 0
M  V30 11536 H 1093.47 -1.83262 1.07372 0
M  V30 11537 H 1095.73 -0.847776 0.424241 0
M  V30 11538 H 1095.44 -3.36509 1.02247 0
M  V30 11539 H 1095.31 -3.70762 -0.693918 0
M  V30 11540 H 1097.7 -2.77004 -1.01749 0
M  V30 11541 H 1097.78 -2.45411 0.721608 0
M  V30 11542 H 1097.42 -4.94295 1.16769 0
M  V30 11543 H 1097.35 -5.23299 -0.588661 0
M  V30 11544 H 1099.84 -3.77895 -0.0189681 0
M  V30 11545 H 1100.16 -7.7057 0.586613 0
M  V30 11546 H 1098.5 -6.93047 0.520627 0
M  V30 11547 H 1101.69 -4.68061 0.0607606 0
M  V30 11548 H 1101.87 -6.47125 0.336683 0
M  V30 11549 N 1095.27 0.136881 -1.57004 0
M  V30 11550 C 1096.2 1.19402 -1.95642 0
M  V30 11551 C 1097.22 1.38635 -0.853478 0
M  V30 11552 O 1098.41 1.38027 -1.13185 0
M  V30 11553 C 1095.51 2.55716 -2.22402 0
M  V30 11554 C 1094.68 2.57325 -3.53698 0
M  V30 11555 C 1093.74 3.75253 -3.68879 0
M  V30 11556 O 1092.76 3.5966 -4.41173 0
M  V30 11557 N 1093.97 4.93112 -3.06302 0
M  V30 11558 H 1096.73 0.865504 -2.8693 0
M  V30 11559 H 1094.29 0.326346 -1.58577 0
M  V30 11560 H 1096.28 3.33135 -2.29789 0
M  V30 11561 H 1094.85 2.80819 -1.37329 0
M  V30 11562 H 1094.07 1.65749 -3.5766 0
M  V30 11563 H 1095.36 2.55441 -4.40031 0
M  V30 11564 H 1094.76 5.08684 -2.47502 0
M  V30 11565 H 1093.32 5.68271 -3.19236 0
M  V30 11566 N 1096.75 1.52266 0.40654 0
M  V30 11567 C 1097.68 1.72025 1.51459 0
M  V30 11568 C 1098.7 0.600667 1.51314 0
M  V30 11569 O 1099.88 0.875894 1.55532 0
M  V30 11570 C 1096.98 1.7479 2.90348 0
M  V30 11571 C 1096.16 3.03826 3.14656 0
M  V30 11572 C 1095.22 2.98369 4.33431 0
M  V30 11573 O 1094.24 3.7227 4.30586 0
M  V30 11574 N 1095.44 2.16338 5.38682 0
M  V30 11575 H 1098.21 2.67622 1.34903 0
M  V30 11576 H 1095.77 1.50536 0.595867 0
M  V30 11577 H 1097.76 1.68667 3.67877 0
M  V30 11578 H 1096.33 0.86656 3.00349 0
M  V30 11579 H 1095.55 3.23577 2.25148 0
M  V30 11580 H 1096.84 3.89182 3.27742 0
M  V30 11581 H 1096.24 1.55731 5.43842 0
M  V30 11582 H 1094.8 2.1607 6.14945 0
M  V30 11583 N 1098.23 -0.663929 1.42933 0
M  V30 11584 C 1099.16 -1.78899 1.50058 0
M  V30 11585 C 1100.14 -1.66329 0.356164 0
M  V30 11586 O 1101.32 -1.85587 0.571944 0
M  V30 11587 C 1098.45 -3.17265 1.41281 0
M  V30 11588 C 1097.41 -3.44584 2.53861 0
M  V30 11589 C 1096.73 -4.82638 2.3014 0
M  V30 11590 C 1098.03 -3.40394 3.96143 0
M  V30 11591 H 1099.73 -1.73194 2.44222 0
M  V30 11592 H 1097.27 -0.83182 1.17545 0
M  V30 11593 H 1099.23 -3.95715 1.44872 0
M  V30 11594 H 1097.95 -3.23675 0.43616 0
M  V30 11595 H 1096.61 -2.685 2.49606 0
M  V30 11596 H 1096.26 -4.85711 1.30743 0
M  V30 11597 H 1095.96 -5.01879 3.056 0
M  V30 11598 H 1097.48 -5.63359 2.35497 0
M  V30 11599 H 1098.9 -4.08796 4.01943 0
M  V30 11600 H 1097.29 -3.7117 4.71543 0
M  V30 11601 H 1098.36 -2.38767 4.22041 0
M  V30 11602 N 1099.71 -1.29285 -0.901281 0
M  V30 11603 C 1101.12 -1.15499 -1.46686 0
M  V30 11604 C 1101.47 0.250446 -1.94595 0
M  V30 11605 O 1100.59 1.14581 -1.83576 0
M  V30 11606 C 1101.19 -2.0906 -2.66607 0
M  V30 11607 C 1099.75 -1.99301 -3.19306 0
M  V30 11608 C 1098.89 -2.00079 -1.91999 0
M  V30 11609 H 1101.85 -1.41793 -0.712773 0
M  V30 11610 H 1101.87 -1.6619 -3.42288 0
M  V30 11611 H 1101.38 -3.11341 -2.31707 0
M  V30 11612 H 1099.48 -1.00103 -3.58901 0
M  V30 11613 H 1099.59 -2.86885 -3.8371 0
M  V30 11614 H 1097.96 -1.44655 -2.09636 0
M  V30 11615 H 1098.74 -3.04061 -1.59379 0
M  V30 11616 N 1101.18 1.11143 -1.11736 0
M  V30 11617 C 1102.15 2.15456 -0.78174 0
M  V30 11618 C 1103.15 1.59547 0.200383 0
M  V30 11619 O 1104.34 1.74183 -0.0244893 0
M  V30 11620 C 1101.47 3.40523 -0.160364 0
M  V30 11621 H 1102.66 2.46658 -1.70586 0
M  V30 11622 H 1100.22 1.26381 -0.919644 0
M  V30 11623 H 1100.95 3.14932 0.773835 0
M  V30 11624 H 1100.74 3.82386 -0.867378 0
M  V30 11625 H 1102.23 4.17559 0.0582175 0
M  V30 11626 N 1102.66 0.908147 1.28804 0
M  V30 11627 C 1104.07 0.585727 1.77274 0
M  V30 11628 C 1104.42 -0.898842 1.744 0
M  V30 11629 O 1103.55 -1.70301 1.33516 0
M  V30 11630 C 1104.14 1.05647 3.21907 0
M  V30 11631 C 1102.7 0.785066 3.68122 0
M  V30 11632 C 1101.85 1.22638 2.48707 0
M  V30 11633 H 1104.8 1.09 1.15346 0
M  V30 11634 H 1104.82 0.395442 3.7844 0
M  V30 11635 H 1104.33 2.13698 3.23967 0
M  V30 11636 H 1102.44 -0.282477 3.71528 0
M  V30 11637 H 1102.55 1.38888 4.58527 0
M  V30 11638 H 1100.91 0.645217 2.46392 0
M  V30 11639 H 1101.7 2.31512 2.5349 0
M  V30 11640 N 1104.14 -1.42577 0.671525 0
M  V30 11641 C 1105.09 -2.30798 -0.00883676 0
M  V30 11642 C 1106.06 -1.4578 -0.796076 0
M  V30 11643 O 1107.24 -1.74617 -0.768987 0
M  V30 11644 C 1104.38 -3.31581 -0.956452 0
M  V30 11645 C 1103.5 -4.31691 -0.163381 0
M  V30 11646 C 1102.63 -5.19549 -1.10645 0
M  V30 11647 C 1101.67 -6.1134 -0.304876 0
M  V30 11648 N 1100.81 -6.91761 -1.20048 0
M  V30 11649 H 1105.65 -2.88426 0.749301 0
M  V30 11650 H 1103.18 -1.42074 0.381251 0
M  V30 11651 H 1105.14 -3.88539 -1.51966 0
M  V30 11652 H 1103.77 -2.75561 -1.68126 0
M  V30 11653 H 1102.82 -3.76879 0.516396 0
M  V30 11654 H 1104.14 -4.96683 0.459099 0
M  V30 11655 H 1103.29 -5.81223 -1.73969 0
M  V30 11656 H 1102.03 -4.54726 -1.76282 0
M  V30 11657 H 1101.03 -5.48738 0.341597 0
M  V30 11658 H 1102.26 -6.78211 0.347352 0
M  V30 11659 H 1100.2 -6.2957 -1.84331 0
M  V30 11660 H 1100.12 -7.53345 -0.633003 0
M  V30 11661 H 1101.39 -7.57924 -1.82129 0
M  V30 11662 N 1105.62 -0.414636 -1.52048 0
M  V30 11663 C 1106.86 0.151945 -2.02832 0
M  V30 11664 C 1107.22 1.42337 -1.29452 0
M  V30 11665 O 1106.51 1.87509 -0.39383 0
M  V30 11666 C 1106.71 0.448327 -3.54577 0
M  V30 11667 C 1106.54 -0.792827 -4.42656 0
M  V30 11668 C 1105.31 -1.31966 -4.87763 0
M  V30 11669 C 1107.5 -1.67252 -4.86345 0
M  V30 11670 N 1105.49 -2.51572 -5.59986 0
M  V30 11671 C 1106.86 -2.71479 -5.57404 0
M  V30 11672 C 1108.91 -1.68963 -4.68354 0
M  V30 11673 C 1107.61 -3.77334 -6.12382 0
M  V30 11674 C 1109.64 -2.7374 -5.24233 0
M  V30 11675 C 1109 -3.76687 -5.95219 0
M  V30 11676 H 1105.1 0.0170247 -0.781815 0
M  V30 11677 H 1107.69 -0.570219 -1.86163 0
M  V30 11678 H 1105.86 1.13953 -3.71307 0
M  V30 11679 H 1107.59 1.00427 -3.92041 0
M  V30 11680 H 1104.34 -0.876885 -4.65411 0
M  V30 11681 H 1104.77 -3.12161 -6.00737 0
M  V30 11682 H 1109.41 -0.907103 -4.12955 0
M  V30 11683 H 1107.13 -4.56439 -6.6685 0
M  V30 11684 H 1110.71 -2.75978 -5.12179 0
M  V30 11685 H 1109.59 -4.56431 -6.37684 0
M  V30 11686 N 1107.1 1.56929 -0.145233 0
M  V30 11687 C 1108.32 2.00431 0.513314 0
M  V30 11688 C 1108.74 1.0253 1.58534 0
M  V30 11689 O 1108.1 0.0220459 1.82487 0
M  V30 11690 C 1108.15 3.43856 1.11557 0
M  V30 11691 O 1107.87 4.38015 0.0863707 0
M  V30 11692 C 1109.37 4.02627 1.8549 0
M  V30 11693 H 1106.59 0.657529 0.133778 0
M  V30 11694 H 1109.13 2.03095 -0.239296 0
M  V30 11695 H 1107.29 3.4205 1.81881 0
M  V30 11696 H 1107.7 5.21842 0.527363 0
M  V30 11697 H 1109.18 5.04985 2.22923 0
M  V30 11698 H 1109.65 3.43239 2.74014 0
M  V30 11699 H 1110.26 4.08058 1.19869 0
M  V30 11700 N 1108.58 -0.128553 1.57075 0
M  V30 11701 C 1109.49 -1.17718 2.02927 0
M  V30 11702 C 1110.5 -1.45912 0.947932 0
M  V30 11703 O 1111.68 -1.57217 1.25876 0
M  V30 11704 C 1108.74 -2.48625 2.41633 0
M  V30 11705 C 1107.8 -2.27914 3.63804 0
M  V30 11706 C 1107.04 -3.52579 4.00654 0
M  V30 11707 O 1107.26 -4.59505 3.37952 0
M  V30 11708 O 1106.19 -3.44147 4.93808 0
M  V30 11709 H 1110.02 -0.817846 2.92481 0
M  V30 11710 H 1107.6 -0.338649 1.45511 0
M  V30 11711 H 1109.49 -3.2577 2.67305 0
M  V30 11712 H 1108.16 -2.84052 1.55229 0
M  V30 11713 H 1107.07 -1.4866 3.43294 0
M  V30 11714 H 1108.4 -1.97395 4.50883 0
M  V30 11715 N 1110.05 -1.5248 -0.398459 0
M  V30 11716 C 1110.98 -1.79549 -1.49279 0
M  V30 11717 C 1111.96 -0.647004 -1.57315 0
M  V30 11718 O 1113.15 -0.893661 -1.72416 0
M  V30 11719 C 1110.28 -1.95582 -2.86993 0
M  V30 11720 C 1109.23 -3.1123 -2.93803 0
M  V30 11721 C 1108.56 -3.12501 -4.33874 0
M  V30 11722 C 1109.86 -4.50485 -2.64312 0
M  V30 11723 H 1111.55 -2.71187 -1.26877 0
M  V30 11724 H 1109.1 -1.30492 -0.608924 0
M  V30 11725 H 1111.05 -2.13102 -3.63546 0
M  V30 11726 H 1109.78 -1.00625 -3.10712 0
M  V30 11727 H 1108.44 -2.93477 -2.19697 0
M  V30 11728 H 1108.08 -2.15245 -4.54619 0
M  V30 11729 H 1107.78 -3.90183 -4.39353 0
M  V30 11730 H 1109.31 -3.32164 -5.12347 0
M  V30 11731 H 1110.72 -4.68387 -3.30585 0
M  V30 11732 H 1109.12 -5.30163 -2.81153 0
M  V30 11733 H 1110.19 -4.57848 -1.59696 0
M  V30 11734 N 1111.53 0.65634 -1.43283 0
M  V30 11735 C 1112.49 1.75117 -1.47874 0
M  V30 11736 C 1113.49 1.56629 -0.363846 0
M  V30 11737 O 1114.68 1.62584 -0.625464 0
M  V30 11738 C 1111.82 3.13957 -1.32831 0
M  V30 11739 H 1113.01 1.72429 -2.45374 0
M  V30 11740 H 1110.56 0.867704 -1.30002 0
M  V30 11741 H 1111.3 3.22259 -0.36326 0
M  V30 11742 H 1111.08 3.28781 -2.13649 0
M  V30 11743 H 1112.57 3.93799 -1.38969 0
M  V30 11744 N 1113.01 1.29761 0.894412 0
M  V30 11745 C 1113.94 1.17902 2.01547 0
M  V30 11746 C 1114.92 0.0719402 1.69948 0
M  V30 11747 O 1116.11 0.252338 1.92554 0
M  V30 11748 C 1113.24 0.860262 3.36477 0
M  V30 11749 C 1112.19 1.92424 3.82305 0
M  V30 11750 C 1111.52 1.45868 5.14419 0
M  V30 11751 C 1112.82 3.33391 4.02054 0
M  V30 11752 H 1114.51 2.11688 2.11727 0
M  V30 11753 H 1112.06 1.01916 1.01731 0
M  V30 11754 H 1114.01 0.763987 4.14417 0
M  V30 11755 H 1112.73 -0.113289 3.26403 0
M  V30 11756 H 1111.39 2.00999 3.06586 0
M  V30 11757 H 1111.04 0.473654 5.00765 0
M  V30 11758 H 1110.74 2.17028 5.46052 0
M  V30 11759 H 1112.26 1.37601 5.94894 0
M  V30 11760 H 1113.68 3.27628 4.7046 0
M  V30 11761 H 1112.07 4.02555 4.4505 0
M  V30 11762 H 1113.14 3.75978 3.06216 0
M  V30 11763 N 1114.49 -1.10549 1.12324 0
M  V30 11764 C 1115.42 -2.18911 0.812416 0
M  V30 11765 C 1116.4 -1.68628 -0.22327 0
M  V30 11766 O 1117.58 -1.94015 -0.0847184 0
M  V30 11767 C 1114.71 -3.46288 0.264947 0
M  V30 11768 C 1113.67 -4.09838 1.23356 0
M  V30 11769 C 1112.99 -5.31901 0.546374 0
M  V30 11770 C 1114.29 -4.53686 2.58778 0
M  V30 11771 H 1115.99 -2.45169 1.71851 0
M  V30 11772 H 1113.53 -1.17834 0.827715 0
M  V30 11773 H 1115.49 -4.21385 0.0352364 0
M  V30 11774 H 1114.21 -3.19517 -0.676479 0
M  V30 11775 H 1112.87 -3.36746 1.44906 0
M  V30 11776 H 1112.52 -5.01406 -0.400157 0
M  V30 11777 H 1112.22 -5.75372 1.19249 0
M  V30 11778 H 1113.74 -6.09731 0.325673 0
M  V30 11779 H 1115.16 -5.20063 2.41263 0
M  V30 11780 H 1113.55 -5.08003 3.19457 0
M  V30 11781 H 1114.62 -3.66665 3.17309 0
M  V30 11782 N 1115.97 -0.914965 -1.28321 0
M  V30 11783 C 1117.21 -0.544639 -1.94208 0
M  V30 11784 C 1117.53 0.916368 -1.72806 0
M  V30 11785 O 1118.73 1.39491 -2.32926 0
M  V30 11786 C 1117.19 -0.923209 -3.47858 0
M  V30 11787 C 1116.8 -2.40403 -3.78035 0
M  V30 11788 C 1118.54 -0.623526 -4.19896 0
M  V30 11789 C 1116.45 -2.72266 -5.25 0
M  V30 11790 H 1115.38 -0.199966 -0.727 0
M  V30 11791 H 1118.03 -1.11405 -1.45812 0
M  V30 11792 H 1116.41 -0.282576 -3.94991 0
M  V30 11793 H 1117.59 -3.09149 -3.41706 0
M  V30 11794 H 1115.9 -2.67429 -3.19172 0
M  V30 11795 H 1118.5 -0.838243 -5.28089 0
M  V30 11796 H 1118.84 0.438721 -4.13982 0
M  V30 11797 H 1119.37 -1.22268 -3.78544 0
M  V30 11798 H 1116.11 -3.77349 -5.35993 0
M  V30 11799 H 1115.63 -2.08157 -5.62522 0
M  V30 11800 H 1117.31 -2.59334 -5.92752 0
M  V30 11801 N 1117.44 1.42219 -0.679077 0
M  V30 11802 C 1118.38 2.29172 0.035583 0
M  V30 11803 C 1119.39 1.43909 0.761183 0
M  V30 11804 O 1120.58 1.67584 0.61463 0
M  V30 11805 C 1117.68 3.21426 1.07419 0
M  V30 11806 C 1116.85 4.35364 0.421547 0
M  V30 11807 C 1115.91 5.08307 1.36051 0
M  V30 11808 O 1114.94 5.62678 0.859186 0
M  V30 11809 N 1116.14 5.14222 2.69362 0
M  V30 11810 H 1118.9 2.91147 -0.710865 0
M  V30 11811 H 1116.46 1.53192 -0.523821 0
M  V30 11812 H 1118.46 3.67091 1.70371 0
M  V30 11813 H 1117.03 2.60873 1.72233 0
M  V30 11814 H 1116.25 3.9229 -0.387559 0
M  V30 11815 H 1117.53 5.08789 -0.0329421 0
M  V30 11816 H 1116.93 4.71467 3.12627 0
M  V30 11817 H 1115.49 5.63519 3.27551 0
M  V30 11818 N 1118.92 0.422693 1.51826 0
M  V30 11819 C 1119.85 -0.43167 2.25098 0
M  V30 11820 C 1120.87 -0.998758 1.28564 0
M  V30 11821 O 1122.06 -0.89539 1.54418 0
M  V30 11822 C 1119.16 -1.61426 2.97985 0
M  V30 11823 C 1118.33 -1.16866 4.21499 0
M  V30 11824 C 1117.39 -2.2197 4.77091 0
M  V30 11825 O 1116.41 -1.82004 5.39317 0
M  V30 11826 N 1117.62 -3.54293 4.59844 0
M  V30 11827 H 1120.38 0.196255 2.99057 0
M  V30 11828 H 1117.94 0.25079 1.59946 0
M  V30 11829 H 1119.93 -2.31331 3.32066 0
M  V30 11830 H 1118.5 -2.14783 2.27128 0
M  V30 11831 H 1117.72 -0.297217 3.93078 0
M  V30 11832 H 1119.01 -0.848106 5.01682 0
M  V30 11833 H 1118.41 -3.89505 4.10247 0
M  V30 11834 H 1116.97 -4.20135 4.98327 0
M  V30 11835 N 1120.4 -1.5685 0.153553 0
M  V30 11836 C 1121.64 -1.98226 -0.498586 0
M  V30 11837 C 1122 -1.03671 -1.61605 0
M  V30 11838 O 1123.2 -1.34117 -2.32951 0
M  V30 11839 C 1121.48 -3.43539 -0.985678 0
M  V30 11840 S 1123.03 -4.0694 -1.6415 0
M  V30 11841 H 1119.85 -0.692533 -0.160993 0
M  V30 11842 H 1122.45 -1.93936 0.246817 0
M  V30 11843 H 1121.16 -4.10081 -0.161708 0
M  V30 11844 H 1120.69 -3.51557 -1.76555 0
M  V30 11845 H 1122.7 -4.0053 -2.929 0
M  V30 11846 N 1121.88 0.120221 -1.57141 0
M  V30 11847 C 1122.81 1.17787 -1.95452 0
M  V30 11848 C 1123.79 1.40174 -0.824016 0
M  V30 11849 O 1124.97 1.54348 -1.08208 0
M  V30 11850 C 1122.1 2.53193 -2.24969 0
M  V30 11851 C 1121.15 2.47241 -3.47526 0
M  V30 11852 S 1121.98 1.91325 -5.00155 0
M  V30 11853 C 1123.13 3.28406 -5.32823 0
M  V30 11854 H 1123.37 0.851152 -2.84856 0
M  V30 11855 H 1120.9 0.326929 -1.50899 0
M  V30 11856 H 1122.86 3.31104 -2.42652 0
M  V30 11857 H 1121.52 2.83043 -1.36181 0
M  V30 11858 H 1120.71 3.46981 -3.65541 0
M  V30 11859 H 1120.31 1.7745 -3.29223 0
M  V30 11860 H 1122.61 4.24613 -5.2793 0
M  V30 11861 H 1123.55 3.1522 -6.34068 0
M  V30 11862 H 1123.96 3.26779 -4.603 0
M  V30 11863 N 1123.36 1.52689 0.390367 0
M  V30 11864 C 1124.32 1.76726 1.45947 0
M  V30 11865 C 1125.32 0.637269 1.47633 0
M  V30 11866 O 1126.51 0.905312 1.48828 0
M  V30 11867 C 1123.64 1.86678 2.85244 0
M  V30 11868 H 1124.83 2.72185 1.25918 0
M  V30 11869 H 1122.39 1.4339 0.622023 0
M  V30 11870 H 1123.12 0.931991 3.10619 0
M  V30 11871 H 1122.91 2.68843 2.85422 0
M  V30 11872 H 1124.4 2.06952 3.62713 0
M  V30 11873 N 1124.83 -0.648732 1.43629 0
M  V30 11874 C 1126.06 -1.43412 1.48716 0
M  V30 11875 C 1126.47 -1.88908 0.105051 0
M  V30 11876 O 1125.82 -1.60373 -0.895896 0
M  V30 11877 C 1125.88 -2.69906 2.37468 0
M  V30 11878 C 1125.54 -2.46321 3.84935 0
M  V30 11879 C 1126.54 -2.09259 4.75927 0
M  V30 11880 C 1124.22 -2.60506 4.29467 0
M  V30 11881 C 1126.22 -1.86686 6.09448 0
M  V30 11882 C 1123.9 -2.37548 5.6304 0
M  V30 11883 C 1124.9 -2.00694 6.52848 0
M  V30 11884 O 1124.59 -1.77979 7.83951 0
M  V30 11885 H 1124.32 -0.446883 0.507219 0
M  V30 11886 H 1126.88 -0.802218 1.89086 0
M  V30 11887 H 1125.11 -3.35672 1.91993 0
M  V30 11888 H 1126.8 -3.31867 2.33707 0
M  V30 11889 H 1127.56 -1.97872 4.428 0
M  V30 11890 H 1123.44 -2.88165 3.59836 0
M  V30 11891 H 1126.98 -1.57844 6.79508 0
M  V30 11892 H 1122.88 -2.48539 5.95734 0
M  V30 11893 H 1123.65 -1.92368 7.95573 0
M  V30 11894 N 1126.31 -1.30234 -0.887518 0
M  V30 11895 C 1127.22 -1.18316 -2.02579 0
M  V30 11896 C 1128.24 -0.103658 -1.73691 0
M  V30 11897 O 1129.41 -0.3181 -1.98872 0
M  V30 11898 C 1126.48 -0.873222 -3.35523 0
M  V30 11899 C 1125.54 -2.03783 -3.7785 0
M  V30 11900 C 1124.77 -1.74258 -5.0445 0
M  V30 11901 O 1125 -0.669295 -5.6646 0
M  V30 11902 O 1123.93 -2.59423 -5.43124 0
M  V30 11903 H 1127.76 -2.13933 -2.15561 0
M  V30 11904 H 1125.34 -1.09803 -1.0131 0
M  V30 11905 H 1127.22 -0.715463 -4.15282 0
M  V30 11906 H 1125.9 0.053056 -3.23657 0
M  V30 11907 H 1124.81 -2.2509 -2.98806 0
M  V30 11908 H 1126.14 -2.94574 -3.94318 0
M  V30 11909 N 1127.79 1.09952 -1.12909 0
M  V30 11910 C 1129.2 1.63516 -0.901087 0
M  V30 11911 C 1129.55 1.87932 0.563547 0
M  V30 11912 O 1128.68 1.625 1.42908 0
M  V30 11913 C 1129.27 2.97054 -1.62924 0
M  V30 11914 C 1127.83 3.47464 -1.44725 0
M  V30 11915 C 1126.98 2.21979 -1.66194 0
M  V30 11916 H 1129.93 0.933858 -1.28315 0
M  V30 11917 H 1129.95 3.64757 -1.08318 0
M  V30 11918 H 1129.46 2.79251 -2.69519 0
M  V30 11919 H 1127.56 3.70402 -0.40409 0
M  V30 11920 H 1127.68 4.25254 -2.20671 0
M  V30 11921 H 1126.04 2.30368 -1.0864 0
M  V30 11922 H 1126.82 2.06702 -2.74097 0
M  V30 11923 N 1129.27 0.921757 1.27833 0
M  V30 11924 C 1130.51 0.559906 1.94918 0
M  V30 11925 C 1130.85 -0.895532 1.72319 0
M  V30 11926 O 1130.12 -1.638 1.04879 0
M  V30 11927 C 1130.41 0.879458 3.49196 0
M  V30 11928 C 1130.26 2.38821 3.81162 0
M  V30 11929 C 1131.58 0.381183 4.38446 0
M  V30 11930 H 1128.7 0.204893 0.707946 0
M  V30 11931 H 1131.34 1.15246 1.51058 0
M  V30 11932 H 1129.49 0.375177 3.86684 0
M  V30 11933 H 1131.16 2.96373 3.53498 0
M  V30 11934 H 1129.4 2.83988 3.27923 0
M  V30 11935 H 1130.07 2.56234 4.88926 0
M  V30 11936 H 1132.55 0.813289 4.08075 0
M  V30 11937 H 1131.43 0.633778 5.45229 0
M  V30 11938 H 1131.69 -0.718651 4.3622 0
M  V30 11939 N 1130.75 -1.41857 0.686609 0
M  V30 11940 C 1131.68 -2.29188 -0.0234289 0
M  V30 11941 C 1132.69 -1.44311 -0.753541 0
M  V30 11942 O 1133.88 -1.67908 -0.605734 0
M  V30 11943 C 1130.98 -3.21991 -1.05713 0
M  V30 11944 C 1130.15 -4.35581 -0.398453 0
M  V30 11945 C 1129.21 -5.09022 -1.33354 0
M  V30 11946 O 1128.24 -5.63126 -0.829334 0
M  V30 11947 N 1129.44 -5.15643 -2.66632 0
M  V30 11948 H 1132.21 -2.90766 0.726295 0
M  V30 11949 H 1129.77 -1.52912 0.531937 0
M  V30 11950 H 1131.76 -3.6799 -1.68421 0
M  V30 11951 H 1130.33 -2.61782 -1.70847 0
M  V30 11952 H 1129.55 -3.92079 0.408358 0
M  V30 11953 H 1130.84 -5.08765 0.0599239 0
M  V30 11954 H 1130.23 -4.73118 -3.10122 0
M  V30 11955 H 1128.79 -5.65248 -3.24558 0
M  V30 11956 N 1132.22 -0.430739 -1.51599 0
M  V30 11957 C 1133.64 -0.0826902 -1.59386 0
M  V30 11958 C 1133.84 1.40729 -1.44214 0
M  V30 11959 O 1132.9 2.1765 -1.28002 0
M  V30 11960 C 1134.21 -0.59691 -2.94716 0
M  V30 11961 C 1135.76 -0.556772 -3.08008 0
M  V30 11962 C 1136.23 -1.04786 -4.45852 0
M  V30 11963 N 1137.72 -1.00557 -4.52153 0
M  V30 11964 C 1138.46 -1.35649 -5.57124 0
M  V30 11965 N 1137.95 -1.77994 -6.69545 0
M  V30 11966 N 1139.75 -1.27508 -5.47447 0
M  V30 11967 H 1131.9 -1.40027 -1.59707 0
M  V30 11968 H 1134.16 -0.576606 -0.752482 0
M  V30 11969 H 1133.87 -1.63914 -3.11167 0
M  V30 11970 H 1133.74 -0.0182342 -3.77196 0
M  V30 11971 H 1136.13 0.476457 -2.91228 0
M  V30 11972 H 1136.21 -1.17177 -2.27383 0
M  V30 11973 H 1135.85 -2.07952 -4.63377 0
M  V30 11974 H 1135.78 -0.409461 -5.25006 0
M  V30 11975 H 1138.27 -0.694518 -3.71463 0
M  V30 11976 H 1138.59 -2.03026 -7.45654 0
M  V30 11977 H 1136.93 -1.81916 -6.70769 0
M  V30 11978 H 1140.12 -0.942969 -4.58504 0
M  V30 11979 H 1140.3 -1.55185 -6.29143 0
M  V30 11980 N 1133.7 1.56767 -0.161869 0
M  V30 11981 C 1135.11 1.83265 0.356466 0
M  V30 11982 C 1135.46 1.08127 1.63716 0
M  V30 11983 O 1134.59 0.33127 2.13849 0
M  V30 11984 C 1135.18 3.32437 0.653521 0
M  V30 11985 C 1133.74 3.59465 1.11633 0
M  V30 11986 C 1132.89 2.76909 0.147204 0
M  V30 11987 H 1135.84 1.53926 -0.386308 0
M  V30 11988 H 1135.86 3.49401 1.50662 0
M  V30 11989 H 1135.37 3.87098 -0.278766 0
M  V30 11990 H 1133.48 3.10206 2.06404 0
M  V30 11991 H 1133.59 4.67853 1.03202 0
M  V30 11992 H 1131.95 2.46457 0.642739 0
M  V30 11993 H 1132.74 3.34346 -0.778938 0
M  V30 11994 N 1135.18 -0.111886 1.57202 0
M  V30 11995 C 1136.41 -0.836317 1.89791 0
M  V30 11996 C 1136.83 -1.72304 0.754513 0
M  V30 11997 O 1136.19 -1.78889 -0.294672 0
M  V30 11998 C 1136.24 -1.63971 3.21164 0
M  V30 11999 O 1135.34 -2.74726 3.0757 0
M  V30 12000 H 1134.68 -0.230833 0.622585 0
M  V30 12001 H 1137.21 -0.0921478 2.04392 0
M  V30 12002 H 1137.22 -2.02746 3.54059 0
M  V30 12003 H 1135.9 -0.98882 4.03974 0
M  V30 12004 H 1134.47 -2.39101 2.86156 0
M  V30 12005 N 1136.66 -1.52894 -0.382264 0
M  V30 12006 C 1137.91 -1.68266 -1.12663 0
M  V30 12007 C 1138.23 -0.425974 -1.89778 0
M  V30 12008 O 1137.49 0.59178 -1.86538 0
M  V30 12009 C 1137.79 -2.87309 -2.12576 0
M  V30 12010 C 1137.45 -4.24484 -1.52067 0
M  V30 12011 C 1136.12 -4.6179 -1.35292 0
M  V30 12012 C 1138.47 -5.09858 -1.08138 0
M  V30 12013 C 1135.8 -5.82123 -0.731449 0
M  V30 12014 C 1138.15 -6.30822 -0.473986 0
M  V30 12015 C 1136.81 -6.66854 -0.293585 0
M  V30 12016 H 1136.08 -0.615728 -0.412262 0
M  V30 12017 H 1138.73 -1.8705 -0.410425 0
M  V30 12018 H 1137.03 -2.62968 -2.90439 0
M  V30 12019 H 1138.73 -2.96397 -2.70092 0
M  V30 12020 H 1135.32 -3.951 -1.66114 0
M  V30 12021 H 1139.5 -4.816 -1.19898 0
M  V30 12022 H 1134.76 -6.08643 -0.579938 0
M  V30 12023 H 1138.93 -6.96287 -0.125324 0
M  V30 12024 H 1136.56 -7.59962 0.190054 0
M  V30 12025 N 1138.14 0.641106 -1.43971 0
M  V30 12026 C 1139.55 0.958161 -1.27638 0
M  V30 12027 C 1139.75 2.00456 -0.204885 0
M  V30 12028 O 1138.81 2.49106 0.412606 0
M  V30 12029 C 1140.12 1.43091 -2.64472 0
M  V30 12030 C 1141.67 1.54692 -2.72102 0
M  V30 12031 C 1142.15 2.05353 -4.09382 0
M  V30 12032 N 1143.64 2.12638 -4.11509 0
M  V30 12033 C 1144.37 2.52987 -5.14573 0
M  V30 12034 N 1143.87 2.92544 -6.28005 0
M  V30 12035 N 1145.66 2.53033 -5.01927 0
M  V30 12036 H 1137.81 -0.0510973 -2.12339 0
M  V30 12037 H 1140.07 0.039748 -0.947166 0
M  V30 12038 H 1139.78 0.736389 -3.43904 0
M  V30 12039 H 1139.65 2.40375 -2.90688 0
M  V30 12040 H 1142.04 2.23242 -1.92994 0
M  V30 12041 H 1142.12 0.558083 -2.49638 0
M  V30 12042 H 1141.77 1.37401 -4.88962 0
M  V30 12043 H 1141.7 3.0509 -4.29218 0
M  V30 12044 H 1144.19 1.84792 -3.29636 0
M  V30 12045 H 1144.5 3.22116 -7.02468 0
M  V30 12046 H 1142.85 2.90319 -6.31458 0
M  V30 12047 H 1146.04 2.21514 -4.1237 0
M  V30 12048 H 1146.21 2.84155 -5.82375 0
M  V30 12049 N 1139.62 1.30703 0.880598 0
M  V30 12050 C 1140.58 1.17429 1.96832 0
M  V30 12051 C 1141.58 0.104305 1.60461 0
M  V30 12052 O 1142.77 0.352758 1.70591 0
M  V30 12053 C 1139.9 0.800099 3.31378 0
M  V30 12054 H 1141.09 2.14069 2.10034 0
M  V30 12055 H 1138.65 1.14162 1.06755 0
M  V30 12056 H 1139.38 -0.165606 3.23877 0
M  V30 12057 H 1139.17 1.57341 3.59146 0
M  V30 12058 H 1140.66 0.730826 4.11155 0
M  V30 12059 N 1141.09 -1.09351 1.1349 0
M  V30 12060 C 1142.34 -1.81812 0.898452 0
M  V30 12061 C 1142.67 -1.85525 -0.573959 0
M  V30 12062 O 1141.95 -1.32403 -1.42477 0
M  V30 12063 C 1142.23 -3.27921 1.48794 0
M  V30 12064 C 1142.08 -3.32476 3.02952 0
M  V30 12065 C 1143.4 -4.24625 1.15678 0
M  V30 12066 H 1140.52 -0.660074 0.327829 0
M  V30 12067 H 1143.16 -1.28091 1.40331 0
M  V30 12068 H 1141.31 -3.738 1.05858 0
M  V30 12069 H 1142.99 -2.94994 3.54649 0
M  V30 12070 H 1141.23 -2.72037 3.37903 0
M  V30 12071 H 1141.9 -4.35409 3.39298 0
M  V30 12072 H 1144.38 -3.87036 1.52781 0
M  V30 12073 H 1143.25 -5.25194 1.59571 0
M  V30 12074 H 1143.51 -4.42044 0.0705933 0
M  V30 12075 N 1142.57 -0.928524 -1.27343 0
M  V30 12076 C 1143.82 -0.565207 -1.93619 0
M  V30 12077 C 1144.13 0.897988 -1.73769 0
M  V30 12078 O 1145.34 1.37012 -2.34393 0
M  V30 12079 C 1143.8 -0.960052 -3.46859 0
M  V30 12080 C 1143.4 -2.44399 -3.75464 0
M  V30 12081 C 1145.15 -0.668026 -4.19211 0
M  V30 12082 C 1143.05 -2.77819 -5.22083 0
M  V30 12083 H 1141.98 -0.207665 -0.724839 0
M  V30 12084 H 1144.64 -1.12945 -1.44623 0
M  V30 12085 H 1143.02 -0.324454 -3.94669 0
M  V30 12086 H 1144.19 -3.12756 -3.38408 0
M  V30 12087 H 1142.51 -2.70799 -3.16317 0
M  V30 12088 H 1145.1 -0.894207 -5.2717 0
M  V30 12089 H 1145.45 0.394788 -4.14424 0
M  V30 12090 H 1145.98 -1.26276 -3.77226 0
M  V30 12091 H 1142.72 -3.83013 -5.3196 0
M  V30 12092 H 1142.24 -2.14112 -5.60282 0
M  V30 12093 H 1143.92 -2.65607 -5.89968 0
M  V30 12094 N 1144.05 1.41491 -0.694123 0
M  V30 12095 C 1145.47 1.55358 -0.365532 0
M  V30 12096 C 1145.67 1.66994 1.12762 0
M  V30 12097 O 1144.72 1.64756 1.91342 0
M  V30 12098 C 1146.03 2.79352 -1.11279 0
M  V30 12099 C 1147.58 2.93147 -1.097 0
M  V30 12100 C 1148.06 4.20027 -1.82597 0
M  V30 12101 N 1149.55 4.26981 -1.7956 0
M  V30 12102 C 1150.28 5.24013 -2.32805 0
M  V30 12103 N 1149.78 6.27083 -2.94515 0
M  V30 12104 N 1151.57 5.15943 -2.23069 0
M  V30 12105 H 1143.72 1.32183 -1.66257 0
M  V30 12106 H 1145.99 0.637624 -0.701527 0
M  V30 12107 H 1145.69 2.76958 -2.16765 0
M  V30 12108 H 1145.57 3.70827 -0.690439 0
M  V30 12109 H 1147.95 2.95057 -0.0504037 0
M  V30 12110 H 1148.03 2.02849 -1.55839 0
M  V30 12111 H 1147.68 4.18878 -2.87235 0
M  V30 12112 H 1147.61 5.09294 -1.33893 0
M  V30 12113 H 1150.1 3.53129 -1.34567 0
M  V30 12114 H 1150.41 6.97511 -3.32714 0
M  V30 12115 H 1148.76 6.27589 -2.98592 0
M  V30 12116 H 1151.95 4.34346 -1.74532 0
M  V30 12117 H 1152.12 5.91396 -2.64868 0
M  V30 12118 N 1145.53 0.438773 1.51369 0
M  V30 12119 C 1146.8 -0.18722 1.94702 0
M  V30 12120 C 1147.18 -1.59962 1.37752 0
M  V30 12121 O 1146.53 -2.214 0.565171 0
M  V30 12122 C 1146.74 -0.163491 3.48617 0
M  V30 12123 C 1148.09 -0.368355 4.22999 0
M  V30 12124 O 1149.11 -0.241541 3.5538 0
M  V30 12125 O 1147.97 -0.620916 5.42961 0
M  V30 12126 H 1145.07 -0.129194 0.816846 0
M  V30 12127 H 1147.61 0.496855 1.62263 0
M  V30 12128 H 1146.39 0.823882 3.82528 0
M  V30 12129 H 1146.01 -0.890414 3.87501 0
M  V30 12130 N 1147.01 -1.56678 0.170181 0
M  V30 12131 C 1147.94 -2.20916 -0.756213 0
M  V30 12132 C 1148.92 -1.16442 -1.23997 0
M  V30 12133 O 1150.1 -1.44867 -1.29333 0
M  V30 12134 C 1147.23 -2.84901 -1.98617 0
M  V30 12135 C 1146.19 -3.95403 -1.63831 0
M  V30 12136 C 1145.51 -4.46432 -2.94282 0
M  V30 12137 C 1146.81 -5.15051 -0.867195 0
M  V30 12138 H 1148.51 -2.98585 -0.220776 0
M  V30 12139 H 1146.05 -1.43619 -0.104748 0
M  V30 12140 H 1148 -3.28514 -2.63926 0
M  V30 12141 H 1146.73 -2.04598 -2.54572 0
M  V30 12142 H 1145.39 -3.52444 -1.00891 0
M  V30 12143 H 1145.04 -3.62923 -3.48276 0
M  V30 12144 H 1144.74 -5.20979 -2.71762 0
M  V30 12145 H 1146.26 -4.92731 -3.60622 0
M  V30 12146 H 1147.67 -5.55363 -1.42285 0
M  V30 12147 H 1146.07 -5.95507 -0.741065 0
M  V30 12148 H 1147.14 -4.84707 0.136693 0
M  V30 12149 N 1148.48 0.103547 -1.57259 0
M  V30 12150 C 1149.43 1.14513 -2.02459 0
M  V30 12151 C 1150.43 1.4197 -0.924163 0
M  V30 12152 O 1151.63 1.41751 -1.10936 0
M  V30 12153 H 1148.01 0.386469 -0.645094 0
M  V30 12154 H 1149.98 0.737531 -2.89142 0
M  V30 12155 C 1148.73 2.45948 -2.45775 0
M  V30 12156 H 1148.05 2.25662 -3.30026 0
M  V30 12157 H 1149.49 3.17351 -2.81184 0
M  V30 12158 C 1147.95 3.09639 -1.32759 0
M  V30 12159 O 1148.48 3.96372 -0.652059 0
M  V30 12160 N 1146.68 2.69757 -1.08072 0
M  V30 12161 H 1146.23 1.9932 -1.63185 0
M  V30 12162 H 1146.19 3.127 -0.326532 0
M  V30 12163 N 1149.96 1.53094 0.37415 0
M  V30 12164 C 1151.19 1.73061 1.143 0
M  V30 12165 C 1151.61 0.454611 1.82524 0
M  V30 12166 O 1150.97 -0.590743 1.71406 0
M  V30 12167 C 1151.02 2.89086 2.15549 0
M  V30 12168 O 1150.12 2.57096 3.22452 0
M  V30 12169 H 1149.46 0.575009 0.332055 0
M  V30 12170 H 1151.99 1.99946 0.433897 0
M  V30 12171 H 1152 3.15007 2.59296 0
M  V30 12172 H 1150.68 3.81647 1.65283 0
M  V30 12173 H 1149.25 2.41965 2.83738 0
M  V30 12174 N 1151.44 -0.633461 1.44309 0
M  V30 12175 C 1152.37 -1.75676 1.53819 0
M  V30 12176 C 1153.35 -1.65537 0.391365 0
M  V30 12177 O 1154.54 -1.84332 0.611181 0
M  V30 12178 C 1151.67 -3.14197 1.47979 0
M  V30 12179 C 1150.62 -3.39122 2.61113 0
M  V30 12180 C 1149.95 -4.77648 2.40325 0
M  V30 12181 C 1151.25 -3.31914 4.03274 0
M  V30 12182 H 1152.94 -1.67974 2.47841 0
M  V30 12183 H 1150.49 -0.8067 1.19283 0
M  V30 12184 H 1152.44 -3.92553 1.53233 0
M  V30 12185 H 1151.16 -3.22677 0.504718 0
M  V30 12186 H 1149.82 -2.63145 2.55245 0
M  V30 12187 H 1149.47 -4.82829 1.41016 0
M  V30 12188 H 1149.17 -4.95284 3.16177 0
M  V30 12189 H 1150.69 -5.58237 2.47394 0
M  V30 12190 H 1152.11 -4.00178 4.10524 0
M  V30 12191 H 1150.5 -3.61085 4.7931 0
M  V30 12192 H 1151.57 -2.29761 4.2701 0
M  V30 12193 N 1152.92 -1.31168 -0.873655 0
M  V30 12194 C 1154.17 -1.20003 -1.62118 0
M  V30 12195 C 1154.48 0.241505 -1.94103 0
M  V30 12196 O 1155.69 0.474801 -2.67316 0
M  V30 12197 C 1154.14 -2.10055 -2.92241 0
M  V30 12198 C 1153.75 -3.59183 -2.67752 0
M  V30 12199 C 1155.49 -2.07681 -3.70228 0
M  V30 12200 C 1153.4 -4.41255 -3.93761 0
M  V30 12201 H 1152.33 -0.445564 -0.608267 0
M  V30 12202 H 1154.98 -1.55997 -0.966287 0
M  V30 12203 H 1153.36 -1.66956 -3.59085 0
M  V30 12204 H 1154.54 -4.10504 -2.09339 0
M  V30 12205 H 1152.85 -3.63496 -2.03125 0
M  V30 12206 H 1155.45 -2.66246 -4.637 0
M  V30 12207 H 1155.79 -1.06304 -4.02499 0
M  V30 12208 H 1156.33 -2.48961 -3.10263 0
M  V30 12209 H 1153.07 -5.43372 -3.66643 0
M  V30 12210 H 1152.59 -3.94694 -4.51638 0
M  V30 12211 H 1154.26 -4.53278 -4.6168 0
M  V30 12212 N 1154.4 1.08748 -1.14068 0
M  V30 12213 C 1155.62 1.85353 -0.930532 0
M  V30 12214 C 1156.05 1.80892 0.515717 0
M  V30 12215 O 1155.4 1.19146 1.36652 0
M  V30 12216 C 1155.45 3.30962 -1.43167 0
M  V30 12217 O 1154.56 4.0769 -0.621468 0
M  V30 12218 H 1153.9 0.574485 -0.332962 0
M  V30 12219 H 1156.43 1.37282 -1.51707 0
M  V30 12220 H 1156.44 3.81807 -1.43832 0
M  V30 12221 H 1155.11 3.33524 -2.48464 0
M  V30 12222 H 1153.69 3.66587 -0.683267 0
M  V30 12223 N 1155.87 0.935264 1.26849 0
M  V30 12224 C 1157.1 0.595704 1.98661 0
M  V30 12225 C 1157.52 -0.821001 1.69237 0
M  V30 12226 O 1156.88 -1.55211 0.936982 0
M  V30 12227 C 1156.93 0.837275 3.50745 0
M  V30 12228 O 1156.03 -0.0934914 4.12294 0
M  V30 12229 H 1155.38 0.228512 0.623441 0
M  V30 12230 H 1157.91 1.25658 1.61466 0
M  V30 12231 H 1157.92 0.755827 4.00938 0
M  V30 12232 H 1156.59 1.86993 3.71492 0
M  V30 12233 H 1155.17 0.0385124 3.7288 0
M  V30 12234 N 1157.35 -1.41121 0.701616 0
M  V30 12235 C 1158.63 -1.9492 0.162911 0
M  V30 12236 C 1159.01 -1.64064 -1.32839 0
M  V30 12237 O 1158.36 -0.950848 -2.07777 0
M  V30 12238 C 1158.57 -3.45946 0.460673 0
M  V30 12239 C 1159.92 -4.22789 0.391706 0
M  V30 12240 O 1160.94 -3.53993 0.395931 0
M  V30 12241 O 1159.8 -5.45332 0.357071 0
M  V30 12242 H 1156.89 -0.826793 0.0185103 0
M  V30 12243 H 1159.44 -1.50805 0.778192 0
M  V30 12244 H 1158.21 -3.61711 1.49269 0
M  V30 12245 H 1157.83 -3.97168 -0.185277 0
M  V30 12246 N 1158.83 -0.446794 -1.51134 0
M  V30 12247 C 1160.06 0.114727 -2.06281 0
M  V30 12248 C 1160.47 1.36192 -1.31333 0
M  V30 12249 O 1159.81 1.79956 -0.368982 0
M  V30 12250 C 1159.87 0.492968 -3.56104 0
M  V30 12251 C 1159.54 -0.648755 -4.52372 0
M  V30 12252 C 1160.53 -1.52369 -4.97071 0
M  V30 12253 C 1158.22 -0.832177 -4.95359 0
M  V30 12254 C 1160.21 -2.56667 -5.83439 0
M  V30 12255 C 1157.9 -1.87841 -5.81514 0
M  V30 12256 C 1158.9 -2.74404 -6.25453 0
M  V30 12257 O 1158.59 -3.7723 -7.09896 0
M  V30 12258 H 1158.32 0.007138 -0.675962 0
M  V30 12259 H 1160.87 -0.627452 -1.95582 0
M  V30 12260 H 1159.1 1.28799 -3.6462 0
M  V30 12261 H 1160.79 0.986739 -3.93724 0
M  V30 12262 H 1161.56 -1.39356 -4.64548 0
M  V30 12263 H 1157.44 -0.167954 -4.60694 0
M  V30 12264 H 1160.98 -3.24264 -6.17656 0
M  V30 12265 H 1156.88 -2.00871 -6.1345 0
M  V30 12266 H 1157.65 -3.73924 -7.28095 0
M  V30 12267 N 1160.31 1.56586 -0.178487 0
M  V30 12268 C 1161.22 2.21903 0.761321 0
M  V30 12269 C 1162.23 1.21289 1.2476 0
M  V30 12270 O 1163.41 1.53974 1.29823 0
M  V30 12271 C 1160.48 2.85259 1.97048 0
M  V30 12272 C 1159.54 4.01095 1.53039 0
M  V30 12273 C 1158.77 4.61421 2.68191 0
M  V30 12274 O 1158.99 4.20644 3.85247 0
M  V30 12275 O 1157.93 5.51171 2.41855 0
M  V30 12276 H 1161.75 3.02788 0.235141 0
M  V30 12277 H 1159.34 1.49316 0.0500442 0
M  V30 12278 H 1161.22 3.25404 2.6775 0
M  V30 12279 H 1159.89 2.07366 2.48558 0
M  V30 12280 H 1158.8 3.65606 0.792661 0
M  V30 12281 H 1160.13 4.80603 1.06213 0
M  V30 12282 N 1161.79 -0.095206 1.57312 0
M  V30 12283 C 1162.72 -1.11627 2.05089 0
M  V30 12284 C 1163.7 -1.41782 0.939787 0
M  V30 12285 O 1164.88 -1.51813 1.21105 0
M  V30 12286 C 1162.01 -2.43618 2.47523 0
M  V30 12287 C 1160.97 -2.27872 3.62296 0
M  V30 12288 C 1160.29 -3.65038 3.90706 0
M  V30 12289 C 1161.59 -1.71936 4.93189 0
M  V30 12290 H 1163.29 -0.718795 2.90644 0
M  V30 12291 H 1160.83 -0.344315 1.39823 0
M  V30 12292 H 1162.79 -3.1532 2.79556 0
M  V30 12293 H 1161.51 -2.85301 1.58968 0
M  V30 12294 H 1160.17 -1.58615 3.3051 0
M  V30 12295 H 1159.82 -4.04249 2.99319 0
M  V30 12296 H 1159.52 -3.55349 4.67976 0
M  V30 12297 H 1161.04 -4.38208 4.25213 0
M  V30 12298 H 1162.45 -2.33479 5.23603 0
M  V30 12299 H 1160.85 -1.73006 5.74621 0
M  V30 12300 H 1161.92 -0.678789 4.80125 0
M  V30 12301 N 1163.26 -1.53291 -0.366026 0
M  V30 12302 C 1164.19 -1.82675 -1.45437 0
M  V30 12303 C 1165.18 -0.680227 -1.55907 0
M  V30 12304 O 1166.36 -0.930032 -1.70482 0
M  V30 12305 C 1163.49 -2.01626 -2.8278 0
M  V30 12306 C 1162.44 -3.17391 -2.87135 0
M  V30 12307 C 1161.77 -3.21634 -4.27148 0
M  V30 12308 C 1163.07 -4.5599 -2.54697 0
M  V30 12309 H 1164.76 -2.73818 -1.21096 0
M  V30 12310 H 1162.31 -1.31754 -0.581108 0
M  V30 12311 H 1164.26 -2.20765 -3.58944 0
M  V30 12312 H 1162.99 -1.07193 -3.08508 0
M  V30 12313 H 1161.65 -2.98071 -2.13422 0
M  V30 12314 H 1161.29 -2.2484 -4.49951 0
M  V30 12315 H 1160.99 -3.99414 -4.30978 0
M  V30 12316 H 1162.52 -3.42957 -5.05186 0
M  V30 12317 H 1163.93 -4.75294 -3.20575 0
M  V30 12318 H 1162.33 -5.36008 -2.69844 0
M  V30 12319 H 1163.4 -4.61133 -1.49949 0
M  V30 12320 N 1164.74 0.6258 -1.44643 0
M  V30 12321 C 1165.97 1.41726 -1.51422 0
M  V30 12322 C 1166.39 1.87565 -0.14181 0
M  V30 12323 O 1165.75 1.59059 0.870054 0
M  V30 12324 C 1165.8 2.61012 -2.48807 0
M  V30 12325 O 1164.9 3.61029 -1.99328 0
M  V30 12326 H 1164.24 0.423855 -0.511119 0
M  V30 12327 H 1166.77 0.763336 -1.89827 0
M  V30 12328 H 1166.78 3.08489 -2.67018 0
M  V30 12329 H 1165.46 2.26995 -3.48491 0
M  V30 12330 H 1164.04 3.20325 -1.90909 0
M  V30 12331 N 1166.22 1.31629 0.866686 0
M  V30 12332 C 1167.5 1.12136 1.60265 0
M  V30 12333 C 1167.88 -0.322729 2.08618 0
M  V30 12334 O 1167.23 -1.31738 1.86701 0
M  V30 12335 C 1167.44 2.13845 2.7581 0
M  V30 12336 C 1168.78 2.46541 3.45692 0
M  V30 12337 O 1169.81 2.12298 2.86021 0
M  V30 12338 O 1168.67 3.05194 4.53342 0
M  V30 12339 H 1165.76 0.431923 0.705246 0
M  V30 12340 H 1168.31 1.43119 0.911863 0
M  V30 12341 H 1167.08 3.10967 2.37518 0
M  V30 12342 H 1166.7 1.83786 3.52574 0
M  V30 12343 N 1167.7 -1.08142 1.14644 0
M  V30 12344 C 1169.11 -1.62061 0.926986 0
M  V30 12345 C 1169.46 -1.88805 -0.533578 0
M  V30 12346 O 1168.59 -1.64753 -1.40305 0
M  V30 12347 C 1169.18 -2.94425 1.67629 0
M  V30 12348 C 1167.74 -3.45118 1.50235 0
M  V30 12349 C 1166.89 -2.19307 1.69705 0
M  V30 12350 H 1169.84 -0.913326 1.29785 0
M  V30 12351 H 1169.86 -3.62987 1.14107 0
M  V30 12352 H 1169.37 -2.74928 2.73927 0
M  V30 12353 H 1167.47 -3.69713 0.462967 0
M  V30 12354 H 1167.59 -4.2169 2.27408 0
M  V30 12355 H 1165.95 -2.28611 1.12291 0
M  V30 12356 H 1166.73 -2.02315 2.77351 0
M  V30 12357 N 1169.18 -0.941978 -1.26351 0
M  V30 12358 C 1170.41 -0.606748 -1.97803 0
M  V30 12359 C 1170.82 0.818441 -1.70138 0
M  V30 12360 O 1170.18 1.54583 -0.970076 0
M  V30 12361 C 1170.23 -0.840431 -3.51595 0
M  V30 12362 O 1169.95 -2.20957 -3.78299 0
M  V30 12363 C 1171.45 -0.515855 -4.40288 0
M  V30 12364 H 1168.67 -0.228591 -0.630862 0
M  V30 12365 H 1171.21 -1.2629 -1.60845 0
M  V30 12366 H 1169.37 -0.230875 -3.86711 0
M  V30 12367 H 1169.78 -2.2702 -4.72824 0
M  V30 12368 H 1171.26 -0.72998 -5.47152 0
M  V30 12369 H 1171.73 0.549178 -4.35753 0
M  V30 12370 H 1172.34 -1.10417 -4.10717 0
M  V30 12371 N 1170.66 1.40747 -0.709091 0
M  V30 12372 C 1172.07 1.83955 -0.318968 0
M  V30 12373 C 1172.42 1.59304 1.14527 0
M  V30 12374 O 1171.54 1.07052 1.88066 0
M  V30 12375 C 1172.14 3.33934 -0.572147 0
M  V30 12376 C 1170.7 3.75661 -0.235802 0
M  V30 12377 C 1169.84 2.64024 -0.847743 0
M  V30 12378 H 1172.79 1.30107 -0.908734 0
M  V30 12379 H 1172.82 3.80143 0.164752 0
M  V30 12380 H 1172.33 3.51844 -1.63791 0
M  V30 12381 H 1170.43 3.63348 0.825164 0
M  V30 12382 H 1170.54 4.73955 -0.700263 0
M  V30 12383 H 1168.91 2.53197 -0.276283 0
M  V30 12384 H 1169.69 2.84748 -1.91765 0
M  V30 12385 N 1172.13 0.454803 1.50895 0
M  V30 12386 C 1173.38 -0.105562 2.01824 0
M  V30 12387 C 1173.7 -1.41673 1.33992 0
M  V30 12388 O 1172.97 -1.89929 0.479994 0
M  V30 12389 H 1171.55 -0.0420011 0.745818 0
M  V30 12390 H 1174.21 0.601504 1.85386 0
M  V30 12391 H 1173.31 -0.268872 3.1094 0
M  V30 12392 N 1173.61 -1.56489 0.186789 0
M  V30 12393 C 1174.57 -2.17478 -0.723596 0
M  V30 12394 C 1175.57 -1.12698 -1.14699 0
M  V30 12395 O 1176.76 -1.38128 -1.06143 0
M  V30 12396 C 1173.9 -2.77015 -1.98685 0
M  V30 12397 H 1175.09 -2.99282 -0.192403 0
M  V30 12398 H 1172.64 -1.56174 -0.0628153 0
M  V30 12399 H 1173.38 -1.98987 -2.56076 0
M  V30 12400 H 1173.16 -3.53711 -1.69207 0
M  V30 12401 H 1174.65 -3.23872 -2.63622 0
M  V30 12402 N 1175.09 0.086862 -1.5736 0
M  V30 12403 C 1176.02 1.10538 -2.05678 0
M  V30 12404 C 1177 1.41281 -0.947293 0
M  V30 12405 O 1178.19 1.51169 -1.21908 0
M  V30 12406 C 1175.32 2.42302 -2.48812 0
M  V30 12407 C 1174.27 2.25948 -3.63499 0
M  V30 12408 C 1173.6 3.62961 -3.92637 0
M  V30 12409 C 1174.9 1.69319 -4.94094 0
M  V30 12410 H 1176.59 0.703371 -2.91021 0
M  V30 12411 H 1174.14 0.336895 -1.40004 0
M  V30 12412 H 1176.09 3.13833 -2.81224 0
M  V30 12413 H 1174.81 2.84454 -1.60479 0
M  V30 12414 H 1173.47 1.5686 -3.31347 0
M  V30 12415 H 1173.12 4.02656 -3.01459 0
M  V30 12416 H 1172.82 3.52862 -4.69853 0
M  V30 12417 H 1174.34 4.35946 -4.27531 0
M  V30 12418 H 1175.76 2.30699 -5.24834 0
M  V30 12419 H 1174.15 1.69957 -5.7553 0
M  V30 12420 H 1175.22 0.653318 -4.80479 0
M  V30 12421 N 1176.57 1.53483 0.357892 0
M  V30 12422 C 1177.53 1.79782 1.42166 0
M  V30 12423 C 1178.53 0.668441 1.46248 0
M  V30 12424 O 1179.72 0.936677 1.46874 0
M  V30 12425 C 1176.85 1.92686 2.8122 0
M  V30 12426 H 1178.05 2.74794 1.20117 0
M  V30 12427 H 1175.6 1.44677 0.591468 0
M  V30 12428 H 1176.33 0.997669 3.08573 0
M  V30 12429 H 1176.12 2.74837 2.79655 0
M  V30 12430 H 1177.61 2.14599 3.58242 0
M  V30 12431 N 1178.05 -0.61812 1.44973 0
M  V30 12432 C 1179.46 -1.19994 1.43033 0
M  V30 12433 C 1179.81 -1.95607 0.152422 0
M  V30 12434 O 1178.93 -2.03114 -0.746571 0
M  V30 12435 C 1179.53 -2.18269 2.59122 0
M  V30 12436 C 1178.09 -2.7185 2.60336 0
M  V30 12437 C 1177.23 -1.4707 2.35086 0
M  V30 12438 H 1180.18 -0.408034 1.53365 0
M  V30 12439 H 1180.21 -3.01113 2.32619 0
M  V30 12440 H 1179.72 -1.63208 3.52115 0
M  V30 12441 H 1177.82 -3.30878 1.7132 0
M  V30 12442 H 1177.93 -3.17001 3.59231 0
M  V30 12443 H 1176.3 -1.75658 1.84435 0
M  V30 12444 H 1177.08 -0.938928 3.30211 0
M  V30 12445 N 1179.52 -1.32087 -0.859693 0
M  V30 12446 C 1180.94 -1.10968 -1.14709 0
M  V30 12447 C 1181.14 0.113139 -2.01182 0
M  V30 12448 O 1180.2 0.799499 -2.39508 0
M  V30 12449 C 1181.51 -2.38657 -1.8293 0
M  V30 12450 C 1183.06 -2.44366 -1.95587 0
M  V30 12451 C 1183.53 -3.71963 -2.67222 0
M  V30 12452 N 1185.02 -3.72916 -2.7475 0
M  V30 12453 C 1185.76 -4.68346 -3.30816 0
M  V30 12454 N 1185.25 -5.74139 -3.87732 0
M  V30 12455 N 1187.05 -4.55851 -3.28872 0
M  V30 12456 H 1179.2 -2.10497 -0.283711 0
M  V30 12457 H 1181.46 -0.929108 -0.188315 0
M  V30 12458 H 1181.17 -3.2803 -1.26844 0
M  V30 12459 H 1181.04 -2.49236 -2.83128 0
M  V30 12460 H 1183.43 -1.55456 -2.50833 0
M  V30 12461 H 1183.51 -2.37744 -0.944001 0
M  V30 12462 H 1183.15 -4.61245 -2.1264 0
M  V30 12463 H 1183.08 -3.75855 -3.68837 0
M  V30 12464 H 1185.57 -2.96447 -2.34367 0
M  V30 12465 H 1185.89 -6.43021 -4.28654 0
M  V30 12466 H 1184.23 -5.779 -3.86078 0
M  V30 12467 H 1187.42 -3.72371 -2.83651 0
M  V30 12468 H 1187.6 -5.30398 -3.72266 0
M  V30 12469 N 1181 1.07532 -1.15215 0
M  V30 12470 C 1182.28 1.76813 -0.83646 0
M  V30 12471 C 1182.66 2.00242 0.6683 0
M  V30 12472 O 1182.01 1.61941 1.61206 0
M  V30 12473 C 1182.22 3.0779 -1.64519 0
M  V30 12474 C 1183.56 3.82168 -1.85022 0
M  V30 12475 O 1184.59 3.17596 -1.61279 0
M  V30 12476 O 1183.45 4.98135 -2.24775 0
M  V30 12477 H 1180.54 0.767736 -0.307426 0
M  V30 12478 H 1183.09 1.13914 -1.25784 0
M  V30 12479 H 1181.86 2.86342 -2.6669 0
M  V30 12480 H 1181.48 3.78419 -1.22002 0
M  V30 12481 N 1182.48 0.948665 1.2585 0
M  V30 12482 C 1183.73 0.59905 1.93018 0
M  V30 12483 C 1184.05 -0.865813 1.74725 0
M  V30 12484 O 1183.32 -1.61602 1.10732 0
M  V30 12485 H 1181.9 0.218565 0.71431 0
M  V30 12486 H 1184.56 1.20561 1.53137 0
M  V30 12487 H 1183.66 0.823244 3.01047 0
M  V30 12488 N 1183.96 -1.40369 0.716545 0
M  V30 12489 C 1184.89 -2.33365 0.0793533 0
M  V30 12490 C 1185.87 -1.52943 -0.744482 0
M  V30 12491 O 1187.05 -1.81406 -0.693212 0
M  V30 12492 C 1184.18 -3.36928 -0.842429 0
M  V30 12493 C 1183.14 -4.2782 -0.124142 0
M  V30 12494 C 1182.46 -5.21928 -1.1617 0
M  V30 12495 C 1183.76 -5.12199 1.02224 0
M  V30 12496 H 1185.46 -2.86899 0.856115 0
M  V30 12497 H 1183 -1.37946 0.413138 0
M  V30 12498 H 1184.96 -4.00925 -1.29759 0
M  V30 12499 H 1183.68 -2.81791 -1.6511 0
M  V30 12500 H 1182.34 -3.65277 0.311201 0
M  V30 12501 H 1181.99 -4.63096 -1.96345 0
M  V30 12502 H 1181.69 -5.83582 -0.685978 0
M  V30 12503 H 1183.21 -5.88802 -1.61694 0
M  V30 12504 H 1184.63 -5.69644 0.646399 0
M  V30 12505 H 1183.02 -5.82901 1.4264 0
M  V30 12506 H 1184.09 -4.4812 1.85246 0
M  V30 12507 N 1185.44 -0.462799 -1.50652 0
M  V30 12508 C 1186.68 0.0873392 -2.03212 0
M  V30 12509 C 1187.04 1.38147 -1.33915 0
M  V30 12510 O 1186.33 1.86161 -0.453286 0
M  V30 12511 C 1186.52 0.335294 -3.55824 0
M  V30 12512 C 1186.35 -0.933253 -4.3991 0
M  V30 12513 C 1185.12 -1.47417 -4.83318 0
M  V30 12514 C 1187.32 -1.8264 -4.80777 0
M  V30 12515 N 1185.3 -2.6926 -5.51699 0
M  V30 12516 C 1186.67 -2.89075 -5.48485 0
M  V30 12517 C 1188.73 -1.83778 -4.62742 0
M  V30 12518 C 1187.43 -3.96625 -6.00067 0
M  V30 12519 C 1189.46 -2.90279 -5.15259 0
M  V30 12520 C 1188.82 -3.95433 -5.82934 0
M  V30 12521 H 1184.92 -0.00785676 -0.781961 0
M  V30 12522 H 1187.5 -0.629156 -1.84254 0
M  V30 12523 H 1185.67 1.02083 -3.74745 0
M  V30 12524 H 1187.41 0.879039 -3.95038 0
M  V30 12525 H 1184.16 -1.02451 -4.62386 0
M  V30 12526 H 1184.59 -3.31115 -5.90502 0
M  V30 12527 H 1189.23 -1.03802 -4.0986 0
M  V30 12528 H 1186.95 -4.77424 -6.51991 0
M  V30 12529 H 1190.53 -2.92133 -5.0314 0
M  V30 12530 H 1189.41 -4.76487 -6.2284 0
M  V30 12531 N 1186.91 1.56388 -0.195085 0
M  V30 12532 C 1187.86 2.20431 0.742484 0
M  V30 12533 C 1188.86 1.17548 1.21979 0
M  V30 12534 O 1190.06 1.35693 1.18269 0
M  V30 12535 H 1186.44 0.706435 0.257786 0
M  V30 12536 H 1188.41 2.97865 0.178624 0
M  V30 12537 C 1187.16 2.87772 1.95147 0
M  V30 12538 H 1186.48 3.66681 1.59326 0
M  V30 12539 H 1187.92 3.36021 2.58585 0
M  V30 12540 C 1186.38 1.88807 2.79022 0
M  V30 12541 O 1186.91 1.38836 3.76945 0
M  V30 12542 N 1185.12 1.57037 2.44515 0
M  V30 12543 H 1184.66 1.97868 1.64943 0
M  V30 12544 H 1184.62 0.910776 3.00919 0
M  V30 12545 N 1188.39 -0.0785156 1.57404 0
M  V30 12546 C 1189.64 -0.777399 1.8655 0
M  V30 12547 C 1189.96 -1.78451 0.786142 0
M  V30 12548 O 1189.23 -1.95016 -0.185911 0
M  V30 12549 H 1187.81 -0.290097 0.688369 0
M  V30 12550 H 1190.47 -0.0562017 1.94819 0
M  V30 12551 H 1189.57 -1.29776 2.83839 0
M  V30 12552 N 1189.87 -1.5367 -0.349747 0
M  V30 12553 C 1190.83 -1.80533 -1.41211 0
M  V30 12554 C 1191.83 -0.676188 -1.45892 0
M  V30 12555 O 1193.02 -0.944453 -1.46375 0
M  V30 12556 C 1190.16 -1.94175 -2.80195 0
M  V30 12557 H 1191.35 -2.75428 -1.18658 0
M  V30 12558 H 1188.9 -1.44988 -0.583787 0
M  V30 12559 H 1189.64 -1.01402 -3.08039 0
M  V30 12560 H 1189.42 -2.76316 -2.78194 0
M  V30 12561 H 1190.91 -2.16496 -3.57098 0
M  V30 12562 N 1191.35 0.610423 -1.45298 0
M  V30 12563 C 1192.28 1.73507 -1.4976 0
M  V30 12564 C 1193.29 1.58092 -0.38867 0
M  V30 12565 O 1194.48 1.66026 -0.655571 0
M  V30 12566 C 1191.58 3.11475 -1.33554 0
M  V30 12567 C 1190.76 3.53156 -2.5807 0
M  V30 12568 C 1189.81 4.70076 -2.36463 0
M  V30 12569 O 1188.84 4.77337 -3.10061 0
M  V30 12570 N 1190.04 5.63155 -1.40843 0
M  V30 12571 H 1192.81 1.70144 -2.46721 0
M  V30 12572 H 1190.37 0.79562 -1.41002 0
M  V30 12573 H 1192.36 3.87444 -1.16914 0
M  V30 12574 H 1190.93 3.09361 -0.448803 0
M  V30 12575 H 1190.15 2.67178 -2.89844 0
M  V30 12576 H 1191.44 3.77761 -3.40843 0
M  V30 12577 H 1190.84 5.60001 -0.800982 0
M  V30 12578 H 1189.39 6.38669 -1.30175 0
M  V30 12579 N 1192.83 1.32541 0.852676 0
M  V30 12580 C 1193.76 1.24254 1.97694 0
M  V30 12581 C 1194.74 0.125971 1.69633 0
M  V30 12582 O 1195.92 0.31347 1.91653 0
M  V30 12583 C 1193.05 0.966874 3.3357 0
M  V30 12584 C 1192.01 2.0449 3.75989 0
M  V30 12585 C 1191.33 1.6216 5.09518 0
M  V30 12586 C 1192.63 3.46013 3.91244 0
M  V30 12587 H 1194.33 2.18317 2.04886 0
M  V30 12588 H 1191.87 1.05101 0.984371 0
M  V30 12589 H 1193.83 0.895444 4.11776 0
M  V30 12590 H 1192.55 -0.0093893 3.26599 0
M  V30 12591 H 1191.21 2.10651 3.00036 0
M  V30 12592 H 1190.86 0.632729 4.99005 0
M  V30 12593 H 1190.56 2.3429 5.38871 0
M  V30 12594 H 1192.08 1.56457 5.90215 0
M  V30 12595 H 1193.49 3.4243 4.59799 0
M  V30 12596 H 1191.89 4.1651 4.32017 0
M  V30 12597 H 1192.96 3.8553 2.941 0
M  V30 12598 N 1194.3 -1.0692 1.15784 0
M  V30 12599 C 1195.53 -1.83045 0.958031 0
M  V30 12600 C 1195.94 -1.82555 -0.497027 0
M  V30 12601 O 1195.29 -1.23864 -1.35659 0
M  V30 12602 C 1195.35 -3.31096 1.40056 0
M  V30 12603 C 1195.01 -3.55299 2.87423 0
M  V30 12604 C 1196.01 -3.48875 3.85463 0
M  V30 12605 C 1193.69 -3.82824 3.25194 0
M  V30 12606 C 1195.69 -3.69633 5.19279 0
M  V30 12607 C 1193.37 -4.03232 4.59181 0
M  V30 12608 C 1194.37 -3.96633 5.56032 0
M  V30 12609 O 1194.06 -4.16492 6.87597 0
M  V30 12610 H 1193.79 -0.584218 0.340095 0
M  V30 12611 H 1196.35 -1.35841 1.54066 0
M  V30 12612 H 1194.58 -3.79131 0.761361 0
M  V30 12613 H 1196.27 -3.88697 1.16916 0
M  V30 12614 H 1197.03 -3.27608 3.57629 0
M  V30 12615 H 1192.91 -3.87073 2.50391 0
M  V30 12616 H 1196.45 -3.64398 5.94861 0
M  V30 12617 H 1192.35 -4.23988 4.86729 0
M  V30 12618 H 1193.12 -4.33815 6.9408 0
M  V30 12619 N 1195.78 -0.955326 -1.25345 0
M  V30 12620 C 1196.75 -0.480564 -2.24105 0
M  V30 12621 C 1197.75 0.416123 -1.55322 0
M  V30 12622 O 1198.94 0.213315 -1.72889 0
M  V30 12623 C 1196.07 0.305589 -3.39528 0
M  V30 12624 H 1197.26 -1.35349 -2.6762 0
M  V30 12625 H 1194.81 -0.738673 -1.37744 0
M  V30 12626 H 1195.55 1.19615 -3.01434 0
M  V30 12627 H 1195.33 -0.337719 -3.90643 0
M  V30 12628 H 1196.82 0.627201 -4.12863 0
M  V30 12629 N 1197.26 1.39987 -0.723979 0
M  V30 12630 C 1198.5 2.02587 -0.271647 0
M  V30 12631 C 1198.87 1.56186 1.11669 0
M  V30 12632 O 1200.07 2.10907 1.66648 0
M  V30 12633 C 1198.34 3.55604 -0.357851 0
M  V30 12634 S 1199.9 4.38797 0.0162614 0
M  V30 12635 H 1196.71 0.702878 -0.10716 0
M  V30 12636 H 1199.32 1.70974 -0.948057 0
M  V30 12637 H 1198.02 3.86866 -1.36977 0
M  V30 12638 H 1197.55 3.91956 0.336754 0
M  V30 12639 H 1199.57 4.80564 1.23582 0
M  V30 12640 N 1198.74 0.470782 1.50404 0
M  V30 12641 C 1199.67 -0.359838 2.26358 0
M  V30 12642 C 1200.68 -0.95735 1.31676 0
M  V30 12643 O 1201.87 -0.84581 1.57189 0
M  V30 12644 C 1198.97 -1.51864 3.02969 0
M  V30 12645 C 1198.15 -1.03397 4.25003 0
M  V30 12646 C 1197.21 -2.06679 4.83911 0
M  V30 12647 O 1196.23 -1.64754 5.44835 0
M  V30 12648 N 1197.43 -3.39484 4.70883 0
M  V30 12649 H 1200.2 0.291299 2.98281 0
M  V30 12650 H 1197.76 0.301549 1.59067 0
M  V30 12651 H 1199.75 -2.2065 3.39258 0
M  V30 12652 H 1198.32 -2.07448 2.33846 0
M  V30 12653 H 1197.54 -0.172012 3.93825 0
M  V30 12654 H 1198.83 -0.68807 5.04126 0
M  V30 12655 H 1198.23 -3.76256 4.22431 0
M  V30 12656 H 1196.78 -4.04068 5.11441 0
M  V30 12657 N 1200.22 -1.56282 0.203376 0
M  V30 12658 C 1201.49 -1.89587 -0.481256 0
M  V30 12659 C 1201.87 -1.11812 -1.79057 0
M  V30 12660 O 1201.22 -0.221759 -2.27421 0
M  V30 12661 C 1201.43 -3.42071 -0.691965 0
M  V30 12662 C 1202.78 -4.12471 -1.00761 0
M  V30 12663 O 1203.8 -3.47568 -0.779396 0
M  V30 12664 O 1202.66 -5.27194 -1.43974 0
M  V30 12665 H 1199.76 -0.787682 -0.251963 0
M  V30 12666 H 1202.3 -1.67934 0.244207 0
M  V30 12667 H 1201.08 -3.9061 0.232322 0
M  V30 12668 H 1200.7 -3.69444 -1.46958 0
M  V30 12669 N 1201.7 0.070167 -1.57444 0
M  V30 12670 C 1203.11 0.621805 -1.76041 0
M  V30 12671 C 1203.46 1.77824 -0.829047 0
M  V30 12672 O 1202.58 2.16396 -0.0135453 0
M  V30 12673 C 1203.18 1.13476 -3.19231 0
M  V30 12674 C 1201.74 1.63225 -3.39167 0
M  V30 12675 C 1200.88 0.552369 -2.71743 0
M  V30 12676 H 1203.83 -0.156009 -1.57931 0
M  V30 12677 H 1203.86 2.00352 -3.2348 0
M  V30 12678 H 1203.37 0.29288 -3.86993 0
M  V30 12679 H 1201.47 2.49733 -2.76522 0
M  V30 12680 H 1201.58 1.70807 -4.47618 0
M  V30 12681 H 1199.95 0.997797 -2.34342 0
M  V30 12682 H 1200.73 -0.279354 -3.42162 0
M  V30 12683 N 1203.17 1.53854 0.341593 0
M  V30 12684 C 1204.4 1.75134 1.10162 0
M  V30 12685 C 1204.82 0.491415 1.82292 0
M  V30 12686 O 1204.17 -0.53703 1.7442 0
M  V30 12687 C 1204.22 2.93273 2.1136 0
M  V30 12688 O 1203.95 4.14393 1.42162 0
M  V30 12689 C 1205.45 3.26621 2.99723 0
M  V30 12690 H 1202.67 0.585126 0.328434 0
M  V30 12691 H 1205.21 2.00684 0.393204 0
M  V30 12692 H 1203.37 2.70048 2.77764 0
M  V30 12693 H 1203.78 4.8072 2.09783 0
M  V30 12694 H 1205.25 4.12629 3.66662 0
M  V30 12695 H 1205.73 2.43008 3.65847 0
M  V30 12696 H 1206.34 3.51858 2.38906 0
M  V30 12697 N 1204.65 -0.602709 1.4562 0
M  V30 12698 C 1205.9 -1.35769 1.49163 0
M  V30 12699 C 1206.21 -1.95102 0.139485 0
M  V30 12700 O 1207.42 -2.71449 0.0525919 0
M  V30 12701 C 1205.88 -2.45959 2.62739 0
M  V30 12702 C 1205.48 -1.93017 4.04288 0
M  V30 12703 C 1207.23 -3.22926 2.75534 0
M  V30 12704 C 1205.13 -3.00718 5.09237 0
M  V30 12705 H 1204.06 -0.510317 0.555061 0
M  V30 12706 H 1206.72 -0.645434 1.71774 0
M  V30 12707 H 1205.1 -3.19892 2.3342 0
M  V30 12708 H 1206.27 -1.2576 4.43307 0
M  V30 12709 H 1204.59 -1.2878 3.95986 0
M  V30 12710 H 1207.18 -4.03267 3.51112 0
M  V30 12711 H 1207.53 -3.74243 1.82339 0
M  V30 12712 H 1208.06 -2.56095 3.04402 0
M  V30 12713 H 1204.8 -2.54312 6.04157 0
M  V30 12714 H 1204.32 -3.66526 4.74783 0
M  V30 12715 H 1206 -3.65016 5.34202 0
M  V30 12716 N 1206.13 -1.32992 -0.845635 0
M  V30 12717 C 1207.38 -1.24065 -1.60044 0
M  V30 12718 C 1207.7 0.195282 -1.93517 0
M  V30 12719 O 1206.96 1.1507 -1.58296 0
M  V30 12720 C 1207.26 -2.05454 -2.92444 0
M  V30 12721 C 1206.92 -3.54718 -2.78362 0
M  V30 12722 C 1205.59 -3.95413 -2.74229 0
M  V30 12723 C 1207.94 -4.49598 -2.63649 0
M  V30 12724 C 1205.27 -5.29216 -2.53274 0
M  V30 12725 C 1207.62 -5.83554 -2.44228 0
M  V30 12726 C 1206.28 -6.2344 -2.38493 0
M  V30 12727 H 1205.55 -0.453985 -0.585644 0
M  V30 12728 H 1208.2 -1.6451 -0.980244 0
M  V30 12729 H 1206.5 -1.57765 -3.58633 0
M  V30 12730 H 1208.2 -1.95909 -3.49887 0
M  V30 12731 H 1204.79 -3.22403 -2.82409 0
M  V30 12732 H 1208.98 -4.19072 -2.65881 0
M  V30 12733 H 1204.23 -5.59164 -2.47275 0
M  V30 12734 H 1208.41 -6.56681 -2.31825 0
M  V30 12735 H 1206.03 -7.27058 -2.22015 0
M  V30 12736 N 1207.61 1.06304 -1.1635 0
M  V30 12737 C 1208.52 2.17296 -0.884289 0
M  V30 12738 C 1209.53 1.73408 0.143414 0
M  V30 12739 O 1210.71 2.01373 -0.0331987 0
M  V30 12740 C 1207.77 3.44509 -0.389163 0
M  V30 12741 C 1206.84 4.02906 -1.48208 0
M  V30 12742 C 1206.07 5.24047 -1.01048 0
M  V30 12743 O 1206.29 5.70229 0.139821 0
M  V30 12744 O 1205.23 5.74394 -1.79876 0
M  V30 12745 H 1209.05 2.4369 -1.81243 0
M  V30 12746 H 1206.64 1.15841 -0.943459 0
M  V30 12747 H 1208.52 4.21229 -0.120018 0
M  V30 12748 H 1207.19 3.19642 0.510968 0
M  V30 12749 H 1206.1 3.27677 -1.80496 0
M  V30 12750 H 1207.43 4.32068 -2.35751 0
M  V30 12751 N 1209.09 0.96196 1.24836 0
M  V30 12752 C 1210 0.494876 2.29321 0
M  V30 12753 C 1211.01 -0.441363 1.68309 0
M  V30 12754 O 1212.19 -0.315814 1.98908 0
M  V30 12755 C 1209.25 -0.212944 3.46045 0
M  V30 12756 C 1208.31 0.762411 4.22476 0
M  V30 12757 C 1207.55 0.0882756 5.33627 0
M  V30 12758 O 1207.77 -1.12459 5.59204 0
M  V30 12759 O 1206.7 0.777529 5.96857 0
M  V30 12760 H 1210.53 1.36333 2.7138 0
M  V30 12761 H 1208.11 0.728738 1.30421 0
M  V30 12762 H 1210 -0.610805 4.1695 0
M  V30 12763 H 1208.67 -1.05645 3.05975 0
M  V30 12764 H 1207.58 1.21062 3.5397 0
M  V30 12765 H 1208.91 1.57416 4.66349 0
M  V30 12766 N 1210.56 -1.39601 0.731392 0
M  V30 12767 C 1211.98 -1.54334 0.406594 0
M  V30 12768 C 1212.18 -1.69925 -1.08295 0
M  V30 12769 O 1211.24 -1.69771 -1.86906 0
M  V30 12770 C 1212.55 -2.76303 1.18647 0
M  V30 12771 C 1214.1 -2.90135 1.17433 0
M  V30 12772 C 1214.57 -4.15038 1.93669 0
M  V30 12773 N 1216.06 -4.2207 1.90817 0
M  V30 12774 C 1216.8 -5.17656 2.46616 0
M  V30 12775 N 1216.29 -6.19054 3.11037 0
M  V30 12776 N 1218.09 -5.09847 2.3667 0
M  V30 12777 H 1210.24 -1.27728 1.69703 0
M  V30 12778 H 1212.5 -0.6188 0.718186 0
M  V30 12779 H 1212.21 -2.71113 2.24032 0
M  V30 12780 H 1212.08 -3.68866 0.788514 0
M  V30 12781 H 1214.47 -2.9482 0.128615 0
M  V30 12782 H 1214.55 -1.98646 1.61163 0
M  V30 12783 H 1214.19 -4.11115 2.9824 0
M  V30 12784 H 1214.12 -5.05565 1.47349 0
M  V30 12785 H 1216.61 -3.49437 1.43882 0
M  V30 12786 H 1216.93 -6.88444 3.51091 0
M  V30 12787 H 1215.27 -6.19452 3.15126 0
M  V30 12788 H 1218.46 -4.29566 1.85987 0
M  V30 12789 H 1218.64 -5.84165 2.80455 0
M  V30 12790 N 1212.04 -0.478751 -1.50152 0
M  V30 12791 C 1212.99 0.330224 -2.25596 0
M  V30 12792 C 1213.98 0.954871 -1.29503 0
M  V30 12793 O 1215.17 0.866153 -1.54359 0
M  V30 12794 C 1212.3 1.40719 -3.13134 0
M  V30 12795 C 1211.38 0.789896 -4.16679 0
M  V30 12796 N 1211.77 -0.094345 -5.05712 0
M  V30 12797 C 1210.07 1.05299 -4.33391 0
M  V30 12798 C 1210.77 -0.445458 -5.79992 0
M  V30 12799 N 1209.75 0.181237 -5.43298 0
M  V30 12800 H 1213.55 -0.350824 -2.91799 0
M  V30 12801 H 1211.07 -0.293386 -1.59728 0
M  V30 12802 H 1213.06 1.99999 -3.65795 0
M  V30 12803 H 1211.72 2.09015 -2.48481 0
M  V30 12804 H 1212.73 -0.463695 -5.1582 0
M  V30 12805 H 1209.41 1.73036 -3.79954 0
M  V30 12806 H 1210.8 -1.16754 -6.61678 0
M  V30 12807 N 1213.52 1.56172 -0.211661 0
M  V30 12808 C 1214.45 2.22843 0.697375 0
M  V30 12809 C 1215.43 1.19689 1.20866 0
M  V30 12810 O 1216.62 1.48245 1.25447 0
M  V30 12811 C 1213.75 2.90067 1.90993 0
M  V30 12812 C 1212.7 3.99608 1.5329 0
M  V30 12813 C 1212.03 4.54078 2.82343 0
M  V30 12814 C 1213.33 5.17169 0.730333 0
M  V30 12815 H 1215.02 2.99065 0.141533 0
M  V30 12816 H 1212.57 1.43846 0.0666337 0
M  V30 12817 H 1214.52 3.35396 2.55123 0
M  V30 12818 H 1213.24 2.11276 2.49058 0
M  V30 12819 H 1211.9 3.54995 0.915115 0
M  V30 12820 H 1211.55 3.72029 3.38531 0
M  V30 12821 H 1211.25 5.28001 2.57853 0
M  V30 12822 H 1212.77 5.02119 3.47432 0
M  V30 12823 H 1214.19 5.5894 1.2751 0
M  V30 12824 H 1212.59 5.97262 0.582916 0
M  V30 12825 H 1213.66 4.84174 -0.265157 0
M  V30 12826 N 1215 -0.0618163 1.57479 0
M  V30 12827 C 1215.95 -1.0724 2.04373 0
M  V30 12828 C 1216.92 -1.37875 0.926271 0
M  V30 12829 O 1218.1 -1.48772 1.19463 0
M  V30 12830 C 1215.24 -2.37805 2.50085 0
M  V30 12831 C 1214.35 -2.13614 3.7549 0
M  V30 12832 C 1213.49 -3.37814 4.09945 0
M  V30 12833 C 1212.53 -3.09032 5.28361 0
M  V30 12834 N 1211.66 -4.25591 5.58406 0
M  V30 12835 H 1216.5 -0.665536 2.90473 0
M  V30 12836 H 1214.04 -0.317043 1.43643 0
M  V30 12837 H 1216 -3.14048 2.74644 0
M  V30 12838 H 1214.63 -2.76275 1.66948 0
M  V30 12839 H 1213.68 -1.28017 3.58212 0
M  V30 12840 H 1214.99 -1.88361 4.61867 0
M  V30 12841 H 1214.15 -4.22447 4.35458 0
M  V30 12842 H 1212.89 -3.66153 3.22154 0
M  V30 12843 H 1211.89 -2.22797 5.02635 0
M  V30 12844 H 1213.12 -2.82006 6.17778 0
M  V30 12845 H 1211.06 -4.53941 4.73575 0
M  V30 12846 H 1210.98 -4.03646 6.39223 0
M  V30 12847 H 1212.25 -5.11191 5.88476 0
M  V30 12848 N 1216.48 -1.54033 -0.333429 0
M  V30 12849 C 1217.71 -1.75461 -1.09073 0
M  V30 12850 C 1218.11 -0.498488 -1.82515 0
M  V30 12851 O 1217.46 0.540029 -1.75583 0
M  V30 12852 C 1217.52 -2.88744 -2.14166 0
M  V30 12853 C 1217.18 -4.27998 -1.60209 0
M  V30 12854 C 1218.18 -5.09206 -1.04907 0
M  V30 12855 C 1215.87 -4.74513 -1.6475 0
M  V30 12856 C 1217.86 -6.35035 -0.548615 0
M  V30 12857 C 1215.55 -6.00312 -1.14318 0
M  V30 12858 C 1216.54 -6.80406 -0.594667 0
M  V30 12859 O 1216.23 -8.0384 -0.097891 0
M  V30 12860 H 1215.96 -0.589586 -0.330702 0
M  V30 12861 H 1218.52 -2.01697 -0.388274 0
M  V30 12862 H 1216.75 -2.58057 -2.87999 0
M  V30 12863 H 1218.44 -2.98048 -2.7554 0
M  V30 12864 H 1219.2 -4.74428 -1.00713 0
M  V30 12865 H 1215.08 -4.12222 -2.06384 0
M  V30 12866 H 1218.63 -6.97497 -0.119823 0
M  V30 12867 H 1214.52 -6.34583 -1.18215 0
M  V30 12868 H 1215.29 -8.1822 -0.214237 0
M  V30 12869 N 1217.95 0.594978 -1.45938 0
M  V30 12870 C 1219.2 1.34976 -1.49881 0
M  V30 12871 C 1219.52 1.95025 -0.14983 0
M  V30 12872 O 1220.72 2.71417 -0.0669868 0
M  V30 12873 C 1219.18 2.44563 -2.6404 0
M  V30 12874 C 1218.79 1.9087 -4.05306 0
M  V30 12875 C 1220.53 3.21461 -2.77242 0
M  V30 12876 C 1218.44 2.98013 -5.10825 0
M  V30 12877 H 1217.37 0.507366 -0.55776 0
M  V30 12878 H 1220.02 0.636316 -1.72114 0
M  V30 12879 H 1218.4 3.1865 -2.35114 0
M  V30 12880 H 1219.57 1.23408 -4.43968 0
M  V30 12881 H 1217.89 1.26678 -3.96663 0
M  V30 12882 H 1220.49 4.01399 -3.53246 0
M  V30 12883 H 1220.83 3.73271 -1.84321 0
M  V30 12884 H 1221.36 2.54477 -3.05756 0
M  V30 12885 H 1218.1 2.51104 -6.05497 0
M  V30 12886 H 1217.62 3.64003 -4.7672 0
M  V30 12887 H 1219.3 3.62178 -5.36131 0
M  V30 12888 N 1219.43 1.33438 0.838571 0
M  V30 12889 C 1220.66 1.28097 1.63113 0
M  V30 12890 C 1221.08 -0.145197 1.87539 0
M  V30 12891 O 1220.44 -1.10191 1.43971 0
M  V30 12892 C 1220.49 2.06201 2.95827 0
M  V30 12893 O 1219.59 1.42082 3.87152 0
M  V30 12894 H 1218.93 0.440685 0.496681 0
M  V30 12895 H 1221.46 1.76004 1.04325 0
M  V30 12896 H 1221.47 2.16977 3.45521 0
M  V30 12897 H 1220.15 3.099 2.77371 0
M  V30 12898 H 1218.73 1.39953 3.45641 0
M  V30 12899 N 1220.91 -1.05686 1.16912 0
M  V30 12900 C 1221.84 -2.1329 0.839044 0
M  V30 12901 C 1222.86 -1.62047 -0.156392 0
M  V30 12902 O 1224.04 -1.78366 0.0692192 0
M  V30 12903 C 1221.14 -3.38122 0.229558 0
M  V30 12904 C 1220.32 -4.18659 1.26662 0
M  V30 12905 C 1219.38 -5.21842 0.675811 0
M  V30 12906 O 1218.4 -5.53049 1.3463 0
M  V30 12907 N 1219.6 -5.78034 -0.534532 0
M  V30 12908 H 1222.37 -2.42203 1.76515 0
M  V30 12909 H 1219.93 -1.2174 1.06729 0
M  V30 12910 H 1221.92 -4.04305 -0.178868 0
M  V30 12911 H 1220.49 -3.06783 -0.60023 0
M  V30 12912 H 1219.71 -3.4804 1.85099 0
M  V30 12913 H 1221 -4.6927 1.9663 0
M  V30 12914 H 1220.4 -5.54955 -1.09731 0
M  V30 12915 H 1218.96 -6.45763 -0.885087 0
M  V30 12916 N 1222.39 -0.968567 -1.24324 0
M  V30 12917 C 1223.32 -0.518323 -2.27674 0
M  V30 12918 C 1224.3 0.442479 -1.64244 0
M  V30 12919 O 1225.48 0.338416 -1.91229 0
M  V30 12920 C 1222.61 0.191459 -3.46772 0
M  V30 12921 C 1221.57 -0.685449 -4.22476 0
M  V30 12922 C 1220.89 0.155873 -5.34473 0
M  V30 12923 C 1222.19 -1.97047 -4.83704 0
M  V30 12924 H 1223.89 -1.38215 -2.65588 0
M  V30 12925 H 1221.43 -0.66604 -1.27671 0
M  V30 12926 H 1223.39 0.517667 -4.18208 0
M  V30 12927 H 1222.11 1.08965 -3.07887 0
M  V30 12928 H 1220.77 -0.994942 -3.52841 0
M  V30 12929 H 1220.42 1.05424 -4.91828 0
M  V30 12930 H 1220.12 -0.427655 -5.86042 0
M  V30 12931 H 1221.64 0.476733 -6.08736 0
M  V30 12932 H 1223.06 -1.70979 -5.4721 0
M  V30 12933 H 1221.45 -2.50079 -5.45509 0
M  V30 12934 H 1222.52 -2.66484 -4.0511 0
M  V30 12935 N 1223.87 1.39211 -0.738786 0
M  V30 12936 C 1225.11 2.0004 -0.28782 0
M  V30 12937 C 1225.44 1.58921 1.13 0
M  V30 12938 O 1224.71 0.839193 1.77015 0
M  V30 12939 H 1223.29 0.739805 -0.103425 0
M  V30 12940 H 1225.95 1.70202 -0.949587 0
M  V30 12941 H 1225.04 3.10251 -0.339208 0
M  V30 12942 N 1225.34 0.486708 1.49896 0
M  V30 12943 C 1226.29 -0.299294 2.28851 0
M  V30 12944 C 1227.26 -0.973251 1.346 0
M  V30 12945 O 1228.45 -0.982678 1.63548 0
M  V30 12946 C 1225.59 -1.36624 3.16904 0
M  V30 12947 C 1224.7 -0.705492 4.262 0
M  V30 12948 C 1223.83 -1.75165 5.01488 0
M  V30 12949 C 1222.87 -1.072 6.0264 0
M  V30 12950 N 1222.01 -2.06172 6.71147 0
M  V30 12951 H 1226.85 0.380272 2.95564 0
M  V30 12952 H 1224.39 0.199377 1.45743 0
M  V30 12953 H 1226.35 -1.99666 3.66319 0
M  V30 12954 H 1224.98 -2.01476 2.52205 0
M  V30 12955 H 1224.03 0.0378757 3.80381 0
M  V30 12956 H 1225.34 -0.169774 4.98511 0
M  V30 12957 H 1224.49 -2.45749 5.547 0
M  V30 12958 H 1223.23 -2.3212 4.28919 0
M  V30 12959 H 1222.24 -0.351868 5.48673 0
M  V30 12960 H 1223.46 -0.509139 6.77189 0
M  V30 12961 H 1221.41 -2.62115 6.01358 0
M  V30 12962 H 1221.33 -1.57627 7.39385 0
M  V30 12963 H 1222.59 -2.76088 7.28969 0
M  V30 12964 N 1226.82 -1.56058 0.219941 0
M  V30 12965 C 1228.07 -1.97869 -0.411383 0
M  V30 12966 C 1228.39 -1.10878 -1.60409 0
M  V30 12967 O 1227.66 -0.185454 -1.9502 0
M  V30 12968 H 1226.24 -0.730747 -0.154979 0
M  V30 12969 H 1228.9 -1.92379 0.312461 0
M  V30 12970 H 1228 -3.0323 -0.738798 0
M  V30 12971 N 1228.3 0.053464 -1.57509 0
M  V30 12972 C 1229.25 1.08014 -2.05999 0
M  V30 12973 C 1230.24 1.38958 -0.968862 0
M  V30 12974 O 1231.45 1.3815 -1.15389 0
M  V30 12975 H 1227.82 0.36575 -0.657062 0
M  V30 12976 H 1229.8 0.645169 -2.91342 0
M  V30 12977 C 1228.54 2.38004 -2.53475 0
M  V30 12978 H 1227.87 2.15048 -3.37038 0
M  V30 12979 H 1229.31 3.08244 -2.91138 0
M  V30 12980 C 1227.77 3.05259 -1.42543 0
M  V30 12981 O 1228.3 3.94097 -0.777832 0
M  V30 12982 N 1226.5 2.66182 -1.16599 0
M  V30 12983 H 1226.05 1.94027 -1.69444 0
M  V30 12984 H 1226.01 3.11503 -0.42585 0
M  V30 12985 N 1229.78 1.54207 0.325255 0
M  V30 12986 C 1231.03 1.72331 1.0634 0
M  V30 12987 C 1231.35 0.496115 1.88066 0
M  V30 12988 O 1230.61 -0.52214 1.88606 0
M  V30 12989 C 1230.91 2.95 2.01766 0
M  V30 12990 C 1230.57 4.29835 1.36208 0
M  V30 12991 C 1229.24 4.66493 1.18059 0
M  V30 12992 C 1231.59 5.13521 0.891404 0
M  V30 12993 C 1228.92 5.84436 0.514894 0
M  V30 12994 C 1231.27 6.32146 0.239534 0
M  V30 12995 C 1229.93 6.67484 0.0458839 0
M  V30 12996 H 1229.2 0.630605 0.389125 0
M  V30 12997 H 1231.85 1.88445 0.34072 0
M  V30 12998 H 1230.15 2.73567 2.80479 0
M  V30 12999 H 1231.85 3.06217 2.58906 0
M  V30 13000 H 1228.44 4.00993 1.51335 0
M  V30 13001 H 1232.63 4.85718 1.01941 0
M  V30 13002 H 1227.88 6.10376 0.353644 0
M  V30 13003 H 1232.06 6.96273 -0.133185 0
M  V30 13004 H 1229.68 7.58733 -0.471978 0
M  V30 13005 N 1231.26 -0.58723 1.46251 0
M  V30 13006 C 1232.51 -1.34294 1.51028 0
M  V30 13007 C 1232.83 -1.94329 0.161623 0
M  V30 13008 O 1232.1 -1.78309 -0.811342 0
M  V30 13009 H 1230.68 -0.498607 0.556238 0
M  V30 13010 H 1233.34 -0.688074 1.8235 0
M  V30 13011 H 1232.43 -2.15197 2.26045 0
M  V30 13012 N 1232.74 -1.33881 -0.831482 0
M  V30 13013 C 1233.96 -1.28961 -1.62431 0
M  V30 13014 C 1234.39 0.135249 -1.87613 0
M  V30 13015 O 1233.74 1.09426 -1.44553 0
M  V30 13016 C 1233.79 -2.07767 -2.94729 0
M  V30 13017 O 1232.9 -1.44133 -3.86393 0
M  V30 13018 H 1232.24 -0.443313 -0.494337 0
M  V30 13019 H 1234.77 -1.76555 -1.0339 0
M  V30 13020 H 1234.78 -2.18806 -3.44366 0
M  V30 13021 H 1233.45 -3.11367 -2.75724 0
M  V30 13022 H 1232.03 -1.41784 -3.44894 0
M  V30 13023 N 1234.21 1.05064 -1.1747 0
M  V30 13024 C 1235.46 1.78352 -0.965311 0
M  V30 13025 C 1235.79 1.87527 0.504707 0
M  V30 13026 O 1235.07 1.376 1.37465 0
M  V30 13027 C 1235.35 3.22173 -1.60862 0
M  V30 13028 C 1235.2 3.21003 -3.15083 0
M  V30 13029 C 1236.52 4.2004 -1.31358 0
M  V30 13030 H 1233.64 0.647452 -0.352101 0
M  V30 13031 H 1236.28 1.22794 -1.44988 0
M  V30 13032 H 1234.43 3.69613 -1.19658 0
M  V30 13033 H 1236.11 2.81629 -3.65353 0
M  V30 13034 H 1234.35 2.59309 -3.47766 0
M  V30 13035 H 1235.02 4.22516 -3.55224 0
M  V30 13036 H 1237.5 3.81099 -1.6704 0
M  V30 13037 H 1236.37 5.1891 -1.78953 0
M  V30 13038 H 1236.63 4.41477 -0.234606 0
M  V30 13039 N 1235.69 0.975146 1.23809 0
M  V30 13040 C 1236.6 0.51917 2.28783 0
M  V30 13041 C 1237.62 -0.423487 1.68768 0
M  V30 13042 O 1238.79 -0.294699 1.99232 0
M  V30 13043 C 1235.86 -0.176229 3.46252 0
M  V30 13044 C 1234.92 0.807177 4.21643 0
M  V30 13045 C 1234.15 0.144869 5.33503 0
M  V30 13046 O 1234.38 -1.06522 5.60365 0
M  V30 13047 O 1233.31 0.84079 5.95999 0
M  V30 13048 H 1237.14 1.39204 2.69919 0
M  V30 13049 H 1234.72 0.74253 1.29641 0
M  V30 13050 H 1236.6 -0.566547 4.17574 0
M  V30 13051 H 1235.28 -1.02394 3.07078 0
M  V30 13052 H 1234.18 1.2481 3.52666 0
M  V30 13053 H 1235.52 1.62354 4.64653 0
M  V30 13054 N 1237.17 -1.38817 0.746158 0
M  V30 13055 C 1238.1 -2.33144 0.128836 0
M  V30 13056 C 1239.08 -1.54487 -0.711873 0
M  V30 13057 O 1240.27 -1.82836 -0.654577 0
M  V30 13058 C 1237.4 -3.38639 -0.770772 0
M  V30 13059 C 1236.35 -4.27987 -0.0333669 0
M  V30 13060 C 1235.68 -5.24274 -1.05073 0
M  V30 13061 C 1236.98 -5.09915 1.13066 0
M  V30 13062 H 1238.67 -2.85019 0.916778 0
M  V30 13063 H 1236.22 -1.37039 0.442306 0
M  V30 13064 H 1238.17 -4.03587 -1.21225 0
M  V30 13065 H 1236.89 -2.8523 -1.59095 0
M  V30 13066 H 1235.55 -3.64534 0.388612 0
M  V30 13067 H 1235.2 -4.67156 -1.86478 0
M  V30 13068 H 1234.9 -5.84906 -0.562037 0
M  V30 13069 H 1236.42 -5.92099 -1.49169 0
M  V30 13070 H 1237.84 -5.68145 0.767084 0
M  V30 13071 H 1236.23 -5.79744 1.54972 0
M  V30 13072 H 1237.3 -4.4409 1.94709 0
M  V30 13073 N 1238.65 -0.49465 -1.49636 0
M  V30 13074 C 1239.89 0.0505629 -2.04337 0
M  V30 13075 C 1240.25 1.34858 -1.36665 0
M  V30 13076 O 1241.45 1.97763 -1.82052 0
M  V30 13077 C 1239.72 0.206247 -3.56804 0
M  V30 13078 S 1241.28 0.706624 -4.33073 0
M  V30 13079 H 1238.1 0.00479193 -0.710984 0
M  V30 13080 H 1240.7 -0.667169 -1.83764 0
M  V30 13081 H 1239.41 -0.743862 -4.03602 0
M  V30 13082 H 1238.94 0.949406 -3.81772 0
M  V30 13083 H 1240.95 1.97672 -4.55127 0
M  V30 13084 N 1240.13 1.55939 -0.228214 0
M  V30 13085 C 1241.54 1.59094 0.12704 0
M  V30 13086 C 1241.74 1.24514 1.58425 0
M  V30 13087 O 1240.8 0.983544 2.32557 0
M  V30 13088 C 1242.11 2.99999 -0.205268 0
M  V30 13089 C 1243.66 3.1265 -0.148046 0
M  V30 13090 C 1244.13 4.55743 -0.454122 0
M  V30 13091 N 1245.62 4.61435 -0.403937 0
M  V30 13092 C 1246.36 5.70101 -0.614173 0
M  V30 13093 N 1245.86 6.87104 -0.88654 0
M  V30 13094 N 1247.65 5.5944 -0.546153 0
M  V30 13095 H 1239.8 1.7669 -1.17874 0
M  V30 13096 H 1242.06 0.821599 -0.472947 0
M  V30 13097 H 1241.77 3.29976 -1.21692 0
M  V30 13098 H 1241.64 3.74177 0.476573 0
M  V30 13099 H 1244.03 2.82465 0.854255 0
M  V30 13100 H 1244.11 2.40786 -0.863462 0
M  V30 13101 H 1243.75 4.86646 -1.45389 0
M  V30 13102 H 1243.68 5.25841 0.282561 0
M  V30 13103 H 1246.18 3.77363 -0.201388 0
M  V30 13104 H 1246.49 7.65839 -1.03488 0
M  V30 13105 H 1244.83 6.88833 -0.923808 0
M  V30 13106 H 1248.02 4.6691 -0.33355 0
M  V30 13107 H 1248.2 6.44061 -0.713402 0
M  V30 13108 N 1241.6 -0.0451101 1.57535 0
M  V30 13109 C 1242.83 -0.750231 1.92497 0
M  V30 13110 C 1243.24 -1.70268 0.824946 0
M  V30 13111 O 1242.59 -1.82511 -0.208656 0
M  V30 13112 C 1242.65 -1.57543 3.23141 0
M  V30 13113 C 1242.31 -0.789495 4.50129 0
M  V30 13114 C 1243.31 -0.0968367 5.1981 0
M  V30 13115 C 1240.99 -0.748776 4.96688 0
M  V30 13116 C 1242.99 0.626018 6.34318 0
M  V30 13117 C 1240.67 -0.0221652 6.11096 0
M  V30 13118 C 1241.67 0.664006 6.79765 0
M  V30 13119 O 1241.36 1.37885 7.91987 0
M  V30 13120 H 1241.09 -0.216895 0.64026 0
M  V30 13121 H 1243.65 -0.011558 2.05397 0
M  V30 13122 H 1241.88 -2.35754 3.06524 0
M  V30 13123 H 1243.57 -2.16168 3.4355 0
M  V30 13124 H 1244.33 -0.119429 4.84853 0
M  V30 13125 H 1240.21 -1.27235 4.43094 0
M  V30 13126 H 1243.75 1.16215 6.87852 0
M  V30 13127 H 1239.65 0.00240707 6.455 0
M  V30 13128 H 1240.42 1.29087 8.08257 0
M  V30 13129 N 1243.08 -1.54377 -0.317073 0
M  V30 13130 C 1244.36 -1.63551 -1.07287 0
M  V30 13131 C 1244.74 -0.473499 -2.05721 0
M  V30 13132 O 1244.09 0.531545 -2.22232 0
M  V30 13133 C 1244.3 -3.00842 -1.76904 0
M  V30 13134 C 1245.65 -3.57111 -2.29689 0
M  V30 13135 O 1246.67 -3.0319 -1.86961 0
M  V30 13136 O 1245.53 -4.51486 -3.07932 0
M  V30 13137 H 1242.62 -0.662557 -0.494922 0
M  V30 13138 H 1245.17 -1.66723 -0.316444 0
M  V30 13139 H 1243.94 -3.76854 -1.05341 0
M  V30 13140 H 1243.56 -3.01377 -2.59341 0
M  V30 13141 N 1244.56 0.579466 -1.4656 0
M  V30 13142 C 1245.97 1.1616 -1.46164 0
M  V30 13143 C 1246.32 1.95134 -0.20423 0
M  V30 13144 O 1245.45 2.05022 0.692457 0
M  V30 13145 C 1246.04 2.11322 -2.64818 0
M  V30 13146 C 1244.6 2.64852 -2.67452 0
M  V30 13147 C 1243.75 1.40786 -2.38903 0
M  V30 13148 H 1246.7 0.367229 -1.54393 0
M  V30 13149 H 1246.72 2.94839 -2.4052 0
M  V30 13150 H 1246.23 1.53815 -3.56318 0
M  V30 13151 H 1244.33 3.26219 -1.80032 0
M  V30 13152 H 1244.45 3.07366 -3.67509 0
M  V30 13153 H 1242.81 1.70707 -1.89027 0
M  V30 13154 H 1243.59 0.851049 -3.32584 0
M  V30 13155 N 1246.04 1.3432 0.824371 0
M  V30 13156 C 1246.97 1.2842 1.95014 0
M  V30 13157 C 1247.95 0.161925 1.69328 0
M  V30 13158 O 1249.13 0.354052 1.90945 0
M  V30 13159 C 1246.26 1.03741 3.31444 0
M  V30 13160 C 1245.22 2.12419 3.71567 0
M  V30 13161 C 1244.54 1.72931 5.05963 0
M  V30 13162 C 1245.84 3.54235 3.83817 0
M  V30 13163 H 1247.54 2.22614 2.00209 0
M  V30 13164 H 1245.08 1.07165 0.961856 0
M  V30 13165 H 1247.04 0.982586 4.09784 0
M  V30 13166 H 1245.76 0.0598892 3.26545 0
M  V30 13167 H 1244.42 2.16968 2.955 0
M  V30 13168 H 1244.07 0.738433 4.9755 0
M  V30 13169 H 1243.77 2.45668 5.3378 0
M  V30 13170 H 1245.29 1.68941 5.86763 0
M  V30 13171 H 1246.71 3.52106 4.52432 0
M  V30 13172 H 1245.1 4.25581 4.23085 0
M  V30 13173 H 1246.17 3.91682 2.85856 0
M  V30 13174 N 1247.52 -1.0444 1.18026 0
M  V30 13175 C 1248.76 -1.77224 0.971391 0
M  V30 13176 C 1249.09 -1.88466 -0.500564 0
M  V30 13177 O 1248.36 -1.40692 -1.36317 0
M  V30 13178 H 1246.94 -0.656485 0.356422 0
M  V30 13179 H 1249.6 -1.26064 1.4864 0
M  V30 13180 H 1248.69 -2.78626 1.4062 0
M  V30 13181 N 1248.99 -0.981699 -1.2329 0
M  V30 13182 C 1250.27 -0.567659 -1.87182 0
M  V30 13183 C 1250.65 0.955194 -1.88253 0
M  V30 13184 O 1250 1.83245 -1.36504 0
M  V30 13185 C 1250.21 -1.17522 -3.28618 0
M  V30 13186 C 1251.56 -1.26877 -4.052 0
M  V30 13187 O 1252.58 -1.12877 -3.37842 0
M  V30 13188 O 1251.44 -1.49163 -5.2575 0
M  V30 13189 H 1248.53 -0.191315 -0.804567 0
M  V30 13190 H 1251.08 -1.07686 -1.31155 0
M  V30 13191 H 1249.85 -2.21735 -3.22411 0
M  V30 13192 H 1249.48 -0.650913 -3.92236 0
M  V30 13193 N 1250.47 1.3842 -0.753509 0
M  V30 13194 C 1251.42 2.32315 -0.115107 0
M  V30 13195 C 1252.41 1.54015 0.705398 0
M  V30 13196 O 1253.62 1.69546 0.604505 0
M  V30 13197 H 1250 0.751774 -0.0184276 0
M  V30 13198 H 1251.97 2.83763 -0.923094 0
M  V30 13199 C 1250.72 3.39206 0.763849 0
M  V30 13200 H 1250.04 3.99548 0.14187 0
M  V30 13201 H 1251.48 4.07312 1.17783 0
M  V30 13202 C 1249.94 2.77771 1.90643 0
M  V30 13203 O 1250.47 2.67073 3.00058 0
M  V30 13204 N 1248.67 2.35582 1.70145 0
M  V30 13205 H 1248.22 2.44483 0.811528 0
M  V30 13206 H 1248.18 1.9482 2.46764 0
M  V30 13207 N 1251.95 0.502579 1.49372 0
M  V30 13208 C 1253.18 -0.0381429 2.06865 0
M  V30 13209 C 1253.59 -1.30674 1.36271 0
M  V30 13210 O 1252.95 -1.77078 0.441532 0
M  V30 13211 C 1253 -0.294068 3.60302 0
M  V30 13212 O 1252.72 0.924244 4.2824 0
M  V30 13213 C 1254.22 -0.878253 4.34513 0
M  V30 13214 H 1251.44 0.0211756 0.670666 0
M  V30 13215 H 1253.99 0.700387 1.92132 0
M  V30 13216 H 1252.14 -0.982583 3.74732 0
M  V30 13217 H 1252.56 0.688062 5.19967 0
M  V30 13218 H 1254.03 -1.0069 5.42739 0
M  V30 13219 H 1254.51 -1.87643 3.97098 0
M  V30 13220 H 1255.11 -0.227157 4.24693 0
M  V30 13221 N 1253.43 -1.55816 0.23648 0
M  V30 13222 C 1254.68 -1.98294 -0.390373 0
M  V30 13223 C 1255 -1.12573 -1.59224 0
M  V30 13224 O 1254.27 -0.206128 -1.94813 0
M  V30 13225 H 1252.85 -0.732349 -0.14722 0
M  V30 13226 H 1255.51 -1.92037 0.332848 0
M  V30 13227 H 1254.61 -3.03996 -0.706595 0
M  V30 13228 N 1254.91 0.036755 -1.57557 0
M  V30 13229 C 1255.87 1.02435 -2.05036 0
M  V30 13230 C 1256.87 1.29506 -0.953146 0
M  V30 13231 O 1258.06 1.24638 -1.217 0
M  V30 13232 C 1255.19 2.3592 -2.46079 0
M  V30 13233 H 1256.38 0.614384 -2.93539 0
M  V30 13234 H 1253.94 0.283396 -1.53709 0
M  V30 13235 H 1254.67 2.8168 -1.60708 0
M  V30 13236 H 1254.46 2.17603 -3.26177 0
M  V30 13237 H 1255.95 3.06839 -2.83266 0
M  V30 13238 N 1256.39 1.54543 0.308881 0
M  V30 13239 C 1257.32 1.87947 1.38557 0
M  V30 13240 C 1258.3 0.737622 1.53275 0
M  V30 13241 O 1259.48 0.992664 1.66913 0
M  V30 13242 C 1256.61 2.11982 2.75102 0
M  V30 13243 C 1255.57 3.2783 2.75158 0
M  V30 13244 C 1254.89 3.37266 4.14917 0
M  V30 13245 C 1256.19 4.65129 2.37598 0
M  V30 13246 H 1257.89 2.78123 1.1085 0
M  V30 13247 H 1255.43 1.3382 0.531808 0
M  V30 13248 H 1257.38 2.33935 3.50503 0
M  V30 13249 H 1256.11 1.18569 3.04317 0
M  V30 13250 H 1254.77 3.05787 2.02212 0
M  V30 13251 H 1254.42 2.41384 4.41296 0
M  V30 13252 H 1254.12 4.15135 4.15857 0
M  V30 13253 H 1255.64 3.61471 4.92109 0
M  V30 13254 H 1257.05 4.86865 3.02714 0
M  V30 13255 H 1255.45 5.45653 2.49765 0
M  V30 13256 H 1256.52 4.6638 1.32731 0
M  V30 13257 N 1257.86 -0.571685 1.46866 0
M  V30 13258 C 1259.11 -1.33145 1.52972 0
M  V30 13259 C 1259.44 -1.93314 0.185344 0
M  V30 13260 O 1258.72 -1.77083 -0.80447 0
M  V30 13261 C 1259 -2.4525 2.63675 0
M  V30 13262 C 1258.85 -1.90044 4.0768 0
M  V30 13263 C 1260.17 -3.47247 2.70384 0
M  V30 13264 H 1257.29 -0.482751 0.556885 0
M  V30 13265 H 1259.93 -0.641163 1.78855 0
M  V30 13266 H 1258.08 -3.04132 2.41735 0
M  V30 13267 H 1259.76 -1.35535 4.4094 0
M  V30 13268 H 1258 -1.20805 4.1664 0
M  V30 13269 H 1258.67 -2.71019 4.80887 0
M  V30 13270 H 1261.15 -2.98263 2.90135 0
M  V30 13271 H 1260.02 -4.23132 3.49643 0
M  V30 13272 H 1260.28 -4.05179 1.76868 0
M  V30 13273 N 1259.34 -1.34755 -0.817236 0
M  V30 13274 C 1260.3 -1.26687 -1.91006 0
M  V30 13275 C 1261.3 -0.180745 -1.59781 0
M  V30 13276 O 1262.49 -0.433748 -1.68714 0
M  V30 13277 C 1259.63 -0.957293 -3.27183 0
M  V30 13278 H 1260.82 -2.23846 -1.99582 0
M  V30 13279 H 1258.37 -1.19125 -1.01187 0
M  V30 13280 H 1259.11 0.0108917 -3.24298 0
M  V30 13281 H 1258.89 -1.74297 -3.5123 0
M  V30 13282 H 1260.38 -0.926161 -4.072 0
M  V30 13283 N 1260.82 1.03812 -1.18578 0
M  V30 13284 C 1262.07 1.77319 -0.984173 0
M  V30 13285 C 1262.4 1.88052 0.484789 0
M  V30 13286 O 1261.67 1.3905 1.35998 0
M  V30 13287 C 1261.96 3.20448 -1.6427 0
M  V30 13288 C 1261.81 3.17643 -3.1847 0
M  V30 13289 C 1263.13 4.18623 -1.35805 0
M  V30 13290 H 1260.25 0.643681 -0.358949 0
M  V30 13291 H 1262.89 1.21249 -1.46283 0
M  V30 13292 H 1261.04 3.68324 -1.23572 0
M  V30 13293 H 1262.71 2.77738 -3.6832 0
M  V30 13294 H 1260.95 2.55606 -3.50497 0
M  V30 13295 H 1261.63 4.18724 -3.59686 0
M  V30 13296 H 1264.1 3.79306 -1.71073 0
M  V30 13297 H 1262.98 5.16982 -1.84446 0
M  V30 13298 H 1263.24 4.41203 -0.281418 0
M  V30 13299 N 1262.3 0.988223 1.22768 0
M  V30 13300 C 1263.24 0.534605 2.24523 0
M  V30 13301 C 1264.21 -0.430615 1.60421 0
M  V30 13302 O 1265.4 -0.336417 1.87811 0
M  V30 13303 C 1262.54 -0.149195 3.44777 0
M  V30 13304 C 1261.65 0.85721 4.2341 0
M  V30 13305 C 1260.79 0.147411 5.30995 0
M  V30 13306 C 1259.83 1.1425 6.01343 0
M  V30 13307 N 1258.96 0.461327 7.00583 0
M  V30 13308 H 1263.8 1.40708 2.62689 0
M  V30 13309 H 1261.34 0.704918 1.2911 0
M  V30 13310 H 1263.3 -0.562527 4.1339 0
M  V30 13311 H 1261.93 -0.985485 3.07389 0
M  V30 13312 H 1260.98 1.38889 3.54138 0
M  V30 13313 H 1262.29 1.61517 4.71926 0
M  V30 13314 H 1261.45 -0.32289 6.0584 0
M  V30 13315 H 1260.19 -0.643085 4.83442 0
M  V30 13316 H 1259.19 1.62348 5.25284 0
M  V30 13317 H 1260.42 1.93379 6.50985 0
M  V30 13318 H 1258.36 -0.309818 6.55268 0
M  V30 13319 H 1258.28 1.15781 7.47082 0
M  V30 13320 H 1259.55 0.0136734 7.79499 0
M  V30 13321 N 1263.78 -1.38018 0.760839 0
M  V30 13322 C 1264.71 -2.2899 0.0980916 0
M  V30 13323 C 1265.72 -1.48102 -0.675985 0
M  V30 13324 O 1266.91 -1.70883 -0.515878 0
M  V30 13325 C 1264.01 -3.27142 -0.884959 0
M  V30 13326 C 1263.18 -4.37081 -0.167 0
M  V30 13327 C 1262.24 -5.15375 -1.06184 0
M  V30 13328 O 1261.27 -5.6673 -0.529667 0
M  V30 13329 N 1262.47 -5.29052 -2.38924 0
M  V30 13330 H 1265.23 -2.86508 0.879403 0
M  V30 13331 H 1262.8 -1.49877 0.612245 0
M  V30 13332 H 1264.79 -3.764 -1.48678 0
M  V30 13333 H 1263.36 -2.70471 -1.5673 0
M  V30 13334 H 1262.58 -3.89363 0.615617 0
M  V30 13335 H 1263.87 -5.07732 0.329525 0
M  V30 13336 H 1263.26 -4.88892 -2.84607 0
M  V30 13337 H 1261.82 -5.81658 -2.94139 0
M  V30 13338 N 1265.25 -0.510493 -1.49103 0
M  V30 13339 C 1266.18 0.251999 -2.32136 0
M  V30 13340 C 1267.16 0.953613 -1.40855 0
M  V30 13341 O 1268.35 0.943178 -1.69758 0
M  V30 13342 C 1265.48 1.31118 -3.21598 0
M  V30 13343 C 1264.43 0.72888 -4.21748 0
M  V30 13344 C 1263.76 1.88928 -5.0021 0
M  V30 13345 C 1265.06 -0.286425 -5.21514 0
M  V30 13346 H 1266.75 -0.441102 -2.96133 0
M  V30 13347 H 1264.3 -0.213577 -1.42407 0
M  V30 13348 H 1266.25 1.8524 -3.78503 0
M  V30 13349 H 1264.98 2.0336 -2.55563 0
M  V30 13350 H 1263.64 0.209336 -3.66002 0
M  V30 13351 H 1263.28 2.59961 -4.30615 0
M  V30 13352 H 1262.98 1.50568 -5.67981 0
M  V30 13353 H 1264.51 2.43465 -5.59962 0
M  V30 13354 H 1265.92 0.166997 -5.73057 0
M  V30 13355 H 1264.32 -0.586361 -5.97228 0
M  V30 13356 H 1265.39 -1.19904 -4.69842 0
M  V30 13357 N 1266.73 1.55688 -0.24474 0
M  V30 13358 C 1267.66 2.18616 0.68844 0
M  V30 13359 C 1268.68 1.16185 1.14039 0
M  V30 13360 O 1269.87 1.43059 1.06754 0
M  V30 13361 C 1266.97 2.77375 1.94721 0
M  V30 13362 C 1266.14 4.05204 1.64706 0
M  V30 13363 C 1265.2 4.48302 2.75521 0
M  V30 13364 O 1264.22 5.14723 2.42999 0
M  V30 13365 N 1265.43 4.15907 4.04971 0
M  V30 13366 H 1268.19 2.99324 0.150018 0
M  V30 13367 H 1265.75 1.61771 -0.0646183 0
M  V30 13368 H 1267.74 3.03165 2.68091 0
M  V30 13369 H 1266.31 2.00837 2.39548 0
M  V30 13370 H 1265.53 3.87026 0.74865 0
M  V30 13371 H 1266.82 4.8855 1.42114 0
M  V30 13372 H 1266.22 3.62579 4.34227 0
M  V30 13373 H 1264.78 4.46538 4.74813 0
M  V30 13374 N 1268.21 -0.0283989 1.57574 0
M  V30 13375 C 1269.16 -1.03669 2.03069 0
M  V30 13376 C 1270.14 -1.31994 0.920129 0
M  V30 13377 O 1271.34 -1.31568 1.18402 0
M  V30 13378 C 1268.46 -2.3376 2.51418 0
M  V30 13379 C 1267.55 -2.08522 3.69296 0
M  V30 13380 N 1267.94 -1.53345 4.81995 0
M  V30 13381 C 1266.24 -2.38803 3.76682 0
M  V30 13382 C 1266.94 -1.43926 5.63613 0
M  V30 13383 N 1265.92 -1.91507 5.0875 0
M  V30 13384 H 1269.72 -0.604097 2.87625 0
M  V30 13385 H 1267.23 -0.234689 1.60695 0
M  V30 13386 H 1269.23 -3.06804 2.82271 0
M  V30 13387 H 1267.89 -2.77698 1.68268 0
M  V30 13388 H 1268.9 -1.21607 5.0342 0
M  V30 13389 H 1265.58 -2.8581 3.04333 0
M  V30 13390 H 1266.97 -1.0175 6.64151 0
M  V30 13391 N 1269.69 -1.54705 -0.300681 0
M  V30 13392 C 1270.91 -1.78318 -1.05913 0
M  V30 13393 C 1271.34 -0.541177 -1.80147 0
M  V30 13394 O 1270.7 0.508291 -1.74029 0
M  V30 13395 C 1270.74 -2.99041 -2.01511 0
M  V30 13396 O 1269.85 -2.72188 -3.09818 0
M  V30 13397 H 1269.19 -0.590197 -0.304242 0
M  V30 13398 H 1271.72 -2.01789 -0.338006 0
M  V30 13399 H 1271.73 -3.2702 -2.43971 0
M  V30 13400 H 1270.4 -3.89098 -1.46886 0
M  V30 13401 H 1268.98 -2.55227 -2.71871 0
M  V30 13402 N 1271.17 0.563888 -1.47167 0
M  V30 13403 C 1272.41 1.31875 -1.53145 0
M  V30 13404 C 1272.74 1.94047 -0.192518 0
M  V30 13405 O 1272.01 1.79577 0.782872 0
M  V30 13406 H 1270.59 0.489694 -0.5641 0
M  V30 13407 H 1273.25 0.658976 -1.83422 0
M  V30 13408 H 1272.34 2.11574 -2.2944 0
M  V30 13409 N 1272.64 1.35187 0.810078 0
M  V30 13410 C 1274.06 1.25329 1.38381 0
M  V30 13411 C 1274.41 -0.115799 1.95858 0
M  V30 13412 O 1273.53 -1.01663 1.91033 0
M  V30 13413 C 1274.13 2.2693 2.51572 0
M  V30 13414 C 1272.69 2.20824 3.04818 0
M  V30 13415 C 1271.83 2.1283 1.7776 0
M  V30 13416 H 1274.78 1.46366 0.613402 0
M  V30 13417 H 1274.8 1.89375 3.30026 0
M  V30 13418 H 1274.32 3.26563 2.09709 0
M  V30 13419 H 1272.42 1.24589 3.51153 0
M  V30 13420 H 1272.53 3.12637 3.63036 0
M  V30 13421 H 1270.89 1.58752 1.99173 0
M  V30 13422 H 1271.68 3.14318 1.38054 0
M  V30 13423 N 1274.12 -1.03182 1.19127 0
M  V30 13424 C 1275.4 -1.73586 0.901507 0
M  V30 13425 C 1275.78 -2.02585 -0.593521 0
M  V30 13426 O 1275.13 -1.67813 -1.55084 0
M  V30 13427 C 1275.34 -3.01472 1.75829 0
M  V30 13428 C 1276.69 -3.75037 1.99078 0
M  V30 13429 O 1277.71 -3.11392 1.72956 0
M  V30 13430 O 1276.57 -4.8945 2.43108 0
M  V30 13431 H 1273.66 -0.755797 0.335708 0
M  V30 13432 H 1276.21 -1.09167 1.29925 0
M  V30 13433 H 1274.98 -2.76247 2.77134 0
M  V30 13434 H 1274.6 -3.73631 1.35963 0
M  V30 13435 N 1275.6 -0.99472 -1.22242 0
M  V30 13436 C 1276.53 -0.504783 -2.23572 0
M  V30 13437 C 1277.55 0.401105 -1.57781 0
M  V30 13438 O 1278.73 0.202948 -1.77343 0
M  V30 13439 C 1275.83 0.287524 -3.37678 0
M  V30 13440 C 1275.01 -0.614941 -4.33056 0
M  V30 13441 C 1274.07 0.125974 -5.26049 0
M  V30 13442 O 1273.09 -0.489234 -5.67094 0
M  V30 13443 N 1274.29 1.40772 -5.63173 0
M  V30 13444 H 1277.06 -1.37612 -2.66238 0
M  V30 13445 H 1274.62 -0.86965 -1.3656 0
M  V30 13446 H 1276.61 0.791884 -3.96877 0
M  V30 13447 H 1275.18 1.05998 -2.9408 0
M  V30 13448 H 1274.4 -1.29994 -3.72149 0
M  V30 13449 H 1275.69 -1.22947 -4.93722 0
M  V30 13450 H 1275.09 1.92884 -5.31801 0
M  V30 13451 H 1273.65 1.85723 -6.2478 0
M  V30 13452 N 1277.08 1.37613 -0.768148 0
M  V30 13453 C 1278.01 2.28935 -0.110234 0
M  V30 13454 C 1279.02 1.48459 0.668122 0
M  V30 13455 O 1280.21 1.71154 0.506808 0
M  V30 13456 C 1277.31 3.27606 0.867598 0
M  V30 13457 C 1276.49 4.37163 0.143819 0
M  V30 13458 C 1275.54 5.15931 1.03449 0
M  V30 13459 O 1274.57 5.67003 0.499605 0
M  V30 13460 N 1275.77 5.30311 2.36114 0
M  V30 13461 H 1278.54 2.86037 -0.894585 0
M  V30 13462 H 1276.1 1.4955 -0.620185 0
M  V30 13463 H 1278.09 3.77183 1.4668 0
M  V30 13464 H 1276.66 2.71298 1.55294 0
M  V30 13465 H 1275.88 3.89031 -0.636257 0
M  V30 13466 H 1277.17 5.0755 -0.356446 0
M  V30 13467 H 1276.57 4.90394 2.82011 0
M  V30 13468 H 1275.12 5.83209 2.9105 0
M  V30 13469 N 1278.56 0.518393 1.4883 0
M  V30 13470 C 1279.97 0.175476 1.58632 0
M  V30 13471 C 1280.17 -1.32081 1.52174 0
M  V30 13472 O 1279.23 -2.09817 1.40474 0
M  V30 13473 C 1280.54 0.767722 2.90734 0
M  V30 13474 C 1282.09 0.735402 3.04238 0
M  V30 13475 C 1282.56 1.30602 4.38984 0
M  V30 13476 N 1284.06 1.26748 4.45521 0
M  V30 13477 C 1284.79 1.679 5.48267 0
M  V30 13478 N 1284.29 2.16728 6.58028 0
M  V30 13479 N 1286.08 1.59209 5.39082 0
M  V30 13480 H 1278.23 1.491 1.51271 0
M  V30 13481 H 1280.49 0.619497 0.717584 0
M  V30 13482 H 1280.2 1.81777 3.01081 0
M  V30 13483 H 1280.07 0.238119 3.76448 0
M  V30 13484 H 1282.46 -0.305852 2.93511 0
M  V30 13485 H 1282.54 1.30235 2.20165 0
M  V30 13486 H 1282.19 2.34614 4.50465 0
M  V30 13487 H 1282.12 0.714858 5.21725 0
M  V30 13488 H 1284.61 0.90991 3.66782 0
M  V30 13489 H 1284.92 2.46154 7.32549 0
M  V30 13490 H 1283.26 2.20714 6.59022 0
M  V30 13491 H 1286.46 1.20869 4.52226 0
M  V30 13492 H 1286.63 1.91602 6.19025 0
M  V30 13493 N 1280.03 -1.55556 0.252993 0
M  V30 13494 C 1281.31 -1.91022 -0.420696 0
M  V30 13495 C 1281.69 -1.17452 -1.75409 0
M  V30 13496 O 1281.04 -0.294 -2.26601 0
M  V30 13497 C 1281.25 -3.441 -0.582787 0
M  V30 13498 C 1282.6 -4.15468 -0.875873 0
M  V30 13499 O 1283.62 -3.49872 -0.668425 0
M  V30 13500 O 1282.48 -5.31508 -1.27128 0
M  V30 13501 H 1279.57 -0.7953 -0.226776 0
M  V30 13502 H 1282.12 -1.67072 0.297511 0
M  V30 13503 H 1280.89 -3.89673 0.356474 0
M  V30 13504 H 1280.52 -3.73933 -1.3513 0
M  V30 13505 N 1281.51 0.0200419 -1.57587 0
M  V30 13506 C 1282.76 0.709027 -1.89681 0
M  V30 13507 C 1283.09 1.74876 -0.851396 0
M  V30 13508 O 1282.34 1.95151 0.146483 0
M  V30 13509 C 1282.64 1.40729 -3.28527 0
M  V30 13510 C 1282.31 0.502686 -4.48089 0
M  V30 13511 C 1280.97 0.253558 -4.80532 0
M  V30 13512 C 1283.32 -0.121338 -5.21059 0
M  V30 13513 C 1280.65 -0.628221 -5.83327 0
M  V30 13514 C 1283 -0.990873 -6.24792 0
M  V30 13515 C 1281.67 -1.24937 -6.55703 0
M  V30 13516 H 1280.94 0.259451 -0.694094 0
M  V30 13517 H 1283.58 -0.03118 -1.91475 0
M  V30 13518 H 1281.89 2.22105 -3.22764 0
M  V30 13519 H 1283.58 1.94609 -3.50611 0
M  V30 13520 H 1280.17 0.707018 -4.22728 0
M  V30 13521 H 1284.36 0.0581516 -4.96266 0
M  V30 13522 H 1279.61 -0.836712 -6.05648 0
M  V30 13523 H 1283.79 -1.48087 -6.80473 0
M  V30 13524 H 1281.42 -1.93436 -7.35178 0
M  V30 13525 N 1282.99 1.54862 0.292472 0
M  V30 13526 C 1283.92 1.82786 1.38282 0
M  V30 13527 C 1284.94 0.711253 1.46441 0
M  V30 13528 O 1286.12 0.988851 1.48607 0
M  V30 13529 C 1283.22 1.95845 2.76582 0
M  V30 13530 C 1282.4 3.2633 2.91252 0
M  V30 13531 C 1281.46 3.29697 4.10105 0
M  V30 13532 O 1280.48 4.03184 4.01785 0
M  V30 13533 N 1281.68 2.557 5.21151 0
M  V30 13534 H 1284.45 2.76891 1.1468 0
M  V30 13535 H 1282.01 1.54541 0.482561 0
M  V30 13536 H 1284 1.95491 3.54352 0
M  V30 13537 H 1282.57 1.08696 2.93094 0
M  V30 13538 H 1281.79 3.39387 2.00525 0
M  V30 13539 H 1283.08 4.12421 2.9797 0
M  V30 13540 H 1282.48 1.95642 5.30792 0
M  V30 13541 H 1281.04 2.61089 5.97223 0
M  V30 13542 N 1284.47 -0.556076 1.47464 0
M  V30 13543 C 1285.88 -0.882115 1.33007 0
M  V30 13544 C 1286.08 -1.9892 0.321407 0
M  V30 13545 O 1285.14 -2.51088 -0.266668 0
M  V30 13546 C 1286.45 -1.27428 2.72365 0
M  V30 13547 C 1288 -1.38564 2.80658 0
M  V30 13548 C 1288.48 -1.81136 4.20659 0
M  V30 13549 N 1289.97 -1.88284 4.23206 0
M  V30 13550 C 1290.7 -2.22555 5.28447 0
M  V30 13551 N 1290.2 -2.55432 6.43993 0
M  V30 13552 N 1291.99 -2.23339 5.15826 0
M  V30 13553 H 1284.14 0.17481 2.11679 0
M  V30 13554 H 1286.41 0.0155421 0.947873 0
M  V30 13555 H 1286.11 -0.53463 3.47613 0
M  V30 13556 H 1285.99 -2.23019 3.04208 0
M  V30 13557 H 1288.37 -2.1161 2.05682 0
M  V30 13558 H 1288.45 -0.411588 2.52467 0
M  V30 13559 H 1288.1 -1.08659 4.96141 0
M  V30 13560 H 1288.03 -2.79546 4.46275 0
M  V30 13561 H 1290.52 -1.65259 3.3985 0
M  V30 13562 H 1290.83 -2.80612 7.20053 0
M  V30 13563 H 1289.18 -2.5301 6.47311 0
M  V30 13564 H 1292.37 -1.97094 4.24584 0
M  V30 13565 H 1292.54 -2.49717 5.97951 0
M  V30 13566 N 1285.95 -1.35615 -0.802897 0
M  V30 13567 C 1286.86 -1.3096 -1.94645 0
M  V30 13568 C 1287.87 -0.213909 -1.7268 0
M  V30 13569 O 1289.05 -0.443932 -1.96446 0
M  V30 13570 C 1286.11 -1.08483 -3.2929 0
M  V30 13571 C 1285.18 -2.27401 -3.64126 0
M  V30 13572 C 1284.41 -2.05987 -4.92347 0
M  V30 13573 O 1284.63 -1.02819 -5.61057 0
M  V30 13574 O 1283.57 -2.93439 -5.25526 0
M  V30 13575 H 1287.39 -2.27209 -2.01519 0
M  V30 13576 H 1284.98 -1.16024 -0.941214 0
M  V30 13577 H 1286.86 -0.978118 -4.09891 0
M  V30 13578 H 1285.53 -0.152885 -3.23339 0
M  V30 13579 H 1284.44 -2.43638 -2.83886 0
M  V30 13580 H 1285.77 -3.19055 -3.74786 0
M  V30 13581 N 1287.43 1.02549 -1.19673 0
M  V30 13582 C 1288.67 1.75408 -0.995732 0
M  V30 13583 C 1288.99 1.89773 0.473863 0
M  V30 13584 O 1290.19 2.59638 0.793762 0
M  V30 13585 C 1288.65 3.15444 -1.73273 0
M  V30 13586 C 1288.26 3.09121 -3.24266 0
M  V30 13587 C 1290 3.92575 -1.61509 0
M  V30 13588 C 1287.91 4.44109 -3.9054 0
M  V30 13589 H 1286.84 0.657569 -0.368944 0
M  V30 13590 H 1289.49 1.14739 -1.43203 0
M  V30 13591 H 1287.87 3.76601 -1.22425 0
M  V30 13592 H 1289.05 2.57325 -3.82257 0
M  V30 13593 H 1287.36 2.45485 -3.36342 0
M  V30 13594 H 1289.96 4.92428 -2.08372 0
M  V30 13595 H 1290.3 4.12382 -0.569804 0
M  V30 13596 H 1290.83 3.38027 -2.09721 0
M  V30 13597 H 1287.57 4.29506 -4.95182 0
M  V30 13598 H 1287.09 4.95947 -3.37337 0
M  V30 13599 H 1288.77 5.12982 -3.94282 0
M  V30 13600 N 1288.9 1.00119 1.21713 0
M  V30 13601 C 1289.84 0.516633 2.23301 0
M  V30 13602 C 1290.85 -0.392732 1.57992 0
M  V30 13603 O 1292.04 -0.19354 1.77448 0
M  V30 13604 C 1289.14 -0.269612 3.37826 0
M  V30 13605 C 1288.31 0.637898 4.32723 0
M  V30 13606 C 1287.37 -0.0980745 5.26109 0
M  V30 13607 O 1286.4 0.519302 5.66826 0
M  V30 13608 N 1287.6 -1.37783 5.63911 0
M  V30 13609 H 1290.36 1.39022 2.65505 0
M  V30 13610 H 1287.92 0.87688 1.36097 0
M  V30 13611 H 1289.92 -0.770826 3.97291 0
M  V30 13612 H 1288.49 -1.04436 2.94638 0
M  V30 13613 H 1287.71 1.31966 3.71455 0
M  V30 13614 H 1288.99 1.25564 4.93063 0
M  V30 13615 H 1288.39 -1.90061 5.32817 0
M  V30 13616 H 1286.95 -1.82407 6.25756 0
M  V30 13617 N 1290.38 -1.37203 0.775435 0
M  V30 13618 C 1291.63 -1.98846 0.338093 0
M  V30 13619 C 1291.94 -1.6225 -1.09244 0
M  V30 13620 O 1293.15 -2.17024 -1.63135 0
M  V30 13621 C 1291.61 -3.55618 0.553541 0
M  V30 13622 C 1291.21 -4.01149 1.99457 0
M  V30 13623 C 1292.96 -4.24118 0.180006 0
M  V30 13624 C 1290.86 -5.50644 2.15742 0
M  V30 13625 H 1289.79 -0.743955 0.122669 0
M  V30 13626 H 1292.45 -1.56685 0.955087 0
M  V30 13627 H 1290.83 -3.95777 -0.132964 0
M  V30 13628 H 1292 -3.72226 2.71633 0
M  V30 13629 H 1290.32 -3.45443 2.32504 0
M  V30 13630 H 1292.91 -5.33966 0.280145 0
M  V30 13631 H 1293.26 -4.07104 -0.870192 0
M  V30 13632 H 1293.79 -3.89274 0.819201 0
M  V30 13633 H 1290.53 -5.7259 3.19094 0
M  V30 13634 H 1290.05 -5.8124 1.48054 0
M  V30 13635 H 1291.73 -6.16668 1.95781 0
M  V30 13636 N 1291.86 -0.526279 -1.48553 0
M  V30 13637 C 1292.79 0.227364 -2.3239 0
M  V30 13638 C 1293.77 0.93862 -1.41859 0
M  V30 13639 O 1294.96 0.925119 -1.70749 0
M  V30 13640 C 1292.09 1.277 -3.22971 0
M  V30 13641 C 1291.04 0.684107 -4.22497 0
M  V30 13642 C 1290.37 1.83612 -5.02186 0
M  V30 13643 C 1291.67 -0.341723 -5.21181 0
M  V30 13644 H 1293.36 -0.472486 -2.95648 0
M  V30 13645 H 1290.91 -0.228669 -1.42173 0
M  V30 13646 H 1292.86 1.81215 -3.80446 0
M  V30 13647 H 1291.58 2.00638 -2.57705 0
M  V30 13648 H 1290.24 0.170505 -3.66203 0
M  V30 13649 H 1289.89 2.55379 -4.33348 0
M  V30 13650 H 1289.59 1.44536 -5.69547 0
M  V30 13651 H 1291.11 2.37513 -5.62512 0
M  V30 13652 H 1292.53 0.106207 -5.73202 0
M  V30 13653 H 1290.92 -0.649673 -5.96573 0
M  V30 13654 H 1291.99 -1.2488 -4.68543 0
M  V30 13655 N 1293.34 1.5542 -0.261239 0
M  V30 13656 C 1294.28 2.21972 0.632216 0
M  V30 13657 C 1295.25 1.18843 1.16041 0
M  V30 13658 O 1296.44 1.47339 1.21226 0
M  V30 13659 C 1293.58 2.93397 1.81693 0
M  V30 13660 C 1292.69 4.11214 1.3239 0
M  V30 13661 C 1291.83 4.70318 2.46931 0
M  V30 13662 C 1290.87 5.80355 1.94561 0
M  V30 13663 N 1290 6.33581 3.02523 0
M  V30 13664 H 1294.84 2.97944 0.058018 0
M  V30 13665 H 1292.38 1.4709 0.0168725 0
M  V30 13666 H 1294.34 3.33015 2.5131 0
M  V30 13667 H 1292.97 2.19874 2.36337 0
M  V30 13668 H 1292.02 3.76811 0.521292 0
M  V30 13669 H 1293.33 4.90609 0.900214 0
M  V30 13670 H 1292.49 5.12584 3.24565 0
M  V30 13671 H 1291.23 3.90169 2.92608 0
M  V30 13672 H 1290.23 5.37552 1.15402 0
M  V30 13673 H 1291.46 6.62364 1.49836 0
M  V30 13674 H 1289.4 5.56332 3.47608 0
M  V30 13675 H 1289.32 7.08209 2.64529 0
M  V30 13676 H 1290.59 6.80506 3.80174 0
M  V30 13677 N 1294.82 -0.0116844 1.57596 0
M  V30 13678 C 1295.78 -0.991601 2.0664 0
M  V30 13679 C 1296.78 -1.27973 0.973629 0
M  V30 13680 O 1297.97 -1.22686 1.23668 0
M  V30 13681 C 1295.1 -2.31975 2.49801 0
M  V30 13682 H 1296.29 -0.567607 2.9448 0
M  V30 13683 H 1293.85 -0.258906 1.54141 0
M  V30 13684 H 1294.58 -2.79087 1.65169 0
M  V30 13685 H 1294.37 -2.12386 3.29598 0
M  V30 13686 H 1295.86 -3.02294 2.88112 0
M  V30 13687 N 1296.29 -1.55015 -0.284256 0
M  V30 13688 C 1297.22 -1.90128 -1.3555 0
M  V30 13689 C 1298.2 -0.761914 -1.52082 0
M  V30 13690 O 1299.39 -1.01909 -1.65312 0
M  V30 13691 C 1296.52 -2.16332 -2.71695 0
M  V30 13692 C 1295.47 -3.32166 -2.69907 0
M  V30 13693 C 1294.8 -3.43824 -4.09498 0
M  V30 13694 C 1296.1 -4.6885 -2.30168 0
M  V30 13695 H 1297.79 -2.79852 -1.06411 0
M  V30 13696 H 1295.34 -1.34649 -0.510451 0
M  V30 13697 H 1297.29 -2.39482 -3.46737 0
M  V30 13698 H 1296.02 -1.23395 -3.02392 0
M  V30 13699 H 1294.68 -3.08965 -1.97322 0
M  V30 13700 H 1294.32 -2.48375 -4.374 0
M  V30 13701 H 1294.02 -4.21698 -4.092 0
M  V30 13702 H 1295.55 -3.69254 -4.86296 0
M  V30 13703 H 1296.96 -4.91619 -2.9493 0
M  V30 13704 H 1295.36 -5.49558 -2.41052 0
M  V30 13705 H 1296.43 -4.68433 -1.25294 0
M  V30 13706 N 1297.77 0.548248 -1.47757 0
M  V30 13707 C 1298.72 1.65028 -1.57321 0
M  V30 13708 C 1299.71 1.55006 -0.431489 0
M  V30 13709 O 1300.9 1.63337 -0.681919 0
M  V30 13710 C 1298.03 3.0379 -1.59896 0
M  V30 13711 C 1297.11 3.18982 -2.79484 0
M  V30 13712 N 1297.5 3.04208 -4.04093 0
M  V30 13713 C 1295.8 3.50001 -2.76433 0
M  V30 13714 C 1296.5 3.2233 -4.8423 0
M  V30 13715 N 1295.48 3.49073 -4.16712 0
M  V30 13716 H 1299.28 1.52187 -2.51428 0
M  V30 13717 H 1296.79 0.753242 -1.43875 0
M  V30 13718 H 1298.79 3.82928 -1.64839 0
M  V30 13719 H 1297.45 3.17735 -0.668912 0
M  V30 13720 H 1298.46 2.81348 -4.34814 0
M  V30 13721 H 1295.14 3.70418 -1.92606 0
M  V30 13722 H 1296.53 3.15799 -5.9306 0
M  V30 13723 N 1299.25 1.36039 0.795694 0
M  V30 13724 C 1300.47 1.33222 1.58955 0
M  V30 13725 C 1300.9 -0.0854596 1.87906 0
M  V30 13726 O 1300.26 -1.05555 1.47403 0
M  V30 13727 C 1300.31 2.15508 2.89117 0
M  V30 13728 O 1299.41 1.54327 3.82436 0
M  V30 13729 H 1298.75 0.456264 0.48241 0
M  V30 13730 H 1301.28 1.79234 0.986726 0
M  V30 13731 H 1301.29 2.2786 3.38444 0
M  V30 13732 H 1299.97 3.18568 2.67371 0
M  V30 13733 H 1298.54 1.50879 3.41013 0
M  V30 13734 N 1300.73 -1.01913 1.20215 0
M  V30 13735 C 1302.01 -1.7262 0.919867 0
M  V30 13736 C 1302.39 -2.03203 -0.572001 0
M  V30 13737 O 1301.73 -1.69448 -1.53296 0
M  V30 13738 C 1301.94 -2.9959 1.79016 0
M  V30 13739 C 1303.29 -3.72905 2.03045 0
M  V30 13740 O 1304.32 -3.0954 1.76249 0
M  V30 13741 O 1303.17 -4.86844 2.48285 0
M  V30 13742 H 1300.27 -0.752194 0.343705 0
M  V30 13743 H 1302.81 -1.07783 1.31076 0
M  V30 13744 H 1301.59 -2.73292 2.80048 0
M  V30 13745 H 1301.21 -3.72168 1.39918 0
M  V30 13746 N 1302.21 -1.00763 -1.2118 0
M  V30 13747 C 1303.45 -0.691826 -1.90316 0
M  V30 13748 C 1303.78 0.777678 -1.78276 0
M  V30 13749 O 1303.04 1.57962 -1.15526 0
M  V30 13750 C 1303.34 -1.06187 -3.41261 0
M  V30 13751 C 1303 -2.52608 -3.73497 0
M  V30 13752 C 1301.66 -2.92617 -3.82006 0
M  V30 13753 C 1304.02 -3.47442 -3.88502 0
M  V30 13754 C 1301.34 -4.26419 -4.02969 0
M  V30 13755 C 1303.7 -4.8092 -4.10973 0
M  V30 13756 C 1302.36 -5.20649 -4.17709 0
M  V30 13757 H 1301.63 -0.253157 -0.696414 0
M  V30 13758 H 1304.28 -1.26655 -1.43634 0
M  V30 13759 H 1302.58 -0.405428 -3.89697 0
M  V30 13760 H 1304.28 -0.795343 -3.93033 0
M  V30 13761 H 1300.87 -2.20603 -3.67468 0
M  V30 13762 H 1305.05 -3.17695 -3.81292 0
M  V30 13763 H 1300.31 -4.56767 -4.06416 0
M  V30 13764 H 1304.48 -5.54337 -4.21525 0
M  V30 13765 H 1302.11 -6.24343 -4.33705 0
M  V30 13766 N 1303.68 1.3679 -0.7827 0
M  V30 13767 C 1304.93 1.98664 -0.348634 0
M  V30 13768 C 1305.25 1.62827 1.08382 0
M  V30 13769 O 1306.45 2.17886 1.61982 0
M  V30 13770 C 1304.91 3.55319 -0.572392 0
M  V30 13771 C 1304.52 4.00086 -2.01582 0
M  V30 13772 C 1306.26 4.24017 -0.202496 0
M  V30 13773 C 1304.17 5.49493 -2.18659 0
M  V30 13774 H 1303.1 0.743294 -0.126612 0
M  V30 13775 H 1305.75 1.56177 -0.963383 0
M  V30 13776 H 1304.13 3.95842 0.111973 0
M  V30 13777 H 1305.3 3.7078 -2.73603 0
M  V30 13778 H 1303.62 3.44205 -2.34333 0
M  V30 13779 H 1306.22 5.3381 -0.308459 0
M  V30 13780 H 1306.56 4.07559 0.84859 0
M  V30 13781 H 1307.09 3.88834 -0.839834 0
M  V30 13782 H 1303.83 5.7089 -3.22126 0
M  V30 13783 H 1303.35 5.80447 -1.51134 0
M  V30 13784 H 1305.03 6.15621 -1.99048 0
M  V30 13785 N 1305.16 0.53415 1.48272 0
M  V30 13786 C 1306.41 0.00157492 2.028 0
M  V30 13787 C 1306.74 -1.33538 1.41001 0
M  V30 13788 O 1306.02 -1.86347 0.557245 0
M  V30 13789 C 1306.3 -0.116016 3.59913 0
M  V30 13790 C 1306.15 1.2464 4.32186 0
M  V30 13791 C 1307.47 -0.840775 4.31994 0
M  V30 13792 H 1304.59 0.00204634 0.736997 0
M  V30 13793 H 1307.23 0.691985 1.76951 0
M  V30 13794 H 1305.38 -0.704027 3.82068 0
M  V30 13795 H 1307.05 1.87584 4.21438 0
M  V30 13796 H 1305.3 1.8272 3.93441 0
M  V30 13797 H 1305.97 1.11708 5.40579 0
M  V30 13798 H 1308.44 -0.341746 4.14694 0
M  V30 13799 H 1307.32 -0.89196 5.41604 0
M  V30 13800 H 1307.58 -1.89197 3.99571 0
M  V30 13801 N 1306.64 -1.55279 0.269478 0
M  V30 13802 C 1307.59 -2.22304 -0.620435 0
M  V30 13803 C 1308.56 -1.19457 -1.15409 0
M  V30 13804 O 1309.74 -1.4798 -1.20443 0
M  V30 13805 C 1306.88 -2.94356 -1.80134 0
M  V30 13806 C 1306 -4.1191 -1.30207 0
M  V30 13807 C 1305.13 -4.71621 -2.44433 0
M  V30 13808 C 1304.17 -5.81379 -1.91481 0
M  V30 13809 N 1303.31 -6.35176 -2.99158 0
M  V30 13810 H 1308.15 -2.9797 -0.0422165 0
M  V30 13811 H 1305.68 -1.47097 -0.00907173 0
M  V30 13812 H 1307.64 -3.34343 -2.4954 0
M  V30 13813 H 1306.27 -2.21124 -2.35168 0
M  V30 13814 H 1305.32 -3.77082 -0.501301 0
M  V30 13815 H 1306.64 -4.9108 -0.874183 0
M  V30 13816 H 1305.79 -5.14298 -3.21842 0
M  V30 13817 H 1304.53 -3.91715 -2.90535 0
M  V30 13818 H 1303.53 -5.38157 -1.12549 0
M  V30 13819 H 1304.76 -6.63149 -1.46322 0
M  V30 13820 H 1302.7 -5.58167 -3.44652 0
M  V30 13821 H 1302.62 -7.09602 -2.60769 0
M  V30 13822 H 1303.89 -6.82512 -3.7656 0
M  V30 13823 N 1308.12 0.00332656 -1.576 0
M  V30 13824 C 1309.35 0.69893 -1.94418 0
M  V30 13825 C 1309.76 1.68021 -0.8698 0
M  V30 13826 O 1309.1 1.83 0.160193 0
M  V30 13827 C 1309.16 1.4892 -3.27205 0
M  V30 13828 C 1308.83 0.669874 -4.52064 0
M  V30 13829 C 1309.82 -0.0410157 -5.19884 0
M  V30 13830 C 1307.51 0.616824 -4.98498 0
M  V30 13831 C 1309.5 -0.793976 -6.32436 0
M  V30 13832 C 1307.19 -0.139864 -6.1094 0
M  V30 13833 C 1308.19 -0.844001 -6.77765 0
M  V30 13834 O 1307.87 -1.58835 -7.88052 0
M  V30 13835 H 1307.61 0.199843 -0.645785 0
M  V30 13836 H 1310.16 -0.0429034 -2.05355 0
M  V30 13837 H 1308.39 2.27544 -3.12667 0
M  V30 13838 H 1310.08 2.06983 -3.4916 0
M  V30 13839 H 1310.85 -0.00916281 -4.84999 0
M  V30 13840 H 1306.72 1.15442 -4.46312 0
M  V30 13841 H 1310.27 -1.34411 -6.84529 0
M  V30 13842 H 1306.17 -0.173549 -6.45267 0
M  V30 13843 H 1306.93 -1.50471 -8.0455 0
M  V30 13844 N 1309.6 1.55164 0.276031 0
M  V30 13845 C 1311.01 1.46936 0.623061 0
M  V30 13846 C 1311.21 0.680977 1.89644 0
M  V30 13847 O 1310.27 0.198618 2.51718 0
M  V30 13848 C 1311.58 2.91123 0.752839 0
M  V30 13849 C 1313.13 3.01319 0.847093 0
M  V30 13850 C 1313.6 4.46755 1.00867 0
M  V30 13851 N 1315.1 4.5057 1.07427 0
M  V30 13852 C 1315.83 5.60314 1.21804 0
M  V30 13853 N 1315.33 6.7993 1.32919 0
M  V30 13854 N 1317.12 5.4805 1.2489 0
M  V30 13855 H 1309.27 2.04877 -0.560282 0
M  V30 13856 H 1311.53 0.928925 -0.189217 0
M  V30 13857 H 1311.24 3.51521 -0.112333 0
M  V30 13858 H 1311.11 3.39967 1.63408 0
M  V30 13859 H 1313.5 2.41021 1.70274 0
M  V30 13860 H 1313.58 2.55733 -0.0586896 0
M  V30 13861 H 1313.23 5.07655 0.1577 0
M  V30 13862 H 1313.16 4.89995 1.92906 0
M  V30 13863 H 1315.65 3.64404 1.00089 0
M  V30 13864 H 1315.96 7.59319 1.43714 0
M  V30 13865 H 1314.3 6.82747 1.29929 0
M  V30 13866 H 1317.5 4.53542 1.15834 0
M  V30 13867 H 1317.67 6.33621 1.3575 0
M  V30 13868 N 1311.07 -0.540404 1.48045 0
M  V30 13869 C 1312.32 -1.29422 1.55224 0
M  V30 13870 C 1312.64 -1.93716 0.223365 0
M  V30 13871 O 1311.91 -1.808 -0.754204 0
M  V30 13872 H 1310.49 -0.480658 0.571819 0
M  V30 13873 H 1313.16 -0.629712 1.84447 0
M  V30 13874 H 1312.25 -2.07897 2.32777 0
M  V30 13875 N 1312.55 -1.36459 -0.788468 0
M  V30 13876 C 1313.8 -1.30935 -1.54867 0
M  V30 13877 C 1314.13 0.110916 -1.93883 0
M  V30 13878 O 1313.41 1.06452 -1.62783 0
M  V30 13879 C 1313.69 -2.23294 -2.8251 0
M  V30 13880 C 1313.54 -3.74022 -2.49856 0
M  V30 13881 C 1314.86 -2.14407 -3.84341 0
M  V30 13882 H 1311.98 -0.476958 -0.561854 0
M  V30 13883 H 1314.62 -1.67018 -0.905805 0
M  V30 13884 H 1312.77 -1.92652 -3.37369 0
M  V30 13885 H 1314.44 -4.15187 -2.01041 0
M  V30 13886 H 1312.69 -3.93411 -1.82785 0
M  V30 13887 H 1313.36 -4.34057 -3.41026 0
M  V30 13888 H 1315.83 -2.41381 -3.38932 0
M  V30 13889 H 1314.71 -2.81199 -4.71401 0
M  V30 13890 H 1314.97 -1.13166 -4.27371 0
M  V30 13891 N 1314.03 1.01274 -1.20754 0
M  V30 13892 C 1315.26 1.7906 -1.04653 0
M  V30 13893 C 1315.68 1.83806 0.399632 0
M  V30 13894 O 1315.04 1.27596 1.28798 0
M  V30 13895 C 1315.09 3.21187 -1.63925 0
M  V30 13896 O 1314.19 4.02913 -0.879486 0
M  V30 13897 H 1313.53 0.552147 -0.368823 0
M  V30 13898 H 1316.06 1.27356 -1.6013 0
M  V30 13899 H 1316.07 3.71887 -1.67822 0
M  V30 13900 H 1314.75 3.17048 -2.69172 0
M  V30 13901 H 1313.32 3.61499 -0.915019 0
M  V30 13902 N 1315.51 1.01404 1.20644 0
M  V30 13903 C 1316.74 0.719995 1.93648 0
M  V30 13904 C 1317.15 -0.722872 1.74846 0
M  V30 13905 O 1316.49 -1.50172 1.05802 0
M  V30 13906 C 1316.55 0.972637 3.46092 0
M  V30 13907 C 1316.22 2.40412 3.88653 0
M  V30 13908 C 1317.21 3.38481 3.94622 0
M  V30 13909 C 1314.9 2.74418 4.20714 0
M  V30 13910 C 1316.89 4.68619 4.32059 0
M  V30 13911 C 1314.58 4.04769 4.57826 0
M  V30 13912 C 1315.58 5.01681 4.63471 0
M  V30 13913 O 1315.27 6.297 4.99733 0
M  V30 13914 H 1315 0.263849 0.622382 0
M  V30 13915 H 1317.55 1.35741 1.54154 0
M  V30 13916 H 1315.78 0.278057 3.85699 0
M  V30 13917 H 1317.47 0.670572 4.00323 0
M  V30 13918 H 1318.24 3.13545 3.7002 0
M  V30 13919 H 1314.12 1.99675 4.15513 0
M  V30 13920 H 1317.66 5.4426 4.3638 0
M  V30 13921 H 1313.56 4.29486 4.81884 0
M  V30 13922 H 1314.32 6.3395 5.17735 0
M  V30 13923 N 1316.99 -1.36373 0.789944 0
M  V30 13924 C 1318.24 -1.98834 0.361866 0
M  V30 13925 C 1318.56 -1.63006 -1.07024 0
M  V30 13926 O 1317.83 -0.904312 -1.73779 0
M  V30 13927 H 1316.41 -0.735457 0.130812 0
M  V30 13928 H 1319.07 -1.66561 1.0121 0
M  V30 13929 H 1318.16 -3.08778 0.454122 0
M  V30 13930 N 1318.47 -0.542005 -1.47987 0
M  V30 13931 C 1319.88 -0.104646 -1.86406 0
M  V30 13932 C 1320.23 1.32139 -1.4503 0
M  V30 13933 O 1319.35 1.99159 -0.846439 0
M  V30 13934 C 1319.95 -0.183133 -3.38305 0
M  V30 13935 C 1318.51 0.199098 -3.75873 0
M  V30 13936 C 1317.65 -0.537532 -2.7204 0
M  V30 13937 H 1320.6 -0.75259 -1.3972 0
M  V30 13938 H 1320.63 0.602149 -3.75705 0
M  V30 13939 H 1320.14 -1.22113 -3.68389 0
M  V30 13940 H 1318.24 1.23878 -3.51404 0
M  V30 13941 H 1318.35 -0.14888 -4.78869 0
M  V30 13942 H 1316.72 0.0176255 -2.54694 0
M  V30 13943 H 1317.5 -1.57639 -3.04967 0
M  V30 13944 N 1319.94 1.55134 -0.277709 0
M  V30 13945 C 1321.19 1.99259 0.337662 0
M  V30 13946 C 1321.51 1.16755 1.56183 0
M  V30 13947 O 1320.78 0.257707 1.94198 0
M  V30 13948 H 1319.36 0.735995 0.127751 0
M  V30 13949 H 1322.02 1.91087 -0.383646 0
M  V30 13950 H 1321.12 3.05763 0.625747 0
M  V30 13951 N 1321.42 0.00503138 1.57599 0
M  V30 13952 C 1322.84 -0.351109 1.5569 0
M  V30 13953 C 1323.04 -1.74465 1.00818 0
M  V30 13954 O 1322.09 -2.44144 0.64422 0
M  V30 13955 C 1323.41 -0.221738 2.99881 0
M  V30 13956 C 1324.95 -0.296303 3.11594 0
M  V30 13957 C 1325.43 -0.195998 4.5758 0
M  V30 13958 N 1326.92 -0.253741 4.62504 0
M  V30 13959 C 1327.66 -0.199546 5.73053 0
M  V30 13960 N 1327.15 -0.0956553 6.92734 0
M  V30 13961 N 1328.94 -0.251779 5.61536 0
M  V30 13962 H 1321.1 0.916578 1.91605 0
M  V30 13963 H 1323.36 0.351802 0.880306 0
M  V30 13964 H 1323.06 0.737255 3.43886 0
M  V30 13965 H 1322.94 -1.00178 3.63654 0
M  V30 13966 H 1325.33 -1.24574 2.67517 0
M  V30 13967 H 1325.41 0.513692 2.50589 0
M  V30 13968 H 1325.05 0.749918 5.02333 0
M  V30 13969 H 1324.98 -1.02455 5.16537 0
M  V30 13970 H 1327.47 -0.335163 3.76411 0
M  V30 13971 H 1327.78 -0.0603357 7.72776 0
M  V30 13972 H 1326.13 -0.0612113 6.94973 0
M  V30 13973 H 1329.32 -0.331173 4.66927 0
M  V30 13974 H 1329.49 -0.206078 6.47672 0
M  V30 13975 N 1322.9 -1.55308 -0.267798 0
M  V30 13976 C 1323.83 -1.84963 -1.35356 0
M  V30 13977 C 1324.84 -0.73446 -1.45291 0
M  V30 13978 O 1326.03 -1.01237 -1.47015 0
M  V30 13979 C 1323.13 -2.00221 -2.73432 0
M  V30 13980 C 1322.31 -3.30922 -2.86024 0
M  V30 13981 C 1321.37 -3.3618 -4.04808 0
M  V30 13982 O 1320.39 -4.09525 -3.9532 0
M  V30 13983 N 1321.59 -2.63958 -5.17017 0
M  V30 13984 H 1324.36 -2.7868 -1.1026 0
M  V30 13985 H 1321.92 -1.55289 -0.457914 0
M  V30 13986 H 1323.91 -2.01103 -3.51197 0
M  V30 13987 H 1322.48 -1.13346 -2.91327 0
M  V30 13988 H 1321.7 -3.42534 -1.951 0
M  V30 13989 H 1322.99 -4.17109 -2.91371 0
M  V30 13990 H 1322.39 -2.04062 -5.27613 0
M  V30 13991 H 1320.94 -2.70558 -5.92994 0
M  V30 13992 N 1324.38 0.532545 -1.4833 0
M  V30 13993 C 1325.6 1.31809 -1.60129 0
M  V30 13994 C 1326.03 1.86283 -0.260807 0
M  V30 13995 O 1325.39 1.6427 0.767137 0
M  V30 13996 C 1325.43 2.44661 -2.64903 0
M  V30 13997 O 1324.54 3.47622 -2.21885 0
M  V30 13998 H 1323.88 0.390492 -0.53704 0
M  V30 13999 H 1326.41 0.641068 -1.94297 0
M  V30 14000 H 1326.42 2.90883 -2.86096 0
M  V30 14001 H 1325.09 2.04373 -3.62222 0
M  V30 14002 H 1323.67 3.07536 -2.10894 0
M  V30 14003 N 1325.86 1.36875 0.78122 0
M  V30 14004 C 1326.79 1.34559 1.9083 0
M  V30 14005 C 1327.77 0.215713 1.68727 0
M  V30 14006 O 1328.95 0.41462 1.89722 0
M  V30 14007 C 1326.08 1.14233 3.27976 0
M  V30 14008 C 1325.04 2.24132 3.64621 0
M  V30 14009 C 1324.36 1.8894 5.00206 0
M  V30 14010 C 1325.66 3.66266 3.72353 0
M  V30 14011 H 1327.36 2.28871 1.93025 0
M  V30 14012 H 1324.9 1.10171 0.927275 0
M  V30 14013 H 1326.85 1.11246 4.06451 0
M  V30 14014 H 1325.58 0.163747 3.26189 0
M  V30 14015 H 1324.24 2.26259 2.88448 0
M  V30 14016 H 1323.89 0.896351 4.94949 0
M  V30 14017 H 1323.59 2.62525 5.25694 0
M  V30 14018 H 1325.11 1.87523 5.81092 0
M  V30 14019 H 1326.52 3.66321 4.41001 0
M  V30 14020 H 1324.92 4.38825 4.09332 0
M  V30 14021 H 1325.99 4.00578 2.7325 0
M  V30 14022 N 1327.33 -1.00632 1.21289 0
M  V30 14023 C 1328.75 -1.26744 0.969956 0
M  V30 14024 C 1328.95 -1.98534 -0.344449 0
M  V30 14025 O 1328.01 -2.28687 -1.07044 0
M  V30 14026 C 1329.32 -2.09238 2.15963 0
M  V30 14027 C 1330.87 -2.22469 2.20174 0
M  V30 14028 C 1331.34 -3.08344 3.38656 0
M  V30 14029 N 1332.83 -3.15932 3.38734 0
M  V30 14030 C 1333.57 -3.82632 4.2706 0
M  V30 14031 N 1333.06 -4.51371 5.25582 0
M  V30 14032 N 1334.86 -3.79259 4.14872 0
M  V30 14033 H 1327.01 -0.524626 2.05819 0
M  V30 14034 H 1329.27 -0.294231 0.901184 0
M  V30 14035 H 1328.98 -1.63835 3.11209 0
M  V30 14036 H 1328.85 -3.09987 2.14914 0
M  V30 14037 H 1331.24 -2.67091 1.25485 0
M  V30 14038 H 1331.32 -1.21194 2.25268 0
M  V30 14039 H 1330.96 -2.64425 4.33638 0
M  V30 14040 H 1330.89 -4.0973 3.30801 0
M  V30 14041 H 1333.38 -2.66998 2.67434 0
M  V30 14042 H 1333.7 -4.99966 5.89283 0
M  V30 14043 H 1332.04 -4.50162 5.29508 0
M  V30 14044 H 1335.23 -3.2471 3.37166 0
M  V30 14045 H 1335.41 -4.30963 4.83916 0
M  V30 14046 N 1328.81 -1.02043 -1.20104 0
M  V30 14047 C 1329.74 -0.614421 -2.25271 0
M  V30 14048 C 1330.72 0.37242 -1.65973 0
M  V30 14049 O 1331.91 0.257005 -1.92492 0
M  V30 14050 C 1329.04 0.0442085 -3.47272 0
M  V30 14051 C 1327.99 -0.864019 -4.19188 0
M  V30 14052 C 1327.32 -0.0709551 -5.34653 0
M  V30 14053 C 1328.62 -2.17385 -4.74912 0
M  V30 14054 H 1330.31 -1.49355 -2.59487 0
M  V30 14055 H 1327.86 -0.719591 -1.24731 0
M  V30 14056 H 1329.81 0.339825 -4.20028 0
M  V30 14057 H 1328.53 0.958082 -3.12231 0
M  V30 14058 H 1327.19 -1.1437 -3.48303 0
M  V30 14059 H 1326.84 0.844688 -4.95857 0
M  V30 14060 H 1326.54 -0.67583 -5.83701 0
M  V30 14061 H 1328.07 0.218118 -6.1021 0
M  V30 14062 H 1329.48 -1.94034 -5.39466 0
M  V30 14063 H 1327.88 -2.72991 -5.34412 0
M  V30 14064 H 1328.95 -2.83427 -3.93443 0
M  V30 14065 N 1330.29 1.35952 -0.797165 0
M  V30 14066 C 1331.54 1.99327 -0.373695 0
M  V30 14067 C 1331.87 1.63111 1.05396 0
M  V30 14068 O 1331.14 0.889736 1.72956 0
M  V30 14069 C 1331.43 3.5593 -0.54641 0
M  V30 14070 C 1331.28 4.01975 -2.01832 0
M  V30 14071 C 1332.6 4.40087 0.0337694 0
M  V30 14072 H 1329.72 0.724107 -0.137254 0
M  V30 14073 H 1332.36 1.61248 -1.00495 0
M  V30 14074 H 1330.51 3.88499 -0.00903959 0
M  V30 14075 H 1332.18 3.79859 -2.61735 0
M  V30 14076 H 1330.43 3.5323 -2.51815 0
M  V30 14077 H 1331.1 5.109 -2.09009 0
M  V30 14078 H 1333.57 4.13923 -0.425039 0
M  V30 14079 H 1332.45 5.48775 -0.117054 0
M  V30 14080 H 1332.71 4.27504 1.12661 0
M  V30 14081 N 1331.77 0.549846 1.47697 0
M  V30 14082 C 1332.7 -0.249645 2.2683 0
M  V30 14083 C 1333.68 -0.926968 1.33589 0
M  V30 14084 O 1334.86 -0.947423 1.62961 0
M  V30 14085 C 1331.99 -1.35511 3.1041 0
M  V30 14086 C 1331.04 -0.787118 4.19174 0
M  V30 14087 S 1331.87 0.360564 5.34285 0
M  V30 14088 C 1333.03 -0.746898 6.21428 0
M  V30 14089 H 1333.26 0.421876 2.94292 0
M  V30 14090 H 1330.79 0.336017 1.50699 0
M  V30 14091 H 1332.75 -1.98825 3.59137 0
M  V30 14092 H 1331.41 -1.99844 2.42325 0
M  V30 14093 H 1330.6 -1.61704 4.77355 0
M  V30 14094 H 1330.21 -0.230301 3.7329 0
M  V30 14095 H 1332.5 -1.6408 6.57331 0
M  V30 14096 H 1333.44 -0.202608 7.0781 0
M  V30 14097 H 1333.85 -1.03625 5.54907 0
M  V30 14098 N 1333.25 -1.54984 0.285932 0
M  V30 14099 C 1334.16 -2.26621 -0.606648 0
M  V30 14100 C 1335.17 -1.29595 -1.16108 0
M  V30 14101 O 1336.35 -1.62551 -1.18908 0
M  V30 14102 C 1333.41 -2.98156 -1.76929 0
M  V30 14103 C 1332.47 -4.10685 -1.25045 0
M  V30 14104 C 1331.71 -4.788 -2.35768 0
M  V30 14105 O 1331.93 -4.46183 -3.55354 0
M  V30 14106 O 1330.86 -5.66523 -2.03312 0
M  V30 14107 H 1334.69 -3.03689 -0.0259981 0
M  V30 14108 H 1332.28 -1.49306 0.0529355 0
M  V30 14109 H 1334.16 -3.43076 -2.44697 0
M  V30 14110 H 1332.83 -2.23996 -2.33683 0
M  V30 14111 H 1331.74 -3.70198 -0.538919 0
M  V30 14112 H 1333.07 -4.86778 -0.728528 0
M  V30 14113 N 1334.72 -0.0133892 -1.57594 0
M  V30 14114 C 1335.95 0.67827 -1.95149 0
M  V30 14115 C 1336.36 1.67089 -0.887572 0
M  V30 14116 O 1335.71 1.8316 0.140774 0
M  V30 14117 C 1335.77 1.45441 -3.28766 0
M  V30 14118 C 1335.43 0.621889 -4.52749 0
M  V30 14119 C 1336.43 -0.0961541 -5.19811 0
M  V30 14120 C 1334.11 0.563917 -4.99124 0
M  V30 14121 C 1336.11 -0.86101 -6.31558 0
M  V30 14122 C 1333.79 -0.204654 -6.10757 0
M  V30 14123 C 1334.79 -0.915839 -6.76832 0
M  V30 14124 O 1334.48 -1.67184 -7.86323 0
M  V30 14125 H 1334.21 0.192983 -0.647869 0
M  V30 14126 H 1336.77 -0.0646816 -2.05298 0
M  V30 14127 H 1335 2.24215 -3.15063 0
M  V30 14128 H 1336.69 2.03268 -3.51336 0
M  V30 14129 H 1337.45 -0.0606029 -4.84962 0
M  V30 14130 H 1333.33 1.10702 -4.47511 0
M  V30 14131 H 1336.87 -1.41664 -6.83064 0
M  V30 14132 H 1332.77 -0.241979 -6.45046 0
M  V30 14133 H 1333.54 -1.58996 -8.02909 0
M  V30 14134 N 1336.2 1.55448 0.259558 0
M  V30 14135 C 1337.13 1.9226 1.32508 0
M  V30 14136 C 1338.11 0.786012 1.5085 0
M  V30 14137 O 1339.3 1.04526 1.6367 0
M  V30 14138 C 1336.43 2.20627 2.68218 0
M  V30 14139 C 1335.38 3.36418 2.64589 0
M  V30 14140 C 1334.71 3.50295 4.03977 0
M  V30 14141 C 1336.01 4.72452 2.2268 0
M  V30 14142 H 1337.7 2.81509 1.01945 0
M  V30 14143 H 1335.25 1.35444 0.488965 0
M  V30 14144 H 1337.2 2.44968 3.42883 0
M  V30 14145 H 1335.93 1.28191 3.00391 0
M  V30 14146 H 1334.58 3.12065 1.92382 0
M  V30 14147 H 1334.23 2.55302 4.33394 0
M  V30 14148 H 1333.93 4.28155 4.02439 0
M  V30 14149 H 1335.46 3.76944 4.8036 0
M  V30 14150 H 1336.87 4.96249 2.87071 0
M  V30 14151 H 1335.27 5.53323 2.32279 0
M  V30 14152 H 1336.34 4.70367 1.17826 0
M  V30 14153 N 1337.68 -0.524672 1.4861 0
M  V30 14154 C 1339.09 -1.10655 1.50374 0
M  V30 14155 C 1339.44 -1.94242 0.276512 0
M  V30 14156 O 1338.57 -2.07451 -0.615887 0
M  V30 14157 C 1339.16 -2.01348 2.72478 0
M  V30 14158 C 1337.72 -2.54743 2.77097 0
M  V30 14159 C 1336.87 -1.31822 2.43964 0
M  V30 14160 H 1339.82 -0.309674 1.55649 0
M  V30 14161 H 1339.84 -2.85709 2.51297 0
M  V30 14162 H 1339.35 -1.40485 3.61781 0
M  V30 14163 H 1337.45 -3.19313 1.92016 0
M  V30 14164 H 1337.57 -2.93514 3.78664 0
M  V30 14165 H 1335.93 -1.63574 1.95233 0
M  V30 14166 H 1336.71 -0.727026 3.35513 0
M  V30 14167 N 1339.16 -1.37287 -0.77395 0
M  V30 14168 C 1340.38 -1.35734 -1.56815 0
M  V30 14169 C 1340.81 0.0555546 -1.88018 0
M  V30 14170 O 1340.17 1.03197 -1.49064 0
M  V30 14171 C 1340.21 -2.2008 -2.85652 0
M  V30 14172 O 1339.32 -1.60391 -3.79932 0
M  V30 14173 H 1338.66 -0.463881 -0.47509 0
M  V30 14174 H 1341.19 -1.80781 -0.958087 0
M  V30 14175 H 1341.2 -2.33215 -3.34776 0
M  V30 14176 H 1339.87 -3.22781 -2.6227 0
M  V30 14177 H 1338.45 -1.56285 -3.3857 0
M  V30 14178 N 1340.64 0.999871 -1.21821 0
M  V30 14179 C 1341.88 1.73497 -1.0365 0
M  V30 14180 C 1342.21 1.90194 0.430271 0
M  V30 14181 O 1341.48 1.45655 1.31002 0
M  V30 14182 H 1340.06 0.642804 -0.380541 0
M  V30 14183 H 1342.72 1.20461 -1.53216 0
M  V30 14184 H 1341.81 2.73215 -1.50864 0
M  V30 14185 N 1342.11 1.02678 1.19562 0
M  V30 14186 C 1343.35 0.7307 1.90893 0
M  V30 14187 C 1343.72 -0.727166 1.77697 0
M  V30 14188 O 1344.92 -1.13623 2.43605 0
M  V30 14189 C 1343.19 1.16683 3.37816 0
M  V30 14190 S 1344.75 0.994271 4.27387 0
M  V30 14191 H 1341.57 0.266082 0.659334 0
M  V30 14192 H 1344.17 1.31617 1.44558 0
M  V30 14193 H 1342.87 2.22354 3.44945 0
M  V30 14194 H 1342.4 0.574559 3.89182 0
M  V30 14195 H 1344.42 -0.0963871 4.96106 0
M  V30 14196 N 1343.59 -1.35528 0.804364 0
M  V30 14197 C 1344.52 -2.32388 0.227604 0
M  V30 14198 C 1345.5 -1.57368 -0.645709 0
M  V30 14199 O 1346.69 -1.85448 -0.576441 0
M  V30 14200 C 1343.82 -3.41603 -0.62645 0
M  V30 14201 C 1342.77 -4.27743 0.148187 0
M  V30 14202 C 1342.1 -5.28259 -0.827425 0
M  V30 14203 C 1343.4 -5.04661 1.34591 0
M  V30 14204 H 1345.09 -2.80874 1.03684 0
M  V30 14205 H 1342.64 -1.3504 0.500031 0
M  V30 14206 H 1344.59 -4.08365 -1.03999 0
M  V30 14207 H 1343.32 -2.91721 -1.46855 0
M  V30 14208 H 1341.97 -3.62558 0.542874 0
M  V30 14209 H 1341.62 -4.74645 -1.66496 0
M  V30 14210 H 1341.32 -5.86763 -0.313453 0
M  V30 14211 H 1342.85 -5.97893 -1.23921 0
M  V30 14212 H 1344.26 -5.6438 1.00736 0
M  V30 14213 H 1342.66 -5.7265 1.79422 0
M  V30 14214 H 1343.73 -4.35432 2.1337 0
M  V30 14215 N 1345.07 -0.557671 -1.47404 0
M  V30 14216 C 1346.49 -0.217473 -1.58111 0
M  V30 14217 C 1346.69 1.28 -1.55622 0
M  V30 14218 O 1345.74 2.06019 -1.45988 0
M  V30 14219 C 1347.06 -0.844535 -2.88597 0
M  V30 14220 C 1348.6 -0.815807 -3.02181 0
M  V30 14221 C 1349.08 -1.42195 -4.35367 0
M  V30 14222 N 1350.57 -1.38515 -4.42004 0
M  V30 14223 C 1351.31 -1.82378 -5.43623 0
M  V30 14224 N 1350.8 -2.34098 -6.52051 0
M  V30 14225 N 1352.59 -1.73446 -5.34671 0
M  V30 14226 H 1344.75 -1.53058 -1.47265 0
M  V30 14227 H 1347.01 -0.638305 -0.700907 0
M  V30 14228 H 1346.71 -1.89696 -2.96156 0
M  V30 14229 H 1346.59 -0.337844 -3.75684 0
M  V30 14230 H 1348.98 0.227925 -2.94218 0
M  V30 14231 H 1349.06 -1.36026 -2.16635 0
M  V30 14232 H 1348.7 -2.46475 -4.44086 0
M  V30 14233 H 1348.63 -0.852932 -5.19647 0
M  V30 14234 H 1351.12 -1.00684 -3.64241 0
M  V30 14235 H 1351.43 -2.6549 -7.25765 0
M  V30 14236 H 1349.78 -2.38109 -6.52939 0
M  V30 14237 H 1352.97 -1.32816 -4.48862 0
M  V30 14238 H 1353.14 -2.07947 -6.13728 0
M  V30 14239 N 1346.55 1.54831 -0.294147 0
M  V30 14240 C 1347.83 1.92071 0.369902 0
M  V30 14241 C 1348.21 1.22061 1.72233 0
M  V30 14242 O 1347.55 0.353975 2.25742 0
M  V30 14243 C 1347.76 3.45524 0.49135 0
M  V30 14244 C 1349.11 4.17644 0.765411 0
M  V30 14245 O 1350.14 3.51521 0.575428 0
M  V30 14246 O 1349 5.34692 1.12992 0
M  V30 14247 H 1346.09 0.801033 0.20561 0
M  V30 14248 H 1348.64 1.66224 -0.341702 0
M  V30 14249 H 1347.41 3.88591 -0.459663 0
M  V30 14250 H 1347.03 3.77384 1.25169 0
M  V30 14251 N 1348.03 0.0217466 1.57585 0
M  V30 14252 C 1349.27 -0.658487 1.91495 0
M  V30 14253 C 1349.6 -1.72557 0.897462 0
M  V30 14254 O 1348.86 -1.95471 -0.0946909 0
M  V30 14255 C 1349.16 -1.3197 3.32143 0
M  V30 14256 C 1348.82 -0.383706 4.49264 0
M  V30 14257 C 1347.48 -0.126065 4.81035 0
M  V30 14258 C 1349.84 0.259445 5.20554 0
M  V30 14259 C 1347.16 0.782659 5.81456 0
M  V30 14260 C 1349.52 1.15618 6.21945 0
M  V30 14261 C 1348.18 1.42278 6.5216 0
M  V30 14262 H 1347.45 -0.240958 0.700729 0
M  V30 14263 H 1350.1 0.0819351 1.91325 0
M  V30 14264 H 1348.4 -2.13469 3.28539 0
M  V30 14265 H 1350.1 -1.85245 3.55648 0
M  V30 14266 H 1346.69 -0.59469 4.24454 0
M  V30 14267 H 1350.87 0.073445 4.96246 0
M  V30 14268 H 1346.13 0.996995 6.03216 0
M  V30 14269 H 1350.3 1.66077 6.76307 0
M  V30 14270 H 1347.93 2.1286 7.29791 0
M  V30 14271 N 1349.51 -1.55583 -0.251311 0
M  V30 14272 C 1350.44 -1.9296 -1.31486 0
M  V30 14273 C 1351.42 -0.794001 -1.50431 0
M  V30 14274 O 1352.6 -1.05393 -1.63113 0
M  V30 14275 C 1349.73 -2.22046 -2.67045 0
M  V30 14276 C 1348.69 -3.37816 -2.62801 0
M  V30 14277 C 1348.01 -3.52433 -4.02113 0
M  V30 14278 C 1349.31 -4.73626 -2.20171 0
M  V30 14279 H 1351.01 -2.82046 -1.00451 0
M  V30 14280 H 1348.55 -1.35702 -0.481775 0
M  V30 14281 H 1350.5 -2.46783 -3.41579 0
M  V30 14282 H 1349.23 -1.29782 -2.99707 0
M  V30 14283 H 1347.89 -3.13081 -1.90724 0
M  V30 14284 H 1347.54 -2.57597 -4.32034 0
M  V30 14285 H 1347.24 -4.30283 -4.00163 0
M  V30 14286 H 1348.76 -3.79486 -4.78354 0
M  V30 14287 H 1350.17 -4.97764 -2.84436 0
M  V30 14288 H 1348.57 -5.54547 -2.29341 0
M  V30 14289 H 1349.64 -4.70985 -1.1533 0
M  V30 14290 N 1350.98 0.516783 -1.48886 0
M  V30 14291 C 1351.92 1.63632 -1.60491 0
M  V30 14292 C 1352.93 1.55301 -0.488424 0
M  V30 14293 O 1354.12 1.6152 -0.75983 0
M  V30 14294 C 1351.22 3.02351 -1.53093 0
M  V30 14295 C 1350.39 3.36028 -2.80006 0
M  V30 14296 C 1349.45 4.54087 -2.65879 0
M  V30 14297 O 1348.48 4.56652 -3.3979 0
M  V30 14298 N 1349.68 5.53058 -1.76372 0
M  V30 14299 H 1352.44 1.54109 -2.57042 0
M  V30 14300 H 1350 0.704338 -1.45776 0
M  V30 14301 H 1352 3.79225 -1.41318 0
M  V30 14302 H 1350.57 3.05881 -0.644637 0
M  V30 14303 H 1349.79 2.48204 -3.06249 0
M  V30 14304 H 1351.07 3.5532 -3.64177 0
M  V30 14305 H 1350.47 5.53773 -1.1555 0
M  V30 14306 H 1349.03 6.29097 -1.70529 0
M  V30 14307 N 1352.46 1.37696 0.766659 0
M  V30 14308 C 1353.88 1.18607 1.06792 0
M  V30 14309 C 1354.08 0.0257195 2.01484 0
M  V30 14310 O 1353.13 -0.632608 2.44447 0
M  V30 14311 C 1354.45 2.50692 1.66054 0
M  V30 14312 C 1355.99 2.57259 1.78288 0
M  V30 14313 C 1356.47 3.89488 2.40963 0
M  V30 14314 N 1357.96 3.90957 2.48408 0
M  V30 14315 C 1358.7 4.90023 2.97767 0
M  V30 14316 N 1358.19 5.99485 3.4726 0
M  V30 14317 N 1359.98 4.77423 2.96688 0
M  V30 14318 H 1352.14 2.11951 0.138031 0
M  V30 14319 H 1354.4 0.939873 0.123863 0
M  V30 14320 H 1354.1 3.35989 1.03945 0
M  V30 14321 H 1353.98 2.68148 2.65286 0
M  V30 14322 H 1356.37 1.72366 2.39528 0
M  V30 14323 H 1356.45 2.43682 0.777981 0
M  V30 14324 H 1356.09 4.74797 1.8036 0
M  V30 14325 H 1356.02 4.0037 3.42069 0
M  V30 14326 H 1358.51 3.11888 2.13388 0
M  V30 14327 H 1358.82 6.71022 3.8334 0
M  V30 14328 H 1357.17 6.03123 3.45351 0
M  V30 14329 H 1360.36 3.91026 2.57325 0
M  V30 14330 H 1360.53 5.54783 3.34844 0
M  V30 14331 N 1353.94 -0.993397 1.22349 0
M  V30 14332 C 1354.89 -2.06784 0.960445 0
M  V30 14333 C 1355.87 -1.60655 -0.0887385 0
M  V30 14334 O 1357.07 -1.76581 0.121716 0
M  V30 14335 C 1354.19 -3.39034 0.539552 0
M  V30 14336 C 1353.28 -3.91798 1.62344 0
M  V30 14337 N 1353.67 -4.17791 2.85104 0
M  V30 14338 C 1351.97 -4.20197 1.49501 0
M  V30 14339 C 1352.67 -4.6067 3.55187 0
M  V30 14340 N 1351.65 -4.64333 2.82658 0
M  V30 14341 H 1355.45 -2.24821 1.89295 0
M  V30 14342 H 1352.96 -1.17509 1.12095 0
M  V30 14343 H 1354.96 -4.15573 0.332419 0
M  V30 14344 H 1353.62 -3.22397 -0.38606 0
M  V30 14345 H 1354.63 -4.05999 3.21536 0
M  V30 14346 H 1351.31 -4.12634 0.635546 0
M  V30 14347 H 1352.7 -4.89408 4.60358 0
M  V30 14348 N 1355.42 -1.03311 -1.19015 0
M  V30 14349 C 1356.83 -0.750946 -1.4083 0
M  V30 14350 C 1357.03 0.662704 -1.90291 0
M  V30 14351 O 1356.09 1.42806 -2.08237 0
M  V30 14352 C 1357.4 -1.79064 -2.41571 0
M  V30 14353 C 1358.95 -1.81068 -2.55311 0
M  V30 14354 C 1359.43 -2.84008 -3.59309 0
M  V30 14355 N 1360.92 -2.82852 -3.6681 0
M  V30 14356 C 1361.65 -3.59156 -4.46984 0
M  V30 14357 N 1361.15 -4.45188 -5.30829 0
M  V30 14358 N 1362.94 -3.47679 -4.41674 0
M  V30 14359 H 1355.09 -1.94548 -0.852329 0
M  V30 14360 H 1357.35 -0.841344 -0.436858 0
M  V30 14361 H 1357.06 -2.80425 -2.12261 0
M  V30 14362 H 1356.93 -1.61646 -3.40809 0
M  V30 14363 H 1359.32 -0.803825 -2.83941 0
M  V30 14364 H 1359.4 -2.02562 -1.56212 0
M  V30 14365 H 1359.05 -3.84867 -3.3142 0
M  V30 14366 H 1358.98 -2.59771 -4.58069 0
M  V30 14367 H 1361.47 -2.20457 -3.06932 0
M  V30 14368 H 1361.78 -5.00139 -5.89135 0
M  V30 14369 H 1360.13 -4.49259 -5.30275 0
M  V30 14370 H 1363.32 -2.79876 -3.75216 0
M  V30 14371 H 1363.49 -4.07396 -5.03917 0
M  V30 14372 N 1356.9 1.35099 -0.81154 0
M  V30 14373 C 1357.86 2.28033 -0.230947 0
M  V30 14374 C 1358.86 1.49798 0.584575 0
M  V30 14375 O 1360.05 1.6949 0.402336 0
M  V30 14376 C 1357.18 3.341 0.677486 0
M  V30 14377 H 1358.37 2.80893 -1.05067 0
M  V30 14378 H 1355.93 1.45038 -0.582554 0
M  V30 14379 H 1356.66 2.86435 1.5207 0
M  V30 14380 H 1356.45 3.91986 0.0943563 0
M  V30 14381 H 1357.94 4.0345 1.07787 0
M  V30 14382 N 1358.37 0.56548 1.47106 0
M  V30 14383 C 1359.79 0.225855 1.57994 0
M  V30 14384 C 1359.99 -1.27173 1.56299 0
M  V30 14385 O 1359.05 -2.05242 1.47078 0
M  V30 14386 C 1360.36 0.859829 2.88145 0
M  V30 14387 C 1361.91 0.831821 3.01744 0
M  V30 14388 C 1362.38 1.44502 4.34607 0
M  V30 14389 N 1363.87 1.40857 4.41263 0
M  V30 14390 C 1364.61 1.85258 5.42648 0
M  V30 14391 N 1364.1 2.37553 6.508 0
M  V30 14392 N 1365.9 1.76279 5.33744 0
M  V30 14393 H 1358.05 1.53837 1.46451 0
M  V30 14394 H 1360.31 0.642013 0.697512 0
M  V30 14395 H 1360.02 1.91264 2.95146 0
M  V30 14396 H 1359.89 0.357762 3.755 0
M  V30 14397 H 1362.28 -0.212319 2.94335 0
M  V30 14398 H 1362.36 1.37173 2.1591 0
M  V30 14399 H 1362 2.48827 4.42773 0
M  V30 14400 H 1361.93 0.880479 5.19187 0
M  V30 14401 H 1364.42 1.02614 3.63702 0
M  V30 14402 H 1364.74 2.69335 7.24347 0
M  V30 14403 H 1363.08 2.41569 6.51667 0
M  V30 14404 H 1366.27 1.35195 4.48152 0
M  V30 14405 H 1366.45 2.11199 6.12616 0
M  V30 14406 N 1359.85 -1.54672 0.302354 0
M  V30 14407 C 1360.78 -2.2653 -0.566265 0
M  V30 14408 C 1361.76 -1.26532 -1.13682 0
M  V30 14409 O 1362.95 -1.55307 -1.1659 0
M  V30 14410 C 1360.08 -3.00709 -1.73757 0
M  V30 14411 C 1359.03 -4.07865 -1.29731 0
M  V30 14412 C 1358.36 -4.69767 -2.55388 0
M  V30 14413 C 1359.66 -5.20547 -0.427567 0
M  V30 14414 H 1361.35 -2.99382 0.033071 0
M  V30 14415 H 1358.9 -1.4399 0.0173458 0
M  V30 14416 H 1360.85 -3.497 -2.35134 0
M  V30 14417 H 1359.58 -2.25437 -2.36317 0
M  V30 14418 H 1358.23 -3.59726 -0.706586 0
M  V30 14419 H 1357.88 -3.91134 -3.16265 0
M  V30 14420 H 1357.58 -5.42137 -2.26631 0
M  V30 14421 H 1359.11 -5.21521 -3.17566 0
M  V30 14422 H 1360.52 -5.65424 -0.947053 0
M  V30 14423 H 1358.92 -5.99645 -0.233704 0
M  V30 14424 H 1359.99 -4.81805 0.546993 0
M  V30 14425 N 1361.33 -0.0301034 -1.57571 0
M  V30 14426 C 1362.61 0.68703 -1.83137 0
M  V30 14427 C 1362.99 1.90277 -0.914216 0
M  V30 14428 O 1362.34 2.2848 0.0299358 0
M  V30 14429 C 1362.55 1.06431 -3.32375 0
M  V30 14430 C 1363.89 1.45554 -3.98873 0
M  V30 14431 O 1364.92 1.15727 -3.36877 0
M  V30 14432 O 1363.78 2.01133 -5.08142 0
M  V30 14433 H 1360.87 0.337141 -0.755159 0
M  V30 14434 H 1363.42 -0.0578604 -1.69601 0
M  V30 14435 H 1362.19 0.199077 -3.90793 0
M  V30 14436 H 1361.81 1.86734 -3.51022 0
M  V30 14437 N 1362.81 1.55714 0.243056 0
M  V30 14438 C 1363.77 1.89832 1.28438 0
M  V30 14439 C 1364.77 0.775083 1.40887 0
M  V30 14440 O 1365.96 1.04304 1.39521 0
M  V30 14441 C 1363.09 2.13016 2.66153 0
M  V30 14442 H 1364.29 2.82947 0.994022 0
M  V30 14443 H 1361.84 1.48665 0.482521 0
M  V30 14444 H 1362.57 1.22381 3.00322 0
M  V30 14445 H 1362.36 2.94824 2.58498 0
M  V30 14446 H 1363.85 2.40581 3.41336 0
M  V30 14447 N 1364.29 -0.50888 1.49158 0
M  V30 14448 C 1365.51 -1.29245 1.62205 0
M  V30 14449 C 1365.94 -1.85845 0.29041 0
M  V30 14450 O 1365.29 -1.6547 -0.740906 0
M  V30 14451 C 1365.34 -2.40415 2.68762 0
M  V30 14452 O 1364.45 -3.44048 2.27387 0
M  V30 14453 H 1363.79 -0.381898 0.543185 0
M  V30 14454 H 1366.32 -0.610076 1.95293 0
M  V30 14455 H 1366.33 -2.86295 2.90688 0
M  V30 14456 H 1365 -1.98584 3.65427 0
M  V30 14457 H 1363.58 -3.04141 2.1576 0
M  V30 14458 N 1365.76 -1.381 -0.759346 0
M  V30 14459 C 1367.18 -1.19171 -1.06162 0
M  V30 14460 C 1367.38 -0.0364043 -2.01467 0
M  V30 14461 O 1366.44 0.619635 -2.44779 0
M  V30 14462 C 1367.75 -2.51569 -1.64723 0
M  V30 14463 C 1369.3 -2.58201 -1.76921 0
M  V30 14464 C 1369.77 -3.9076 -2.38894 0
M  V30 14465 N 1371.26 -3.92269 -2.46331 0
M  V30 14466 C 1372 -4.91595 -2.95164 0
M  V30 14467 N 1371.49 -6.01318 -3.44075 0
M  V30 14468 N 1373.29 -4.7899 -2.94152 0
M  V30 14469 H 1365.44 -2.12021 -0.126788 0
M  V30 14470 H 1367.7 -0.940517 -0.118877 0
M  V30 14471 H 1367.41 -3.36535 -1.02162 0
M  V30 14472 H 1367.28 -2.69551 -2.6386 0
M  V30 14473 H 1369.67 -1.73634 -2.38611 0
M  V30 14474 H 1369.75 -2.44092 -0.765047 0
M  V30 14475 H 1369.39 -4.75747 -1.7784 0
M  V30 14476 H 1369.32 -4.02179 -3.39941 0
M  V30 14477 H 1371.81 -3.13015 -2.11731 0
M  V30 14478 H 1372.13 -6.73046 -3.79776 0
M  V30 14479 H 1370.47 -6.04946 -3.42148 0
M  V30 14480 H 1373.66 -3.92385 -2.55248 0
M  V30 14481 H 1373.84 -5.5655 -3.31897 0
M  V30 14482 N 1367.24 0.986894 -1.22875 0
M  V30 14483 C 1368.17 2.09628 -1.0285 0
M  V30 14484 C 1369.15 1.70019 0.0525118 0
M  V30 14485 O 1370.34 1.93883 -0.110874 0
M  V30 14486 C 1367.47 3.41866 -0.61194 0
M  V30 14487 C 1366.42 3.95351 -1.63956 0
M  V30 14488 C 1365.75 5.23707 -1.07865 0
M  V30 14489 C 1367.05 4.25354 -3.03102 0
M  V30 14490 H 1368.74 2.26639 -1.95641 0
M  V30 14491 H 1366.29 1.0891 -0.942048 0
M  V30 14492 H 1368.24 4.18893 -0.458936 0
M  V30 14493 H 1366.97 3.24701 0.35164 0
M  V30 14494 H 1365.62 3.20462 -1.78045 0
M  V30 14495 H 1365.27 5.02888 -0.106246 0
M  V30 14496 H 1364.97 5.60459 -1.76522 0
M  V30 14497 H 1366.5 6.03362 -0.937359 0
M  V30 14498 H 1367.91 4.93156 -2.92353 0
M  V30 14499 H 1366.31 4.73292 -3.68938 0
M  V30 14500 H 1367.38 3.32887 -3.52583 0
M  V30 14501 N 1368.72 1.0394 1.18466 0
M  V30 14502 C 1369.65 0.650182 2.24265 0
M  V30 14503 C 1370.63 -0.345968 1.66545 0
M  V30 14504 O 1371.82 -0.226348 1.92876 0
M  V30 14505 C 1368.95 0.0110451 3.47298 0
M  V30 14506 C 1367.9 0.930599 4.17761 0
M  V30 14507 C 1367.23 0.156005 5.34472 0
M  V30 14508 C 1368.53 2.24913 4.71393 0
M  V30 14509 H 1370.22 1.53465 2.57078 0
M  V30 14510 H 1367.77 0.739343 1.23571 0
M  V30 14511 H 1369.72 -0.272959 4.20515 0
M  V30 14512 H 1368.44 -0.908288 3.13716 0
M  V30 14513 H 1367.1 1.19897 3.4644 0
M  V30 14514 H 1366.75 -0.765695 4.97138 0
M  V30 14515 H 1366.45 0.768606 5.82551 0
M  V30 14516 H 1367.97 -0.121011 6.1048 0
M  V30 14517 H 1369.39 2.02592 5.36311 0
M  V30 14518 H 1367.79 2.81459 5.30001 0
M  V30 14519 H 1368.86 2.8965 3.88884 0
M  V30 14520 N 1370.2 -1.34667 0.818693 0
M  V30 14521 C 1371.13 -2.32134 0.252239 0
M  V30 14522 C 1372.11 -1.58044 -0.628982 0
M  V30 14523 O 1373.29 -1.86049 -0.55674 0
M  V30 14524 C 1370.42 -3.42249 -0.590183 0
M  V30 14525 C 1369.38 -4.27562 0.193547 0
M  V30 14526 C 1368.7 -5.29107 -0.771349 0
M  V30 14527 C 1370 -5.03205 1.39936 0
M  V30 14528 H 1371.7 -2.79758 1.06657 0
M  V30 14529 H 1369.24 -1.34502 0.514325 0
M  V30 14530 H 1371.2 -4.09445 -0.996616 0
M  V30 14531 H 1369.92 -2.93262 -1.43752 0
M  V30 14532 H 1368.58 -3.61962 0.581297 0
M  V30 14533 H 1368.23 -4.76384 -1.61453 0
M  V30 14534 H 1367.93 -5.87063 -0.251201 0
M  V30 14535 H 1369.45 -5.99174 -1.17573 0
M  V30 14536 H 1370.87 -5.6328 1.06717 0
M  V30 14537 H 1369.26 -5.70715 1.85485 0
M  V30 14538 H 1370.33 -4.33145 2.17976 0
M  V30 14539 N 1371.68 -0.573274 -1.46804 0
M  V30 14540 C 1372.91 -0.0605105 -2.06511 0
M  V30 14541 C 1373.31 1.24572 -1.42403 0
M  V30 14542 O 1372.66 1.76182 -0.520168 0
M  V30 14543 C 1372.72 0.189394 -3.59001 0
M  V30 14544 C 1372.38 -1.02981 -4.45246 0
M  V30 14545 C 1373.38 -1.93948 -4.82369 0
M  V30 14546 C 1371.07 -1.249 -4.86524 0
M  V30 14547 C 1373.06 -3.0519 -5.59587 0
M  V30 14548 C 1370.75 -2.36449 -5.63503 0
M  V30 14549 C 1371.74 -3.26424 -5.99947 0
M  V30 14550 O 1371.43 -4.36037 -6.75372 0
M  V30 14551 H 1371.16 -0.0501758 -0.674135 0
M  V30 14552 H 1373.72 -0.790951 -1.8956 0
M  V30 14553 H 1371.95 0.974337 -3.74224 0
M  V30 14554 H 1373.64 0.649506 -4.0067 0
M  V30 14555 H 1374.4 -1.78226 -4.51066 0
M  V30 14556 H 1370.28 -0.55779 -4.57613 0
M  V30 14557 H 1373.83 -3.75444 -5.87952 0
M  V30 14558 H 1369.72 -2.52138 -5.94219 0
M  V30 14559 H 1370.49 -4.34285 -6.93786 0
M  V30 14560 N 1373.15 1.5451 -0.310553 0
M  V30 14561 C 1374.38 2.05204 0.301013 0
M  V30 14562 C 1374.8 1.1859 1.46007 0
M  V30 14563 O 1374.16 0.192081 1.8028 0
M  V30 14564 C 1374.21 3.53221 0.725767 0
M  V30 14565 O 1373.31 3.69596 1.82955 0
M  V30 14566 H 1372.66 0.661566 0.0568026 0
M  V30 14567 H 1375.19 1.99473 -0.455178 0
M  V30 14568 H 1375.2 3.9525 1.01198 0
M  V30 14569 H 1373.87 4.15721 -0.122046 0
M  V30 14570 H 1372.45 3.39472 1.54315 0
M  V30 14571 N 1374.63 0.0384594 1.57553 0
M  V30 14572 C 1375.86 -0.651613 1.96898 0
M  V30 14573 C 1376.28 -1.64328 0.915308 0
M  V30 14574 O 1375.64 -1.80883 -0.122824 0
M  V30 14575 C 1375.69 -1.32613 3.3533 0
M  V30 14576 O 1374.79 -2.44159 3.32355 0
M  V30 14577 H 1374.13 -0.170441 0.641752 0
M  V30 14578 H 1376.66 0.103086 2.0434 0
M  V30 14579 H 1376.67 -1.68076 3.71772 0
M  V30 14580 H 1375.35 -0.599275 4.1156 0
M  V30 14581 H 1373.93 -2.10738 3.07642 0
M  V30 14582 N 1376.11 -1.55841 -0.234795 0
M  V30 14583 C 1377.04 -1.87793 -1.31402 0
M  V30 14584 C 1378.06 -0.765113 -1.43701 0
M  V30 14585 O 1379.25 -1.04332 -1.44834 0
M  V30 14586 C 1376.35 -2.05976 -2.69123 0
M  V30 14587 C 1375.52 -3.36914 -2.7894 0
M  V30 14588 C 1374.58 -3.44691 -3.97586 0
M  V30 14589 O 1373.6 -4.17818 -3.86545 0
M  V30 14590 N 1374.81 -2.74866 -5.11301 0
M  V30 14591 H 1377.57 -2.80957 -1.04324 0
M  V30 14592 H 1375.13 -1.56226 -0.424872 0
M  V30 14593 H 1377.12 -2.08507 -3.46853 0
M  V30 14594 H 1375.69 -1.195 -2.88857 0
M  V30 14595 H 1374.91 -3.46595 -1.87791 0
M  V30 14596 H 1376.2 -4.23196 -2.82458 0
M  V30 14597 H 1375.6 -2.15208 -5.23165 0
M  V30 14598 H 1374.16 -2.83075 -5.87122 0
M  V30 14599 N 1377.59 0.500963 -1.49426 0
M  V30 14600 C 1378.84 1.25171 -1.58162 0
M  V30 14601 C 1379.15 1.93678 -0.273556 0
M  V30 14602 O 1380.36 2.70442 -0.239462 0
M  V30 14603 C 1378.81 2.27276 -2.79059 0
M  V30 14604 C 1378.42 1.64708 -4.16624 0
M  V30 14605 C 1380.17 3.03178 -2.97125 0
M  V30 14606 C 1378.07 2.64923 -5.28743 0
M  V30 14607 H 1377 0.470867 -0.588897 0
M  V30 14608 H 1379.65 0.525569 -1.75812 0
M  V30 14609 H 1378.04 3.03052 -2.54903 0
M  V30 14610 H 1379.21 0.949231 -4.50917 0
M  V30 14611 H 1377.52 1.01195 -4.03916 0
M  V30 14612 H 1380.12 3.78122 -3.78058 0
M  V30 14613 H 1380.46 3.60793 -2.07687 0
M  V30 14614 H 1381 2.34517 -3.2132 0
M  V30 14615 H 1377.74 2.12089 -6.20241 0
M  V30 14616 H 1377.26 3.32948 -4.98904 0
M  V30 14617 H 1378.94 3.27349 -5.58079 0
M  V30 14618 N 1379.07 1.38501 0.752011 0
M  V30 14619 C 1380.31 1.36212 1.52399 0
M  V30 14620 C 1380.67 -0.0472831 1.91942 0
M  V30 14621 O 1381.87 -0.195055 2.68091 0
M  V30 14622 C 1380.14 2.2925 2.74188 0
M  V30 14623 S 1381.7 2.44995 3.64037 0
M  V30 14624 H 1378.52 0.483276 0.521503 0
M  V30 14625 H 1381.12 1.74441 0.882647 0
M  V30 14626 H 1379.83 3.30541 2.4325 0
M  V30 14627 H 1379.36 1.92176 3.43266 0
M  V30 14628 H 1381.37 1.67519 4.67067 0
M  V30 14629 N 1380.55 -0.980364 1.23396 0
M  V30 14630 C 1381.49 -2.07275 1.01516 0
M  V30 14631 C 1382.46 -1.65963 -0.0673729 0
M  V30 14632 O 1383.65 -1.90612 0.0847392 0
M  V30 14633 C 1380.79 -3.39621 0.61249 0
M  V30 14634 C 1379.9 -3.94203 1.76715 0
M  V30 14635 C 1379.04 -5.14761 1.31126 0
M  V30 14636 C 1378.07 -5.61509 2.43667 0
M  V30 14637 N 1377.21 -6.73297 1.99035 0
M  V30 14638 H 1382.05 -2.25325 1.9502 0
M  V30 14639 H 1379.59 -1.10452 0.971532 0
M  V30 14640 H 1381.55 -4.15643 0.360126 0
M  V30 14641 H 1380.18 -3.21535 -0.285539 0
M  V30 14642 H 1379.23 -3.14937 2.13352 0
M  V30 14643 H 1380.54 -4.24867 2.61323 0
M  V30 14644 H 1379.69 -5.98115 1.01702 0
M  V30 14645 H 1378.43 -4.85751 0.435555 0
M  V30 14646 H 1377.44 -4.76737 2.73865 0
M  V30 14647 H 1378.66 -5.92539 3.31774 0
M  V30 14648 H 1376.61 -6.46046 1.13845 0
M  V30 14649 H 1376.53 -7.03345 2.77203 0
M  V30 14650 H 1377.79 -7.60125 1.72716 0
M  V30 14651 N 1382.02 -1.04567 -1.17913 0
M  V30 14652 C 1383.27 -0.750538 -1.87647 0
M  V30 14653 C 1383.59 0.72423 -1.81052 0
M  V30 14654 O 1382.86 1.52292 -1.23223 0
M  V30 14655 H 1381.44 -0.274636 -0.694683 0
M  V30 14656 H 1384.1 -1.32349 -1.43072 0
M  V30 14657 H 1383.2 -1.05987 -2.93553 0
M  V30 14658 N 1383.5 1.34231 -0.825823 0
M  V30 14659 C 1384.43 2.27366 -0.194964 0
M  V30 14660 C 1385.41 1.49029 0.650315 0
M  V30 14661 O 1386.6 1.7824 0.613424 0
M  V30 14662 C 1383.72 3.30796 0.727439 0
M  V30 14663 C 1382.77 4.26481 -0.0406869 0
M  V30 14664 S 1383.6 5.17151 -1.38981 0
M  V30 14665 C 1384.76 6.24115 -0.472354 0
M  V30 14666 H 1384.99 2.80524 -0.984559 0
M  V30 14667 H 1382.52 1.41323 -0.621875 0
M  V30 14668 H 1384.48 3.90875 1.25406 0
M  V30 14669 H 1383.14 2.76479 1.49058 0
M  V30 14670 H 1382.34 4.99651 0.660652 0
M  V30 14671 H 1381.94 3.7067 -0.497956 0
M  V30 14672 H 1384.23 6.76671 0.334956 0
M  V30 14673 H 1385.17 6.98303 -1.17383 0
M  V30 14674 H 1385.58 5.64469 -0.0594964 0
M  V30 14675 N 1384.98 0.581051 1.46498 0
M  V30 14676 C 1385.89 -0.155669 2.34083 0
M  V30 14677 C 1386.91 -0.887728 1.49651 0
M  V30 14678 O 1388.08 -0.851284 1.82524 0
M  V30 14679 C 1385.15 -1.15752 3.26806 0
M  V30 14680 C 1384.21 -0.43031 4.27138 0
M  V30 14681 C 1383.44 -1.38443 5.15431 0
M  V30 14682 O 1383.66 -2.62084 5.06624 0
M  V30 14683 O 1382.6 -0.89592 5.95195 0
M  V30 14684 H 1386.42 0.56341 2.98428 0
M  V30 14685 H 1384.01 0.341466 1.45445 0
M  V30 14686 H 1385.89 -1.73523 3.84015 0
M  V30 14687 H 1384.57 -1.85809 2.65059 0
M  V30 14688 H 1383.47 0.1892 3.73621 0
M  V30 14689 H 1384.81 0.229263 4.91666 0
M  V30 14690 N 1386.46 -1.54343 0.318742 0
M  V30 14691 C 1387.69 -2.04597 -0.286961 0
M  V30 14692 C 1388.1 -1.19474 -1.46706 0
M  V30 14693 O 1387.44 -0.217082 -1.82413 0
M  V30 14694 C 1387.5 -3.50729 -0.789262 0
M  V30 14695 C 1387.16 -4.56214 0.267888 0
M  V30 14696 C 1388.16 -5.08079 1.10235 0
M  V30 14697 C 1385.85 -5.00585 0.414691 0
M  V30 14698 C 1387.84 -6.02872 2.06938 0
M  V30 14699 C 1385.53 -5.95195 1.38515 0
M  V30 14700 C 1386.53 -6.46224 2.21097 0
M  V30 14701 O 1386.21 -7.38976 3.16495 0
M  V30 14702 H 1385.95 -0.672994 -0.0636843 0
M  V30 14703 H 1388.5 -2.00147 0.461569 0
M  V30 14704 H 1386.73 -3.52562 -1.58862 0
M  V30 14705 H 1388.42 -3.84084 -1.31278 0
M  V30 14706 H 1389.18 -4.74581 0.999893 0
M  V30 14707 H 1385.06 -4.60483 -0.21819 0
M  V30 14708 H 1388.61 -6.42627 2.71435 0
M  V30 14709 H 1384.5 -6.28109 1.48826 0
M  V30 14710 H 1385.27 -7.56835 3.11678 0
M  V30 14711 N 1387.94 -0.0468143 -1.5753 0
M  V30 14712 C 1388.87 0.927092 -2.14306 0
M  V30 14713 C 1389.85 1.32745 -1.06362 0
M  V30 14714 O 1391.03 1.40293 -1.34281 0
M  V30 14715 C 1388.16 2.20343 -2.68452 0
M  V30 14716 C 1387.12 1.94328 -3.81341 0
M  V30 14717 C 1386.44 3.28379 -4.21985 0
M  V30 14718 C 1387.74 1.26835 -5.06666 0
M  V30 14719 H 1389.44 0.454199 -2.95935 0
M  V30 14720 H 1386.98 0.217029 -1.42355 0
M  V30 14721 H 1388.93 2.8887 -3.0681 0
M  V30 14722 H 1387.66 2.6983 -1.84009 0
M  V30 14723 H 1386.32 1.28214 -3.43448 0
M  V30 14724 H 1385.97 3.75658 -3.34499 0
M  V30 14725 H 1385.67 3.11772 -4.98068 0
M  V30 14726 H 1387.19 3.98145 -4.6294 0
M  V30 14727 H 1388.6 1.85389 -5.42498 0
M  V30 14728 H 1387 1.20569 -5.87863 0
M  V30 14729 H 1388.07 0.243759 -4.84287 0
M  V30 14730 N 1389.41 1.55964 0.226527 0
M  V30 14731 C 1390.66 1.78392 0.94977 0
M  V30 14732 C 1390.98 0.614444 1.85066 0
M  V30 14733 O 1390.25 -0.368894 1.92395 0
M  V30 14734 H 1388.83 0.657962 0.353688 0
M  V30 14735 H 1391.5 1.93422 0.239577 0
M  V30 14736 H 1390.59 2.70343 1.55952 0
M  V30 14737 N 1390.89 -0.493031 1.4969 0
M  V30 14738 C 1392.12 -1.27517 1.63567 0
M  V30 14739 C 1392.54 -1.85526 0.310105 0
M  V30 14740 O 1391.9 -1.66246 -0.723314 0
M  V30 14741 C 1391.95 -2.37551 2.71296 0
M  V30 14742 O 1391.05 -3.41617 2.31023 0
M  V30 14743 H 1390.39 -0.376116 0.547205 0
M  V30 14744 H 1392.92 -0.589328 1.95929 0
M  V30 14745 H 1392.93 -2.83196 2.93708 0
M  V30 14746 H 1391.61 -1.94697 3.67513 0
M  V30 14747 H 1390.19 -3.01836 2.18974 0
M  V30 14748 N 1392.37 -1.38898 -0.744656 0
M  V30 14749 C 1393.79 -1.20291 -1.04892 0
M  V30 14750 C 1393.99 -0.0577705 -2.01417 0
M  V30 14751 O 1393.04 0.593638 -2.45422 0
M  V30 14752 C 1394.36 -2.53302 -1.62045 0
M  V30 14753 C 1395.9 -2.60063 -1.74173 0
M  V30 14754 C 1396.38 -3.93272 -2.34736 0
M  V30 14755 N 1397.87 -3.9486 -2.42157 0
M  V30 14756 C 1398.6 -4.94698 -2.89933 0
M  V30 14757 N 1398.1 -6.04934 -3.37678 0
M  V30 14758 N 1399.89 -4.82083 -2.89055 0
M  V30 14759 H 1392.04 -2.12144 -0.104294 0
M  V30 14760 H 1394.31 -0.941725 -0.108895 0
M  V30 14761 H 1394.01 -3.376 -0.985868 0
M  V30 14762 H 1393.89 -2.72335 -2.60986 0
M  V30 14763 H 1396.27 -1.76155 -2.36756 0
M  V30 14764 H 1396.36 -2.44889 -0.739115 0
M  V30 14765 H 1396 -4.77607 -1.72784 0
M  V30 14766 H 1395.93 -4.05762 -3.35656 0
M  V30 14767 H 1398.42 -3.15243 -2.08399 0
M  V30 14768 H 1398.73 -6.77036 -3.72616 0
M  V30 14769 H 1397.08 -6.08541 -3.35712 0
M  V30 14770 H 1400.27 -3.9507 -2.51072 0
M  V30 14771 H 1400.44 -5.60039 -3.25975 0
M  V30 14772 N 1393.85 0.973806 -1.23914 0
M  V30 14773 C 1395.26 1.24128 -1.00322 0
M  V30 14774 C 1395.46 1.99378 0.29169 0
M  V30 14775 O 1394.52 2.31445 1.00943 0
M  V30 14776 C 1395.83 2.03438 -2.21435 0
M  V30 14777 C 1397.38 2.16553 -2.25995 0
M  V30 14778 C 1397.86 2.99257 -3.46712 0
M  V30 14779 N 1399.35 3.0684 -3.46992 0
M  V30 14780 C 1400.08 3.71174 -4.37055 0
M  V30 14781 N 1399.58 4.37277 -5.37364 0
M  V30 14782 N 1401.37 3.68126 -4.24782 0
M  V30 14783 H 1393.52 0.469872 -2.07138 0
M  V30 14784 H 1395.79 0.270234 -0.908668 0
M  V30 14785 H 1395.49 1.55527 -3.15443 0
M  V30 14786 H 1395.37 3.0418 -2.23057 0
M  V30 14787 H 1397.75 2.6367 -1.32522 0
M  V30 14788 H 1397.83 1.15179 -2.28402 0
M  V30 14789 H 1397.48 2.52835 -4.40496 0
M  V30 14790 H 1397.41 4.00815 -3.41547 0
M  V30 14791 H 1399.9 2.59813 -2.74419 0
M  V30 14792 H 1400.21 4.84166 -6.02331 0
M  V30 14793 H 1398.56 4.35965 -5.41257 0
M  V30 14794 H 1401.75 3.15657 -3.45656 0
M  V30 14795 H 1401.92 4.17981 -4.95173 0
M  V30 14796 N 1395.33 1.05191 1.17357 0
M  V30 14797 C 1396.57 0.771027 1.893 0
M  V30 14798 C 1396.93 -0.68931 1.792 0
M  V30 14799 O 1398.13 -1.0843 2.4596 0
M  V30 14800 C 1396.4 1.23822 3.35265 0
M  V30 14801 S 1397.96 1.0847 4.25182 0
M  V30 14802 H 1394.78 0.280008 0.653542 0
M  V30 14803 H 1397.38 1.34654 1.41734 0
M  V30 14804 H 1396.09 2.2962 3.40151 0
M  V30 14805 H 1395.62 0.656981 3.87875 0
M  V30 14806 H 1397.63 0.00886614 4.96199 0
M  V30 14807 N 1396.8 -1.33791 0.83293 0
M  V30 14808 C 1398.05 -1.98266 0.426412 0
M  V30 14809 C 1398.38 -1.65848 -1.01035 0
M  V30 14810 O 1397.66 -0.93528 -1.70537 0
M  V30 14811 C 1397.94 -3.54356 0.640586 0
M  V30 14812 C 1397.79 -3.96482 2.12419 0
M  V30 14813 C 1399.11 -4.40022 0.0829237 0
M  V30 14814 H 1396.23 -0.720213 0.156404 0
M  V30 14815 H 1398.87 -1.58527 1.04735 0
M  V30 14816 H 1397.02 -3.88338 0.11204 0
M  V30 14817 H 1398.7 -3.72786 2.71714 0
M  V30 14818 H 1396.94 -3.46429 2.61092 0
M  V30 14819 H 1397.61 -5.05179 2.22482 0
M  V30 14820 H 1400.09 -4.12651 0.534634 0
M  V30 14821 H 1398.96 -5.48272 0.262511 0
M  V30 14822 H 1399.22 -4.30341 -1.01287 0
M  V30 14823 N 1398.28 -0.588812 -1.46187 0
M  V30 14824 C 1399.23 0.161973 -2.27424 0
M  V30 14825 C 1400.22 0.856178 -1.36229 0
M  V30 14826 O 1401.41 0.749266 -1.60359 0
M  V30 14827 C 1398.54 1.17104 -3.2271 0
M  V30 14828 C 1397.62 0.478637 -4.2139 0
M  V30 14829 N 1398.01 -0.46921 -5.03619 0
M  V30 14830 C 1396.31 0.728608 -4.40008 0
M  V30 14831 C 1397.01 -0.874455 -5.7509 0
M  V30 14832 N 1395.99 -0.222267 -5.43145 0
M  V30 14833 H 1399.79 -0.566306 -2.88392 0
M  V30 14834 H 1397.31 -0.41106 -1.57112 0
M  V30 14835 H 1399.3 1.72314 -3.79623 0
M  V30 14836 H 1397.96 1.90008 -2.63301 0
M  V30 14837 H 1398.97 -0.84504 -5.10959 0
M  V30 14838 H 1395.65 1.44375 -3.91742 0
M  V30 14839 H 1397.04 -1.65514 -6.51195 0
M  V30 14840 N 1399.76 1.54172 -0.326923 0
M  V30 14841 C 1401.18 1.59579 0.0256055 0
M  V30 14842 C 1401.38 1.34337 1.50186 0
M  V30 14843 O 1400.43 1.12945 2.25831 0
M  V30 14844 C 1401.75 2.98086 -0.395641 0
M  V30 14845 C 1403.29 3.11075 -0.346579 0
M  V30 14846 C 1403.77 4.51932 -0.743039 0
M  V30 14847 N 1405.26 4.57932 -0.696575 0
M  V30 14848 C 1405.99 5.65041 -0.975493 0
M  V30 14849 N 1405.49 6.80075 -1.32172 0
M  V30 14850 N 1407.28 5.54835 -0.900831 0
M  V30 14851 H 1399.43 1.68836 -1.28872 0
M  V30 14852 H 1401.7 0.789858 -0.52424 0
M  V30 14853 H 1401.4 3.21568 -1.42431 0
M  V30 14854 H 1401.28 3.76451 0.237645 0
M  V30 14855 H 1403.66 2.87326 0.672889 0
M  V30 14856 H 1403.75 2.34807 -1.01484 0
M  V30 14857 H 1403.39 4.76415 -1.76044 0
M  V30 14858 H 1403.32 5.26574 -0.0524263 0
M  V30 14859 H 1405.81 3.75318 -0.440969 0
M  V30 14860 H 1406.12 7.57708 -1.51983 0
M  V30 14861 H 1404.47 6.81563 -1.36001 0
M  V30 14862 H 1407.66 4.63844 -0.629812 0
M  V30 14863 H 1407.83 6.3822 -1.12156 0
M  V30 14864 N 1401.24 0.0551678 1.57503 0
M  V30 14865 C 1402.52 -0.657808 1.84207 0
M  V30 14866 C 1402.9 -1.88798 0.944372 0
M  V30 14867 O 1402.24 -2.28499 0.00641728 0
M  V30 14868 C 1402.45 -1.0113 3.34026 0
M  V30 14869 C 1403.8 -1.39189 4.01138 0
M  V30 14870 O 1404.83 -1.10353 3.38675 0
M  V30 14871 O 1403.68 -1.93023 5.11277 0
M  V30 14872 H 1400.78 -0.325084 0.760427 0
M  V30 14873 H 1403.32 0.0848352 1.69488 0
M  V30 14874 H 1402.1 -0.13688 3.91061 0
M  V30 14875 H 1401.72 -1.81126 3.53948 0
M  V30 14876 N 1402.72 -1.56081 -0.218252 0
M  V30 14877 C 1403.65 -1.95706 -1.27364 0
M  V30 14878 C 1404.63 -0.825731 -1.48713 0
M  V30 14879 O 1405.81 -1.08829 -1.60841 0
M  V30 14880 C 1402.94 -2.2766 -2.62275 0
M  V30 14881 C 1401.9 -3.43314 -2.55576 0
M  V30 14882 C 1401.22 -3.60883 -3.94547 0
M  V30 14883 C 1402.52 -4.7819 -2.10075 0
M  V30 14884 H 1404.22 -2.84113 -0.944459 0
M  V30 14885 H 1401.76 -1.36693 -0.452882 0
M  V30 14886 H 1403.72 -2.53973 -3.36268 0
M  V30 14887 H 1402.44 -1.3611 -2.96887 0
M  V30 14888 H 1401.1 -3.17056 -1.8404 0
M  V30 14889 H 1400.75 -2.66703 -4.26472 0
M  V30 14890 H 1400.45 -4.38674 -3.90946 0
M  V30 14891 H 1401.97 -3.89547 -4.70197 0
M  V30 14892 H 1403.38 -5.03686 -2.73813 0
M  V30 14893 H 1401.78 -5.59287 -2.17527 0
M  V30 14894 H 1402.85 -4.73325 -1.05314 0
M  V30 14895 N 1404.2 0.485086 -1.49949 0
M  V30 14896 C 1405.16 1.56713 -1.67253 0
M  V30 14897 C 1406.16 1.51329 -0.543701 0
M  V30 14898 O 1407.35 1.54198 -0.810472 0
M  V30 14899 C 1404.48 2.9636 -1.68475 0
M  V30 14900 H 1405.67 1.42693 -2.63778 0
M  V30 14901 H 1403.23 0.710473 -1.39219 0
M  V30 14902 H 1403.96 3.1584 -0.735924 0
M  V30 14903 H 1403.75 3.01675 -2.50469 0
M  V30 14904 H 1405.24 3.74945 -1.83865 0
M  V30 14905 N 1405.67 1.39291 0.737279 0
M  V30 14906 C 1406.64 1.37607 1.83294 0
M  V30 14907 C 1407.64 0.273594 1.58455 0
M  V30 14908 O 1408.83 0.531375 1.65898 0
M  V30 14909 C 1405.96 1.14642 3.21045 0
M  V30 14910 H 1407.15 2.35102 1.86191 0
M  V30 14911 H 1404.7 1.24822 0.940696 0
M  V30 14912 H 1405.44 0.178202 3.2381 0
M  V30 14913 H 1405.22 1.94479 3.40471 0
M  V30 14914 H 1406.71 1.162 4.01108 0
M  V30 14915 N 1407.15 -0.967221 1.24429 0
M  V30 14916 C 1408.57 -1.23594 1.00979 0
M  V30 14917 C 1408.77 -1.99529 -0.281112 0
M  V30 14918 O 1407.82 -2.31977 -0.997139 0
M  V30 14919 C 1409.14 -2.02261 2.22511 0
M  V30 14920 C 1410.68 -2.15352 2.2714 0
M  V30 14921 C 1411.16 -2.97414 3.48294 0
M  V30 14922 N 1412.65 -3.04996 3.48614 0
M  V30 14923 C 1413.39 -3.68851 4.39017 0
M  V30 14924 N 1412.88 -4.34421 5.39676 0
M  V30 14925 N 1414.67 -3.65868 4.26728 0
M  V30 14926 H 1406.83 -0.458881 2.07384 0
M  V30 14927 H 1409.09 -0.265411 0.910088 0
M  V30 14928 H 1408.79 -1.53852 3.16263 0
M  V30 14929 H 1408.67 -3.02993 2.24667 0
M  V30 14930 H 1411.06 -2.62964 1.33919 0
M  V30 14931 H 1411.14 -1.13966 2.2901 0
M  V30 14932 H 1410.78 -2.50495 4.41831 0
M  V30 14933 H 1410.71 -3.98998 3.43668 0
M  V30 14934 H 1413.2 -2.58354 2.75793 0
M  V30 14935 H 1413.51 -4.80965 6.04891 0
M  V30 14936 H 1411.86 -4.33089 5.43562 0
M  V30 14937 H 1415.05 -3.13819 3.47325 0
M  V30 14938 H 1415.22 -4.15349 4.97382 0
M  V30 14939 N 1408.63 -1.05812 -1.16797 0
M  V30 14940 C 1409.58 -0.658636 -2.2308 0
M  V30 14941 C 1410.57 0.323104 -1.6629 0
M  V30 14942 O 1411.78 0.188492 -1.7901 0
M  V30 14943 H 1408.15 -0.194843 -0.72632 0
M  V30 14944 H 1410.12 -1.56501 -2.54067 0
M  V30 14945 C 1408.87 -0.0559428 -3.47655 0
M  V30 14946 H 1408.2 -0.802468 -3.91664 0
M  V30 14947 H 1409.64 0.186118 -4.23591 0
M  V30 14948 C 1408.09 1.19913 -3.14837 0
M  V30 14949 O 1408.62 2.28772 -3.30191 0
M  V30 14950 N 1406.83 1.09921 -2.69009 0
M  V30 14951 H 1406.38 0.213331 -2.56715 0
M  V30 14952 H 1406.34 1.93981 -2.47424 0
M  V30 14953 N 1410.11 1.33347 -0.840014 0
M  V30 14954 C 1411.36 1.97007 -0.432581 0
M  V30 14955 C 1411.67 1.67278 1.01378 0
M  V30 14956 O 1412.88 2.2456 1.52595 0
M  V30 14957 C 1411.33 3.52572 -0.72258 0
M  V30 14958 C 1410.94 3.91176 -2.1837 0
M  V30 14959 C 1412.68 4.22776 -0.382153 0
M  V30 14960 C 1410.59 5.39724 -2.41768 0
M  V30 14961 H 1409.52 0.737255 -0.158024 0
M  V30 14962 H 1412.17 1.5195 -1.02876 0
M  V30 14963 H 1410.55 3.9596 -0.0560179 0
M  V30 14964 H 1411.73 3.58842 -2.89083 0
M  V30 14965 H 1410.04 3.33956 -2.48721 0
M  V30 14966 H 1412.64 5.32021 -0.534588 0
M  V30 14967 H 1412.98 4.10792 0.674967 0
M  V30 14968 H 1413.52 3.84922 -1.004 0
M  V30 14969 H 1410.25 5.56713 -3.4605 0
M  V30 14970 H 1409.77 5.73514 -1.75617 0
M  V30 14971 H 1411.45 6.06624 -2.2498 0
M  V30 14972 N 1411.59 0.596556 1.45873 0
M  V30 14973 C 1412.52 -0.116229 2.33211 0
M  V30 14974 C 1413.5 -0.869868 1.46176 0
M  V30 14975 O 1414.68 -0.842599 1.74968 0
M  V30 14976 C 1411.81 -1.12145 3.28696 0
M  V30 14977 C 1410.77 -0.481749 4.2528 0
M  V30 14978 C 1410.09 -1.59443 5.10374 0
M  V30 14979 C 1411.39 0.589996 5.18957 0
M  V30 14980 H 1413.09 0.613005 2.93057 0
M  V30 14981 H 1410.63 0.296242 1.4092 0
M  V30 14982 H 1412.58 -1.62857 3.88659 0
M  V30 14983 H 1411.31 -1.88114 2.66985 0
M  V30 14984 H 1409.97 0.0044092 3.666 0
M  V30 14985 H 1409.62 -2.34413 4.45039 0
M  V30 14986 H 1409.32 -1.17197 5.75794 0
M  V30 14987 H 1410.84 -2.10404 5.73204 0
M  V30 14988 H 1412.25 0.167395 5.73056 0
M  V30 14989 H 1410.65 0.933565 5.92794 0
M  V30 14990 H 1411.72 1.47093 4.62052 0
M  V30 14991 N 1413.06 -1.53996 0.335095 0
M  V30 14992 C 1414.31 -2.01069 -0.264388 0
M  V30 14993 C 1414.64 -1.22271 -1.50876 0
M  V30 14994 O 1413.92 -0.30806 -1.92045 0
M  V30 14995 C 1414.2 -3.55283 -0.587 0
M  V30 14996 C 1414.05 -4.44799 0.668877 0
M  V30 14997 C 1415.37 -4.17238 -1.40003 0
M  V30 14998 H 1412.49 -0.730901 -0.0946202 0
M  V30 14999 H 1415.13 -1.84497 0.453958 0
M  V30 15000 H 1413.28 -3.69536 -1.19899 0
M  V30 15001 H 1414.96 -4.42398 1.30698 0
M  V30 15002 H 1413.2 -4.14005 1.29547 0
M  V30 15003 H 1413.87 -5.5056 0.398523 0
M  V30 15004 H 1416.35 -4.06631 -0.88262 0
M  V30 15005 H 1415.22 -5.2523 -1.59451 0
M  V30 15006 H 1415.48 -3.71309 -2.39962 0
M  V30 15007 N 1414.54 -0.0635198 -1.57472 0
M  V30 15008 C 1415.45 0.921531 -2.15743 0
M  V30 15009 C 1416.47 1.33294 -1.11842 0
M  V30 15010 O 1417.64 1.40733 -1.4407 0
M  V30 15011 C 1414.71 2.17378 -2.70088 0
M  V30 15012 C 1413.77 1.81956 -3.88832 0
M  V30 15013 C 1413 3.01211 -4.40577 0
M  V30 15014 O 1413.23 4.14971 -3.9135 0
M  V30 15015 O 1412.16 2.81507 -5.32012 0
M  V30 15016 H 1415.99 0.455899 -3.00259 0
M  V30 15017 H 1413.57 0.159085 -1.48551 0
M  V30 15018 H 1415.45 2.90826 -3.04956 0
M  V30 15019 H 1414.13 2.63055 -1.88637 0
M  V30 15020 H 1413.03 1.05786 -3.58832 0
M  V30 15021 H 1414.37 1.41069 -4.71551 0
M  V30 15022 N 1416.02 1.56195 0.209972 0
M  V30 15023 C 1417.24 1.84189 0.953364 0
M  V30 15024 C 1417.67 0.645288 1.76685 0
M  V30 15025 O 1417.03 -0.405962 1.76696 0
M  V30 15026 C 1417.08 3.10281 1.83733 0
M  V30 15027 O 1416.18 2.89788 2.93422 0
M  V30 15028 H 1415.52 0.606931 0.269314 0
M  V30 15029 H 1418.05 2.03416 0.219783 0
M  V30 15030 H 1418.06 3.40688 2.2449 0
M  V30 15031 H 1416.74 3.97 1.23951 0
M  V30 15032 H 1415.31 2.70643 2.56528 0
M  V30 15033 N 1417.5 -0.477127 1.50204 0
M  V30 15034 C 1418.41 -1.60182 1.71403 0
M  V30 15035 C 1419.42 -1.63437 0.597009 0
M  V30 15036 O 1420.6 -1.81418 0.874614 0
M  V30 15037 C 1417.66 -2.96432 1.79802 0
M  V30 15038 C 1416.73 -3.03614 3.03508 0
M  V30 15039 C 1415.96 -4.33365 3.11497 0
M  V30 15040 O 1416.18 -5.23529 2.26438 0
M  V30 15041 O 1415.12 -4.46013 4.04173 0
M  V30 15042 H 1418.94 -1.45221 2.66729 0
M  V30 15043 H 1416.53 -0.655982 1.34228 0
M  V30 15044 H 1418.41 -3.77367 1.87542 0
M  V30 15045 H 1417.08 -3.11605 0.876581 0
M  V30 15046 H 1415.99 -2.21779 3.01272 0
M  V30 15047 H 1417.32 -2.93376 3.95211 0
M  V30 15048 N 1418.98 -1.3968 -0.729882 0
M  V30 15049 C 1419.94 -1.38577 -1.82562 0
M  V30 15050 C 1420.94 -0.281994 -1.58308 0
M  V30 15051 O 1422.13 -0.540165 -1.65614 0
M  V30 15052 C 1419.26 -1.16343 -3.20433 0
M  V30 15053 H 1420.45 -2.36086 -1.84942 0
M  V30 15054 H 1418.01 -1.25319 -0.934063 0
M  V30 15055 H 1418.74 -0.195372 -3.23711 0
M  V30 15056 H 1418.53 -1.96282 -3.39435 0
M  V30 15057 H 1420.02 -1.18325 -4.00486 0
M  V30 15058 N 1420.45 0.960609 -1.2494 0
M  V30 15059 C 1421.4 2.04164 -1.01493 0
M  V30 15060 C 1422.39 1.60834 0.0461124 0
M  V30 15061 O 1423.58 1.76196 -0.168491 0
M  V30 15062 C 1420.71 3.37484 -0.629251 0
M  V30 15063 C 1419.8 3.87356 -1.72674 0
M  V30 15064 N 1420.19 4.10085 -2.9608 0
M  V30 15065 C 1418.48 4.16086 -1.60589 0
M  V30 15066 C 1419.19 4.51091 -3.67276 0
M  V30 15067 N 1418.16 4.56676 -2.9487 0
M  V30 15068 H 1421.96 2.19723 -1.95189 0
M  V30 15069 H 1419.48 1.14496 -1.15171 0
M  V30 15070 H 1421.47 4.14545 -0.442484 0
M  V30 15071 H 1420.13 3.23307 0.300446 0
M  V30 15072 H 1421.15 3.97331 -3.32187 0
M  V30 15073 H 1417.82 4.10804 -0.744725 0
M  V30 15074 H 1419.21 4.77031 -4.73172 0
M  V30 15075 N 1421.93 1.0643 1.16234 0
M  V30 15076 C 1423.18 0.782998 1.87075 0
M  V30 15077 C 1423.51 -0.688852 1.81572 0
M  V30 15078 O 1422.79 -1.50478 1.23234 0
M  V30 15079 C 1423.07 1.27997 3.36584 0
M  V30 15080 C 1422.92 2.81568 3.5077 0
M  V30 15081 C 1424.24 0.888975 4.31028 0
M  V30 15082 H 1421.36 0.28591 0.679282 0
M  V30 15083 H 1424 1.32046 1.36615 0
M  V30 15084 H 1422.15 0.822756 3.79688 0
M  V30 15085 H 1423.82 3.35508 3.16595 0
M  V30 15086 H 1422.07 3.2023 2.92635 0
M  V30 15087 H 1422.74 3.11406 4.55774 0
M  V30 15088 H 1425.21 1.28279 3.95833 0
M  V30 15089 H 1424.09 1.26416 5.34144 0
M  V30 15090 H 1424.35 -0.205973 4.4162 0
M  V30 15091 N 1423.41 -1.329 0.847073 0
M  V30 15092 C 1424.36 -2.29044 0.284199 0
M  V30 15093 C 1425.33 -1.54706 -0.604591 0
M  V30 15094 O 1426.51 -1.82966 -0.541116 0
M  V30 15095 C 1423.65 -3.4104 -0.527822 0
M  V30 15096 C 1422.77 -4.30273 0.385907 0
M  V30 15097 C 1421.9 -5.29391 -0.438009 0
M  V30 15098 C 1420.94 -6.10265 0.473596 0
M  V30 15099 N 1420.08 -7.01403 -0.312684 0
M  V30 15100 H 1424.92 -2.76582 1.10935 0
M  V30 15101 H 1422.45 -1.36085 0.558508 0
M  V30 15102 H 1424.41 -4.04686 -1.01417 0
M  V30 15103 H 1423.04 -2.94673 -1.31787 0
M  V30 15104 H 1422.09 -3.67275 0.99061 0
M  V30 15105 H 1423.41 -4.86837 1.08585 0
M  V30 15106 H 1422.56 -5.98604 -0.987842 0
M  V30 15107 H 1421.3 -4.73424 -1.17135 0
M  V30 15108 H 1420.3 -5.39963 1.03537 0
M  V30 15109 H 1421.53 -6.68316 1.20543 0
M  V30 15110 H 1419.47 -6.47875 -1.02926 0
M  V30 15111 H 1419.39 -7.55286 0.328376 0
M  V30 15112 H 1420.66 -7.74912 -0.844489 0
M  V30 15113 N 1424.89 -0.604284 -1.45555 0
M  V30 15114 C 1426.14 -0.0957836 -2.01472 0
M  V30 15115 C 1426.45 1.28016 -1.47889 0
M  V30 15116 O 1427.66 1.88121 -1.95762 0
M  V30 15117 C 1426.11 -0.120566 -3.59698 0
M  V30 15118 C 1425.72 -1.49616 -4.22278 0
M  V30 15119 C 1427.46 0.332865 -4.23193 0
M  V30 15120 C 1425.37 -1.4775 -5.72646 0
M  V30 15121 H 1424.3 -0.0320399 -0.753319 0
M  V30 15122 H 1426.95 -0.759125 -1.67061 0
M  V30 15123 H 1425.33 0.609365 -3.91283 0
M  V30 15124 H 1426.51 -2.24753 -4.02272 0
M  V30 15125 H 1424.82 -1.89141 -3.70965 0
M  V30 15126 H 1427.42 0.365951 -5.33446 0
M  V30 15127 H 1427.76 1.35487 -3.93635 0
M  V30 15128 H 1428.3 -0.343692 -3.96313 0
M  V30 15129 H 1425.04 -2.47701 -6.06898 0
M  V30 15130 H 1424.56 -0.768659 -5.94854 0
M  V30 15131 H 1426.23 -1.19971 -6.3578 0
M  V30 15132 N 1426.37 1.53816 -0.343257 0
M  V30 15133 C 1427.33 2.23654 0.501161 0
M  V30 15134 C 1428.33 1.23664 1.02781 0
M  V30 15135 O 1429.52 1.48104 0.917103 0
M  V30 15136 C 1426.65 2.95596 1.69812 0
M  V30 15137 H 1427.84 2.997 -0.109626 0
M  V30 15138 H 1425.4 1.56013 -0.0946011 0
M  V30 15139 H 1426.13 2.23736 2.34761 0
M  V30 15140 H 1425.92 3.68938 1.32768 0
M  V30 15141 H 1427.41 3.48748 2.29706 0
M  V30 15142 N 1427.84 0.0718701 1.57436 0
M  V30 15143 C 1429.12 -0.638233 1.84894 0
M  V30 15144 C 1429.5 -1.87786 0.964343 0
M  V30 15145 O 1428.85 -2.28479 0.0306523 0
M  V30 15146 C 1429.06 -0.975817 3.3508 0
M  V30 15147 C 1430.41 -1.34927 4.02591 0
M  V30 15148 O 1431.43 -1.06754 3.39826 0
M  V30 15149 O 1430.29 -1.87589 5.13296 0
M  V30 15150 H 1427.38 -0.317 0.763832 0
M  V30 15151 H 1429.93 0.102807 1.69388 0
M  V30 15152 H 1428.7 -0.0953948 3.91184 0
M  V30 15153 H 1428.33 -1.77362 3.55849 0
M  V30 15154 N 1429.32 -1.56304 -0.201686 0
M  V30 15155 C 1430.57 -1.80237 -0.923093 0
M  V30 15156 C 1430.9 -0.643994 -1.83529 0
M  V30 15157 O 1430.15 0.370613 -1.92159 0
M  V30 15158 C 1430.45 -3.10101 -1.77686 0
M  V30 15159 C 1430.12 -4.393 -1.0162 0
M  V30 15160 C 1428.78 -4.74399 -0.806161 0
M  V30 15161 C 1431.13 -5.1898 -0.480515 0
M  V30 15162 C 1428.46 -5.8668 -0.0488423 0
M  V30 15163 C 1430.81 -6.32051 0.26356 0
M  V30 15164 C 1429.48 -6.65738 0.484679 0
M  V30 15165 H 1428.75 -0.659533 -0.337784 0
M  V30 15166 H 1431.39 -1.90556 -0.189895 0
M  V30 15167 H 1429.7 -2.9499 -2.57853 0
M  V30 15168 H 1431.39 -3.25823 -2.33753 0
M  V30 15169 H 1427.98 -4.11751 -1.18992 0
M  V30 15170 H 1432.17 -4.92283 -0.630208 0
M  V30 15171 H 1427.42 -6.11256 0.13251 0
M  V30 15172 H 1431.6 -6.93012 0.686058 0
M  V30 15173 H 1429.23 -7.52583 1.07341 0
M  V30 15174 N 1430.8 0.469154 -1.50455 0
M  V30 15175 C 1432.05 1.21868 -1.61222 0
M  V30 15176 C 1432.37 1.9243 -0.315535 0
M  V30 15177 O 1431.64 1.84192 0.667083 0
M  V30 15178 H 1430.22 0.452828 -0.594101 0
M  V30 15179 H 1432.88 0.540993 -1.87241 0
M  V30 15180 H 1431.98 1.96554 -2.42431 0
M  V30 15181 N 1432.28 1.40065 0.722464 0
M  V30 15182 C 1433.21 1.42532 1.84951 0
M  V30 15183 C 1434.19 0.287082 1.6766 0
M  V30 15184 O 1435.37 0.494715 1.87793 0
M  V30 15185 C 1432.5 1.28041 3.22836 0
M  V30 15186 C 1431.46 2.39396 3.54787 0
M  V30 15187 C 1430.78 2.09986 4.91742 0
M  V30 15188 C 1432.08 3.81729 3.56483 0
M  V30 15189 H 1433.78 2.36851 1.83144 0
M  V30 15190 H 1431.32 1.14005 0.879714 0
M  V30 15191 H 1433.28 1.28385 4.01367 0
M  V30 15192 H 1432 0.301947 3.25201 0
M  V30 15193 H 1430.66 2.3829 2.78592 0
M  V30 15194 H 1430.31 1.10547 4.90702 0
M  V30 15195 H 1430.01 2.84586 5.14086 0
M  V30 15196 H 1431.53 2.12 5.72615 0
M  V30 15197 H 1432.95 3.84696 4.25067 0
M  V30 15198 H 1431.34 4.55791 3.90351 0
M  V30 15199 H 1432.41 4.11807 2.56014 0
M  V30 15200 N 1433.76 -0.95397 1.25448 0
M  V30 15201 C 1434.72 -2.03231 1.0597 0
M  V30 15202 C 1435.72 -1.60795 0.0122855 0
M  V30 15203 O 1436.91 -1.7233 0.254533 0
M  V30 15204 C 1434.04 -3.35414 0.609105 0
M  V30 15205 H 1435.24 -2.21943 2.01696 0
M  V30 15206 H 1432.79 -1.13115 1.07864 0
M  V30 15207 H 1433.52 -3.22398 -0.350723 0
M  V30 15208 H 1433.31 -3.67564 1.36526 0
M  V30 15209 H 1434.8 -4.14664 0.49428 0
M  V30 15210 N 1435.24 -1.07045 -1.15668 0
M  V30 15211 C 1436.18 -0.688004 -2.20307 0
M  V30 15212 C 1437.15 0.319081 -1.63006 0
M  V30 15213 O 1438.34 0.206239 -1.89682 0
M  V30 15214 C 1435.48 -0.0886692 -3.44986 0
M  V30 15215 C 1434.59 -1.14685 -4.16499 0
M  V30 15216 C 1433.73 -0.512852 -5.28719 0
M  V30 15217 C 1432.76 -1.55404 -5.92044 0
M  V30 15218 N 1431.9 -0.942848 -6.9574 0
M  V30 15219 H 1436.74 -1.58469 -2.52372 0
M  V30 15220 H 1434.28 -0.792184 -1.23947 0
M  V30 15221 H 1436.24 0.276415 -4.16283 0
M  V30 15222 H 1434.87 0.77139 -3.13448 0
M  V30 15223 H 1433.92 -1.62955 -3.43729 0
M  V30 15224 H 1435.23 -1.93643 -4.59678 0
M  V30 15225 H 1434.38 -0.0952274 -6.06625 0
M  V30 15226 H 1433.12 0.308524 -4.86723 0
M  V30 15227 H 1432.13 -1.98148 -5.12852 0
M  V30 15228 H 1433.35 -2.37765 -6.36117 0
M  V30 15229 H 1431.3 -0.142319 -6.55846 0
M  V30 15230 H 1431.22 -1.6697 -7.37331 0
M  V30 15231 H 1432.48 -0.550621 -7.77553 0
M  V30 15232 N 1436.71 1.32449 -0.85411 0
M  V30 15233 C 1437.64 2.31383 -0.313697 0
M  V30 15234 C 1438.62 1.59656 0.586858 0
M  V30 15235 O 1439.81 1.87459 0.507216 0
M  V30 15236 C 1436.94 3.43693 0.499235 0
M  V30 15237 C 1435.89 4.26899 -0.306839 0
M  V30 15238 C 1435.22 5.30966 0.630795 0
M  V30 15239 C 1436.52 4.99318 -1.53229 0
M  V30 15240 H 1438.21 2.76832 -1.14037 0
M  V30 15241 H 1435.76 1.33091 -0.549805 0
M  V30 15242 H 1437.71 4.11944 0.887709 0
M  V30 15243 H 1436.44 2.96971 1.35926 0
M  V30 15244 H 1435.1 3.60294 -0.677061 0
M  V30 15245 H 1434.74 4.80498 1.48765 0
M  V30 15246 H 1434.44 5.87522 0.0954635 0
M  V30 15247 H 1435.97 6.0208 1.01646 0
M  V30 15248 H 1437.38 5.60253 -1.21614 0
M  V30 15249 H 1435.78 5.65596 -2.00552 0
M  V30 15250 H 1436.85 4.27213 -2.29383 0
M  V30 15251 N 1438.19 0.611994 1.45232 0
M  V30 15252 C 1439.12 -0.0914869 2.33321 0
M  V30 15253 C 1440.1 -0.854315 1.4709 0
M  V30 15254 O 1441.29 -0.823994 1.75852 0
M  V30 15255 C 1438.42 -1.08652 3.29867 0
M  V30 15256 C 1437.37 -0.436615 4.25767 0
M  V30 15257 C 1436.7 -1.54021 5.12037 0
M  V30 15258 C 1438 0.645005 5.18302 0
M  V30 15259 H 1439.69 0.644053 2.92391 0
M  V30 15260 H 1437.24 0.311171 1.40598 0
M  V30 15261 H 1439.19 -1.58726 3.90364 0
M  V30 15262 H 1437.91 -1.85271 2.68965 0
M  V30 15263 H 1436.57 0.0432918 3.66574 0
M  V30 15264 H 1436.22 -2.29679 4.475 0
M  V30 15265 H 1435.92 -1.11084 5.77005 0
M  V30 15266 H 1437.45 -2.04313 5.75403 0
M  V30 15267 H 1438.86 0.228166 5.72846 0
M  V30 15268 H 1437.26 0.996387 5.9177 0
M  V30 15269 H 1438.33 1.51985 4.60466 0
M  V30 15270 N 1439.67 -1.53632 0.351409 0
M  V30 15271 C 1441.08 -1.86241 -0.130834 0
M  V30 15272 C 1441.43 -1.27243 -1.49344 0
M  V30 15273 O 1440.56 -0.589006 -2.0823 0
M  V30 15274 C 1441.15 -3.37919 -0.244179 0
M  V30 15275 C 1439.71 -3.70377 -0.670662 0
M  V30 15276 C 1438.86 -2.76643 0.190813 0
M  V30 15277 H 1441.81 -1.48083 0.570724 0
M  V30 15278 H 1441.83 -3.65137 -1.07029 0
M  V30 15279 H 1441.34 -3.8083 0.747688 0
M  V30 15280 H 1439.44 -3.33015 -1.67127 0
M  V30 15281 H 1439.56 -4.76934 -0.455102 0
M  V30 15282 H 1437.92 -2.52446 -0.338092 0
M  V30 15283 H 1438.7 -3.22385 1.17996 0
M  V30 15284 N 1441.15 -0.0802183 -1.57396 0
M  V30 15285 C 1442.08 0.881426 -2.16225 0
M  V30 15286 C 1443.06 1.30459 -1.09154 0
M  V30 15287 O 1444.24 1.37413 -1.37227 0
M  V30 15288 C 1441.37 2.14599 -2.73065 0
M  V30 15289 C 1440.33 1.86195 -3.85377 0
M  V30 15290 C 1439.65 3.19354 -4.28856 0
M  V30 15291 C 1440.95 1.16059 -5.09242 0
M  V30 15292 H 1442.65 0.391325 -2.96832 0
M  V30 15293 H 1440.19 0.186785 -1.42783 0
M  V30 15294 H 1442.15 2.82297 -3.12868 0
M  V30 15295 H 1440.87 2.65866 -1.89691 0
M  V30 15296 H 1439.53 1.209 -3.46091 0
M  V30 15297 H 1439.18 3.68479 -3.42392 0
M  V30 15298 H 1438.88 3.01137 -5.04569 0
M  V30 15299 H 1440.4 3.88235 -4.71281 0
M  V30 15300 H 1441.82 1.7384 -5.46308 0
M  V30 15301 H 1440.21 1.08072 -5.90288 0
M  V30 15302 H 1441.28 0.14098 -4.84695 0
M  V30 15303 N 1442.63 1.56409 0.193394 0
M  V30 15304 C 1443.9 1.71559 0.93951 0
M  V30 15305 C 1444.28 0.635478 2.01308 0
M  V30 15306 O 1443.63 -0.353267 2.25753 0
M  V30 15307 C 1443.84 3.13948 1.52438 0
M  V30 15308 C 1445.19 3.74234 2.00585 0
M  V30 15309 O 1446.21 3.17088 1.62277 0
M  V30 15310 O 1445.07 4.74529 2.71081 0
M  V30 15311 H 1442.17 0.69979 0.440707 0
M  V30 15312 H 1444.71 1.68711 0.182957 0
M  V30 15313 H 1443.48 3.84033 0.750613 0
M  V30 15314 H 1443.11 3.21032 2.34572 0
M  V30 15315 N 1444.1 -0.461169 1.50702 0
M  V30 15316 C 1445.05 -1.5579 1.70288 0
M  V30 15317 C 1446.02 -1.5693 0.544251 0
M  V30 15318 O 1447.21 -1.74308 0.77597 0
M  V30 15319 C 1444.35 -2.93694 1.81212 0
M  V30 15320 C 1443.46 -3.02267 3.0864 0
M  V30 15321 C 1442.59 -4.31147 3.103 0
M  V30 15322 C 1441.63 -4.33498 4.32141 0
M  V30 15323 N 1440.77 -5.53864 4.31484 0
M  V30 15324 H 1445.61 -1.38393 2.63915 0
M  V30 15325 H 1443.15 -0.6727 1.30817 0
M  V30 15326 H 1445.1 -3.73679 1.85526 0
M  V30 15327 H 1443.73 -3.09703 0.91015 0
M  V30 15328 H 1442.79 -2.15093 3.1375 0
M  V30 15329 H 1444.1 -2.99864 3.98601 0
M  V30 15330 H 1443.25 -5.19487 3.13398 0
M  V30 15331 H 1441.99 -4.36172 2.18186 0
M  V30 15332 H 1441 -3.43554 4.29245 0
M  V30 15333 H 1442.22 -4.30156 5.25493 0
M  V30 15334 H 1440.17 -5.59657 3.42229 0
M  V30 15335 H 1440.08 -5.53244 5.15225 0
M  V30 15336 H 1441.35 -6.44302 4.38742 0
M  V30 15337 N 1445.58 -1.40446 -0.715026 0
M  V30 15338 C 1446.86 -1.29253 -1.4681 0
M  V30 15339 C 1447.24 0.0888738 -2.10913 0
M  V30 15340 O 1446.59 1.10172 -2.00186 0
M  V30 15341 C 1446.8 -2.43173 -2.50335 0
M  V30 15342 C 1448.14 -2.83433 -3.1615 0
M  V30 15343 O 1449.17 -2.4277 -2.60655 0
M  V30 15344 O 1448.03 -3.53687 -4.16615 0
M  V30 15345 H 1445.12 -0.507627 -0.652873 0
M  V30 15346 H 1447.67 -1.52367 -0.747153 0
M  V30 15347 H 1446.44 -3.35438 -2.01486 0
M  V30 15348 H 1446.06 -2.21832 -3.29964 0
M  V30 15349 N 1447.06 0.947303 -1.25952 0
M  V30 15350 C 1448.29 1.72479 -1.1373 0
M  V30 15351 C 1448.7 1.86629 0.310871 0
M  V30 15352 O 1448.04 1.36882 1.22512 0
M  V30 15353 C 1448.1 3.15328 -1.72651 0
M  V30 15354 C 1447.77 3.24584 -3.21705 0
M  V30 15355 C 1448.76 3.08331 -4.18602 0
M  V30 15356 C 1446.45 3.4817 -3.62054 0
M  V30 15357 C 1448.44 3.15523 -5.53827 0
M  V30 15358 C 1446.13 3.54997 -4.97413 0
M  V30 15359 C 1447.13 3.38689 -5.93109 0
M  V30 15360 O 1446.82 3.45212 -7.26005 0
M  V30 15361 H 1446.55 0.547044 -0.397138 0
M  V30 15362 H 1449.1 1.19654 -1.66949 0
M  V30 15363 H 1447.33 3.69549 -1.13887 0
M  V30 15364 H 1449.02 3.74965 -1.55423 0
M  V30 15365 H 1449.79 2.89971 -3.88769 0
M  V30 15366 H 1445.67 3.59922 -2.88057 0
M  V30 15367 H 1449.21 3.02711 -6.285 0
M  V30 15368 H 1445.11 3.72876 -5.26909 0
M  V30 15369 H 1445.87 3.61796 -7.34198 0
M  V30 15370 N 1448.54 1.07657 1.15099 0
M  V30 15371 C 1449.77 0.821631 1.89559 0
M  V30 15372 C 1450.18 -0.629174 1.78432 0
M  V30 15373 O 1449.52 -1.44353 1.13613 0
M  V30 15374 C 1449.58 1.15473 3.4045 0
M  V30 15375 C 1449.25 2.60675 3.75363 0
M  V30 15376 C 1450.24 3.58923 3.76125 0
M  V30 15377 C 1447.93 2.96333 4.05576 0
M  V30 15378 C 1449.92 4.90863 4.06611 0
M  V30 15379 C 1447.61 4.28469 4.35727 0
M  V30 15380 C 1448.61 5.25543 4.36226 0
M  V30 15381 O 1448.29 6.55305 4.65651 0
M  V30 15382 H 1448.03 0.296469 0.607521 0
M  V30 15383 H 1450.58 1.43722 1.46742 0
M  V30 15384 H 1448.81 0.482117 3.83683 0
M  V30 15385 H 1450.5 0.881832 3.96205 0
M  V30 15386 H 1451.27 3.32718 3.52879 0
M  V30 15387 H 1447.14 2.2142 4.04344 0
M  V30 15388 H 1450.69 5.66626 4.06916 0
M  V30 15389 H 1446.59 4.54425 4.58441 0
M  V30 15390 H 1447.35 6.60503 4.83402 0
M  V30 15391 N 1450.02 -1.31994 0.861122 0
M  V30 15392 C 1451.26 -1.97317 0.468371 0
M  V30 15393 C 1451.6 -1.67954 -0.974941 0
M  V30 15394 O 1450.87 -0.971243 -1.68514 0
M  V30 15395 C 1451.15 -3.52918 0.715607 0
M  V30 15396 C 1451.01 -3.91888 2.20781 0
M  V30 15397 C 1452.33 -4.39747 0.17624 0
M  V30 15398 H 1449.44 -0.716733 0.171646 0
M  V30 15399 H 1452.09 -1.56269 1.08074 0
M  V30 15400 H 1450.24 -3.88013 0.194387 0
M  V30 15401 H 1451.91 -3.66938 2.7956 0
M  V30 15402 H 1450.15 -3.40813 2.68382 0
M  V30 15403 H 1450.82 -5.00346 2.33147 0
M  V30 15404 H 1453.3 -4.11424 0.622043 0
M  V30 15405 H 1452.17 -5.47592 0.378748 0
M  V30 15406 H 1452.44 -4.32393 -0.921358 0
M  V30 15407 N 1451.49 -0.619688 -1.44906 0
M  V30 15408 C 1452.74 -0.11981 -2.02446 0
M  V30 15409 C 1453.07 1.2509 -1.48546 0
M  V30 15410 O 1452.35 1.82781 -0.664942 0
M  V30 15411 C 1452.63 -0.0940205 -3.59977 0
M  V30 15412 C 1452.48 -1.49626 -4.24184 0
M  V30 15413 C 1453.8 0.58748 -4.36161 0
M  V30 15414 H 1450.92 -0.0450119 -0.735624 0
M  V30 15415 H 1453.56 -0.793975 -1.72615 0
M  V30 15416 H 1451.71 0.480073 -3.85522 0
M  V30 15417 H 1453.39 -2.11836 -4.09784 0
M  V30 15418 H 1451.63 -2.05348 -3.82119 0
M  V30 15419 H 1452.3 -1.43035 -5.33146 0
M  V30 15420 H 1454.78 0.0993863 -4.15981 0
M  V30 15421 H 1453.65 0.574672 -5.45883 0
M  V30 15422 H 1453.91 1.65579 -4.09922 0
M  V30 15423 N 1452.97 1.53444 -0.359552 0
M  V30 15424 C 1454.39 1.59598 -0.00824946 0
M  V30 15425 C 1454.59 1.37492 1.47303 0
M  V30 15426 O 1453.64 1.1771 2.23385 0
M  V30 15427 C 1454.96 2.9718 -0.45878 0
M  V30 15428 C 1456.51 3.1027 -0.412485 0
M  V30 15429 C 1456.98 4.50255 -0.838733 0
M  V30 15430 N 1458.47 4.56352 -0.793552 0
M  V30 15431 C 1459.21 5.62845 -1.09513 0
M  V30 15432 N 1458.7 6.77119 -1.46567 0
M  V30 15433 N 1460.5 5.52799 -1.01832 0
M  V30 15434 H 1452.65 1.66065 -1.32424 0
M  V30 15435 H 1454.91 0.778561 -0.540876 0
M  V30 15436 H 1454.62 3.18475 -1.4922 0
M  V30 15437 H 1454.49 3.7687 0.157741 0
M  V30 15438 H 1456.88 2.88689 0.611791 0
M  V30 15439 H 1456.96 2.32602 -1.06442 0
M  V30 15440 H 1456.6 4.72573 -1.8611 0
M  V30 15441 H 1456.53 5.26344 -0.164109 0
M  V30 15442 H 1459.02 3.74299 -0.52048 0
M  V30 15443 H 1459.34 7.54313 -1.68021 0
M  V30 15444 H 1457.68 6.78525 -1.50427 0
M  V30 15445 H 1460.87 4.62403 -0.728059 0
M  V30 15446 H 1461.04 6.35698 -1.25668 0
M  V30 15447 N 1454.45 0.0885642 1.57351 0
M  V30 15448 C 1455.36 -0.887092 2.17182 0
M  V30 15449 C 1456.38 -1.31498 1.13949 0
M  V30 15450 O 1457.55 -1.38424 1.4629 0
M  V30 15451 C 1454.62 -2.13053 2.73513 0
M  V30 15452 C 1453.68 -1.75747 3.91678 0
M  V30 15453 C 1452.91 -2.94163 4.45313 0
M  V30 15454 O 1453.13 -4.08693 3.97903 0
M  V30 15455 O 1452.07 -2.73008 5.36424 0
M  V30 15456 H 1455.89 -0.408073 3.00946 0
M  V30 15457 H 1453.48 -0.135431 1.48785 0
M  V30 15458 H 1455.36 -2.85937 3.09545 0
M  V30 15459 H 1454.04 -2.6002 1.92798 0
M  V30 15460 H 1452.94 -1.00064 3.60469 0
M  V30 15461 H 1454.28 -1.33549 4.73736 0
M  V30 15462 N 1455.93 -1.56509 -0.185096 0
M  V30 15463 C 1457.34 -1.71024 -0.748856 0
M  V30 15464 C 1457.69 -0.69681 -1.83409 0
M  V30 15465 O 1456.82 0.144711 -2.15916 0
M  V30 15466 C 1457.41 -3.1008 -1.36513 0
M  V30 15467 C 1455.97 -3.26325 -1.87587 0
M  V30 15468 C 1455.12 -2.66977 -0.749579 0
M  V30 15469 H 1458.07 -1.58649 0.0401175 0
M  V30 15470 H 1458.09 -3.07965 -2.23468 0
M  V30 15471 H 1457.6 -3.83816 -0.575051 0
M  V30 15472 H 1455.7 -2.57522 -2.69283 0
M  V30 15473 H 1455.81 -4.33931 -2.03078 0
M  V30 15474 H 1454.18 -2.26419 -1.16647 0
M  V30 15475 H 1454.96 -3.43288 0.0284301 0
M  V30 15476 N 1457.41 0.45317 -1.50944 0
M  V30 15477 C 1458.65 1.20151 -1.62506 0
M  V30 15478 C 1458.98 1.92085 -0.335927 0
M  V30 15479 O 1458.25 1.84889 0.64751 0
M  V30 15480 H 1456.83 0.446502 -0.59887 0
M  V30 15481 H 1459.49 0.521103 -1.87804 0
M  V30 15482 H 1458.58 1.93972 -2.44502 0
M  V30 15483 N 1458.88 1.40823 0.707568 0
M  V30 15484 C 1459.82 1.37646 1.83265 0
M  V30 15485 C 1460.83 0.280547 1.60365 0
M  V30 15486 O 1462.02 0.541453 1.7009 0
M  V30 15487 C 1459.12 1.12121 3.19816 0
M  V30 15488 C 1458.29 2.33522 3.69846 0
M  V30 15489 C 1457.35 2.04035 4.85032 0
M  V30 15490 O 1456.38 2.76971 4.97268 0
M  V30 15491 N 1457.58 1.02322 5.71411 0
M  V30 15492 H 1460.34 2.34612 1.86486 0
M  V30 15493 H 1457.9 1.35281 0.889424 0
M  V30 15494 H 1459.9 0.903663 3.94482 0
M  V30 15495 H 1458.47 0.237941 3.11693 0
M  V30 15496 H 1457.69 2.71055 2.86221 0
M  V30 15497 H 1458.97 3.14436 4.00009 0
M  V30 15498 H 1458.37 0.419311 5.64144 0
M  V30 15499 H 1456.93 0.865571 6.46027 0
M  V30 15500 N 1460.36 -0.94061 1.26453 0
M  V30 15501 C 1461.59 -1.72654 1.14914 0
M  V30 15502 C 1462.01 -1.85823 -0.291789 0
M  V30 15503 O 1461.37 -1.34888 -1.2114 0
M  V30 15504 C 1461.42 -3.11083 1.82372 0
M  V30 15505 O 1460.52 -3.971 1.1129 0
M  V30 15506 H 1459.86 -0.529704 0.400387 0
M  V30 15507 H 1462.39 -1.17803 1.67283 0
M  V30 15508 H 1462.4 -3.6147 1.89219 0
M  V30 15509 H 1461.08 -3.00815 2.87199 0
M  V30 15510 H 1459.66 -3.5555 1.12423 0
M  V30 15511 N 1461.84 -1.08266 -1.14527 0
M  V30 15512 C 1463.25 -0.832702 -1.67102 0
M  V30 15513 C 1463.6 0.640776 -1.85441 0
M  V30 15514 O 1462.73 1.49505 -1.56452 0
M  V30 15515 C 1463.32 -1.50502 -3.03537 0
M  V30 15516 C 1461.88 -1.30234 -3.53152 0
M  V30 15517 C 1461.03 -1.56873 -2.28661 0
M  V30 15518 H 1463.98 -1.24344 -0.986118 0
M  V30 15519 H 1464 -0.931426 -3.68924 0
M  V30 15520 H 1463.51 -2.57741 -2.90157 0
M  V30 15521 H 1461.61 -0.250582 -3.71756 0
M  V30 15522 H 1461.73 -2.02898 -4.34015 0
M  V30 15523 H 1460.09 -0.990214 -2.34663 0
M  V30 15524 H 1460.87 -2.65316 -2.17859 0
M  V30 15525 N 1463.32 1.31536 -0.86811 0
M  V30 15526 C 1464.57 1.96045 -0.474271 0
M  V30 15527 C 1464.88 1.6939 0.978071 0
M  V30 15528 O 1466.09 2.27746 1.47797 0
M  V30 15529 C 1464.54 3.5096 -0.797203 0
M  V30 15530 C 1464.15 3.86456 -2.26618 0
M  V30 15531 C 1465.9 4.21871 -0.471745 0
M  V30 15532 C 1463.8 5.34474 -2.53162 0
M  V30 15533 H 1462.73 0.733737 -0.173627 0
M  V30 15534 H 1465.38 1.49734 -1.06076 0
M  V30 15535 H 1463.77 3.95752 -0.139994 0
M  V30 15536 H 1464.94 3.52629 -2.9663 0
M  V30 15537 H 1463.25 3.28605 -2.55749 0
M  V30 15538 H 1465.85 5.30767 -0.647317 0
M  V30 15539 H 1466.19 4.12131 0.58768 0
M  V30 15540 H 1466.73 3.82706 -1.08542 0
M  V30 15541 H 1463.47 5.49248 -3.57781 0
M  V30 15542 H 1462.99 5.6966 -1.87743 0
M  V30 15543 H 1464.67 6.01716 -2.37797 0
M  V30 15544 N 1464.8 0.627364 1.44575 0
M  V30 15545 C 1466.04 0.130352 2.0208 0
M  V30 15546 C 1466.37 -1.24642 1.49314 0
M  V30 15547 O 1465.63 -1.84022 0.665923 0
M  V30 15548 C 1465.93 0.0622409 3.57346 0
M  V30 15549 C 1465.59 1.37729 4.2935 0
M  V30 15550 C 1464.25 1.73747 4.48737 0
M  V30 15551 C 1466.61 2.2455 4.70347 0
M  V30 15552 C 1463.93 2.96301 5.06382 0
M  V30 15553 C 1466.29 3.46371 5.29349 0
M  V30 15554 C 1464.95 3.82616 5.46956 0
M  V30 15555 H 1464.22 0.0476991 0.739463 0
M  V30 15556 H 1466.87 0.812928 1.73389 0
M  V30 15557 H 1465.17 -0.70369 3.85429 0
M  V30 15558 H 1466.87 -0.338778 3.99566 0
M  V30 15559 H 1463.46 1.08699 4.14587 0
M  V30 15560 H 1467.64 1.98019 4.55085 0
M  V30 15561 H 1462.9 3.24465 5.18201 0
M  V30 15562 H 1467.07 4.13882 5.60067 0
M  V30 15563 H 1464.7 4.77663 5.9139 0
M  V30 15564 N 1466.28 -1.53251 0.367684 0
M  V30 15565 C 1467.52 -2.02269 -0.214246 0
M  V30 15566 C 1467.88 -1.25014 -1.46251 0
M  V30 15567 O 1467.17 -0.335984 -1.88631 0
M  V30 15568 C 1467.36 -3.53031 -0.557149 0
M  V30 15569 C 1467.19 -4.44885 0.656332 0
M  V30 15570 C 1465.96 -4.91591 1.16905 0
M  V30 15571 C 1468.16 -4.91258 1.52218 0
M  V30 15572 N 1466.14 -5.67457 2.34233 0
M  V30 15573 C 1467.51 -5.65488 2.5421 0
M  V30 15574 C 1469.57 -4.73329 1.54481 0
M  V30 15575 C 1468.27 -6.23696 3.58324 0
M  V30 15576 C 1470.3 -5.32403 2.5749 0
M  V30 15577 C 1469.66 -6.06521 3.58206 0
M  V30 15578 H 1465.76 -0.780921 -0.0410579 0
M  V30 15579 H 1468.34 -1.87828 0.512703 0
M  V30 15580 H 1466.51 -3.67628 -1.25317 0
M  V30 15581 H 1468.25 -3.88768 -1.12435 0
M  V30 15582 H 1465 -4.67888 0.733353 0
M  V30 15583 H 1465.42 -6.10052 2.9354 0
M  V30 15584 H 1470.07 -4.15549 0.779688 0
M  V30 15585 H 1467.78 -6.8057 4.35717 0
M  V30 15586 H 1471.37 -5.20423 2.60098 0
M  V30 15587 H 1470.25 -6.51418 4.36606 0
M  V30 15588 N 1467.75 -0.0969077 -1.57302 0
M  V30 15589 C 1468.98 0.573872 -1.9847 0
M  V30 15590 C 1469.39 1.62149 -0.974894 0
M  V30 15591 O 1468.73 1.83649 0.0434873 0
M  V30 15592 C 1468.8 1.2781 -3.36013 0
M  V30 15593 C 1468.46 0.381022 -4.55409 0
M  V30 15594 C 1469.46 -0.371559 -5.18571 0
M  V30 15595 C 1467.14 0.29855 -5.01412 0
M  V30 15596 C 1469.14 -1.19457 -6.26106 0
M  V30 15597 C 1466.82 -0.528116 -6.08814 0
M  V30 15598 C 1467.82 -1.27333 -6.71026 0
M  V30 15599 O 1467.51 -2.08631 -7.76356 0
M  V30 15600 H 1467.24 0.158369 -0.657187 0
M  V30 15601 H 1469.8 -0.173415 -2.04667 0
M  V30 15602 H 1468.03 2.07199 -3.26505 0
M  V30 15603 H 1469.71 1.84359 -3.61617 0
M  V30 15604 H 1470.48 -0.317586 -4.83959 0
M  V30 15605 H 1466.36 0.868247 -4.5275 0
M  V30 15606 H 1469.9 -1.77673 -6.74595 0
M  V30 15607 H 1465.8 -0.583563 -6.42857 0
M  V30 15608 H 1466.57 -2.01333 -7.93352 0
M  V30 15609 N 1469.23 1.56605 0.176793 0
M  V30 15610 C 1470.19 1.95109 1.20271 0
M  V30 15611 C 1471.19 0.83414 1.37473 0
M  V30 15612 O 1472.38 1.10128 1.34972 0
M  V30 15613 C 1469.52 2.24112 2.56878 0
M  V30 15614 H 1470.71 2.86909 0.87312 0
M  V30 15615 H 1468.26 1.50578 0.419033 0
M  V30 15616 H 1469 1.35009 2.94861 0
M  V30 15617 H 1468.78 3.05523 2.45761 0
M  V30 15618 H 1470.27 2.54842 3.30825 0
M  V30 15619 N 1470.71 -0.445159 1.51182 0
M  V30 15620 C 1472.12 -1.02528 1.56028 0
M  V30 15621 C 1472.47 -1.92503 0.379087 0
M  V30 15622 O 1471.6 -2.10424 -0.505056 0
M  V30 15623 C 1472.19 -1.86621 2.82768 0
M  V30 15624 C 1470.75 -2.39697 2.90211 0
M  V30 15625 C 1469.9 -1.18705 2.50608 0
M  V30 15626 H 1472.85 -0.226732 1.57072 0
M  V30 15627 H 1472.87 -2.71987 2.66089 0
M  V30 15628 H 1472.38 -1.2111 3.68719 0
M  V30 15629 H 1470.48 -3.08686 2.08672 0
M  V30 15630 H 1470.6 -2.73029 3.9369 0
M  V30 15631 H 1468.96 -1.52995 2.03629 0
M  V30 15632 H 1469.74 -0.548156 3.38895 0
M  V30 15633 N 1472.19 -1.41197 -0.700089 0
M  V30 15634 C 1473.1 -1.45038 -1.84394 0
M  V30 15635 C 1474.11 -0.34141 -1.70618 0
M  V30 15636 O 1475.29 -0.588428 -1.92612 0
M  V30 15637 C 1472.35 -1.32611 -3.20336 0
M  V30 15638 C 1471.42 -2.53784 -3.46254 0
M  V30 15639 C 1470.65 -2.4194 -4.75711 0
M  V30 15640 O 1470.87 -1.44153 -5.51884 0
M  V30 15641 O 1469.81 -3.31613 -5.02311 0
M  V30 15642 H 1473.63 -2.41531 -1.8411 0
M  V30 15643 H 1471.22 -1.22686 -0.852558 0
M  V30 15644 H 1473.1 -1.27947 -4.01507 0
M  V30 15645 H 1471.77 -0.392309 -3.21314 0
M  V30 15646 H 1470.68 -2.64024 -2.65032 0
M  V30 15647 H 1472.01 -3.45977 -3.50087 0
M  V30 15648 N 1473.67 0.933891 -1.2695 0
M  V30 15649 C 1474.89 1.72042 -1.15828 0
M  V30 15650 C 1475.32 1.85975 0.28193 0
M  V30 15651 O 1474.67 1.35528 1.20423 0
M  V30 15652 C 1474.72 3.10112 -1.84019 0
M  V30 15653 O 1473.83 3.96504 -1.13394 0
M  V30 15654 H 1473.17 0.527573 -0.40319 0
M  V30 15655 H 1475.7 1.16914 -1.67905 0
M  V30 15656 H 1475.71 3.60461 -1.91133 0
M  V30 15657 H 1474.38 2.99287 -2.8879 0
M  V30 15658 H 1472.96 3.54948 -1.14307 0
M  V30 15659 N 1475.14 1.08871 1.13951 0
M  V30 15660 C 1476.07 0.744715 2.21306 0
M  V30 15661 C 1477.05 -0.275019 1.67862 0
M  V30 15662 O 1478.24 -0.144339 1.93663 0
M  V30 15663 C 1475.37 0.158336 3.46939 0
M  V30 15664 C 1474.32 1.10695 4.13438 0
M  V30 15665 C 1473.65 0.382552 5.3333 0
M  V30 15666 C 1474.95 2.44704 4.61429 0
M  V30 15667 H 1476.64 1.6423 2.50337 0
M  V30 15668 H 1474.19 0.791088 1.20324 0
M  V30 15669 H 1476.14 -0.0943587 4.21294 0
M  V30 15670 H 1474.87 -0.774413 3.17286 0
M  V30 15671 H 1473.53 1.34482 3.41043 0
M  V30 15672 H 1473.17 -0.554153 4.99938 0
M  V30 15673 H 1472.87 1.01499 5.78767 0
M  V30 15674 H 1474.4 0.138023 6.10444 0
M  V30 15675 H 1475.81 2.25156 5.27236 0
M  V30 15676 H 1474.21 3.03684 5.17586 0
M  V30 15677 H 1475.28 3.05883 3.76249 0
M  V30 15678 N 1476.62 -1.31073 0.875073 0
M  V30 15679 C 1477.85 -2.01223 0.502383 0
M  V30 15680 C 1478.27 -1.65223 -0.899053 0
M  V30 15681 O 1477.63 -0.863559 -1.59412 0
M  V30 15682 C 1477.68 -3.54269 0.672747 0
M  V30 15683 O 1476.78 -4.11409 -0.285718 0
M  V30 15684 H 1476.12 -0.633422 0.199181 0
M  V30 15685 H 1478.65 -1.67152 1.17989 0
M  V30 15686 H 1478.66 -4.04027 0.567973 0
M  V30 15687 H 1477.34 -3.79811 1.69459 0
M  V30 15688 H 1475.91 -3.72654 -0.135472 0
M  V30 15689 N 1478.1 -0.635022 -1.4424 0
M  V30 15690 C 1479.38 -0.0718064 -1.95468 0
M  V30 15691 C 1479.76 1.40348 -1.57689 0
M  V30 15692 O 1479.11 2.11986 -0.852888 0
M  V30 15693 C 1479.32 -0.298793 -3.47719 0
M  V30 15694 C 1480.66 -0.194056 -4.24156 0
M  V30 15695 O 1481.69 -0.230368 -3.55454 0
M  V30 15696 O 1480.55 -0.102294 -5.46404 0
M  V30 15697 H 1477.64 0.0200784 -0.826756 0
M  V30 15698 H 1480.19 -0.706996 -1.54271 0
M  V30 15699 H 1478.96 -1.32233 -3.6828 0
M  V30 15700 H 1478.58 0.370347 -3.95871 0
M  V30 15701 N 1479.58 1.53054 -0.375806 0
M  V30 15702 C 1480.53 2.27576 0.480838 0
M  V30 15703 C 1481.52 1.30948 1.07466 0
M  V30 15704 O 1482.73 1.48538 1.01669 0
M  V30 15705 H 1479.1 0.731641 0.173799 0
M  V30 15706 H 1481.07 2.97919 -0.169327 0
M  V30 15707 C 1479.82 3.08533 1.60321 0
M  V30 15708 H 1479.14 3.82735 1.15558 0
M  V30 15709 H 1480.58 3.63837 2.17712 0
M  V30 15710 C 1479.04 2.20004 2.55147 0
M  V30 15711 O 1479.57 1.81771 3.58221 0
M  V30 15712 N 1477.78 1.84433 2.24573 0
M  V30 15713 H 1477.33 2.15723 1.40788 0
M  V30 15714 H 1477.28 1.25488 2.88271 0
M  V30 15715 N 1481.06 0.105248 1.57248 0
M  V30 15716 C 1482.31 -0.555797 1.93891 0
M  V30 15717 C 1482.62 -1.68703 0.989883 0
M  V30 15718 O 1483.82 -2.40991 1.25043 0
M  V30 15719 C 1482.28 -1.04006 3.44544 0
M  V30 15720 C 1481.89 0.0619641 4.47957 0
M  V30 15721 C 1483.63 -1.67327 3.90131 0
M  V30 15722 C 1481.54 -0.438229 5.89774 0
M  V30 15723 H 1480.47 -0.211391 0.723761 0
M  V30 15724 H 1483.12 0.182887 1.82586 0
M  V30 15725 H 1481.5 -1.83275 3.51036 0
M  V30 15726 H 1482.68 0.837803 4.5312 0
M  V30 15727 H 1480.99 0.600973 4.1204 0
M  V30 15728 H 1483.59 -2.0584 4.93492 0
M  V30 15729 H 1483.93 -2.54638 3.29341 0
M  V30 15730 H 1484.46 -0.946231 3.86382 0
M  V30 15731 H 1481.2 0.398506 6.54288 0
M  V30 15732 H 1480.72 -1.18085 5.88061 0
M  V30 15733 H 1482.4 -0.903922 6.40655 0
M  V30 15734 N 1482.53 -1.56697 -0.168486 0
M  V30 15735 C 1483.78 -1.82154 -0.884654 0
M  V30 15736 C 1484.11 -0.682778 -1.82122 0
M  V30 15737 O 1483.36 0.32977 -1.92902 0
M  V30 15738 C 1483.66 -3.138 -1.71068 0
M  V30 15739 C 1483.33 -4.41356 -0.922793 0
M  V30 15740 C 1481.99 -4.76002 -0.705352 0
M  V30 15741 C 1484.34 -5.19883 -0.370323 0
M  V30 15742 C 1481.67 -5.86651 0.0756121 0
M  V30 15743 C 1484.02 -6.31349 0.397568 0
M  V30 15744 C 1482.69 -6.6456 0.625782 0
M  V30 15745 H 1481.96 -0.666549 -0.323718 0
M  V30 15746 H 1484.6 -1.90916 -0.149432 0
M  V30 15747 H 1482.91 -3.00393 -2.51538 0
M  V30 15748 H 1484.61 -3.30708 -2.2679 0
M  V30 15749 H 1481.2 -4.14182 -1.10231 0
M  V30 15750 H 1485.38 -4.93509 -0.525646 0
M  V30 15751 H 1480.64 -6.10838 0.262137 0
M  V30 15752 H 1484.81 -6.91401 0.832902 0
M  V30 15753 H 1482.44 -7.50137 1.23281 0
M  V30 15754 N 1484.01 0.437135 -1.51416 0
M  V30 15755 C 1485.24 1.21359 -1.68187 0
M  V30 15756 C 1485.66 1.84247 -0.378748 0
M  V30 15757 O 1485.02 1.68816 0.661115 0
M  V30 15758 C 1485.07 2.27319 -2.79926 0
M  V30 15759 O 1484.17 3.32807 -2.43543 0
M  V30 15760 H 1483.51 0.355547 -0.560787 0
M  V30 15761 H 1486.04 0.516204 -1.97981 0
M  V30 15762 H 1486.05 2.721 -3.04016 0
M  V30 15763 H 1484.73 1.80923 -3.74486 0
M  V30 15764 H 1483.31 2.93501 -2.30025 0
M  V30 15765 N 1485.49 1.41566 0.692592 0
M  V30 15766 C 1486.91 1.24101 1.00355 0
M  V30 15767 C 1487.11 0.132485 2.01064 0
M  V30 15768 O 1486.16 -0.502142 2.47457 0
M  V30 15769 C 1487.48 2.59142 1.52532 0
M  V30 15770 C 1489.02 2.66348 1.64401 0
M  V30 15771 C 1489.5 4.01713 2.19978 0
M  V30 15772 N 1490.99 4.03575 2.27335 0
M  V30 15773 C 1491.72 5.05118 2.71373 0
M  V30 15774 N 1491.22 6.1705 3.14994 0
M  V30 15775 N 1493.01 4.92479 2.70963 0
M  V30 15776 H 1485.16 2.12385 0.0254859 0
M  V30 15777 H 1487.43 0.945118 0.0738684 0
M  V30 15778 H 1487.13 3.41026 0.85989 0
M  V30 15779 H 1487.01 2.81833 2.50699 0
M  V30 15780 H 1489.39 1.84821 2.30055 0
M  V30 15781 H 1489.48 2.47464 0.647717 0
M  V30 15782 H 1489.12 4.8369 1.54939 0
M  V30 15783 H 1489.05 4.1794 3.20365 0
M  V30 15784 H 1491.54 3.2276 1.96556 0
M  V30 15785 H 1491.85 6.90399 3.47231 0
M  V30 15786 H 1490.2 6.20582 3.12895 0
M  V30 15787 H 1493.39 4.04117 2.36236 0
M  V30 15788 H 1493.56 5.71752 3.04965 0
M  V30 15789 N 1486.97 -0.927146 1.27443 0
M  V30 15790 C 1487.9 -2.03209 1.06013 0
M  V30 15791 C 1488.91 -1.62792 0.016041 0
M  V30 15792 O 1490.1 -1.76631 0.25766 0
M  V30 15793 C 1487.2 -3.33791 0.586225 0
M  V30 15794 C 1486.38 -4.02897 1.70273 0
M  V30 15795 C 1485.43 -5.11755 1.22447 0
M  V30 15796 O 1484.46 -5.35688 1.92423 0
M  V30 15797 N 1485.66 -5.80444 0.0804162 0
M  V30 15798 H 1488.43 -2.22155 2.01165 0
M  V30 15799 H 1485.99 -1.09757 1.19017 0
M  V30 15800 H 1487.98 -4.03926 0.250161 0
M  V30 15801 H 1486.55 -3.11414 -0.272076 0
M  V30 15802 H 1485.77 -3.26489 2.20905 0
M  V30 15803 H 1487.06 -4.45816 2.45205 0
M  V30 15804 H 1486.46 -5.63454 -0.503635 0
M  V30 15805 H 1485.01 -6.51504 -0.196466 0
M  V30 15806 N 1488.45 -1.09474 -1.13372 0
M  V30 15807 C 1489.67 -0.853093 -1.89043 0
M  V30 15808 C 1490.1 0.590075 -1.78605 0
M  V30 15809 O 1489.45 1.41462 -1.13394 0
M  V30 15810 C 1489.5 -1.29359 -3.36599 0
M  V30 15811 O 1488.61 -0.452355 -4.09912 0
M  V30 15812 H 1487.95 -0.308922 -0.587761 0
M  V30 15813 H 1490.48 -1.459 -1.43437 0
M  V30 15814 H 1490.49 -1.27921 -3.87428 0
M  V30 15815 H 1489.16 -2.3446 -3.43513 0
M  V30 15816 H 1487.74 -0.531098 -3.69099 0
M  V30 15817 N 1489.92 1.30607 -0.882012 0
M  V30 15818 C 1491.2 1.91056 -0.419153 0
M  V30 15819 C 1491.58 1.80185 1.09985 0
M  V30 15820 O 1490.93 1.21717 1.93384 0
M  V30 15821 C 1491.14 3.3682 -0.913949 0
M  V30 15822 C 1492.49 4.13901 -0.947169 0
M  V30 15823 O 1493.51 3.45652 -0.860412 0
M  V30 15824 O 1492.37 5.35826 -1.07483 0
M  V30 15825 H 1489.46 0.81709 -0.127645 0
M  V30 15826 H 1492.01 1.39195 -0.970717 0
M  V30 15827 H 1490.78 3.38804 -1.95774 0
M  V30 15828 H 1490.41 3.96132 -0.34138 0
M  V30 15829 N 1491.4 0.642663 1.43901 0
M  V30 15830 C 1492.65 0.152003 2.0223 0
M  V30 15831 C 1492.98 -1.22711 1.50518 0
M  V30 15832 O 1492.26 -1.817 0.693937 0
M  V30 15833 C 1492.54 0.151278 3.59782 0
M  V30 15834 C 1492.39 1.56356 4.2175 0
M  V30 15835 C 1493.71 -0.518016 4.37041 0
M  V30 15836 H 1490.83 0.0567094 0.734815 0
M  V30 15837 H 1493.47 0.821337 1.7133 0
M  V30 15838 H 1491.62 -0.418679 3.86237 0
M  V30 15839 H 1493.29 2.18329 4.06362 0
M  V30 15840 H 1491.54 2.11401 3.78803 0
M  V30 15841 H 1492.21 1.51499 5.30803 0
M  V30 15842 H 1494.68 -0.0331947 4.16087 0
M  V30 15843 H 1493.56 -0.487754 5.46729 0
M  V30 15844 H 1493.82 -1.59036 4.12504 0
M  V30 15845 N 1492.88 -1.52852 0.383918 0
M  V30 15846 C 1494.13 -2.02484 -0.19278 0
M  V30 15847 C 1494.48 -1.26558 -1.44917 0
M  V30 15848 O 1493.78 -0.355972 -1.88264 0
M  V30 15849 C 1493.97 -3.53602 -0.519674 0
M  V30 15850 C 1493.8 -4.44164 0.703481 0
M  V30 15851 C 1492.57 -4.90323 1.22112 0
M  V30 15852 C 1494.77 -4.89616 1.5742 0
M  V30 15853 N 1492.75 -5.64941 2.40239 0
M  V30 15854 C 1494.12 -5.6276 2.60194 0
M  V30 15855 C 1496.17 -4.71664 1.59493 0
M  V30 15856 C 1494.88 -6.1986 3.64919 0
M  V30 15857 C 1496.9 -5.29642 2.63122 0
M  V30 15858 C 1496.27 -6.02688 3.64619 0
M  V30 15859 H 1492.36 -0.781313 -0.0327729 0
M  V30 15860 H 1494.95 -1.87274 0.532596 0
M  V30 15861 H 1493.12 -3.68936 -1.21411 0
M  V30 15862 H 1494.85 -3.89938 -1.08306 0
M  V30 15863 H 1491.61 -4.67084 0.782938 0
M  V30 15864 H 1492.03 -6.06904 2.99994 0
M  V30 15865 H 1496.67 -4.14698 0.823719 0
M  V30 15866 H 1494.39 -6.75911 4.42911 0
M  V30 15867 H 1497.98 -5.17635 2.65603 0
M  V30 15868 H 1496.86 -6.4675 4.43491 0
M  V30 15869 N 1494.36 -0.113586 -1.5719 0
M  V30 15870 C 1495.58 0.556928 -1.99783 0
M  V30 15871 C 1496.01 1.59774 -0.992669 0
M  V30 15872 O 1495.37 1.81263 0.0363821 0
M  V30 15873 C 1495.42 1.16463 -3.41275 0
M  V30 15874 O 1494.52 2.28024 -3.43626 0
M  V30 15875 H 1493.86 0.139628 -0.649153 0
M  V30 15876 H 1496.39 -0.200462 -2.03616 0
M  V30 15877 H 1496.4 1.50147 -3.79368 0
M  V30 15878 H 1495.08 0.402232 -4.1395 0
M  V30 15879 H 1493.65 1.9582 -3.17347 0
M  V30 15880 N 1495.84 1.56784 0.160173 0
M  V30 15881 C 1497.08 1.82621 0.874982 0
M  V30 15882 C 1497.41 0.692427 1.81757 0
M  V30 15883 O 1496.67 -0.319535 1.93074 0
M  V30 15884 C 1496.97 3.14703 1.69402 0
M  V30 15885 C 1496.63 4.41839 0.899373 0
M  V30 15886 C 1495.29 4.7637 0.680099 0
M  V30 15887 C 1497.65 5.20072 0.342747 0
M  V30 15888 C 1494.97 5.86603 -0.106723 0
M  V30 15889 C 1497.33 6.3113 -0.431044 0
M  V30 15890 C 1495.99 6.64219 -0.661017 0
M  V30 15891 H 1495.26 0.668256 0.320178 0
M  V30 15892 H 1497.91 1.90993 0.139305 0
M  V30 15893 H 1496.21 3.01723 2.49941 0
M  V30 15894 H 1497.91 3.31906 2.25032 0
M  V30 15895 H 1494.5 4.14761 1.08033 0
M  V30 15896 H 1498.68 4.9378 0.499467 0
M  V30 15897 H 1493.94 6.1069 -0.294528 0
M  V30 15898 H 1498.11 6.9095 -0.869557 0
M  V30 15899 H 1495.74 7.49473 -1.27257 0
M  V30 15900 N 1497.32 -0.429099 1.51646 0
M  V30 15901 C 1498.56 -1.17551 1.64396 0
M  V30 15902 C 1498.88 -1.91526 0.366444 0
M  V30 15903 O 1498.15 -1.85896 -0.618013 0
M  V30 15904 H 1496.73 -0.436918 0.605898 0
M  V30 15905 H 1499.4 -0.491159 1.8861 0
M  V30 15906 H 1498.49 -1.90057 2.47557 0
M  V30 15907 N 1498.79 -1.41931 -0.685074 0
M  V30 15908 C 1500.04 -1.42062 -1.44728 0
M  V30 15909 C 1500.37 -0.0332072 -1.94172 0
M  V30 15910 O 1499.65 0.940835 -1.70231 0
M  V30 15911 C 1499.93 -2.43634 -2.65168 0
M  V30 15912 C 1499.78 -3.91525 -2.21423 0
M  V30 15913 C 1501.1 -2.42325 -3.67378 0
M  V30 15914 H 1498.22 -0.517321 -0.524927 0
M  V30 15915 H 1500.86 -1.73277 -0.779419 0
M  V30 15916 H 1499.01 -2.17146 -3.22149 0
M  V30 15917 H 1500.69 -4.28956 -1.69689 0
M  V30 15918 H 1498.93 -4.05886 -1.53099 0
M  V30 15919 H 1499.6 -4.58158 -3.07889 0
M  V30 15920 H 1502.08 -2.65857 -3.20093 0
M  V30 15921 H 1500.95 -3.15391 -4.49243 0
M  V30 15922 H 1501.21 -1.44555 -4.17799 0
M  V30 15923 N 1500.27 0.920374 -1.27933 0
M  V30 15924 C 1501.52 1.67131 -1.1487 0
M  V30 15925 C 1501.85 1.91816 0.303343 0
M  V30 15926 O 1501.13 1.51379 1.22125 0
M  V30 15927 C 1501.41 3.03332 -1.94066 0
M  V30 15928 C 1501.26 2.85842 -3.47296 0
M  V30 15929 C 1502.58 4.03773 -1.75087 0
M  V30 15930 H 1499.7 0.606537 -0.418666 0
M  V30 15931 H 1502.34 1.06755 -1.57173 0
M  V30 15932 H 1500.49 3.54869 -1.58116 0
M  V30 15933 H 1502.16 2.41367 -3.93115 0
M  V30 15934 H 1500.41 2.21035 -3.73264 0
M  V30 15935 H 1501.08 3.82535 -3.97958 0
M  V30 15936 H 1503.55 3.61274 -2.06447 0
M  V30 15937 H 1502.43 4.97048 -2.32882 0
M  V30 15938 H 1502.69 4.36512 -0.700665 0
M  V30 15939 N 1501.75 1.10074 1.1279 0
M  V30 15940 C 1502.68 0.768146 2.20503 0
M  V30 15941 C 1503.66 -0.257199 1.68144 0
M  V30 15942 O 1504.85 -0.12379 1.93805 0
M  V30 15943 C 1501.98 0.195125 3.46751 0
M  V30 15944 C 1500.93 1.15074 4.1224 0
M  V30 15945 C 1500.26 0.439098 5.32894 0
M  V30 15946 C 1501.56 2.49584 4.58808 0
M  V30 15947 H 1503.25 1.66876 2.48581 0
M  V30 15948 H 1500.8 0.803806 1.19478 0
M  V30 15949 H 1502.75 -0.0496695 4.21371 0
M  V30 15950 H 1501.47 -0.740717 3.1809 0
M  V30 15951 H 1500.13 1.38092 3.39597 0
M  V30 15952 H 1499.78 -0.501096 5.00498 0
M  V30 15953 H 1499.48 1.07632 5.77658 0
M  V30 15954 H 1501 0.202761 6.10263 0
M  V30 15955 H 1502.42 2.30736 5.24818 0
M  V30 15956 H 1500.81 3.09157 5.14336 0
M  V30 15957 H 1501.88 3.09857 3.72984 0
M  V30 15958 N 1503.23 -1.30138 0.888926 0
M  V30 15959 C 1504.46 -1.99853 0.523676 0
M  V30 15960 C 1504.87 -1.66783 -0.893312 0
M  V30 15961 O 1504.21 -0.903292 -1.59957 0
M  V30 15962 C 1504.27 -3.54055 0.623332 0
M  V30 15963 C 1503.93 -4.10652 2.00534 0
M  V30 15964 C 1504.93 -4.26353 2.97522 0
M  V30 15965 C 1502.62 -4.45938 2.3118 0
M  V30 15966 C 1504.61 -4.76557 4.23288 0
M  V30 15967 C 1502.3 -4.95841 3.57191 0
M  V30 15968 C 1503.3 -5.11103 4.53059 0
M  V30 15969 O 1502.98 -5.59927 5.76833 0
M  V30 15970 H 1502.72 -0.645553 0.200591 0
M  V30 15971 H 1505.27 -1.66899 1.19724 0
M  V30 15972 H 1503.5 -3.86551 -0.107221 0
M  V30 15973 H 1505.19 -4.05009 0.26879 0
M  V30 15974 H 1505.95 -3.9939 2.75159 0
M  V30 15975 H 1501.83 -4.33324 1.57326 0
M  V30 15976 H 1505.38 -4.88385 4.98123 0
M  V30 15977 H 1501.27 -5.22239 3.7939 0
M  V30 15978 H 1502.04 -5.78263 5.79271 0
M  V30 15979 N 1504.71 -0.650285 -1.43559 0
M  V30 15980 C 1505.62 0.0438076 -2.34559 0
M  V30 15981 C 1506.63 0.815316 -1.53716 0
M  V30 15982 O 1507.81 0.76323 -1.86378 0
M  V30 15983 C 1504.87 1.00028 -3.31957 0
M  V30 15984 C 1503.93 0.226027 -4.28705 0
M  V30 15985 C 1503.17 1.13694 -5.21449 0
M  V30 15986 O 1503.39 2.37614 -5.18551 0
M  V30 15987 O 1502.32 0.610924 -5.98792 0
M  V30 15988 H 1506.15 -0.705152 -2.954 0
M  V30 15989 H 1503.73 -0.410471 -1.43651 0
M  V30 15990 H 1505.62 1.55004 -3.91857 0
M  V30 15991 H 1504.29 1.72952 -2.73623 0
M  V30 15992 H 1503.2 -0.367244 -3.72293 0
M  V30 15993 H 1504.53 -0.463582 -4.90012 0
M  V30 15994 N 1506.18 1.52647 -0.392018 0
M  V30 15995 C 1507.11 2.29446 0.433228 0
M  V30 15996 C 1508.09 1.32945 1.06111 0
M  V30 15997 O 1509.28 1.61841 1.07337 0
M  V30 15998 C 1506.41 3.10328 1.55929 0
M  V30 15999 C 1505.36 4.14735 1.05731 0
M  V30 16000 C 1504.69 4.83858 2.27565 0
M  V30 16001 C 1505.99 5.22154 0.123346 0
M  V30 16002 H 1507.68 2.9868 -0.207563 0
M  V30 16003 H 1505.23 1.43643 -0.101266 0
M  V30 16004 H 1507.18 3.62814 2.14346 0
M  V30 16005 H 1505.91 2.38832 2.22771 0
M  V30 16006 H 1504.57 3.63234 0.495653 0
M  V30 16007 H 1504.21 4.08907 2.92923 0
M  V30 16008 H 1503.91 5.54428 1.94637 0
M  V30 16009 H 1505.44 5.39149 2.86619 0
M  V30 16010 H 1506.85 5.69983 0.615784 0
M  V30 16011 H 1505.25 5.99987 -0.116304 0
M  V30 16012 H 1506.32 4.77796 -0.826969 0
M  V30 16013 N 1507.66 0.121921 1.57128 0
M  V30 16014 C 1508.91 -0.535371 1.95295 0
M  V30 16015 C 1509.24 -1.665 1.00539 0
M  V30 16016 O 1508.49 -1.95677 0.0298129 0
M  V30 16017 C 1508.79 -1.10579 3.39863 0
M  V30 16018 C 1508.46 -0.0972144 4.50795 0
M  V30 16019 C 1507.12 0.180111 4.80863 0
M  V30 16020 C 1509.47 0.589973 5.1785 0
M  V30 16021 C 1506.8 1.15086 5.75302 0
M  V30 16022 C 1509.15 1.54937 6.13333 0
M  V30 16023 C 1507.82 1.83465 6.41792 0
M  V30 16024 H 1507.09 -0.195906 0.714634 0
M  V30 16025 H 1509.73 0.203445 1.90416 0
M  V30 16026 H 1508.04 -1.92143 3.4145 0
M  V30 16027 H 1509.73 -1.62252 3.66709 0
M  V30 16028 H 1506.32 -0.32355 4.27377 0
M  V30 16029 H 1510.51 0.38889 4.94774 0
M  V30 16030 H 1505.76 1.3786 5.95655 0
M  V30 16031 H 1509.94 2.08751 6.64376 0
M  V30 16032 H 1507.57 2.58841 7.14777 0
M  V30 16033 N 1509.14 -1.56867 -0.151857 0
M  V30 16034 C 1510.37 -1.87237 -0.880343 0
M  V30 16035 C 1510.78 -0.709565 -1.74959 0
M  V30 16036 O 1510.14 0.320818 -1.79658 0
M  V30 16037 C 1510.19 -3.16811 -1.74107 0
M  V30 16038 O 1509.91 -4.28611 -0.906858 0
M  V30 16039 C 1511.41 -3.60662 -2.57755 0
M  V30 16040 H 1508.63 -0.62074 -0.254799 0
M  V30 16041 H 1511.18 -2.03977 -0.146104 0
M  V30 16042 H 1509.33 -3.01838 -2.42842 0
M  V30 16043 H 1509.75 -5.02673 -1.49733 0
M  V30 16044 H 1511.22 -4.54176 -3.13732 0
M  V30 16045 H 1511.7 -2.85716 -3.33561 0
M  V30 16046 H 1512.3 -3.78312 -1.94319 0
M  V30 16047 N 1510.62 0.421051 -1.51871 0
M  V30 16048 C 1511.85 1.18938 -1.6893 0
M  V30 16049 C 1512.26 1.85069 -0.393198 0
M  V30 16050 O 1511.6 1.72204 0.639648 0
M  V30 16051 C 1511.66 2.30343 -2.76012 0
M  V30 16052 C 1511.33 1.84446 -4.18125 0
M  V30 16053 C 1512.32 1.33882 -5.02366 0
M  V30 16054 C 1510.01 1.91642 -4.64305 0
M  V30 16055 C 1512 0.911212 -6.30853 0
M  V30 16056 C 1509.69 1.48492 -5.92784 0
M  V30 16057 C 1510.69 0.98316 -6.75887 0
M  V30 16058 O 1510.37 0.557853 -8.01962 0
M  V30 16059 H 1510.11 0.363908 -0.56969 0
M  V30 16060 H 1512.66 0.503089 -1.99144 0
M  V30 16061 H 1510.89 3.02298 -2.41148 0
M  V30 16062 H 1512.58 2.92148 -2.81787 0
M  V30 16063 H 1513.35 1.27704 -4.67885 0
M  V30 16064 H 1509.22 2.29641 -3.99732 0
M  V30 16065 H 1512.77 0.518877 -6.95668 0
M  V30 16066 H 1508.67 1.54345 -6.26776 0
M  V30 16067 H 1509.43 0.682238 -8.15652 0
M  V30 16068 N 1512.1 1.42293 0.677538 0
M  V30 16069 C 1513.34 1.44099 1.44965 0
M  V30 16070 C 1513.7 0.0545275 1.91923 0
M  V30 16071 O 1514.9 -0.0526718 2.68748 0
M  V30 16072 C 1513.17 2.43462 2.61651 0
M  V30 16073 S 1514.73 2.63947 3.50538 0
M  V30 16074 H 1511.55 0.51024 0.495153 0
M  V30 16075 H 1514.15 1.78874 0.788939 0
M  V30 16076 H 1512.86 3.42971 2.25387 0
M  V30 16077 H 1512.39 2.10102 3.32597 0
M  V30 16078 H 1514.4 1.92042 4.57531 0
M  V30 16079 N 1513.57 -0.913576 1.28419 0
M  V30 16080 C 1514.85 -1.64203 1.06285 0
M  V30 16081 C 1515.23 -2.07319 -0.397728 0
M  V30 16082 O 1514.58 -1.8183 -1.38383 0
M  V30 16083 C 1514.79 -2.8334 2.03763 0
M  V30 16084 C 1516.14 -3.54355 2.33918 0
M  V30 16085 O 1517.16 -2.93489 2.01848 0
M  V30 16086 O 1516.02 -4.6405 2.88652 0
M  V30 16087 H 1513.11 -0.720359 0.406217 0
M  V30 16088 H 1515.66 -0.962866 1.39739 0
M  V30 16089 H 1514.43 -2.48575 3.02203 0
M  V30 16090 H 1514.06 -3.5897 1.70956 0
M  V30 16091 N 1515.05 -1.1067 -1.12204 0
M  V30 16092 C 1516 -0.757745 -2.18007 0
M  V30 16093 C 1516.97 0.26706 -1.63939 0
M  V30 16094 O 1518.15 0.145789 -1.90242 0
M  V30 16095 C 1515.29 -0.198379 -3.44529 0
M  V30 16096 C 1514.41 -1.27878 -4.12639 0
M  V30 16097 C 1513.54 -0.6808 -5.26819 0
M  V30 16098 C 1512.58 -1.74161 -5.868 0
M  V30 16099 N 1511.72 -1.16372 -6.92389 0
M  V30 16100 H 1516.56 -1.66418 -2.47202 0
M  V30 16101 H 1514.1 -0.831216 -1.21364 0
M  V30 16102 H 1516.05 0.143838 -4.16952 0
M  V30 16103 H 1514.68 0.671279 -3.15743 0
M  V30 16104 H 1513.74 -1.73808 -3.38371 0
M  V30 16105 H 1515.05 -2.08169 -4.53285 0
M  V30 16106 H 1514.2 -0.288172 -6.06015 0
M  V30 16107 H 1512.94 0.153521 -4.87458 0
M  V30 16108 H 1511.95 -2.14364 -5.06289 0
M  V30 16109 H 1513.17 -2.57882 -6.28231 0
M  V30 16110 H 1511.12 -0.350899 -6.55061 0
M  V30 16111 H 1511.03 -1.90344 -7.31646 0
M  V30 16112 H 1512.3 -0.797715 -7.75407 0
M  V30 16113 N 1516.53 1.29665 -0.895815 0
M  V30 16114 C 1517.76 2.00399 -0.534333 0
M  V30 16115 C 1518.18 1.66632 0.872654 0
M  V30 16116 O 1517.54 0.888811 1.58018 0
M  V30 16117 C 1517.59 3.53154 -0.729023 0
M  V30 16118 O 1516.69 4.11812 0.22023 0
M  V30 16119 H 1516.03 0.630173 -0.209233 0
M  V30 16120 H 1518.56 1.65253 -1.20634 0
M  V30 16121 H 1518.57 4.03073 -0.632179 0
M  V30 16122 H 1517.25 3.77067 -1.75481 0
M  V30 16123 H 1515.82 3.72822 0.0761687 0
M  V30 16124 N 1518.01 0.657889 1.43212 0
M  V30 16125 C 1519.25 0.176848 2.03634 0
M  V30 16126 C 1519.61 -1.18833 1.50807 0
M  V30 16127 O 1520.81 -1.76305 2.02904 0
M  V30 16128 C 1519.08 0.191578 3.56886 0
M  V30 16129 S 1520.64 -0.220935 4.38243 0
M  V30 16130 H 1517.46 0.0742555 0.707112 0
M  V30 16131 H 1520.06 0.867268 1.7521 0
M  V30 16132 H 1518.77 1.18781 3.92835 0
M  V30 16133 H 1518.3 -0.519229 3.89958 0
M  V30 16134 H 1520.31 -1.45865 4.74276 0
M  V30 16135 N 1519.49 -1.52437 0.400108 0
M  V30 16136 C 1520.71 -2.0661 -0.180861 0
M  V30 16137 C 1521.14 -1.269 -1.38845 0
M  V30 16138 O 1520.49 -0.296862 -1.78853 0
M  V30 16139 C 1520.54 -3.56851 -0.518595 0
M  V30 16140 O 1519.65 -3.79634 -1.61095 0
M  V30 16141 H 1518.99 -0.663752 -0.0181348 0
M  V30 16142 H 1521.52 -1.96479 0.570702 0
M  V30 16143 H 1521.53 -4.00478 -0.779817 0
M  V30 16144 H 1520.2 -4.14302 0.364216 0
M  V30 16145 H 1518.78 -3.47892 -1.3426 0
M  V30 16146 N 1520.96 -0.130252 -1.57061 0
M  V30 16147 C 1522.38 0.393318 -1.8251 0
M  V30 16148 C 1522.73 1.65862 -1.04806 0
M  V30 16149 O 1521.85 2.14473 -0.288118 0
M  V30 16150 C 1522.45 0.720366 -3.31053 0
M  V30 16151 C 1521.01 1.18852 -3.57143 0
M  V30 16152 C 1520.15 0.202964 -2.76556 0
M  V30 16153 H 1523.1 -0.355217 -1.54674 0
M  V30 16154 H 1523.12 1.57671 -3.46295 0
M  V30 16155 H 1522.64 -0.200719 -3.87581 0
M  V30 16156 H 1520.74 2.12612 -3.05985 0
M  V30 16157 H 1520.85 1.12607 -4.65678 0
M  V30 16158 H 1519.21 0.692264 -2.45112 0
M  V30 16159 H 1520 -0.711417 -3.35848 0
M  V30 16160 N 1522.44 1.56945 0.143535 0
M  V30 16161 C 1523.67 1.88067 0.874385 0
M  V30 16162 C 1524.09 0.719645 1.73789 0
M  V30 16163 O 1523.45 -0.330654 1.78259 0
M  V30 16164 C 1523.5 3.17795 1.70408 0
M  V30 16165 O 1522.6 3.01973 2.80867 0
M  V30 16166 H 1521.94 0.617808 0.24333 0
M  V30 16167 H 1524.47 2.04165 0.133309 0
M  V30 16168 H 1524.48 3.49903 2.09838 0
M  V30 16169 H 1523.16 4.019 1.07001 0
M  V30 16170 H 1521.74 2.8128 2.44818 0
M  V30 16171 N 1523.92 -0.412991 1.52093 0
M  V30 16172 C 1524.88 -1.48555 1.7454 0
M  V30 16173 C 1525.88 -1.48563 0.615283 0
M  V30 16174 O 1527.07 -1.50155 0.883119 0
M  V30 16175 C 1524.21 -2.87984 1.82423 0
M  V30 16176 H 1525.4 -1.29945 2.70285 0
M  V30 16177 H 1522.95 -0.643241 1.4245 0
M  V30 16178 H 1523.69 -3.11969 0.885777 0
M  V30 16179 H 1523.47 -2.89381 2.64577 0
M  V30 16180 H 1524.96 -3.65745 2.01545 0
M  V30 16181 N 1525.4 -1.4265 -0.669982 0
M  V30 16182 C 1526.31 -1.48916 -1.81276 0
M  V30 16183 C 1527.33 -0.377523 -1.69855 0
M  V30 16184 O 1528.5 -0.629151 -1.91321 0
M  V30 16185 C 1525.57 -1.39376 -3.17451 0
M  V30 16186 C 1524.63 -2.61072 -3.40793 0
M  V30 16187 C 1523.86 -2.51976 -4.70472 0
M  V30 16188 O 1524.08 -1.55827 -5.48702 0
M  V30 16189 O 1523.02 -3.42193 -4.95164 0
M  V30 16190 H 1526.84 -2.45382 -1.78945 0
M  V30 16191 H 1524.43 -1.24467 -0.826342 0
M  V30 16192 H 1526.31 -1.36435 -3.98702 0
M  V30 16193 H 1524.99 -0.460376 -3.20409 0
M  V30 16194 H 1523.89 -2.69587 -2.59372 0
M  V30 16195 H 1525.23 -3.53325 -3.42669 0
M  V30 16196 N 1526.88 0.906753 -1.28902 0
M  V30 16197 C 1528.12 1.65658 -1.16464 0
M  V30 16198 C 1528.45 1.92396 0.285342 0
M  V30 16199 O 1527.71 1.52755 1.22329 0
M  V30 16200 C 1528.01 3.0171 -1.91588 0
M  V30 16201 C 1527.67 2.94606 -3.41347 0
M  V30 16202 C 1526.33 2.92376 -3.8219 0
M  V30 16203 C 1528.69 2.84335 -4.3681 0
M  V30 16204 C 1526.01 2.77685 -5.16825 0
M  V30 16205 C 1528.37 2.71184 -5.71526 0
M  V30 16206 C 1527.03 2.67316 -6.11636 0
M  V30 16207 H 1526.3 0.606184 -0.426171 0
M  V30 16208 H 1528.95 1.05592 -1.59758 0
M  V30 16209 H 1527.25 3.65602 -1.40863 0
M  V30 16210 H 1528.95 3.58645 -1.79374 0
M  V30 16211 H 1525.54 2.97141 -3.08878 0
M  V30 16212 H 1529.72 2.85141 -4.06212 0
M  V30 16213 H 1524.98 2.7309 -5.47021 0
M  V30 16214 H 1529.15 2.62206 -6.45152 0
M  V30 16215 H 1526.78 2.5569 -7.1591 0
M  V30 16216 N 1528.36 1.11264 1.11616 0
M  V30 16217 C 1529.29 0.79149 2.19676 0
M  V30 16218 C 1530.27 -0.239351 1.68408 0
M  V30 16219 O 1531.45 -0.103228 1.93925 0
M  V30 16220 C 1528.58 0.231891 3.46525 0
M  V30 16221 C 1527.54 1.19439 4.10997 0
M  V30 16222 C 1526.86 0.495593 5.32398 0
M  V30 16223 C 1528.16 2.54437 4.56135 0
M  V30 16224 H 1529.86 1.69503 2.46797 0
M  V30 16225 H 1527.4 0.816433 1.18619 0
M  V30 16226 H 1529.35 -0.00497468 4.214 0
M  V30 16227 H 1528.08 -0.706938 3.18857 0
M  V30 16228 H 1526.74 1.41686 3.38113 0
M  V30 16229 H 1526.39 -0.447984 5.01001 0
M  V30 16230 H 1526.09 1.13753 5.76484 0
M  V30 16231 H 1527.61 0.267476 6.10014 0
M  V30 16232 H 1529.02 2.36289 5.22341 0
M  V30 16233 H 1527.42 3.14595 5.11028 0
M  V30 16234 H 1528.49 3.13795 3.69676 0
M  V30 16235 N 1529.83 -1.29188 0.902679 0
M  V30 16236 C 1531.25 -1.47924 0.599209 0
M  V30 16237 C 1531.45 -1.82297 -0.858494 0
M  V30 16238 O 1530.51 -1.92123 -1.63845 0
M  V30 16239 C 1531.82 -2.59008 1.52759 0
M  V30 16240 C 1533.37 -2.72882 1.53312 0
M  V30 16241 C 1533.84 -3.87097 2.44785 0
M  V30 16242 N 1535.33 -3.94435 2.42849 0
M  V30 16243 C 1536.07 -4.82165 3.1033 0
M  V30 16244 N 1535.56 -5.74565 3.87101 0
M  V30 16245 N 1537.36 -4.75681 2.99473 0
M  V30 16246 H 1529.51 -1.05154 1.84544 0
M  V30 16247 H 1531.77 -0.522632 0.790924 0
M  V30 16248 H 1531.48 -2.40483 2.56634 0
M  V30 16249 H 1531.35 -3.55873 1.25036 0
M  V30 16250 H 1533.74 -2.90802 0.501804 0
M  V30 16251 H 1533.82 -1.76582 1.85074 0
M  V30 16252 H 1533.46 -3.69932 3.48012 0
M  V30 16253 H 1533.39 -4.82772 2.10331 0
M  V30 16254 H 1535.88 -3.28347 1.87074 0
M  V30 16255 H 1536.2 -6.3831 4.35638 0
M  V30 16256 H 1534.54 -5.74441 3.91207 0
M  V30 16257 H 1537.73 -4.02483 2.39009 0
M  V30 16258 H 1537.91 -5.4384 3.52337 0
M  V30 16259 N 1531.31 -0.665475 -1.42861 0
M  V30 16260 C 1532.24 0.0686045 -2.28097 0
M  V30 16261 C 1533.22 0.81788 -1.40533 0
M  V30 16262 O 1534.41 0.81493 -1.69974 0
M  V30 16263 C 1531.53 1.10416 -3.20197 0
M  V30 16264 C 1530.58 0.451532 -4.24103 0
M  V30 16265 S 1531.41 -0.783994 -5.2973 0
M  V30 16266 C 1532.57 0.250718 -6.25398 0
M  V30 16267 H 1532.8 -0.654401 -2.90008 0
M  V30 16268 H 1530.33 -0.454708 -1.47553 0
M  V30 16269 H 1532.29 1.69657 -3.738 0
M  V30 16270 H 1530.95 1.79955 -2.57439 0
M  V30 16271 H 1530.15 1.23259 -4.88695 0
M  V30 16272 H 1529.75 -0.0670626 -3.7394 0
M  V30 16273 H 1532.04 1.11326 -6.68291 0
M  V30 16274 H 1532.98 -0.360495 -7.07182 0
M  V30 16275 H 1533.39 0.592017 -5.61387 0
M  V30 16276 N 1532.79 1.52222 -0.408187 0
M  V30 16277 C 1533.72 2.23468 0.462332 0
M  V30 16278 C 1534.7 1.24257 1.04876 0
M  V30 16279 O 1535.88 1.53305 1.0968 0
M  V30 16280 C 1533.01 2.96256 1.64165 0
M  V30 16281 C 1532.06 4.09889 1.1787 0
M  V30 16282 S 1532.89 5.35305 0.144629 0
M  V30 16283 C 1534.05 6.11621 1.3293 0
M  V30 16284 H 1534.28 2.96958 -0.142615 0
M  V30 16285 H 1531.81 1.53196 -0.19248 0
M  V30 16286 H 1533.77 3.38798 2.3179 0
M  V30 16287 H 1532.43 2.2241 2.21794 0
M  V30 16288 H 1531.62 4.59989 2.05977 0
M  V30 16289 H 1531.23 3.69458 0.581119 0
M  V30 16290 H 1533.52 6.38939 2.25306 0
M  V30 16291 H 1534.46 7.02749 0.86885 0
M  V30 16292 H 1534.87 5.4267 1.55466 0
M  V30 16293 N 1534.27 0.138579 1.5699 0
M  V30 16294 C 1535.52 -0.513611 1.95465 0
M  V30 16295 C 1535.84 -1.65952 1.02396 0
M  V30 16296 O 1535.11 -1.9572 0.0839001 0
M  V30 16297 H 1533.69 -0.192729 0.72171 0
M  V30 16298 H 1536.35 0.212107 1.93742 0
M  V30 16299 H 1535.44 -0.895313 2.98983 0
M  V30 16300 N 1535.75 -1.57019 -0.13521 0
M  V30 16301 C 1536.99 -1.85801 -0.851896 0
M  V30 16302 C 1537.35 -0.724449 -1.77808 0
M  V30 16303 O 1538.55 -0.893619 -2.53511 0
M  V30 16304 C 1536.82 -3.19788 -1.59595 0
M  V30 16305 S 1538.38 -3.70159 -2.35644 0
M  V30 16306 H 1535.2 -0.651534 -0.284649 0
M  V30 16307 H 1537.8 -1.95184 -0.111177 0
M  V30 16308 H 1536.5 -4.00247 -0.907221 0
M  V30 16309 H 1536.04 -3.13441 -2.37735 0
M  V30 16310 H 1538.05 -3.40364 -3.61063 0
M  V30 16311 N 1537.22 0.404919 -1.52309 0
M  V30 16312 C 1538.13 1.51822 -1.7885 0
M  V30 16313 C 1539.15 1.60403 -0.674307 0
M  V30 16314 O 1540.33 1.77038 -0.960175 0
M  V30 16315 C 1537.39 2.87516 -1.9374 0
M  V30 16316 C 1536.45 2.88787 -3.17648 0
M  V30 16317 C 1535.69 4.18009 -3.31819 0
M  V30 16318 O 1535.91 5.12129 -2.51158 0
M  V30 16319 O 1534.84 4.26222 -4.24992 0
M  V30 16320 H 1538.67 1.32329 -2.73354 0
M  V30 16321 H 1536.25 0.591193 -1.37205 0
M  V30 16322 H 1538.14 3.6799 -2.05333 0
M  V30 16323 H 1536.81 3.07068 -1.02425 0
M  V30 16324 H 1535.72 2.07152 -3.11511 0
M  V30 16325 H 1537.05 2.74185 -4.08758 0
M  V30 16326 N 1538.7 1.43003 0.662408 0
M  V30 16327 C 1540.12 1.26201 0.977003 0
M  V30 16328 C 1540.32 0.175104 2.00738 0
M  V30 16329 O 1539.37 -0.44954 2.48466 0
M  V30 16330 C 1540.69 2.62319 1.47001 0
M  V30 16331 C 1542.24 2.69776 1.58714 0
M  V30 16332 C 1542.71 4.06289 2.11408 0
M  V30 16333 N 1544.2 4.08307 2.18724 0
M  V30 16334 C 1544.94 5.10761 2.60598 0
M  V30 16335 N 1544.43 6.23593 3.01834 0
M  V30 16336 N 1546.23 4.98115 2.60456 0
M  V30 16337 H 1538.38 2.12391 -0.0195698 0
M  V30 16338 H 1540.64 0.946472 0.0538044 0
M  V30 16339 H 1540.35 3.42773 0.78736 0
M  V30 16340 H 1540.22 2.87088 2.44664 0
M  V30 16341 H 1542.61 1.89659 2.26083 0
M  V30 16342 H 1542.69 2.48782 0.595081 0
M  V30 16343 H 1542.33 4.86868 1.44644 0
M  V30 16344 H 1542.26 4.24641 3.11428 0
M  V30 16345 H 1544.75 3.26857 1.89665 0
M  V30 16346 H 1545.07 6.97609 3.32509 0
M  V30 16347 H 1543.41 6.27079 2.99661 0
M  V30 16348 H 1546.6 4.09037 2.27611 0
M  V30 16349 H 1546.77 5.78092 2.92769 0
M  V30 16350 N 1540.18 -0.899904 1.29381 0
M  V30 16351 C 1541.46 -1.63067 1.08021 0
M  V30 16352 C 1541.84 -2.0773 -0.375716 0
M  V30 16353 O 1541.19 -1.83288 -1.36447 0
M  V30 16354 C 1541.4 -2.81163 2.06757 0
M  V30 16355 C 1542.74 -3.51854 2.37664 0
M  V30 16356 O 1543.77 -2.91332 2.0495 0
M  V30 16357 O 1542.63 -4.60962 2.93558 0
M  V30 16358 H 1539.72 -0.71601 0.413835 0
M  V30 16359 H 1542.27 -0.947991 1.40752 0
M  V30 16360 H 1541.04 -2.45355 3.04822 0
M  V30 16361 H 1540.66 -3.57137 1.74754 0
M  V30 16362 N 1541.66 -1.11854 -1.11024 0
M  V30 16363 C 1542.9 -0.871362 -1.83126 0
M  V30 16364 C 1543.24 0.601437 -1.84652 0
M  V30 16365 O 1542.51 1.44427 -1.30273 0
M  V30 16366 C 1542.8 -1.4391 -3.30094 0
M  V30 16367 C 1542.65 -2.97983 -3.36937 0
M  V30 16368 C 1543.97 -1.09361 -4.26296 0
M  V30 16369 H 1541.09 -0.317994 -0.664867 0
M  V30 16370 H 1543.73 -1.38414 -1.3016 0
M  V30 16371 H 1541.88 -1.00297 -3.7533 0
M  V30 16372 H 1543.55 -3.50231 -3.00227 0
M  V30 16373 H 1541.79 -3.33827 -2.77023 0
M  V30 16374 H 1542.46 -3.32797 -4.40398 0
M  V30 16375 H 1544.94 -1.47018 -3.89262 0
M  V30 16376 H 1543.82 -1.51756 -5.27505 0
M  V30 16377 H 1544.08 -0.0049637 -4.421 0
M  V30 16378 N 1543.14 1.28707 -0.909517 0
M  V30 16379 C 1544.55 1.77212 -0.587613 0
M  V30 16380 C 1544.9 1.74495 0.896986 0
M  V30 16381 O 1544.02 1.33698 1.70158 0
M  V30 16382 C 1544.62 3.21794 -1.05989 0
M  V30 16383 C 1543.18 3.68038 -0.788983 0
M  V30 16384 C 1542.32 2.48576 -1.22903 0
M  V30 16385 H 1545.28 1.1523 -1.09122 0
M  V30 16386 H 1545.3 3.78397 -0.399469 0
M  V30 16387 H 1544.81 3.23739 -2.14043 0
M  V30 16388 H 1542.91 3.71558 0.278523 0
M  V30 16389 H 1543.02 4.58379 -1.39376 0
M  V30 16390 H 1541.39 2.46323 -0.647838 0
M  V30 16391 H 1542.17 2.53243 -2.31782 0
M  V30 16392 N 1544.61 0.673042 1.42506 0
M  V30 16393 C 1545.58 0.00283156 2.292 0
M  V30 16394 C 1546.58 -0.73077 1.43235 0
M  V30 16395 O 1547.77 -0.569037 1.64644 0
M  V30 16396 C 1544.9 -1.00666 3.25698 0
M  V30 16397 H 1546.09 0.765869 2.89956 0
M  V30 16398 H 1543.65 0.435301 1.50116 0
M  V30 16399 H 1544.38 -1.79825 2.69877 0
M  V30 16400 H 1544.17 -0.484043 3.89101 0
M  V30 16401 H 1545.66 -1.47409 3.90718 0
M  V30 16402 N 1546.09 -1.52004 0.416254 0
M  V30 16403 C 1547.02 -2.30106 -0.396671 0
M  V30 16404 C 1548 -1.34616 -1.03983 0
M  V30 16405 O 1549.19 -1.63528 -1.04749 0
M  V30 16406 C 1546.32 -3.12769 -1.50972 0
M  V30 16407 C 1545.27 -4.16365 -0.99119 0
M  V30 16408 C 1544.6 -4.87417 -2.19838 0
M  V30 16409 C 1545.9 -5.22284 -0.0402599 0
M  V30 16410 H 1547.59 -2.98312 0.255054 0
M  V30 16411 H 1545.14 -1.43464 0.124106 0
M  V30 16412 H 1547.09 -3.66178 -2.08547 0
M  V30 16413 H 1545.82 -2.42346 -2.18943 0
M  V30 16414 H 1544.47 -3.63976 -0.437803 0
M  V30 16415 H 1544.12 -4.13516 -2.8638 0
M  V30 16416 H 1543.82 -5.57454 -1.85792 0
M  V30 16417 H 1545.35 -5.43641 -2.78006 0
M  V30 16418 H 1546.76 -5.70891 -0.525027 0
M  V30 16419 H 1545.16 -5.99726 0.211742 0
M  V30 16420 H 1546.23 -4.7642 0.902877 0
M  V30 16421 N 1547.57 -0.146903 -1.56914 0
M  V30 16422 C 1548.81 0.506985 -1.98013 0
M  V30 16423 C 1549.17 1.62043 -1.02985 0
M  V30 16424 O 1550.38 2.33517 -1.33128 0
M  V30 16425 C 1548.65 1.00023 -3.43118 0
M  V30 16426 S 1550.21 1.65873 -4.06241 0
M  V30 16427 H 1547.02 0.163927 -0.691845 0
M  V30 16428 H 1549.63 -0.238594 -1.94039 0
M  V30 16429 H 1548.33 0.179091 -4.10009 0
M  V30 16430 H 1547.86 1.78043 -3.50805 0
M  V30 16431 H 1549.88 2.94595 -3.99285 0
M  V30 16432 N 1549.05 1.57088 0.126881 0
M  V30 16433 C 1550.46 1.52205 0.480175 0
M  V30 16434 C 1550.66 0.858634 1.8229 0
M  V30 16435 O 1549.72 0.437636 2.48679 0
M  V30 16436 C 1551.03 2.96974 0.471931 0
M  V30 16437 C 1552.58 3.08021 0.556037 0
M  V30 16438 C 1553.06 4.54335 0.57826 0
M  V30 16439 N 1554.55 4.58758 0.639922 0
M  V30 16440 C 1555.28 5.69372 0.678434 0
M  V30 16441 N 1554.78 6.89503 0.67507 0
M  V30 16442 N 1556.57 5.57459 0.720845 0
M  V30 16443 H 1548.72 1.98604 -0.753008 0
M  V30 16444 H 1550.99 0.90666 -0.276895 0
M  V30 16445 H 1550.69 3.48849 -0.44687 0
M  V30 16446 H 1550.57 3.53994 1.3026 0
M  V30 16447 H 1552.95 2.56153 1.46526 0
M  V30 16448 H 1553.03 2.54009 -0.302171 0
M  V30 16449 H 1552.68 5.06847 -0.326884 0
M  V30 16450 H 1552.61 5.06151 1.45324 0
M  V30 16451 H 1555.1 3.72285 0.649005 0
M  V30 16452 H 1555.41 7.6956 0.706862 0
M  V30 16453 H 1553.76 6.92023 0.64262 0
M  V30 16454 H 1556.95 4.62517 0.720783 0
M  V30 16455 H 1557.12 6.43675 0.747392 0
M  V30 16456 N 1550.53 -0.396836 1.52522 0
M  V30 16457 C 1551.46 -1.49088 1.79708 0
M  V30 16458 C 1552.44 -1.57246 0.648678 0
M  V30 16459 O 1553.62 -1.72321 0.895495 0
M  V30 16460 C 1550.75 -2.86785 1.95887 0
M  V30 16461 C 1549.71 -2.93472 3.11542 0
M  V30 16462 C 1549.03 -4.33542 3.12963 0
M  V30 16463 C 1550.33 -2.63832 4.50766 0
M  V30 16464 H 1552.03 -1.26588 2.71322 0
M  V30 16465 H 1549.57 -0.607535 1.30557 0
M  V30 16466 H 1551.53 -3.63319 2.13489 0
M  V30 16467 H 1550.25 -3.10605 1.00955 0
M  V30 16468 H 1548.91 -2.19384 2.93711 0
M  V30 16469 H 1548.56 -4.5439 2.15729 0
M  V30 16470 H 1548.26 -4.38938 3.9065 0
M  V30 16471 H 1549.78 -5.11993 3.32709 0
M  V30 16472 H 1551.19 -3.30086 4.68739 0
M  V30 16473 H 1549.59 -2.80589 5.30462 0
M  V30 16474 H 1550.66 -1.59209 4.58018 0
M  V30 16475 N 1552.01 -1.43353 -0.654814 0
M  V30 16476 C 1552.94 -1.51194 -1.7794 0
M  V30 16477 C 1553.92 -0.366747 -1.66099 0
M  V30 16478 O 1555.1 -0.58375 -1.85219 0
M  V30 16479 C 1552.23 -1.43298 -3.16359 0
M  V30 16480 C 1551.19 -2.5605 -3.42961 0
M  V30 16481 C 1550.51 -2.33208 -4.81163 0
M  V30 16482 C 1551.81 -3.98303 -3.37864 0
M  V30 16483 H 1553.51 -2.4532 -1.71635 0
M  V30 16484 H 1551.05 -1.18072 -0.824319 0
M  V30 16485 H 1553 -1.47388 -3.94784 0
M  V30 16486 H 1551.73 -0.456761 -3.2339 0
M  V30 16487 H 1550.39 -2.5131 -2.66906 0
M  V30 16488 H 1550.04 -1.33833 -4.84869 0
M  V30 16489 H 1549.74 -3.08789 -4.99923 0
M  V30 16490 H 1551.26 -2.39079 -5.61848 0
M  V30 16491 H 1552.67 -4.04538 -4.06229 0
M  V30 16492 H 1551.07 -4.73897 -3.6816 0
M  V30 16493 H 1552.14 -4.23552 -2.36075 0
M  V30 16494 N 1553.48 0.89303 -1.29857 0
M  V30 16495 C 1554.39 2.03079 -1.17457 0
M  V30 16496 C 1555.41 1.73733 -0.0962941 0
M  V30 16497 O 1556.59 1.99005 -0.309667 0
M  V30 16498 C 1553.65 3.3589 -0.858991 0
M  V30 16499 C 1552.71 3.78711 -2.0218 0
M  V30 16500 C 1551.94 5.05184 -1.72118 0
M  V30 16501 O 1552.17 5.66738 -0.645276 0
M  V30 16502 O 1551.1 5.44218 -2.57119 0
M  V30 16503 H 1554.93 2.16465 -2.13017 0
M  V30 16504 H 1552.51 1.01774 -1.09373 0
M  V30 16505 H 1554.39 4.15582 -0.697852 0
M  V30 16506 H 1553.07 3.23631 0.0667756 0
M  V30 16507 H 1551.98 2.99758 -2.23822 0
M  V30 16508 H 1553.31 3.95563 -2.929 0
M  V30 16509 N 1554.96 1.12442 1.10429 0
M  V30 16510 C 1555.89 0.814745 2.18824 0
M  V30 16511 C 1556.87 -0.221476 1.68652 0
M  V30 16512 O 1558.06 -0.0826537 1.94024 0
M  V30 16513 C 1555.19 0.268632 3.4626 0
M  V30 16514 C 1554.14 1.23792 4.09707 0
M  V30 16515 C 1553.47 0.552034 5.31843 0
M  V30 16516 C 1554.77 2.5926 4.53411 0
M  V30 16517 H 1556.46 1.72111 2.44986 0
M  V30 16518 H 1554.01 0.828968 1.17746 0
M  V30 16519 H 1555.96 0.0397207 4.21381 0
M  V30 16520 H 1554.68 -0.673079 3.19589 0
M  V30 16521 H 1553.34 1.45264 3.36592 0
M  V30 16522 H 1552.99 -0.394821 5.01448 0
M  V30 16523 H 1552.69 1.19861 5.75245 0
M  V30 16524 H 1554.22 0.332161 6.09696 0
M  V30 16525 H 1555.63 2.41816 5.19806 0
M  V30 16526 H 1554.03 3.19997 5.07663 0
M  V30 16527 H 1555.1 3.17699 3.66327 0
M  V30 16528 N 1556.44 -1.28223 0.91633 0
M  V30 16529 C 1557.37 -2.29623 0.423735 0
M  V30 16530 C 1558.35 -1.62274 -0.510016 0
M  V30 16531 O 1559.54 -1.89666 -0.4172 0
M  V30 16532 C 1556.67 -3.45684 -0.334686 0
M  V30 16533 C 1555.62 -4.24949 0.510169 0
M  V30 16534 C 1554.95 -5.33371 -0.376745 0
M  V30 16535 C 1556.25 -4.91438 1.76877 0
M  V30 16536 H 1557.94 -2.71076 1.27115 0
M  V30 16537 H 1555.49 -1.30316 0.612678 0
M  V30 16538 H 1557.44 -4.1571 -0.690154 0
M  V30 16539 H 1556.16 -3.03118 -1.21603 0
M  V30 16540 H 1554.82 -3.56653 0.848191 0
M  V30 16541 H 1554.47 -4.87048 -1.25671 0
M  V30 16542 H 1554.17 -5.87309 0.18496 0
M  V30 16543 H 1555.69 -6.06244 -0.728039 0
M  V30 16544 H 1557.11 -5.53812 1.48205 0
M  V30 16545 H 1555.5 -5.55384 2.27308 0
M  V30 16546 H 1556.57 -4.15783 2.49505 0
M  V30 16547 N 1557.92 -0.68059 -1.42147 0
M  V30 16548 C 1558.83 -0.00595573 -2.34599 0
M  V30 16549 C 1559.84 0.782528 -1.55411 0
M  V30 16550 O 1561.02 0.723524 -1.87955 0
M  V30 16551 C 1558.08 0.92964 -3.34004 0
M  V30 16552 C 1557.15 0.135041 -4.29088 0
M  V30 16553 C 1556.38 1.02607 -5.23744 0
M  V30 16554 O 1556.6 2.26562 -5.23475 0
M  V30 16555 O 1555.54 0.483774 -5.99953 0
M  V30 16556 H 1559.36 -0.767652 -2.93838 0
M  V30 16557 H 1556.95 -0.440849 -1.42748 0
M  V30 16558 H 1558.83 1.46657 -3.95057 0
M  V30 16559 H 1557.5 1.67109 -2.7723 0
M  V30 16560 H 1556.41 -0.44613 -3.7143 0
M  V30 16561 H 1557.74 -0.567417 -4.88918 0
M  V30 16562 N 1559.4 1.51781 -0.424309 0
M  V30 16563 C 1560.31 2.31162 0.40015 0
M  V30 16564 C 1561.32 1.39523 1.03969 0
M  V30 16565 O 1562.5 1.72597 1.0379 0
M  V30 16566 C 1559.56 3.12875 1.49366 0
M  V30 16567 C 1558.62 4.20275 0.875616 0
M  V30 16568 C 1557.86 4.98082 1.91702 0
M  V30 16569 O 1558.08 4.76365 3.13739 0
M  V30 16570 O 1557.01 5.82527 1.5148 0
M  V30 16571 H 1560.84 3.0269 -0.247529 0
M  V30 16572 H 1558.42 1.48223 -0.187146 0
M  V30 16573 H 1560.31 3.63714 2.12815 0
M  V30 16574 H 1558.98 2.44125 2.12567 0
M  V30 16575 H 1557.89 3.73546 0.203429 0
M  V30 16576 H 1559.22 4.91361 0.287306 0
M  V30 16577 N 1560.87 0.155222 1.56834 0
M  V30 16578 C 1562.12 -0.49285 1.95998 0
M  V30 16579 C 1562.44 -1.64857 1.0415 0
M  V30 16580 O 1561.71 -1.9562 0.104654 0
M  V30 16581 H 1560.29 -0.185063 0.723713 0
M  V30 16582 H 1562.95 0.232644 1.93507 0
M  V30 16583 H 1562.05 -0.863552 2.99915 0
M  V30 16584 N 1562.35 -1.57153 -0.118549 0
M  V30 16585 C 1563.28 -1.97022 -1.1711 0
M  V30 16586 C 1564.3 -0.869599 -1.37629 0
M  V30 16587 O 1565.49 -1.14788 -1.36696 0
M  V30 16588 C 1562.59 -2.25371 -2.53103 0
M  V30 16589 C 1561.76 -3.56677 -2.5318 0
M  V30 16590 C 1560.82 -3.73233 -3.70922 0
M  V30 16591 O 1559.84 -4.4534 -3.54487 0
M  V30 16592 N 1561.05 -3.12036 -4.89504 0
M  V30 16593 H 1563.81 -2.87921 -0.831959 0
M  V30 16594 H 1561.37 -1.58947 -0.307817 0
M  V30 16595 H 1563.36 -2.33662 -3.3043 0
M  V30 16596 H 1561.93 -1.40597 -2.79197 0
M  V30 16597 H 1561.15 -3.5957 -1.61564 0
M  V30 16598 H 1562.44 -4.42982 -2.50288 0
M  V30 16599 H 1561.84 -2.53422 -5.05761 0
M  V30 16600 H 1560.4 -3.25846 -5.64506 0
M  V30 16601 N 1563.83 0.388742 -1.5273 0
M  V30 16602 C 1565.25 0.728828 -1.41987 0
M  V30 16603 C 1565.45 1.94116 -0.540493 0
M  V30 16604 O 1564.5 2.52496 -0.0140397 0
M  V30 16605 C 1565.81 0.963683 -2.8484 0
M  V30 16606 C 1567.36 1.06514 -2.94319 0
M  V30 16607 C 1567.84 1.33262 -4.38184 0
M  V30 16608 N 1569.33 1.40083 -4.4151 0
M  V30 16609 C 1570.06 1.62446 -5.49908 0
M  V30 16610 N 1569.56 1.82277 -6.68391 0
M  V30 16611 N 1571.35 1.64627 -5.37452 0
M  V30 16612 H 1563.5 -0.408984 -2.08425 0
M  V30 16613 H 1565.77 -0.120791 -0.940273 0
M  V30 16614 H 1565.47 0.144986 -3.51401 0
M  V30 16615 H 1565.35 1.87828 -3.27109 0
M  V30 16616 H 1567.73 1.8744 -2.27926 0
M  V30 16617 H 1567.81 0.12845 -2.55477 0
M  V30 16618 H 1567.46 0.528457 -5.05143 0
M  V30 16619 H 1567.39 2.28216 -4.74579 0
M  V30 16620 H 1569.88 1.26465 -3.56111 0
M  V30 16621 H 1570.19 1.98848 -7.46779 0
M  V30 16622 H 1568.54 1.79501 -6.7142 0
M  V30 16623 H 1571.73 1.48686 -4.43858 0
M  V30 16624 H 1571.9 1.81715 -6.22 0
M  V30 16625 N 1565.31 1.43698 0.647203 0
M  V30 16626 C 1566.24 1.52135 1.77136 0
M  V30 16627 C 1567.22 0.375551 1.65902 0
M  V30 16628 O 1568.4 0.593564 1.84907 0
M  V30 16629 C 1565.53 1.44974 3.15594 0
M  V30 16630 C 1564.49 2.57866 3.41598 0
M  V30 16631 C 1563.81 2.35757 4.7992 0
M  V30 16632 C 1565.11 4.00089 3.35747 0
M  V30 16633 H 1566.81 2.46227 1.70332 0
M  V30 16634 H 1564.35 1.18507 0.818046 0
M  V30 16635 H 1566.31 1.4948 3.93997 0
M  V30 16636 H 1565.03 0.473905 3.23143 0
M  V30 16637 H 1563.69 2.52722 2.65569 0
M  V30 16638 H 1563.34 1.36403 4.84152 0
M  V30 16639 H 1563.04 3.11436 4.98278 0
M  V30 16640 H 1564.56 2.42055 5.60572 0
M  V30 16641 H 1565.98 4.06687 4.04078 0
M  V30 16642 H 1564.37 4.75842 3.65642 0
M  V30 16643 H 1565.44 4.24798 2.33825 0
M  V30 16644 N 1566.79 -0.886131 1.30328 0
M  V30 16645 C 1568.2 -1.45328 1.17203 0
M  V30 16646 C 1568.55 -1.94874 -0.227719 0
M  V30 16647 O 1567.67 -1.84901 -1.12431 0
M  V30 16648 C 1568.27 -2.64149 2.12157 0
M  V30 16649 C 1566.83 -3.16958 2.03014 0
M  V30 16650 C 1565.97 -1.89651 2.02306 0
M  V30 16651 H 1568.93 -0.696177 1.42615 0
M  V30 16652 H 1568.95 -3.40325 1.70173 0
M  V30 16653 H 1568.46 -2.28058 3.14024 0
M  V30 16654 H 1566.56 -3.57709 1.04285 0
M  V30 16655 H 1566.67 -3.80336 2.91344 0
M  V30 16656 H 1565.04 -2.07933 1.47091 0
M  V30 16657 H 1565.82 -1.5582 3.05901 0
M  V30 16658 N 1568.26 -1.13026 -1.09832 0
M  V30 16659 C 1569.23 -0.806832 -2.14529 0
M  V30 16660 C 1570.23 0.18175 -1.5977 0
M  V30 16661 O 1571.42 -0.0448155 -1.74142 0
M  V30 16662 C 1568.55 -0.200093 -3.40312 0
M  V30 16663 H 1569.74 -1.73453 -2.44651 0
M  V30 16664 H 1567.3 -0.934331 -1.25299 0
M  V30 16665 H 1568.03 0.737028 -3.15814 0
M  V30 16666 H 1567.82 -0.911945 -3.81348 0
M  V30 16667 H 1569.31 0.00948247 -4.17599 0
M  V30 16668 N 1569.74 1.27735 -0.923117 0
M  V30 16669 C 1571.15 1.76579 -0.606376 0
M  V30 16670 C 1571.5 1.75437 0.878428 0
M  V30 16671 O 1570.63 1.35495 1.68731 0
M  V30 16672 C 1571.22 3.20652 -1.09396 0
M  V30 16673 C 1569.78 3.67181 -0.827974 0
M  V30 16674 C 1568.93 2.47259 -1.25532 0
M  V30 16675 H 1571.88 1.14067 -1.10338 0
M  V30 16676 H 1571.9 3.77952 -0.439581 0
M  V30 16677 H 1571.41 3.21451 -2.17465 0
M  V30 16678 H 1569.52 3.71832 0.239098 0
M  V30 16679 H 1569.63 4.56875 -1.44229 0
M  V30 16680 H 1567.99 2.45622 -0.673928 0
M  V30 16681 H 1568.78 2.50771 -2.34455 0
M  V30 16682 N 1571.22 0.688118 1.41784 0
M  V30 16683 C 1572.63 0.291625 1.84408 0
M  V30 16684 C 1572.98 -1.1688 1.57587 0
M  V30 16685 O 1572.11 -1.89634 1.04248 0
M  V30 16686 C 1572.7 0.522511 3.34747 0
M  V30 16687 C 1571.26 0.180008 3.75969 0
M  V30 16688 C 1570.41 0.808455 2.65253 0
M  V30 16689 H 1573.36 0.88932 1.31441 0
M  V30 16690 H 1573.38 -0.221167 3.79857 0
M  V30 16691 H 1572.89 1.5855 3.54236 0
M  V30 16692 H 1570.99 -0.879012 3.62083 0
M  V30 16693 H 1571.11 0.629826 4.74942 0
M  V30 16694 H 1569.47 0.238665 2.53579 0
M  V30 16695 H 1570.25 1.87516 2.87563 0
M  V30 16696 N 1572.7 -1.51554 0.432352 0
M  V30 16697 C 1573.66 -2.26195 -0.369912 0
M  V30 16698 C 1574.66 -1.29446 -0.953961 0
M  V30 16699 O 1575.85 -1.53199 -0.829193 0
M  V30 16700 C 1572.98 -3.04993 -1.52289 0
M  V30 16701 H 1574.18 -2.98551 0.284173 0
M  V30 16702 H 1571.73 -1.55197 0.1854 0
M  V30 16703 H 1572.46 -2.37043 -2.21317 0
M  V30 16704 H 1572.25 -3.76051 -1.11032 0
M  V30 16705 H 1573.74 -3.61547 -2.08982 0
M  V30 16706 N 1574.18 -0.163538 -1.56749 0
M  V30 16707 C 1575.42 0.485954 -1.98539 0
M  V30 16708 C 1575.78 1.60942 -1.04698 0
M  V30 16709 O 1576.98 2.32092 -1.35598 0
M  V30 16710 C 1575.25 0.963784 -3.4416 0
M  V30 16711 S 1576.81 1.61555 -4.07977 0
M  V30 16712 H 1573.63 0.15658 -0.693544 0
M  V30 16713 H 1576.23 -0.259161 -1.93775 0
M  V30 16714 H 1574.94 0.135594 -4.10176 0
M  V30 16715 H 1574.47 1.74313 -3.52674 0
M  V30 16716 H 1576.48 2.90344 -4.02387 0
M  V30 16717 N 1575.65 1.57214 0.110213 0
M  V30 16718 C 1577.07 1.74402 0.666405 0
M  V30 16719 C 1577.42 0.783524 1.79876 0
M  V30 16720 O 1576.54 -0.0415306 2.1636 0
M  V30 16721 C 1577.14 3.1624 1.21564 0
M  V30 16722 C 1575.7 3.34904 1.71804 0
M  V30 16723 C 1574.84 2.70249 0.621347 0
M  V30 16724 H 1577.79 1.58277 -0.115765 0
M  V30 16725 H 1577.81 3.18276 2.0852 0
M  V30 16726 H 1577.33 3.86123 0.391273 0
M  V30 16727 H 1575.43 2.70077 2.56689 0
M  V30 16728 H 1575.54 4.43126 1.82143 0
M  V30 16729 H 1573.9 2.31727 1.05711 0
M  V30 16730 H 1574.69 3.42762 -0.192185 0
M  V30 16731 N 1577.13 -0.380637 1.52934 0
M  V30 16732 C 1578.1 -1.44819 1.77652 0
M  V30 16733 C 1579.1 -1.47224 0.646657 0
M  V30 16734 O 1580.29 -1.48248 0.91477 0
M  V30 16735 C 1577.42 -2.8405 1.8849 0
M  V30 16736 H 1578.61 -1.24183 2.72981 0
M  V30 16737 H 1576.16 -0.61288 1.43783 0
M  V30 16738 H 1576.9 -3.1002 0.951751 0
M  V30 16739 H 1576.68 -2.83704 2.70655 0
M  V30 16740 H 1578.17 -3.61388 2.09257 0
M  V30 16741 N 1578.61 -1.44039 -0.639573 0
M  V30 16742 C 1579.52 -1.52728 -1.78077 0
M  V30 16743 C 1580.54 -0.413467 -1.69016 0
M  V30 16744 O 1581.71 -0.669592 -1.89943 0
M  V30 16745 C 1578.78 -1.46078 -3.14424 0
M  V30 16746 C 1577.84 -2.68242 -3.35179 0
M  V30 16747 C 1577.07 -2.61899 -4.65021 0
M  V30 16748 O 1577.29 -1.67431 -5.45273 0
M  V30 16749 O 1576.23 -3.52619 -4.87795 0
M  V30 16750 H 1580.05 -2.49122 -1.737 0
M  V30 16751 H 1577.64 -1.26191 -0.799755 0
M  V30 16752 H 1579.52 -1.44861 -3.95719 0
M  V30 16753 H 1578.2 -0.528236 -3.19361 0
M  V30 16754 H 1577.1 -2.75028 -2.53595 0
M  V30 16755 H 1578.44 -3.60514 -3.35098 0
M  V30 16756 N 1580.09 0.879207 -1.30796 0
M  V30 16757 C 1581.33 1.63392 -1.20129 0
M  V30 16758 C 1581.67 1.92684 0.242164 0
M  V30 16759 O 1580.94 1.55188 1.17247 0
M  V30 16760 C 1581.23 2.97005 -2.03618 0
M  V30 16761 C 1581.08 2.74649 -3.56214 0
M  V30 16762 C 1582.4 3.97998 -1.87845 0
M  V30 16763 H 1579.52 0.592911 -0.437751 0
M  V30 16764 H 1582.16 1.017 -1.6049 0
M  V30 16765 H 1580.31 3.49659 -1.69326 0
M  V30 16766 H 1581.98 2.28738 -4.00595 0
M  V30 16767 H 1580.22 2.09048 -3.80107 0
M  V30 16768 H 1580.89 3.69681 -4.09927 0
M  V30 16769 H 1583.37 3.54523 -2.17836 0
M  V30 16770 H 1582.25 4.89388 -2.48578 0
M  V30 16771 H 1582.51 4.34062 -0.839183 0
M  V30 16772 N 1581.57 1.13606 1.09231 0
M  V30 16773 C 1582.52 0.784018 2.14096 0
M  V30 16774 C 1583.5 -0.22288 1.59349 0
M  V30 16775 O 1584.69 -0.0264914 1.7698 0
M  V30 16776 C 1581.82 0.253922 3.4236 0
M  V30 16777 C 1580.91 1.28985 4.0401 0
M  V30 16778 N 1581.3 2.49138 4.40186 0
M  V30 16779 C 1579.6 1.1381 4.31235 0
M  V30 16780 C 1580.3 3.15388 4.8878 0
M  V30 16781 N 1579.27 2.42806 4.8636 0
M  V30 16782 H 1583.08 1.69816 2.39874 0
M  V30 16783 H 1580.59 1.01867 1.26478 0
M  V30 16784 H 1582.59 -0.0165402 4.16897 0
M  V30 16785 H 1581.25 -0.65452 3.18035 0
M  V30 16786 H 1582.26 2.8643 4.31484 0
M  V30 16787 H 1578.94 0.287982 4.16506 0
M  V30 16788 H 1580.33 4.17784 5.26219 0
M  V30 16789 N 1583.05 -1.27244 0.929878 0
M  V30 16790 C 1583.96 -2.30506 0.436355 0
M  V30 16791 C 1584.97 -1.67131 -0.484054 0
M  V30 16792 O 1586.15 -1.9804 -0.366332 0
M  V30 16793 C 1583.21 -3.45391 -0.300942 0
M  V30 16794 C 1582.27 -4.24279 0.654647 0
M  V30 16795 C 1581.51 -5.33679 -0.047558 0
M  V30 16796 O 1581.73 -5.56161 -1.26654 0
M  V30 16797 O 1580.66 -5.98642 0.62538 0
M  V30 16798 H 1584.49 -2.74762 1.29382 0
M  V30 16799 H 1582.07 -1.32234 0.695311 0
M  V30 16800 H 1583.96 -4.1526 -0.716718 0
M  V30 16801 H 1582.63 -3.03187 -1.13398 0
M  V30 16802 H 1581.54 -3.56936 1.12015 0
M  V30 16803 H 1582.87 -4.70204 1.45497 0
M  V30 16804 N 1584.52 -0.695628 -1.41417 0
M  V30 16805 C 1585.45 -0.0447013 -2.33457 0
M  V30 16806 C 1586.43 0.767104 -1.51821 0
M  V30 16807 O 1587.62 0.720066 -1.80357 0
M  V30 16808 C 1584.75 0.892353 -3.3564 0
M  V30 16809 C 1583.7 0.187638 -4.27588 0
M  V30 16810 C 1583.03 1.23906 -5.20146 0
M  V30 16811 C 1584.33 -0.946093 -5.1366 0
M  V30 16812 H 1586.02 -0.81343 -2.88138 0
M  V30 16813 H 1583.57 -0.392614 -1.38544 0
M  V30 16814 H 1585.52 1.35696 -3.98954 0
M  V30 16815 H 1584.25 1.69275 -2.79309 0
M  V30 16816 H 1582.91 -0.256942 -3.65698 0
M  V30 16817 H 1582.55 2.03198 -4.6013 0
M  V30 16818 H 1582.25 0.772536 -5.82499 0
M  V30 16819 H 1583.78 1.70417 -5.86336 0
M  V30 16820 H 1585.19 -0.561764 -5.70541 0
M  V30 16821 H 1583.59 -1.33971 -5.84954 0
M  V30 16822 H 1584.66 -1.78573 -4.50821 0
M  V30 16823 N 1586 1.51322 -0.440383 0
M  V30 16824 C 1586.93 2.24398 0.414827 0
M  V30 16825 C 1587.91 1.26454 1.02216 0
M  V30 16826 O 1589.1 1.55597 1.06404 0
M  V30 16827 C 1586.22 2.99671 1.57844 0
M  V30 16828 C 1585.27 4.12297 1.0915 0
M  V30 16829 S 1586.1 5.35491 0.0310506 0
M  V30 16830 C 1587.26 6.14303 1.19926 0
M  V30 16831 H 1587.49 2.96588 -0.205572 0
M  V30 16832 H 1585.02 1.52753 -0.224932 0
M  V30 16833 H 1586.98 3.43638 2.24551 0
M  V30 16834 H 1585.64 2.27065 2.17027 0
M  V30 16835 H 1584.84 4.64254 1.96173 0
M  V30 16836 H 1584.44 3.70607 0.502621 0
M  V30 16837 H 1586.73 6.43575 2.11703 0
M  V30 16838 H 1587.67 7.04434 0.719591 0
M  V30 16839 H 1588.08 5.45845 1.43921 0
M  V30 16840 N 1587.48 0.171848 1.5666 0
M  V30 16841 C 1588.43 -0.758237 2.17989 0
M  V30 16842 C 1589.4 -1.22654 1.12006 0
M  V30 16843 O 1590.58 -1.29461 1.40159 0
M  V30 16844 C 1587.72 -1.98189 2.82516 0
M  V30 16845 C 1586.83 -1.55711 4.02962 0
M  V30 16846 C 1585.97 -2.73447 4.55412 0
M  V30 16847 C 1585.01 -2.27462 5.68267 0
M  V30 16848 N 1584.15 -3.38293 6.15225 0
M  V30 16849 H 1588.99 -0.228467 2.97123 0
M  V30 16850 H 1586.52 -0.10104 1.46753 0
M  V30 16851 H 1588.48 -2.6996 3.18084 0
M  V30 16852 H 1587.11 -2.48536 2.05985 0
M  V30 16853 H 1586.16 -0.736126 3.7321 0
M  V30 16854 H 1587.47 -1.17957 4.84652 0
M  V30 16855 H 1586.63 -3.53374 4.93165 0
M  V30 16856 H 1585.37 -3.14462 3.7278 0
M  V30 16857 H 1584.37 -1.45982 5.30065 0
M  V30 16858 H 1585.6 -1.87505 6.52701 0
M  V30 16859 H 1583.54 -3.78882 5.35522 0
M  V30 16860 H 1583.46 -3.04633 6.91907 0
M  V30 16861 H 1584.73 -4.18503 6.57629 0
M  V30 16862 N 1588.96 -1.5727 -0.101874 0
M  V30 16863 C 1589.89 -2.04614 -1.12496 0
M  V30 16864 C 1590.87 -0.933768 -1.42179 0
M  V30 16865 O 1592.05 -1.2046 -1.52325 0
M  V30 16866 C 1589.18 -2.46488 -2.44665 0
M  V30 16867 C 1588.14 -3.61327 -2.29406 0
M  V30 16868 C 1587.46 -3.89155 -3.66691 0
M  V30 16869 C 1588.76 -4.92455 -1.74026 0
M  V30 16870 H 1590.46 -2.90336 -0.731109 0
M  V30 16871 H 1588 -1.39676 -0.350239 0
M  V30 16872 H 1589.96 -2.78216 -3.16502 0
M  V30 16873 H 1588.68 -1.57757 -2.85972 0
M  V30 16874 H 1587.34 -3.29835 -1.60015 0
M  V30 16875 H 1586.99 -2.97603 -4.05514 0
M  V30 16876 H 1586.69 -4.66465 -3.57329 0
M  V30 16877 H 1588.21 -4.23352 -4.40006 0
M  V30 16878 H 1589.63 -5.22609 -2.35697 0
M  V30 16879 H 1588.02 -5.73882 -1.75441 0
M  V30 16880 H 1589.09 -4.79833 -0.699136 0
M  V30 16881 N 1590.44 0.372521 -1.53134 0
M  V30 16882 C 1591.68 1.12465 -1.70678 0
M  V30 16883 C 1592.04 1.8676 -0.445503 0
M  V30 16884 O 1593.24 2.64155 -0.497531 0
M  V30 16885 C 1591.51 2.06389 -2.91785 0
M  V30 16886 S 1593.07 2.89216 -3.3 0
M  V30 16887 H 1589.89 0.380458 -0.600644 0
M  V30 16888 H 1592.49 0.406831 -1.9122 0
M  V30 16889 H 1591.19 1.50559 -3.81786 0
M  V30 16890 H 1590.73 2.82654 -2.73624 0
M  V30 16891 H 1592.74 4.08642 -2.81471 0
M  V30 16892 N 1591.91 1.44376 0.631925 0
M  V30 16893 C 1593.16 1.48329 1.39176 0
M  V30 16894 C 1593.51 0.113879 1.92063 0
M  V30 16895 O 1592.81 -0.870764 1.7067 0
M  V30 16896 C 1593 2.47828 2.57519 0
M  V30 16897 C 1592.83 3.94309 2.16218 0
M  V30 16898 C 1591.6 4.62495 2.03534 0
M  V30 16899 C 1593.8 4.83546 1.75179 0
M  V30 16900 N 1591.78 5.93804 1.55788 0
M  V30 16901 C 1593.15 6.04293 1.38672 0
M  V30 16902 C 1595.21 4.70618 1.62553 0
M  V30 16903 C 1593.91 7.13546 0.908012 0
M  V30 16904 C 1595.94 5.79895 1.16086 0
M  V30 16905 C 1595.3 6.99782 0.805289 0
M  V30 16906 H 1591.4 0.597818 0.504121 0
M  V30 16907 H 1593.98 1.80697 0.725026 0
M  V30 16908 H 1592.15 2.17452 3.21822 0
M  V30 16909 H 1593.88 2.42082 3.24312 0
M  V30 16910 H 1590.64 4.17298 2.23963 0
M  V30 16911 H 1591.06 6.63562 1.34216 0
M  V30 16912 H 1595.7 3.78367 1.88675 0
M  V30 16913 H 1593.42 8.05607 0.634297 0
M  V30 16914 H 1597.01 5.71918 1.06776 0
M  V30 16915 H 1595.89 7.82901 0.451239 0
M  V30 16916 N 1593.39 -0.872258 1.31261 0
M  V30 16917 C 1594.35 -1.96081 1.1868 0
M  V30 16918 C 1595.35 -1.60392 0.11452 0
M  V30 16919 O 1596.54 -1.70363 0.363613 0
M  V30 16920 C 1593.68 -3.30862 0.821183 0
M  V30 16921 H 1594.87 -2.08667 2.15402 0
M  V30 16922 H 1592.42 -1.06026 1.14839 0
M  V30 16923 H 1593.16 -3.23976 -0.14498 0
M  V30 16924 H 1592.94 -3.58137 1.59625 0
M  V30 16925 H 1594.43 -4.10682 0.756991 0
M  V30 16926 N 1594.87 -1.14184 -1.08627 0
M  V30 16927 C 1596.28 -0.920108 -1.62453 0
M  V30 16928 C 1596.63 0.541577 -1.88577 0
M  V30 16929 O 1595.76 1.41002 -1.64157 0
M  V30 16930 C 1596.35 -1.6638 -2.95132 0
M  V30 16931 C 1594.91 -1.48771 -3.45752 0
M  V30 16932 C 1594.06 -1.68774 -2.20024 0
M  V30 16933 H 1597.01 -1.29396 -0.91882 0
M  V30 16934 H 1597.03 -1.12568 -3.63468 0
M  V30 16935 H 1596.54 -2.72759 -2.76087 0
M  V30 16936 H 1594.64 -0.44729 -3.69905 0
M  V30 16937 H 1594.76 -2.25619 -4.2265 0
M  V30 16938 H 1593.12 -1.11321 -2.29084 0
M  V30 16939 H 1593.9 -2.76491 -2.03489 0
M  V30 16940 N 1596.35 1.26749 -0.936613 0
M  V30 16941 C 1597.57 1.98597 -0.597817 0
M  V30 16942 C 1598 1.69324 0.8192 0
M  V30 16943 O 1597.36 0.938634 1.55111 0
M  V30 16944 C 1597.4 3.50656 -0.841007 0
M  V30 16945 O 1596.51 4.12304 0.0891038 0
M  V30 16946 H 1595.85 0.623197 -0.229176 0
M  V30 16947 H 1598.38 1.61332 -1.2583 0
M  V30 16948 H 1598.39 4.00857 -0.760093 0
M  V30 16949 H 1597.06 3.71293 -1.87388 0
M  V30 16950 H 1595.64 3.72876 -0.0424804 0
M  V30 16951 N 1597.83 0.703118 1.41046 0
M  V30 16952 C 1599.24 0.311167 1.84089 0
M  V30 16953 C 1599.59 -1.15202 1.58818 0
M  V30 16954 O 1598.71 -1.88518 1.06254 0
M  V30 16955 C 1599.31 0.557986 3.34174 0
M  V30 16956 C 1597.87 0.219875 3.75757 0
M  V30 16957 C 1597.01 0.836543 2.64381 0
M  V30 16958 H 1599.97 0.903211 1.30491 0
M  V30 16959 H 1599.99 -0.180865 3.8007 0
M  V30 16960 H 1599.5 1.62298 3.52535 0
M  V30 16961 H 1597.6 -0.840559 3.62995 0
M  V30 16962 H 1597.71 0.680165 4.74247 0
M  V30 16963 H 1596.08 0.265547 2.53312 0
M  V30 16964 H 1596.86 1.90556 2.85558 0
M  V30 16965 N 1599.3 -1.51086 0.448402 0
M  V30 16966 C 1600.24 -2.25799 -0.393401 0
M  V30 16967 C 1601.25 -1.30241 -0.976792 0
M  V30 16968 O 1602.44 -1.55916 -0.869051 0
M  V30 16969 C 1599.54 -3.00682 -1.56345 0
M  V30 16970 C 1598.71 -4.23421 -1.09695 0
M  V30 16971 C 1597.77 -4.8079 -2.1384 0
M  V30 16972 O 1596.8 -5.42329 -1.72823 0
M  V30 16973 N 1598 -4.65792 -3.46437 0
M  V30 16974 H 1600.76 -2.98681 0.246986 0
M  V30 16975 H 1598.32 -1.59497 0.277902 0
M  V30 16976 H 1600.32 -3.35945 -2.25662 0
M  V30 16977 H 1598.89 -2.30741 -2.10897 0
M  V30 16978 H 1598.11 -3.93526 -0.230457 0
M  V30 16979 H 1599.39 -5.03049 -0.762832 0
M  V30 16980 H 1598.79 -4.16799 -3.82486 0
M  V30 16981 H 1597.35 -5.05386 -4.11616 0
M  V30 16982 N 1600.78 -0.180154 -1.56567 0
M  V30 16983 C 1602.06 0.509347 -1.88852 0
M  V30 16984 C 1602.44 1.80697 -1.09141 0
M  V30 16985 O 1601.79 2.27726 -0.187974 0
M  V30 16986 C 1602 0.742669 -3.41006 0
M  V30 16987 C 1603.35 1.06873 -4.1093 0
M  V30 16988 O 1604.37 0.830907 -3.46373 0
M  V30 16989 O 1603.23 1.51784 -5.24999 0
M  V30 16990 H 1600.32 0.263629 -0.783855 0
M  V30 16991 H 1602.87 -0.219251 -1.68278 0
M  V30 16992 H 1601.64 -0.17431 -3.90912 0
M  V30 16993 H 1601.26 1.52427 -3.67222 0
M  V30 16994 N 1602.26 1.57322 0.0935319 0
M  V30 16995 C 1603.68 1.5319 0.447781 0
M  V30 16996 C 1603.88 0.897107 1.80428 0
M  V30 16997 O 1602.93 0.490285 2.47694 0
M  V30 16998 C 1604.25 2.97908 0.408832 0
M  V30 16999 C 1605.79 3.09132 0.490576 0
M  V30 17000 C 1606.27 4.55459 0.481759 0
M  V30 17001 N 1607.76 4.60013 0.542468 0
M  V30 17002 C 1608.49 5.70683 0.557509 0
M  V30 17003 N 1607.99 6.9078 0.528664 0
M  V30 17004 N 1609.78 5.58862 0.602438 0
M  V30 17005 H 1601.93 1.96962 -0.794965 0
M  V30 17006 H 1604.2 0.900583 -0.296064 0
M  V30 17007 H 1603.9 3.47823 -0.520766 0
M  V30 17008 H 1603.78 3.56678 1.22722 0
M  V30 17009 H 1606.16 2.59203 1.41059 0
M  V30 17010 H 1606.25 2.53311 -0.355982 0
M  V30 17011 H 1605.89 5.0604 -0.43432 0
M  V30 17012 H 1605.82 5.09119 1.34555 0
M  V30 17013 H 1608.31 3.73578 0.569892 0
M  V30 17014 H 1608.62 7.70887 0.543467 0
M  V30 17015 H 1606.97 6.9323 0.495687 0
M  V30 17016 H 1610.16 4.63942 0.622514 0
M  V30 17017 H 1610.33 6.45116 0.610691 0
M  V30 17018 N 1603.74 -0.364395 1.53329 0
M  V30 17019 C 1605.15 -0.941133 1.61244 0
M  V30 17020 C 1605.5 -1.90223 0.480596 0
M  V30 17021 O 1604.63 -2.12805 -0.392805 0
M  V30 17022 C 1605.22 -1.7137 2.92263 0
M  V30 17023 C 1603.78 -2.23976 3.02509 0
M  V30 17024 C 1602.93 -1.05253 2.56548 0
M  V30 17025 H 1605.88 -0.143153 1.58053 0
M  V30 17026 H 1605.9 -2.575 2.80132 0
M  V30 17027 H 1605.41 -1.01395 3.74621 0
M  V30 17028 H 1603.51 -2.9719 2.24741 0
M  V30 17029 H 1603.62 -2.51777 4.07609 0
M  V30 17030 H 1601.99 -1.41986 2.11452 0
M  V30 17031 H 1602.77 -0.367744 3.41325 0
M  V30 17032 N 1605.22 -1.44709 -0.62426 0
M  V30 17033 C 1606.44 -1.51573 -1.41564 0
M  V30 17034 C 1606.87 -0.143806 -1.87549 0
M  V30 17035 O 1606.22 0.868361 -1.59151 0
M  V30 17036 C 1606.27 -2.49085 -2.60747 0
M  V30 17037 O 1605.38 -1.99712 -3.60817 0
M  V30 17038 H 1604.72 -0.51157 -0.423311 0
M  V30 17039 H 1607.25 -1.89908 -0.761316 0
M  V30 17040 H 1607.26 -2.67346 -3.08205 0
M  V30 17041 H 1605.93 -3.48733 -2.26624 0
M  V30 17042 H 1604.51 -1.9125 -3.20122 0
M  V30 17043 N 1606.69 0.865285 -1.31722 0
M  V30 17044 C 1607.94 1.61868 -1.21675 0
M  V30 17045 C 1608.27 1.93206 0.223988 0
M  V30 17046 O 1607.52 1.5657 1.17407 0
M  V30 17047 C 1607.82 2.95462 -2.0109 0
M  V30 17048 C 1607.49 2.83598 -3.50547 0
M  V30 17049 C 1606.15 2.80069 -3.91299 0
M  V30 17050 C 1608.5 2.70295 -4.45635 0
M  V30 17051 C 1605.83 2.61102 -5.25398 0
M  V30 17052 C 1608.18 2.52864 -5.79864 0
M  V30 17053 C 1606.85 2.47722 -6.19831 0
M  V30 17054 H 1606.12 0.592319 -0.445241 0
M  V30 17055 H 1608.76 1.00456 -1.63036 0
M  V30 17056 H 1607.07 3.60935 -1.52424 0
M  V30 17057 H 1608.77 3.52756 -1.90693 0
M  V30 17058 H 1605.36 2.87164 -3.18175 0
M  V30 17059 H 1609.54 2.72073 -4.15078 0
M  V30 17060 H 1604.8 2.55549 -5.55432 0
M  V30 17061 H 1608.97 2.41548 -6.53167 0
M  V30 17062 H 1606.6 2.32784 -7.23682 0
M  V30 17063 N 1608.17 1.14759 1.0802 0
M  V30 17064 C 1609.4 0.942316 1.84757 0
M  V30 17065 C 1609.82 -0.504188 1.81217 0
M  V30 17066 O 1609.18 -1.35891 1.20014 0
M  V30 17067 C 1609.23 1.45271 3.30043 0
M  V30 17068 O 1608.33 0.647414 4.07287 0
M  V30 17069 H 1607.67 0.336613 0.572353 0
M  V30 17070 H 1610.2 1.52578 1.36313 0
M  V30 17071 H 1610.21 1.4626 3.80883 0
M  V30 17072 H 1608.89 2.50583 3.31935 0
M  V30 17073 H 1607.47 0.706595 3.66144 0
M  V30 17074 N 1609.65 -1.26251 0.943322 0
M  V30 17075 C 1610.61 -2.24554 0.459158 0
M  V30 17076 C 1611.61 -1.54918 -0.430926 0
M  V30 17077 O 1612.8 -1.72678 -0.229803 0
M  V30 17078 C 1609.94 -3.39221 -0.337973 0
M  V30 17079 H 1611.13 -2.689 1.32789 0
M  V30 17080 H 1608.68 -1.38442 0.725495 0
M  V30 17081 H 1609.42 -3.00279 -1.22486 0
M  V30 17082 H 1609.2 -3.90947 0.300428 0
M  V30 17083 H 1610.69 -4.12246 -0.666568 0
M  V30 17084 N 1611.13 -0.710588 -1.40671 0
M  V30 17085 C 1612.06 -0.0694601 -2.33397 0
M  V30 17086 C 1613.04 0.750959 -1.52626 0
M  V30 17087 O 1614.23 0.700896 -1.81111 0
M  V30 17088 C 1611.36 0.856704 -3.36568 0
M  V30 17089 C 1610.31 0.142276 -4.27763 0
M  V30 17090 C 1609.64 1.18382 -5.21431 0
M  V30 17091 C 1610.94 -1.00052 -5.12627 0
M  V30 17092 H 1612.63 -0.843945 -2.87259 0
M  V30 17093 H 1610.18 -0.407287 -1.3812 0
M  V30 17094 H 1612.13 1.31457 -4.00371 0
M  V30 17095 H 1610.85 1.66303 -2.81089 0
M  V30 17096 H 1609.51 -0.295714 -3.65405 0
M  V30 17097 H 1609.16 1.98306 -4.62259 0
M  V30 17098 H 1608.86 0.71071 -5.83286 0
M  V30 17099 H 1610.38 1.64189 -5.88111 0
M  V30 17100 H 1611.8 -0.622246 -5.69913 0
M  V30 17101 H 1610.19 -1.40168 -5.83501 0
M  V30 17102 H 1611.26 -1.83345 -4.48902 0
M  V30 17103 N 1612.61 1.50847 -0.456408 0
M  V30 17104 C 1613.86 2.01835 0.103414 0
M  V30 17105 C 1614.18 1.34142 1.4153 0
M  V30 17106 O 1613.45 0.482015 1.89877 0
M  V30 17107 H 1612.03 0.745863 0.0412074 0
M  V30 17108 H 1614.69 1.85322 -0.603477 0
M  V30 17109 H 1613.78 3.10968 0.265562 0
M  V30 17110 N 1614.09 0.188454 1.56469 0
M  V30 17111 C 1615.5 -0.325309 1.83844 0
M  V30 17112 C 1615.85 -1.61858 1.1089 0
M  V30 17113 O 1614.97 -2.13256 0.36752 0
M  V30 17114 C 1615.57 -0.597002 3.33499 0
M  V30 17115 C 1614.13 -1.05515 3.61308 0
M  V30 17116 C 1613.27 -0.100182 2.77119 0
M  V30 17117 H 1616.22 0.412378 1.53249 0
M  V30 17118 H 1616.25 -1.44709 3.51908 0
M  V30 17119 H 1615.76 0.344429 3.86569 0
M  V30 17120 H 1613.86 -2.01109 3.13665 0
M  V30 17121 H 1613.97 -0.952461 4.69537 0
M  V30 17122 H 1612.34 -0.600815 2.47512 0
M  V30 17123 H 1613.12 0.835574 3.32976 0
M  V30 17124 N 1615.56 -1.5737 -0.0851874 0
M  V30 17125 C 1616.5 -1.99462 -1.12905 0
M  V30 17126 C 1617.51 -0.898597 -1.35754 0
M  V30 17127 O 1618.7 -1.17662 -1.34231 0
M  V30 17128 C 1615.8 -2.30689 -2.48266 0
M  V30 17129 C 1614.97 -3.61967 -2.45557 0
M  V30 17130 C 1614.03 -3.81017 -3.62922 0
M  V30 17131 O 1613.06 -4.52759 -3.44961 0
M  V30 17132 N 1614.26 -3.22348 -4.82775 0
M  V30 17133 H 1617.02 -2.89621 -0.7707 0
M  V30 17134 H 1614.58 -1.59564 -0.274033 0
M  V30 17135 H 1616.58 -2.40618 -3.254 0
M  V30 17136 H 1615.15 -1.46488 -2.76152 0
M  V30 17137 H 1614.37 -3.62916 -1.539 0
M  V30 17138 H 1615.65 -4.48191 -2.40836 0
M  V30 17139 H 1615.05 -2.64093 -5.00271 0
M  V30 17140 H 1613.61 -3.37747 -5.57468 0
M  V30 17141 N 1617.04 0.356258 -1.53521 0
M  V30 17142 C 1617.97 1.44271 -1.83598 0
M  V30 17143 C 1618.95 1.5547 -0.690141 0
M  V30 17144 O 1620.14 1.69886 -0.940868 0
M  V30 17145 C 1617.27 2.8149 -2.03422 0
M  V30 17146 C 1616.22 2.85108 -3.19213 0
M  V30 17147 C 1615.55 4.25091 -3.24348 0
M  V30 17148 C 1616.85 2.51788 -4.57602 0
M  V30 17149 H 1618.54 1.1935 -2.74583 0
M  V30 17150 H 1616.09 0.572707 -1.32121 0
M  V30 17151 H 1618.04 3.57531 -2.23046 0
M  V30 17152 H 1616.76 3.07819 -1.09155 0
M  V30 17153 H 1615.42 2.1152 -2.99424 0
M  V30 17154 H 1615.07 4.4851 -2.277 0
M  V30 17155 H 1614.77 4.28426 -4.0215 0
M  V30 17156 H 1616.3 5.02992 -3.46167 0
M  V30 17157 H 1617.71 3.17542 -4.77326 0
M  V30 17158 H 1616.11 2.66426 -5.37715 0
M  V30 17159 H 1617.18 1.4701 -4.62078 0
M  V30 17160 N 1618.52 1.45038 0.616577 0
M  V30 17161 C 1619.8 1.39059 1.37557 0
M  V30 17162 C 1620.18 0.0566307 2.11024 0
M  V30 17163 O 1619.52 -0.961203 2.073 0
M  V30 17164 C 1619.73 2.59841 2.32989 0
M  V30 17165 C 1621.08 3.04539 2.95874 0
M  V30 17166 O 1622.11 2.6015 2.43312 0
M  V30 17167 O 1620.97 3.81547 3.9126 0
M  V30 17168 H 1618.06 0.551396 0.616353 0
M  V30 17169 H 1620.61 1.57152 0.640416 0
M  V30 17170 H 1619.38 3.48521 1.779 0
M  V30 17171 H 1619 2.44036 3.13899 0
M  V30 17172 N 1620 -0.858287 1.32179 0
M  V30 17173 C 1620.93 -1.97021 1.15143 0
M  V30 17174 C 1621.91 -1.62517 0.0518379 0
M  V30 17175 O 1623.09 -1.87321 0.210465 0
M  V30 17176 C 1620.22 -3.3002 0.761887 0
M  V30 17177 C 1619.27 -3.83504 1.8662 0
M  V30 17178 S 1620.1 -4.07535 3.47383 0
M  V30 17179 C 1621.25 -5.43514 3.10392 0
M  V30 17180 H 1621.49 -2.11169 2.09272 0
M  V30 17181 H 1619.02 -1.00983 1.16798 0
M  V30 17182 H 1620.98 -4.06881 0.543893 0
M  V30 17183 H 1619.64 -3.1369 -0.160479 0
M  V30 17184 H 1618.83 -4.79685 1.54655 0
M  V30 17185 H 1618.43 -3.13474 2.03986 0
M  V30 17186 H 1620.73 -6.2562 2.60011 0
M  V30 17187 H 1621.67 -5.80439 4.05581 0
M  V30 17188 H 1622.08 -5.07344 2.47511 0
M  V30 17189 N 1621.48 -1.1533 -1.07409 0
M  V30 17190 C 1622.41 -0.872476 -2.16587 0
M  V30 17191 C 1623.39 0.176683 -1.6918 0
M  V30 17192 O 1624.57 0.0311826 -1.94175 0
M  V30 17193 C 1621.7 -0.360342 -3.45426 0
M  V30 17194 C 1620.66 -1.34611 -4.06281 0
M  V30 17195 C 1619.98 -0.692848 -5.30192 0
M  V30 17196 C 1621.28 -2.71191 -4.46378 0
M  V30 17197 H 1622.98 -1.78546 -2.40336 0
M  V30 17198 H 1620.52 -0.859895 -1.15507 0
M  V30 17199 H 1622.47 -0.151429 -4.21128 0
M  V30 17200 H 1621.2 0.588109 -3.21261 0
M  V30 17201 H 1619.86 -1.54137 -3.32622 0
M  V30 17202 H 1619.51 0.261732 -5.02319 0
M  V30 17203 H 1619.21 -1.35071 -5.71865 0
M  V30 17204 H 1620.73 -0.493695 -6.08601 0
M  V30 17205 H 1622.14 -2.55513 -5.13212 0
M  V30 17206 H 1620.54 -3.33345 -4.99 0
M  V30 17207 H 1621.61 -3.273 -3.57775 0
M  V30 17208 N 1622.95 1.25748 -0.950004 0
M  V30 17209 C 1624.2 1.93951 -0.612734 0
M  V30 17210 C 1624.55 1.73078 0.840339 0
M  V30 17211 O 1623.85 1.06247 1.59443 0
M  V30 17212 C 1624.04 3.45843 -0.901521 0
M  V30 17213 C 1623.87 3.81488 -2.38111 0
M  V30 17214 C 1622.64 4.03786 -3.03785 0
M  V30 17215 C 1624.84 3.89355 -3.36017 0
M  V30 17216 N 1622.82 4.26386 -4.41665 0
M  V30 17217 C 1624.19 4.1659 -4.59187 0
M  V30 17218 C 1626.25 3.72017 -3.30919 0
M  V30 17219 C 1624.95 4.28291 -5.77892 0
M  V30 17220 C 1626.98 3.84955 -4.48958 0
M  V30 17221 C 1626.34 4.12598 -5.70913 0
M  V30 17222 H 1622.44 0.732147 -0.274745 0
M  V30 17223 H 1625.02 1.51638 -1.22123 0
M  V30 17224 H 1623.19 3.87063 -0.321997 0
M  V30 17225 H 1624.92 4.01285 -0.524624 0
M  V30 17226 H 1621.68 3.9949 -2.54372 0
M  V30 17227 H 1622.1 4.41701 -5.13059 0
M  V30 17228 H 1626.74 3.49667 -2.37682 0
M  V30 17229 H 1624.46 4.49459 -6.71574 0
M  V30 17230 H 1628.05 3.72933 -4.46556 0
M  V30 17231 H 1626.93 4.22385 -6.60727 0
M  V30 17232 N 1624.43 0.718038 1.40292 0
M  V30 17233 C 1625.66 0.266918 2.05675 0
M  V30 17234 C 1626.08 -1.08364 1.53749 0
M  V30 17235 O 1625.44 -1.6831 0.673912 0
M  V30 17236 C 1625.49 0.259606 3.59664 0
M  V30 17237 O 1624.59 -0.758372 4.05367 0
M  V30 17238 H 1623.93 0.124786 0.652169 0
M  V30 17239 H 1626.46 0.979207 1.79646 0
M  V30 17240 H 1626.47 0.098135 4.07882 0
M  V30 17241 H 1625.15 1.24517 3.96823 0
M  V30 17242 H 1623.72 -0.564425 3.68604 0
M  V30 17243 N 1625.91 -1.50602 0.464402 0
M  V30 17244 C 1627.16 -2.01887 -0.0927084 0
M  V30 17245 C 1627.48 -1.34891 -1.40817 0
M  V30 17246 O 1626.75 -0.492078 -1.89619 0
M  V30 17247 H 1625.33 -0.746071 -0.0372514 0
M  V30 17248 H 1627.99 -1.84999 0.613296 0
M  V30 17249 H 1627.09 -3.11105 -0.249067 0
M  V30 17250 N 1627.39 -0.19675 -1.56367 0
M  V30 17251 C 1628.61 0.450245 -2.02454 0
M  V30 17252 C 1629.04 1.54287 -1.07597 0
M  V30 17253 O 1628.4 1.81202 -0.0597529 0
M  V30 17254 C 1628.44 0.982087 -3.46969 0
M  V30 17255 O 1627.55 2.09489 -3.5523 0
M  V30 17256 H 1626.89 0.105022 -0.655642 0
M  V30 17257 H 1629.42 -0.308112 -2.02267 0
M  V30 17258 H 1629.43 1.29826 -3.86793 0
M  V30 17259 H 1628.1 0.18224 -4.15501 0
M  V30 17260 H 1626.68 1.78723 -3.27281 0
M  V30 17261 N 1628.87 1.57413 0.0768405 0
M  V30 17262 C 1630.28 1.53656 0.431508 0
M  V30 17263 C 1630.48 0.916194 1.79466 0
M  V30 17264 O 1629.54 0.516529 2.4716 0
M  V30 17265 C 1630.85 2.98325 0.377212 0
M  V30 17266 C 1632.4 3.09635 0.457761 0
M  V30 17267 C 1632.87 4.55945 0.433425 0
M  V30 17268 N 1634.37 4.60562 0.493647 0
M  V30 17269 C 1635.1 5.71242 0.496949 0
M  V30 17270 N 1634.6 6.91302 0.455368 0
M  V30 17271 N 1636.39 5.5947 0.543129 0
M  V30 17272 H 1628.54 1.96108 -0.815811 0
M  V30 17273 H 1630.8 0.897392 -0.3056 0
M  V30 17274 H 1630.51 3.47251 -0.557628 0
M  V30 17275 H 1630.38 3.57959 1.18932 0
M  V30 17276 H 1632.77 2.60685 1.38302 0
M  V30 17277 H 1632.85 2.52919 -0.382829 0
M  V30 17278 H 1632.5 5.0555 -0.487968 0
M  V30 17279 H 1632.43 5.10518 1.29148 0
M  V30 17280 H 1634.92 3.74162 0.530237 0
M  V30 17281 H 1635.23 7.7142 0.461674 0
M  V30 17282 H 1633.57 6.93717 0.422133 0
M  V30 17283 H 1636.77 4.64576 0.573272 0
M  V30 17284 H 1636.94 6.45727 0.542234 0
M  V30 17285 N 1630.34 -0.348112 1.53707 0
M  V30 17286 C 1631.59 -1.08671 1.70396 0
M  V30 17287 C 1631.91 -1.89314 0.467453 0
M  V30 17288 O 1631.18 -1.88911 -0.518605 0
M  V30 17289 H 1629.76 -0.404186 0.628206 0
M  V30 17290 H 1632.43 -0.390491 1.90948 0
M  V30 17291 H 1631.52 -1.76668 2.57284 0
M  V30 17292 N 1631.82 -1.45363 -0.608876 0
M  V30 17293 C 1633.06 -1.50852 -1.37925 0
M  V30 17294 C 1633.43 -0.146034 -1.91444 0
M  V30 17295 O 1634.63 -0.0756115 -2.68694 0
M  V30 17296 C 1632.9 -2.55668 -2.49737 0
M  V30 17297 S 1634.46 -2.80371 -3.37546 0
M  V30 17298 H 1631.28 -0.533283 -0.470244 0
M  V30 17299 H 1633.88 -1.82435 -0.702697 0
M  V30 17300 H 1632.58 -3.53334 -2.08767 0
M  V30 17301 H 1632.11 -2.25731 -3.22194 0
M  V30 17302 H 1634.13 -2.13653 -4.47847 0
M  V30 17303 N 1633.3 0.851265 -1.32632 0
M  V30 17304 C 1634.21 1.99239 -1.23858 0
M  V30 17305 C 1635.23 1.73339 -0.151517 0
M  V30 17306 O 1636.4 1.97919 -0.372822 0
M  V30 17307 C 1633.47 3.32987 -0.965417 0
M  V30 17308 C 1632.53 3.72087 -2.14126 0
M  V30 17309 C 1631.76 4.99453 -1.88103 0
M  V30 17310 O 1631.98 5.64399 -0.825253 0
M  V30 17311 O 1630.92 5.35763 -2.74302 0
M  V30 17312 H 1634.74 2.09579 -2.19796 0
M  V30 17313 H 1632.33 0.98243 -1.12555 0
M  V30 17314 H 1634.21 4.13151 -0.829713 0
M  V30 17315 H 1632.89 3.2368 -0.036219 0
M  V30 17316 H 1631.79 2.92485 -2.33245 0
M  V30 17317 H 1633.13 3.86045 -3.05336 0
M  V30 17318 N 1634.78 1.15898 1.06796 0
M  V30 17319 C 1636.01 0.961372 1.83208 0
M  V30 17320 C 1636.42 -0.490392 1.8232 0
M  V30 17321 O 1635.78 -1.34025 1.2387 0
M  V30 17322 C 1635.83 1.47486 3.30045 0
M  V30 17323 O 1635.55 2.86976 3.31023 0
M  V30 17324 C 1637.05 1.31955 4.23205 0
M  V30 17325 H 1634.27 0.34109 0.57784 0
M  V30 17326 H 1636.82 1.53805 1.34775 0
M  V30 17327 H 1634.97 0.940586 3.75808 0
M  V30 17328 H 1635.38 3.1038 4.22805 0
M  V30 17329 H 1636.86 1.72721 5.24282 0
M  V30 17330 H 1637.34 0.264439 4.38403 0
M  V30 17331 H 1637.94 1.84319 3.83284 0
M  V30 17332 N 1636.26 -1.25243 0.956659 0
M  V30 17333 C 1637.21 -2.23532 0.449171 0
M  V30 17334 C 1638.19 -1.54103 -0.462715 0
M  V30 17335 O 1639.38 -1.74517 -0.295436 0
M  V30 17336 C 1636.51 -3.42237 -0.269892 0
M  V30 17337 C 1635.6 -4.1893 0.660181 0
M  V30 17338 N 1635.99 -4.72965 1.7927 0
M  V30 17339 C 1634.29 -4.4353 0.468779 0
M  V30 17340 C 1634.99 -5.31072 2.37355 0
M  V30 17341 N 1633.96 -5.17638 1.65986 0
M  V30 17342 H 1637.77 -2.62918 1.31345 0
M  V30 17343 H 1635.28 -1.40504 0.814394 0
M  V30 17344 H 1637.28 -4.11792 -0.650604 0
M  V30 17345 H 1635.94 -3.04375 -1.13075 0
M  V30 17346 H 1636.95 -4.70038 2.17451 0
M  V30 17347 H 1633.62 -4.16038 -0.349031 0
M  V30 17348 H 1635.01 -5.83654 3.32863 0
M  V30 17349 N 1637.73 -0.725468 -1.3991 0
M  V30 17350 C 1638.7 -0.0878956 -2.29031 0
M  V30 17351 C 1639.7 0.677105 -1.45849 0
M  V30 17352 O 1640.89 0.507538 -1.66642 0
M  V30 17353 C 1638.02 0.885087 -3.2921 0
M  V30 17354 H 1639.21 -0.872957 -2.86914 0
M  V30 17355 H 1636.77 -0.490715 -1.48397 0
M  V30 17356 H 1637.5 1.69685 -2.76365 0
M  V30 17357 H 1637.29 0.339297 -3.90629 0
M  V30 17358 H 1638.78 1.32806 -3.9592 0
M  V30 17359 N 1639.21 1.50354 -0.472382 0
M  V30 17360 C 1640.46 2.02333 0.0821629 0
M  V30 17361 C 1640.79 1.35428 1.39605 0
M  V30 17362 O 1640.04 0.469386 1.89988 0
M  V30 17363 C 1640.34 3.5603 0.31263 0
M  V30 17364 C 1640.01 4.41421 -0.919715 0
M  V30 17365 C 1638.67 4.64476 -1.25759 0
M  V30 17366 C 1641.02 4.91292 -1.74017 0
M  V30 17367 C 1638.35 5.34648 -2.41596 0
M  V30 17368 C 1640.7 5.62736 -2.88983 0
M  V30 17369 C 1639.37 5.84045 -3.23184 0
M  V30 17370 H 1638.64 0.74039 0.0300655 0
M  V30 17371 H 1641.28 1.80954 -0.626725 0
M  V30 17372 H 1639.59 3.75931 1.10378 0
M  V30 17373 H 1641.28 3.93815 0.755691 0
M  V30 17374 H 1637.87 4.23696 -0.646486 0
M  V30 17375 H 1642.06 4.73332 -1.49232 0
M  V30 17376 H 1637.31 5.49354 -2.68366 0
M  V30 17377 H 1641.49 6.0036 -3.52903 0
M  V30 17378 H 1639.12 6.38196 -4.1305 0
M  V30 17379 N 1640.69 0.205039 1.56261 0
M  V30 17380 C 1641.92 -0.43642 2.02245 0
M  V30 17381 C 1642.33 -1.54504 1.08508 0
M  V30 17382 O 1641.69 -1.82269 0.0916991 0
M  V30 17383 C 1641.74 -0.983483 3.47865 0
M  V30 17384 O 1641.46 0.0809166 4.38025 0
M  V30 17385 C 1642.96 -1.69983 4.09415 0
M  V30 17386 H 1640.18 -0.108577 0.662157 0
M  V30 17387 H 1642.73 0.316659 2.02033 0
M  V30 17388 H 1640.88 -1.6869 3.48744 0
M  V30 17389 H 1641.3 -0.327751 5.23475 0
M  V30 17390 H 1642.77 -2.03481 5.13127 0
M  V30 17391 H 1643.25 -2.60711 3.5345 0
M  V30 17392 H 1643.85 -1.04202 4.12337 0
M  V30 17393 N 1642.17 -1.57451 -0.0684915 0
M  V30 17394 C 1643.13 -2.0293 -1.06545 0
M  V30 17395 C 1644.13 -0.926861 -1.314 0
M  V30 17396 O 1645.32 -1.19164 -1.27065 0
M  V30 17397 C 1642.45 -2.41276 -2.4083 0
M  V30 17398 H 1643.65 -2.92242 -0.673401 0
M  V30 17399 H 1641.2 -1.53107 -0.314307 0
M  V30 17400 H 1641.94 -1.55 -2.8486 0
M  V30 17401 H 1641.72 -3.21727 -2.2413 0
M  V30 17402 H 1643.21 -2.77026 -3.12484 0
M  V30 17403 N 1643.65 0.339955 -1.5389 0
M  V30 17404 C 1644.6 1.41838 -1.78511 0
M  V30 17405 C 1645.58 1.47604 -0.640447 0
M  V30 17406 O 1646.77 1.52414 -0.899951 0
M  V30 17407 C 1643.9 2.78929 -2.00134 0
M  V30 17408 C 1642.99 2.7754 -3.20675 0
M  V30 17409 N 1643.38 2.45779 -4.42071 0
M  V30 17410 C 1641.68 3.08684 -3.21917 0
M  V30 17411 C 1642.38 2.52714 -5.23938 0
M  V30 17412 N 1641.35 2.88484 -4.60736 0
M  V30 17413 H 1645.16 1.16185 -2.6996 0
M  V30 17414 H 1642.67 0.548339 -1.52863 0
M  V30 17415 H 1644.67 3.56637 -2.15907 0
M  V30 17416 H 1643.33 3.05525 -1.09929 0
M  V30 17417 H 1644.34 2.18913 -4.69358 0
M  V30 17418 H 1641.02 3.40429 -2.41691 0
M  V30 17419 H 1642.41 2.31287 -6.30838 0
M  V30 17420 N 1645.13 1.45684 0.601159 0
M  V30 17421 C 1646.54 1.44423 1.18317 0
M  V30 17422 C 1646.89 0.17524 1.95416 0
M  V30 17423 O 1646.01 -0.722816 2.03971 0
M  V30 17424 C 1646.61 2.61651 2.1523 0
M  V30 17425 C 1645.17 2.6349 2.68793 0
M  V30 17426 C 1644.31 2.36787 1.44317 0
M  V30 17427 H 1647.26 1.53831 0.390108 0
M  V30 17428 H 1647.29 2.36117 2.98377 0
M  V30 17429 H 1646.8 3.53995 1.59088 0
M  V30 17430 H 1644.9 1.7517 3.28856 0
M  V30 17431 H 1645.01 3.62906 3.12787 0
M  V30 17432 H 1643.38 1.86472 1.73494 0
M  V30 17433 H 1644.16 3.31284 0.900327 0
M  V30 17434 N 1646.6 -0.84422 1.33082 0
M  V30 17435 C 1647.51 -1.9858 1.24913 0
M  V30 17436 C 1648.53 -1.73256 0.160708 0
M  V30 17437 O 1649.71 -1.97719 0.383313 0
M  V30 17438 C 1646.77 -3.32471 0.983063 0
M  V30 17439 C 1645.83 -3.70946 2.16096 0
M  V30 17440 C 1645.06 -4.98448 1.90749 0
M  V30 17441 O 1645.29 -5.63953 0.855173 0
M  V30 17442 O 1644.22 -5.34301 2.7714 0
M  V30 17443 H 1648.05 -2.0841 2.20905 0
M  V30 17444 H 1645.63 -0.976447 1.13075 0
M  V30 17445 H 1647.51 -4.12705 0.851612 0
M  V30 17446 H 1646.19 -3.23656 0.053384 0
M  V30 17447 H 1645.1 -2.91244 2.34793 0
M  V30 17448 H 1646.43 -3.8442 3.07379 0
M  V30 17449 N 1648.08 -1.16463 -1.0618 0
M  V30 17450 C 1649.33 -0.944975 -1.78647 0
M  V30 17451 C 1649.65 0.528486 -1.87702 0
M  V30 17452 O 1648.92 1.38391 -1.38653 0
M  V30 17453 H 1647.5 -0.346637 -0.661704 0
M  V30 17454 H 1650.16 -1.46752 -1.28257 0
M  V30 17455 H 1649.26 -1.36469 -2.80683 0
M  V30 17456 N 1649.56 1.24734 -0.963288 0
M  V30 17457 C 1650.51 2.25555 -0.48926 0
M  V30 17458 C 1651.48 1.59521 0.462848 0
M  V30 17459 O 1652.66 1.87095 0.374188 0
M  V30 17460 C 1649.8 3.44407 0.218629 0
M  V30 17461 C 1648.91 4.25051 -0.77173 0
M  V30 17462 C 1648.05 5.31185 -0.0403986 0
M  V30 17463 C 1647.09 6.03523 -1.02112 0
M  V30 17464 N 1646.23 7.0137 -0.320083 0
M  V30 17465 H 1651.07 2.6547 -1.35386 0
M  V30 17466 H 1648.6 1.30504 -0.678762 0
M  V30 17467 H 1650.56 4.12173 0.645701 0
M  V30 17468 H 1649.19 3.05341 1.04722 0
M  V30 17469 H 1648.24 3.56865 -1.31726 0
M  V30 17470 H 1649.55 4.75084 -1.51976 0
M  V30 17471 H 1648.71 6.05067 0.444886 0
M  V30 17472 H 1647.45 4.82048 0.740356 0
M  V30 17473 H 1646.45 5.28448 -1.51732 0
M  V30 17474 H 1647.68 6.54749 -1.80224 0
M  V30 17475 H 1645.62 6.54511 0.441775 0
M  V30 17476 H 1645.54 7.49263 -1.00705 0
M  V30 17477 H 1646.81 7.79368 0.143379 0
M  V30 17478 N 1651.04 0.732878 1.39523 0
M  V30 17479 C 1651.99 0.0676184 2.279 0
M  V30 17480 C 1652.97 -0.7148 1.44151 0
M  V30 17481 O 1654.16 -0.584158 1.67083 0
M  V30 17482 C 1651.29 -0.840482 3.32853 0
M  V30 17483 C 1650.38 -0.052326 4.24068 0
M  V30 17484 N 1650.77 0.973429 4.96345 0
M  V30 17485 C 1649.07 -0.282301 4.45106 0
M  V30 17486 C 1649.77 1.44851 5.63376 0
M  V30 17487 N 1648.74 0.767499 5.38155 0
M  V30 17488 H 1652.55 0.853533 2.81233 0
M  V30 17489 H 1650.06 0.567016 1.5218 0
M  V30 17490 H 1652.06 -1.33254 3.95031 0
M  V30 17491 H 1650.72 -1.62558 2.81078 0
M  V30 17492 H 1651.73 1.35474 4.99867 0
M  V30 17493 H 1648.41 -1.04237 4.04278 0
M  V30 17494 H 1649.8 2.30179 6.31242 0
M  V30 17495 N 1652.52 -1.50101 0.480349 0
M  V30 17496 C 1653.47 -2.25631 -0.327823 0
M  V30 17497 C 1654.45 -1.29605 -0.953492 0
M  V30 17498 O 1655.64 -1.54451 -0.86451 0
M  V30 17499 C 1652.77 -3.13284 -1.40386 0
M  V30 17500 C 1651.86 -4.16763 -0.785461 0
M  V30 17501 N 1652.25 -5.05702 0.0997266 0
M  V30 17502 C 1650.55 -4.33503 -1.04838 0
M  V30 17503 C 1651.25 -5.79944 0.45163 0
M  V30 17504 N 1650.22 -5.43317 -0.175455 0
M  V30 17505 H 1654.02 -2.91761 0.353929 0
M  V30 17506 H 1651.54 -1.59697 0.295085 0
M  V30 17507 H 1653.54 -3.66008 -1.9961 0
M  V30 17508 H 1652.2 -2.48703 -2.08751 0
M  V30 17509 H 1653.21 -5.1577 0.469184 0
M  V30 17510 H 1649.88 -3.80138 -1.72631 0
M  V30 17511 H 1651.27 -6.61554 1.17458 0
M  V30 17512 N 1653.99 -0.213323 -1.5615 0
M  V30 17513 C 1655.22 0.428746 -2.0292 0
M  V30 17514 C 1655.64 1.53137 -1.09227 0
M  V30 17515 O 1655 1.81128 -0.0789684 0
M  V30 17516 C 1655.05 0.945231 -3.47991 0
M  V30 17517 O 1654.15 2.05709 -3.57432 0
M  V30 17518 H 1653.49 0.0980619 -0.656719 0
M  V30 17519 H 1656.02 -0.329548 -2.01929 0
M  V30 17520 H 1656.03 1.25717 -3.88149 0
M  V30 17521 H 1654.71 0.138161 -4.1567 0
M  V30 17522 H 1653.29 1.75242 -3.29158 0
M  V30 17523 N 1655.47 1.57485 0.0601405 0
M  V30 17524 C 1656.4 2.07525 1.07031 0
M  V30 17525 C 1657.38 0.971136 1.39653 0
M  V30 17526 O 1658.57 1.24456 1.49078 0
M  V30 17527 C 1655.7 2.52888 2.38044 0
M  V30 17528 C 1654.65 3.67282 2.19745 0
M  V30 17529 C 1653.98 3.98741 3.56244 0
M  V30 17530 C 1655.28 4.96896 1.60908 0
M  V30 17531 H 1656.97 2.92173 0.653875 0
M  V30 17532 H 1654.52 1.40555 0.313083 0
M  V30 17533 H 1656.47 2.8651 3.09014 0
M  V30 17534 H 1655.2 1.65284 2.81689 0
M  V30 17535 H 1653.85 3.33961 1.51213 0
M  V30 17536 H 1653.5 3.08249 3.97481 0
M  V30 17537 H 1653.2 4.75775 3.44836 0
M  V30 17538 H 1654.73 4.34869 4.28627 0
M  V30 17539 H 1656.14 5.28674 2.21758 0
M  V30 17540 H 1654.54 5.78332 1.60164 0
M  V30 17541 H 1655.61 4.81518 0.571671 0
M  V30 17542 N 1656.95 -0.331789 1.54068 0
M  V30 17543 C 1658.18 -1.09484 1.76148 0
M  V30 17544 C 1658.6 -1.81201 0.504772 0
M  V30 17545 O 1657.96 -1.7297 -0.54325 0
M  V30 17546 C 1658.01 -2.07495 2.94921 0
M  V30 17547 O 1657.11 -3.15239 2.65891 0
M  V30 17548 H 1656.45 -0.316071 0.583948 0
M  V30 17549 H 1658.98 -0.378593 2.01067 0
M  V30 17550 H 1658.99 -2.5051 3.22038 0
M  V30 17551 H 1657.67 -1.54696 3.8606 0
M  V30 17552 H 1656.24 -2.76958 2.49697 0
M  V30 17553 N 1658.43 -1.46001 -0.593424 0
M  V30 17554 C 1659.68 -1.50755 -1.352 0
M  V30 17555 C 1660 -0.154929 -1.93882 0
M  V30 17556 O 1659.26 0.848161 -1.76365 0
M  V30 17557 C 1659.56 -2.54568 -2.50858 0
M  V30 17558 C 1659.22 -3.98888 -2.10236 0
M  V30 17559 C 1657.89 -4.38182 -1.98872 0
M  V30 17560 C 1660.24 -4.89591 -1.78746 0
M  V30 17561 C 1657.57 -5.66057 -1.5426 0
M  V30 17562 C 1659.92 -6.17892 -1.35617 0
M  V30 17563 C 1658.58 -6.56103 -1.22822 0
M  V30 17564 H 1657.85 -0.551652 -0.494734 0
M  V30 17565 H 1660.5 -1.79422 -0.669327 0
M  V30 17566 H 1658.8 -2.19523 -3.24526 0
M  V30 17567 H 1660.5 -2.5548 -3.09081 0
M  V30 17568 H 1657.09 -3.67822 -2.20012 0
M  V30 17569 H 1661.27 -4.59959 -1.86416 0
M  V30 17570 H 1656.53 -5.94444 -1.42988 0
M  V30 17571 H 1660.7 -6.87609 -1.10301 0
M  V30 17572 H 1658.33 -7.55086 -0.880285 0
M  V30 17573 N 1659.91 0.83715 -1.33527 0
M  V30 17574 C 1661.13 1.62976 -1.28271 0
M  V30 17575 C 1661.56 1.87554 0.143201 0
M  V30 17576 O 1660.91 1.44088 1.10038 0
M  V30 17577 C 1660.96 2.95607 -2.06516 0
M  V30 17578 O 1660.07 3.87 -1.42494 0
M  V30 17579 H 1659.41 0.496212 -0.441214 0
M  V30 17580 H 1661.94 1.04137 -1.76115 0
M  V30 17581 H 1661.95 3.4529 -2.17344 0
M  V30 17582 H 1660.62 2.77041 -3.10195 0
M  V30 17583 H 1659.2 3.45492 -1.40321 0
M  V30 17584 O 1661.42 1.28743 0.975066 0
M  V30 17585 H 1662.11 1.09146 1.60021 0
M  V30 END ATOM
M  V30 BEGIN BOND
M  V30 END BOND
M  V30 END CTAB
M  END
$$$$
