drugbank_target|P35579 Myosin-9 (DB11638)
 OpenBabel12092121093D

  0  0  0     0  0            999 V3000
M  V30 BEGIN CTAB
M  V30 COUNTS 31914 32078 0 0 0
M  V30 BEGIN ATOM
M  V30 1 H -0.908 1.98254 -0.117106 0
M  V30 2 N 0 1.576 0 0
M  V30 3 C 0.933 2.03868 1.02534 0
M  V30 4 C 1.911 0.928543 1.3348 0
M  V30 5 O 3.095 1.19667 1.45644 0
M  V30 6 C 0.222 2.43627 2.35294 0
M  V30 7 C -0.732 3.65373 2.2001 0
M  V30 8 S 0.101 5.13292 1.52614 0
M  V30 9 C 1.257 5.56322 2.86805 0
M  V30 10 H 1.49 2.90518 0.631377 0
M  V30 11 H -0.977 1.52953 0.210867 0
M  V30 12 H 0.981 2.67203 3.11629 0
M  V30 13 H -0.358 1.57376 2.7183 0
M  V30 14 H -1.165 3.90944 3.18086 0
M  V30 15 H -1.563 3.418 1.51819 0
M  V30 16 H 0.729 5.58782 3.83104 0
M  V30 17 H 1.672 6.56266 2.65933 0
M  V30 18 H 2.08 4.83886 2.90714 0
M  V30 19 N 1.4781 -0.272755 1.55222 0
M  V30 20 C 2.4411 -1.32041 1.87344 0
M  V30 21 C 3.4411 -1.42342 0.74803 0
M  V30 22 O 4.6311 -1.41488 1.0162 0
M  V30 23 C 1.7631 -2.70173 2.07893 0
M  V30 24 H 2.9561 -1.04789 2.80997 0
M  V30 25 H 0.5091 -0.51083 1.47717 0
M  V30 26 H 1.2441 -3.02605 1.16622 0
M  V30 27 H 1.0291 -2.64082 2.89833 0
M  V30 28 H 2.5191 -3.45869 2.34017 0
M  V30 29 N 2.9562 -1.48159 -0.537278 0
M  V30 30 C 3.8882 -1.58218 -1.65831 0
M  V30 31 C 4.9012 -0.466948 -1.5596 0
M  V30 32 O 6.0902 -0.73747 -1.62553 0
M  V30 33 C 3.1902 -1.48906 -3.04434 0
M  V30 34 C 2.3632 -2.75343 -3.3986 0
M  V30 35 C 1.4222 -2.59588 -4.57712 0
M  V30 36 O 0.4482 -3.33457 -4.61297 0
M  V30 37 N 1.6502 -1.68724 -5.55439 0
M  V30 38 H 4.4152 -2.54891 -1.57641 0
M  V30 39 H 1.9762 -1.4479 -0.724386 0
M  V30 40 H 3.9682 -1.36072 -3.81139 0
M  V30 41 H 2.5382 -0.602368 -3.06741 0
M  V30 42 H 1.7582 -3.02795 -2.52406 0
M  V30 43 H 3.0462 -3.5924 -3.60311 0
M  V30 44 H 2.4442 -1.07898 -5.55315 0
M  V30 45 H 1.0012 -1.61832 -6.3139 0
M  V30 46 N 4.4343 0.785586 -1.36625 0
M  V30 47 C 5.3663 1.90711 -1.2713 0
M  V30 48 C 6.3793 1.61688 -0.189986 0
M  V30 49 O 7.5683 1.72864 -0.445014 0
M  V30 50 C 4.6683 3.25611 -0.939713 0
M  V30 51 C 3.8413 3.82385 -2.12369 0
M  V30 52 C 2.9003 4.95732 -1.76456 0
M  V30 53 O 1.9263 5.12047 -2.48589 0
M  V30 54 N 3.1283 5.76258 -0.700492 0
M  V30 55 H 5.8933 1.99376 -2.23762 0
M  V30 56 H 3.4543 0.964041 -1.30069 0
M  V30 57 H 5.4463 3.98937 -0.680554 0
M  V30 58 H 4.0163 3.12538 -0.0624074 0
M  V30 59 H 3.2363 3.01001 -2.54543 0
M  V30 60 H 4.5243 4.17047 -2.9146 0
M  V30 61 H 3.9223 5.65609 -0.101624 0
M  V30 62 H 2.4793 6.4987 -0.501165 0
M  V30 63 N 5.9124 1.20967 1.01018 0
M  V30 64 C 6.8754 0.965918 2.07853 0
M  V30 65 C 7.8754 -0.0610545 1.60684 0
M  V30 66 O 9.0654 0.175681 1.73312 0
M  V30 67 C 6.1974 0.455513 3.37843 0
M  V30 68 H 7.3904 1.91365 2.3091 0
M  V30 69 H 4.9434 1.02594 1.17916 0
M  V30 70 H 5.6784 -0.497381 3.20463 0
M  V30 71 H 5.4634 1.19622 3.73407 0
M  V30 72 H 6.9534 0.304667 4.16487 0
M  V30 73 N 7.3905 -1.2043 1.01659 0
M  V30 74 C 8.3535 -2.21433 0.591616 0
M  V30 75 C 9.3535 -1.57203 -0.338226 0
M  V30 76 O 10.5435 -1.73737 -0.126918 0
M  V30 77 C 7.6755 -3.40628 -0.136058 0
M  V30 78 H 8.8685 -2.60545 1.48514 0
M  V30 79 H 6.4215 -1.33893 0.806379 0
M  V30 80 H 7.1565 -3.07019 -1.04449 0
M  V30 81 H 6.9415 -3.88475 0.531917 0
M  V30 82 H 8.4315 -4.15475 -0.420735 0
M  V30 83 N 8.8686 -0.792821 -1.36206 0
M  V30 84 C 10.1456 -0.290627 -1.93429 0
M  V30 85 C 10.5256 1.21773 -1.72437 0
M  V30 86 O 9.8736 2.0108 -1.08531 0
M  V30 87 C 10.0836 -0.686973 -3.42172 0
M  V30 88 C 11.4316 -0.668643 -4.19302 0
M  V30 89 O 12.4556 -0.627658 -3.50626 0
M  V30 90 O 11.3146 -0.714597 -5.41808 0
M  V30 91 H 8.4086 -0.0727927 -0.82379 0
M  V30 92 H 10.9546 -0.875593 -1.45367 0
M  V30 93 H 9.7266 -1.72711 -3.51122 0
M  V30 94 H 9.3496 -0.0760733 -3.97527 0
M  V30 95 N 10.3467 1.47872 -0.545128 0
M  V30 96 C 11.2937 2.29849 0.2093 0
M  V30 97 C 12.2637 1.38313 0.919707 0
M  V30 98 O 13.4487 1.67277 0.917772 0
M  V30 99 C 10.5887 3.22019 1.24088 0
M  V30 100 C 9.7017 4.2864 0.537778 0
M  V30 101 C 8.8367 5.07973 1.5536 0
M  V30 102 C 7.8757 6.06381 0.8348 0
M  V30 103 N 7.0127 6.78717 1.79688 0
M  V30 104 H 11.8527 2.93845 -0.49591 0
M  V30 105 H 9.3897 1.44848 -0.256389 0
M  V30 106 H 11.3477 3.73868 1.85144 0
M  V30 107 H 9.9777 2.59914 1.91428 0
M  V30 108 H 9.0297 3.7994 -0.187046 0
M  V30 109 H 10.3417 4.98793 -0.0258907 0
M  V30 110 H 9.4957 5.63912 2.23803 0
M  V30 111 H 8.2347 4.37693 2.15118 0
M  V30 112 H 7.2397 5.49631 0.136388 0
M  V30 113 H 8.4647 6.78665 0.24313 0
M  V30 114 H 6.4107 6.11177 2.38326 0
M  V30 115 H 6.3277 7.44998 1.28505 0
M  V30 116 H 7.5957 7.39237 2.47282 0
M  V30 117 N 11.8248 0.280983 1.55075 0
M  V30 118 C 13.0548 -0.336804 2.03836 0
M  V30 119 C 13.4628 -1.49577 1.15859 0
M  V30 120 O 12.8058 -1.82888 0.172503 0
M  V30 121 C 12.8678 -0.874616 3.48699 0
M  V30 122 C 12.5318 0.156478 4.56732 0
M  V30 123 C 13.5288 0.978032 5.10618 0
M  V30 124 C 11.2138 0.292409 5.01448 0
M  V30 125 C 13.2078 1.92165 6.07743 0
M  V30 126 C 10.8948 1.23949 5.98398 0
M  V30 127 C 11.8928 2.05261 6.51427 0
M  V30 128 O 11.5808 2.98367 7.4648 0
M  V30 129 H 11.3128 -0.0800885 0.671239 0
M  V30 130 H 13.8668 0.412589 2.01213 0
M  V30 131 H 12.0968 -1.67418 3.4858 0
M  V30 132 H 13.7858 -1.40612 3.80766 0
M  V30 133 H 14.5518 0.883782 4.7688 0
M  V30 134 H 10.4308 -0.330498 4.59814 0
M  V30 135 H 13.9748 2.55672 6.49059 0
M  V30 136 H 9.8718 1.33454 6.31554 0
M  V30 137 H 10.6398 2.93116 7.64215 0
M  V30 138 N 13.3029 -1.57598 0.00835791 0
M  V30 139 C 14.2329 -2.1198 -0.979113 0
M  V30 140 C 15.2139 -1.03091 -1.35301 0
M  V30 141 O 16.3989 -1.30818 -1.43528 0
M  V30 142 C 13.5289 -2.62995 -2.26828 0
M  V30 143 C 12.4829 -3.76485 -2.03576 0
M  V30 144 C 11.8089 -4.13846 -3.38579 0
M  V30 145 C 13.1089 -5.0342 -1.39161 0
M  V30 146 H 14.8029 -2.94738 -0.526281 0
M  V30 147 H 12.3489 -1.41783 -0.251704 0
M  V30 148 H 14.3019 -2.99669 -2.96271 0
M  V30 149 H 13.0259 -1.7737 -2.7424 0
M  V30 150 H 11.6849 -3.40217 -1.36557 0
M  V30 151 H 11.3329 -3.25232 -3.83709 0
M  V30 152 H 11.0329 -4.90312 -3.23834 0
M  V30 153 H 12.5569 -4.53086 -4.09323 0
M  V30 154 H 13.9709 -5.37812 -1.98573 0
M  V30 155 H 12.3679 -5.84746 -1.34878 0
M  V30 156 H 13.4379 -4.83548 -0.361868 0
M  V30 157 N 14.781 0.264519 -1.55364 0
M  V30 158 C 16.011 1.01153 -1.80143 0
M  V30 159 C 16.419 1.80115 -0.579253 0
M  V30 160 O 15.762 1.77813 0.46132 0
M  V30 161 C 15.824 2.01098 -2.97993 0
M  V30 162 C 15.488 1.40995 -4.34706 0
M  V30 163 C 16.485 0.821316 -5.13372 0
M  V30 164 C 14.17 1.43461 -4.81378 0
M  V30 165 C 16.164 0.265339 -6.36847 0
M  V30 166 C 13.851 0.874771 -6.04807 0
M  V30 167 C 14.849 0.291146 -6.82379 0
M  V30 168 O 14.537 -0.260093 -8.03479 0
M  V30 169 H 14.269 0.304125 -0.603725 0
M  V30 170 H 16.823 0.298089 -2.03225 0
M  V30 171 H 15.053 2.76224 -2.70623 0
M  V30 172 H 16.742 2.61997 -3.1002 0
M  V30 173 H 17.508 0.794903 -4.78442 0
M  V30 174 H 13.387 1.87826 -4.21002 0
M  V30 175 H 16.931 -0.190837 -6.97339 0
M  V30 176 H 12.828 0.898452 -6.39217 0
M  V30 177 H 13.596 -0.150265 -8.18362 0
M  V30 178 N 16.2591 1.48442 0.529413 0
M  V30 179 C 17.5051 1.5672 1.28711 0
M  V30 180 C 17.8381 0.2406 1.92704 0
M  V30 181 O 17.1131 -0.753454 1.79313 0
M  V30 182 C 17.3961 2.70587 2.37603 0
M  V30 183 C 17.2491 4.12953 1.78297 0
M  V30 184 C 18.5681 2.80212 3.39366 0
M  V30 185 H 15.6871 0.570474 0.466613 0
M  V30 186 H 18.3291 1.80617 0.589706 0
M  V30 187 H 16.4791 2.50342 2.97088 0
M  V30 188 H 18.1511 4.44639 1.22858 0
M  V30 189 H 16.3941 4.19927 1.0883 0
M  V30 190 H 17.0651 4.88448 2.57144 0
M  V30 191 H 19.5411 2.98553 2.89836 0
M  V30 192 H 18.4171 3.61611 4.12951 0
M  V30 193 H 18.6781 1.88393 3.99951 0
M  V30 194 N 17.7372 -0.778329 1.37039 0
M  V30 195 C 19.0142 -1.52551 1.22424 0
M  V30 196 C 19.3942 -2.10288 -0.184964 0
M  V30 197 O 18.7422 -1.94953 -1.19187 0
M  V30 198 C 18.9522 -2.61164 2.31504 0
M  V30 199 C 20.3002 -3.28746 2.68721 0
M  V30 200 O 21.3242 -2.71455 2.30631 0
M  V30 201 O 20.1832 -4.3231 3.3432 0
M  V30 202 H 17.2772 -0.675343 0.477326 0
M  V30 203 H 19.8232 -0.815859 1.48801 0
M  V30 204 H 18.5952 -2.16574 3.25901 0
M  V30 205 H 18.2182 -3.39737 2.06554 0
M  V30 206 N 19.2153 -1.21501 -1.00376 0
M  V30 207 C 20.1623 -0.975387 -2.09177 0
M  V30 208 C 21.1323 0.0990615 -1.65804 0
M  V30 209 O 22.3173 -0.0483147 -1.90739 0
M  V30 210 C 19.4573 -0.547507 -3.40729 0
M  V30 211 C 18.5703 -1.69153 -3.97506 0
M  V30 212 C 17.7053 -1.2127 -5.17172 0
M  V30 213 C 16.7443 -2.32897 -5.66061 0
M  V30 214 N 15.8813 -1.86138 -6.76976 0
M  V30 215 H 20.7213 -1.9068 -2.29009 0
M  V30 216 H 18.2583 -0.950257 -1.12288 0
M  V30 217 H 20.2163 -0.280667 -4.16255 0
M  V30 218 H 18.8463 0.346904 -3.20931 0
M  V30 219 H 17.8983 -2.07298 -3.18954 0
M  V30 220 H 19.2103 -2.5316 -4.29781 0
M  V30 221 H 18.3643 -0.902591 -5.99948 0
M  V30 222 H 17.1033 -0.342692 -4.86495 0
M  V30 223 H 16.1083 -2.64709 -4.81881 0
M  V30 224 H 17.3333 -3.20396 -5.98768 0
M  V30 225 H 15.2793 -1.01484 -6.48103 0
M  V30 226 H 15.1963 -2.63717 -7.08512 0
M  V30 227 H 16.4643 -1.58165 -7.63285 0
M  V30 228 N 20.6934 1.19889 -1.02296 0
M  V30 229 C 21.6414 2.24938 -0.592081 0
M  V30 230 C 22.6354 1.65257 0.372357 0
M  V30 231 O 23.8414 1.78371 0.241583 0
M  V30 232 H 20.2164 0.731787 -0.173182 0
M  V30 233 H 22.1874 2.58603 -1.48885 0
M  V30 234 C 20.9364 3.47668 0.047351 0
M  V30 235 H 20.2594 3.93875 -0.685772 0
M  V30 236 H 21.6994 4.22852 0.311862 0
M  V30 237 C 20.1584 3.11136 1.29212 0
M  V30 238 O 20.6884 3.2325 2.38479 0
M  V30 239 N 18.8944 2.65625 1.17863 0
M  V30 240 H 18.4414 2.55968 0.289493 0
M  V30 241 H 18.3994 2.41553 2.01245 0
M  V30 242 N 22.1715 0.800033 1.35784 0
M  V30 243 C 23.4185 0.377342 1.98953 0
M  V30 244 C 23.7465 -1.05378 1.6348 0
M  V30 245 O 23.0015 -1.74459 0.886707 0
M  V30 246 C 23.3005 0.500276 3.53881 0
M  V30 247 C 22.9665 1.89375 4.09204 0
M  V30 248 C 21.6285 2.27499 4.24025 0
M  V30 249 C 23.9805 2.8057 4.39238 0
M  V30 250 C 21.3085 3.562 4.66195 0
M  V30 251 C 23.6605 4.0871 4.82844 0
M  V30 252 C 22.3245 4.46843 4.95871 0
M  V30 253 H 21.5945 0.138079 0.728021 0
M  V30 254 H 24.2415 1.01955 1.62103 0
M  V30 255 H 22.5465 -0.225405 3.91151 0
M  V30 256 H 24.2435 0.154097 4.00704 0
M  V30 257 H 20.8335 1.58753 3.98115 0
M  V30 258 H 25.0175 2.52367 4.27346 0
M  V30 259 H 20.2735 3.85602 4.74469 0
M  V30 260 H 24.4475 4.79481 5.05046 0
M  V30 261 H 22.0745 5.46623 5.28306 0
M  V30 262 N 23.6496 -1.47581 0.552962 0
M  V30 263 C 24.8986 -2.01684 0.0251995 0
M  V30 264 C 25.2116 -1.43317 -1.33115 0
M  V30 265 O 26.4176 -1.89057 -1.94858 0
M  V30 266 C 24.8736 -3.599 -0.00542052 0
M  V30 267 C 24.4816 -4.27257 1.34742 0
M  V30 268 C 26.2256 -4.21768 -0.4808 0
M  V30 269 C 24.1326 -5.77467 1.27614 0
M  V30 270 H 23.0626 -0.753979 0.00565033 0
M  V30 271 H 25.7136 -1.69616 0.70018 0
M  V30 272 H 24.0956 -3.88911 -0.745961 0
M  V30 273 H 25.2696 -4.09893 2.10534 0
M  V30 274 H 23.5846 -3.77358 1.76039 0
M  V30 275 H 26.1816 -5.31838 -0.55246 0
M  V30 276 H 26.5246 -3.88651 -1.49184 0
M  V30 277 H 27.0576 -3.97273 0.204752 0
M  V30 278 H 23.7966 -6.15196 2.26304 0
M  V30 279 H 23.3166 -5.9718 0.55996 0
M  V30 280 H 24.9956 -6.3959 0.976421 0
M  V30 281 N 25.1277 -0.289203 -1.54924 0
M  V30 282 C 26.0757 0.607966 -2.24514 0
M  V30 283 C 27.0697 1.14655 -1.24702 0
M  V30 284 O 28.2757 1.09856 -1.4259 0
M  V30 285 H 24.6507 0.21464 -0.720718 0
M  V30 286 H 26.6217 -0.00164182 -2.984 0
M  V30 287 C 25.3707 1.77406 -2.99036 0
M  V30 288 H 24.6937 1.36884 -3.75637 0
M  V30 289 H 26.1337 2.37814 -3.51028 0
M  V30 290 C 24.5927 2.67107 -2.05318 0
M  V30 291 O 25.1227 3.6787 -1.61353 0
M  V30 292 N 23.3287 2.34582 -1.71521 0
M  V30 293 H 22.8757 1.52688 -2.07471 0
M  V30 294 H 22.8337 2.94867 -1.0909 0
M  V30 295 N 26.6058 1.57591 -0.0167156 0
M  V30 296 C 27.5538 2.10604 0.987353 0
M  V30 297 C 28.5478 1.02977 1.34507 0
M  V30 298 O 29.7538 1.21425 1.32875 0
M  V30 299 H 26.1288 0.672695 0.336134 0
M  V30 300 H 28.0998 2.93925 0.514817 0
M  V30 301 C 26.8488 2.6382 2.26483 0
M  V30 302 H 26.1718 3.46278 1.99829 0
M  V30 303 H 27.6118 3.04573 2.94977 0
M  V30 304 C 26.0708 1.55992 2.9861 0
M  V30 305 O 26.6008 0.952521 3.90243 0
M  V30 306 N 24.8068 1.28335 2.60727 0
M  V30 307 H 24.3538 1.77914 1.86291 0
M  V30 308 H 24.3118 0.564115 3.09298 0
M  V30 309 N 28.0839 -0.256276 1.55502 0
M  V30 310 C 29.4949 -0.826068 1.67431 0
M  V30 311 C 29.8459 -1.86396 0.612446 0
M  V30 312 O 28.9709 -2.15031 -0.243025 0
M  V30 313 C 29.5659 -1.50512 3.03532 0
M  V30 314 C 28.1249 -2.02273 3.17431 0
M  V30 315 C 27.2719 -0.870548 2.63281 0
M  V30 316 H 30.2229 -0.0322728 1.58667 0
M  V30 317 H 30.2439 -2.37279 2.97454 0
M  V30 318 H 29.7559 -0.749484 3.80794 0
M  V30 319 H 27.8569 -2.80746 2.44974 0
M  V30 320 H 27.9699 -2.22655 4.24219 0
M  V30 321 H 26.3339 -1.26851 2.20864 0
M  V30 322 H 27.1169 -0.128149 3.43061 0
M  V30 323 N 29.562 -1.4872 -0.521534 0
M  V30 324 C 30.492 -1.66771 -1.63431 0
M  V30 325 C 31.473 -0.516499 -1.62069 0
M  V30 326 O 32.658 -0.750013 -1.79132 0
M  V30 327 C 29.788 -1.71515 -3.01993 0
M  V30 328 C 28.742 -2.86222 -3.18216 0
M  V30 329 C 28.068 -2.76061 -4.57924 0
M  V30 330 C 29.368 -4.27419 -3.00184 0
M  V30 331 H 31.062 -2.59932 -1.48579 0
M  V30 332 H 28.608 -1.25089 -0.713358 0
M  V30 333 H 30.561 -1.82731 -3.7972 0
M  V30 334 H 29.285 -0.749393 -3.17886 0
M  V30 335 H 27.944 -2.74575 -2.42908 0
M  V30 336 H 27.592 -1.77437 -4.70665 0
M  V30 337 H 27.292 -3.53037 -4.69722 0
M  V30 338 H 28.816 -2.89256 -5.37739 0
M  V30 339 H 30.23 -4.39855 -3.67697 0
M  V30 340 H 28.627 -5.05458 -3.2347 0
M  V30 341 H 29.697 -4.43293 -1.96518 0
M  V30 342 N 31.0401 0.771051 -1.3745 0
M  V30 343 C 32.0031 1.86598 -1.33093 0
M  V30 344 C 33.0031 1.59076 -0.234845 0
M  V30 345 O 34.1931 1.67145 -0.490732 0
M  V30 346 C 31.3251 3.23747 -1.06773 0
M  V30 347 H 32.5181 1.91873 -2.30488 0
M  V30 348 H 30.0711 0.970876 -1.2249 0
M  V30 349 H 30.8061 3.24148 -0.099129 0
M  V30 350 H 30.5911 3.45115 -1.86112 0
M  V30 351 H 32.0811 4.03824 -1.06377 0
M  V30 352 N 32.5182 1.22032 0.997298 0
M  V30 353 C 33.4502 0.944263 2.08845 0
M  V30 354 C 34.4632 -0.0754663 1.62625 0
M  V30 355 O 35.6522 0.157994 1.77799 0
M  V30 356 C 32.7522 0.397723 3.36558 0
M  V30 357 C 31.9252 1.47362 4.11829 0
M  V30 358 C 30.9842 0.934951 5.17827 0
M  V30 359 O 30.0102 1.62016 5.45655 0
M  V30 360 N 31.2122 -0.245895 5.79979 0
M  V30 361 H 33.9772 1.88363 2.33109 0
M  V30 362 H 31.5382 1.12661 1.16272 0
M  V30 363 H 33.5302 0.0227771 4.04694 0
M  V30 364 H 32.1002 -0.446646 3.09393 0
M  V30 365 H 31.3202 2.02208 3.38386 0
M  V30 366 H 32.6082 2.19764 4.58891 0
M  V30 367 H 32.0062 -0.819475 5.59733 0
M  V30 368 H 30.5632 -0.562272 6.4937 0
M  V30 369 N 33.9963 -1.19345 1.0293 0
M  V30 370 C 34.9593 -2.20793 0.615069 0
M  V30 371 C 35.9593 -1.57553 -0.321533 0
M  V30 372 O 37.1493 -1.73862 -0.108483 0
M  V30 373 C 34.2813 -3.40754 -0.0999222 0
M  V30 374 H 35.4743 -2.58955 1.51269 0
M  V30 375 H 33.0273 -1.3303 0.820534 0
M  V30 376 H 33.7623 -3.0811 -1.01187 0
M  V30 377 H 33.5473 -3.87889 0.57309 0
M  V30 378 H 35.0373 -4.15898 -0.376645 0
M  V30 379 N 35.4744 -0.807222 -1.35358 0
M  V30 380 C 36.7514 -0.311126 -1.9311 0
M  V30 381 C 37.1314 1.19937 -1.73719 0
M  V30 382 O 36.4794 1.99918 -1.10657 0
M  V30 383 C 36.6894 -0.723226 -3.41424 0
M  V30 384 C 38.0374 -0.713078 -4.18569 0
M  V30 385 O 39.0614 -0.664811 -3.49941 0
M  V30 386 O 37.9204 -0.772022 -5.41019 0
M  V30 387 H 35.0144 -0.081526 -0.822972 0
M  V30 388 H 37.5604 -0.890962 -1.4443 0
M  V30 389 H 36.3324 -1.76426 -3.4927 0
M  V30 390 H 35.9554 -0.118232 -3.97424 0
M  V30 391 N 36.9525 1.47285 -0.560781 0
M  V30 392 C 38.1985 2.03347 -0.0463654 0
M  V30 393 C 38.5535 1.42702 1.2905 0
M  V30 394 O 37.8465 0.574619 1.8278 0
M  V30 395 C 38.0405 3.57258 0.100784 0
M  V30 396 C 37.8695 4.32827 -1.22027 0
M  V30 397 C 36.6395 4.72588 -1.78854 0
M  V30 398 C 38.8375 4.67739 -2.13834 0
M  V30 399 N 36.8195 5.32816 -3.04927 0
M  V30 400 C 38.1905 5.28307 -3.24487 0
M  V30 401 C 40.2455 4.49667 -2.13784 0
M  V30 402 C 38.9485 5.72711 -4.35194 0
M  V30 403 C 40.9745 4.95073 -3.23506 0
M  V30 404 C 40.3365 5.55693 -4.32879 0
M  V30 405 H 36.4355 0.779755 -0.0592166 0
M  V30 406 H 39.0195 1.79723 -0.748857 0
M  V30 407 H 37.1905 3.80642 0.772404 0
M  V30 408 H 38.9225 3.9996 0.617589 0
M  V30 409 H 35.6775 4.54656 -1.32609 0
M  V30 410 H 36.1015 5.67471 -3.69197 0
M  V30 411 H 40.7435 4.02154 -1.30507 0
M  V30 412 H 38.4615 6.19214 -5.1923 0
M  V30 413 H 42.0475 4.82859 -3.24559 0
M  V30 414 H 40.9275 5.90188 -5.1638 0
M  V30 415 N 38.4306 0.297415 1.54768 0
M  V30 416 C 39.3936 -0.567375 2.22066 0
M  V30 417 C 40.3936 -1.06409 1.20556 0
M  V30 418 O 41.5836 -0.960691 1.45315 0
M  V30 419 C 38.7156 -1.78517 2.90421 0
M  V30 420 H 39.9086 0.0205534 2.99893 0
M  V30 421 H 37.4616 0.0482163 1.56226 0
M  V30 422 H 38.1966 -2.41303 2.16664 0
M  V30 423 H 37.9816 -1.43669 3.64831 0
M  V30 424 H 39.4716 -2.39964 3.41771 0
M  V30 425 N 39.9087 -1.5758 0.0250728 0
M  V30 426 C 40.8717 -2.08896 -0.943139 0
M  V30 427 C 41.8717 -1.00321 -1.25668 0
M  V30 428 O 43.0617 -1.26495 -1.19769 0
M  V30 429 C 40.1937 -2.55143 -2.26086 0
M  V30 430 H 41.3867 -2.95723 -0.498775 0
M  V30 431 H 38.9397 -1.54703 -0.222888 0
M  V30 432 H 39.6747 -1.71633 -2.75159 0
M  V30 433 H 39.4597 -3.34461 -2.04641 0
M  V30 434 H 40.9497 -2.95083 -2.95492 0
M  V30 435 N 41.3868 0.248026 -1.55636 0
M  V30 436 C 42.3338 1.30707 -1.90222 0
M  V30 437 C 43.3038 1.47881 -0.756332 0
M  V30 438 O 44.4888 1.61883 -1.00988 0
M  V30 439 C 41.6288 2.65769 -2.20138 0
M  V30 440 C 40.7418 2.56612 -3.47526 0
M  V30 441 C 39.8768 3.8402 -3.67017 0
M  V30 442 C 38.9158 3.69476 -4.8801 0
M  V30 443 N 38.0528 4.88774 -5.04029 0
M  V30 444 H 42.8928 1.00512 -2.80538 0
M  V30 445 H 40.4298 0.485055 -1.38873 0
M  V30 446 H 42.3878 3.44386 -2.35487 0
M  V30 447 H 41.0178 2.94115 -1.33027 0
M  V30 448 H 40.0698 1.69571 -3.40514 0
M  V30 449 H 41.3818 2.41774 -4.36287 0
M  V30 450 H 40.5358 4.7108 -3.8232 0
M  V30 451 H 39.2748 4.01754 -2.76487 0
M  V30 452 H 38.2798 2.80799 -4.72686 0
M  V30 453 H 39.5048 3.53238 -5.8 0
M  V30 454 H 37.4508 5.0687 -4.16435 0
M  V30 455 H 37.3678 4.76562 -5.86877 0
M  V30 456 H 38.6358 5.77335 -5.23741 0
M  V30 457 N 42.8649 1.48995 0.513639 0
M  V30 458 C 43.8119 1.6473 1.61656 0
M  V30 459 C 44.7819 0.488984 1.58739 0
M  V30 460 O 45.9669 0.714478 1.76918 0
M  V30 461 C 43.1069 1.7082 2.99858 0
M  V30 462 C 42.2199 2.9787 3.12885 0
M  V30 463 C 41.3549 2.95017 4.41744 0
M  V30 464 C 40.3939 4.16702 4.48359 0
M  V30 465 N 39.5309 4.11832 5.68629 0
M  V30 466 H 44.3709 2.58909 1.47547 0
M  V30 467 H 41.9079 1.28382 0.71808 0
M  V30 468 H 43.8659 1.72331 3.79944 0
M  V30 469 H 42.4959 0.801181 3.12699 0
M  V30 470 H 41.5479 3.06029 2.25944 0
M  V30 471 H 42.8599 3.8786 3.13633 0
M  V30 472 H 42.0139 2.95021 5.30139 0
M  V30 473 H 40.7529 2.02784 4.43542 0
M  V30 474 H 39.7579 4.16955 3.58369 0
M  V30 475 H 40.9829 5.10113 4.48287 0
M  V30 476 H 38.9289 3.22428 5.71293 0
M  V30 477 H 38.8459 4.95543 5.7094 0
M  V30 478 H 40.1139 4.1592 6.59266 0
M  V30 479 N 44.343 -0.763751 1.37857 0
M  V30 480 C 45.273 -1.89103 1.36975 0
M  V30 481 C 46.254 -1.68439 0.237152 0
M  V30 482 O 47.439 -1.8918 0.438713 0
M  V30 483 C 44.569 -3.26496 1.18395 0
M  V30 484 C 43.523 -3.61741 2.28751 0
M  V30 485 C 42.849 -4.97762 1.95286 0
M  V30 486 C 44.149 -3.67665 3.70972 0
M  V30 487 H 45.843 -1.90099 2.31307 0
M  V30 488 H 43.389 -0.91319 1.11341 0
M  V30 489 H 45.342 -4.05003 1.16406 0
M  V30 490 H 44.066 -3.25955 0.205215 0
M  V30 491 H 42.725 -2.85547 2.29909 0
M  V30 492 H 42.373 -4.93769 0.959221 0
M  V30 493 H 42.073 -5.22313 2.69189 0
M  V30 494 H 43.597 -5.7866 1.94898 0
M  V30 495 H 45.011 -4.36307 3.719 0
M  V30 496 H 43.408 -4.03718 4.43995 0
M  V30 497 H 44.478 -2.68134 4.0402 0
M  V30 498 N 45.8211 -1.22559 -0.990812 0
M  V30 499 C 47.0671 -1.05297 -1.73322 0
M  V30 500 C 47.4001 0.410655 -1.89808 0
M  V30 501 O 46.6751 1.30439 -1.44277 0
M  V30 502 C 46.9581 -1.76713 -3.13759 0
M  V30 503 C 46.8111 -3.30684 -3.04907 0
M  V30 504 C 48.1301 -1.52121 -4.12974 0
M  V30 505 H 45.2491 -0.38392 -0.629106 0
M  V30 506 H 47.8911 -1.50926 -1.15418 0
M  V30 507 H 46.0411 -1.37924 -3.63193 0
M  V30 508 H 47.7131 -3.7893 -2.63077 0
M  V30 509 H 45.9561 -3.60253 -2.41661 0
M  V30 510 H 46.6271 -3.75833 -4.04294 0
M  V30 511 H 49.1031 -1.85819 -3.72304 0
M  V30 512 H 47.9791 -2.04582 -5.0935 0
M  V30 513 H 48.2401 -0.454257 -4.3976 0
M  V30 514 N 47.2992 1.18797 -1.03562 0
M  V30 515 C 48.5452 1.89192 -0.746867 0
M  V30 516 C 48.9002 1.78531 0.717245 0
M  V30 517 O 48.1932 1.17137 1.51622 0
M  V30 518 C 48.3872 3.38692 -1.14117 0
M  V30 519 C 48.2162 3.63902 -2.64207 0
M  V30 520 C 46.9862 3.81553 -3.31279 0
M  V30 521 C 49.1842 3.64903 -3.62423 0
M  V30 522 N 47.1662 3.94455 -4.70402 0
M  V30 523 C 48.5372 3.83458 -4.87196 0
M  V30 524 C 50.5922 3.47965 -3.56125 0
M  V30 525 C 49.2952 3.86829 -6.06429 0
M  V30 526 C 51.3212 3.52616 -4.7478 0
M  V30 527 C 50.6832 3.71663 -5.9837 0
M  V30 528 H 46.7822 0.711141 -0.325273 0
M  V30 529 H 49.3662 1.42727 -1.32428 0
M  V30 530 H 47.5372 3.83864 -0.591889 0
M  V30 531 H 49.2692 3.96634 -0.803966 0
M  V30 532 H 46.0242 3.80723 -2.81686 0
M  V30 533 H 46.4482 4.0474 -5.42692 0
M  V30 534 H 51.0902 3.32189 -2.61553 0
M  V30 535 H 48.8082 4.01395 -7.01362 0
M  V30 536 H 52.3942 3.40791 -4.71543 0
M  V30 537 H 51.2742 3.75145 -6.88648 0
M  V30 538 N 48.7773 0.814389 1.34928 0
M  V30 539 C 50.0233 0.399013 1.98836 0
M  V30 540 C 50.3563 -1.03314 1.64438 0
M  V30 541 O 49.6313 -1.71811 0.911659 0
M  V30 542 C 49.9143 0.591629 3.55207 0
M  V30 543 C 49.7673 2.06928 3.99376 0
M  V30 544 C 51.0863 0.022199 4.40094 0
M  V30 545 H 48.2053 0.146451 0.722303 0
M  V30 546 H 50.8473 1.02537 1.59957 0
M  V30 547 H 48.9973 0.0584441 3.88456 0
M  V30 548 H 50.6693 2.66544 3.76499 0
M  V30 549 H 48.9123 2.56287 3.49999 0
M  V30 550 H 49.5833 2.1549 5.08201 0
M  V30 551 H 52.0593 0.477643 4.13349 0
M  V30 552 H 50.9353 0.186832 5.48582 0
M  V30 553 H 51.1963 -1.07215 4.28902 0
M  V30 554 N 50.2554 -1.46986 0.568584 0
M  V30 555 C 51.6664 -1.86188 0.138219 0
M  V30 556 C 52.0174 -1.47388 -1.29504 0
M  V30 557 O 51.1424 -0.88219 -1.97602 0
M  V30 558 C 51.7374 -3.3792 0.244065 0
M  V30 559 C 50.2964 -3.76171 -0.131335 0
M  V30 560 C 49.4434 -2.71027 0.586465 0
M  V30 561 H 52.3944 -1.38342 0.777645 0
M  V30 562 H 52.4154 -3.76729 -0.534351 0
M  V30 563 H 51.9274 -3.66128 1.28731 0
M  V30 564 H 50.0284 -3.5358 -1.17526 0
M  V30 565 H 50.1414 -4.78523 0.235146 0
M  V30 566 H 48.5054 -2.54684 0.0282722 0
M  V30 567 H 49.2884 -3.02077 1.63109 0
M  V30 568 N 51.7335 -0.305618 -1.54608 0
M  V30 569 C 52.9585 0.307562 -2.05107 0
M  V30 570 C 53.3835 1.46385 -1.18123 0
M  V30 571 O 52.7415 1.8034 -0.186324 0
M  V30 572 C 52.7895 0.73704 -3.52987 0
M  V30 573 O 51.8935 1.84134 -3.6901 0
M  V30 574 H 51.2345 0.0589143 -0.661381 0
M  V30 575 H 53.7645 -0.448807 -1.99617 0
M  V30 576 H 53.7745 1.02459 -3.94925 0
M  V30 577 H 52.4495 -0.108773 -4.15758 0
M  V30 578 H 51.0265 1.55398 -3.38978 0
M  V30 579 N 53.2116 1.57565 -0.0334293 0
M  V30 580 C 54.4886 1.83282 0.683163 0
M  V30 581 C 54.8686 0.91823 1.90084 0
M  V30 582 O 54.2166 -0.025113 2.28486 0
M  V30 583 C 54.4266 3.32599 1.0573 0
M  V30 584 C 55.7746 3.99179 1.44711 0
M  V30 585 O 56.7986 3.3712 1.15015 0
M  V30 586 O 55.6576 5.08565 2.0006 0
M  V30 587 H 52.7516 0.755869 0.335546 0
M  V30 588 H 55.2976 1.69589 -0.0614402 0
M  V30 589 H 54.0696 3.90834 0.190828 0
M  V30 590 H 53.6926 3.51415 1.85993 0
M  V30 591 N 54.6897 -0.239769 1.55765 0
M  V30 592 C 55.6367 -1.29696 1.90913 0
M  V30 593 C 56.6067 -1.47478 0.764164 0
M  V30 594 O 57.7917 -1.61345 1.01845 0
M  V30 595 C 54.9317 -2.64598 2.21544 0
M  V30 596 C 54.0447 -2.54765 3.48882 0
M  V30 597 C 53.1797 -3.82069 3.69049 0
M  V30 598 C 52.2187 -3.66883 4.89963 0
M  V30 599 N 51.3557 -4.86094 5.06614 0
M  V30 600 H 56.1957 -0.990224 2.81067 0
M  V30 601 H 53.7327 -0.477684 1.39128 0
M  V30 602 H 55.6907 -3.43132 2.3731 0
M  V30 603 H 54.3207 -2.93405 1.34585 0
M  V30 604 H 53.3727 -1.67763 3.41409 0
M  V30 605 H 54.6847 -2.39457 4.37563 0
M  V30 606 H 53.8387 -4.69046 3.84812 0
M  V30 607 H 52.5777 -4.00282 2.78614 0
M  V30 608 H 51.5827 -2.78289 4.74168 0
M  V30 609 H 52.8077 -3.50157 5.81865 0
M  V30 610 H 50.7537 -5.04655 4.19117 0
M  V30 611 H 50.6707 -4.73443 5.89396 0
M  V30 612 H 51.9387 -5.74549 5.26795 0
M  V30 613 N 56.1678 -1.49265 -0.50573 0
M  V30 614 C 57.3928 -1.62478 -1.28902 0
M  V30 615 C 57.8178 -0.294332 -1.85783 0
M  V30 616 O 57.1758 0.737412 -1.65626 0
M  V30 617 C 57.2238 -2.69268 -2.39848 0
M  V30 618 O 56.3278 -2.28113 -3.43567 0
M  V30 619 H 55.6688 -0.54399 -0.380751 0
M  V30 620 H 58.1988 -1.95421 -0.605952 0
M  V30 621 H 58.2088 -2.91291 -2.85681 0
M  V30 622 H 56.8838 -3.65846 -1.97812 0
M  V30 623 H 55.4608 -2.16401 -3.03685 0
M  V30 624 N 57.6459 0.756429 -1.3826 0
M  V30 625 C 58.8939 1.51248 -1.34047 0
M  V30 626 C 59.2149 1.94875 0.0698372 0
M  V30 627 O 58.4849 1.67436 1.01696 0
M  V30 628 H 57.0649 0.561018 -0.493222 0
M  V30 629 H 59.7269 0.899347 -1.7291 0
M  V30 630 H 58.8229 2.40472 -1.98947 0
M  V30 631 N 59.124 1.23083 0.984299 0
M  V30 632 C 60.371 1.06057 1.72505 0
M  V30 633 C 60.699 -0.403105 1.90277 0
M  V30 634 O 59.954 -1.3149 1.44944 0
M  V30 635 C 60.253 1.72673 3.1292 0
M  V30 636 C 59.919 3.22586 3.15038 0
M  V30 637 C 58.581 3.63489 3.15324 0
M  V30 638 C 60.933 4.185 3.10657 0
M  V30 639 C 58.261 4.98772 3.08939 0
M  V30 640 C 60.613 5.53769 3.05814 0
M  V30 641 C 59.277 5.94041 3.04419 0
M  V30 642 H 58.547 0.388091 0.631242 0
M  V30 643 H 61.194 1.52963 1.15215 0
M  V30 644 H 59.499 1.18116 3.73572 0
M  V30 645 H 61.196 1.56982 3.68996 0
M  V30 646 H 57.786 2.90022 3.15571 0
M  V30 647 H 61.97 3.87911 3.09579 0
M  V30 648 H 57.226 5.29193 3.0621 0
M  V30 649 H 61.4 6.27808 3.0138 0
M  V30 650 H 59.027 6.98833 2.99227 0
M  V30 651 N 60.6021 -1.18246 1.0419 0
M  V30 652 C 61.5121 -2.25574 0.644476 0
M  V30 653 C 62.5281 -1.70845 -0.329826 0
M  V30 654 O 63.7041 -2.00554 -0.184443 0
M  V30 655 C 60.7691 -3.46697 0.014877 0
M  V30 656 C 59.8301 -4.16554 1.03834 0
M  V30 657 C 59.0631 -5.31894 0.438692 0
M  V30 658 O 59.2861 -5.65385 -0.754752 0
M  V30 659 O 58.2201 -5.90459 1.168 0
M  V30 660 H 62.0461 -2.61836 1.53869 0
M  V30 661 H 59.6311 -1.25352 0.812854 0
M  V30 662 H 61.5131 -4.20062 -0.335538 0
M  V30 663 H 60.1881 -3.12255 -0.853138 0
M  V30 664 H 59.0951 -3.45251 1.44057 0
M  V30 665 H 60.4281 -4.54998 1.87716 0
M  V30 666 N 62.0802 -0.821533 -1.34494 0
M  V30 667 C 63.4912 -0.467956 -1.8074 0
M  V30 668 C 63.8422 1.01151 -1.68116 0
M  V30 669 O 62.9672 1.78707 -1.22036 0
M  V30 670 C 63.5622 -0.842627 -3.28154 0
M  V30 671 C 62.1212 -0.541439 -3.72485 0
M  V30 672 C 61.2682 -1.06028 -2.56229 0
M  V30 673 H 64.2192 -1.01183 -1.22261 0
M  V30 674 H 64.2402 -0.145876 -3.8022 0
M  V30 675 H 63.7522 -1.91945 -3.37311 0
M  V30 676 H 61.8532 0.526034 -3.68868 0
M  V30 677 H 61.9662 -1.08453 -4.66663 0
M  V30 678 H 60.3302 -0.481892 -2.501 0
M  V30 679 H 61.1132 -2.14352 -2.68157 0
M  V30 680 N 63.5583 1.46682 -0.576371 0
M  V30 681 C 64.5213 2.28707 0.150239 0
M  V30 682 C 65.5213 1.38035 0.824794 0
M  V30 683 O 66.7113 1.60476 0.677719 0
M  V30 684 C 63.8433 3.18248 1.22192 0
M  V30 685 H 65.0363 2.94423 -0.570521 0
M  V30 686 H 62.5893 1.52688 -0.334078 0
M  V30 687 H 63.3243 2.57265 1.97447 0
M  V30 688 H 63.1093 3.85 0.742812 0
M  V30 689 H 64.5993 3.80001 1.73172 0
M  V30 690 N 65.0364 0.313813 1.54444 0
M  V30 691 C 66.2614 -0.296681 2.05267 0
M  V30 692 C 66.6864 -1.45757 1.18897 0
M  V30 693 O 66.0444 -1.80239 0.195886 0
M  V30 694 C 66.0924 -0.71831 3.53373 0
M  V30 695 O 65.1964 -1.82175 3.69981 0
M  V30 696 H 64.5374 -0.0554061 0.661684 0
M  V30 697 H 67.0674 0.459387 1.99376 0
M  V30 698 H 67.0774 -1.00364 3.95463 0
M  V30 699 H 65.7524 0.130821 4.15694 0
M  V30 700 H 64.3294 -1.53598 3.39797 0
M  V30 701 N 66.5145 -1.57545 0.0417849 0
M  V30 702 C 67.4445 -2.14009 -0.933929 0
M  V30 703 C 68.4255 -1.05938 -1.33083 0
M  V30 704 O 69.6105 -1.33833 -1.40721 0
M  V30 705 C 66.7405 -2.67747 -2.21199 0
M  V30 706 C 65.6945 -3.80718 -1.95544 0
M  V30 707 C 65.0205 -4.20935 -3.29724 0
M  V30 708 C 66.3205 -5.06258 -1.28452 0
M  V30 709 H 68.0145 -2.95788 -0.463645 0
M  V30 710 H 65.5605 -1.42285 -0.221573 0
M  V30 711 H 67.5135 -3.05886 -2.89848 0
M  V30 712 H 66.2375 -1.83147 -2.70416 0
M  V30 713 H 64.8965 -3.43037 -1.2931 0
M  V30 714 H 64.5445 -3.33298 -3.76724 0
M  V30 715 H 64.2445 -4.9707 -3.13361 0
M  V30 716 H 65.7685 -4.61666 -3.9962 0
M  V30 717 H 67.1825 -5.41903 -1.8712 0
M  V30 718 H 65.5795 -5.87475 -1.22445 0
M  V30 719 H 66.6495 -4.84207 -0.259219 0
M  V30 720 N 67.9926 0.231505 -1.5589 0
M  V30 721 C 68.9396 1.28682 -1.91598 0
M  V30 722 C 69.9096 1.47071 -0.771974 0
M  V30 723 O 71.0946 1.60802 -1.027 0
M  V30 724 C 68.2346 2.6342 -2.22944 0
M  V30 725 C 67.3476 2.52912 -3.50228 0
M  V30 726 C 66.4826 3.80106 -3.7107 0
M  V30 727 C 65.5216 3.64279 -4.91902 0
M  V30 728 N 64.6586 4.834 -5.09184 0
M  V30 729 H 69.4986 0.975305 -2.81588 0
M  V30 730 H 67.0356 0.470299 -1.39379 0
M  V30 731 H 68.9936 3.41869 -2.39126 0
M  V30 732 H 67.6236 2.92687 -1.36139 0
M  V30 733 H 66.6756 1.6595 -3.42294 0
M  V30 734 H 67.9876 2.37133 -4.38827 0
M  V30 735 H 67.1416 4.66999 -3.87295 0
M  V30 736 H 65.8806 3.98799 -2.80733 0
M  V30 737 H 64.8856 2.7577 -4.75637 0
M  V30 738 H 66.1106 3.47067 -5.83714 0
M  V30 739 H 64.0566 5.02425 -4.21788 0
M  V30 740 H 63.9736 4.70311 -5.91898 0
M  V30 741 H 65.2416 5.71747 -5.29835 0
M  V30 742 N 69.4707 1.49531 0.497807 0
M  V30 743 C 70.3807 1.69176 1.62532 0
M  V30 744 C 71.3967 0.5744 1.64246 0
M  V30 745 O 72.5727 0.849497 1.82608 0
M  V30 746 C 69.6377 1.75695 2.98885 0
M  V30 747 C 68.6987 2.9929 3.07773 0
M  V30 748 C 67.9317 3.05488 4.37622 0
M  V30 749 O 68.1547 2.19192 5.26603 0
M  V30 750 O 67.0887 3.9798 4.51548 0
M  V30 751 H 70.9147 2.647 1.48887 0
M  V30 752 H 68.4997 1.3331 0.674441 0
M  V30 753 H 70.3817 1.82317 3.79919 0
M  V30 754 H 69.0567 0.8335 3.12785 0
M  V30 755 H 67.9637 2.98183 2.25915 0
M  V30 756 H 69.2967 3.91125 2.98801 0
M  V30 757 N 70.9488 -0.749086 1.3866 0
M  V30 758 C 71.8588 -1.89358 1.38494 0
M  V30 759 C 72.8748 -1.71708 0.281476 0
M  V30 760 O 74.0508 -1.94554 0.520643 0
M  V30 761 C 71.1158 -3.24782 1.21316 0
M  V30 762 C 70.1768 -3.54926 2.41508 0
M  V30 763 C 69.4098 -4.83888 2.2514 0
M  V30 764 O 69.6328 -5.56592 1.24746 0
M  V30 765 O 68.5668 -5.13612 3.13826 0
M  V30 766 H 72.3928 -1.92452 2.34938 0
M  V30 767 H 69.9778 -0.894981 1.19626 0
M  V30 768 H 71.8598 -4.05739 1.13814 0
M  V30 769 H 70.5348 -3.2249 0.279592 0
M  V30 770 H 69.4418 -2.74112 2.54585 0
M  V30 771 H 70.7748 -3.61983 3.3351 0
M  V30 772 N 72.4269 -1.23603 -0.977757 0
M  V30 773 C 73.6729 -1.07129 -1.72195 0
M  V30 774 C 74.0059 0.390501 -1.90233 0
M  V30 775 O 73.2809 1.28902 -1.45653 0
M  V30 776 C 73.5639 -1.80031 -3.11867 0
M  V30 777 C 73.4169 -3.33899 -3.01383 0
M  V30 778 C 74.7359 -1.56492 -4.11337 0
M  V30 779 H 71.8549 -0.390571 -0.624999 0
M  V30 780 H 74.4969 -1.52142 -1.13811 0
M  V30 781 H 72.6469 -1.41768 -3.6171 0
M  V30 782 H 74.3189 -3.81699 -2.59043 0
M  V30 783 H 72.5619 -3.62796 -2.37827 0
M  V30 784 H 73.2329 -3.801 -4.00285 0
M  V30 785 H 75.7089 -1.89757 -3.70313 0
M  V30 786 H 74.5849 -2.09973 -5.07151 0
M  V30 787 H 74.8459 -0.500874 -4.39254 0
M  V30 788 N 73.905 1.17692 -1.04816 0
M  V30 789 C 75.153 1.87488 -0.754497 0
M  V30 790 C 75.474 1.81205 0.720407 0
M  V30 791 O 74.744 1.23544 1.52032 0
M  V30 792 H 73.324 0.694101 -0.276102 0
M  V30 793 H 75.986 1.42793 -1.32651 0
M  V30 794 H 75.082 2.93328 -1.06606 0
M  V30 795 N 75.3831 0.828654 1.34056 0
M  V30 796 C 76.2931 0.256725 2.33191 0
M  V30 797 C 77.3091 -0.611898 1.62886 0
M  V30 798 O 78.4851 -0.51844 1.94613 0
M  V30 799 C 75.5501 -0.567238 3.42028 0
M  V30 800 C 74.6111 0.324458 4.28072 0
M  V30 801 C 73.8441 -0.460274 5.31712 0
M  V30 802 O 74.0671 -1.693 5.44696 0
M  V30 803 O 73.0011 0.160391 6.01686 0
M  V30 804 H 76.8271 1.07739 2.83947 0
M  V30 805 H 74.4121 0.59093 1.37217 0
M  V30 806 H 76.2941 -1.03582 4.08471 0
M  V30 807 H 74.9691 -1.36513 2.93506 0
M  V30 808 H 73.8761 0.840659 3.64532 0
M  V30 809 H 75.2091 1.08685 4.8005 0
M  V30 810 N 76.8612 -1.46375 0.584142 0
M  V30 811 C 77.7712 -2.34115 -0.150728 0
M  V30 812 C 78.7872 -1.49838 -0.884567 0
M  V30 813 O 79.9632 -1.82704 -0.847429 0
M  V30 814 C 77.0282 -3.2705 -1.15062 0
M  V30 815 C 76.0892 -4.27228 -0.421293 0
M  V30 816 C 75.3222 -5.15722 -1.37355 0
M  V30 817 O 75.5452 -5.07176 -2.61014 0
M  V30 818 O 74.4792 -5.95383 -0.883355 0
M  V30 819 H 78.3052 -2.98309 0.569708 0
M  V30 820 H 75.8902 -1.45373 0.344535 0
M  V30 821 H 77.7722 -3.84381 -1.72712 0
M  V30 822 H 76.4472 -2.65451 -1.8525 0
M  V30 823 H 75.3542 -3.7358 0.197085 0
M  V30 824 H 76.6872 -4.91616 0.239641 0
M  V30 825 N 78.3393 -0.321999 -1.54275 0
M  V30 826 C 79.3023 0.531975 -2.22941 0
M  V30 827 C 80.3023 1.04478 -1.22234 0
M  V30 828 O 81.4923 0.937452 -1.46825 0
M  V30 829 C 78.6243 1.73874 -2.93224 0
M  V30 830 H 79.8173 -0.0682612 -2.99822 0
M  V30 831 H 77.3703 -0.0730644 -1.56129 0
M  V30 832 H 78.1053 2.37825 -2.20476 0
M  V30 833 H 77.8903 1.37847 -3.6707 0
M  V30 834 H 79.3803 2.34496 -3.45545 0
M  V30 835 N 79.8174 1.5752 -0.0501392 0
M  V30 836 C 81.0664 1.91827 0.623328 0
M  V30 837 C 81.3794 0.930222 1.72065 0
M  V30 838 O 82.5854 1.1653 2.4522 0
M  V30 839 C 81.0414 3.40692 1.16003 0
M  V30 840 C 80.6494 4.479 0.0948811 0
M  V30 841 C 82.3934 3.84034 1.80881 0
M  V30 842 C 80.3004 5.87879 0.644411 0
M  V30 843 H 79.2304 0.715918 0.236596 0
M  V30 844 H 81.8814 1.83115 -0.118861 0
M  V30 845 H 80.2634 3.44405 1.9545 0
M  V30 846 H 81.4374 4.55775 -0.678675 0
M  V30 847 H 79.7524 4.13892 -0.45637 0
M  V30 848 H 82.3494 4.85984 2.22988 0
M  V30 849 H 82.6924 3.20225 2.6601 0
M  V30 850 H 83.2254 3.82833 1.0809 0
M  V30 851 H 79.9644 6.55282 -0.169229 0
M  V30 852 H 79.4844 5.83567 1.38598 0
M  V30 853 H 81.1634 6.37098 1.12763 0
M  V30 854 N 81.2955 -0.223234 1.56011 0
M  V30 855 C 82.5415 -0.949279 1.79211 0
M  V30 856 C 82.8745 -1.84054 0.619494 0
M  V30 857 O 82.1495 -1.90726 -0.381317 0
M  V30 858 C 82.4325 -1.78965 3.12479 0
M  V30 859 C 82.2855 -0.924997 4.40186 0
M  V30 860 C 83.6045 -2.76774 3.42175 0
M  V30 861 H 80.7235 -0.343676 0.651963 0
M  V30 862 H 83.3655 -0.218253 1.88742 0
M  V30 863 H 81.5155 -2.41291 3.04485 0
M  V30 864 H 83.1875 -0.318615 4.60198 0
M  V30 865 H 81.4305 -0.230344 4.33188 0
M  V30 866 H 82.1015 -1.54735 5.29869 0
M  V30 867 H 84.5775 -2.24584 3.50287 0
M  V30 868 H 83.4535 -3.32678 4.36597 0
M  V30 869 H 83.7145 -3.54429 2.64258 0
M  V30 870 N 82.7736 -1.49793 -0.48987 0
M  V30 871 C 83.6836 -1.70036 -1.61632 0
M  V30 872 C 84.6996 -0.583102 -1.63939 0
M  V30 873 O 85.8756 -0.859169 -1.82154 0
M  V30 874 C 82.9406 -1.77277 -2.97949 0
M  V30 875 C 82.0016 -3.00918 -3.06181 0
M  V30 876 C 81.2346 -3.07804 -4.35996 0
M  V30 877 O 81.4576 -2.21982 -5.25433 0
M  V30 878 O 80.3916 -4.00369 -4.49431 0
M  V30 879 H 84.2176 -2.65486 -1.47482 0
M  V30 880 H 81.8026 -1.33666 -0.667362 0
M  V30 881 H 83.6846 -1.84329 -3.78947 0
M  V30 882 H 82.3596 -0.850076 -3.12339 0
M  V30 883 H 81.2666 -2.99377 -2.2433 0
M  V30 884 H 82.5996 -3.92704 -2.96723 0
M  V30 885 N 84.2517 0.741722 -1.39055 0
M  V30 886 C 85.1817 1.869 -1.39966 0
M  V30 887 C 86.1627 1.6804 -0.26392 0
M  V30 888 O 87.3477 1.88458 -0.468755 0
M  V30 889 C 84.4777 3.24572 -1.23574 0
M  V30 890 C 83.4317 3.58056 -2.34477 0
M  V30 891 C 82.7577 4.94593 -2.0318 0
M  V30 892 C 84.0577 3.61716 -3.76774 0
M  V30 893 H 85.7517 1.86395 -2.34302 0
M  V30 894 H 83.2977 0.895361 -1.1278 0
M  V30 895 H 85.2507 4.031 -1.22834 0
M  V30 896 H 83.9747 3.25587 -0.257045 0
M  V30 897 H 82.6337 2.81854 -2.34423 0
M  V30 898 H 82.2817 4.92181 -1.03765 0
M  V30 899 H 81.9817 5.17964 -2.77465 0
M  V30 900 H 83.5057 5.75486 -2.04079 0
M  V30 901 H 84.9197 4.30335 -3.78794 0
M  V30 902 H 83.3167 3.96603 -4.50362 0
M  V30 903 H 84.3867 2.61672 -4.08235 0
M  V30 904 N 85.7298 1.2412 0.971189 0
M  V30 905 C 86.9758 1.08041 1.71625 0
M  V30 906 C 87.3088 -0.380407 1.90438 0
M  V30 907 O 86.5838 -1.28127 1.46334 0
M  V30 908 C 86.8668 1.81682 3.10908 0
M  V30 909 C 86.7198 3.35493 2.99608 0
M  V30 910 C 88.0388 1.58671 4.10501 0
M  V30 911 H 85.1578 0.39388 0.622919 0
M  V30 912 H 87.7998 1.52743 1.13003 0
M  V30 913 H 85.9498 1.43684 3.60953 0
M  V30 914 H 87.6218 3.83068 2.57015 0
M  V30 915 H 85.8648 3.64052 2.35899 0
M  V30 916 H 86.5358 3.82217 3.98264 0
M  V30 917 H 89.0118 1.91719 3.69301 0
M  V30 918 H 87.8878 2.1266 5.06031 0
M  V30 919 H 88.1488 0.524161 4.38982 0
M  V30 920 N 87.2079 -1.17134 1.05439 0
M  V30 921 C 88.1179 -2.24878 0.668365 0
M  V30 922 C 89.1339 -1.71186 -0.311687 0
M  V30 923 O 90.3099 -2.00738 -0.163161 0
M  V30 924 C 87.3749 -3.46662 0.051648 0
M  V30 925 C 86.4359 -4.15429 1.08246 0
M  V30 926 C 85.6689 -5.31399 0.495082 0
M  V30 927 O 85.8919 -5.66153 -0.694743 0
M  V30 928 O 84.8259 -5.89187 1.23056 0
M  V30 929 H 88.6519 -2.60189 1.56637 0
M  V30 930 H 86.2369 -1.24482 0.826104 0
M  V30 931 H 88.1189 -4.20394 -0.290966 0
M  V30 932 H 86.7939 -3.13142 -0.819971 0
M  V30 933 H 85.7009 -3.43704 1.47711 0
M  V30 934 H 87.0339 -4.52982 1.92532 0
M  V30 935 N 88.686 -0.835752 -1.33615 0
M  V30 936 C 89.634 -0.255238 -2.31195 0
M  V30 937 C 90.628 0.61107 -1.57995 0
M  V30 938 O 91.834 0.500979 -1.72888 0
M  V30 939 H 88.209 -0.0638085 -0.749288 0
M  V30 940 H 90.18 -1.09283 -2.77669 0
M  V30 941 C 88.929 0.55754 -3.43201 0
M  V30 942 H 88.252 -0.0997553 -3.99676 0
M  V30 943 H 89.692 0.929622 -4.13683 0
M  V30 944 C 88.151 1.73515 -2.88781 0
M  V30 945 O 88.681 2.83376 -2.84712 0
M  V30 946 N 86.887 1.55603 -2.4543 0
M  V30 947 H 86.434 0.662354 -2.48939 0
M  V30 948 H 86.392 2.34545 -2.09371 0
M  V30 949 N 90.1641 1.46063 -0.591896 0
M  V30 950 C 91.4121 2.01938 -0.0808391 0
M  V30 951 C 91.7331 1.46475 1.28725 0
M  V30 952 O 91.0031 0.652944 1.84698 0
M  V30 953 H 89.5831 0.746516 -0.0268938 0
M  V30 954 H 92.2451 1.79055 -0.769752 0
M  V30 955 H 91.3411 3.12094 -0.0187578 0
M  V30 956 N 91.6422 0.330177 1.54103 0
M  V30 957 C 92.5892 -0.532762 2.24567 0
M  V30 958 C 93.5592 -1.10635 1.23892 0
M  V30 959 O 94.7442 -1.14546 1.5259 0
M  V30 960 C 91.8842 -1.6845 3.01195 0
M  V30 961 C 90.9972 -1.13951 4.167 0
M  V30 962 C 90.1322 -2.25746 4.80845 0
M  V30 963 C 89.1712 -1.6853 5.88442 0
M  V30 964 N 88.3082 -2.74014 6.46421 0
M  V30 965 H 93.1482 0.0746905 2.97906 0
M  V30 966 H 90.6852 0.048632 1.4702 0
M  V30 967 H 92.6432 -2.36234 3.43874 0
M  V30 968 H 91.2732 -2.26314 2.30178 0
M  V30 969 H 90.3252 -0.35301 3.78758 0
M  V30 970 H 91.6372 -0.680892 4.94131 0
M  V30 971 H 90.7912 -3.01422 5.26526 0
M  V30 972 H 89.5302 -2.74947 4.0281 0
M  V30 973 H 88.5352 -0.913543 5.42157 0
M  V30 974 H 89.7602 -1.20198 6.68378 0
M  V30 975 H 87.7062 -3.22494 5.71256 0
M  V30 976 H 87.6232 -2.32735 7.19285 0
M  V30 977 H 88.8912 -3.49499 6.96757 0
M  V30 978 N 93.1203 -1.57491 0.0584922 0
M  V30 979 C 94.0673 -2.11958 -0.913376 0
M  V30 980 C 95.0373 -1.02875 -1.30407 0
M  V30 981 O 96.2223 -1.30464 -1.39226 0
M  V30 982 C 93.3623 -2.67497 -2.18035 0
M  V30 983 C 92.4753 -3.90691 -1.84349 0
M  V30 984 C 91.6103 -4.3452 -3.05559 0
M  V30 985 C 90.6493 -5.50395 -2.67827 0
M  V30 986 N 89.7863 -5.89244 -3.81754 0
M  V30 987 H 94.6263 -2.94704 -0.442017 0
M  V30 988 H 92.1633 -1.45643 -0.206545 0
M  V30 989 H 94.1213 -2.978 -2.92183 0
M  V30 990 H 92.7513 -1.87537 -2.62735 0
M  V30 991 H 91.8033 -3.66934 -1.00319 0
M  V30 992 H 93.1153 -4.7489 -1.5258 0
M  V30 993 H 92.2693 -4.66414 -3.87998 0
M  V30 994 H 91.0083 -3.49147 -3.40511 0
M  V30 995 H 90.0133 -5.18165 -1.83806 0
M  V30 996 H 91.2383 -6.3749 -2.34059 0
M  V30 997 H 89.1843 -5.06823 -4.16493 0
M  V30 998 H 89.1013 -6.68151 -3.53708 0
M  V30 999 H 90.3693 -6.25756 -4.64811 0
M  V30 1000 N 94.5984 0.214957 -1.56127 0
M  V30 1001 C 95.8444 0.939762 -1.79712 0
M  V30 1002 C 96.1774 1.83723 -0.629247 0
M  V30 1003 O 95.4524 1.90925 0.371197 0
M  V30 1004 C 95.7354 1.77306 -3.13424 0
M  V30 1005 C 95.5884 0.90164 -4.40671 0
M  V30 1006 C 96.9074 2.74956 -3.43638 0
M  V30 1007 H 94.0264 0.340214 -0.653776 0
M  V30 1008 H 96.6684 0.20824 -1.88855 0
M  V30 1009 H 94.8184 2.39673 -3.0576 0
M  V30 1010 H 96.4904 0.294206 -4.60361 0
M  V30 1011 H 94.7334 0.207368 -4.33304 0
M  V30 1012 H 95.4044 1.51923 -5.30682 0
M  V30 1013 H 97.8804 2.22724 -3.51473 0
M  V30 1014 H 96.7564 3.30358 -4.38355 0
M  V30 1015 H 97.0174 3.53023 -2.66134 0
M  V30 1016 N 96.0765 1.50051 0.48192 0
M  V30 1017 C 97.0235 1.68122 1.58125 0
M  V30 1018 C 97.9935 0.522545 1.57666 0
M  V30 1019 O 99.1785 0.751844 1.75362 0
M  V30 1020 C 96.3185 1.77142 2.96167 0
M  V30 1021 C 95.4315 3.0444 3.06497 0
M  V30 1022 C 94.5665 3.04321 4.35387 0
M  V30 1023 C 93.6055 4.26118 4.3942 0
M  V30 1024 N 92.7425 4.238 5.59766 0
M  V30 1025 H 97.5825 2.6198 1.42022 0
M  V30 1026 H 95.1195 1.29877 0.690687 0
M  V30 1027 H 97.0775 1.80352 3.76203 0
M  V30 1028 H 95.7075 0.867329 3.1093 0
M  V30 1029 H 94.7595 3.10752 2.19402 0
M  V30 1030 H 96.0715 3.94426 3.05336 0
M  V30 1031 H 95.2255 3.062 5.23762 0
M  V30 1032 H 93.9645 2.12147 4.39141 0
M  V30 1033 H 92.9695 4.24463 3.49444 0
M  V30 1034 H 94.1945 5.19507 4.37366 0
M  V30 1035 H 92.1405 3.34474 5.64326 0
M  V30 1036 H 92.0575 5.07542 5.60301 0
M  V30 1037 H 93.3255 4.2981 6.50295 0
M  V30 1038 N 97.5546 -0.734337 1.39446 0
M  V30 1039 C 98.8006 -1.49613 1.36908 0
M  V30 1040 C 99.1336 -1.94169 -0.0347829 0
M  V30 1041 O 98.4086 -1.66833 -0.999847 0
M  V30 1042 C 98.6916 -2.73534 2.34203 0
M  V30 1043 C 98.5446 -2.34993 3.83534 0
M  V30 1044 C 99.8636 -3.75635 2.29317 0
M  V30 1045 H 96.9826 -0.542714 0.498629 0
M  V30 1046 H 99.6246 -0.839597 1.70443 0
M  V30 1047 H 97.7746 -3.29553 2.05736 0
M  V30 1048 H 99.4466 -1.84601 4.22753 0
M  V30 1049 H 97.6896 -1.67213 4.00278 0
M  V30 1050 H 98.3606 -3.23738 4.47099 0
M  V30 1051 H 100.837 -3.29203 2.54489 0
M  V30 1052 H 99.7126 -4.60008 2.99472 0
M  V30 1053 H 99.9736 -4.22603 1.29842 0
M  V30 1054 N 99.0327 -1.24633 -0.964593 0
M  V30 1055 C 99.9807 -1.03917 -2.08096 0
M  V30 1056 C 100.975 0.0268581 -1.69379 0
M  V30 1057 O 102.181 -0.127952 -1.79545 0
M  V30 1058 H 98.5557 -0.319044 -0.680966 0
M  V30 1059 H 100.527 -1.98581 -2.22729 0
M  V30 1060 C 99.2757 -0.663983 -3.41301 0
M  V30 1061 H 98.5987 -1.47605 -3.71555 0
M  V30 1062 H 100.039 -0.558663 -4.20303 0
M  V30 1063 C 98.4977 0.629169 -3.30973 0
M  V30 1064 O 99.0277 1.67404 -3.65156 0
M  V30 1065 N 97.2337 0.611057 -2.84103 0
M  V30 1066 H 96.7807 -0.239593 -2.56483 0
M  V30 1067 H 96.7387 1.47647 -2.77575 0
M  V30 1068 N 100.511 1.16574 -1.06058 0
M  V30 1069 C 101.458 2.20883 -0.669263 0
M  V30 1070 C 102.428 1.62729 0.332918 0
M  V30 1071 O 103.613 1.895 0.222346 0
M  V30 1072 C 100.753 3.45049 -0.0593572 0
M  V30 1073 C 99.8658 4.17458 -1.11143 0
M  V30 1074 C 99.0008 5.29135 -0.467916 0
M  V30 1075 C 98.0398 5.93343 -1.50369 0
M  V30 1076 N 97.1768 6.96516 -0.883706 0
M  V30 1077 H 102.017 2.53709 -1.5632 0
M  V30 1078 H 99.5538 1.24616 -0.781625 0
M  V30 1079 H 101.512 4.16033 0.311771 0
M  V30 1080 H 100.142 3.12781 0.797992 0
M  V30 1081 H 99.1938 3.45101 -1.60029 0
M  V30 1082 H 100.506 4.61307 -1.89731 0
M  V30 1083 H 99.6598 6.06684 -0.0436871 0
M  V30 1084 H 98.3988 4.86443 0.349864 0
M  V30 1085 H 97.4038 5.14517 -1.93784 0
M  V30 1086 H 98.6288 6.38114 -2.32352 0
M  V30 1087 H 96.5748 6.55943 -0.086595 0
M  V30 1088 H 96.4918 7.38723 -1.607 0
M  V30 1089 H 97.7598 7.77993 -0.484543 0
M  V30 1090 N 101.989 0.842826 1.3317 0
M  V30 1091 C 103.266 0.362216 1.92217 0
M  V30 1092 C 103.646 -1.15289 1.76838 0
M  V30 1093 O 102.994 -1.96914 1.15919 0
M  V30 1094 C 103.204 0.813495 3.39387 0
M  V30 1095 C 104.552 0.823804 4.16532 0
M  V30 1096 O 105.576 0.757358 3.48055 0
M  V30 1097 O 104.435 0.915193 5.38782 0
M  V30 1098 H 101.529 0.103317 0.820521 0
M  V30 1099 H 104.075 0.928942 1.42017 0
M  V30 1100 H 102.847 1.85624 3.4447 0
M  V30 1101 H 102.47 0.223561 3.96971 0
M  V30 1102 N 103.467 -1.45747 0.599634 0
M  V30 1103 C 104.744 -1.95585 0.0240846 0
M  V30 1104 C 105.124 -1.54217 -1.44154 0
M  V30 1105 O 104.472 -0.800903 -2.14004 0
M  V30 1106 C 104.682 -3.48344 0.21385 0
M  V30 1107 C 106.03 -4.24504 0.0904902 0
M  V30 1108 O 107.054 -3.55911 0.143558 0
M  V30 1109 O 105.913 -5.46491 -0.0310766 0
M  V30 1110 H 103.007 -0.82602 -0.0402478 0
M  V30 1111 H 105.553 -1.55951 0.669139 0
M  V30 1112 H 104.325 -3.71397 1.23206 0
M  V30 1113 H 103.948 -3.9485 -0.466842 0
M  V30 1114 N 104.945 -0.338344 -1.53925 0
M  V30 1115 C 106.194 0.260732 -2.00008 0
M  V30 1116 C 106.507 1.52073 -1.23017 0
M  V30 1117 O 107.713 2.19672 -1.5955 0
M  V30 1118 C 106.169 0.51515 -3.56194 0
M  V30 1119 C 105.777 -0.728645 -4.42035 0
M  V30 1120 C 107.521 1.07337 -4.10706 0
M  V30 1121 C 105.428 -0.445315 -5.89721 0
M  V30 1122 H 104.358 0.101205 -0.747177 0
M  V30 1123 H 107.009 -0.452866 -1.77824 0
M  V30 1124 H 105.391 1.28932 -3.74423 0
M  V30 1125 H 106.565 -1.50352 -4.35581 0
M  V30 1126 H 104.88 -1.20813 -3.98489 0
M  V30 1127 H 107.477 1.30022 -5.18651 0
M  V30 1128 H 107.82 2.0273 -3.63602 0
M  V30 1129 H 108.353 0.360034 -3.96167 0
M  V30 1130 H 105.092 -1.36883 -6.41049 0
M  V30 1131 H 104.612 0.291569 -5.99091 0
M  V30 1132 H 106.291 -0.0606218 -6.46972 0
M  V30 1133 N 106.423 1.57458 -0.0668435 0
M  V30 1134 C 107.355 2.09413 0.931601 0
M  V30 1135 C 108.368 1.02522 1.26464 0
M  V30 1136 O 109.557 1.30049 1.22269 0
M  V30 1137 C 106.657 2.53537 2.24882 0
M  V30 1138 C 105.83 3.83944 2.09537 0
M  V30 1139 C 104.889 4.14214 3.2452 0
M  V30 1140 O 103.915 4.83891 2.9973 0
M  V30 1141 N 105.117 3.67367 4.49469 0
M  V30 1142 H 107.882 2.95699 0.488048 0
M  V30 1143 H 105.443 1.61462 0.119009 0
M  V30 1144 H 107.435 2.70853 3.00701 0
M  V30 1145 H 106.005 1.72415 2.60753 0
M  V30 1146 H 105.225 3.76057 1.18215 0
M  V30 1147 H 106.513 4.69312 1.96529 0
M  V30 1148 H 105.911 3.11068 4.72497 0
M  V30 1149 H 104.468 3.89891 5.2233 0
M  V30 1150 N 107.901 -0.206675 1.56239 0
M  V30 1151 C 108.848 -1.25617 1.93621 0
M  V30 1152 C 109.818 -1.45824 0.795274 0
M  V30 1153 O 111.003 -1.59148 1.05245 0
M  V30 1154 C 108.143 -2.59839 2.27107 0
M  V30 1155 C 107.256 -2.47308 3.54207 0
M  V30 1156 C 106.391 -3.74155 3.7707 0
M  V30 1157 C 105.43 -3.56407 4.97635 0
M  V30 1158 N 104.567 -4.75238 5.1681 0
M  V30 1159 H 109.407 -0.930383 2.83104 0
M  V30 1160 H 106.944 -0.448065 1.4011 0
M  V30 1161 H 108.902 -3.38021 2.44535 0
M  V30 1162 H 107.532 -2.90485 1.40778 0
M  V30 1163 H 106.584 -1.60483 3.4489 0
M  V30 1164 H 107.896 -2.30122 4.42544 0
M  V30 1165 H 107.05 -4.60778 3.94675 0
M  V30 1166 H 105.789 -3.94282 2.87042 0
M  V30 1167 H 104.794 -2.68168 4.79964 0
M  V30 1168 H 106.019 -3.37736 5.89161 0
M  V30 1169 H 103.965 -4.95651 4.29728 0
M  V30 1170 H 103.882 -4.60835 5.99306 0
M  V30 1171 H 105.15 -5.63246 5.38864 0
M  V30 1172 N 109.379 -1.50304 -0.473955 0
M  V30 1173 C 110.312 -1.63595 -1.59097 0
M  V30 1174 C 111.29 -0.484142 -1.55225 0
M  V30 1175 O 112.474 -0.703271 -1.7489 0
M  V30 1176 C 109.601 -1.61589 -2.97669 0
M  V30 1177 C 108.647 -2.82295 -3.19705 0
M  V30 1178 S 109.48 -4.43635 -2.99913 0
M  V30 1179 C 110.636 -4.44317 -4.40832 0
M  V30 1180 H 110.869 -2.58082 -1.47583 0
M  V30 1181 H 108.402 -1.39531 -0.661087 0
M  V30 1182 H 110.36 -1.61116 -3.7756 0
M  V30 1183 H 109.021 -0.683421 -3.06575 0
M  V30 1184 H 108.214 -2.77188 -4.20931 0
M  V30 1185 H 107.816 -2.8032 -2.47582 0
M  V30 1186 H 110.108 -4.17703 -5.33414 0
M  V30 1187 H 111.051 -5.45911 -4.50984 0
M  V30 1188 H 111.459 -3.74059 -4.22777 0
M  V30 1189 N 110.857 0.726932 -1.39834 0
M  V30 1190 C 111.805 1.86235 -1.39353 0
M  V30 1191 C 112.799 1.67144 -0.275555 0
M  V30 1192 O 114.005 1.74387 -0.44601 0
M  V30 1193 H 110.38 0.613174 -0.43534 0
M  V30 1194 H 112.351 1.83756 -2.35109 0
M  V30 1195 C 111.1 3.23995 -1.26185 0
M  V30 1196 H 110.423 3.39285 -2.11484 0
M  V30 1197 H 111.863 4.03609 -1.29907 0
M  V30 1198 C 110.322 3.36888 0.0290018 0
M  V30 1199 O 110.852 3.89152 0.99619 0
M  V30 1200 N 109.058 2.90446 0.0947437 0
M  V30 1201 H 108.605 2.48102 -0.693035 0
M  V30 1202 H 108.563 2.99451 0.957932 0
M  V30 1203 N 112.336 1.25143 0.95797 0
M  V30 1204 C 113.747 1.08851 1.51685 0
M  V30 1205 C 114.098 -0.33687 1.93286 0
M  V30 1206 O 113.223 -1.22644 1.7829 0
M  V30 1207 C 113.818 1.96978 2.75654 0
M  V30 1208 C 112.377 1.84881 3.27866 0
M  V30 1209 C 111.524 1.91329 2.0072 0
M  V30 1210 H 114.475 1.38478 0.77522 0
M  V30 1211 H 114.496 1.5078 3.4935 0
M  V30 1212 H 114.008 3.00712 2.45345 0
M  V30 1213 H 112.109 0.840182 3.63004 0
M  V30 1214 H 112.222 2.6951 3.96107 0
M  V30 1215 H 110.586 1.35174 2.15871 0
M  V30 1216 H 111.369 2.96661 1.72764 0
M  V30 1217 N 113.814 -1.1601 1.06675 0
M  V30 1218 C 115.225 -1.68235 0.809565 0
M  V30 1219 C 115.576 -1.8454 -0.666303 0
M  V30 1220 O 114.701 -1.54374 -1.5165 0
M  V30 1221 C 115.296 -3.05585 1.46299 0
M  V30 1222 C 113.855 -3.54915 1.25349 0
M  V30 1223 C 113.002 -2.30804 1.53703 0
M  V30 1224 H 115.953 -1.00318 1.22971 0
M  V30 1225 H 115.974 -3.70174 0.880431 0
M  V30 1226 H 115.486 -2.93686 2.53713 0
M  V30 1227 H 113.587 -3.72067 0.199261 0
M  V30 1228 H 113.7 -4.36774 1.9689 0
M  V30 1229 H 112.064 -2.36007 0.957739 0
M  V30 1230 H 112.847 -2.21499 2.62284 0
M  V30 1231 N 115.292 -0.849877 -1.32721 0
M  V30 1232 C 116.239 -0.289033 -2.28983 0
M  V30 1233 C 117.209 0.601324 -1.54833 0
M  V30 1234 O 118.394 0.537253 -1.8308 0
M  V30 1235 C 115.534 0.520623 -3.4115 0
M  V30 1236 C 114.647 -0.394989 -4.3019 0
M  V30 1237 C 113.782 0.426834 -5.29482 0
M  V30 1238 C 112.821 -0.486476 -6.10164 0
M  V30 1239 N 111.958 0.297879 -7.01468 0
M  V30 1240 H 116.798 -1.11519 -2.76347 0
M  V30 1241 H 114.335 -0.56138 -1.35967 0
M  V30 1242 H 116.293 1.00563 -4.04899 0
M  V30 1243 H 114.923 1.31165 -2.9495 0
M  V30 1244 H 113.975 -0.99836 -3.67065 0
M  V30 1245 H 115.287 -1.09612 -4.86607 0
M  V30 1246 H 114.441 0.975205 -5.98811 0
M  V30 1247 H 113.18 1.16136 -4.73671 0
M  V30 1248 H 112.185 -1.04677 -5.39743 0
M  V30 1249 H 113.41 -1.21953 -6.6806 0
M  V30 1250 H 111.356 1.01558 -6.48091 0
M  V30 1251 H 111.273 -0.344318 -7.55216 0
M  V30 1252 H 112.541 0.828131 -7.75089 0
M  V30 1253 N 116.77 1.45427 -0.607355 0
M  V30 1254 C 118.017 2.02241 -0.102455 0
M  V30 1255 C 118.345 1.4758 1.26691 0
M  V30 1256 O 117.6 0.640468 1.84923 0
M  V30 1257 C 117.899 3.57398 -0.0129263 0
M  V30 1258 C 117.565 4.3121 -1.31792 0
M  V30 1259 C 116.227 4.51092 -1.67539 0
M  V30 1260 C 118.579 4.73401 -2.18039 0
M  V30 1261 C 115.907 5.10422 -2.89285 0
M  V30 1262 C 118.259 5.34078 -3.39034 0
M  V30 1263 C 116.923 5.52184 -3.75033 0
M  V30 1264 H 116.193 0.740051 -0.037491 0
M  V30 1265 H 118.84 1.74494 -0.788926 0
M  V30 1266 H 117.145 3.84421 0.756806 0
M  V30 1267 H 118.842 3.99061 0.393881 0
M  V30 1268 H 115.432 4.16047 -1.02968 0
M  V30 1269 H 119.616 4.57774 -1.91721 0
M  V30 1270 H 114.872 5.22629 -3.17283 0
M  V30 1271 H 119.046 5.65724 -4.06115 0
M  V30 1272 H 116.673 5.97925 -4.69457 0
M  V30 1273 N 118.248 0.346503 1.53744 0
M  V30 1274 C 119.473 -0.253074 2.0585 0
M  V30 1275 C 119.898 -1.43202 1.21962 0
M  V30 1276 O 119.256 -1.79783 0.234073 0
M  V30 1277 C 119.304 -0.643193 3.54817 0
M  V30 1278 O 118.408 -1.74286 3.73762 0
M  V30 1279 H 117.749 -0.0413583 0.662711 0
M  V30 1280 H 120.279 0.501574 1.98357 0
M  V30 1281 H 120.289 -0.919526 3.97503 0
M  V30 1282 H 118.964 0.218966 4.15323 0
M  V30 1283 H 117.541 -1.46356 3.42979 0
M  V30 1284 N 119.726 -1.57421 0.075193 0
M  V30 1285 C 120.673 -2.12915 -0.890843 0
M  V30 1286 C 121.643 -1.04252 -1.29309 0
M  V30 1287 O 122.828 -1.31933 -1.37834 0
M  V30 1288 C 119.968 -2.69795 -2.15186 0
M  V30 1289 C 119.081 -3.92624 -1.80194 0
M  V30 1290 C 118.216 -4.37736 -3.00933 0
M  V30 1291 C 117.255 -5.53205 -2.61974 0
M  V30 1292 N 116.392 -5.9326 -3.75483 0
M  V30 1293 H 121.232 -2.95156 -0.410735 0
M  V30 1294 H 118.769 -1.45854 -0.191086 0
M  V30 1295 H 120.727 -3.00883 -2.89008 0
M  V30 1296 H 119.357 -1.90313 -2.60731 0
M  V30 1297 H 118.409 -3.67977 -0.964218 0
M  V30 1298 H 119.721 -4.76482 -1.47534 0
M  V30 1299 H 118.875 -4.70503 -3.8303 0
M  V30 1300 H 117.614 -3.52739 -3.36789 0
M  V30 1301 H 116.619 -5.20086 -1.783 0
M  V30 1302 H 117.844 -6.39936 -2.27284 0
M  V30 1303 H 115.79 -5.11212 -4.11094 0
M  V30 1304 H 115.707 -6.71865 -3.46602 0
M  V30 1305 H 116.975 -6.30651 -4.58148 0
M  V30 1306 N 121.204 0.198386 -1.56346 0
M  V30 1307 C 122.45 0.920648 -1.80698 0
M  V30 1308 C 122.783 1.83045 -0.648697 0
M  V30 1309 O 122.058 1.91308 0.350925 0
M  V30 1310 C 122.341 1.73971 -3.15287 0
M  V30 1311 C 122.194 0.85485 -4.41602 0
M  V30 1312 C 123.513 2.71296 -3.46535 0
M  V30 1313 H 120.632 0.333261 -0.657348 0
M  V30 1314 H 123.274 0.188198 -1.89066 0
M  V30 1315 H 121.424 2.36416 -3.08285 0
M  V30 1316 H 123.096 0.245362 -4.60647 0
M  V30 1317 H 121.339 0.161398 -4.335 0
M  V30 1318 H 122.01 1.46286 -5.32264 0
M  V30 1319 H 124.486 2.18983 -3.53816 0
M  V30 1320 H 123.362 3.2569 -4.41834 0
M  V30 1321 H 123.623 3.5018 -2.69864 0
M  V30 1322 N 122.682 1.50554 0.465978 0
M  V30 1323 C 123.592 1.72585 1.58907 0
M  V30 1324 C 124.608 0.60911 1.6299 0
M  V30 1325 O 125.784 0.88804 1.80765 0
M  V30 1326 C 122.849 1.81995 2.95091 0
M  V30 1327 C 121.91 3.05751 3.01355 0
M  V30 1328 C 121.143 3.14702 4.31043 0
M  V30 1329 O 121.366 2.30313 5.21835 0
M  V30 1330 O 120.3 4.07468 4.43005 0
M  V30 1331 H 124.126 2.67799 1.43239 0
M  V30 1332 H 121.711 1.34711 0.646013 0
M  V30 1333 H 123.593 1.90335 3.75966 0
M  V30 1334 H 122.268 0.899659 3.10947 0
M  V30 1335 H 121.175 3.02908 2.19539 0
M  V30 1336 H 122.508 3.97375 2.90437 0
M  V30 1337 N 124.16 -0.719506 1.40217 0
M  V30 1338 C 125.437 -1.47221 1.28784 0
M  V30 1339 C 125.817 -2.10883 -0.0956067 0
M  V30 1340 O 125.165 -1.99833 -1.10811 0
M  V30 1341 C 125.375 -2.5111 2.42373 0
M  V30 1342 C 126.723 -3.17053 2.82423 0
M  V30 1343 O 127.747 -2.61429 2.41937 0
M  V30 1344 O 126.606 -4.17742 3.52355 0
M  V30 1345 H 123.7 -0.654491 0.50554 0
M  V30 1346 H 126.246 -0.752014 1.52128 0
M  V30 1347 H 125.018 -2.02556 3.34793 0
M  V30 1348 H 124.641 -3.3067 2.20778 0
M  V30 1349 N 125.638 -1.25649 -0.95132 0
M  V30 1350 C 126.571 -1.00644 -2.04807 0
M  V30 1351 C 127.549 0.0654271 -1.62468 0
M  V30 1352 O 128.733 -0.074911 -1.88351 0
M  V30 1353 C 125.86 -0.522052 -3.34653 0
M  V30 1354 C 124.906 -1.58495 -3.95957 0
M  V30 1355 S 125.739 -3.17108 -4.31512 0
M  V30 1356 C 126.895 -2.70412 -5.64471 0
M  V30 1357 H 127.128 -1.93508 -2.25703 0
M  V30 1358 H 124.661 -1.09216 -1.09139 0
M  V30 1359 H 126.619 -0.24923 -4.09743 0
M  V30 1360 H 125.28 0.386146 -3.11717 0
M  V30 1361 H 124.473 -1.1968 -4.89584 0
M  V30 1362 H 124.075 -1.80862 -3.2736 0
M  V30 1363 H 126.367 -2.14245 -6.42733 0
M  V30 1364 H 127.31 -3.62693 -6.08161 0
M  V30 1365 H 127.718 -2.10302 -5.23864 0
M  V30 1366 N 127.117 1.15442 -1.07289 0
M  V30 1367 C 128.08 2.18358 -0.696591 0
M  V30 1368 C 129.08 1.58637 0.262837 0
M  V30 1369 O 130.27 1.74145 0.0438809 0
M  V30 1370 C 127.402 3.4089 -0.0266151 0
M  V30 1371 H 128.595 2.53162 -1.60776 0
M  V30 1372 H 126.148 1.29893 -0.869342 0
M  V30 1373 H 126.883 3.11653 0.896822 0
M  V30 1374 H 126.668 3.85495 -0.716657 0
M  V30 1375 H 128.158 4.17009 0.222028 0
M  V30 1376 N 128.595 0.856903 1.32268 0
M  V30 1377 C 129.505 0.306131 2.32594 0
M  V30 1378 C 130.521 -0.577209 1.64147 0
M  V30 1379 O 131.697 -0.477043 1.95669 0
M  V30 1380 C 128.762 -0.494561 3.43154 0
M  V30 1381 C 127.823 0.415186 4.27288 0
M  V30 1382 C 127.056 -0.347387 5.32568 0
M  V30 1383 O 127.279 -1.57708 5.48165 0
M  V30 1384 O 126.213 0.287982 6.01211 0
M  V30 1385 H 130.039 1.13737 2.81598 0
M  V30 1386 H 127.624 0.619902 1.35932 0
M  V30 1387 H 129.506 -0.948944 4.10576 0
M  V30 1388 H 128.181 -1.30257 2.96336 0
M  V30 1389 H 127.088 0.917793 3.62667 0
M  V30 1390 H 128.421 1.18844 4.77637 0
M  V30 1391 N 130.073 -1.45103 0.615059 0
M  V30 1392 C 131.003 -2.33339 -0.0865619 0
M  V30 1393 C 131.984 -1.4727 -0.851209 0
M  V30 1394 O 133.169 -1.76026 -0.820281 0
M  V30 1395 C 130.299 -3.30095 -1.07956 0
M  V30 1396 C 129.253 -4.25858 -0.427628 0
M  V30 1397 C 128.579 -5.12361 -1.5294 0
M  V30 1398 C 129.879 -5.18165 0.655944 0
M  V30 1399 H 131.573 -2.92254 0.650224 0
M  V30 1400 H 129.119 -1.40532 0.314138 0
M  V30 1401 H 131.072 -3.90698 -1.57901 0
M  V30 1402 H 129.796 -2.69355 -1.84703 0
M  V30 1403 H 128.455 -3.66564 0.0510292 0
M  V30 1404 H 128.103 -4.47984 -2.28734 0
M  V30 1405 H 127.803 -5.77238 -1.09865 0
M  V30 1406 H 129.327 -5.75833 -2.03098 0
M  V30 1407 H 130.741 -5.72796 0.240257 0
M  V30 1408 H 129.138 -5.91559 1.00888 0
M  V30 1409 H 130.208 -4.60144 1.52957 0
M  V30 1410 N 131.551 -0.354651 -1.53558 0
M  V30 1411 C 132.779 0.239515 -2.05509 0
M  V30 1412 C 133.194 1.4333 -1.2289 0
M  V30 1413 O 132.551 1.80538 -0.266899 0
M  V30 1414 C 132.602 0.643719 -3.55723 0
M  V30 1415 O 132.323 -0.502602 -4.35207 0
M  V30 1416 C 133.824 1.29743 -4.23889 0
M  V30 1417 H 131.044 0.0442697 -0.669538 0
M  V30 1418 H 133.588 -0.509856 -1.98042 0
M  V30 1419 H 131.743 1.34302 -3.63376 0
M  V30 1420 H 132.157 -0.178172 -5.24197 0
M  V30 1421 H 133.631 1.53091 -5.30346 0
M  V30 1422 H 134.108 2.25441 -3.76926 0
M  V30 1423 H 134.714 0.639865 -4.20459 0
M  V30 1424 N 133.029 1.57378 -0.0835403 0
M  V30 1425 C 134.269 1.95808 0.586381 0
M  V30 1426 C 134.633 0.963706 1.66062 0
M  V30 1427 O 135.834 1.23608 2.38693 0
M  V30 1428 C 134.105 3.38808 1.13771 0
M  V30 1429 S 135.664 3.99225 1.82112 0
M  V30 1430 H 132.482 0.684675 0.191679 0
M  V30 1431 H 135.084 1.94843 -0.160194 0
M  V30 1432 H 133.788 4.08954 0.344197 0
M  V30 1433 H 133.319 3.43344 1.92038 0
M  V30 1434 H 135.334 3.87087 3.10449 0
M  V30 1435 N 134.507 -0.190092 1.56449 0
M  V30 1436 C 135.437 -1.23816 1.97969 0
M  V30 1437 C 136.418 -1.47201 0.852395 0
M  V30 1438 O 137.603 -1.58854 1.1171 0
M  V30 1439 C 134.733 -2.5813 2.3235 0
M  V30 1440 C 133.687 -2.49348 3.47864 0
M  V30 1441 C 133.013 -3.8798 3.67934 0
M  V30 1442 C 134.313 -2.01424 4.81898 0
M  V30 1443 H 136.007 -0.89311 2.85769 0
M  V30 1444 H 133.553 -0.428177 1.37487 0
M  V30 1445 H 135.506 -3.31637 2.59991 0
M  V30 1446 H 134.23 -2.94386 1.41438 0
M  V30 1447 H 132.889 -1.78297 3.20321 0
M  V30 1448 H 132.537 -4.21597 2.74344 0
M  V30 1449 H 132.237 -3.82978 4.45648 0
M  V30 1450 H 133.761 -4.63101 3.97957 0
M  V30 1451 H 135.175 -2.64693 5.08538 0
M  V30 1452 H 133.572 -2.07413 5.63116 0
M  V30 1453 H 134.642 -0.967677 4.75146 0
M  V30 1454 N 135.985 -1.50799 -0.457987 0
M  V30 1455 C 136.933 -1.71162 -1.575 0
M  V30 1456 C 137.927 -0.577592 -1.59249 0
M  V30 1457 O 139.133 -0.758443 -1.63241 0
M  V30 1458 H 135.508 -0.540468 -0.522875 0
M  V30 1459 H 137.479 -2.64837 -1.37492 0
M  V30 1460 C 136.228 -1.83496 -2.95338 0
M  V30 1461 H 135.551 -2.70153 -2.94716 0
M  V30 1462 H 136.991 -2.01765 -3.72917 0
M  V30 1463 C 135.45 -0.589694 -3.31699 0
M  V30 1464 O 135.98 0.265163 -4.00824 0
M  V30 1465 N 134.186 -0.439845 -2.87252 0
M  V30 1466 H 133.733 -1.13655 -2.31172 0
M  V30 1467 H 133.691 0.392159 -3.11945 0
M  V30 1468 N 137.463 0.71206 -1.40597 0
M  V30 1469 C 138.373 1.8562 -1.43466 0
M  V30 1470 C 139.389 1.70902 -0.326902 0
M  V30 1471 O 140.565 1.93105 -0.572043 0
M  V30 1472 C 137.63 3.21451 -1.29884 0
M  V30 1473 C 136.691 3.48398 -2.50833 0
M  V30 1474 C 135.924 4.77749 -2.3789 0
M  V30 1475 O 136.147 5.53089 -1.39459 0
M  V30 1476 O 135.081 5.05111 -3.27333 0
M  V30 1477 H 138.907 1.86155 -2.39958 0
M  V30 1478 H 136.492 0.86295 -1.21957 0
M  V30 1479 H 138.374 4.02579 -1.24531 0
M  V30 1480 H 137.049 3.21636 -0.364997 0
M  V30 1481 H 135.956 2.67265 -2.61763 0
M  V30 1482 H 137.289 3.53014 -3.4299 0
M  V30 1483 N 138.941 1.26152 0.944643 0
M  V30 1484 C 139.904 1.07474 2.0244 0
M  V30 1485 C 140.904 0.0242064 1.60782 0
M  V30 1486 O 142.094 0.267302 1.72137 0
M  V30 1487 C 139.226 0.633956 3.34953 0
M  V30 1488 H 140.419 2.03336 2.20442 0
M  V30 1489 H 137.972 1.087 1.12312 0
M  V30 1490 H 138.707 -0.326811 3.22649 0
M  V30 1491 H 138.492 1.39247 3.66542 0
M  V30 1492 H 139.982 0.52501 4.14287 0
M  V30 1493 N 140.419 -1.14872 1.07899 0
M  V30 1494 C 141.644 -1.90202 0.826926 0
M  V30 1495 C 142.069 -1.77774 -0.614664 0
M  V30 1496 O 141.427 -1.11431 -1.43013 0
M  V30 1497 C 141.475 -3.38352 1.24702 0
M  V30 1498 O 140.579 -4.10497 0.39575 0
M  V30 1499 H 139.92 -0.591968 0.300782 0
M  V30 1500 H 142.45 -1.45437 1.43907 0
M  V30 1501 H 142.46 -3.89156 1.22563 0
M  V30 1502 H 141.135 -3.46715 2.29698 0
M  V30 1503 H 139.712 -3.69796 0.480117 0
M  V30 1504 N 141.898 -0.863906 -1.31812 0
M  V30 1505 C 143.144 -0.472535 -1.97218 0
M  V30 1506 C 143.477 0.971394 -1.68159 0
M  V30 1507 O 142.752 1.68309 -0.974798 0
M  V30 1508 C 143.035 -0.723054 -3.52766 0
M  V30 1509 C 142.888 -2.21608 -3.91421 0
M  V30 1510 C 144.207 -0.185522 -4.39709 0
M  V30 1511 H 141.326 -0.173158 -0.71637 0
M  V30 1512 H 143.968 -1.08403 -1.56041 0
M  V30 1513 H 142.118 -0.202577 -3.87971 0
M  V30 1514 H 143.79 -2.80334 -3.66347 0
M  V30 1515 H 142.033 -2.691 -3.40246 0
M  V30 1516 H 142.704 -2.34203 -4.99853 0
M  V30 1517 H 145.18 -0.630726 -4.11292 0
M  V30 1518 H 144.056 -0.390306 -5.47511 0
M  V30 1519 H 144.317 0.912229 -4.32586 0
M  V30 1520 N 143.376 1.44774 -0.622745 0
M  V30 1521 C 144.306 2.33382 0.0741861 0
M  V30 1522 C 145.287 1.47719 0.843387 0
M  V30 1523 O 146.472 1.76458 0.810934 0
M  V30 1524 C 143.602 3.30663 1.06204 0
M  V30 1525 C 142.556 4.26079 0.405037 0
M  V30 1526 C 141.882 5.13165 1.5022 0
M  V30 1527 C 143.182 5.1781 -0.683414 0
M  V30 1528 H 144.876 2.91905 -0.665713 0
M  V30 1529 H 142.422 1.40363 -0.321587 0
M  V30 1530 H 144.375 3.9153 1.55827 0
M  V30 1531 H 143.099 2.70331 1.83272 0
M  V30 1532 H 141.758 3.66532 -0.0704683 0
M  V30 1533 H 141.406 4.49191 2.26355 0
M  V30 1534 H 141.106 5.77812 1.06803 0
M  V30 1535 H 142.63 5.76902 2.00041 0
M  V30 1536 H 144.044 5.72661 -0.270631 0
M  V30 1537 H 142.441 5.91015 -1.04023 0
M  V30 1538 H 143.511 4.59326 -1.55395 0
M  V30 1539 N 144.854 0.36279 1.53368 0
M  V30 1540 C 145.804 -0.501391 2.22419 0
M  V30 1541 C 146.788 -1.0509 1.2184 0
M  V30 1542 O 147.98 -0.981404 1.47301 0
M  V30 1543 C 145.109 -1.64201 3.01484 0
M  V30 1544 C 144.195 -1.10552 4.09438 0
M  V30 1545 N 144.586 -0.291788 5.04958 0
M  V30 1546 C 142.884 -1.3806 4.24094 0
M  V30 1547 C 143.585 0.00162655 5.817 0
M  V30 1548 N 142.561 -0.595244 5.40331 0
M  V30 1549 H 146.363 0.127159 2.93625 0
M  V30 1550 H 143.877 0.170658 1.61501 0
M  V30 1551 H 145.874 -2.27326 3.49469 0
M  V30 1552 H 144.534 -2.27365 2.31809 0
M  V30 1553 H 145.545 0.0687731 5.17854 0
M  V30 1554 H 142.222 -2.01522 3.65644 0
M  V30 1555 H 143.612 0.659278 6.68658 0
M  V30 1556 N 146.332 -1.57332 0.0918853 0
M  V30 1557 C 147.28 -2.15075 -0.885747 0
M  V30 1558 C 148.274 -1.09277 -1.29441 0
M  V30 1559 O 149.48 -1.27627 -1.26931 0
M  V30 1560 H 145.855 -0.687966 -0.303656 0
M  V30 1561 H 147.826 -2.96047 -0.373995 0
M  V30 1562 C 146.575 -2.74325 -2.13638 0
M  V30 1563 H 145.898 -3.55418 -1.8308 0
M  V30 1564 H 147.338 -3.183 -2.80109 0
M  V30 1565 C 145.797 -1.70062 -2.90827 0
M  V30 1566 O 146.327 -1.13763 -3.85254 0
M  V30 1567 N 144.533 -1.40628 -2.54307 0
M  V30 1568 H 144.08 -1.866 -1.7759 0
M  V30 1569 H 144.038 -0.711043 -3.06254 0
M  V30 1570 N 147.81 0.181792 -1.56548 0
M  V30 1571 C 148.74 1.22765 -1.98623 0
M  V30 1572 C 149.721 1.46747 -0.860189 0
M  V30 1573 O 150.906 1.58259 -1.12551 0
M  V30 1574 C 148.036 2.56894 -2.33715 0
M  V30 1575 C 146.99 2.475 -3.49182 0
M  V30 1576 C 146.316 3.86023 -3.69986 0
M  V30 1577 C 147.616 1.98866 -4.82959 0
M  V30 1578 H 149.31 0.877942 -2.86239 0
M  V30 1579 H 146.856 0.42088 -1.37712 0
M  V30 1580 H 148.809 3.30253 -2.61746 0
M  V30 1581 H 147.533 2.93632 -1.42997 0
M  V30 1582 H 146.192 1.76596 -3.21262 0
M  V30 1583 H 145.84 4.20136 -2.76576 0
M  V30 1584 H 145.54 3.80609 -4.47672 0
M  V30 1585 H 147.064 4.60984 -4.00407 0
M  V30 1586 H 148.478 2.61992 -5.09934 0
M  V30 1587 H 146.875 2.04424 -5.64208 0
M  V30 1588 H 147.945 0.942465 -4.75653 0
M  V30 1589 N 149.288 1.51039 0.449983 0
M  V30 1590 C 150.235 1.71439 1.54523 0
M  V30 1591 C 151.205 0.555871 1.56522 0
M  V30 1592 O 152.39 0.788871 1.73728 0
M  V30 1593 C 149.53 1.83384 2.92343 0
M  V30 1594 C 148.643 3.10873 2.9997 0
M  V30 1595 C 147.778 3.13488 4.28834 0
M  V30 1596 C 146.817 4.35343 4.30282 0
M  V30 1597 N 145.954 4.35579 5.5065 0
M  V30 1598 H 150.794 2.64934 1.36433 0
M  V30 1599 H 148.331 1.31312 0.662982 0
M  V30 1600 H 150.289 1.88291 3.72293 0
M  V30 1601 H 148.919 0.933086 3.0902 0
M  V30 1602 H 147.971 3.15336 2.12761 0
M  V30 1603 H 149.283 4.00814 2.96901 0
M  V30 1604 H 148.437 3.17241 5.17149 0
M  V30 1605 H 147.176 2.21414 4.34543 0
M  V30 1606 H 146.181 4.3178 3.40362 0
M  V30 1607 H 147.406 5.28668 4.26248 0
M  V30 1608 H 145.352 3.46369 5.57104 0
M  V30 1609 H 145.269 5.19313 5.49409 0
M  V30 1610 H 146.537 4.43507 6.41032 0
M  V30 1611 N 150.766 -0.704594 1.40972 0
M  V30 1612 C 151.676 -1.84856 1.44448 0
M  V30 1613 C 152.692 -1.70726 0.335961 0
M  V30 1614 O 153.868 -1.92799 0.582276 0
M  V30 1615 C 150.933 -3.20758 1.31587 0
M  V30 1616 C 149.994 -3.47063 2.52677 0
M  V30 1617 C 149.227 -4.76481 2.4042 0
M  V30 1618 O 149.45 -5.52341 1.42391 0
M  V30 1619 O 148.384 -5.03367 3.30007 0
M  V30 1620 H 152.21 -1.8488 2.40942 0
M  V30 1621 H 149.795 -0.85647 1.22413 0
M  V30 1622 H 151.677 -4.01913 1.26665 0
M  V30 1623 H 150.352 -3.21438 0.382049 0
M  V30 1624 H 149.259 -2.65873 2.63177 0
M  V30 1625 H 150.592 -3.5119 3.44858 0
M  V30 1626 N 152.244 -1.26651 -0.937939 0
M  V30 1627 C 153.66 -1.03834 -1.21205 0
M  V30 1628 C 153.86 0.234502 -2.00131 0
M  V30 1629 O 152.916 0.942767 -2.3424 0
M  V30 1630 C 154.229 -2.27167 -1.97017 0
M  V30 1631 C 155.777 -2.32101 -2.09996 0
M  V30 1632 C 156.252 -3.55136 -2.8921 0
M  V30 1633 N 157.743 -3.55632 -2.96783 0
M  V30 1634 C 158.478 -4.475 -3.58512 0
M  V30 1635 N 157.974 -5.4966 -4.21717 0
M  V30 1636 N 159.767 -4.35145 -3.55816 0
M  V30 1637 H 151.918 -2.08398 -0.410391 0
M  V30 1638 H 154.181 -0.916031 -0.244114 0
M  V30 1639 H 153.887 -3.19765 -1.46434 0
M  V30 1640 H 153.761 -2.31672 -2.97671 0
M  V30 1641 H 156.148 -1.40015 -2.59769 0
M  V30 1642 H 156.229 -2.31605 -1.08594 0
M  V30 1643 H 155.873 -4.47553 -2.40123 0
M  V30 1644 H 155.803 -3.5288 -3.90875 0
M  V30 1645 H 158.294 -2.81743 -2.51852 0
M  V30 1646 H 158.607 -6.15943 -4.66727 0
M  V30 1647 H 156.952 -5.53514 -4.20294 0
M  V30 1648 H 160.143 -3.5455 -3.05634 0
M  V30 1649 H 160.316 -5.06934 -4.03636 0
M  V30 1650 N 153.722 1.14298 -1.08507 0
M  V30 1651 C 154.952 1.88945 -0.835663 0
M  V30 1652 C 155.36 1.78894 0.615928 0
M  V30 1653 O 154.703 1.1468 1.43506 0
M  V30 1654 C 154.765 3.39585 -1.17994 0
M  V30 1655 C 154.429 3.7342 -2.63451 0
M  V30 1656 C 155.426 3.73454 -3.61702 0
M  V30 1657 C 153.111 4.03368 -2.99332 0
M  V30 1658 C 155.105 4.02961 -4.93864 0
M  V30 1659 C 152.792 4.32538 -4.31687 0
M  V30 1660 C 153.79 4.32318 -5.28763 0
M  V30 1661 O 153.478 4.6078 -6.58739 0
M  V30 1662 H 153.21 0.605307 -0.300965 0
M  V30 1663 H 155.764 1.45673 -1.44806 0
M  V30 1664 H 153.994 3.83315 -0.51055 0
M  V30 1665 H 155.683 3.9554 -0.911182 0
M  V30 1666 H 156.449 3.50403 -3.35325 0
M  V30 1667 H 152.328 4.02692 -2.24411 0
M  V30 1668 H 155.872 4.02704 -5.69627 0
M  V30 1669 H 151.769 4.55059 -4.57812 0
M  V30 1670 H 152.537 4.78492 -6.64069 0
M  V30 1671 N 155.201 0.870884 1.31352 0
M  V30 1672 C 156.431 0.496049 2.00557 0
M  V30 1673 C 156.839 -0.916241 1.65534 0
M  V30 1674 O 156.182 -1.61188 0.881134 0
M  V30 1675 C 156.244 0.574418 3.54881 0
M  V30 1676 C 155.908 1.94849 4.1338 0
M  V30 1677 C 156.905 2.91611 4.30417 0
M  V30 1678 C 154.59 2.25005 4.49086 0
M  V30 1679 C 156.584 4.16672 4.82352 0
M  V30 1680 C 154.271 3.50315 5.00722 0
M  V30 1681 C 155.269 4.45964 5.17306 0
M  V30 1682 O 154.957 5.69052 5.67833 0
M  V30 1683 H 154.689 0.191664 0.64826 0
M  V30 1684 H 157.243 1.17409 1.68536 0
M  V30 1685 H 155.473 -0.160549 3.86367 0
M  V30 1686 H 157.162 0.212879 4.05341 0
M  V30 1687 H 157.928 2.69622 4.03149 0
M  V30 1688 H 153.807 1.51332 4.35453 0
M  V30 1689 H 157.351 4.91336 4.95211 0
M  V30 1690 H 153.248 3.72147 5.27424 0
M  V30 1691 H 154.016 5.71236 5.86201 0
M  V30 1692 N 156.679 -1.44442 0.630414 0
M  V30 1693 C 157.904 -2.06927 0.139944 0
M  V30 1694 C 158.329 -1.46795 -1.17613 0
M  V30 1695 O 157.687 -0.569144 -1.72135 0
M  V30 1696 C 157.735 -3.6058 0.0379581 0
M  V30 1697 O 156.839 -3.99937 -1.0062 0
M  V30 1698 H 156.18 -0.658608 0.0844483 0
M  V30 1699 H 158.71 -1.85327 0.866891 0
M  V30 1700 H 158.72 -4.07714 -0.152856 0
M  V30 1701 H 157.395 -4.03728 0.998809 0
M  V30 1702 H 155.972 -3.64436 -0.79001 0
M  V30 1703 N 158.157 -0.370918 -1.53173 0
M  V30 1704 C 159.405 0.216673 -2.00935 0
M  V30 1705 C 159.726 1.48845 -1.25977 0
M  V30 1706 O 158.996 1.92286 -0.374551 0
M  V30 1707 H 157.576 0.0830565 -0.742368 0
M  V30 1708 H 160.238 -0.49838 -1.8842 0
M  V30 1709 H 159.334 0.439893 -3.08984 0
M  V30 1710 N 159.635 1.57281 -0.100228 0
M  V30 1711 C 160.565 2.17328 0.853857 0
M  V30 1712 C 161.546 1.10804 1.2906 0
M  V30 1713 O 162.731 1.38963 1.35657 0
M  V30 1714 C 159.861 2.75772 2.11109 0
M  V30 1715 C 158.815 3.87713 1.81279 0
M  V30 1716 C 158.141 4.32882 3.13874 0
M  V30 1717 C 159.441 5.10677 1.09574 0
M  V30 1718 H 161.135 2.97305 0.353545 0
M  V30 1719 H 158.681 1.43009 0.168612 0
M  V30 1720 H 160.634 3.16433 2.78296 0
M  V30 1721 H 159.358 1.93057 2.63432 0
M  V30 1722 H 158.017 3.476 1.16489 0
M  V30 1723 H 157.665 3.47051 3.64095 0
M  V30 1724 H 157.365 5.08358 2.94696 0
M  V30 1725 H 158.889 4.7618 3.82211 0
M  V30 1726 H 160.303 5.48474 1.66879 0
M  V30 1727 H 158.7 5.91615 1.00557 0
M  V30 1728 H 159.77 4.84835 0.0793299 0
M  V30 1729 N 161.113 -0.173488 1.56642 0
M  V30 1730 C 162.362 -0.888758 1.81063 0
M  V30 1731 C 162.675 -1.83506 0.67712 0
M  V30 1732 O 163.881 -2.59254 0.806206 0
M  V30 1733 C 162.337 -1.63091 3.20826 0
M  V30 1734 C 161.945 -0.728357 4.4204 0
M  V30 1735 C 163.689 -2.33454 3.54541 0
M  V30 1736 C 161.596 -1.47062 5.72823 0
M  V30 1737 H 160.526 -0.335618 0.675186 0
M  V30 1738 H 163.177 -0.141712 1.82952 0
M  V30 1739 H 161.559 -2.42263 3.13248 0
M  V30 1740 H 162.733 0.0262449 4.60793 0
M  V30 1741 H 161.048 -0.134492 4.16183 0
M  V30 1742 H 163.645 -2.89578 4.49498 0
M  V30 1743 H 163.988 -3.08687 2.79317 0
M  V30 1744 H 164.521 -1.61227 3.63663 0
M  V30 1745 H 161.26 -0.760658 6.51072 0
M  V30 1746 H 160.78 -2.1986 5.58052 0
M  V30 1747 H 162.459 -2.01868 6.14702 0
M  V30 1748 N 162.591 -1.51276 -0.441967 0
M  V30 1749 C 163.821 -1.67273 -1.21257 0
M  V30 1750 C 164.229 -0.367624 -1.85594 0
M  V30 1751 O 163.572 0.663349 -1.71305 0
M  V30 1752 C 163.634 -2.72807 -2.34129 0
M  V30 1753 C 163.298 -4.1554 -1.90198 0
M  V30 1754 C 164.295 -5.00471 -1.40801 0
M  V30 1755 C 161.98 -4.61616 -1.9803 0
M  V30 1756 C 163.974 -6.29536 -0.998174 0
M  V30 1757 C 161.661 -5.90679 -1.56658 0
M  V30 1758 C 162.659 -6.74466 -1.07633 0
M  V30 1759 O 162.347 -8.01116 -0.668459 0
M  V30 1760 H 162.079 -0.564614 -0.371734 0
M  V30 1761 H 164.633 -1.9843 -0.530521 0
M  V30 1762 H 162.863 -2.36954 -3.05597 0
M  V30 1763 H 164.552 -2.77729 -2.96009 0
M  V30 1764 H 165.318 -4.66079 -1.34148 0
M  V30 1765 H 161.197 -3.96526 -2.35135 0
M  V30 1766 H 164.741 -6.94885 -0.61482 0
M  V30 1767 H 160.638 -6.24586 -1.62979 0
M  V30 1768 H 161.406 -8.14633 -0.794722 0
M  V30 1769 N 164.069 0.697108 -1.41344 0
M  V30 1770 C 165.297 1.48593 -1.43972 0
M  V30 1771 C 165.712 1.88747 -0.0445612 0
M  V30 1772 O 165.069 1.56682 0.935785 0
M  V30 1773 C 165.12 2.74946 -2.34706 0
M  V30 1774 O 164.841 2.36484 -3.68791 0
M  V30 1775 C 166.342 3.687 -2.46121 0
M  V30 1776 H 163.562 0.457964 -0.490418 0
M  V30 1777 H 166.106 0.858429 -1.8561 0
M  V30 1778 H 164.261 3.33937 -1.9638 0
M  V30 1779 H 164.675 3.17918 -4.17167 0
M  V30 1780 H 166.149 4.54145 -3.13777 0
M  V30 1781 H 166.626 4.13081 -1.49199 0
M  V30 1782 H 167.232 3.15613 -2.85076 0
M  V30 1783 N 165.547 1.27147 0.931209 0
M  V30 1784 C 166.777 1.15914 1.71019 0
M  V30 1785 C 167.185 -0.287112 1.87009 0
M  V30 1786 O 166.528 -1.20761 1.38429 0
M  V30 1787 C 166.59 1.76647 3.13107 0
M  V30 1788 C 166.254 3.25807 3.20467 0
M  V30 1789 C 167.251 4.22489 3.02983 0
M  V30 1790 C 164.936 3.66452 3.43538 0
M  V30 1791 C 166.93 5.57794 3.08454 0
M  V30 1792 C 164.617 5.01888 3.48643 0
M  V30 1793 C 165.615 5.97369 3.31119 0
M  V30 1794 O 165.303 7.30337 3.35952 0
M  V30 1795 H 165.035 0.404062 0.54195 0
M  V30 1796 H 167.589 1.68457 1.17521 0
M  V30 1797 H 165.819 1.18578 3.68071 0
M  V30 1798 H 167.508 1.60179 3.72958 0
M  V30 1799 H 168.274 3.92425 2.85004 0
M  V30 1800 H 164.153 2.92611 3.5623 0
M  V30 1801 H 167.697 6.32298 2.94694 0
M  V30 1802 H 163.594 5.31609 3.66145 0
M  V30 1803 H 164.362 7.38739 3.5243 0
M  V30 1804 N 167.025 -1.13721 1.09112 0
M  V30 1805 C 168.25 -1.89314 0.847053 0
M  V30 1806 C 168.675 -1.78416 -0.595774 0
M  V30 1807 O 168.033 -1.12942 -1.41823 0
M  V30 1808 C 168.081 -3.3701 1.28284 0
M  V30 1809 O 167.185 -4.10054 0.439267 0
M  V30 1810 H 166.526 -0.588745 0.307044 0
M  V30 1811 H 169.056 -1.43902 1.45442 0
M  V30 1812 H 169.066 -3.87834 1.26683 0
M  V30 1813 H 167.741 -3.4426 2.33363 0
M  V30 1814 H 166.318 -3.69266 0.519312 0
M  V30 1815 N 168.503 -0.877838 -1.30888 0
M  V30 1816 C 169.751 -0.491723 -1.96027 0
M  V30 1817 C 170.072 0.960827 -1.69685 0
M  V30 1818 O 169.342 1.67462 -1.01654 0
M  V30 1819 H 167.922 -0.17885 -0.725273 0
M  V30 1820 H 170.584 -1.11935 -1.59551 0
M  V30 1821 H 169.68 -0.656016 -3.05128 0
M  V30 1822 N 169.982 1.44106 -0.638065 0
M  V30 1823 C 170.912 2.33448 0.0494287 0
M  V30 1824 C 171.893 1.48606 0.827672 0
M  V30 1825 O 173.078 1.77308 0.792173 0
M  V30 1826 C 170.208 3.31771 1.02691 0
M  V30 1827 C 169.162 4.26485 0.359823 0
M  V30 1828 C 168.488 5.14729 1.44769 0
M  V30 1829 C 169.788 5.17056 -0.738296 0
M  V30 1830 H 171.482 2.91183 -0.696636 0
M  V30 1831 H 169.028 1.40014 -0.336456 0
M  V30 1832 H 170.981 3.93161 1.51666 0
M  V30 1833 H 169.705 2.7226 1.80395 0
M  V30 1834 H 168.364 3.66437 -0.10934 0
M  V30 1835 H 168.012 4.51566 2.21578 0
M  V30 1836 H 167.712 5.78913 1.00668 0
M  V30 1837 H 169.236 5.78991 1.93911 0
M  V30 1838 H 170.65 5.72342 -0.331354 0
M  V30 1839 H 169.047 5.89879 -1.10286 0
M  V30 1840 H 170.117 4.57652 -1.60258 0
M  V30 1841 N 171.46 0.379036 1.52974 0
M  V30 1842 C 172.707 -0.206421 2.01445 0
M  V30 1843 C 173.035 -1.47668 1.26587 0
M  V30 1844 O 172.29 -1.92514 0.351675 0
M  V30 1845 C 172.589 -0.53096 3.53434 0
M  V30 1846 C 172.255 0.646546 4.46241 0
M  V30 1847 C 170.917 0.969604 4.7133 0
M  V30 1848 C 173.269 1.43479 5.01062 0
M  V30 1849 C 170.597 2.08263 5.48492 0
M  V30 1850 C 172.949 2.53834 5.7944 0
M  V30 1851 C 171.613 2.86659 6.02812 0
M  V30 1852 H 170.883 -0.0755349 0.73714 0
M  V30 1853 H 173.53 0.514271 1.84465 0
M  V30 1854 H 171.835 -1.33285 3.68432 0
M  V30 1855 H 173.532 -0.996417 3.88423 0
M  V30 1856 H 170.122 0.384734 4.2687 0
M  V30 1857 H 174.306 1.19844 4.81613 0
M  V30 1858 H 169.562 2.34078 5.64816 0
M  V30 1859 H 173.736 3.15319 6.20924 0
M  V30 1860 H 171.363 3.73026 6.62387 0
M  V30 1861 N 172.938 -1.57226 0.108567 0
M  V30 1862 C 174.178 -1.96717 -0.555155 0
M  V30 1863 C 174.542 -0.990003 -1.64508 0
M  V30 1864 O 175.743 -1.2739 -2.36696 0
M  V30 1865 C 174.014 -3.40575 -1.08367 0
M  V30 1866 S 175.573 -4.02072 -1.75737 0
M  V30 1867 H 172.391 -0.687638 -0.180762 0
M  V30 1868 H 174.993 -1.94563 0.191172 0
M  V30 1869 H 173.697 -4.0945 -0.279092 0
M  V30 1870 H 173.228 -3.46356 -1.86551 0
M  V30 1871 H 175.243 -3.91977 -3.04251 0
M  V30 1872 N 174.416 0.165178 -1.56732 0
M  V30 1873 C 175.662 0.882112 -1.82611 0
M  V30 1874 C 175.995 1.81628 -0.687378 0
M  V30 1875 O 175.27 1.92009 0.310267 0
M  V30 1876 C 175.553 1.67245 -3.18906 0
M  V30 1877 C 175.406 0.760987 -4.43316 0
M  V30 1878 C 176.725 2.63884 -3.52212 0
M  V30 1879 H 173.844 0.319242 -0.664269 0
M  V30 1880 H 176.486 0.148052 -1.89422 0
M  V30 1881 H 174.636 2.29824 -3.1323 0
M  V30 1882 H 176.308 0.147596 -4.61064 0
M  V30 1883 H 174.551 0.0694102 -4.33744 0
M  V30 1884 H 175.222 1.34962 -5.35247 0
M  V30 1885 H 177.698 2.11429 -3.58381 0
M  V30 1886 H 176.574 3.16245 -4.48643 0
M  V30 1887 H 176.835 3.44377 -2.77231 0
M  V30 1888 N 175.894 1.51508 0.433938 0
M  V30 1889 C 177.14 1.64588 1.18484 0
M  V30 1890 C 177.473 0.362666 1.90784 0
M  V30 1891 O 176.748 -0.637892 1.83742 0
M  V30 1892 C 177.031 2.85149 2.19913 0
M  V30 1893 C 176.884 4.23456 1.51674 0
M  V30 1894 C 178.203 3.01227 3.20858 0
M  V30 1895 H 175.322 0.598994 0.429389 0
M  V30 1896 H 177.964 1.84002 0.473647 0
M  V30 1897 H 176.114 2.68729 2.80566 0
M  V30 1898 H 177.786 4.51552 0.943322 0
M  V30 1899 H 176.029 4.25998 0.819035 0
M  V30 1900 H 176.7 5.03812 2.2556 0
M  V30 1901 H 179.176 3.16382 2.70263 0
M  V30 1902 H 178.052 3.87141 3.89118 0
M  V30 1903 H 178.313 2.13447 3.8716 0
M  V30 1904 N 177.372 -0.689602 1.41712 0
M  V30 1905 C 178.621 -1.44534 1.40686 0
M  V30 1906 C 178.934 -1.95588 0.0213352 0
M  V30 1907 O 180.14 -2.71271 -0.111534 0
M  V30 1908 C 178.596 -2.61387 2.47396 0
M  V30 1909 C 178.204 -2.17094 3.91885 0
M  V30 1910 C 179.948 -3.38986 2.55517 0
M  V30 1911 C 177.855 -3.3094 4.90135 0
M  V30 1912 H 176.785 -0.542925 0.52321 0
M  V30 1913 H 179.436 -0.748054 1.6756 0
M  V30 1914 H 177.818 -3.33412 2.13664 0
M  V30 1915 H 178.992 -1.52318 4.34897 0
M  V30 1916 H 177.307 -1.52473 3.8748 0
M  V30 1917 H 179.904 -4.23747 3.26102 0
M  V30 1918 H 180.247 -3.84578 1.59391 0
M  V30 1919 H 180.78 -2.74021 2.8837 0
M  V30 1920 H 177.519 -2.90355 5.87685 0
M  V30 1921 H 177.039 -3.94546 4.51767 0
M  V30 1922 H 178.718 -3.9663 5.11169 0
M  V30 1923 N 178.85 -1.27639 -0.924453 0
M  V30 1924 C 179.798 -1.10485 -2.04685 0
M  V30 1925 C 180.792 -0.0270421 -1.69378 0
M  V30 1926 O 181.998 -0.185008 -1.79047 0
M  V30 1927 H 178.373 -0.340546 -0.670472 0
M  V30 1928 H 180.344 -2.05566 -2.16298 0
M  V30 1929 C 179.093 -0.772229 -3.39016 0
M  V30 1930 H 178.416 -1.59351 -3.66671 0
M  V30 1931 H 179.856 -0.692097 -4.18313 0
M  V30 1932 C 178.315 0.523554 -3.32807 0
M  V30 1933 O 178.845 1.55702 -3.70297 0
M  V30 1934 N 177.051 0.520363 -2.85903 0
M  V30 1935 H 176.598 -0.32107 -2.55591 0
M  V30 1936 H 176.556 1.38742 -2.82131 0
M  V30 1937 N 180.328 1.1314 -1.09713 0
M  V30 1938 C 181.739 1.66029 -0.853885 0
M  V30 1939 C 182.09 1.86241 0.617142 0
M  V30 1940 O 181.215 1.5834 1.47503 0
M  V30 1941 C 181.81 3.01599 -1.5435 0
M  V30 1942 C 180.369 3.51467 -1.34714 0
M  V30 1943 C 179.516 2.26648 -1.59769 0
M  V30 1944 H 182.467 0.970226 -1.25588 0
M  V30 1945 H 182.488 3.67709 -0.978267 0
M  V30 1946 H 182 2.86856 -2.6141 0
M  V30 1947 H 180.101 3.71408 -0.297838 0
M  V30 1948 H 180.214 4.314 -2.08401 0
M  V30 1949 H 178.578 2.33385 -1.01998 0
M  V30 1950 H 179.361 2.14467 -2.68065 0
M  V30 1951 N 181.806 0.884767 1.30421 0
M  V30 1952 C 183.036 0.517293 2.00019 0
M  V30 1953 C 183.444 -0.898632 1.66497 0
M  V30 1954 O 182.787 -1.60245 0.898181 0
M  V30 1955 C 182.849 0.612025 3.54252 0
M  V30 1956 C 182.513 1.99222 4.1129 0
M  V30 1957 C 183.51 2.9616 4.273 0
M  V30 1958 C 181.195 2.29755 4.46674 0
M  V30 1959 C 183.189 4.21764 4.77906 0
M  V30 1960 C 180.876 3.55606 4.96979 0
M  V30 1961 C 181.874 4.51425 5.12547 0
M  V30 1962 O 181.562 5.75043 5.61766 0
M  V30 1963 H 181.294 0.198529 0.64619 0
M  V30 1964 H 183.848 1.1919 1.67281 0
M  V30 1965 H 182.078 -0.119561 3.86515 0
M  V30 1966 H 183.767 0.255859 4.05093 0
M  V30 1967 H 184.533 2.73882 4.00267 0
M  V30 1968 H 180.412 1.55942 4.33824 0
M  V30 1969 H 183.956 4.96561 4.89972 0
M  V30 1970 H 179.853 3.7772 5.23448 0
M  V30 1971 H 180.621 5.77422 5.80109 0
M  V30 1972 N 183.284 -1.43765 0.645699 0
M  V30 1973 C 184.231 -2.30745 -0.0504648 0
M  V30 1974 C 185.201 -1.4432 -0.822241 0
M  V30 1975 O 186.386 -1.73202 -0.800358 0
M  V30 1976 C 183.526 -3.29802 -1.0161 0
M  V30 1977 C 182.639 -4.31326 -0.241219 0
M  V30 1978 C 181.774 -5.17469 -1.19998 0
M  V30 1979 C 180.813 -6.10691 -0.415094 0
M  V30 1980 N 179.95 -6.89483 -1.32506 0
M  V30 1981 H 184.79 -2.8973 0.697155 0
M  V30 1982 H 182.327 -1.42738 0.355563 0
M  V30 1983 H 184.285 -3.85734 -1.58949 0
M  V30 1984 H 182.915 -2.72483 -1.73069 0
M  V30 1985 H 181.967 -3.77749 0.448334 0
M  V30 1986 H 183.279 -4.9743 0.369437 0
M  V30 1987 H 182.433 -5.7799 -1.84424 0
M  V30 1988 H 181.172 -4.51473 -1.84455 0
M  V30 1989 H 180.177 -5.49265 0.242565 0
M  V30 1990 H 181.402 -6.78727 0.224966 0
M  V30 1991 H 179.348 -6.26142 -1.95657 0
M  V30 1992 H 179.265 -7.52081 -0.768783 0
M  V30 1993 H 180.533 -7.54516 -1.9577 0
M  V30 1994 N 184.763 -0.387143 -1.52771 0
M  V30 1995 C 185.711 0.463953 -2.27926 0
M  V30 1996 C 186.705 1.06493 -1.31741 0
M  V30 1997 O 187.911 1.00565 -1.49287 0
M  V30 1998 H 184.286 0.16837 -0.732909 0
M  V30 1999 H 186.257 -0.19141 -2.97785 0
M  V30 2000 C 185.006 1.5803 -3.09713 0
M  V30 2001 H 184.329 1.12718 -3.83581 0
M  V30 2002 H 185.769 2.15008 -3.65442 0
M  V30 2003 C 184.228 2.53509 -2.2189 0
M  V30 2004 O 184.758 3.56863 -1.84422 0
M  V30 2005 N 182.964 2.23199 -1.86093 0
M  V30 2006 H 182.511 1.39185 -2.16761 0
M  V30 2007 H 182.469 2.87333 -1.27621 0
M  V30 2008 N 186.241 1.57166 -0.116904 0
M  V30 2009 C 187.171 2.18222 0.830759 0
M  V30 2010 C 188.152 1.12167 1.27877 0
M  V30 2011 O 189.337 1.40394 1.34176 0
M  V30 2012 C 186.467 2.77996 2.08172 0
M  V30 2013 C 185.421 3.89614 1.77157 0
M  V30 2014 C 184.747 4.36187 3.09265 0
M  V30 2015 C 186.047 5.1181 1.04151 0
M  V30 2016 H 187.741 2.97664 0.321992 0
M  V30 2017 H 185.287 1.4318 0.153434 0
M  V30 2018 H 187.24 3.19366 2.74924 0
M  V30 2019 H 185.964 1.9584 2.6137 0
M  V30 2020 H 184.623 3.48816 1.12796 0
M  V30 2021 H 184.271 3.50893 3.60393 0
M  V30 2022 H 183.971 5.11455 2.89288 0
M  V30 2023 H 185.495 4.80207 3.77139 0
M  V30 2024 H 186.909 5.50214 1.61052 0
M  V30 2025 H 185.306 5.92648 0.942762 0
M  V30 2026 H 186.376 4.84892 0.0279022 0
M  V30 2027 N 187.719 -0.156864 1.56817 0
M  V30 2028 C 189.13 -0.717916 1.72345 0
M  V30 2029 C 189.481 -1.82124 0.729747 0
M  V30 2030 O 188.606 -2.16141 -0.105781 0
M  V30 2031 C 189.201 -1.30904 3.12489 0
M  V30 2032 C 187.76 -1.81676 3.29653 0
M  V30 2033 C 186.907 -0.701349 2.68284 0
M  V30 2034 H 189.858 0.0686989 1.58551 0
M  V30 2035 H 189.879 -2.17882 3.11942 0
M  V30 2036 H 189.391 -0.505796 3.8479 0
M  V30 2037 H 187.492 -2.64598 2.62333 0
M  V30 2038 H 187.605 -1.95226 4.3752 0
M  V30 2039 H 185.969 -1.12548 2.28484 0
M  V30 2040 H 186.752 0.0902846 3.43181 0
M  V30 2041 N 189.197 -1.51736 -0.425897 0
M  V30 2042 C 190.446 -1.64201 -1.17136 0
M  V30 2043 C 190.759 -0.369705 -1.92074 0
M  V30 2044 O 191.965 -0.373898 -2.68913 0
M  V30 2045 C 190.421 -2.90035 -2.13091 0
M  V30 2046 C 190.029 -4.24312 -1.43747 0
M  V30 2047 C 191.773 -3.1186 -2.87999 0
M  V30 2048 C 189.68 -5.41285 -2.38253 0
M  V30 2049 H 188.61 -0.611624 -0.440944 0
M  V30 2050 H 191.261 -1.78212 -0.437328 0
M  V30 2051 H 189.643 -2.69684 -2.89977 0
M  V30 2052 H 190.817 -4.55086 -0.723408 0
M  V30 2053 H 189.132 -4.08456 -0.809465 0
M  V30 2054 H 191.729 -3.96427 -3.58817 0
M  V30 2055 H 192.072 -2.25403 -3.49999 0
M  V30 2056 H 192.605 -3.32605 -2.18217 0
M  V30 2057 H 189.344 -6.30037 -1.80925 0
M  V30 2058 H 188.864 -5.14872 -3.0768 0
M  V30 2059 H 190.543 -5.73694 -2.99139 0
M  V30 2060 N 190.675 0.682077 -1.42076 0
M  V30 2061 C 191.905 1.46844 -1.45329 0
M  V30 2062 C 192.313 1.89102 -0.0609328 0
M  V30 2063 O 191.656 1.58238 0.933082 0
M  V30 2064 C 191.718 2.75375 -2.31104 0
M  V30 2065 C 191.382 2.55238 -3.79081 0
M  V30 2066 C 192.379 2.20309 -4.70914 0
M  V30 2067 C 190.064 2.70459 -4.2327 0
M  V30 2068 C 192.058 2.00859 -6.04925 0
M  V30 2069 C 189.745 2.50624 -5.57343 0
M  V30 2070 C 190.743 2.15876 -6.47986 0
M  V30 2071 O 190.431 1.96227 -7.79583 0
M  V30 2072 H 190.163 0.4586 -0.496651 0
M  V30 2073 H 192.717 0.846131 -1.87162 0
M  V30 2074 H 190.947 3.40061 -1.84107 0
M  V30 2075 H 192.636 3.37231 -2.25898 0
M  V30 2076 H 193.402 2.08153 -4.38061 0
M  V30 2077 H 189.281 2.96485 -3.53012 0
M  V30 2078 H 192.825 1.7366 -6.75639 0
M  V30 2079 H 188.722 2.62375 -5.89771 0
M  V30 2080 H 189.49 2.10883 -7.90867 0
M  V30 2081 N 192.153 1.28127 0.917671 0
M  V30 2082 C 193.378 1.18007 1.70555 0
M  V30 2083 C 193.803 -0.258257 1.86319 0
M  V30 2084 O 193.161 -1.1869 1.37049 0
M  V30 2085 C 193.209 1.87948 3.07746 0
M  V30 2086 O 192.313 1.18427 3.9503 0
M  V30 2087 H 191.654 0.409867 0.522403 0
M  V30 2088 H 194.184 1.69379 1.1477 0
M  V30 2089 H 194.194 1.95701 3.58001 0
M  V30 2090 H 192.869 2.92573 2.95591 0
M  V30 2091 H 191.446 1.18811 3.53466 0
M  V30 2092 N 193.631 -1.12557 1.10312 0
M  V30 2093 C 194.541 -2.21841 0.763142 0
M  V30 2094 C 195.557 -1.72354 -0.238801 0
M  V30 2095 O 196.733 -2.01249 -0.0778746 0
M  V30 2096 C 193.798 -3.46131 0.198632 0
M  V30 2097 C 192.859 -4.10464 1.25769 0
M  V30 2098 C 192.092 -5.28821 0.72002 0
M  V30 2099 O 192.315 -5.6859 -0.453993 0
M  V30 2100 O 191.249 -5.83437 1.47935 0
M  V30 2101 H 195.075 -2.53312 1.67532 0
M  V30 2102 H 192.66 -1.20867 0.878157 0
M  V30 2103 H 194.542 -4.2125 -0.112401 0
M  V30 2104 H 193.217 -3.16338 -0.686419 0
M  V30 2105 H 192.124 -3.3713 1.62156 0
M  V30 2106 H 193.457 -4.44408 2.11571 0
M  V30 2107 N 195.109 -0.891671 -1.2995 0
M  V30 2108 C 196.019 -0.367691 -2.31701 0
M  V30 2109 C 197.035 0.533486 -1.6562 0
M  V30 2110 O 198.211 0.424997 -1.96865 0
M  V30 2111 C 195.276 0.403406 -3.44345 0
M  V30 2112 C 194.337 -0.528328 -4.26037 0
M  V30 2113 C 193.57 0.206063 -5.33302 0
M  V30 2114 O 193.793 1.43119 -5.52153 0
M  V30 2115 O 192.727 -0.447281 -6.00236 0
M  V30 2116 H 196.553 -1.21163 -2.78484 0
M  V30 2117 H 194.138 -0.655725 -1.34241 0
M  V30 2118 H 196.02 0.839753 -4.12948 0
M  V30 2119 H 194.695 1.22354 -2.99685 0
M  V30 2120 H 193.602 -1.01362 -3.60106 0
M  V30 2121 H 194.935 -1.31465 -4.74318 0
M  V30 2122 N 196.587 1.43421 -0.653314 0
M  V30 2123 C 197.836 2.01032 -0.164076 0
M  V30 2124 C 198.149 1.52147 1.22926 0
M  V30 2125 O 199.355 2.02031 1.81371 0
M  V30 2126 C 197.811 3.59082 -0.24252 0
M  V30 2127 C 197.419 4.1696 -1.63855 0
M  V30 2128 C 199.163 4.24079 0.18911 0
M  V30 2129 C 197.07 5.67304 -1.67092 0
M  V30 2130 H 196 0.751798 -0.0575769 0
M  V30 2131 H 198.651 1.6439 -0.815362 0
M  V30 2132 H 197.033 3.93125 0.476276 0
M  V30 2133 H 198.207 3.94416 -2.38271 0
M  V30 2134 H 196.522 3.64335 -2.01616 0
M  V30 2135 H 199.119 5.34381 0.184775 0
M  V30 2136 H 199.462 3.98005 1.22056 0
M  V30 2137 H 199.995 3.94918 -0.477938 0
M  V30 2138 H 196.734 5.98145 -2.68146 0
M  V30 2139 H 196.254 5.91904 -0.970014 0
M  V30 2140 H 197.933 6.31344 -1.4147 0
M  V30 2141 N 198.065 0.39524 1.52563 0
M  V30 2142 C 199.311 -0.185318 2.01952 0
M  V30 2143 C 199.644 -1.45964 1.28095 0
M  V30 2144 O 198.919 -1.90689 0.38315 0
M  V30 2145 C 199.202 -0.447193 3.57312 0
M  V30 2146 C 199.055 0.842828 4.41833 0
M  V30 2147 C 200.374 -1.23529 4.22408 0
M  V30 2148 H 197.493 -0.0658788 0.73405 0
M  V30 2149 H 200.135 0.525975 1.82575 0
M  V30 2150 H 198.285 -1.05312 3.73954 0
M  V30 2151 H 199.957 1.4795 4.36931 0
M  V30 2152 H 198.2 1.45686 4.08605 0
M  V30 2153 H 198.871 0.614165 5.48573 0
M  V30 2154 H 201.347 -0.722445 4.0978 0
M  V30 2155 H 200.223 -1.38727 5.3108 0
M  V30 2156 H 200.484 -2.25213 3.80436 0
M  V30 2157 N 199.544 -1.57102 0.125237 0
M  V30 2158 C 200.454 -2.19191 -0.8362 0
M  V30 2159 C 201.47 -1.16985 -1.28805 0
M  V30 2160 O 202.646 -1.49479 -1.34974 0
M  V30 2161 C 199.711 -2.78407 -2.06617 0
M  V30 2162 C 198.772 -3.9567 -1.66565 0
M  V30 2163 C 198.005 -4.52052 -2.83698 0
M  V30 2164 O 198.228 -4.07326 -3.99302 0
M  V30 2165 O 197.162 -5.42645 -2.60423 0
M  V30 2166 H 200.988 -3.01816 -0.337776 0
M  V30 2167 H 198.573 -1.4906 -0.100695 0
M  V30 2168 H 200.455 -3.16129 -2.7864 0
M  V30 2169 H 199.13 -1.9881 -2.55453 0
M  V30 2170 H 198.037 -3.62705 -0.916296 0
M  V30 2171 H 199.37 -4.76722 -1.22464 0
M  V30 2172 N 201.022 0.148545 -1.56898 0
M  V30 2173 C 201.955 1.21293 -1.93296 0
M  V30 2174 C 202.933 1.41637 -0.798599 0
M  V30 2175 O 204.117 1.56275 -1.05406 0
M  V30 2176 C 201.244 2.5721 -2.20365 0
M  V30 2177 C 200.29 2.53469 -3.4301 0
M  V30 2178 S 201.123 2.00315 -4.96623 0
M  V30 2179 C 202.279 3.37964 -5.26812 0
M  V30 2180 H 202.512 0.902393 -2.83274 0
M  V30 2181 H 200.045 0.354094 -1.50285 0
M  V30 2182 H 202.003 3.35427 -2.36641 0
M  V30 2183 H 200.664 2.85454 -1.31054 0
M  V30 2184 H 199.857 3.53518 -3.59223 0
M  V30 2185 H 199.459 1.83359 -3.25968 0
M  V30 2186 H 201.751 4.34066 -5.20185 0
M  V30 2187 H 202.694 3.26606 -6.28279 0
M  V30 2188 H 203.102 3.35028 -4.54331 0
M  V30 2189 N 202.5 1.5196 0.417844 0
M  V30 2190 C 203.73 1.69181 1.18581 0
M  V30 2191 C 204.138 0.397104 1.84986 0
M  V30 2192 O 203.481 -0.636011 1.72339 0
M  V30 2193 C 203.543 2.76497 2.29759 0
M  V30 2194 C 203.207 4.18514 1.83563 0
M  V30 2195 C 204.204 5.02648 1.32821 0
M  V30 2196 C 201.889 4.64708 1.90661 0
M  V30 2197 C 203.883 6.31044 0.897894 0
M  V30 2198 C 201.57 5.93096 1.47241 0
M  V30 2199 C 202.568 6.76093 0.968891 0
M  V30 2200 O 202.256 8.02078 0.540924 0
M  V30 2201 H 201.988 0.570457 0.362705 0
M  V30 2202 H 204.542 1.99249 0.498885 0
M  V30 2203 H 202.772 2.41786 3.01789 0
M  V30 2204 H 204.461 2.82403 2.91553 0
M  V30 2205 H 205.227 4.68154 1.26716 0
M  V30 2206 H 201.106 4.00216 2.28797 0
M  V30 2207 H 204.65 6.95776 0.504192 0
M  V30 2208 H 200.547 6.271 1.53022 0
M  V30 2209 H 201.315 8.15794 0.66502 0
M  V30 2210 N 203.978 -0.674533 1.42435 0
M  V30 2211 C 204.925 -1.78807 1.45934 0
M  V30 2212 C 205.895 -1.63157 0.311271 0
M  V30 2213 O 207.08 -1.83707 0.515383 0
M  V30 2214 C 204.22 -3.16839 1.36773 0
M  V30 2215 C 203.333 -3.43774 2.61617 0
M  V30 2216 C 202.468 -4.71536 2.44597 0
M  V30 2217 C 201.507 -4.91505 3.64814 0
M  V30 2218 N 200.644 -6.10508 3.46734 0
M  V30 2219 H 205.484 -1.75151 2.41093 0
M  V30 2220 H 203.021 -0.85504 1.19697 0
M  V30 2221 H 204.979 -3.96606 1.29459 0
M  V30 2222 H 203.609 -3.19619 0.452089 0
M  V30 2223 H 202.661 -2.58259 2.79297 0
M  V30 2224 H 203.973 -3.54423 3.50978 0
M  V30 2225 H 203.127 -5.59393 2.3487 0
M  V30 2226 H 201.866 -4.6317 1.52726 0
M  V30 2227 H 200.871 -4.0209 3.74972 0
M  V30 2228 H 202.096 -5.01716 4.57665 0
M  V30 2229 H 200.042 -6.03315 2.5758 0
M  V30 2230 H 199.959 -6.2202 4.29682 0
M  V30 2231 H 201.227 -7.01044 3.40819 0
M  V30 2232 N 205.456 -1.28612 -0.910864 0
M  V30 2233 C 206.704 -1.15705 -1.65701 0
M  V30 2234 C 207.025 0.29416 -1.92769 0
M  V30 2235 O 206.295 1.20331 -1.54588 0
M  V30 2236 H 204.875 -0.425216 -0.614167 0
M  V30 2237 H 207.537 -1.61381 -1.0928 0
M  V30 2238 H 206.633 -1.6988 -2.61815 0
M  V30 2239 N 206.934 1.1197 -1.10907 0
M  V30 2240 C 207.881 2.17846 -0.762345 0
M  V30 2241 C 208.851 1.63995 0.263599 0
M  V30 2242 O 210.036 1.90273 0.141773 0
M  V30 2243 C 207.176 3.44487 -0.205651 0
M  V30 2244 C 206.289 4.12369 -1.28748 0
M  V30 2245 C 205.424 5.26674 -0.691919 0
M  V30 2246 C 204.463 5.86431 -1.75399 0
M  V30 2247 N 203.6 6.92142 -1.17833 0
M  V30 2248 H 208.44 2.46851 -1.6694 0
M  V30 2249 H 205.977 1.21188 -0.833776 0
M  V30 2250 H 207.935 4.16981 0.135037 0
M  V30 2251 H 206.565 3.15884 0.664613 0
M  V30 2252 H 205.617 3.38003 -1.74522 0
M  V30 2253 H 206.929 4.52844 -2.09125 0
M  V30 2254 H 206.083 6.05953 -0.300963 0
M  V30 2255 H 204.822 4.8749 0.143232 0
M  V30 2256 H 203.827 5.05835 -2.15432 0
M  V30 2257 H 205.052 6.27685 -2.59208 0
M  V30 2258 H 202.998 6.54985 -0.364725 0
M  V30 2259 H 202.915 7.31242 -1.91887 0
M  V30 2260 H 204.183 7.75237 -0.81408 0
M  V30 2261 N 208.412 0.89855 1.29475 0
M  V30 2262 C 209.359 0.373819 2.27753 0
M  V30 2263 C 210.329 -0.543444 1.56958 0
M  V30 2264 O 211.514 -0.468934 1.84948 0
M  V30 2265 C 208.654 -0.393648 3.42848 0
M  V30 2266 C 207.767 0.554379 4.28428 0
M  V30 2267 C 206.902 -0.230026 5.30702 0
M  V30 2268 C 205.941 0.712599 6.07938 0
M  V30 2269 N 205.078 -0.0373283 7.0209 0
M  V30 2270 H 209.918 1.21699 2.72017 0
M  V30 2271 H 207.455 0.611456 1.33789 0
M  V30 2272 H 209.413 -0.85466 4.08352 0
M  V30 2273 H 208.043 -1.20128 2.99615 0
M  V30 2274 H 207.095 1.13391 3.63107 0
M  V30 2275 H 208.407 1.27597 4.82204 0
M  V30 2276 H 207.561 -0.752288 6.02018 0
M  V30 2277 H 206.3 -0.984758 4.77654 0
M  V30 2278 H 205.305 1.24637 5.35486 0
M  V30 2279 H 206.53 1.46664 6.63074 0
M  V30 2280 H 204.476 -0.774348 6.51414 0
M  V30 2281 H 204.393 0.624374 7.53417 0
M  V30 2282 H 205.661 -0.539891 7.77628 0
M  V30 2283 N 209.89 -1.43072 0.660911 0
M  V30 2284 C 211.306 -1.56169 0.329173 0
M  V30 2285 C 211.506 -1.64317 -1.16629 0
M  V30 2286 O 210.562 -1.60245 -1.95135 0
M  V30 2287 C 211.875 -2.81873 1.04729 0
M  V30 2288 C 213.423 -2.95627 1.02828 0
M  V30 2289 C 213.898 -4.24174 1.72744 0
M  V30 2290 N 215.389 -4.31055 1.69545 0
M  V30 2291 C 216.124 -5.29304 2.20511 0
M  V30 2292 N 215.62 -6.33786 2.79799 0
M  V30 2293 N 217.413 -5.21008 2.10966 0
M  V30 2294 H 209.564 -1.36027 1.63127 0
M  V30 2295 H 211.827 -0.653823 0.686454 0
M  V30 2296 H 211.533 -2.81942 2.10242 0
M  V30 2297 H 211.407 -3.72338 0.603702 0
M  V30 2298 H 213.794 -2.95094 -0.0184742 0
M  V30 2299 H 213.875 -2.06431 1.51063 0
M  V30 2300 H 213.519 -4.25467 2.7738 0
M  V30 2301 H 213.449 -5.1228 1.2197 0
M  V30 2302 H 215.94 -3.56174 1.26288 0
M  V30 2303 H 216.253 -7.05086 3.16344 0
M  V30 2304 H 214.598 -6.34387 2.83863 0
M  V30 2305 H 217.789 -4.38301 1.64347 0
M  V30 2306 H 217.962 -5.97416 2.50993 0
M  V30 2307 N 211.368 -0.403325 -1.52352 0
M  V30 2308 C 212.318 0.442244 -2.2367 0
M  V30 2309 C 213.302 1.01823 -1.24583 0
M  V30 2310 O 214.494 0.942005 -1.49851 0
M  V30 2311 C 211.623 1.5615 -3.05732 0
M  V30 2312 C 210.709 0.996575 -4.12225 0
M  V30 2313 N 211.1 0.157804 -5.05554 0
M  V30 2314 C 209.398 1.26767 -4.27605 0
M  V30 2315 C 210.099 -0.155853 -5.81491 0
M  V30 2316 N 209.075 0.451775 -5.41719 0
M  V30 2317 H 212.877 -0.204964 -2.93184 0
M  V30 2318 H 210.391 -0.213418 -1.60992 0
M  V30 2319 H 212.388 2.17981 -3.55373 0
M  V30 2320 H 211.048 2.21139 -2.37755 0
M  V30 2321 H 212.059 -0.206049 -5.1749 0
M  V30 2322 H 208.736 1.91757 -3.70858 0
M  V30 2323 H 210.126 -0.836329 -6.66675 0
M  V30 2324 N 212.846 1.57033 -0.133567 0
M  V30 2325 C 213.756 2.19632 0.824564 0
M  V30 2326 C 214.772 1.17666 1.28182 0
M  V30 2327 O 215.948 1.50193 1.3418 0
M  V30 2328 C 213.013 2.79499 2.05137 0
M  V30 2329 C 212.074 3.96548 1.64464 0
M  V30 2330 C 211.307 4.5355 2.81297 0
M  V30 2331 O 211.53 4.09438 3.97136 0
M  V30 2332 O 210.464 5.44018 2.57542 0
M  V30 2333 H 214.29 3.01991 0.321766 0
M  V30 2334 H 211.875 1.49112 0.0927889 0
M  V30 2335 H 213.757 3.17602 2.7696 0
M  V30 2336 H 212.432 2.00162 2.54395 0
M  V30 2337 H 211.339 3.63186 0.897048 0
M  V30 2338 H 212.672 4.77364 1.19934 0
M  V30 2339 N 214.325 -0.140222 1.56975 0
M  V30 2340 C 215.258 -1.20266 1.93936 0
M  V30 2341 C 216.236 -1.41212 0.806099 0
M  V30 2342 O 217.42 -1.55713 1.06234 0
M  V30 2343 C 214.547 -2.56037 2.21726 0
M  V30 2344 C 213.593 -2.51646 3.44349 0
M  V30 2345 S 214.426 -1.97678 4.97678 0
M  V30 2346 C 215.582 -3.35165 5.28597 0
M  V30 2347 H 215.815 -0.887358 2.83749 0
M  V30 2348 H 213.348 -0.346119 1.50471 0
M  V30 2349 H 215.306 -3.34167 2.38416 0
M  V30 2350 H 213.967 -2.84755 1.32566 0
M  V30 2351 H 213.16 -3.51608 3.61092 0
M  V30 2352 H 212.762 -1.81628 3.26936 0
M  V30 2353 H 215.054 -4.31302 5.2248 0
M  V30 2354 H 215.997 -3.23269 6.30002 0
M  V30 2355 H 216.405 -3.32614 4.56101 0
M  V30 2356 N 215.803 -1.52179 -0.40978 0
M  V30 2357 C 217.214 -1.58377 -0.988615 0
M  V30 2358 C 217.565 -0.423879 -1.91566 0
M  V30 2359 O 216.69 0.455844 -2.11544 0
M  V30 2360 C 217.285 -2.87044 -1.79976 0
M  V30 2361 C 215.844 -2.95722 -2.32863 0
M  V30 2362 C 214.991 -2.53309 -1.12828 0
M  V30 2363 H 217.942 -1.57558 -0.190039 0
M  V30 2364 H 217.963 -2.7236 -2.65707 0
M  V30 2365 H 217.475 -3.71444 -1.12478 0
M  V30 2366 H 215.576 -2.15814 -3.03735 0
M  V30 2367 H 215.689 -3.99951 -2.63773 0
M  V30 2368 H 214.053 -2.07142 -1.48204 0
M  V30 2369 H 214.836 -3.40082 -0.46897 0
M  V30 2370 N 217.281 0.66697 -1.42791 0
M  V30 2371 C 218.692 1.2478 -1.38877 0
M  V30 2372 C 219.043 1.96012 -0.0859426 0
M  V30 2373 O 218.168 2.00463 0.815081 0
M  V30 2374 C 218.763 2.26938 -2.51564 0
M  V30 2375 C 217.322 2.80529 -2.50959 0
M  V30 2376 C 216.469 1.54965 -2.29959 0
M  V30 2377 H 219.42 0.459853 -1.51892 0
M  V30 2378 H 219.441 3.08834 -2.22265 0
M  V30 2379 H 218.953 1.75065 -3.46372 0
M  V30 2380 H 217.054 3.36502 -1.59991 0
M  V30 2381 H 217.167 3.29012 -3.48265 0
M  V30 2382 H 215.531 1.81817 -1.78366 0
M  V30 2383 H 216.314 1.05047 -3.26833 0
M  V30 2384 N 218.759 1.29093 0.90403 0
M  V30 2385 C 219.709 1.10482 1.99443 0
M  V30 2386 C 220.693 0.0255401 1.6088 0
M  V30 2387 O 221.885 0.24677 1.75271 0
M  V30 2388 C 219.014 0.778882 3.34348 0
M  V30 2389 C 218.1 1.89749 3.79284 0
M  V30 2390 N 218.491 3.14045 3.96497 0
M  V30 2391 C 216.789 1.78955 4.08523 0
M  V30 2392 C 217.49 3.86996 4.34292 0
M  V30 2393 N 216.466 3.14909 4.43095 0
M  V30 2394 H 220.268 2.04778 2.10815 0
M  V30 2395 H 217.782 1.20155 1.09255 0
M  V30 2396 H 219.779 0.62661 4.12164 0
M  V30 2397 H 218.439 -0.156205 3.24324 0
M  V30 2398 H 219.45 3.49548 3.82148 0
M  V30 2399 H 216.127 0.926886 4.07081 0
M  V30 2400 H 217.517 4.93941 4.55491 0
M  V30 2401 N 220.237 -1.11381 1.11499 0
M  V30 2402 C 221.486 -1.82494 0.858993 0
M  V30 2403 C 221.799 -1.85605 -0.617278 0
M  V30 2404 O 223.005 -2.52824 -0.989552 0
M  V30 2405 C 221.461 -3.27745 1.48699 0
M  V30 2406 C 221.069 -3.32961 2.99735 0
M  V30 2407 C 222.813 -4.03754 1.31085 0
M  V30 2408 C 220.72 -4.72612 3.55516 0
M  V30 2409 H 219.65 -0.683802 0.317696 0
M  V30 2410 H 222.301 -1.25331 1.34031 0
M  V30 2411 H 220.683 -3.84844 0.933339 0
M  V30 2412 H 221.857 -2.85741 3.61509 0
M  V30 2413 H 220.172 -2.70433 3.16631 0
M  V30 2414 H 222.769 -5.06891 1.70192 0
M  V30 2415 H 223.112 -4.15527 0.253496 0
M  V30 2416 H 223.645 -3.53043 1.83318 0
M  V30 2417 H 220.384 -4.66036 4.60967 0
M  V30 2418 H 219.904 -5.2024 2.98513 0
M  V30 2419 H 221.583 -5.4157 3.53992 0
M  V30 2420 N 221.715 -0.905404 -1.28997 0
M  V30 2421 C 222.945 -0.549049 -1.99171 0
M  V30 2422 C 223.353 0.87203 -1.67906 0
M  V30 2423 O 222.696 1.58796 -0.923561 0
M  V30 2424 C 222.758 -0.668306 -3.53234 0
M  V30 2425 C 222.422 -2.0574 -4.08069 0
M  V30 2426 C 223.419 -3.0292 -4.22534 0
M  V30 2427 C 221.104 -2.36833 -4.42962 0
M  V30 2428 C 223.098 -4.29314 -4.71135 0
M  V30 2429 C 220.785 -3.63467 -4.91258 0
M  V30 2430 C 221.783 -4.59522 -5.053 0
M  V30 2431 O 221.471 -5.83907 -5.52546 0
M  V30 2432 H 221.203 -0.208784 -0.64295 0
M  V30 2433 H 223.757 -1.21836 -1.65363 0
M  V30 2434 H 221.987 0.0580547 -3.86656 0
M  V30 2435 H 223.676 -0.320273 -4.04634 0
M  V30 2436 H 224.442 -2.80216 -3.95859 0
M  V30 2437 H 220.321 -1.62824 -4.31288 0
M  V30 2438 H 223.865 -5.04293 -4.8201 0
M  V30 2439 H 219.762 -3.86 -5.17372 0
M  V30 2440 H 220.53 -5.86578 -5.70849 0
M  V30 2441 N 223.193 1.4272 -0.668489 0
M  V30 2442 C 224.156 2.292 0.00448567 0
M  V30 2443 C 225.156 1.43001 0.735339 0
M  V30 2444 O 226.346 1.64461 0.57429 0
M  V30 2445 C 223.478 3.25375 1.01705 0
M  V30 2446 H 224.671 2.90199 -0.756608 0
M  V30 2447 H 222.224 1.50254 -0.430506 0
M  V30 2448 H 222.959 2.69301 1.80686 0
M  V30 2449 H 222.744 3.88944 0.496463 0
M  V30 2450 H 224.234 3.90245 1.48655 0
M  V30 2451 N 224.671 0.411399 1.52136 0
M  V30 2452 C 225.92 -0.165009 2.01024 0
M  V30 2453 C 226.233 -1.4603 1.30133 0
M  V30 2454 O 227.439 -2.1181 1.69849 0
M  V30 2455 C 225.895 -0.344618 3.58246 0
M  V30 2456 C 225.503 0.938716 4.38055 0
M  V30 2457 C 227.247 -0.876195 4.15359 0
M  V30 2458 C 225.154 0.726172 5.86925 0
M  V30 2459 H 224.084 -0.0654407 0.751155 0
M  V30 2460 H 226.735 0.537192 1.75461 0
M  V30 2461 H 225.117 -1.10921 3.80148 0
M  V30 2462 H 226.291 1.70963 4.27912 0
M  V30 2463 H 224.606 1.39688 3.92271 0
M  V30 2464 H 227.203 -1.05128 5.24263 0
M  V30 2465 H 227.546 -1.85152 3.7286 0
M  V30 2466 H 228.079 -0.170607 3.97434 0
M  V30 2467 H 224.818 1.67312 6.33788 0
M  V30 2468 H 224.338 -0.00540283 5.998 0
M  V30 2469 H 226.017 0.369231 6.45946 0
M  V30 2470 N 226.149 -1.5696 0.141893 0
M  V30 2471 C 227.377 -2.00322 -0.517579 0
M  V30 2472 C 227.792 -1.02193 -1.58752 0
M  V30 2473 O 227.149 -0.0181619 -1.82491 0
M  V30 2474 C 227.2 -3.43618 -1.12289 0
M  V30 2475 O 226.921 -4.37995 -0.0956929 0
M  V30 2476 C 228.422 -4.02231 -1.86347 0
M  V30 2477 H 225.642 -0.657243 -0.135177 0
M  V30 2478 H 228.186 -2.03146 0.234973 0
M  V30 2479 H 226.341 -3.41662 -1.82609 0
M  V30 2480 H 226.755 -5.21729 -0.538469 0
M  V30 2481 H 228.229 -5.04509 -2.23997 0
M  V30 2482 H 228.706 -3.42655 -2.74744 0
M  V30 2483 H 229.312 -4.07802 -1.20737 0
M  V30 2484 N 227.627 0.131896 -1.57047 0
M  V30 2485 C 228.904 0.871495 -1.75112 0
M  V30 2486 C 229.284 1.9866 -0.713949 0
M  V30 2487 O 228.632 2.26965 0.264447 0
M  V30 2488 C 228.842 1.40007 -3.19686 0
M  V30 2489 C 230.19 1.85752 -3.81813 0
M  V30 2490 O 231.214 1.49715 -3.23209 0
M  V30 2491 O 230.073 2.5226 -4.84796 0
M  V30 2492 H 227.167 0.412919 -0.716538 0
M  V30 2493 H 229.713 0.116641 -1.69299 0
M  V30 2494 H 228.485 0.599404 -3.86682 0
M  V30 2495 H 228.108 2.218 -3.29986 0
M  V30 2496 N 229.106 1.52395 0.401703 0
M  V30 2497 C 230.334 1.70676 1.16949 0
M  V30 2498 C 230.749 0.419503 1.8408 0
M  V30 2499 O 230.106 -0.605061 1.72178 0
M  V30 2500 C 230.157 2.84753 2.22706 0
M  V30 2501 O 229.878 4.08495 1.58314 0
M  V30 2502 C 231.379 3.14608 3.12309 0
M  V30 2503 H 228.599 0.571787 0.351142 0
M  V30 2504 H 231.143 1.98987 0.471652 0
M  V30 2505 H 229.298 2.58941 2.88147 0
M  V30 2506 H 229.712 4.72117 2.28485 0
M  V30 2507 H 231.186 3.97923 3.82572 0
M  V30 2508 H 231.663 2.28464 3.75101 0
M  V30 2509 H 232.269 3.42212 2.52529 0
M  V30 2510 N 230.584 -0.659388 1.43143 0
M  V30 2511 C 231.547 -1.75432 1.47501 0
M  V30 2512 C 232.547 -1.56707 0.360512 0
M  V30 2513 O 233.737 -1.62717 0.622002 0
M  V30 2514 C 230.869 -3.14239 1.32162 0
M  V30 2515 H 232.062 -1.7295 2.45006 0
M  V30 2516 H 229.615 -0.870469 1.29817 0
M  V30 2517 H 230.35 -3.22336 0.356401 0
M  V30 2518 H 230.135 -3.29235 2.12948 0
M  V30 2519 H 231.625 -3.94094 1.3813 0
M  V30 2520 N 232.062 -1.29571 -0.897171 0
M  V30 2521 C 233.292 -1.20408 -1.67886 0
M  V30 2522 C 233.7 0.237429 -1.87704 0
M  V30 2523 O 233.043 1.17048 -1.41582 0
M  V30 2524 C 233.105 -1.84887 -3.08314 0
M  V30 2525 C 232.769 -3.34189 -3.11716 0
M  V30 2526 C 233.766 -4.30374 -2.91675 0
M  V30 2527 C 231.451 -3.75431 -3.33701 0
M  V30 2528 C 233.445 -5.65776 -2.93557 0
M  V30 2529 C 231.132 -5.10955 -3.35214 0
M  V30 2530 C 232.13 -6.05938 -3.15164 0
M  V30 2531 O 231.818 -7.38987 -3.1647 0
M  V30 2532 H 231.55 -0.418289 -0.531046 0
M  V30 2533 H 234.104 -1.71514 -1.13014 0
M  V30 2534 H 232.334 -1.28295 -3.64798 0
M  V30 2535 H 234.023 -1.70011 -3.6858 0
M  V30 2536 H 234.789 -3.99844 -2.74499 0
M  V30 2537 H 230.668 -3.01953 -3.48347 0
M  V30 2538 H 234.212 -6.39889 -2.77826 0
M  V30 2539 H 230.109 -5.4113 -3.51922 0
M  V30 2540 H 230.877 -7.47823 -3.3272 0
M  V30 2541 N 233.54 1.10788 -1.12088 0
M  V30 2542 C 234.956 1.34691 -0.856186 0
M  V30 2543 C 235.156 1.94791 0.515615 0
M  V30 2544 O 234.212 2.18524 1.26505 0
M  V30 2545 C 235.525 2.27208 -1.9697 0
M  V30 2546 C 237.073 2.40755 -2.00016 0
M  V30 2547 C 237.548 3.36598 -3.1059 0
M  V30 2548 N 239.039 3.44164 -3.10008 0
M  V30 2549 C 239.774 4.18284 -3.92206 0
M  V30 2550 N 239.27 4.95322 -4.84384 0
M  V30 2551 N 241.063 4.13865 -3.80357 0
M  V30 2552 H 233.214 0.70144 -2.00483 0
M  V30 2553 H 235.477 0.371405 -0.872217 0
M  V30 2554 H 235.183 1.90251 -2.958 0
M  V30 2555 H 235.057 3.27485 -1.87172 0
M  V30 2556 H 237.444 2.76982 -1.01808 0
M  V30 2557 H 237.525 1.40305 -2.13888 0
M  V30 2558 H 237.169 3.01096 -4.09028 0
M  V30 2559 H 237.099 4.36918 -2.93956 0
M  V30 2560 H 239.59 2.8922 -2.43228 0
M  V30 2561 H 239.903 5.49267 -5.43623 0
M  V30 2562 H 238.248 4.94459 -4.884 0
M  V30 2563 H 241.439 3.52773 -3.07683 0
M  V30 2564 H 241.612 4.71372 -4.44649 0
M  V30 2565 N 235.018 0.912232 1.28515 0
M  V30 2566 C 236.243 0.559774 1.99703 0
M  V30 2567 C 236.668 -0.851393 1.67729 0
M  V30 2568 O 236.026 -1.56875 0.908834 0
M  V30 2569 C 236.074 0.773874 3.52198 0
M  V30 2570 O 235.178 -0.167842 4.12058 0
M  V30 2571 H 234.519 0.21723 0.627461 0
M  V30 2572 H 237.049 1.22725 1.63706 0
M  V30 2573 H 237.059 0.683386 4.02236 0
M  V30 2574 H 235.734 1.80261 3.74805 0
M  V30 2575 H 234.311 -0.0287509 3.72889 0
M  V30 2576 N 236.496 -1.42363 0.676048 0
M  V30 2577 C 237.429 -2.28141 -0.0516916 0
M  V30 2578 C 238.407 -1.41135 -0.807439 0
M  V30 2579 O 239.591 -1.70573 -0.802305 0
M  V30 2580 C 236.718 -3.21007 -1.08039 0
M  V30 2581 C 235.764 -4.24426 -0.420076 0
M  V30 2582 S 236.597 -5.29134 0.823246 0
M  V30 2583 C 237.753 -6.25566 -0.204344 0
M  V30 2584 H 237.986 -2.89515 0.675884 0
M  V30 2585 H 235.519 -1.47211 0.465635 0
M  V30 2586 H 237.477 -3.75048 -1.66881 0
M  V30 2587 H 236.138 -2.58766 -1.78042 0
M  V30 2588 H 235.331 -4.89596 -1.19633 0
M  V30 2589 H 234.933 -3.7388 0.0947845 0
M  V30 2590 H 237.225 -6.69098 -1.06369 0
M  V30 2591 H 238.168 -7.06895 0.412915 0
M  V30 2592 H 238.576 -5.61811 -0.55038 0
M  V30 2593 N 237.974 -0.419461 -1.51915 0
M  V30 2594 C 238.907 0.445751 -2.23804 0
M  V30 2595 C 239.885 1.03951 -1.25031 0
M  V30 2596 O 241.069 1.08541 -1.54114 0
M  V30 2597 C 238.196 1.61964 -2.97465 0
M  V30 2598 C 237.242 1.14828 -4.10751 0
M  V30 2599 S 238.075 0.104938 -5.35397 0
M  V30 2600 C 239.231 1.28391 -6.1259 0
M  V30 2601 H 239.464 -0.164627 -2.96844 0
M  V30 2602 H 236.997 -0.203833 -1.53049 0
M  V30 2603 H 238.955 2.29271 -3.40507 0
M  V30 2604 H 237.616 2.20139 -2.24048 0
M  V30 2605 H 236.809 2.02561 -4.61503 0
M  V30 2606 H 236.411 0.553712 -3.69878 0
M  V30 2607 H 238.703 2.20563 -6.40592 0
M  V30 2608 H 239.646 0.816724 -7.03374 0
M  V30 2609 H 240.054 1.51439 -5.43807 0
M  V30 2610 N 239.452 1.56882 -0.150215 0
M  V30 2611 C 240.384 2.14057 0.819286 0
M  V30 2612 C 241.397 1.09082 1.20851 0
M  V30 2613 O 242.586 1.36347 1.15203 0
M  V30 2614 C 239.686 2.65102 2.11127 0
M  V30 2615 C 238.859 3.94511 1.88891 0
M  V30 2616 C 237.918 4.30834 3.02107 0
M  V30 2617 O 236.944 4.99099 2.73659 0
M  V30 2618 N 238.146 3.90676 4.29363 0
M  V30 2619 H 240.911 2.97871 0.330618 0
M  V30 2620 H 238.472 1.61866 0.0332538 0
M  V30 2621 H 240.464 2.86411 2.85921 0
M  V30 2622 H 239.034 1.85994 2.51247 0
M  V30 2623 H 238.254 3.81795 0.981152 0
M  V30 2624 H 239.542 4.7907 1.71376 0
M  V30 2625 H 238.94 3.35677 4.55343 0
M  V30 2626 H 237.497 4.1703 5.00928 0
M  V30 2627 N 240.93 -0.123565 1.57115 0
M  V30 2628 C 242.207 -0.862196 1.75572 0
M  V30 2629 C 242.587 -1.98279 0.724475 0
M  V30 2630 O 241.935 -2.27102 -0.252407 0
M  V30 2631 C 242.145 -1.38309 3.20424 0
M  V30 2632 C 243.493 -1.83724 3.82793 0
M  V30 2633 O 244.517 -1.47999 3.23998 0
M  V30 2634 O 243.376 -2.49685 4.86127 0
M  V30 2635 H 240.47 -0.409113 0.718718 0
M  V30 2636 H 243.016 -0.107661 1.69358 0
M  V30 2637 H 241.788 -0.578889 3.86994 0
M  V30 2638 H 241.411 -2.20046 3.31158 0
M  V30 2639 N 242.408 -1.52605 -0.393616 0
M  V30 2640 C 243.824 -1.41753 -0.733357 0
M  V30 2641 C 244.024 -0.534293 -1.94287 0
M  V30 2642 O 243.08 -0.0059787 -2.52499 0
M  V30 2643 C 244.393 -2.84531 -0.972772 0
M  V30 2644 C 245.941 -2.93978 -1.07453 0
M  V30 2645 C 246.416 -4.37756 -1.3466 0
M  V30 2646 N 247.907 -4.4106 -1.41492 0
M  V30 2647 C 248.642 -5.49387 -1.642 0
M  V30 2648 N 248.138 -6.67806 -1.8441 0
M  V30 2649 N 249.931 -5.36923 -1.66342 0
M  V30 2650 H 242.082 -2.08555 0.402328 0
M  V30 2651 H 244.345 -0.940654 0.117789 0
M  V30 2652 H 244.051 -3.51353 -0.156204 0
M  V30 2653 H 243.925 -3.26508 -1.88871 0
M  V30 2654 H 246.312 -2.27326 -1.88167 0
M  V30 2655 H 246.393 -2.55435 -0.136605 0
M  V30 2656 H 246.037 -5.04972 -0.544581 0
M  V30 2657 H 245.967 -4.73848 -2.2973 0
M  V30 2658 H 248.458 -3.55705 -1.27601 0
M  V30 2659 H 248.771 -7.46141 -2.01231 0
M  V30 2660 H 247.116 -6.70843 -1.81644 0
M  V30 2661 H 250.307 -4.43381 -1.50102 0
M  V30 2662 H 250.48 -6.21416 -1.837 0
M  V30 2663 N 243.887 0.651787 -1.4349 0
M  V30 2664 C 244.797 1.79368 -1.5121 0
M  V30 2665 C 245.813 1.69361 -0.399093 0
M  V30 2666 O 246.989 1.90505 -0.653431 0
M  V30 2667 C 244.054 3.15653 -1.43401 0
M  V30 2668 C 243.115 3.37446 -2.65384 0
M  V30 2669 C 242.348 4.67229 -2.57939 0
M  V30 2670 O 242.571 5.46676 -1.62792 0
M  V30 2671 O 241.505 4.90773 -3.48462 0
M  V30 2672 H 245.331 1.7581 -2.47638 0
M  V30 2673 H 242.916 0.810447 -1.25507 0
M  V30 2674 H 244.798 3.96935 -1.41494 0
M  V30 2675 H 243.473 3.19798 -0.501085 0
M  V30 2676 H 242.38 2.55923 -2.72863 0
M  V30 2677 H 243.713 3.38148 -3.57654 0
M  V30 2678 N 245.365 1.30045 0.890287 0
M  V30 2679 C 246.642 1.09227 1.62262 0
M  V30 2680 C 247.022 -0.360305 2.08002 0
M  V30 2681 O 246.37 -1.35084 1.84295 0
M  V30 2682 C 246.58 2.08835 2.79623 0
M  V30 2683 C 247.928 2.40266 3.50082 0
M  V30 2684 O 248.952 2.07104 2.89804 0
M  V30 2685 O 247.811 2.96967 4.58773 0
M  V30 2686 H 244.905 0.419132 0.712922 0
M  V30 2687 H 247.451 1.41451 0.937529 0
M  V30 2688 H 246.223 3.06633 2.43089 0
M  V30 2689 H 245.846 1.77397 3.55832 0
M  V30 2690 N 246.843 -1.10192 1.12674 0
M  V30 2691 C 247.775 -2.16418 0.754701 0
M  V30 2692 C 248.788 -1.61309 -0.21986 0
M  V30 2693 O 249.977 -1.785 -0.000826841 0
M  V30 2694 C 247.077 -3.38762 0.096698 0
M  V30 2695 C 246.25 -4.23307 1.10136 0
M  V30 2696 C 245.309 -5.24092 0.470513 0
M  V30 2697 O 244.335 -5.57906 1.12824 0
M  V30 2698 N 245.537 -5.75491 -0.760948 0
M  V30 2699 H 248.302 -2.48943 1.66875 0
M  V30 2700 H 245.863 -1.25834 1.01869 0
M  V30 2701 H 247.855 -4.03291 -0.337384 0
M  V30 2702 H 246.425 -3.04192 -0.720153 0
M  V30 2703 H 245.645 -3.55036 1.71299 0
M  V30 2704 H 246.933 -4.76624 1.78064 0
M  V30 2705 H 246.331 -5.50222 -1.31424 0
M  V30 2706 H 244.888 -6.41792 -1.13781 0
M  V30 2707 N 248.321 -0.919034 -1.28029 0
M  V30 2708 C 249.546 -0.570357 -1.99403 0
M  V30 2709 C 249.971 0.842486 -1.68178 0
M  V30 2710 O 249.329 1.56391 -0.917141 0
M  V30 2711 C 249.377 -0.792541 -3.51783 0
M  V30 2712 O 248.481 0.145988 -4.12142 0
M  V30 2713 H 247.822 -0.220555 -0.6263 0
M  V30 2714 H 250.352 -1.23592 -1.63053 0
M  V30 2715 H 250.362 -0.704708 -4.01868 0
M  V30 2716 H 249.037 -1.82247 -3.73844 0
M  V30 2717 H 247.614 0.00897528 -3.72899 0
M  V30 2718 N 249.799 1.42003 -0.683588 0
M  V30 2719 C 251.048 2.00638 -0.206681 0
M  V30 2720 C 251.361 1.5472 1.19671 0
M  V30 2721 O 252.567 2.05833 1.77045 0
M  V30 2722 C 251.023 3.58487 -0.318632 0
M  V30 2723 C 250.631 4.1339 -1.72663 0
M  V30 2724 C 252.375 4.24384 0.0991141 0
M  V30 2725 C 250.282 5.63633 -1.79087 0
M  V30 2726 H 249.212 0.750408 -0.0735107 0
M  V30 2727 H 251.863 1.62624 -0.850048 0
M  V30 2728 H 250.245 3.94047 0.392781 0
M  V30 2729 H 251.419 3.89273 -2.46583 0
M  V30 2730 H 249.734 3.59976 -2.09299 0
M  V30 2731 H 252.331 5.34652 0.0713833 0
M  V30 2732 H 252.674 4.00505 1.13586 0
M  V30 2733 H 253.207 3.93816 -0.561599 0
M  V30 2734 H 249.946 5.92323 -2.80774 0
M  V30 2735 H 249.466 5.89714 -1.09535 0
M  V30 2736 H 251.145 6.28201 -1.5483 0
M  V30 2737 N 251.277 0.427512 1.51691 0
M  V30 2738 C 252.207 -0.3796 2.30394 0
M  V30 2739 C 253.188 -1.02982 1.35384 0
M  V30 2740 O 254.373 -1.03534 1.643 0
M  V30 2741 C 251.503 -1.48649 3.1388 0
M  V30 2742 C 250.457 -0.960294 4.17088 0
M  V30 2743 C 249.783 -2.16219 4.89033 0
M  V30 2744 C 251.083 -0.00153679 5.223 0
M  V30 2745 H 252.777 0.277164 2.98114 0
M  V30 2746 H 250.323 0.134739 1.43368 0
M  V30 2747 H 252.276 -2.05826 3.67714 0
M  V30 2748 H 251 -2.1714 2.43962 0
M  V30 2749 H 249.659 -0.410806 3.64291 0
M  V30 2750 H 249.307 -2.83307 4.15628 0
M  V30 2751 H 249.007 -1.81654 5.58816 0
M  V30 2752 H 250.531 -2.73968 5.45687 0
M  V30 2753 H 251.945 -0.482687 5.71264 0
M  V30 2754 H 250.342 0.256199 5.99553 0
M  V30 2755 H 251.412 0.938174 4.75738 0
M  V30 2756 N 252.755 -1.56801 0.158532 0
M  V30 2757 C 253.995 -1.98383 -0.49229 0
M  V30 2758 C 254.359 -1.04184 -1.61275 0
M  V30 2759 O 255.56 -1.34856 -2.32524 0
M  V30 2760 C 253.831 -3.4385 -0.974766 0
M  V30 2761 S 255.39 -4.07459 -1.62857 0
M  V30 2762 H 252.208 -0.693041 -0.158794 0
M  V30 2763 H 254.81 -1.93856 0.252974 0
M  V30 2764 H 253.514 -4.10131 -0.148688 0
M  V30 2765 H 253.045 -3.52115 -1.75438 0
M  V30 2766 H 255.06 -4.01458 -2.91627 0
M  V30 2767 N 254.233 0.115231 -1.57178 0
M  V30 2768 C 255.461 0.836437 -1.89239 0
M  V30 2769 C 255.876 1.73256 -0.750175 0
M  V30 2770 O 255.233 1.80357 0.278832 0
M  V30 2771 C 255.284 1.66671 -3.20785 0
M  V30 2772 O 255.005 0.806652 -4.3061 0
M  V30 2773 C 256.506 2.49274 -3.66575 0
M  V30 2774 H 253.726 0.240253 -0.626514 0
M  V30 2775 H 256.27 0.0984932 -2.04263 0
M  V30 2776 H 254.425 2.35737 -3.0742 0
M  V30 2777 H 254.839 1.37969 -5.06028 0
M  V30 2778 H 256.313 3.03055 -4.6137 0
M  V30 2779 H 256.79 3.26807 -2.93417 0
M  V30 2780 H 257.396 1.85443 -3.82741 0
M  V30 2781 N 255.711 1.52812 0.385517 0
M  V30 2782 C 256.959 1.67694 1.12797 0
M  V30 2783 C 257.28 0.421115 1.90399 0
M  V30 2784 O 256.55 -0.564551 1.87589 0
M  V30 2785 H 255.13 0.618155 0.419396 0
M  V30 2786 H 257.792 1.89938 0.436972 0
M  V30 2787 H 256.888 2.52896 1.82894 0
M  V30 2788 N 257.189 -0.644168 1.43834 0
M  V30 2789 C 258.099 -1.78563 1.52159 0
M  V30 2790 C 259.115 -1.69147 0.408069 0
M  V30 2791 O 260.291 -1.90156 0.663524 0
M  V30 2792 C 257.356 -3.14888 1.45073 0
M  V30 2793 C 256.417 -3.36034 2.6717 0
M  V30 2794 C 255.65 -4.65855 2.60413 0
M  V30 2795 O 255.873 -5.45805 1.65689 0
M  V30 2796 O 254.807 -4.88918 3.5106 0
M  V30 2797 H 258.633 -1.74494 2.48567 0
M  V30 2798 H 256.218 -0.80378 1.25935 0
M  V30 2799 H 258.1 -3.96179 1.43597 0
M  V30 2800 H 256.775 -3.19528 0.518037 0
M  V30 2801 H 255.682 -2.54472 2.74217 0
M  V30 2802 H 257.015 -3.36247 3.59442 0
M  V30 2803 N 258.668 -1.30515 -0.883378 0
M  V30 2804 C 259.893 -1.22487 -1.67367 0
M  V30 2805 C 260.318 0.208767 -1.86938 0
M  V30 2806 O 259.676 1.15015 -1.40148 0
M  V30 2807 C 259.724 -1.96041 -3.02655 0
M  V30 2808 O 258.828 -1.28859 -3.91751 0
M  V30 2809 H 258.169 -0.423573 -0.511353 0
M  V30 2810 H 260.699 -1.72362 -1.10239 0
M  V30 2811 H 260.709 -2.05124 -3.52687 0
M  V30 2812 H 259.384 -3.00307 -2.8773 0
M  V30 2813 H 257.961 -1.28141 -3.50192 0
M  V30 2814 N 260.146 1.09593 -1.13257 0
M  V30 2815 C 261.394 1.81375 -0.891492 0
M  V30 2816 C 261.715 1.86049 0.584009 0
M  V30 2817 O 260.985 1.34481 1.42449 0
M  V30 2818 H 259.565 0.671708 -0.326828 0
M  V30 2819 H 262.227 1.3256 -1.42877 0
M  V30 2820 H 261.323 2.84612 -1.28071 0
M  V30 2821 N 261.624 0.925811 1.2754 0
M  V30 2822 C 262.587 0.428129 2.25166 0
M  V30 2823 C 263.587 -0.452261 1.54309 0
M  V30 2824 O 264.777 -0.253608 1.72344 0
M  V30 2825 C 261.909 -0.384749 3.38722 0
M  V30 2826 H 263.102 1.29066 2.70706 0
M  V30 2827 H 260.655 0.706323 1.3943 0
M  V30 2828 H 261.39 -1.26618 2.98561 0
M  V30 2829 H 261.175 0.246454 3.91325 0
M  V30 2830 H 262.665 -0.723389 4.11287 0
M  V30 2831 N 263.102 -1.41638 0.69111 0
M  V30 2832 C 264.35 -2.00902 0.219758 0
M  V30 2833 C 264.671 -1.54994 -1.18329 0
M  V30 2834 O 263.941 -0.778628 -1.79762 0
M  V30 2835 H 262.521 -0.74289 0.0782558 0
M  V30 2836 H 265.183 -1.73327 0.891271 0
M  V30 2837 H 264.279 -3.11224 0.233708 0
M  V30 2838 N 264.58 -0.43555 -1.51462 0
M  V30 2839 C 265.527 0.376797 -2.27703 0
M  V30 2840 C 266.497 1.01838 -1.31219 0
M  V30 2841 O 267.682 1.03762 -1.60119 0
M  V30 2842 C 264.822 1.47301 -3.12084 0
M  V30 2843 C 263.935 0.849744 -4.2356 0
M  V30 2844 C 263.07 1.92086 -4.95254 0
M  V30 2845 C 262.109 1.27593 -5.98654 0
M  V30 2846 N 261.246 2.28833 -6.63762 0
M  V30 2847 H 266.086 -0.279734 -2.96684 0
M  V30 2848 H 263.623 -0.149795 -1.46335 0
M  V30 2849 H 265.581 2.11984 -3.59331 0
M  V30 2850 H 264.211 2.0992 -2.45221 0
M  V30 2851 H 263.263 0.0912529 -3.80291 0
M  V30 2852 H 264.575 0.338878 -4.97648 0
M  V30 2853 H 263.729 2.64435 -5.46039 0
M  V30 2854 H 262.468 2.46545 -4.20793 0
M  V30 2855 H 261.473 0.537893 -5.47162 0
M  V30 2856 H 262.698 0.738693 -6.7507 0
M  V30 2857 H 260.644 2.82375 -5.92115 0
M  V30 2858 H 260.561 1.82632 -7.33608 0
M  V30 2859 H 261.829 3.00671 -7.19178 0
M  V30 2860 N 266.058 1.56714 -0.166846 0
M  V30 2861 C 267.286 2.0112 0.485644 0
M  V30 2862 C 267.701 1.04705 1.57106 0
M  V30 2863 O 267.058 0.0471923 1.82439 0
M  V30 2864 C 267.109 3.45361 1.06808 0
M  V30 2865 O 266.83 4.38092 0.0259995 0
M  V30 2866 C 268.331 4.05145 1.79924 0
M  V30 2867 H 265.551 0.65931 0.124704 0
M  V30 2868 H 268.095 2.02746 -0.267262 0
M  V30 2869 H 266.25 3.44524 1.7715 0
M  V30 2870 H 266.664 5.22519 0.455398 0
M  V30 2871 H 268.138 5.08009 2.15942 0
M  V30 2872 H 268.615 3.46982 2.69258 0
M  V30 2873 H 269.221 4.09672 1.14234 0
M  V30 2874 N 267.536 -0.106894 1.57237 0
M  V30 2875 C 268.446 -1.14911 2.0453 0
M  V30 2876 C 269.462 -1.44592 0.96795 0
M  V30 2877 O 270.638 -1.55468 1.2803 0
M  V30 2878 C 267.703 -2.45272 2.45036 0
M  V30 2879 C 266.764 -2.22879 3.66911 0
M  V30 2880 C 265.997 -3.47024 4.05475 0
M  V30 2881 O 266.22 -4.54804 3.44252 0
M  V30 2882 O 265.154 -3.3731 4.98504 0
M  V30 2883 H 268.98 -0.777461 2.9358 0
M  V30 2884 H 266.565 -0.318563 1.45964 0
M  V30 2885 H 268.447 -3.22055 2.71769 0
M  V30 2886 H 267.122 -2.81886 1.59129 0
M  V30 2887 H 266.029 -1.43915 3.45311 0
M  V30 2888 H 267.362 -1.91163 4.53561 0
M  V30 2889 N 269.014 -1.53014 -0.377408 0
M  V30 2890 C 269.962 -1.7927 -1.48206 0
M  V30 2891 C 270.956 -0.661195 -1.55963 0
M  V30 2892 O 272.162 -0.843908 -1.58991 0
M  V30 2893 H 268.537 -0.567425 -0.493491 0
M  V30 2894 H 270.508 -2.71753 -1.2326 0
M  V30 2895 C 269.257 -1.98894 -2.85196 0
M  V30 2896 H 268.58 -2.85395 -2.79981 0
M  V30 2897 H 270.02 -2.21249 -3.61698 0
M  V30 2898 C 268.479 -0.764691 -3.28107 0
M  V30 2899 O 269.009 0.0523226 -4.01666 0
M  V30 2900 N 267.215 -0.591493 -2.84517 0
M  V30 2901 H 266.762 -1.25749 -2.24822 0
M  V30 2902 H 266.72 0.226253 -3.13585 0
M  V30 2903 N 270.492 0.636531 -1.44174 0
M  V30 2904 C 271.72 1.42353 -1.50144 0
M  V30 2905 C 272.135 1.88389 -0.124575 0
M  V30 2906 O 271.492 1.6051 0.868489 0
M  V30 2907 C 271.543 2.64744 -2.46156 0
M  V30 2908 O 271.264 2.20629 -3.7849 0
M  V30 2909 C 272.765 3.57929 -2.61537 0
M  V30 2910 H 269.985 0.436752 -0.5094 0
M  V30 2911 H 272.529 0.778933 -1.89084 0
M  V30 2912 H 270.684 3.25307 -2.10366 0
M  V30 2913 H 271.098 2.99938 -4.30276 0
M  V30 2914 H 272.572 4.40428 -3.32757 0
M  V30 2915 H 273.049 4.06382 -1.66585 0
M  V30 2916 H 273.655 3.03238 -2.98206 0
M  V30 2917 N 271.97 1.30982 0.876444 0
M  V30 2918 C 272.917 1.18085 1.98304 0
M  V30 2919 C 273.887 0.0682263 1.6596 0
M  V30 2920 O 275.072 0.239937 1.89285 0
M  V30 2921 C 272.212 0.887475 3.33493 0
M  V30 2922 C 271.325 2.08281 3.78475 0
M  V30 2923 C 270.46 1.72678 5.0235 0
M  V30 2924 C 269.499 2.88657 5.39762 0
M  V30 2925 N 268.636 2.53292 6.54819 0
M  V30 2926 H 273.476 2.1275 2.08666 0
M  V30 2927 H 271.013 1.05839 1.02159 0
M  V30 2928 H 272.971 0.697961 4.1132 0
M  V30 2929 H 271.601 -0.022315 3.22792 0
M  V30 2930 H 270.653 2.3833 2.96484 0
M  V30 2931 H 271.965 2.95108 4.02135 0
M  V30 2932 H 271.119 1.50151 5.87826 0
M  V30 2933 H 269.858 0.830327 4.8058 0
M  V30 2934 H 268.863 3.1184 4.52809 0
M  V30 2935 H 270.088 3.79002 5.63502 0
M  V30 2936 H 268.034 1.66163 6.34607 0
M  V30 2937 H 267.951 3.3365 6.7839 0
M  V30 2938 H 269.219 2.34143 7.43503 0
M  V30 2939 N 273.449 -1.08991 1.13837 0
M  V30 2940 C 274.396 -2.15748 0.819835 0
M  V30 2941 C 275.366 -1.64636 -0.220026 0
M  V30 2942 O 276.551 -1.90582 -0.0912757 0
M  V30 2943 C 273.691 -3.4382 0.296913 0
M  V30 2944 C 272.804 -4.0881 1.39636 0
M  V30 2945 C 271.939 -5.24655 0.831314 0
M  V30 2946 C 270.978 -5.81575 1.90886 0
M  V30 2947 N 270.115 -6.88774 1.36142 0
M  V30 2948 H 274.955 -2.42338 1.73426 0
M  V30 2949 H 272.492 -1.18935 0.865613 0
M  V30 2950 H 274.45 -4.17193 -0.0244339 0
M  V30 2951 H 273.08 -3.17535 -0.580628 0
M  V30 2952 H 272.132 -3.33258 1.83422 0
M  V30 2953 H 273.444 -4.47141 2.21058 0
M  V30 2954 H 272.598 -6.04942 0.461515 0
M  V30 2955 H 271.337 -4.87698 -0.013932 0
M  V30 2956 H 270.342 -4.99946 2.28767 0
M  V30 2957 H 271.567 -6.20592 2.75758 0
M  V30 2958 H 269.513 -6.53788 0.538254 0
M  V30 2959 H 269.43 -7.25898 2.11208 0
M  V30 2960 H 270.698 -7.72806 1.01933 0
M  V30 2961 N 274.927 -0.932562 -1.27047 0
M  V30 2962 C 276.173 -0.576412 -1.94436 0
M  V30 2963 C 276.506 0.880891 -1.73072 0
M  V30 2964 O 275.781 1.62905 -1.06264 0
M  V30 2965 C 276.064 -0.909031 -3.48437 0
M  V30 2966 C 275.917 -2.42044 -3.79123 0
M  V30 2967 C 277.236 -0.418341 -4.38107 0
M  V30 2968 H 274.355 -0.210888 -0.706184 0
M  V30 2969 H 276.997 -1.16522 -1.50075 0
M  V30 2970 H 275.147 -0.407947 -3.86352 0
M  V30 2971 H 276.819 -2.99359 -3.50973 0
M  V30 2972 H 275.062 -2.86758 -3.25503 0
M  V30 2973 H 275.733 -2.6037 -4.86736 0
M  V30 2974 H 278.209 -0.847856 -4.0737 0
M  V30 2975 H 277.085 -0.679981 -5.44672 0
M  V30 2976 H 277.346 0.681642 -4.36814 0
M  V30 2977 N 276.405 1.4127 -0.698611 0
M  V30 2978 C 277.654 2.00408 -0.227949 0
M  V30 2979 C 277.967 1.55981 1.18023 0
M  V30 2980 O 279.173 2.07699 1.74852 0
M  V30 2981 C 277.629 3.58129 -0.356636 0
M  V30 2982 C 277.237 4.11536 -1.77037 0
M  V30 2983 C 278.981 4.24466 0.0540969 0
M  V30 2984 C 276.888 5.61701 -1.85055 0
M  V30 2985 H 275.818 0.749586 -0.0814657 0
M  V30 2986 H 278.469 1.61713 -0.867249 0
M  V30 2987 H 276.851 3.94442 0.350965 0
M  V30 2988 H 278.025 3.86636 -2.50698 0
M  V30 2989 H 276.34 3.57736 -2.13105 0
M  V30 2990 H 278.937 5.34698 0.0146723 0
M  V30 2991 H 279.28 4.01687 1.09332 0
M  V30 2992 H 279.813 3.93198 -0.603337 0
M  V30 2993 H 276.552 5.89312 -2.8704 0
M  V30 2994 H 276.072 5.88519 -1.15783 0
M  V30 2995 H 277.751 6.26524 -1.61484 0
M  V30 2996 N 277.883 0.443576 1.51229 0
M  V30 2997 C 278.815 -0.400608 2.25672 0
M  V30 2998 C 279.828 -0.980945 1.29928 0
M  V30 2999 O 281.017 -0.874024 1.55638 0
M  V30 3000 C 278.117 -1.57304 3.00181 0
M  V30 3001 C 277.29 -1.11046 4.23069 0
M  V30 3002 C 276.349 -2.15374 4.80105 0
M  V30 3003 O 275.375 -1.74554 5.41774 0
M  V30 3004 N 276.577 -3.47922 4.64683 0
M  V30 3005 H 279.342 0.23745 2.98758 0
M  V30 3006 H 276.903 0.272809 1.59585 0
M  V30 3007 H 278.895 -2.26733 3.35223 0
M  V30 3008 H 277.465 -2.11632 2.30066 0
M  V30 3009 H 276.685 -0.243019 3.9345 0
M  V30 3010 H 277.973 -0.778888 5.02803 0
M  V30 3011 H 277.371 -3.83815 4.15575 0
M  V30 3012 H 275.928 -4.13228 5.0407 0
M  V30 3013 N 279.361 -1.56624 0.175154 0
M  V30 3014 C 280.591 -2.01082 -0.474283 0
M  V30 3015 C 280.999 -1.05447 -1.57091 0
M  V30 3016 O 280.342 -0.0480595 -1.83637 0
M  V30 3017 C 280.404 -3.41963 -1.10911 0
M  V30 3018 C 280.068 -4.56742 -0.153666 0
M  V30 3019 C 281.065 -5.16076 0.629448 0
M  V30 3020 C 278.75 -5.02277 -0.0483776 0
M  V30 3021 C 280.744 -6.19377 1.50501 0
M  V30 3022 C 278.431 -6.05427 0.830768 0
M  V30 3023 C 279.429 -6.63849 1.60605 0
M  V30 3024 O 279.117 -7.64998 2.47049 0
M  V30 3025 H 278.849 -0.664261 -0.125432 0
M  V30 3026 H 281.403 -2.03549 0.275163 0
M  V30 3027 H 279.633 -3.36422 -1.90676 0
M  V30 3028 H 281.322 -3.70352 -1.66114 0
M  V30 3029 H 282.088 -4.81776 0.558297 0
M  V30 3030 H 277.967 -4.56513 -0.641611 0
M  V30 3031 H 281.511 -6.64906 2.1106 0
M  V30 3032 H 277.408 -6.39151 0.903107 0
M  V30 3033 H 278.176 -7.82336 2.40607 0
M  V30 3034 N 280.839 0.0985539 -1.57292 0
M  V30 3035 C 281.769 1.12064 -2.04851 0
M  V30 3036 C 282.75 1.41981 -0.936767 0
M  V30 3037 O 283.935 1.52071 -1.20781 0
M  V30 3038 C 281.065 2.44144 -2.47004 0
M  V30 3039 C 280.019 2.28643 -3.6181 0
M  V30 3040 C 279.345 3.65869 -3.89929 0
M  V30 3041 C 280.645 1.72986 -4.92822 0
M  V30 3042 H 282.339 0.724979 -2.9049 0
M  V30 3043 H 279.885 0.34729 -1.39749 0
M  V30 3044 H 281.838 3.15914 -2.78884 0
M  V30 3045 H 280.562 2.85639 -1.5836 0
M  V30 3046 H 279.221 1.59318 -3.30172 0
M  V30 3047 H 278.869 4.04885 -2.98458 0
M  V30 3048 H 278.569 3.56344 -4.67218 0
M  V30 3049 H 280.093 4.39112 -4.2428 0
M  V30 3050 H 281.507 2.34593 -5.23105 0
M  V30 3051 H 279.904 1.74229 -5.74251 0
M  V30 3052 H 280.974 0.689007 -4.7998 0
M  V30 3053 N 282.317 1.53212 0.369288 0
M  V30 3054 C 283.28 1.7872 1.43498 0
M  V30 3055 C 284.28 0.657554 1.46741 0
M  V30 3056 O 285.47 0.925736 1.47566 0
M  V30 3057 C 282.602 1.90591 2.82645 0
M  V30 3058 H 283.795 2.73894 1.22156 0
M  V30 3059 H 281.348 1.44233 0.602203 0
M  V30 3060 H 282.083 0.974709 3.09306 0
M  V30 3061 H 281.868 2.72751 2.8169 0
M  V30 3062 H 283.358 2.11931 3.59826 0
M  V30 3063 N 283.795 -0.628877 1.44509 0
M  V30 3064 C 285.025 -1.41349 1.50678 0
M  V30 3065 C 285.433 -1.88745 0.131075 0
M  V30 3066 O 284.776 -1.61592 -0.87371 0
M  V30 3067 C 284.838 -2.66608 2.41165 0
M  V30 3068 C 284.502 -2.40993 3.88293 0
M  V30 3069 C 285.499 -2.0268 4.78766 0
M  V30 3070 C 283.184 -2.54563 4.33016 0
M  V30 3071 C 285.178 -1.78269 6.11963 0
M  V30 3072 C 282.865 -2.29766 5.6626 0
M  V30 3073 C 283.863 -1.91678 6.55552 0
M  V30 3074 O 283.551 -1.67158 7.86329 0
M  V30 3075 H 283.283 -0.439851 0.51333 0
M  V30 3076 H 285.837 -0.776084 1.90174 0
M  V30 3077 H 284.067 -3.32994 1.96601 0
M  V30 3078 H 285.756 -3.28615 2.38259 0
M  V30 3079 H 286.522 -1.91751 4.45485 0
M  V30 3080 H 282.401 -2.83179 3.63773 0
M  V30 3081 H 285.945 -1.48465 6.81619 0
M  V30 3082 H 281.842 -2.40306 5.99102 0
M  V30 3083 H 282.61 -1.81386 7.98149 0
M  V30 3084 N 285.273 -1.31445 -0.869486 0
M  V30 3085 C 286.519 -1.21337 -1.62496 0
M  V30 3086 C 286.852 0.227872 -1.92858 0
M  V30 3087 O 286.127 1.16094 -1.56053 0
M  V30 3088 C 286.41 -2.05814 -2.95487 0
M  V30 3089 C 286.263 -3.5824 -2.72 0
M  V30 3090 C 287.582 -1.9079 -3.96594 0
M  V30 3091 H 284.701 -0.442135 -0.589649 0
M  V30 3092 H 287.343 -1.6124 -1.00507 0
M  V30 3093 H 285.493 -1.71913 -3.48394 0
M  V30 3094 H 287.165 -4.0228 -2.25762 0
M  V30 3095 H 285.408 -3.81647 -2.06224 0
M  V30 3096 H 286.079 -4.12657 -3.66631 0
M  V30 3097 H 288.555 -2.20459 -3.52898 0
M  V30 3098 H 287.431 -2.52199 -4.87531 0
M  V30 3099 H 287.692 -0.871341 -4.33428 0
M  V30 3100 N 286.751 1.08385 -1.14413 0
M  V30 3101 C 287.714 2.13486 -0.834048 0
M  V30 3102 C 288.714 1.59988 0.161418 0
M  V30 3103 O 289.904 1.74071 -0.0669575 0
M  V30 3104 C 287.036 3.4003 -0.243354 0
M  V30 3105 H 288.229 2.42425 -1.7655 0
M  V30 3106 H 285.782 1.24101 -0.950189 0
M  V30 3107 H 286.517 3.16726 0.696807 0
M  V30 3108 H 286.302 3.80157 -0.960367 0
M  V30 3109 H 287.792 4.17577 -0.0436242 0
M  V30 3110 N 288.23 0.939286 1.26551 0
M  V30 3111 C 289.455 0.602008 1.98471 0
M  V30 3112 C 289.88 -0.815624 1.69497 0
M  V30 3113 O 289.238 -1.54912 0.941905 0
M  V30 3114 C 289.286 0.848407 3.50477 0
M  V30 3115 O 288.39 -0.0804009 4.12322 0
M  V30 3116 H 287.731 0.23049 0.622712 0
M  V30 3117 H 290.261 1.2617 1.61066 0
M  V30 3118 H 290.271 0.768553 4.00696 0
M  V30 3119 H 288.946 1.88171 3.70897 0
M  V30 3120 H 287.523 0.0503508 3.72866 0
M  V30 3121 N 289.708 -1.40897 0.706093 0
M  V30 3122 C 290.933 -2.05895 0.249435 0
M  V30 3123 C 291.358 -1.52823 -1.09666 0
M  V30 3124 O 290.716 -0.659589 -1.68876 0
M  V30 3125 C 290.764 -3.59872 0.22904 0
M  V30 3126 O 289.868 -4.04708 -0.792784 0
M  V30 3127 H 289.209 -0.653206 0.119241 0
M  V30 3128 H 291.739 -1.80471 0.96391 0
M  V30 3129 H 291.749 -4.07951 0.0634791 0
M  V30 3130 H 290.424 -3.97866 1.21141 0
M  V30 3131 H 289.001 -3.68111 -0.59572 0
M  V30 3132 N 291.186 -0.45159 -1.50991 0
M  V30 3133 C 292.136 0.370861 -2.24964 0
M  V30 3134 C 293.12 0.978074 -1.2776 0
M  V30 3135 O 294.312 0.893854 -1.52772 0
M  V30 3136 C 291.441 1.46344 -3.10545 0
M  V30 3137 C 290.527 0.864924 -4.15187 0
M  V30 3138 N 290.918 -0.00311354 -5.058 0
M  V30 3139 C 289.216 1.13099 -4.31422 0
M  V30 3140 C 289.917 -0.340772 -5.80701 0
M  V30 3141 N 288.893 0.279203 -5.42883 0
M  V30 3142 H 292.695 -0.298134 -2.92384 0
M  V30 3143 H 290.209 -0.264528 -1.60231 0
M  V30 3144 H 292.206 2.06565 -3.62128 0
M  V30 3145 H 290.866 2.13463 -2.4467 0
M  V30 3146 H 291.877 -0.37058 -5.16572 0
M  V30 3147 H 288.554 1.79861 -3.76771 0
M  V30 3148 H 289.944 -1.048 -6.63677 0
M  V30 3149 N 292.664 1.56529 -0.183458 0
M  V30 3150 C 293.611 2.18546 0.742055 0
M  V30 3151 C 294.581 1.12912 1.2182 0
M  V30 3152 O 295.766 1.41115 1.28418 0
M  V30 3153 C 292.906 2.83977 1.96089 0
M  V30 3154 C 292.019 4.04105 1.52719 0
M  V30 3155 C 291.154 4.57427 2.70063 0
M  V30 3156 C 290.193 5.69938 2.23243 0
M  V30 3157 N 289.33 6.17717 3.33722 0
M  V30 3158 H 294.17 2.97284 0.206432 0
M  V30 3159 H 291.707 1.46823 0.0901571 0
M  V30 3160 H 293.665 3.20077 2.67594 0
M  V30 3161 H 292.295 2.07822 2.47002 0
M  V30 3162 H 291.347 3.73745 0.708436 0
M  V30 3163 H 292.659 4.85513 1.1436 0
M  V30 3164 H 291.813 4.95772 3.49708 0
M  V30 3165 H 290.552 3.75101 3.11689 0
M  V30 3166 H 289.557 5.31133 1.42048 0
M  V30 3167 H 290.782 6.54073 1.82661 0
M  V30 3168 H 288.728 5.38317 3.74902 0
M  V30 3169 H 288.645 6.94146 2.99495 0
M  V30 3170 H 289.913 6.60713 4.13616 0
M  V30 3171 N 294.142 -0.090211 1.57342 0
M  V30 3172 C 295.367 -0.810082 1.90925 0
M  V30 3173 C 295.792 -1.71248 0.778187 0
M  V30 3174 O 295.15 -1.79278 -0.269991 0
M  V30 3175 C 295.198 -1.59529 3.23393 0
M  V30 3176 O 294.302 -2.70461 3.11327 0
M  V30 3177 H 293.643 -0.222231 0.625707 0
M  V30 3178 H 296.173 -0.0639716 2.045 0
M  V30 3179 H 296.183 -1.97847 3.5682 0
M  V30 3180 H 294.858 -0.933055 4.05299 0
M  V30 3181 H 293.435 -2.35135 2.89423 0
M  V30 3182 N 295.62 -1.53406 -0.361157 0
M  V30 3183 C 296.567 -1.80156 -1.44265 0
M  V30 3184 C 297.537 -0.646183 -1.53015 0
M  V30 3185 O 298.722 -0.888818 -1.68833 0
M  V30 3186 C 295.862 -2.00116 -2.81154 0
M  V30 3187 C 294.975 -3.27833 -2.81335 0
M  V30 3188 C 294.11 -3.37957 -4.09828 0
M  V30 3189 C 293.149 -4.59689 -4.04168 0
M  V30 3190 N 292.286 -4.66942 -5.24318 0
M  V30 3191 H 297.126 -2.72438 -1.20754 0
M  V30 3192 H 294.663 -1.34954 -0.585296 0
M  V30 3193 H 296.621 -2.09677 -3.60682 0
M  V30 3194 H 295.251 -1.11167 -3.03054 0
M  V30 3195 H 294.303 -3.27204 -1.94014 0
M  V30 3196 H 295.615 -4.17442 -2.73027 0
M  V30 3197 H 294.769 -3.46853 -4.97773 0
M  V30 3198 H 293.508 -2.46372 -4.20894 0
M  V30 3199 H 292.513 -4.50889 -3.14609 0
M  V30 3200 H 293.738 -5.5262 -3.947 0
M  V30 3201 H 291.684 -3.7826 -5.35962 0
M  V30 3202 H 291.601 -5.50462 -5.18197 0
M  V30 3203 H 292.869 -4.80127 -6.14084 0
M  V30 3204 N 297.098 0.621204 -1.44841 0
M  V30 3205 C 298.045 1.73267 -1.5247 0
M  V30 3206 C 299.015 1.6189 -0.371611 0
M  V30 3207 O 300.2 1.81668 -0.58321 0
M  V30 3208 C 297.34 3.11545 -1.48438 0
M  V30 3209 C 296.453 3.33827 -2.74196 0
M  V30 3210 C 295.588 4.62133 -2.61929 0
M  V30 3211 C 294.627 4.77627 -3.82804 0
M  V30 3212 N 293.764 5.97219 -3.69153 0
M  V30 3213 H 298.604 1.66082 -2.47428 0
M  V30 3214 H 296.141 0.810026 -1.22788 0
M  V30 3215 H 298.099 3.91528 -1.4409 0
M  V30 3216 H 296.729 3.1772 -0.570402 0
M  V30 3217 H 295.781 2.47715 -2.88689 0
M  V30 3218 H 297.093 3.41153 -3.6389 0
M  V30 3219 H 296.247 5.50291 -2.5547 0
M  V30 3220 H 294.986 4.57182 -1.69811 0
M  V30 3221 H 293.991 3.87896 -3.89637 0
M  V30 3222 H 295.216 4.84385 -4.75971 0
M  V30 3223 H 293.162 5.93339 -2.79794 0
M  V30 3224 H 293.079 6.05644 -4.52472 0
M  V30 3225 H 294.347 6.87912 -3.66603 0
M  V30 3226 N 298.576 1.31904 0.862503 0
M  V30 3227 C 299.853 1.12644 1.59908 0
M  V30 3228 C 300.233 -0.316104 2.0872 0
M  V30 3229 O 299.581 -1.31145 1.87118 0
M  V30 3230 C 299.791 2.1472 2.7513 0
M  V30 3231 C 301.139 2.47637 3.44907 0
M  V30 3232 O 302.163 2.13205 2.85346 0
M  V30 3233 O 301.022 3.06632 4.52371 0
M  V30 3234 H 298.116 0.43416 0.703871 0
M  V30 3235 H 300.662 1.43408 0.907314 0
M  V30 3236 H 299.434 3.1172 2.3653 0
M  V30 3237 H 299.057 1.84905 3.51989 0
M  V30 3238 N 300.054 -1.07777 1.14986 0
M  V30 3239 C 300.986 -2.14769 0.800436 0
M  V30 3240 C 301.999 -1.61739 -0.185595 0
M  V30 3241 O 303.188 -1.78462 0.0370358 0
M  V30 3242 C 300.288 -3.38481 0.168533 0
M  V30 3243 C 299.461 -4.20876 1.1909 0
M  V30 3244 C 298.52 -5.22976 0.581575 0
M  V30 3245 O 297.546 -5.55388 1.24633 0
M  V30 3246 N 298.748 -5.76976 -0.638706 0
M  V30 3247 H 301.513 -2.45348 1.72118 0
M  V30 3248 H 299.074 -1.23645 1.04515 0
M  V30 3249 H 301.066 -4.03916 -0.251764 0
M  V30 3250 H 299.636 -3.05651 -0.655467 0
M  V30 3251 H 298.856 -3.51322 1.78791 0
M  V30 3252 H 300.144 -4.7274 1.88133 0
M  V30 3253 H 299.542 -5.52886 -1.19723 0
M  V30 3254 H 298.099 -6.44061 -1.00142 0
M  V30 3255 N 301.532 -0.945985 -1.26051 0
M  V30 3256 C 302.78 -0.594941 -1.93145 0
M  V30 3257 C 303.101 0.86953 -1.7454 0
M  V30 3258 O 302.371 1.61838 -1.10387 0
M  V30 3259 H 300.951 -0.217044 -0.714773 0
M  V30 3260 H 303.613 -1.20235 -1.53393 0
M  V30 3261 H 302.709 -0.816835 -3.01221 0
M  V30 3262 N 303.011 1.40521 -0.713556 0
M  V30 3263 C 303.921 2.34522 -0.0606667 0
M  V30 3264 C 304.937 1.57193 0.74607 0
M  V30 3265 O 306.113 1.89591 0.679493 0
M  V30 3266 C 303.178 3.36081 0.851491 0
M  V30 3267 C 302.239 4.29286 0.0349339 0
M  V30 3268 C 301.472 5.25994 0.903649 0
M  V30 3269 O 301.695 5.28616 2.14292 0
M  V30 3270 O 300.629 6.00918 0.343723 0
M  V30 3271 H 304.455 2.91968 -0.835972 0
M  V30 3272 H 302.04 1.41681 -0.47402 0
M  V30 3273 H 303.922 3.98369 1.37404 0
M  V30 3274 H 302.597 2.81052 1.60598 0
M  V30 3275 H 301.504 3.70289 -0.532633 0
M  V30 3276 H 302.837 4.87462 -0.681287 0
M  V30 3277 N 304.489 0.459591 1.5075 0
M  V30 3278 C 305.419 -0.330644 2.31147 0
M  V30 3279 C 306.4 -1.00087 1.37538 0
M  V30 3280 O 307.585 -1.00025 1.66459 0
M  V30 3281 C 304.715 -1.41958 3.16962 0
M  V30 3282 C 303.669 -0.871608 4.19031 0
M  V30 3283 C 302.995 -2.05797 4.9351 0
M  V30 3284 C 304.295 0.109251 5.22186 0
M  V30 3285 H 305.989 0.340336 2.97459 0
M  V30 3286 H 303.535 0.165119 1.4305 0
M  V30 3287 H 305.488 -1.9798 3.71997 0
M  V30 3288 H 304.212 -2.11917 2.48513 0
M  V30 3289 H 302.871 -0.333442 3.6508 0
M  V30 3290 H 302.519 -2.74427 4.21544 0
M  V30 3291 H 302.219 -1.6976 5.62544 0
M  V30 3292 H 303.743 -2.62331 5.51375 0
M  V30 3293 H 305.157 -0.361405 5.7216 0
M  V30 3294 H 303.554 0.383316 5.98875 0
M  V30 3295 H 304.624 1.03887 4.73641 0
M  V30 3296 N 305.967 -1.56429 0.191757 0
M  V30 3297 C 306.877 -2.22541 -0.742481 0
M  V30 3298 C 307.893 -1.22342 -1.23727 0
M  V30 3299 O 309.069 -1.55069 -1.28513 0
M  V30 3300 C 306.134 -2.8692 -1.94623 0
M  V30 3301 C 305.195 -4.02378 -1.49633 0
M  V30 3302 C 304.428 -4.63678 -2.6427 0
M  V30 3303 O 304.651 -4.23895 -3.81666 0
M  V30 3304 O 303.585 -5.53202 -2.37174 0
M  V30 3305 H 307.411 -3.02977 -0.209462 0
M  V30 3306 H 304.996 -1.49353 -0.0373832 0
M  V30 3307 H 306.878 -3.27663 -2.64982 0
M  V30 3308 H 305.553 -2.09466 -2.46791 0
M  V30 3309 H 304.46 -3.66265 -0.761636 0
M  V30 3310 H 305.793 -4.81487 -1.02134 0
M  V30 3311 N 307.445 0.0818655 -1.57387 0
M  V30 3312 C 308.861 0.436412 -1.53517 0
M  V30 3313 C 309.061 1.79758 -0.910459 0
M  V30 3314 O 308.117 2.47324 -0.508636 0
M  V30 3315 C 309.43 0.386734 -2.98203 0
M  V30 3316 C 310.978 0.467644 -3.09487 0
M  V30 3317 C 311.453 0.447978 -4.55804 0
M  V30 3318 N 312.944 0.508348 -4.60402 0
M  V30 3319 C 313.679 0.515184 -5.71081 0
M  V30 3320 N 313.175 0.477435 -6.91153 0
M  V30 3321 N 314.968 0.560988 -5.59294 0
M  V30 3322 H 307.119 -0.809546 -1.96367 0
M  V30 3323 H 309.382 -0.302733 -0.898363 0
M  V30 3324 H 309.088 -0.546539 -3.47427 0
M  V30 3325 H 308.962 1.20075 -3.57578 0
M  V30 3326 H 311.349 1.39134 -2.60242 0
M  V30 3327 H 311.43 -0.374753 -2.5304 0
M  V30 3328 H 311.074 -0.471826 -5.05704 0
M  V30 3329 H 311.004 1.30777 -5.10103 0
M  V30 3330 H 313.495 0.54218 -3.7399 0
M  V30 3331 H 313.808 0.486299 -7.71268 0
M  V30 3332 H 312.153 0.444278 -6.93579 0
M  V30 3333 H 315.344 0.5881 -4.64391 0
M  V30 3334 H 315.517 0.562846 -6.45551 0
M  V30 3335 N 308.923 1.53595 0.353017 0
M  V30 3336 C 309.855 1.77219 1.45348 0
M  V30 3337 C 310.868 0.65324 1.49119 0
M  V30 3338 O 312.057 0.929775 1.52373 0
M  V30 3339 C 309.157 1.84841 2.84055 0
M  V30 3340 C 308.33 3.14649 3.03833 0
M  V30 3341 C 307.389 3.13351 4.22727 0
M  V30 3342 O 306.415 3.87107 4.17297 0
M  V30 3343 N 307.617 2.35052 5.30783 0
M  V30 3344 H 310.382 2.72178 1.25457 0
M  V30 3345 H 307.943 1.52528 0.542833 0
M  V30 3346 H 309.935 1.81435 3.61751 0
M  V30 3347 H 308.505 0.971114 2.97133 0
M  V30 3348 H 307.725 3.31256 2.13689 0
M  V30 3349 H 309.013 4.00411 3.13925 0
M  V30 3350 H 308.411 1.74663 5.38061 0
M  V30 3351 H 306.968 2.37453 6.07009 0
M  V30 3352 N 310.401 -0.613514 1.45168 0
M  V30 3353 C 311.331 -1.7354 1.56225 0
M  V30 3354 C 312.312 -1.64981 0.41414 0
M  V30 3355 O 313.497 -1.83472 0.636526 0
M  V30 3356 C 310.627 -3.12128 1.52295 0
M  V30 3357 C 309.581 -3.35491 2.65762 0
M  V30 3358 C 308.907 -4.74291 2.46885 0
M  V30 3359 C 310.207 -3.26325 4.0781 0
M  V30 3360 H 311.901 -1.64543 2.50132 0
M  V30 3361 H 309.447 -0.790185 1.20383 0
M  V30 3362 H 311.4 -3.90404 1.58628 0
M  V30 3363 H 310.124 -3.2195 0.549139 0
M  V30 3364 H 308.783 -2.59603 2.58847 0
M  V30 3365 H 308.431 -4.80839 1.47657 0
M  V30 3366 H 308.131 -4.9088 3.22972 0
M  V30 3367 H 309.655 -5.54775 2.55063 0
M  V30 3368 H 311.069 -3.94483 4.16 0
M  V30 3369 H 309.466 -3.54445 4.8424 0
M  V30 3370 H 310.536 -2.23855 4.30136 0
M  V30 3371 N 311.879 -1.3236 -0.855495 0
M  V30 3372 C 312.809 -1.23833 -1.97958 0
M  V30 3373 C 313.79 -0.122361 -1.69659 0
M  V30 3374 O 314.975 -0.30939 -1.9172 0
M  V30 3375 C 312.105 -0.959772 -3.33775 0
M  V30 3376 C 311.059 -2.03689 -3.76424 0
M  V30 3377 C 310.385 -1.61075 -5.09862 0
M  V30 3378 C 311.685 -3.4518 -3.9198 0
M  V30 3379 H 313.379 -2.1788 -2.0535 0
M  V30 3380 H 310.925 -1.04891 -0.986605 0
M  V30 3381 H 312.878 -0.886678 -4.11966 0
M  V30 3382 H 311.602 0.0163404 -3.26596 0
M  V30 3383 H 310.261 -2.10012 -3.00484 0
M  V30 3384 H 309.909 -0.622107 -4.99138 0
M  V30 3385 H 309.609 -2.33143 -5.39368 0
M  V30 3386 H 311.133 -1.55201 -5.90546 0
M  V30 3387 H 312.547 -3.4145 -4.60526 0
M  V30 3388 H 310.944 -4.1559 -4.32903 0
M  V30 3389 H 312.014 -3.84903 -2.94919 0
M  V30 3390 N 313.357 1.07166 -1.15556 0
M  V30 3391 C 314.289 2.14341 -0.811815 0
M  V30 3392 C 315.302 1.61835 0.177015 0
M  V30 3393 O 316.491 1.78439 -0.0464996 0
M  V30 3394 C 313.591 3.38387 -0.186481 0
M  V30 3395 C 312.764 4.20238 -1.21321 0
M  V30 3396 C 311.823 5.2266 -0.609302 0
M  V30 3397 O 310.849 5.54719 -1.27576 0
M  V30 3398 N 312.051 5.77306 0.608099 0
M  V30 3399 H 314.816 2.44431 -1.73417 0
M  V30 3400 H 312.377 1.23089 -1.0517 0
M  V30 3401 H 314.369 4.04044 0.230339 0
M  V30 3402 H 312.939 3.05994 0.639249 0
M  V30 3403 H 312.159 3.50369 -1.80652 0
M  V30 3404 H 313.447 4.71736 -1.90638 0
M  V30 3405 H 312.845 5.53513 1.1679 0
M  V30 3406 H 311.402 6.44583 0.96725 0
M  V30 3407 N 314.835 0.952656 1.25548 0
M  V30 3408 C 315.798 0.475794 2.24207 0
M  V30 3409 C 316.798 -0.419428 1.55234 0
M  V30 3410 O 317.988 -0.216994 1.72843 0
M  V30 3411 C 315.12 -0.312814 3.39462 0
M  V30 3412 H 316.313 1.34779 2.67908 0
M  V30 3413 H 313.866 0.735739 1.37901 0
M  V30 3414 H 314.601 -1.20257 3.01179 0
M  V30 3415 H 314.386 0.329404 3.90714 0
M  V30 3416 H 315.876 -0.635986 4.12729 0
M  V30 3417 N 316.313 -1.40141 0.720998 0
M  V30 3418 C 317.261 -2.3252 0.0608547 0
M  V30 3419 C 318.255 -1.52326 -0.741152 0
M  V30 3420 O 319.461 -1.68089 -0.643911 0
M  V30 3421 H 315.836 -0.751999 0.000876664 0
M  V30 3422 H 317.807 -2.8584 0.856614 0
M  V30 3423 C 316.556 -3.37331 -0.842809 0
M  V30 3424 H 315.879 -3.99108 -0.235084 0
M  V30 3425 H 317.319 -4.04452 -1.27257 0
M  V30 3426 C 315.778 -2.73246 -1.97074 0
M  V30 3427 O 316.308 -2.59998 -3.06209 0
M  V30 3428 N 314.514 -2.31547 -1.75597 0
M  V30 3429 H 314.061 -2.42522 -0.868368 0
M  V30 3430 H 314.019 -1.89007 -2.51244 0
M  V30 3431 N 317.792 -0.46758 -1.50504 0
M  V30 3432 C 319.203 -0.0116166 -1.86696 0
M  V30 3433 C 319.554 1.39202 -1.38265 0
M  V30 3434 O 318.679 2.0313 -0.746132 0
M  V30 3435 C 319.274 -0.0143044 -3.38797 0
M  V30 3436 C 317.833 0.386175 -3.74414 0
M  V30 3437 C 316.98 -0.401287 -2.74381 0
M  V30 3438 H 319.931 -0.682022 -1.43297 0
M  V30 3439 H 319.952 0.788641 -3.72237 0
M  V30 3440 H 319.464 -1.03602 -3.74016 0
M  V30 3441 H 317.565 1.41237 -3.44794 0
M  V30 3442 H 317.678 0.0899596 -4.79016 0
M  V30 3443 H 316.042 0.144536 -2.5429 0
M  V30 3444 H 316.825 -1.42244 -3.12444 0
M  V30 3445 N 319.27 1.56325 -0.20005 0
M  V30 3446 C 320.519 1.96895 0.437652 0
M  V30 3447 C 320.832 1.08999 1.62415 0
M  V30 3448 O 322.038 1.39372 2.32997 0
M  V30 3449 C 320.494 3.50198 0.830025 0
M  V30 3450 C 320.102 4.46765 -0.332461 0
M  V30 3451 C 321.846 3.99526 1.43453 0
M  V30 3452 C 319.753 5.91344 0.0811468 0
M  V30 3453 H 318.683 0.735209 0.167282 0
M  V30 3454 H 321.334 1.81148 -0.292853 0
M  V30 3455 H 319.716 3.61467 1.61734 0
M  V30 3456 H 320.89 4.47231 -1.11 0
M  V30 3457 H 319.205 4.07657 -0.848789 0
M  V30 3458 H 321.802 5.05025 1.75652 0
M  V30 3459 H 322.145 3.44122 2.34277 0
M  V30 3460 H 322.678 3.91393 0.71109 0
M  V30 3461 H 319.417 6.50685 -0.793033 0
M  V30 3462 H 318.937 5.94121 0.823445 0
M  V30 3463 H 320.616 6.44945 0.515252 0
M  V30 3464 N 320.748 -0.0735177 1.57428 0
M  V30 3465 C 321.678 -1.0879 2.06608 0
M  V30 3466 C 322.659 -1.40473 0.959237 0
M  V30 3467 O 323.844 -1.5013 1.23185 0
M  V30 3468 C 320.974 -2.40183 2.50857 0
M  V30 3469 C 319.928 -2.22858 3.65402 0
M  V30 3470 C 319.254 -3.59619 3.957 0
M  V30 3471 C 320.554 -1.65123 4.95511 0
M  V30 3472 H 322.248 -0.678673 2.91607 0
M  V30 3473 H 319.794 -0.325013 1.40284 0
M  V30 3474 H 321.747 -3.11437 2.83874 0
M  V30 3475 H 320.471 -2.83083 1.62885 0
M  V30 3476 H 319.13 -1.54045 3.32664 0
M  V30 3477 H 318.778 -4.00086 3.04861 0
M  V30 3478 H 318.478 -3.48866 4.72828 0
M  V30 3479 H 320.002 -4.32306 4.31212 0
M  V30 3480 H 321.416 -2.26241 5.26771 0
M  V30 3481 H 319.813 -1.65071 5.7695 0
M  V30 3482 H 320.883 -0.612559 4.81015 0
M  V30 3483 N 322.226 -1.5378 -0.344866 0
M  V30 3484 C 323.136 -1.84667 -1.4469 0
M  V30 3485 C 324.152 -0.736704 -1.57635 0
M  V30 3486 O 325.328 -1.02888 -1.73136 0
M  V30 3487 C 322.393 -2.04869 -2.79696 0
M  V30 3488 C 321.454 -3.28731 -2.76106 0
M  V30 3489 C 320.687 -3.4796 -4.04673 0
M  V30 3490 O 320.91 -2.71052 -5.01883 0
M  V30 3491 O 319.844 -4.41383 -4.09224 0
M  V30 3492 H 323.67 -2.78334 -1.21506 0
M  V30 3493 H 321.255 -1.39418 -0.536921 0
M  V30 3494 H 323.137 -2.19609 -3.59652 0
M  V30 3495 H 321.812 -1.14391 -3.02814 0
M  V30 3496 H 320.719 -3.19396 -1.94774 0
M  V30 3497 H 322.052 -4.19198 -2.57941 0
M  V30 3498 N 323.704 0.605807 -1.45491 0
M  V30 3499 C 324.667 1.69836 -1.5391 0
M  V30 3500 C 325.667 1.55261 -0.418424 0
M  V30 3501 O 326.857 1.60296 -0.681965 0
M  V30 3502 C 323.989 3.09117 -1.43734 0
M  V30 3503 H 325.182 1.63738 -2.51257 0
M  V30 3504 H 322.735 0.821689 -1.32959 0
M  V30 3505 H 323.47 3.20791 -0.475788 0
M  V30 3506 H 323.255 3.21104 -2.25021 0
M  V30 3507 H 324.745 3.88696 -1.52661 0
M  V30 3508 N 325.182 1.32811 0.848464 0
M  V30 3509 C 326.429 1.23724 1.60308 0
M  V30 3510 C 326.757 -0.1994 1.93475 0
M  V30 3511 O 326.012 -1.15406 1.5805 0
M  V30 3512 C 326.311 2.04831 2.92881 0
M  V30 3513 C 325.977 3.54125 2.79117 0
M  V30 3514 C 324.639 3.94829 2.7507 0
M  V30 3515 C 326.991 4.49036 2.64606 0
M  V30 3516 C 324.319 5.28675 2.544 0
M  V30 3517 C 326.671 5.83033 2.4547 0
M  V30 3518 C 325.335 6.22931 2.39819 0
M  V30 3519 H 324.605 0.452737 0.586609 0
M  V30 3520 H 327.252 1.64301 0.983743 0
M  V30 3521 H 325.557 1.57001 3.58968 0
M  V30 3522 H 327.254 1.95164 3.50303 0
M  V30 3523 H 323.844 3.21801 2.83094 0
M  V30 3524 H 328.028 4.18505 2.66772 0
M  V30 3525 H 323.284 5.58637 2.48465 0
M  V30 3526 H 327.458 6.56186 2.33222 0
M  V30 3527 H 325.085 7.26584 2.23562 0
M  V30 3528 N 326.66 -1.06551 1.16123 0
M  V30 3529 C 327.908 -1.78947 0.939267 0
M  V30 3530 C 328.229 -1.87532 -0.534476 0
M  V30 3531 O 327.499 -1.38211 -1.38833 0
M  V30 3532 H 326.079 -0.662807 0.344523 0
M  V30 3533 H 328.741 -1.28725 1.46342 0
M  V30 3534 H 327.837 -2.81117 1.35572 0
M  V30 3535 N 328.138 -0.959301 -1.25041 0
M  V30 3536 C 329.086 -0.474437 -2.2771 0
M  V30 3537 C 330.08 0.457697 -1.631 0
M  V30 3538 O 331.286 0.333912 -1.76876 0
M  V30 3539 H 327.661 -0.134936 -0.739795 0
M  V30 3540 H 329.632 -1.35251 -2.65988 0
M  V30 3541 C 328.381 0.227884 -3.46952 0
M  V30 3542 H 327.704 -0.480248 -3.96905 0
M  V30 3543 H 329.144 0.531091 -4.20661 0
M  V30 3544 C 327.603 1.452 -3.04004 0
M  V30 3545 O 328.133 2.54949 -3.10426 0
M  V30 3546 N 326.339 1.31502 -2.59144 0
M  V30 3547 H 325.886 0.422065 -2.54119 0
M  V30 3548 H 325.844 2.13521 -2.30773 0
M  V30 3549 N 329.616 1.39756 -0.72842 0
M  V30 3550 C 330.579 2.29012 -0.0927297 0
M  V30 3551 C 331.579 1.45992 0.674025 0
M  V30 3552 O 332.769 1.66749 0.50402 0
M  V30 3553 C 329.901 3.29396 0.878137 0
M  V30 3554 H 331.094 2.86729 -0.879011 0
M  V30 3555 H 328.647 1.48293 -0.493847 0
M  V30 3556 H 329.382 2.76722 1.69101 0
M  V30 3557 H 329.167 3.907 0.331051 0
M  V30 3558 H 330.657 3.96199 1.3197 0
M  V30 3559 N 331.094 0.475555 1.50254 0
M  V30 3560 C 332.041 -0.316293 2.28622 0
M  V30 3561 C 333.011 -0.983227 1.33873 0
M  V30 3562 O 334.196 -0.994805 1.62814 0
M  V30 3563 C 331.336 -1.38975 3.1588 0
M  V30 3564 C 330.449 -0.737146 4.25664 0
M  V30 3565 C 329.584 -1.78887 5.00173 0
M  V30 3566 C 328.623 -1.11676 6.01826 0
M  V30 3567 N 327.76 -2.11154 6.69596 0
M  V30 3568 H 332.6 0.358297 2.95838 0
M  V30 3569 H 330.137 0.188541 1.45887 0
M  V30 3570 H 332.095 -2.02383 3.64825 0
M  V30 3571 H 330.725 -2.03344 2.50701 0
M  V30 3572 H 329.777 0.0096065 3.80399 0
M  V30 3573 H 331.089 -0.206816 4.98371 0
M  V30 3574 H 330.243 -2.49865 5.52859 0
M  V30 3575 H 328.982 -2.35302 4.27182 0
M  V30 3576 H 327.987 -0.392633 5.48396 0
M  V30 3577 H 329.212 -0.55945 6.76792 0
M  V30 3578 H 327.158 -2.66577 5.99394 0
M  V30 3579 H 327.075 -1.63118 7.38193 0
M  V30 3580 H 328.343 -2.81497 7.26897 0
M  V30 3581 N 332.573 -1.56217 0.208337 0
M  V30 3582 C 333.801 -2.02337 -0.43215 0
M  V30 3583 C 334.216 -1.08834 -1.54275 0
M  V30 3584 O 333.573 -0.0955462 -1.8225 0
M  V30 3585 C 333.624 -3.48072 -0.976138 0
M  V30 3586 O 333.345 -4.38007 0.0901621 0
M  V30 3587 C 334.846 -4.09773 -1.69119 0
M  V30 3588 H 332.066 -0.662385 -0.10718 0
M  V30 3589 H 334.61 -2.01966 0.320923 0
M  V30 3590 H 332.765 -3.49099 -1.67954 0
M  V30 3591 H 333.179 -5.23543 -0.316701 0
M  V30 3592 H 334.653 -5.13556 -2.02397 0
M  V30 3593 H 335.13 -3.53999 -2.59964 0
M  V30 3594 H 335.736 -4.12556 -1.03332 0
M  V30 3595 N 334.051 0.0651679 -1.57465 0
M  V30 3596 C 335.297 0.764193 -1.87851 0
M  V30 3597 C 335.63 1.76889 -0.801495 0
M  V30 3598 O 334.905 1.93594 0.187528 0
M  V30 3599 C 335.188 1.46625 -3.28897 0
M  V30 3600 C 335.041 0.477515 -4.47258 0
M  V30 3601 C 336.36 2.4095 -3.68281 0
M  V30 3602 H 333.479 0.276351 -0.683227 0
M  V30 3603 H 336.121 0.0272868 -1.8998 0
M  V30 3604 H 334.271 2.09438 -3.27212 0
M  V30 3605 H 335.943 -0.145922 -4.61069 0
M  V30 3606 H 334.186 -0.206576 -4.33308 0
M  V30 3607 H 334.857 1.0065 -5.42746 0
M  V30 3608 H 337.333 1.88209 -3.71102 0
M  V30 3609 H 336.209 2.87072 -4.67847 0
M  V30 3610 H 336.47 3.26049 -2.98571 0
M  V30 3611 N 335.529 1.53961 0.336706 0
M  V30 3612 C 336.476 1.82428 1.41381 0
M  V30 3613 C 337.446 0.670444 1.51968 0
M  V30 3614 O 338.631 0.915565 1.67398 0
M  V30 3615 C 335.771 2.04564 2.77934 0
M  V30 3616 C 334.884 3.32267 2.76084 0
M  V30 3617 C 334.019 3.44434 4.04399 0
M  V30 3618 C 333.058 4.66061 3.96804 0
M  V30 3619 N 332.195 4.75224 5.16823 0
M  V30 3620 H 337.035 2.74324 1.16405 0
M  V30 3621 H 334.572 1.35869 0.563752 0
M  V30 3622 H 336.53 2.15388 3.57301 0
M  V30 3623 H 335.16 1.15974 3.01247 0
M  V30 3624 H 334.212 3.3025 1.88784 0
M  V30 3625 H 335.524 4.21733 2.66351 0
M  V30 3626 H 334.678 3.54728 4.92192 0
M  V30 3627 H 333.417 2.53037 4.16921 0
M  V30 3628 H 332.422 4.55838 3.07396 0
M  V30 3629 H 333.647 5.58829 3.85858 0
M  V30 3630 H 331.593 3.86739 5.29876 0
M  V30 3631 H 331.51 5.58636 5.09374 0
M  V30 3632 H 332.778 4.89835 6.06367 0
M  V30 3633 N 337.007 -0.598083 1.45811 0
M  V30 3634 C 337.955 -1.72932 1.55555 0
M  V30 3635 C 338.949 -1.63984 0.424921 0
M  V30 3636 O 340.155 -1.69663 0.601205 0
M  V30 3637 H 336.53 -0.571489 0.488779 0
M  V30 3638 H 338.501 -1.61842 2.50699 0
M  V30 3639 C 337.25 -3.11318 1.54843 0
M  V30 3640 H 336.573 -3.18867 2.41172 0
M  V30 3641 H 338.013 -3.90274 1.65717 0
M  V30 3642 C 336.472 -3.3578 0.274427 0
M  V30 3643 O 337.002 -3.9654 -0.641778 0
M  V30 3644 N 335.208 -2.90119 0.167139 0
M  V30 3645 H 334.755 -2.40855 0.913596 0
M  V30 3646 H 334.713 -3.0686 -0.684435 0
M  V30 3647 N 338.485 -1.33259 -0.841409 0
M  V30 3648 C 339.762 -1.15174 -1.58096 0
M  V30 3649 C 340.142 0.282858 -2.09196 0
M  V30 3650 O 339.49 1.28151 -1.89181 0
M  V30 3651 C 339.7 -2.1907 -2.71679 0
M  V30 3652 C 341.048 -2.53093 -3.40924 0
M  V30 3653 O 342.072 -2.17717 -2.81918 0
M  V30 3654 O 340.931 -3.1379 -4.47435 0
M  V30 3655 H 338.025 -0.445303 -0.696875 0
M  V30 3656 H 340.571 -1.44833 -0.884385 0
M  V30 3657 H 339.343 -3.15443 -2.31541 0
M  V30 3658 H 338.966 -1.90481 -3.49002 0
M  V30 3659 N 339.963 1.05934 -1.16686 0
M  V30 3660 C 340.911 2.15603 -0.872817 0
M  V30 3661 C 341.905 1.68647 0.159576 0
M  V30 3662 O 343.111 1.79995 0.0132125 0
M  V30 3663 H 339.486 0.703885 -0.264671 0
M  V30 3664 H 341.457 2.37613 -1.80507 0
M  V30 3665 C 340.206 3.45457 -0.394344 0
M  V30 3666 H 339.529 3.81984 -1.18019 0
M  V30 3667 H 340.969 4.2339 -0.227408 0
M  V30 3668 C 339.428 3.25021 0.88673 0
M  V30 3669 O 339.958 3.50906 1.95519 0
M  V30 3670 N 338.164 2.78437 0.831925 0
M  V30 3671 H 337.711 2.57572 -0.0377619 0
M  V30 3672 H 337.669 2.65144 1.68956 0
M  V30 3673 N 341.441 0.965919 1.2453 0
M  V30 3674 C 342.666 0.643971 1.97149 0
M  V30 3675 C 343.091 -0.779487 1.71189 0
M  V30 3676 O 342.449 -1.5288 0.974553 0
M  V30 3677 C 342.497 0.922557 3.48599 0
M  V30 3678 O 341.601 0.00707672 4.12399 0
M  V30 3679 H 340.942 0.243647 0.617683 0
M  V30 3680 H 343.472 1.29558 1.58353 0
M  V30 3681 H 343.482 0.853373 3.98976 0
M  V30 3682 H 342.157 1.95996 3.66822 0
M  V30 3683 H 340.734 0.12943 3.72675 0
M  V30 3684 N 342.919 -1.39368 0.735821 0
M  V30 3685 C 344.144 -2.05319 0.293052 0
M  V30 3686 C 344.569 -1.55115 -1.064 0
M  V30 3687 O 343.927 -0.695261 -1.67439 0
M  V30 3688 C 343.975 -3.59305 0.305323 0
M  V30 3689 O 343.079 -4.06299 -0.706761 0
M  V30 3690 H 342.42 -0.650529 0.13307 0
M  V30 3691 H 344.95 -1.78386 1.00197 0
M  V30 3692 H 344.96 -4.07724 0.149997 0
M  V30 3693 H 343.635 -3.95207 1.29553 0
M  V30 3694 H 342.212 -3.69292 -0.517504 0
M  V30 3695 N 344.397 -0.483516 -1.5 0
M  V30 3696 C 345.813 -0.138404 -1.58999 0
M  V30 3697 C 346.013 1.35597 -1.4905 0
M  V30 3698 O 345.069 2.13039 -1.35539 0
M  V30 3699 C 346.382 -0.699658 -2.92447 0
M  V30 3700 C 347.93 -0.664195 -3.05872 0
M  V30 3701 C 348.405 -1.20321 -4.41913 0
M  V30 3702 N 349.896 -1.16315 -4.48358 0
M  V30 3703 C 350.631 -1.55058 -5.52037 0
M  V30 3704 N 350.127 -2.01311 -6.62907 0
M  V30 3705 N 351.92 -1.46584 -5.42651 0
M  V30 3706 H 344.071 -1.45529 -1.5471 0
M  V30 3707 H 346.334 -0.60258 -0.731848 0
M  V30 3708 H 346.04 -1.747 -3.05242 0
M  V30 3709 H 345.914 -0.150194 -3.76901 0
M  V30 3710 H 348.301 0.374272 -2.92717 0
M  V30 3711 H 348.382 -1.25061 -2.23144 0
M  V30 3712 H 348.026 -2.24037 -4.55818 0
M  V30 3713 H 347.956 -0.592896 -5.23252 0
M  V30 3714 H 350.447 -0.824058 -3.68806 0
M  V30 3715 H 350.76 -2.2899 -7.38095 0
M  V30 3716 H 349.105 -2.05273 -6.63994 0
M  V30 3717 H 352.296 -1.10281 -4.54924 0
M  V30 3718 H 352.469 -1.77103 -6.23329 0
M  V30 3719 N 345.875 1.56104 -0.216619 0
M  V30 3720 C 347.122 1.98172 0.416416 0
M  V30 3721 C 347.45 1.10413 1.60122 0
M  V30 3722 O 346.705 0.147967 1.9514 0
M  V30 3723 C 347.004 3.45923 0.898464 0
M  V30 3724 C 346.67 4.50559 -0.175288 0
M  V30 3725 C 345.332 4.78897 -0.470271 0
M  V30 3726 C 347.684 5.1334 -0.901728 0
M  V30 3727 C 345.012 5.67299 -1.4963 0
M  V30 3728 C 347.364 6.02853 -1.91705 0
M  V30 3729 C 346.028 6.29537 -2.21901 0
M  V30 3730 H 345.298 0.725164 0.152377 0
M  V30 3731 H 347.945 1.88839 -0.318103 0
M  V30 3732 H 346.25 3.52434 1.71165 0
M  V30 3733 H 347.947 3.75841 1.39803 0
M  V30 3734 H 344.537 4.28551 0.0647806 0
M  V30 3735 H 348.721 4.91521 -0.687072 0
M  V30 3736 H 343.977 5.86239 -1.73592 0
M  V30 3737 H 348.151 6.50552 -2.48505 0
M  V30 3738 H 345.778 6.97835 -3.01548 0
M  V30 3739 N 347.353 -0.0568162 1.57498 0
M  V30 3740 C 348.601 -0.751617 1.87604 0
M  V30 3741 C 348.922 -1.77351 0.81066 0
M  V30 3742 O 348.192 -1.95254 -0.159018 0
M  V30 3743 H 346.772 -0.280583 0.692302 0
M  V30 3744 H 349.434 -0.0293483 1.94878 0
M  V30 3745 H 348.53 -1.25852 2.856 0
M  V30 3746 N 348.832 -1.54138 -0.328536 0
M  V30 3747 C 349.779 -1.83176 -1.40411 0
M  V30 3748 C 350.749 -0.678494 -1.5161 0
M  V30 3749 O 351.934 -0.92443 -1.6691 0
M  V30 3750 C 349.074 -2.06035 -2.76846 0
M  V30 3751 C 348.187 -3.33727 -2.74318 0
M  V30 3752 C 347.322 -3.46574 -4.02567 0
M  V30 3753 C 346.361 -4.68159 -3.94327 0
M  V30 3754 N 345.498 -4.77959 -5.14296 0
M  V30 3755 H 350.338 -2.74938 -1.14948 0
M  V30 3756 H 347.875 -1.36166 -0.556538 0
M  V30 3757 H 349.833 -2.1728 -3.56153 0
M  V30 3758 H 348.463 -1.1757 -3.00628 0
M  V30 3759 H 347.515 -3.31246 -1.8703 0
M  V30 3760 H 348.827 -4.23139 -2.64111 0
M  V30 3761 H 347.981 -3.57333 -4.90304 0
M  V30 3762 H 346.72 -2.55245 -4.15574 0
M  V30 3763 H 345.725 -4.57461 -3.04974 0
M  V30 3764 H 346.95 -5.60868 -3.82889 0
M  V30 3765 H 344.896 -3.89544 -5.27818 0
M  V30 3766 H 344.813 -5.6133 -5.06404 0
M  V30 3767 H 346.081 -4.93044 -6.03761 0
M  V30 3768 N 350.31 0.590341 -1.46126 0
M  V30 3769 C 351.557 1.34882 -1.5104 0
M  V30 3770 C 351.885 1.93849 -0.159021 0
M  V30 3771 O 351.14 1.76544 0.844436 0
M  V30 3772 C 351.439 2.5032 -2.55097 0
M  V30 3773 C 351.105 2.09394 -3.99331 0
M  V30 3774 C 349.767 1.97947 -4.38601 0
M  V30 3775 C 352.119 1.77712 -4.89967 0
M  V30 3776 C 349.447 1.53065 -5.66381 0
M  V30 3777 C 351.799 1.34312 -6.18177 0
M  V30 3778 C 350.463 1.21436 -6.56361 0
M  V30 3779 H 349.733 0.493568 -0.552695 0
M  V30 3780 H 352.38 0.665539 -1.79563 0
M  V30 3781 H 350.685 3.24062 -2.20207 0
M  V30 3782 H 352.382 3.08541 -2.56132 0
M  V30 3783 H 348.972 2.19235 -3.68285 0
M  V30 3784 H 353.156 1.85445 -4.60352 0
M  V30 3785 H 348.412 1.41733 -5.94745 0
M  V30 3786 H 352.586 1.08849 -6.87841 0
M  V30 3787 H 350.213 0.864345 -7.5527 0
M  V30 3788 N 351.788 1.33704 0.83433 0
M  V30 3789 C 353.037 1.24763 1.58484 0
M  V30 3790 C 353.35 -0.183775 1.94735 0
M  V30 3791 O 354.556 -0.395234 2.68608 0
M  V30 3792 C 353.012 2.18638 2.85876 0
M  V30 3793 C 352.62 3.66974 2.56971 0
M  V30 3794 C 354.364 2.18581 3.63899 0
M  V30 3795 C 352.271 4.5275 3.80488 0
M  V30 3796 H 351.201 0.463425 0.594772 0
M  V30 3797 H 353.852 1.58797 0.919551 0
M  V30 3798 H 352.234 1.77542 3.5397 0
M  V30 3799 H 353.408 4.16538 1.9706 0
M  V30 3800 H 351.723 3.69366 1.92244 0
M  V30 3801 H 354.32 2.79894 4.55591 0
M  V30 3802 H 354.663 1.18207 3.99165 0
M  V30 3803 H 355.196 2.58062 3.02735 0
M  V30 3804 H 351.935 5.54017 3.5035 0
M  V30 3805 H 351.455 4.07927 4.39722 0
M  V30 3806 H 353.134 4.66784 4.4802 0
M  V30 3807 N 353.266 -1.05314 1.17247 0
M  V30 3808 C 354.682 -1.30452 0.919473 0
M  V30 3809 C 354.882 -1.9703 -0.42209 0
M  V30 3810 O 353.938 -2.24311 -1.15935 0
M  V30 3811 C 355.251 -2.17551 2.07586 0
M  V30 3812 C 356.799 -2.30937 2.11275 0
M  V30 3813 C 357.274 -3.21396 3.26296 0
M  V30 3814 N 358.765 -3.28981 3.26076 0
M  V30 3815 C 359.5 -3.99095 4.11716 0
M  V30 3816 N 358.996 -4.71648 5.07465 0
M  V30 3817 N 360.789 -3.95247 3.9967 0
M  V30 3818 H 352.94 -0.604988 2.03602 0
M  V30 3819 H 355.203 -0.329368 0.888944 0
M  V30 3820 H 354.909 -1.75921 3.0454 0
M  V30 3821 H 354.783 -3.18182 2.02584 0
M  V30 3822 H 357.17 -2.71809 1.14907 0
M  V30 3823 H 357.251 -1.2994 2.20339 0
M  V30 3824 H 356.895 -2.81238 4.22927 0
M  V30 3825 H 356.825 -4.22395 3.14467 0
M  V30 3826 H 359.316 -2.77286 2.5675 0
M  V30 3827 H 359.629 -5.22705 5.6921 0
M  V30 3828 H 357.974 -4.70594 5.11435 0
M  V30 3829 H 361.165 -3.37691 3.24164 0
M  V30 3830 H 361.338 -4.4962 4.66632 0
M  V30 3831 N 354.744 -0.972509 -1.24016 0
M  V30 3832 C 355.993 -0.632603 -1.91523 0
M  V30 3833 C 356.306 0.836641 -1.76804 0
M  V30 3834 O 357.512 1.28728 -2.39043 0
M  V30 3835 C 355.968 -1.08082 -3.43287 0
M  V30 3836 C 355.576 -2.57386 -3.66683 0
M  V30 3837 C 357.32 -0.814288 -4.16617 0
M  V30 3838 C 355.227 -2.95915 -5.12043 0
M  V30 3839 H 354.157 -0.232898 -0.717129 0
M  V30 3840 H 356.808 -1.17936 -1.40582 0
M  V30 3841 H 355.19 -0.462339 -3.93292 0
M  V30 3842 H 356.364 -3.24405 -3.27258 0
M  V30 3843 H 354.679 -2.81701 -3.06649 0
M  V30 3844 H 357.276 -1.0781 -5.23718 0
M  V30 3845 H 357.619 0.24955 -4.15551 0
M  V30 3846 H 358.152 -1.39397 -3.72577 0
M  V30 3847 H 354.891 -4.0139 -5.18234 0
M  V30 3848 H 354.411 -2.33584 -5.52448 0
M  V30 3849 H 356.09 -2.86086 -5.80314 0
M  V30 3850 N 356.222 1.38976 -0.743202 0
M  V30 3851 C 357.17 2.32394 -0.0978389 0
M  V30 3852 C 358.164 1.53486 0.716824 0
M  V30 3853 O 359.37 1.69092 0.617088 0
M  V30 3854 H 355.745 0.75189 -0.0128402 0
M  V30 3855 H 357.716 2.84441 -0.901981 0
M  V30 3856 C 356.465 3.38629 0.789036 0
M  V30 3857 H 355.788 3.99432 0.171559 0
M  V30 3858 H 357.228 4.06426 1.20807 0
M  V30 3859 C 355.687 2.76347 1.92702 0
M  V30 3860 O 356.217 2.64836 3.02034 0
M  V30 3861 N 354.423 2.34311 1.71891 0
M  V30 3862 H 353.97 2.43873 0.829675 0
M  V30 3863 H 353.928 1.9298 2.48205 0
M  V30 3864 N 357.7 0.491464 1.49741 0
M  V30 3865 C 358.947 -0.0564256 2.02421 0
M  V30 3866 C 359.275 -1.37872 1.37192 0
M  V30 3867 O 358.53 -1.89375 0.493508 0
M  V30 3868 C 358.829 -0.267329 3.56399 0
M  V30 3869 C 358.495 0.975775 4.40215 0
M  V30 3870 C 357.157 1.31655 4.62839 0
M  V30 3871 C 359.509 1.80251 4.89039 0
M  V30 3872 C 356.837 2.48375 5.31532 0
M  V30 3873 C 359.189 2.96116 5.59015 0
M  V30 3874 C 357.853 3.30585 5.79888 0
M  V30 3875 H 357.123 -0.0206476 0.740712 0
M  V30 3876 H 359.77 0.649686 1.80143 0
M  V30 3877 H 358.075 -1.05588 3.77304 0
M  V30 3878 H 359.772 -0.705549 3.94744 0
M  V30 3879 H 356.362 0.700315 4.2284 0
M  V30 3880 H 360.546 1.55239 4.71396 0
M  V30 3881 H 355.802 2.7533 5.45897 0
M  V30 3882 H 359.976 3.60509 5.95824 0
M  V30 3883 H 357.603 4.21132 6.32892 0
M  V30 3884 N 359.178 -1.55987 0.224894 0
M  V30 3885 C 360.455 -1.90232 -0.455083 0
M  V30 3886 C 360.835 -1.14269 -1.77499 0
M  V30 3887 O 360.183 -0.253079 -2.27094 0
M  V30 3888 C 360.393 -3.42993 -0.644758 0
M  V30 3889 C 361.741 -4.13821 -0.950669 0
M  V30 3890 O 362.765 -3.4861 -0.731423 0
M  V30 3891 O 361.624 -5.29128 -1.36695 0
M  V30 3892 H 358.718 -0.79108 -0.241084 0
M  V30 3893 H 361.264 -1.67581 0.267327 0
M  V30 3894 H 360.036 -3.90252 0.28613 0
M  V30 3895 H 359.659 -3.71434 -1.41853 0
M  V30 3896 N 360.656 0.0484629 -1.57525 0
M  V30 3897 C 361.902 0.744226 -1.88651 0
M  V30 3898 C 362.235 1.76029 -0.820212 0
M  V30 3899 O 361.51 1.93782 0.166985 0
M  V30 3900 C 361.793 1.43128 -3.30434 0
M  V30 3901 C 361.646 0.43005 -4.47739 0
M  V30 3902 C 362.965 2.37031 -3.70816 0
M  V30 3903 H 360.084 0.269089 -0.68612 0
M  V30 3904 H 362.726 0.00713532 -1.89999 0
M  V30 3905 H 360.876 2.05956 -3.29415 0
M  V30 3906 H 362.548 -0.194816 -4.60888 0
M  V30 3907 H 360.791 -0.252522 -4.33064 0
M  V30 3908 H 361.462 0.948874 -5.43783 0
M  V30 3909 H 363.938 1.84263 -3.73077 0
M  V30 3910 H 362.814 2.82094 -4.70865 0
M  V30 3911 H 363.075 3.22864 -3.02012 0
M  V30 3912 N 362.134 1.5431 0.320358 0
M  V30 3913 C 363.082 1.84647 1.4145 0
M  V30 3914 C 364.076 0.718624 1.53402 0
M  V30 3915 O 365.282 0.902335 1.5575 0
M  V30 3916 H 361.657 0.585349 0.472091 0
M  V30 3917 H 363.628 2.7614 1.13089 0
M  V30 3918 C 362.377 2.09341 2.77617 0
M  V30 3919 H 361.7 2.9559 2.69196 0
M  V30 3920 H 363.14 2.3452 3.53237 0
M  V30 3921 C 361.599 0.885939 3.25043 0
M  V30 3922 O 362.129 0.0967891 4.01583 0
M  V30 3923 N 360.335 0.696682 2.82125 0
M  V30 3924 H 359.882 1.34006 2.2 0
M  V30 3925 H 359.84 -0.109712 3.14209 0
M  V30 3926 N 363.613 -0.582584 1.46437 0
M  V30 3927 C 364.861 -1.33814 1.51453 0
M  V30 3928 C 365.182 -1.94277 0.167792 0
M  V30 3929 O 364.452 -1.78566 -0.805677 0
M  V30 3930 H 363.032 -0.496838 0.557818 0
M  V30 3931 H 365.694 -0.682281 1.82568 0
M  V30 3932 H 364.79 -2.14479 2.26728 0
M  V30 3933 N 365.091 -1.34144 -0.827227 0
M  V30 3934 C 366.321 -1.29138 -1.61267 0
M  V30 3935 C 366.729 0.137597 -1.88699 0
M  V30 3936 O 366.072 1.09379 -1.47587 0
M  V30 3937 C 366.134 -2.0097 -2.9808 0
M  V30 3938 C 365.798 -3.50242 -2.93563 0
M  V30 3939 C 366.795 -4.4523 -2.68452 0
M  V30 3940 C 364.48 -3.92592 -3.13331 0
M  V30 3941 C 366.474 -5.80542 -2.63154 0
M  V30 3942 C 364.161 -5.28005 -3.07658 0
M  V30 3943 C 365.159 -6.21792 -2.82602 0
M  V30 3944 O 364.847 -7.54723 -2.76853 0
M  V30 3945 H 364.579 -0.445851 -0.508127 0
M  V30 3946 H 367.133 -1.77263 -1.03763 0
M  V30 3947 H 365.363 -1.47451 -3.57484 0
M  V30 3948 H 367.052 -1.89309 -3.5905 0
M  V30 3949 H 367.818 -4.13832 -2.52919 0
M  V30 3950 H 363.697 -3.19994 -3.31851 0
M  V30 3951 H 367.241 -6.53717 -2.43516 0
M  V30 3952 H 363.138 -5.59023 -3.22743 0
M  V30 3953 H 363.906 -7.64409 -2.92611 0
M  V30 3954 N 366.569 1.04691 -1.17803 0
M  V30 3955 C 367.818 1.77176 -0.963931 0
M  V30 3956 C 368.131 1.88888 0.508015 0
M  V30 3957 O 369.337 2.58164 0.840465 0
M  V30 3958 C 367.793 3.18518 -1.67555 0
M  V30 3959 C 367.401 3.14919 -3.18637 0
M  V30 3960 C 369.145 3.95424 -1.54402 0
M  V30 3961 C 367.052 4.51081 -3.82466 0
M  V30 3962 H 365.982 0.664116 -0.357023 0
M  V30 3963 H 368.633 1.17303 -1.4111 0
M  V30 3964 H 367.015 3.78748 -1.15613 0
M  V30 3965 H 368.189 2.64178 -3.77554 0
M  V30 3966 H 366.504 2.51512 -3.31859 0
M  V30 3967 H 369.101 4.96106 -1.99456 0
M  V30 3968 H 369.444 4.13343 -0.495329 0
M  V30 3969 H 369.977 3.41754 -2.0359 0
M  V30 3970 H 366.716 4.38368 -4.87354 0
M  V30 3971 H 366.236 5.01951 -3.28337 0
M  V30 3972 H 367.915 5.2001 -3.84965 0
M  V30 3973 N 368.047 0.979072 1.23499 0
M  V30 3974 C 369.293 0.648178 1.92163 0
M  V30 3975 C 369.626 -0.816049 1.76222 0
M  V30 3976 O 368.901 -1.58849 1.12237 0
M  V30 3977 C 369.184 1.03773 3.44824 0
M  V30 3978 C 369.037 2.55948 3.69879 0
M  V30 3979 C 370.356 0.580653 4.36253 0
M  V30 3980 H 367.475 0.236952 0.69787 0
M  V30 3981 H 370.117 1.22012 1.45647 0
M  V30 3982 H 368.267 0.551058 3.84572 0
M  V30 3983 H 369.939 3.12179 3.3962 0
M  V30 3984 H 368.182 2.98641 3.14636 0
M  V30 3985 H 368.853 2.78255 4.76737 0
M  V30 3986 H 371.329 0.998465 4.03943 0
M  V30 3987 H 370.205 0.881663 5.41773 0
M  V30 3988 H 370.466 -0.519052 4.39042 0
M  V30 3989 N 369.525 -1.3858 0.750561 0
M  V30 3990 C 370.773 -1.99789 0.30477 0
M  V30 3991 C 371.094 -1.59874 -1.11649 0
M  V30 3992 O 370.364 -0.85417 -1.76297 0
M  V30 3993 H 368.944 -0.738902 0.109694 0
M  V30 3994 H 371.606 -1.69391 0.963983 0
M  V30 3995 H 370.702 -3.09952 0.365499 0
M  V30 3996 N 371.003 -0.499398 -1.49478 0
M  V30 3997 C 371.966 0.268838 -2.27618 0
M  V30 3998 C 372.966 0.895383 -1.33565 0
M  V30 3999 O 374.156 0.760164 -1.56739 0
M  V30 4000 C 371.288 1.38559 -3.11471 0
M  V30 4001 H 372.481 -0.416812 -2.96989 0
M  V30 4002 H 370.034 -0.254313 -1.54217 0
M  V30 4003 H 370.769 2.10544 -2.46661 0
M  V30 4004 H 370.554 0.941797 -3.80621 0
M  V30 4005 H 372.044 1.92678 -3.70493 0
M  V30 4006 N 372.481 1.55866 -0.233164 0
M  V30 4007 C 373.429 2.22176 0.68851 0
M  V30 4008 C 374.423 1.20487 1.19076 0
M  V30 4009 O 375.629 1.38536 1.14925 0
M  V30 4010 H 372.004 0.712511 0.240483 0
M  V30 4011 H 373.975 2.98212 0.105935 0
M  V30 4012 C 372.724 2.92446 1.88071 0
M  V30 4013 H 372.047 3.70458 1.50337 0
M  V30 4014 H 373.487 3.42226 2.50314 0
M  V30 4015 C 371.946 1.95555 2.74335 0
M  V30 4016 O 372.476 1.47986 3.73447 0
M  V30 4017 N 370.682 1.62953 2.40613 0
M  V30 4018 H 370.229 2.01831 1.60069 0
M  V30 4019 H 370.187 0.983886 2.98609 0
M  V30 4020 N 373.959 -0.0401083 1.57549 0
M  V30 4021 C 375.208 -0.732108 1.87944 0
M  V30 4022 C 375.521 -1.77107 0.830206 0
M  V30 4023 O 376.727 -2.51488 1.02302 0
M  V30 4024 C 375.183 -1.35315 3.33494 0
M  V30 4025 C 374.791 -0.351105 4.46622 0
M  V30 4026 C 376.535 -2.02566 3.73051 0
M  V30 4027 C 374.442 -0.979859 5.83226 0
M  V30 4028 H 373.372 -0.277188 0.701201 0
M  V30 4029 H 376.023 0.0138501 1.83495 0
M  V30 4030 H 374.405 -2.14844 3.32653 0
M  V30 4031 H 375.579 0.416674 4.58912 0
M  V30 4032 H 373.894 0.218708 4.15825 0
M  V30 4033 H 376.491 -2.50441 4.72423 0
M  V30 4034 H 376.834 -2.83904 3.04474 0
M  V30 4035 H 377.367 -1.29827 3.76018 0
M  V30 4036 H 374.106 -0.206135 6.55176 0
M  V30 4037 H 373.626 -1.71774 5.74677 0
M  V30 4038 H 375.305 -1.49046 6.29599 0
M  V30 4039 N 375.437 -1.54477 -0.31217 0
M  V30 4040 C 376.347 -1.87695 -1.4074 0
M  V30 4041 C 377.363 -0.769975 -1.56036 0
M  V30 4042 O 378.539 -1.06537 -1.70915 0
M  V30 4043 C 375.604 -2.10755 -2.75287 0
M  V30 4044 C 374.665 -3.34514 -2.69071 0
M  V30 4045 C 373.898 -3.56465 -3.97201 0
M  V30 4046 O 374.121 -2.81637 -4.96021 0
M  V30 4047 O 373.055 -4.49964 -3.9977 0
M  V30 4048 H 376.881 -2.80849 -1.15574 0
M  V30 4049 H 374.466 -1.40526 -0.507228 0
M  V30 4050 H 376.348 -2.27188 -3.54913 0
M  V30 4051 H 375.023 -1.20788 -3.0032 0
M  V30 4052 H 373.93 -3.23456 -1.87955 0
M  V30 4053 H 375.263 -4.24575 -2.48992 0
M  V30 4054 N 376.915 0.57481 -1.46744 0
M  V30 4055 C 378.143 1.35856 -1.56047 0
M  V30 4056 C 378.558 1.87691 -0.204365 0
M  V30 4057 O 377.915 1.64049 0.79963 0
M  V30 4058 C 377.966 2.54066 -2.57163 0
M  V30 4059 O 377.687 2.04377 -3.87507 0
M  V30 4060 C 379.188 3.46514 -2.76483 0
M  V30 4061 H 376.408 0.414754 -0.527466 0
M  V30 4062 H 378.952 0.698035 -1.92218 0
M  V30 4063 H 377.107 3.16092 -2.23974 0
M  V30 4064 H 377.521 2.81419 -4.4261 0
M  V30 4065 H 378.995 4.25919 -3.51137 0
M  V30 4066 H 379.472 3.98951 -1.83671 0
M  V30 4067 H 380.078 2.90318 -3.10799 0
M  V30 4068 N 378.394 1.34581 0.820102 0
M  V30 4069 C 379.624 1.29991 1.6058 0
M  V30 4070 C 380.032 -0.127588 1.88769 0
M  V30 4071 O 379.375 -1.08595 1.48165 0
M  V30 4072 C 379.437 2.02548 2.9701 0
M  V30 4073 C 379.101 3.51794 2.91701 0
M  V30 4074 C 380.098 4.46647 2.66087 0
M  V30 4075 C 377.783 3.94249 3.11245 0
M  V30 4076 C 379.777 5.81929 2.60071 0
M  V30 4077 C 377.464 5.2963 3.04853 0
M  V30 4078 C 378.462 6.23282 2.793 0
M  V30 4079 O 378.15 7.56181 2.72847 0
M  V30 4080 H 377.882 0.448539 0.505756 0
M  V30 4081 H 380.436 1.77811 1.02822 0
M  V30 4082 H 378.666 1.49345 3.56697 0
M  V30 4083 H 380.355 1.91211 3.58041 0
M  V30 4084 H 381.121 4.15168 2.5072 0
M  V30 4085 H 377 3.21749 3.30149 0
M  V30 4086 H 380.544 6.54999 2.40046 0
M  V30 4087 H 376.441 5.60727 3.19774 0
M  V30 4088 H 377.209 7.6595 2.88553 0
M  V30 4089 N 379.872 -1.04064 1.18357 0
M  V30 4090 C 380.802 -2.14001 0.934113 0
M  V30 4091 C 381.783 -1.69616 -0.128186 0
M  V30 4092 O 382.968 -1.94185 0.0244093 0
M  V30 4093 C 380.098 -3.44253 0.459066 0
M  V30 4094 C 379.052 -4.02261 1.46185 0
M  V30 4095 C 378.378 -5.27992 0.844322 0
M  V30 4096 C 379.678 -4.38432 2.83856 0
M  V30 4097 H 381.372 -2.35127 1.85352 0
M  V30 4098 H 378.918 -1.12998 0.892604 0
M  V30 4099 H 380.871 -4.20522 0.271907 0
M  V30 4100 H 379.595 -3.22813 -0.495912 0
M  V30 4101 H 378.254 -3.28074 1.63595 0
M  V30 4102 H 377.902 -5.02862 -0.117845 0
M  V30 4103 H 377.602 -5.67765 1.51384 0
M  V30 4104 H 379.126 -6.06938 0.667693 0
M  V30 4105 H 380.54 -5.05688 2.70098 0
M  V30 4106 H 378.937 -4.89254 3.47491 0
M  V30 4107 H 380.007 -3.4826 3.37406 0
M  V30 4108 N 381.35 -0.985608 -1.22978 0
M  V30 4109 C 382.28 -0.549649 -2.26939 0
M  V30 4110 C 383.261 0.419803 -1.64838 0
M  V30 4111 O 384.446 0.31203 -1.91677 0
M  V30 4112 C 381.576 0.143652 -3.47003 0
M  V30 4113 C 380.53 -0.743606 -4.21491 0
M  V30 4114 C 379.856 0.0822027 -5.34637 0
M  V30 4115 C 381.156 -2.03694 -4.80943 0
M  V30 4116 H 382.85 -1.41862 -2.63658 0
M  V30 4117 H 380.396 -0.683571 -1.26741 0
M  V30 4118 H 382.349 0.459985 -4.18882 0
M  V30 4119 H 381.073 1.04711 -3.09359 0
M  V30 4120 H 379.732 -1.04347 -3.51436 0
M  V30 4121 H 379.38 0.986359 -4.93234 0
M  V30 4122 H 379.08 -0.508377 -5.85397 0
M  V30 4123 H 380.604 0.392797 -6.09335 0
M  V30 4124 H 382.018 -1.78504 -5.44802 0
M  V30 4125 H 380.415 -2.57573 -5.42011 0
M  V30 4126 H 381.485 -2.72042 -4.01399 0
M  V30 4127 N 382.828 1.3818 -0.7579 0
M  V30 4128 C 383.738 2.3421 -0.135247 0
M  V30 4129 C 384.754 1.59487 0.695683 0
M  V30 4130 O 385.93 1.91657 0.618832 0
M  V30 4131 C 382.995 3.3862 0.744139 0
M  V30 4132 C 382.056 4.2918 -0.101658 0
M  V30 4133 C 381.289 5.28603 0.735851 0
M  V30 4134 O 381.512 5.35166 1.97366 0
M  V30 4135 O 380.446 6.01707 0.152372 0
M  V30 4136 H 384.272 2.8916 -0.928436 0
M  V30 4137 H 381.857 1.40101 -0.518855 0
M  V30 4138 H 383.739 4.02539 1.2466 0
M  V30 4139 H 382.414 2.86019 1.51575 0
M  V30 4140 H 381.321 3.68407 -0.650167 0
M  V30 4141 H 382.654 4.85048 -0.836024 0
M  V30 4142 N 384.306 0.507319 1.49211 0
M  V30 4143 C 385.253 -0.267728 2.29242 0
M  V30 4144 C 386.223 -0.954609 1.35928 0
M  V30 4145 O 387.408 -0.960046 1.64887 0
M  V30 4146 C 384.548 -1.32243 3.18756 0
M  V30 4147 C 383.661 -0.64669 4.27132 0
M  V30 4148 C 382.796 -1.68238 5.03855 0
M  V30 4149 C 381.835 -0.98885 6.0406 0
M  V30 4150 N 380.972 -1.96903 6.73924 0
M  V30 4151 H 385.812 0.420968 2.95012 0
M  V30 4152 H 383.349 0.219443 1.45454 0
M  V30 4153 H 385.307 -1.94599 3.69036 0
M  V30 4154 H 383.937 -1.97981 2.54958 0
M  V30 4155 H 382.989 0.0902926 3.80293 0
M  V30 4156 H 384.301 -0.101058 4.98698 0
M  V30 4157 H 383.455 -2.38081 5.58034 0
M  V30 4158 H 382.194 -2.26187 4.32077 0
M  V30 4159 H 381.199 -0.276222 5.49106 0
M  V30 4160 H 382.424 -0.415767 6.77826 0
M  V30 4161 H 380.37 -2.53803 6.04913 0
M  V30 4162 H 380.287 -1.47423 7.41487 0
M  V30 4163 H 381.555 -2.66015 7.32705 0
M  V30 4164 N 385.784 -1.5574 0.241426 0
M  V30 4165 C 387.009 -2.0366 -0.392111 0
M  V30 4166 C 387.434 -1.11969 -1.51144 0
M  V30 4167 O 386.792 -0.111594 -1.80956 0
M  V30 4168 C 386.84 -3.49638 -0.882371 0
M  V30 4169 O 385.944 -3.6108 -1.99235 0
M  V30 4170 H 385.285 -0.658379 -0.0862122 0
M  V30 4171 H 387.815 -2.01302 0.365881 0
M  V30 4172 H 387.825 -3.90351 -1.18702 0
M  V30 4173 H 386.5 -4.15852 -0.0632361 0
M  V30 4174 H 385.077 -3.32262 -1.69282 0
M  V30 4175 N 387.262 0.0317525 -1.57568 0
M  V30 4176 C 388.678 0.38735 -1.54828 0
M  V30 4177 C 388.878 1.7677 -0.967187 0
M  V30 4178 O 387.934 2.45581 -0.587063 0
M  V30 4179 C 389.247 0.291667 -2.99282 0
M  V30 4180 C 390.795 0.368946 -3.10818 0
M  V30 4181 C 391.27 0.302741 -4.56998 0
M  V30 4182 N 392.761 0.361617 -4.61786 0
M  V30 4183 C 393.496 0.333238 -5.72431 0
M  V30 4184 N 392.992 0.257308 -6.92322 0
M  V30 4185 N 394.785 0.382769 -5.60795 0
M  V30 4186 H 386.936 -0.871609 -1.93692 0
M  V30 4187 H 389.199 -0.331161 -0.888277 0
M  V30 4188 H 388.905 -0.656794 -3.45513 0
M  V30 4189 H 388.779 1.08638 -3.61217 0
M  V30 4190 H 391.166 1.30784 -2.64536 0
M  V30 4191 H 391.247 -0.455066 -2.5172 0
M  V30 4192 H 390.891 -0.632473 -5.03947 0
M  V30 4193 H 390.821 1.14482 -5.14005 0
M  V30 4194 H 393.312 0.422923 -3.75526 0
M  V30 4195 H 393.625 0.24068 -7.72425 0
M  V30 4196 H 391.97 0.223396 -6.94641 0
M  V30 4197 H 395.161 0.44006 -4.66027 0
M  V30 4198 H 395.334 0.357184 -6.47015 0
M  V30 4199 N 388.74 1.54641 0.303973 0
M  V30 4200 C 389.703 1.84646 1.35789 0
M  V30 4201 C 390.703 0.7192 1.4382 0
M  V30 4202 O 391.893 0.987491 1.43507 0
M  V30 4203 C 389.025 2.02407 2.74307 0
M  V30 4204 H 390.218 2.78829 1.10429 0
M  V30 4205 H 387.771 1.46658 0.540487 0
M  V30 4206 H 388.506 1.10502 3.04893 0
M  V30 4207 H 388.291 2.84453 2.69868 0
M  V30 4208 H 389.781 2.27002 3.50514 0
M  V30 4209 N 390.218 -0.567019 1.47046 0
M  V30 4210 C 391.467 -1.32091 1.5243 0
M  V30 4211 C 391.78 -1.94704 0.187021 0
M  V30 4212 O 392.986 -2.7124 0.118771 0
M  V30 4213 C 391.442 -2.39479 2.68659 0
M  V30 4214 C 391.05 -1.831 4.08874 0
M  V30 4215 C 392.794 -3.16111 2.83327 0
M  V30 4216 C 390.701 -2.8821 5.16419 0
M  V30 4217 H 389.631 -0.496629 0.56734 0
M  V30 4218 H 392.282 -0.603354 1.73297 0
M  V30 4219 H 390.664 -3.14105 2.41152 0
M  V30 4220 H 391.838 -1.14913 4.46242 0
M  V30 4221 H 390.153 -1.19085 3.99008 0
M  V30 4222 H 392.75 -3.94585 3.60842 0
M  V30 4223 H 393.093 -3.69686 1.91411 0
M  V30 4224 H 393.626 -2.48595 3.10556 0
M  V30 4225 H 390.365 -2.39504 6.10179 0
M  V30 4226 H 389.885 -3.54839 4.8358 0
M  V30 4227 H 391.564 -3.51881 5.42945 0
M  V30 4228 N 391.696 -1.35014 -0.812953 0
M  V30 4229 C 393.112 -1.14914 -1.10757 0
M  V30 4230 C 393.312 0.0426818 -2.01455 0
M  V30 4231 O 392.368 0.715212 -2.42159 0
M  V30 4232 C 393.681 -2.44911 -1.74468 0
M  V30 4233 C 395.229 -2.5106 -1.86917 0
M  V30 4234 C 395.704 -3.81085 -2.54044 0
M  V30 4235 N 397.195 -3.82301 -2.61535 0
M  V30 4236 C 397.93 -4.79634 -3.14227 0
M  V30 4237 N 397.426 -5.87353 -3.67407 0
M  V30 4238 N 399.219 -4.67078 -3.12721 0
M  V30 4239 H 391.37 -2.1136 -0.20989 0
M  V30 4240 H 393.633 -0.935128 -0.155692 0
M  V30 4241 H 393.339 -3.32267 -1.15289 0
M  V30 4242 H 393.213 -2.58989 -2.74234 0
M  V30 4243 H 395.6 -1.64137 -2.45241 0
M  V30 4244 H 395.681 -2.40901 -0.860242 0
M  V30 4245 H 395.325 -4.68402 -1.96372 0
M  V30 4246 H 395.255 -3.88529 -3.55461 0
M  V30 4247 H 397.746 -3.04465 -2.23851 0
M  V30 4248 H 398.059 -6.57624 -4.05894 0
M  V30 4249 H 396.404 -5.91054 -3.65623 0
M  V30 4250 H 399.595 -3.82067 -2.70449 0
M  V30 4251 H 399.768 -5.43098 -3.53481 0
M  V30 4252 N 393.175 1.03435 -1.18907 0
M  V30 4253 C 394.107 2.1165 -0.879595 0
M  V30 4254 C 395.12 1.62316 0.125439 0
M  V30 4255 O 396.309 1.78201 -0.103245 0
M  V30 4256 C 393.409 3.37622 -0.294042 0
M  V30 4257 C 392.582 4.16166 -1.34629 0
M  V30 4258 C 391.641 5.20457 -0.775274 0
M  V30 4259 O 390.667 5.50379 -1.4516 0
M  V30 4260 N 391.869 5.78949 0.424126 0
M  V30 4261 H 394.634 2.38791 -1.81105 0
M  V30 4262 H 392.195 1.19681 -1.09032 0
M  V30 4263 H 394.187 4.04572 0.101679 0
M  V30 4264 H 392.757 3.07873 0.541575 0
M  V30 4265 H 391.977 3.44444 -1.91707 0
M  V30 4266 H 393.265 4.65432 -2.05549 0
M  V30 4267 H 392.663 5.56948 0.991209 0
M  V30 4268 H 391.22 6.47334 0.761691 0
M  V30 4269 N 394.653 0.992116 1.22453 0
M  V30 4270 C 395.616 0.546883 2.2258 0
M  V30 4271 C 396.616 -0.369829 1.56489 0
M  V30 4272 O 397.806 -0.161896 1.73446 0
M  V30 4273 C 394.938 -0.204659 3.40285 0
M  V30 4274 H 396.131 1.43234 2.63484 0
M  V30 4275 H 393.684 0.779239 1.3549 0
M  V30 4276 H 394.419 -1.10614 3.04853 0
M  V30 4277 H 394.204 0.45354 3.89468 0
M  V30 4278 H 395.694 -0.504358 4.14543 0
M  V30 4279 N 396.131 -1.37776 0.765217 0
M  V30 4280 C 397.078 -2.30342 0.145274 0
M  V30 4281 C 398.048 -1.5077 -0.696971 0
M  V30 4282 O 399.233 -1.79362 -0.650689 0
M  V30 4283 C 396.373 -3.37227 -0.732939 0
M  V30 4284 C 395.486 -4.31819 0.125199 0
M  V30 4285 C 394.621 -5.25777 -0.757107 0
M  V30 4286 C 393.66 -6.12012 0.103963 0
M  V30 4287 N 392.797 -6.98232 -0.735953 0
M  V30 4288 H 397.637 -2.8278 0.940195 0
M  V30 4289 H 395.174 -1.39211 0.475255 0
M  V30 4290 H 397.132 -3.97818 -1.25686 0
M  V30 4291 H 395.762 -2.86171 -1.49353 0
M  V30 4292 H 394.814 -3.7259 0.766865 0
M  V30 4293 H 396.126 -4.92509 0.789683 0
M  V30 4294 H 395.28 -5.91541 -1.34776 0
M  V30 4295 H 394.019 -4.65481 -1.45529 0
M  V30 4296 H 393.024 -5.45233 0.707197 0
M  V30 4297 H 394.249 -6.74379 0.799381 0
M  V30 4298 H 392.195 -6.40472 -1.41887 0
M  V30 4299 H 392.112 -7.55891 -0.128624 0
M  V30 4300 H 393.38 -7.68393 -1.31121 0
M  V30 4301 N 397.609 -0.515225 -1.4894 0
M  V30 4302 C 398.519 0.259774 -2.33157 0
M  V30 4303 C 399.535 0.953501 -1.45548 0
M  V30 4304 O 400.711 0.931735 -1.78552 0
M  V30 4305 C 397.776 1.30193 -3.21326 0
M  V30 4306 C 396.837 0.620129 -4.24797 0
M  V30 4307 C 396.07 1.61263 -5.08753 0
M  V30 4308 O 396.293 2.84389 -4.94448 0
M  V30 4309 O 395.227 1.16013 -5.90614 0
M  V30 4310 H 399.053 -0.429932 -3.00641 0
M  V30 4311 H 396.638 -0.276346 -1.46822 0
M  V30 4312 H 398.52 1.90455 -3.75905 0
M  V30 4313 H 397.195 1.97431 -2.56521 0
M  V30 4314 H 396.102 -0.0226019 -3.74093 0
M  V30 4315 H 397.435 -0.0100493 -4.92199 0
M  V30 4316 N 399.087 1.5561 -0.249682 0
M  V30 4317 C 399.997 2.25143 0.659375 0
M  V30 4318 C 401.013 1.2685 1.19101 0
M  V30 4319 O 402.189 1.59732 1.22669 0
M  V30 4320 C 399.254 2.93945 1.8384 0
M  V30 4321 C 398.315 4.07655 1.34596 0
M  V30 4322 C 397.548 4.73167 2.46878 0
M  V30 4323 O 397.771 4.37768 3.65671 0
M  V30 4324 O 396.705 5.61623 2.16478 0
M  V30 4325 H 400.531 3.03545 0.0968698 0
M  V30 4326 H 398.116 1.49389 -0.018074 0
M  V30 4327 H 399.998 3.37271 2.52638 0
M  V30 4328 H 398.673 2.18481 2.38847 0
M  V30 4329 H 397.58 3.68839 0.625174 0
M  V30 4330 H 398.913 4.84946 0.841941 0
M  V30 4331 N 400.565 -0.0233959 1.57583 0
M  V30 4332 C 401.981 -0.379134 1.55031 0
M  V30 4333 C 402.181 -1.76255 0.976548 0
M  V30 4334 O 401.237 -2.45266 0.600078 0
M  V30 4335 C 402.55 -0.275792 2.99433 0
M  V30 4336 C 404.098 -0.352458 3.11009 0
M  V30 4337 C 404.573 -0.278501 4.57152 0
M  V30 4338 N 406.064 -0.337123 4.61972 0
M  V30 4339 C 406.799 -0.302876 5.726 0
M  V30 4340 N 406.295 -0.220589 6.92449 0
M  V30 4341 N 408.088 -0.353023 5.6099 0
M  V30 4342 H 400.239 0.881869 1.93227 0
M  V30 4343 H 402.502 0.335867 0.886509 0
M  V30 4344 H 402.208 0.675108 3.4516 0
M  V30 4345 H 402.082 -1.06721 3.61788 0
M  V30 4346 H 404.469 -1.29379 2.65226 0
M  V30 4347 H 404.55 0.468409 2.51475 0
M  V30 4348 H 404.194 0.659189 5.03604 0
M  V30 4349 H 404.124 -1.11755 5.14605 0
M  V30 4350 H 406.615 -0.403002 3.75745 0
M  V30 4351 H 406.928 -0.199713 7.72542 0
M  V30 4352 H 405.273 -0.186555 6.9475 0
M  V30 4353 H 408.464 -0.415339 4.66254 0
M  V30 4354 H 408.637 -0.322866 6.47195 0
M  V30 4355 N 402.043 -1.548 -0.295768 0
M  V30 4356 C 403.271 -1.78327 -1.04914 0
M  V30 4357 C 403.686 -0.545316 -1.80753 0
M  V30 4358 O 403.043 0.485013 -1.75937 0
M  V30 4359 C 403.094 -2.99418 -2.02561 0
M  V30 4360 O 402.815 -4.18431 -1.29798 0
M  V30 4361 C 404.316 -3.35375 -2.89895 0
M  V30 4362 H 401.536 -0.594618 -0.310918 0
M  V30 4363 H 404.08 -2.01763 -0.333454 0
M  V30 4364 H 402.235 -2.78175 -2.69624 0
M  V30 4365 H 402.649 -4.86736 -1.95419 0
M  V30 4366 H 404.123 -4.23332 -3.54251 0
M  V30 4367 H 404.6 -2.53761 -3.58472 0
M  V30 4368 H 405.206 -3.58796 -2.28355 0
M  V30 4369 N 403.521 0.559213 -1.47345 0
M  V30 4370 C 404.768 1.31648 -1.53867 0
M  V30 4371 C 405.096 1.93468 -0.200104 0
M  V30 4372 O 404.351 1.78295 0.806799 0
M  V30 4373 C 404.65 2.44853 -2.6035 0
M  V30 4374 C 404.316 2.00876 -4.03683 0
M  V30 4375 C 402.978 1.88599 -4.42701 0
M  V30 4376 C 405.33 1.67279 -4.93626 0
M  V30 4377 C 402.658 1.41017 -5.69501 0
M  V30 4378 C 405.01 1.21169 -6.20887 0
M  V30 4379 C 403.674 1.07487 -6.58789 0
M  V30 4380 H 402.944 0.481734 -0.56304 0
M  V30 4381 H 405.591 0.627301 -1.80934 0
M  V30 4382 H 403.896 3.19318 -2.27032 0
M  V30 4383 H 405.593 3.03039 -2.62619 0
M  V30 4384 H 402.183 2.11374 -3.72853 0
M  V30 4385 H 406.367 1.75638 -4.64182 0
M  V30 4386 H 401.623 1.29086 -5.97618 0
M  V30 4387 H 405.797 0.942345 -6.89995 0
M  V30 4388 H 403.424 0.703946 -7.56934 0
M  V30 4389 N 404.999 1.35443 0.805782 0
M  V30 4390 C 405.949 1.24972 1.90699 0
M  V30 4391 C 406.933 0.144806 1.60247 0
M  V30 4392 O 408.125 0.376102 1.72958 0
M  V30 4393 C 405.254 1.02475 3.27649 0
M  V30 4394 C 404.34 2.17361 3.64164 0
M  V30 4395 N 404.731 3.42591 3.72109 0
M  V30 4396 C 403.029 2.08765 3.94123 0
M  V30 4397 C 403.73 4.18144 4.04389 0
M  V30 4398 N 402.706 3.4691 4.18515 0
M  V30 4399 H 406.508 2.19852 1.95044 0
M  V30 4400 H 404.022 1.27928 1.00041 0
M  V30 4401 H 406.019 0.930617 4.06381 0
M  V30 4402 H 404.679 0.0848009 3.24589 0
M  V30 4403 H 405.69 3.76932 3.55166 0
M  V30 4404 H 402.367 1.22629 3.99084 0
M  V30 4405 H 403.757 5.26367 4.17597 0
M  V30 4406 N 406.477 -1.02803 1.19454 0
M  V30 4407 C 407.726 -1.7562 0.991996 0
M  V30 4408 C 408.039 -1.89672 -0.477901 0
M  V30 4409 O 409.245 -2.59468 -0.799287 0
M  V30 4410 C 407.701 -3.15812 1.72601 0
M  V30 4411 C 407.309 -3.0981 3.23607 0
M  V30 4412 C 409.053 -3.92918 1.60674 0
M  V30 4413 C 406.96 -4.44939 3.89594 0
M  V30 4414 H 405.89 -0.658352 0.367543 0
M  V30 4415 H 408.541 -1.15044 1.42959 0
M  V30 4416 H 406.923 -3.7686 1.21624 0
M  V30 4417 H 408.097 -2.58138 3.81709 0
M  V30 4418 H 406.412 -2.46201 3.35819 0
M  V30 4419 H 409.009 -4.9287 2.07323 0
M  V30 4420 H 409.352 -4.12502 0.561025 0
M  V30 4421 H 409.885 -3.38472 2.09001 0
M  V30 4422 H 406.624 -4.30559 4.94267 0
M  V30 4423 H 406.144 -4.96664 3.36281 0
M  V30 4424 H 407.823 -5.1382 3.93189 0
M  V30 4425 N 407.956 -0.998596 -1.21925 0
M  V30 4426 C 409.203 -0.677663 -1.90824 0
M  V30 4427 C 409.531 0.790905 -1.77693 0
M  V30 4428 O 408.786 1.58817 -1.14349 0
M  V30 4429 C 409.085 -1.03648 -3.42041 0
M  V30 4430 C 408.751 -2.49825 -3.75364 0
M  V30 4431 C 407.413 -2.8977 -3.8417 0
M  V30 4432 C 409.765 -3.44545 -3.91073 0
M  V30 4433 C 407.093 -4.23412 -4.06127 0
M  V30 4434 C 409.445 -4.77853 -4.14535 0
M  V30 4435 C 408.109 -5.17531 -4.21566 0
M  V30 4436 H 407.379 -0.247975 -0.698276 0
M  V30 4437 H 410.026 -1.25584 -1.44571 0
M  V30 4438 H 408.331 -0.376457 -3.89987 0
M  V30 4439 H 410.028 -0.766113 -3.93614 0
M  V30 4440 H 406.618 -2.17866 -3.69097 0
M  V30 4441 H 410.802 -3.14853 -3.83642 0
M  V30 4442 H 406.058 -4.53734 -4.09799 0
M  V30 4443 H 410.232 -5.51189 -4.25633 0
M  V30 4444 H 407.859 -6.21102 -4.38333 0
M  V30 4445 N 409.434 1.37368 -0.772513 0
M  V30 4446 C 410.664 2.03647 -0.348082 0
M  V30 4447 C 411.072 1.58392 1.03482 0
M  V30 4448 O 410.415 0.760921 1.672 0
M  V30 4449 C 410.477 3.58131 -0.313404 0
M  V30 4450 C 410.141 4.2652 -1.64102 0
M  V30 4451 C 411.138 4.50587 -2.5936 0
M  V30 4452 C 408.823 4.64335 -1.91567 0
M  V30 4453 C 410.817 5.11526 -3.80289 0
M  V30 4454 C 408.504 5.24996 -3.12766 0
M  V30 4455 C 409.502 5.48529 -4.06946 0
M  V30 4456 O 409.19 6.07921 -5.26011 0
M  V30 4457 H 408.922 0.660538 -0.143753 0
M  V30 4458 H 411.476 1.76669 -1.04772 0
M  V30 4459 H 409.706 3.84159 0.442617 0
M  V30 4460 H 411.395 4.05813 0.0840613 0
M  V30 4461 H 412.161 4.21784 -2.39423 0
M  V30 4462 H 408.04 4.45353 -1.19088 0
M  V30 4463 H 411.584 5.29811 -4.53813 0
M  V30 4464 H 407.481 5.53223 -3.32588 0
M  V30 4465 H 408.249 6.26398 -5.26847 0
M  V30 4466 N 410.912 0.523116 1.48665 0
M  V30 4467 C 412.142 -0.00961724 2.06598 0
M  V30 4468 C 412.55 -1.29333 1.38093 0
M  V30 4469 O 411.893 -1.77846 0.46007 0
M  V30 4470 C 411.955 -0.311135 3.58151 0
M  V30 4471 C 411.619 0.878092 4.48485 0
M  V30 4472 C 412.616 1.77464 4.88674 0
M  V30 4473 C 410.301 1.08315 4.90483 0
M  V30 4474 C 412.295 2.86021 5.69623 0
M  V30 4475 C 409.982 2.17187 5.71203 0
M  V30 4476 C 410.98 3.05873 6.10681 0
M  V30 4477 O 410.668 4.12862 6.89783 0
M  V30 4478 H 410.4 0.0272658 0.67545 0
M  V30 4479 H 412.954 0.726156 1.92136 0
M  V30 4480 H 411.184 -1.10079 3.70701 0
M  V30 4481 H 412.873 -0.785125 3.98234 0
M  V30 4482 H 413.639 1.62813 4.56855 0
M  V30 4483 H 409.518 0.402149 4.59243 0
M  V30 4484 H 413.062 3.55272 6.00356 0
M  V30 4485 H 408.959 2.31824 6.02435 0
M  V30 4486 H 409.727 4.10487 7.08126 0
M  V30 4487 N 412.39 -1.55475 0.257931 0
M  V30 4488 C 413.32 -2.24815 -0.630912 0
M  V30 4489 C 414.301 -1.23224 -1.17259 0
M  V30 4490 O 415.486 -1.51904 -1.20991 0
M  V30 4491 C 412.616 -2.95609 -1.82298 0
M  V30 4492 C 411.57 -4.03982 -1.41359 0
M  V30 4493 C 410.896 -4.6226 -2.68738 0
M  V30 4494 C 412.196 -5.19109 -0.57648 0
M  V30 4495 H 413.89 -2.99354 -0.0526878 0
M  V30 4496 H 411.436 -1.4398 -0.023901 0
M  V30 4497 H 413.389 -3.42822 -2.45054 0
M  V30 4498 H 412.113 -2.18577 -2.42676 0
M  V30 4499 H 410.772 -3.57555 -0.809324 0
M  V30 4500 H 410.42 -3.81915 -3.27338 0
M  V30 4501 H 410.12 -5.35424 -2.42065 0
M  V30 4502 H 411.644 -5.12212 -3.32372 0
M  V30 4503 H 413.058 -5.62479 -1.10861 0
M  V30 4504 H 411.455 -5.98729 -0.405351 0
M  V30 4505 H 412.525 -4.83174 0.408776 0
M  V30 4506 N 413.868 0.0150385 -1.57593 0
M  V30 4507 C 414.798 1.01047 -2.10503 0
M  V30 4508 C 415.779 1.36816 -1.01071 0
M  V30 4509 O 416.964 1.45455 -1.28672 0
M  V30 4510 C 414.094 2.30708 -2.59598 0
M  V30 4511 C 413.048 2.09142 -3.73421 0
M  V30 4512 C 412.374 3.44685 -4.08774 0
M  V30 4513 C 413.674 1.46619 -5.01298 0
M  V30 4514 H 415.368 0.569978 -2.93925 0
M  V30 4515 H 412.914 0.272724 -1.41394 0
M  V30 4516 H 414.867 3.00687 -2.95238 0
M  V30 4517 H 413.591 2.76843 -1.73279 0
M  V30 4518 H 412.25 1.41592 -3.38153 0
M  V30 4519 H 411.898 3.88495 -3.195 0
M  V30 4520 H 411.598 3.31077 -4.8545 0
M  V30 4521 H 413.122 4.16004 -4.4696 0
M  V30 4522 H 414.536 2.06535 -5.34805 0
M  V30 4523 H 412.933 1.43544 -5.82679 0
M  V30 4524 H 414.003 0.433611 -4.82957 0
M  V30 4525 N 415.346 1.54954 0.287554 0
M  V30 4526 C 416.571 1.79209 1.04397 0
M  V30 4527 C 416.996 0.556431 1.79682 0
M  V30 4528 O 416.354 -0.493518 1.74454 0
M  V30 4529 C 416.402 3.00739 1.98969 0
M  V30 4530 O 415.506 2.74805 3.075 0
M  V30 4531 H 414.847 0.592755 0.299227 0
M  V30 4532 H 417.377 2.02068 0.320886 0
M  V30 4533 H 417.387 3.29077 2.4119 0
M  V30 4534 H 416.062 3.90329 1.43582 0
M  V30 4535 H 414.639 2.57523 2.69697 0
M  V30 4536 N 416.824 -0.551391 1.4764 0
M  V30 4537 C 418.072 -1.30572 1.54258 0
M  V30 4538 C 418.393 -1.93877 0.208963 0
M  V30 4539 O 417.663 -1.80234 -0.767619 0
M  V30 4540 H 416.243 -0.484894 0.568231 0
M  V30 4541 H 418.905 -0.643402 1.83974 0
M  V30 4542 H 418.001 -2.09621 2.31226 0
M  V30 4543 N 418.302 -1.35869 -0.798587 0
M  V30 4544 C 419.265 -1.29307 -1.89242 0
M  V30 4545 C 420.265 -0.202747 -1.59517 0
M  V30 4546 O 421.455 -0.456957 -1.681 0
M  V30 4547 C 418.587 -1.00229 -3.25833 0
M  V30 4548 H 419.78 -2.26576 -1.96478 0
M  V30 4549 H 417.333 -1.20509 -0.995358 0
M  V30 4550 H 418.068 -0.033801 -3.24282 0
M  V30 4551 H 417.853 -1.79121 -3.48795 0
M  V30 4552 H 419.343 -0.98219 -4.05885 0
M  V30 4553 N 419.78 1.02168 -1.19998 0
M  V30 4554 C 421.028 1.75338 -1.00504 0
M  V30 4555 C 421.349 1.89387 0.464506 0
M  V30 4556 O 420.619 1.43268 1.33608 0
M  V30 4557 H 419.199 0.649564 -0.368885 0
M  V30 4558 H 421.861 1.23205 -1.51018 0
M  V30 4559 H 420.957 2.75892 -1.45912 0
M  V30 4560 N 421.258 1.00505 1.21394 0
M  V30 4561 C 422.168 0.574806 2.27449 0
M  V30 4562 C 423.184 -0.382206 1.6975 0
M  V30 4563 O 424.36 -0.246027 1.99892 0
M  V30 4564 C 421.425 -0.0917414 3.46579 0
M  V30 4565 C 420.486 0.909758 4.1955 0
M  V30 4566 C 419.719 0.274924 5.32991 0
M  V30 4567 O 419.942 -0.928254 5.62796 0
M  V30 4568 O 418.876 0.985877 5.93771 0
M  V30 4569 H 422.702 1.45744 2.66444 0
M  V30 4570 H 420.287 0.773923 1.27792 0
M  V30 4571 H 422.169 -0.464551 4.18832 0
M  V30 4572 H 420.844 -0.948755 3.09484 0
M  V30 4573 H 419.751 1.33372 3.49518 0
M  V30 4574 H 421.084 1.73636 4.60555 0
M  V30 4575 N 422.737 -1.36956 0.779787 0
M  V30 4576 C 423.687 -2.27539 0.144892 0
M  V30 4577 C 424.671 -1.46493 -0.665488 0
M  V30 4578 O 425.863 -1.68968 -0.527141 0
M  V30 4579 C 422.992 -3.35512 -0.727082 0
M  V30 4580 C 422.078 -4.24001 0.0915642 0
M  V30 4581 N 422.469 -4.92757 1.14125 0
M  V30 4582 C 420.767 -4.45807 -0.131141 0
M  V30 4583 C 421.468 -5.58138 1.6388 0
M  V30 4584 N 420.444 -5.35241 0.94962 0
M  V30 4585 H 424.246 -2.78176 0.948446 0
M  V30 4586 H 421.76 -1.50169 0.618315 0
M  V30 4587 H 423.757 -3.99324 -1.19776 0
M  V30 4588 H 422.417 -2.86431 -1.52929 0
M  V30 4589 H 423.428 -4.94984 1.52353 0
M  V30 4590 H 420.105 -4.07582 -0.904621 0
M  V30 4591 H 421.495 -6.23071 2.51461 0
M  V30 4592 N 424.215 -0.530993 -1.48385 0
M  V30 4593 C 425.145 0.219985 -2.32461 0
M  V30 4594 C 426.126 0.934111 -1.42156 0
M  V30 4595 O 427.311 0.919694 -1.71042 0
M  V30 4596 C 424.441 1.26674 -3.23375 0
M  V30 4597 C 423.395 0.67069 -4.22712 0
M  V30 4598 C 422.721 1.82017 -5.02766 0
M  V30 4599 C 424.021 -0.358268 -5.2107 0
M  V30 4600 H 425.715 -0.48187 -2.95497 0
M  V30 4601 H 423.261 -0.233182 -1.42099 0
M  V30 4602 H 425.214 1.80006 -3.81019 0
M  V30 4603 H 423.938 1.99818 -2.58341 0
M  V30 4604 H 422.597 0.158878 -3.66256 0
M  V30 4605 H 422.245 2.54002 -4.34157 0
M  V30 4606 H 421.945 1.42727 -5.70003 0
M  V30 4607 H 423.469 2.35725 -5.63264 0
M  V30 4608 H 424.883 0.0880081 -5.73232 0
M  V30 4609 H 423.28 -0.66861 -5.96364 0
M  V30 4610 H 424.35 -1.26367 -4.68145 0
M  V30 4611 N 425.693 1.55336 -0.266172 0
M  V30 4612 C 426.64 2.22172 0.625165 0
M  V30 4613 C 427.61 1.19211 1.15663 0
M  V30 4614 O 428.795 1.47723 1.20758 0
M  V30 4615 C 425.935 2.93972 1.8076 0
M  V30 4616 C 425.048 4.11632 1.31084 0
M  V30 4617 C 424.183 4.71099 2.45436 0
M  V30 4618 C 423.222 5.8097 1.92718 0
M  V30 4619 N 422.359 6.34538 3.00509 0
M  V30 4620 H 427.199 2.9796 0.0485582 0
M  V30 4621 H 424.736 1.47095 0.0122024 0
M  V30 4622 H 426.694 3.33811 2.50251 0
M  V30 4623 H 425.324 2.20623 2.35638 0
M  V30 4624 H 424.376 3.76975 0.509326 0
M  V30 4625 H 425.688 4.90893 0.884633 0
M  V30 4626 H 424.842 5.13612 3.22936 0
M  V30 4627 H 423.581 3.91096 2.91368 0
M  V30 4628 H 422.586 5.37916 1.13695 0
M  V30 4629 H 423.811 6.62836 1.47733 0
M  V30 4630 H 421.757 5.57433 3.45839 0
M  V30 4631 H 421.674 7.09046 2.62279 0
M  V30 4632 H 422.942 6.81709 3.78011 0
M  V30 4633 N 427.171 -0.0066808 1.57599 0
M  V30 4634 C 428.399 -0.704087 1.94551 0
M  V30 4635 C 428.814 -1.67677 0.867746 0
M  V30 4636 O 428.171 -1.8185 -0.153925 0
M  V30 4637 C 428.222 -1.44177 3.31505 0
M  V30 4638 O 427.943 -0.508097 4.35144 0
M  V30 4639 C 429.444 -2.23429 3.82876 0
M  V30 4640 H 426.664 -0.196523 0.641576 0
M  V30 4641 H 429.208 0.042453 2.04456 0
M  V30 4642 H 427.363 -2.13999 3.22929 0
M  V30 4643 H 427.777 -1.02782 5.14331 0
M  V30 4644 H 429.251 -2.70552 4.8115 0
M  V30 4645 H 429.728 -3.05818 3.15233 0
M  V30 4646 H 430.334 -1.58636 3.94607 0
M  V30 4647 N 428.649 -1.55105 -0.279332 0
M  V30 4648 C 429.926 -1.66119 -1.03267 0
M  V30 4649 C 430.306 -0.523525 -2.04505 0
M  V30 4650 O 429.654 0.477194 -2.23462 0
M  V30 4651 C 429.864 -3.05067 -1.69515 0
M  V30 4652 C 431.212 -3.62606 -2.20912 0
M  V30 4653 O 432.236 -3.07659 -1.79512 0
M  V30 4654 O 431.095 -4.58861 -2.96831 0
M  V30 4655 H 428.189 -0.674429 -0.478618 0
M  V30 4656 H 430.735 -1.67446 -0.275694 0
M  V30 4657 H 429.507 -3.79311 -0.9612 0
M  V30 4658 H 429.13 -3.07611 -2.51915 0
M  V30 4659 N 430.127 0.543554 -1.4793 0
M  V30 4660 C 431.057 1.65888 -1.64327 0
M  V30 4661 C 432.038 1.62818 -0.492383 0
M  V30 4662 O 433.223 1.80226 -0.723338 0
M  V30 4663 C 430.353 3.04506 -1.67013 0
M  V30 4664 C 429.307 3.2243 -2.81466 0
M  V30 4665 C 428.633 4.61972 -2.69233 0
M  V30 4666 C 429.933 3.06496 -4.22915 0
M  V30 4667 H 431.627 1.52421 -2.57698 0
M  V30 4668 H 429.173 0.731849 -1.24016 0
M  V30 4669 H 431.126 3.82391 -1.77074 0
M  V30 4670 H 429.85 3.18964 -0.70212 0
M  V30 4671 H 428.509 2.46957 -2.70938 0
M  V30 4672 H 428.157 4.73247 -1.7043 0
M  V30 4673 H 427.857 4.74911 -3.46025 0
M  V30 4674 H 429.381 5.41974 -2.81242 0
M  V30 4675 H 430.795 3.74186 -4.34348 0
M  V30 4676 H 429.192 3.30938 -5.006 0
M  V30 4677 H 430.262 2.03077 -4.40327 0
M  V30 4678 N 431.605 1.3629 0.791371 0
M  V30 4679 C 432.535 1.33137 1.91825 0
M  V30 4680 C 433.516 0.203168 1.68882 0
M  V30 4681 O 434.701 0.400509 1.90025 0
M  V30 4682 C 431.831 1.11793 3.28816 0
M  V30 4683 C 430.785 2.21417 3.66277 0
M  V30 4684 C 430.111 1.85218 5.01596 0
M  V30 4685 C 431.411 3.63489 3.75064 0
M  V30 4686 H 433.105 2.2743 1.9472 0
M  V30 4687 H 430.651 1.09479 0.935437 0
M  V30 4688 H 432.604 1.08222 4.07266 0
M  V30 4689 H 431.328 0.139501 3.26302 0
M  V30 4690 H 429.987 2.2411 2.90121 0
M  V30 4691 H 429.635 0.859544 4.95602 0
M  V30 4692 H 429.335 2.58611 5.27631 0
M  V30 4693 H 430.859 1.832 5.82469 0
M  V30 4694 H 432.273 3.63034 4.43711 0
M  V30 4695 H 430.67 4.35771 4.12582 0
M  V30 4696 H 431.74 3.98536 2.76219 0
M  V30 4697 N 433.083 -1.0153 1.20538 0
M  V30 4698 C 434.013 -2.11972 0.979295 0
M  V30 4699 C 434.994 -1.6985 -0.0921787 0
M  V30 4700 O 436.179 -1.94089 0.0655932 0
M  V30 4701 C 433.309 -3.43201 0.531984 0
M  V30 4702 C 432.263 -3.9907 1.54685 0
M  V30 4703 C 431.589 -5.26082 0.956127 0
M  V30 4704 C 432.889 -4.32313 2.93092 0
M  V30 4705 H 434.583 -2.31143 1.90298 0
M  V30 4706 H 432.129 -1.11079 0.916372 0
M  V30 4707 H 434.082 -4.1985 0.361044 0
M  V30 4708 H 432.806 -3.23792 -0.427327 0
M  V30 4709 H 431.465 -3.2453 1.70517 0
M  V30 4710 H 431.113 -5.02999 -0.0111538 0
M  V30 4711 H 430.813 -5.64426 1.63393 0
M  V30 4712 H 432.337 -6.05386 0.796284 0
M  V30 4713 H 433.751 -4.99845 2.80763 0
M  V30 4714 H 432.148 -4.81774 3.57791 0
M  V30 4715 H 433.218 -3.41025 3.44717 0
M  V30 4716 N 434.561 -1.01147 -1.20859 0
M  V30 4717 C 435.471 -0.58686 -2.27141 0
M  V30 4718 C 436.487 0.373198 -1.69951 0
M  V30 4719 O 437.663 0.235423 -2.00019 0
M  V30 4720 C 434.728 0.0733602 -3.46622 0
M  V30 4721 C 433.789 -0.931995 -4.19061 0
M  V30 4722 C 433.022 -0.303186 -5.32838 0
M  V30 4723 O 433.245 0.898395 -5.63281 0
M  V30 4724 O 432.179 -1.01735 -5.9324 0
M  V30 4725 H 436.005 -1.47155 -2.65667 0
M  V30 4726 H 433.59 -0.780689 -1.2738 0
M  V30 4727 H 435.472 0.442333 -4.19072 0
M  V30 4728 H 434.147 0.932329 -3.09983 0
M  V30 4729 H 433.054 -1.35224 -3.48805 0
M  V30 4730 H 434.387 -1.76076 -4.59628 0
M  V30 4731 N 436.039 1.36541 -0.78704 0
M  V30 4732 C 437.45 1.81873 -0.421807 0
M  V30 4733 C 437.801 1.65487 1.05397 0
M  V30 4734 O 436.926 1.17448 1.81755 0
M  V30 4735 C 437.521 3.30192 -0.758841 0
M  V30 4736 C 436.08 3.73743 -0.446468 0
M  V30 4737 C 435.227 2.58844 -0.994728 0
M  V30 4738 H 438.178 1.24796 -0.98039 0
M  V30 4739 H 438.199 3.80468 -0.0490648 0
M  V30 4740 H 437.711 3.42087 -1.83299 0
M  V30 4741 H 435.812 3.6741 0.619739 0
M  V30 4742 H 435.925 4.69272 -0.965415 0
M  V30 4743 H 434.289 2.51245 -0.418087 0
M  V30 4744 H 435.072 2.73525 -2.07458 0
M  V30 4745 N 437.518 0.538854 1.48102 0
M  V30 4746 C 438.748 0.0122958 2.06596 0
M  V30 4747 C 439.156 -1.27861 1.39457 0
M  V30 4748 O 438.499 -1.77348 0.478907 0
M  V30 4749 C 438.561 -0.273131 3.58461 0
M  V30 4750 C 438.225 0.92561 4.47528 0
M  V30 4751 C 439.222 1.82637 4.86765 0
M  V30 4752 C 436.907 1.13511 4.89306 0
M  V30 4753 C 438.901 2.92047 5.66558 0
M  V30 4754 C 436.588 2.23233 5.68868 0
M  V30 4755 C 437.586 3.12333 6.07402 0
M  V30 4756 O 437.274 4.20155 6.85365 0
M  V30 4757 H 437.006 0.0344283 0.675123 0
M  V30 4758 H 439.56 0.746494 1.91355 0
M  V30 4759 H 437.79 -1.06141 3.71848 0
M  V30 4760 H 439.479 -0.742842 3.99045 0
M  V30 4761 H 440.245 1.67649 4.55103 0
M  V30 4762 H 436.124 0.450835 4.5879 0
M  V30 4763 H 439.668 3.6162 5.96554 0
M  V30 4764 H 435.565 2.38201 5.99942 0
M  V30 4765 H 436.333 4.17975 7.03732 0
M  V30 4766 N 438.996 -1.55193 0.274407 0
M  V30 4767 C 439.944 -2.23924 -0.629362 0
M  V30 4768 C 440.938 -1.23602 -1.1584 0
M  V30 4769 O 442.144 -1.41535 -1.11211 0
M  V30 4770 H 438.519 -0.718637 -0.221507 0
M  V30 4771 H 440.49 -2.98388 -0.0268322 0
M  V30 4772 C 439.239 -2.97329 -1.80252 0
M  V30 4773 H 438.562 -3.74313 -1.40462 0
M  V30 4774 H 440.002 -3.48743 -2.41152 0
M  V30 4775 C 438.461 -2.0276 -2.69054 0
M  V30 4776 O 438.991 -1.57836 -3.69392 0
M  V30 4777 N 437.197 -1.69275 -2.36208 0
M  V30 4778 H 436.744 -2.06004 -1.54661 0
M  V30 4779 H 436.702 -1.06271 -2.95895 0
M  V30 4780 N 440.474 -0.00167713 -1.576 0
M  V30 4781 C 441.421 0.989195 -2.08527 0
M  V30 4782 C 442.391 1.34031 -0.981065 0
M  V30 4783 O 443.576 1.43839 -1.2536 0
M  V30 4784 C 440.716 2.27537 -2.59463 0
M  V30 4785 C 439.829 1.98314 -3.83791 0
M  V30 4786 C 438.964 3.21025 -4.23222 0
M  V30 4787 C 438.003 2.87495 -5.40382 0
M  V30 4788 N 437.14 4.02749 -5.75098 0
M  V30 4789 H 441.98 0.547973 -2.92919 0
M  V30 4790 H 439.517 0.258917 -1.44803 0
M  V30 4791 H 441.475 3.02729 -2.87073 0
M  V30 4792 H 440.105 2.69325 -1.77943 0
M  V30 4793 H 439.157 1.13482 -3.63078 0
M  V30 4794 H 440.469 1.69601 -4.69081 0
M  V30 4795 H 439.623 4.04561 -4.52123 0
M  V30 4796 H 438.362 3.52877 -3.36644 0
M  V30 4797 H 437.367 2.02367 -5.11202 0
M  V30 4798 H 438.592 2.56889 -6.28637 0
M  V30 4799 H 436.538 4.34494 -4.91478 0
M  V30 4800 H 436.455 3.77566 -6.54966 0
M  V30 4801 H 437.723 4.87068 -6.08592 0
M  V30 4802 N 441.952 1.55251 0.271103 0
M  V30 4803 C 443.182 1.79713 1.01916 0
M  V30 4804 C 443.59 0.571613 1.80359 0
M  V30 4805 O 442.933 -0.468853 1.77616 0
M  V30 4806 C 442.995 2.97138 2.02359 0
M  V30 4807 C 442.659 4.34104 1.42837 0
M  V30 4808 C 443.656 5.13019 0.843071 0
M  V30 4809 C 441.341 4.80765 1.455 0
M  V30 4810 C 443.335 6.36729 0.292333 0
M  V30 4811 C 441.022 6.0443 0.900402 0
M  V30 4812 C 442.02 6.8225 0.32007 0
M  V30 4813 O 441.708 8.03582 -0.226031 0
M  V30 4814 H 441.44 0.602431 0.306681 0
M  V30 4815 H 443.994 2.03097 0.306701 0
M  V30 4816 H 442.224 2.6945 2.77369 0
M  V30 4817 H 443.913 3.08907 2.63309 0
M  V30 4818 H 444.679 4.781 0.815178 0
M  V30 4819 H 440.558 4.20202 1.89609 0
M  V30 4820 H 444.102 6.97414 -0.161274 0
M  V30 4821 H 439.999 6.3883 0.925541 0
M  V30 4822 H 440.767 8.18418 -0.115572 0
M  V30 4823 N 443.43 -0.535701 1.48216 0
M  V30 4824 C 444.846 -0.863701 1.3421 0
M  V30 4825 C 445.046 -1.98458 0.34879 0
M  V30 4826 O 444.102 -2.51432 -0.23204 0
M  V30 4827 C 445.415 -1.23662 2.74095 0
M  V30 4828 C 446.963 -1.34683 2.82541 0
M  V30 4829 C 447.438 -1.75322 4.23115 0
M  V30 4830 N 448.929 -1.82434 4.2576 0
M  V30 4831 C 449.664 -2.15252 5.31464 0
M  V30 4832 N 449.16 -2.46533 6.47452 0
M  V30 4833 N 450.953 -2.16209 5.18855 0
M  V30 4834 H 443.104 0.203965 2.11418 0
M  V30 4835 H 445.367 0.0286033 0.947568 0
M  V30 4836 H 445.073 -0.486674 3.48316 0
M  V30 4837 H 444.947 -2.18805 3.07253 0
M  V30 4838 H 447.334 -2.08756 2.08579 0
M  V30 4839 H 447.415 -0.376756 2.5301 0
M  V30 4840 H 447.059 -1.01812 4.97591 0
M  V30 4841 H 446.989 -2.7337 4.50085 0
M  V30 4842 H 449.48 -1.6056 3.42095 0
M  V30 4843 H 449.793 -2.70662 7.23852 0
M  V30 4844 H 448.138 -2.44065 6.50736 0
M  V30 4845 H 451.329 -1.91224 4.2726 0
M  V30 4846 H 451.502 -2.41453 6.01335 0
M  V30 4847 N 444.908 -1.36708 -0.784132 0
M  V30 4848 C 446.155 -1.31231 -1.54222 0
M  V30 4849 C 446.483 0.106864 -1.94206 0
M  V30 4850 O 445.738 1.07734 -1.63376 0
M  V30 4851 C 446.037 -2.18571 -2.82774 0
M  V30 4852 C 445.703 -3.67039 -2.61903 0
M  V30 4853 C 444.365 -4.07503 -2.55919 0
M  V30 4854 C 446.717 -4.61149 -2.4288 0
M  V30 4855 C 444.045 -5.40211 -2.28886 0
M  V30 4856 C 446.397 -5.94081 -2.17373 0
M  V30 4857 C 445.061 -6.33664 -2.09825 0
M  V30 4858 H 444.331 -0.48021 -0.56434 0
M  V30 4859 H 446.978 -1.68807 -0.904233 0
M  V30 4860 H 445.283 -1.73949 -3.51068 0
M  V30 4861 H 446.98 -2.11655 -3.40592 0
M  V30 4862 H 443.57 -3.34941 -2.67418 0
M  V30 4863 H 447.754 -4.30756 -2.46501 0
M  V30 4864 H 443.01 -5.69855 -2.21529 0
M  V30 4865 H 447.184 -6.66566 -2.01649 0
M  V30 4866 H 444.811 -7.36423 -1.88641 0
M  V30 4867 N 446.386 1.0089 -1.21074 0
M  V30 4868 C 447.316 2.1145 -0.990523 0
M  V30 4869 C 448.297 1.69897 0.0831699 0
M  V30 4870 O 449.482 1.94052 -0.0758853 0
M  V30 4871 C 446.612 3.42914 -0.550177 0
M  V30 4872 C 445.566 3.98244 -1.56799 0
M  V30 4873 C 444.892 5.25568 -0.984013 0
M  V30 4874 C 446.192 4.30752 -2.95381 0
M  V30 4875 H 447.886 2.3013 -1.91521 0
M  V30 4876 H 445.432 1.10592 -0.92225 0
M  V30 4877 H 447.385 4.19653 -0.383305 0
M  V30 4878 H 446.109 3.24014 0.41015 0
M  V30 4879 H 444.768 3.23621 -1.72236 0
M  V30 4880 H 444.416 5.02998 -0.0155216 0
M  V30 4881 H 444.116 5.63551 -1.66384 0
M  V30 4882 H 445.64 6.04955 -0.828378 0
M  V30 4883 H 447.054 4.98349 -2.8341 0
M  V30 4884 H 445.451 4.79869 -3.60341 0
M  V30 4885 H 446.521 3.39192 -3.46521 0
M  V30 4886 N 447.864 1.01787 1.20321 0
M  V30 4887 C 449.089 0.727009 1.9424 0
M  V30 4888 C 449.514 -0.706179 1.74341 0
M  V30 4889 O 448.872 -1.48609 1.03852 0
M  V30 4890 C 448.92 1.06958 3.44372 0
M  V30 4891 O 448.024 0.181983 4.11998 0
M  V30 4892 H 447.365 0.269626 0.606793 0
M  V30 4893 H 449.895 1.36158 1.52716 0
M  V30 4894 H 449.905 1.02182 3.94997 0
M  V30 4895 H 448.58 2.11378 3.58179 0
M  V30 4896 H 447.157 0.287378 3.71791 0
M  V30 4897 N 449.342 -1.36122 0.79427 0
M  V30 4898 C 450.29 -2.31871 0.184023 0
M  V30 4899 C 451.284 -1.56041 -0.659365 0
M  V30 4900 O 452.49 -1.71266 -0.553906 0
M  V30 4901 H 448.865 -0.750896 0.0407373 0
M  V30 4902 H 450.836 -2.80898 1.00693 0
M  V30 4903 C 449.585 -3.41324 -0.662813 0
M  V30 4904 H 448.908 -3.99793 -0.0231944 0
M  V30 4905 H 450.348 -4.10629 -1.05639 0
M  V30 4906 C 448.807 -2.83308 -1.82313 0
M  V30 4907 O 449.337 -2.75863 -2.91997 0
M  V30 4908 N 447.543 -2.40529 -1.63077 0
M  V30 4909 H 447.09 -2.46785 -0.738591 0
M  V30 4910 H 447.048 -2.02059 -2.40872 0
M  V30 4911 N 450.82 -0.546701 -1.47814 0
M  V30 4912 C 452.068 -0.0187037 -2.02091 0
M  V30 4913 C 452.389 1.33168 -1.42447 0
M  V30 4914 O 451.659 1.86619 -0.595839 0
M  V30 4915 H 450.239 -0.00392531 -0.74699 0
M  V30 4916 H 452.901 -0.714327 -1.81338 0
M  V30 4917 H 451.997 0.0772219 -3.12004 0
M  V30 4918 N 452.299 1.55045 -0.282633 0
M  V30 4919 C 453.249 2.19514 0.616249 0
M  V30 4920 C 454.233 1.16216 1.11277 0
M  V30 4921 O 455.425 1.42004 1.05659 0
M  V30 4922 C 452.554 2.92548 1.7964 0
M  V30 4923 C 451.64 4.03142 1.31671 0
M  V30 4924 N 452.031 5.0276 0.553695 0
M  V30 4925 C 450.329 4.1635 1.59903 0
M  V30 4926 C 451.03 5.80923 0.30054 0
M  V30 4927 N 450.006 5.3651 0.875116 0
M  V30 4928 H 453.808 2.93889 0.0255363 0
M  V30 4929 H 451.322 1.62169 -0.0865362 0
M  V30 4930 H 453.319 3.37188 2.45173 0
M  V30 4931 H 451.979 2.19685 2.39099 0
M  V30 4932 H 452.99 5.17512 0.20032 0
M  V30 4933 H 449.667 3.54682 2.20243 0
M  V30 4934 H 451.057 6.7118 -0.311053 0
M  V30 4935 N 453.777 0.010035 1.57597 0
M  V30 4936 C 455.023 -0.673697 1.91283 0
M  V30 4937 C 455.356 -1.72863 0.884979 0
M  V30 4938 O 454.631 -1.94268 -0.0949487 0
M  V30 4939 C 454.914 -1.30766 3.35518 0
M  V30 4940 C 454.767 -0.263578 4.49027 0
M  V30 4941 C 456.086 -2.23105 3.79358 0
M  V30 4942 H 453.205 -0.243439 0.695634 0
M  V30 4943 H 455.847 0.0633864 1.89894 0
M  V30 4944 H 453.997 -1.93588 3.36832 0
M  V30 4945 H 455.669 0.365738 4.59848 0
M  V30 4946 H 453.912 0.413077 4.31829 0
M  V30 4947 H 454.583 -0.746398 5.4693 0
M  V30 4948 H 457.059 -1.70289 3.79659 0
M  V30 4949 H 455.935 -2.64424 4.81011 0
M  V30 4950 H 456.196 -3.11433 3.13787 0
M  V30 4951 N 455.255 -1.55392 -0.262866 0
M  V30 4952 C 456.483 -1.80513 -1.01108 0
M  V30 4953 C 456.898 -0.583533 -1.79556 0
M  V30 4954 O 456.255 0.447585 -1.76926 0
M  V30 4955 C 456.306 -3.03648 -1.96164 0
M  V30 4956 O 456.027 -4.2109 -1.20893 0
M  V30 4957 C 457.528 -3.41448 -2.82715 0
M  V30 4958 H 454.748 -0.601079 -0.298236 0
M  V30 4959 H 457.292 -2.02425 -0.290582 0
M  V30 4960 H 455.447 -2.83832 -2.63663 0
M  V30 4961 H 455.861 -4.90771 -1.85051 0
M  V30 4962 H 457.335 -4.30751 -3.45192 0
M  V30 4963 H 457.812 -2.61308 -3.53008 0
M  V30 4964 H 458.418 -3.63559 -2.20693 0
M  V30 4965 N 456.733 0.527833 -1.48498 0
M  V30 4966 C 457.982 1.28003 -1.55878 0
M  V30 4967 C 458.295 1.9414 -0.238577 0
M  V30 4968 O 459.501 2.7083 -0.190643 0
M  V30 4969 C 457.957 2.32272 -2.74914 0
M  V30 4970 C 457.565 1.72196 -4.13585 0
M  V30 4971 C 459.309 3.08488 -2.91608 0
M  V30 4972 C 457.216 2.74417 -5.23879 0
M  V30 4973 H 456.146 0.481413 -0.580308 0
M  V30 4974 H 458.797 0.557195 -1.74836 0
M  V30 4975 H 457.179 3.07601 -2.49395 0
M  V30 4976 H 458.353 1.03041 -4.49132 0
M  V30 4977 H 456.668 1.08464 -4.02025 0
M  V30 4978 H 459.265 3.84879 -3.71177 0
M  V30 4979 H 459.608 3.64481 -2.01145 0
M  V30 4980 H 460.141 2.40274 -3.17038 0
M  V30 4981 H 456.88 2.23242 -6.16314 0
M  V30 4982 H 456.4 3.41893 -4.92818 0
M  V30 4983 H 458.079 3.37362 -5.52083 0
M  V30 4984 N 458.211 1.37122 0.776871 0
M  V30 4985 C 459.622 1.28667 1.35284 0
M  V30 4986 C 459.973 -0.0680035 1.96082 0
M  V30 4987 O 459.098 -0.969743 1.93455 0
M  V30 4988 C 459.693 2.32997 2.45963 0
M  V30 4989 C 458.252 2.28191 2.99342 0
M  V30 4990 C 457.399 2.17101 1.72517 0
M  V30 4991 H 460.35 1.47819 0.577527 0
M  V30 4992 H 460.371 1.97366 3.2531 0
M  V30 4993 H 459.883 3.3158 2.01684 0
M  V30 4994 H 457.984 1.33115 3.4801 0
M  V30 4995 H 458.097 3.21397 3.55304 0
M  V30 4996 H 456.461 1.63562 1.95242 0
M  V30 4997 H 457.244 3.17591 1.30348 0
M  V30 4998 N 459.689 -1.00246 1.21608 0
M  V30 4999 C 460.937 -1.73717 1.0328 0
M  V30 5000 C 461.258 -1.90102 -0.434318 0
M  V30 5001 O 460.528 -1.45376 -1.31311 0
M  V30 5002 H 459.108 -0.643613 0.379172 0
M  V30 5003 H 461.77 -1.20787 1.52959 0
M  V30 5004 H 460.866 -2.73535 1.50283 0
M  V30 5005 N 461.167 -1.02423 -1.1978 0
M  V30 5006 C 462.099 -0.559152 -2.22275 0
M  V30 5007 C 463.112 0.36251 -1.58713 0
M  V30 5008 O 464.301 0.159641 -1.77785 0
M  V30 5009 C 461.401 0.205094 -3.38279 0
M  V30 5010 C 460.574 -0.720361 -4.31427 0
M  V30 5011 C 459.633 -0.00234368 -5.262 0
M  V30 5012 O 458.659 -0.627378 -5.65732 0
M  V30 5013 N 459.861 1.26996 -5.66438 0
M  V30 5014 H 462.626 -1.44064 -2.62804 0
M  V30 5015 H 460.187 -0.902692 -1.34399 0
M  V30 5016 H 462.179 0.694868 -3.9869 0
M  V30 5017 H 460.749 0.987947 -2.96578 0
M  V30 5018 H 459.969 -1.39031 -3.68869 0
M  V30 5019 H 461.257 -1.3495 -4.90577 0
M  V30 5020 H 460.655 1.79858 -5.36347 0
M  V30 5021 H 459.212 1.70432 -6.29123 0
M  V30 5022 N 462.645 1.35699 -0.801477 0
M  V30 5023 C 463.577 2.28598 -0.166028 0
M  V30 5024 C 464.59 1.50044 0.631721 0
M  V30 5025 O 465.779 1.72339 0.464921 0
M  V30 5026 C 462.879 3.29625 0.787451 0
M  V30 5027 C 462.052 4.37384 0.037171 0
M  V30 5028 C 461.111 5.183 0.908375 0
M  V30 5029 O 460.137 5.68053 0.361189 0
M  V30 5030 N 461.339 5.35912 2.23112 0
M  V30 5031 H 464.104 2.83771 -0.964071 0
M  V30 5032 H 461.665 1.47994 -0.656469 0
M  V30 5033 H 463.657 3.80648 1.37439 0
M  V30 5034 H 462.227 2.75004 1.48632 0
M  V30 5035 H 461.447 3.87364 -0.730935 0
M  V30 5036 H 462.735 5.0653 -0.480109 0
M  V30 5037 H 462.133 4.97125 2.69968 0
M  V30 5038 H 460.69 5.90133 2.76741 0
M  V30 5039 N 464.123 0.554532 1.47522 0
M  V30 5040 C 465.4 -0.0360704 1.95567 0
M  V30 5041 C 465.78 -1.48828 1.49711 0
M  V30 5042 O 465.128 -2.16366 0.734717 0
M  V30 5043 C 465.338 0.106631 3.48837 0
M  V30 5044 C 466.686 -0.0400899 4.24581 0
M  V30 5045 O 467.71 0.0340453 3.56184 0
M  V30 5046 O 466.569 -0.199111 5.46137 0
M  V30 5047 H 463.663 -0.0656294 0.824392 0
M  V30 5048 H 466.209 0.620867 1.57935 0
M  V30 5049 H 464.981 1.11727 3.7501 0
M  V30 5050 H 464.604 -0.58804 3.93227 0
M  V30 5051 N 465.601 -1.54893 0.290851 0
M  V30 5052 C 466.548 -2.23138 -0.58974 0
M  V30 5053 C 467.518 -1.21036 -1.13752 0
M  V30 5054 O 468.703 -1.49626 -1.18392 0
M  V30 5055 C 465.843 -2.96811 -1.76061 0
M  V30 5056 C 464.956 -4.13665 -1.24519 0
M  V30 5057 C 464.091 -4.74944 -2.3791 0
M  V30 5058 C 463.13 -5.83963 -1.83451 0
M  V30 5059 N 462.267 -6.39239 -2.90376 0
M  V30 5060 H 467.107 -2.98 -0.00114915 0
M  V30 5061 H 464.644 -1.47096 0.0112006 0
M  V30 5062 H 466.602 -3.37751 -2.44909 0
M  V30 5063 H 465.232 -2.24344 -2.32098 0
M  V30 5064 H 464.284 -3.77737 -0.449288 0
M  V30 5065 H 465.596 -4.92238 -0.806424 0
M  V30 5066 H 464.75 -5.18684 -3.14724 0
M  V30 5067 H 463.489 -3.95682 -2.85109 0
M  V30 5068 H 462.494 -5.39657 -1.05122 0
M  V30 5069 H 463.719 -6.65103 -1.37169 0
M  V30 5070 H 461.665 -5.62864 -3.36927 0
M  V30 5071 H 461.582 -7.13129 -2.50965 0
M  V30 5072 H 462.85 -6.87637 -3.67118 0
M  V30 5073 N 467.08 -0.0183926 -1.57589 0
M  V30 5074 C 468.357 0.700621 -1.82622 0
M  V30 5075 C 468.737 1.90951 -0.90005 0
M  V30 5076 O 468.085 2.28452 0.0469145 0
M  V30 5077 C 468.295 1.08899 -3.31575 0
M  V30 5078 C 469.643 1.48514 -3.9778 0
M  V30 5079 O 470.667 1.18227 -3.36007 0
M  V30 5080 O 469.526 2.04903 -5.06633 0
M  V30 5081 H 466.62 0.342743 -0.752633 0
M  V30 5082 H 469.166 -0.0452548 -1.6964 0
M  V30 5083 H 467.938 0.228113 -3.90635 0
M  V30 5084 H 467.561 1.89338 -3.49624 0
M  V30 5085 N 468.558 1.5553 0.254621 0
M  V30 5086 C 469.491 1.84624 1.34124 0
M  V30 5087 C 470.469 0.700693 1.46728 0
M  V30 5088 O 471.653 0.94564 1.63064 0
M  V30 5089 C 468.78 2.02412 2.71564 0
M  V30 5090 C 467.826 3.25028 2.7615 0
M  V30 5091 S 468.659 4.81893 2.33538 0
M  V30 5092 C 469.815 5.02677 3.72917 0
M  V30 5093 H 470.048 2.76501 1.09245 0
M  V30 5094 H 467.581 1.47537 0.455211 0
M  V30 5095 H 469.539 2.13345 3.50705 0
M  V30 5096 H 468.2 1.11391 2.93685 0
M  V30 5097 H 467.393 3.34418 3.77069 0
M  V30 5098 H 466.995 3.12781 2.05046 0
M  V30 5099 H 469.287 4.89546 4.68349 0
M  V30 5100 H 470.23 6.0468 3.68467 0
M  V30 5101 H 470.638 4.30561 3.65072 0
M  V30 5102 N 470.036 -0.519951 1.48776 0
M  V30 5103 C 471.283 -1.27522 1.57303 0
M  V30 5104 C 471.611 -1.92869 0.251328 0
M  V30 5105 O 470.866 -1.80372 -0.759243 0
M  V30 5106 C 471.165 -2.37864 2.6675 0
M  V30 5107 C 470.831 -1.90103 4.08867 0
M  V30 5108 C 469.493 -1.76795 4.47546 0
M  V30 5109 C 471.845 -1.54133 4.97888 0
M  V30 5110 C 469.173 -1.25868 5.73039 0
M  V30 5111 C 471.525 -1.04665 6.23881 0
M  V30 5112 C 470.189 -0.899823 6.61407 0
M  V30 5113 H 469.459 -0.466636 0.575614 0
M  V30 5114 H 472.106 -0.579109 1.82534 0
M  V30 5115 H 470.411 -3.13186 2.35418 0
M  V30 5116 H 472.108 -2.95969 2.70561 0
M  V30 5117 H 468.698 -2.01414 3.78326 0
M  V30 5118 H 472.882 -1.6327 4.68675 0
M  V30 5119 H 468.138 -1.13196 6.0083 0
M  V30 5120 H 472.312 -0.759074 6.92251 0
M  V30 5121 H 469.939 -0.503011 7.58534 0
M  V30 5122 N 471.514 -1.37532 -0.769588 0
M  V30 5123 C 472.446 -1.29347 -1.89214 0
M  V30 5124 C 473.459 -0.208842 -1.61455 0
M  V30 5125 O 474.648 -0.465158 -1.72333 0
M  V30 5126 C 471.748 -0.977649 -3.24492 0
M  V30 5127 C 470.921 -2.16817 -3.7988 0
M  V30 5128 C 469.98 -1.82229 -4.93639 0
M  V30 5129 O 469.006 -2.54548 -5.09111 0
M  V30 5130 N 470.208 -0.767696 -5.75401 0
M  V30 5131 H 472.973 -2.26073 -1.96751 0
M  V30 5132 H 470.534 -1.31185 -0.948795 0
M  V30 5133 H 472.526 -0.727065 -3.98115 0
M  V30 5134 H 471.096 -0.0988777 -3.12444 0
M  V30 5135 H 470.316 -2.58038 -2.9801 0
M  V30 5136 H 471.604 -2.96308 -4.13617 0
M  V30 5137 H 471.002 -0.167626 -5.65452 0
M  V30 5138 H 469.559 -0.576973 -6.49241 0
M  V30 5139 N 472.992 0.995999 -1.22138 0
M  V30 5140 C 473.902 2.11985 -1.00496 0
M  V30 5141 C 474.918 1.7394 0.0457701 0
M  V30 5142 O 476.094 2.00868 -0.146273 0
M  V30 5143 C 473.159 3.41779 -0.582086 0
M  V30 5144 C 472.22 3.93943 -1.70608 0
M  V30 5145 C 471.453 5.17542 -1.30328 0
M  V30 5146 O 471.676 5.70114 -0.180743 0
M  V30 5147 O 470.61 5.63382 -2.11861 0
M  V30 5148 H 474.436 2.33123 -1.94647 0
M  V30 5149 H 472.021 1.10358 -1.00705 0
M  V30 5150 H 473.903 4.1989 -0.356467 0
M  V30 5151 H 472.578 3.22007 0.330592 0
M  V30 5152 H 471.485 3.17019 -1.98619 0
M  V30 5153 H 472.818 4.18141 -2.59651 0
M  V30 5154 N 474.47 1.03057 1.19235 0
M  V30 5155 C 475.698 0.747697 1.92917 0
M  V30 5156 C 476.113 -0.69372 1.75593 0
M  V30 5157 O 475.47 -1.47191 1.07894 0
M  V30 5158 C 475.521 1.09159 3.44625 0
M  V30 5159 O 475.242 2.47641 3.61394 0
M  V30 5160 C 476.743 0.831763 4.35427 0
M  V30 5161 H 473.963 0.273453 0.612751 0
M  V30 5162 H 476.507 1.37552 1.51327 0
M  V30 5163 H 474.662 0.508919 3.84043 0
M  V30 5164 H 475.076 2.60499 4.55237 0
M  V30 5165 H 476.55 1.12233 5.4047 0
M  V30 5166 H 477.027 -0.233769 4.38577 0
M  V30 5167 H 477.633 1.39725 4.01693 0
M  V30 5168 N 475.948 -1.35272 0.808662 0
M  V30 5169 C 476.881 -2.27595 0.165994 0
M  V30 5170 C 477.859 -1.48189 -0.669241 0
M  V30 5171 O 479.043 -1.77444 -0.636073 0
M  V30 5172 C 476.17 -3.29843 -0.769505 0
M  V30 5173 C 475.216 -4.26498 -0.0136267 0
M  V30 5174 S 476.049 -5.18878 1.32384 0
M  V30 5175 C 477.205 -6.24666 0.392838 0
M  V30 5176 H 477.438 -2.81755 0.948756 0
M  V30 5177 H 474.971 -1.42103 0.603828 0
M  V30 5178 H 476.929 -3.89247 -1.30374 0
M  V30 5179 H 475.59 -2.74558 -1.52567 0
M  V30 5180 H 474.783 -4.98769 -0.724227 0
M  V30 5181 H 474.385 -3.71274 0.450713 0
M  V30 5182 H 476.677 -6.7619 -0.4211 0
M  V30 5183 H 477.62 -6.99741 1.0848 0
M  V30 5184 H 478.028 -5.64499 -0.0123908 0
M  V30 5185 N 477.426 -0.562348 -1.47226 0
M  V30 5186 C 478.336 0.185466 -2.33866 0
M  V30 5187 C 479.352 0.906713 -1.48508 0
M  V30 5188 O 480.528 0.874458 -1.81425 0
M  V30 5189 C 477.593 1.19904 -3.25306 0
M  V30 5190 C 476.654 0.484669 -4.26555 0
M  V30 5191 C 475.887 1.44996 -5.13626 0
M  V30 5192 O 476.11 2.68515 -5.03245 0
M  V30 5193 O 475.044 0.971642 -5.94006 0
M  V30 5194 H 478.87 -0.525361 -2.99121 0
M  V30 5195 H 476.455 -0.322916 -1.45868 0
M  V30 5196 H 478.337 1.78399 -3.81774 0
M  V30 5197 H 477.012 1.8917 -2.62672 0
M  V30 5198 H 475.919 -0.141605 -3.73832 0
M  V30 5199 H 477.252 -0.166634 -4.91918 0
M  V30 5200 N 478.904 1.54736 -0.299062 0
M  V30 5201 C 479.867 2.22127 0.565012 0
M  V30 5202 C 480.867 1.20669 1.06281 0
M  V30 5203 O 482.057 1.45417 0.959145 0
M  V30 5204 C 479.189 2.90611 1.78208 0
M  V30 5205 H 480.382 2.99891 -0.0237448 0
M  V30 5206 H 477.935 1.5622 -0.0498788 0
M  V30 5207 H 478.67 2.16921 2.41072 0
M  V30 5208 H 478.455 3.64984 1.43281 0
M  V30 5209 H 479.945 3.42026 2.396 0
M  V30 5210 N 480.382 0.0267497 1.57577 0
M  V30 5211 C 481.315 -0.99059 2.05579 0
M  V30 5212 C 482.293 -1.31884 0.951065 0
M  V30 5213 O 483.477 -1.43592 1.22121 0
M  V30 5214 C 480.604 -2.31125 2.47586 0
M  V30 5215 C 479.65 -2.13777 3.69055 0
M  V30 5216 S 480.483 -1.4388 5.15809 0
M  V30 5217 C 481.639 -2.77321 5.6111 0
M  V30 5218 H 481.872 -0.581976 2.91548 0
M  V30 5219 H 479.405 -0.184876 1.53289 0
M  V30 5220 H 481.363 -3.07049 2.72454 0
M  V30 5221 H 480.024 -2.6912 1.61967 0
M  V30 5222 H 479.217 -3.11405 3.96287 0
M  V30 5223 H 478.819 -1.45996 3.44327 0
M  V30 5224 H 481.111 -3.73565 5.65204 0
M  V30 5225 H 482.054 -2.54756 6.60685 0
M  V30 5226 H 482.462 -2.82459 4.88751 0
M  V30 5227 N 481.861 -1.55662 -0.24637 0
M  V30 5228 C 483.277 -1.48098 -0.594907 0
M  V30 5229 C 483.477 -0.717044 -1.8831 0
M  V30 5230 O 482.533 -0.246618 -2.51293 0
M  V30 5231 C 483.846 -2.92507 -0.697146 0
M  V30 5232 C 485.394 -3.02881 -0.789436 0
M  V30 5233 C 485.869 -4.48598 -0.923232 0
M  V30 5234 N 487.36 -4.52538 -0.988088 0
M  V30 5235 C 488.095 -5.62536 -1.11089 0
M  V30 5236 N 487.591 -6.82342 -1.19919 0
M  V30 5237 N 489.384 -5.50334 -1.14408 0
M  V30 5238 H 481.535 -2.0377 0.599278 0
M  V30 5239 H 483.798 -0.925145 0.20691 0
M  V30 5240 H 483.504 -3.51242 0.179396 0
M  V30 5241 H 483.378 -3.43024 -1.5689 0
M  V30 5242 H 485.765 -2.44226 -1.65643 0
M  V30 5243 H 485.846 -2.55574 0.107482 0
M  V30 5244 H 485.49 -5.07864 -0.0607927 0
M  V30 5245 H 485.42 -4.93587 -1.8352 0
M  V30 5246 H 487.911 -3.66248 -0.931167 0
M  V30 5247 H 488.224 -7.61924 -1.29197 0
M  V30 5248 H 486.569 -6.85102 -1.16876 0
M  V30 5249 H 489.76 -4.5567 -1.07158 0
M  V30 5250 H 489.933 -6.36096 -1.23634 0
M  V30 5251 N 483.339 0.512053 -1.4905 0
M  V30 5252 C 484.588 1.26343 -1.57227 0
M  V30 5253 C 484.901 1.93876 -0.259155 0
M  V30 5254 O 486.107 2.70612 -0.219358 0
M  V30 5255 C 484.563 2.29343 -2.77362 0
M  V30 5256 C 484.171 1.67799 -4.15388 0
M  V30 5257 C 485.915 3.05378 -2.94864 0
M  V30 5258 C 483.822 2.68845 -5.2676 0
M  V30 5259 H 482.752 0.475231 -0.585382 0
M  V30 5260 H 485.403 0.53862 -1.75417 0
M  V30 5261 H 483.785 3.04938 -2.52643 0
M  V30 5262 H 484.959 0.982715 -4.50199 0
M  V30 5263 H 483.274 1.04194 -4.03153 0
M  V30 5264 H 485.871 3.80921 -3.75238 0
M  V30 5265 H 486.214 3.62327 -2.05 0
M  V30 5266 H 486.747 2.36898 -3.19569 0
M  V30 5267 H 483.486 2.16692 -6.18647 0
M  V30 5268 H 483.006 3.36647 -4.96416 0
M  V30 5269 H 484.685 3.31487 -5.5563 0
M  V30 5270 N 484.817 1.37938 0.762283 0
M  V30 5271 C 485.75 1.2884 1.88349 0
M  V30 5272 C 486.728 0.167084 1.61739 0
M  V30 5273 O 487.912 0.34292 1.85355 0
M  V30 5274 C 485.039 0.994257 3.23778 0
M  V30 5275 C 484.085 2.13376 3.69287 0
M  V30 5276 S 484.918 3.75439 3.81845 0
M  V30 5277 C 486.074 3.48195 5.20107 0
M  V30 5278 H 486.307 2.23736 1.95779 0
M  V30 5279 H 483.84 1.23672 0.924368 0
M  V30 5280 H 485.798 0.83138 4.01993 0
M  V30 5281 H 484.459 0.0626251 3.14038 0
M  V30 5282 H 483.652 1.88319 4.67495 0
M  V30 5283 H 483.254 2.25726 2.98201 0
M  V30 5284 H 485.546 3.0377 6.05583 0
M  V30 5285 H 486.489 4.45765 5.50181 0
M  V30 5286 H 486.897 2.82905 4.88493 0
M  V30 5287 N 486.295 -0.989507 1.22664 0
M  V30 5288 C 487.543 -1.72612 1.05117 0
M  V30 5289 C 487.864 -1.90552 -0.414131 0
M  V30 5290 O 487.134 -1.4676 -1.29762 0
M  V30 5291 H 485.714 -0.639555 0.385977 0
M  V30 5292 H 488.376 -1.19158 1.54232 0
M  V30 5293 H 487.472 -2.71926 1.53175 0
M  V30 5294 N 487.773 -1.03688 -1.18687 0
M  V30 5295 C 489.022 -0.733235 -1.879 0
M  V30 5296 C 489.335 0.741745 -1.8099 0
M  V30 5297 O 490.541 1.15875 -2.4553 0
M  V30 5298 C 488.997 -1.26127 -3.37076 0
M  V30 5299 C 488.605 -2.76461 -3.52524 0
M  V30 5300 C 490.349 -1.03398 -4.11715 0
M  V30 5301 C 488.256 -3.22642 -4.95637 0
M  V30 5302 H 487.186 -0.270584 -0.703776 0
M  V30 5303 H 489.837 -1.25222 -1.34133 0
M  V30 5304 H 488.219 -0.670165 -3.90288 0
M  V30 5305 H 489.393 -3.41296 -3.09602 0
M  V30 5306 H 487.708 -2.97559 -2.91286 0
M  V30 5307 H 490.305 -1.3542 -5.17267 0
M  V30 5308 H 490.648 0.0289246 -4.1629 0
M  V30 5309 H 491.181 -1.5895 -3.64664 0
M  V30 5310 H 487.92 -4.28296 -4.96228 0
M  V30 5311 H 487.44 -2.62539 -5.39289 0
M  V30 5312 H 489.119 -3.16444 -5.64333 0
M  V30 5313 N 489.251 1.34841 -0.815825 0
M  V30 5314 C 490.662 1.80937 -0.46029 0
M  V30 5315 C 491.013 1.67685 1.01863 0
M  V30 5316 O 490.138 1.21277 1.79223 0
M  V30 5317 C 490.733 3.28509 -0.828708 0
M  V30 5318 C 489.292 3.72712 -0.525644 0
M  V30 5319 C 488.439 2.56676 -1.04941 0
M  V30 5320 H 491.39 1.22688 -1.00664 0
M  V30 5321 H 491.411 3.80279 -0.129757 0
M  V30 5322 H 490.923 3.38122 -1.90513 0
M  V30 5323 H 489.024 3.68642 0.541666 0
M  V30 5324 H 489.137 4.67119 -1.06474 0
M  V30 5325 H 487.501 2.50302 -0.471286 0
M  V30 5326 H 488.284 2.69063 -2.13214 0
M  V30 5327 N 490.729 0.570148 1.46925 0
M  V30 5328 C 491.639 -0.173061 2.33961 0
M  V30 5329 C 492.655 -0.898825 1.48987 0
M  V30 5330 O 493.831 -0.864825 1.81887 0
M  V30 5331 C 490.896 -1.18177 3.25937 0
M  V30 5332 C 489.957 -0.462041 4.26806 0
M  V30 5333 C 489.19 -1.4227 5.14388 0
M  V30 5334 O 489.413 -2.65842 5.04662 0
M  V30 5335 O 488.347 -0.940127 5.94513 0
M  V30 5336 H 492.173 0.541216 2.98839 0
M  V30 5337 H 489.758 0.330647 1.45695 0
M  V30 5338 H 491.64 -1.76372 3.82715 0
M  V30 5339 H 490.315 -1.87774 2.63671 0
M  V30 5340 H 489.222 0.161429 3.73752 0
M  V30 5341 H 490.555 0.192719 4.91823 0
M  V30 5342 N 492.207 -1.54576 0.307264 0
M  V30 5343 C 493.117 -2.27435 -0.57536 0
M  V30 5344 C 494.133 -1.31183 -1.14311 0
M  V30 5345 O 495.309 -1.64175 -1.16656 0
M  V30 5346 C 492.374 -3.00566 -1.72803 0
M  V30 5347 C 491.435 -4.12369 -1.19373 0
M  V30 5348 C 490.668 -4.82003 -2.29147 0
M  V30 5349 O 490.891 -4.51038 -3.49171 0
M  V30 5350 O 489.825 -5.69271 -1.95485 0
M  V30 5351 H 493.651 -3.03696 0.0158558 0
M  V30 5352 H 491.236 -1.49219 0.0735064 0
M  V30 5353 H 493.118 -3.46416 -2.39946 0
M  V30 5354 H 491.793 -2.27195 -2.30574 0
M  V30 5355 H 490.7 -3.70905 -0.487851 0
M  V30 5356 H 492.033 -4.87736 -0.661376 0
M  V30 5357 N 493.685 -0.035106 -1.57561 0
M  V30 5358 C 494.595 0.960295 -2.14046 0
M  V30 5359 C 495.611 1.3529 -1.0942 0
M  V30 5360 O 496.787 1.43309 -1.41508 0
M  V30 5361 C 493.852 2.22214 -2.66124 0
M  V30 5362 C 492.913 1.8894 -3.85487 0
M  V30 5363 C 492.146 3.09109 -4.35072 0
M  V30 5364 O 492.369 4.21963 -3.83802 0
M  V30 5365 O 491.303 2.91058 -5.26848 0
M  V30 5366 H 495.129 0.509983 -2.99387 0
M  V30 5367 H 492.714 0.185853 -1.48239 0
M  V30 5368 H 494.596 2.96279 -2.99661 0
M  V30 5369 H 493.271 2.66414 -1.83862 0
M  V30 5370 H 492.178 1.12241 -3.56865 0
M  V30 5371 H 493.511 1.49551 -4.6893 0
M  V30 5372 N 495.163 1.55791 0.238111 0
M  V30 5373 C 496.095 1.87513 1.31802 0
M  V30 5374 C 497.108 0.762053 1.43863 0
M  V30 5375 O 498.297 1.04024 1.45056 0
M  V30 5376 C 495.397 2.05402 2.69561 0
M  V30 5377 C 494.57 3.3632 2.79656 0
M  V30 5378 C 493.629 3.43844 3.98319 0
M  V30 5379 O 492.655 4.16994 3.87433 0
M  V30 5380 N 493.857 2.73777 5.11885 0
M  V30 5381 H 496.622 2.80734 1.04922 0
M  V30 5382 H 494.183 1.56135 0.428196 0
M  V30 5383 H 496.175 2.07769 3.47296 0
M  V30 5384 H 494.745 1.18884 2.89111 0
M  V30 5385 H 493.965 3.46195 1.88528 0
M  V30 5386 H 495.253 4.22594 2.83358 0
M  V30 5387 H 494.651 2.14094 5.23622 0
M  V30 5388 H 493.208 2.81825 5.87723 0
M  V30 5389 N 496.642 -0.504142 1.49319 0
M  V30 5390 C 497.575 -1.62361 1.60356 0
M  V30 5391 C 498.553 -1.56169 0.45277 0
M  V30 5392 O 499.737 -1.76271 0.667892 0
M  V30 5393 C 496.864 -3.00864 1.55559 0
M  V30 5394 C 495.91 -3.25328 2.75797 0
M  V30 5395 S 496.743 -3.08791 4.37503 0
M  V30 5396 C 497.899 -4.49695 4.35345 0
M  V30 5397 H 498.132 -1.52753 2.55056 0
M  V30 5398 H 495.665 -0.689065 1.38171 0
M  V30 5399 H 497.623 -3.8073 1.53477 0
M  V30 5400 H 496.284 -3.0789 0.621515 0
M  V30 5401 H 495.477 -4.2643 2.68651 0
M  V30 5402 H 495.079 -2.53179 2.75275 0
M  V30 5403 H 497.371 -5.41721 4.06871 0
M  V30 5404 H 498.314 -4.61891 5.36714 0
M  V30 5405 H 498.722 -4.30227 3.65465 0
M  V30 5406 N 498.12 -1.38341 -0.754957 0
M  V30 5407 C 499.368 -1.34208 -1.51105 0
M  V30 5408 C 499.689 0.0677634 -1.94882 0
M  V30 5409 O 498.959 1.01517 -1.67544 0
M  V30 5410 H 497.539 -0.493819 -0.560493 0
M  V30 5411 H 500.201 -1.73005 -0.897507 0
M  V30 5412 H 499.297 -1.99203 -2.4026 0
M  V30 5413 N 499.598 0.982988 -1.23187 0
M  V30 5414 C 500.528 2.09301 -1.03515 0
M  V30 5415 C 501.509 1.70035 0.0471136 0
M  V30 5416 O 502.694 1.93847 -0.117029 0
M  V30 5417 C 499.824 3.4167 -0.622791 0
M  V30 5418 C 498.778 3.94828 -1.65211 0
M  V30 5419 C 498.104 5.23362 -1.09527 0
M  V30 5420 C 499.404 4.2439 -3.04451 0
M  V30 5421 H 501.098 2.26016 -1.96359 0
M  V30 5422 H 498.644 1.08611 -0.945501 0
M  V30 5423 H 500.597 4.18746 -0.472233 0
M  V30 5424 H 499.321 3.24811 0.341329 0
M  V30 5425 H 497.98 3.19895 -1.79061 0
M  V30 5426 H 497.628 5.02852 -0.122211 0
M  V30 5427 H 497.328 5.59895 -1.783 0
M  V30 5428 H 498.852 6.03062 -0.956511 0
M  V30 5429 H 500.266 4.92225 -2.93917 0
M  V30 5430 H 498.663 4.72118 -3.70438 0
M  V30 5431 H 499.733 3.31765 -3.53638 0
M  V30 5432 N 501.076 1.04316 1.18135 0
M  V30 5433 C 502.006 0.657299 2.24058 0
M  V30 5434 C 502.987 -0.340678 1.66654 0
M  V30 5435 O 504.172 -0.220223 1.92947 0
M  V30 5436 C 501.302 0.0220715 3.47293 0
M  V30 5437 C 500.256 0.943857 4.17463 0
M  V30 5438 C 499.582 0.172973 5.3442 0
M  V30 5439 C 500.882 2.26409 4.70677 0
M  V30 5440 H 502.576 1.5428 2.56589 0
M  V30 5441 H 500.122 0.743263 1.23335 0
M  V30 5442 H 502.075 -0.259607 4.206 0
M  V30 5443 H 500.799 -0.898323 3.14003 0
M  V30 5444 H 499.458 1.20996 3.46057 0
M  V30 5445 H 499.106 -0.749907 4.97379 0
M  V30 5446 H 498.806 0.787098 5.82304 0
M  V30 5447 H 500.33 -0.101628 6.10515 0
M  V30 5448 H 501.744 2.04294 5.35665 0
M  V30 5449 H 500.141 2.8314 5.29105 0
M  V30 5450 H 501.211 2.90883 3.87962 0
M  V30 5451 N 502.554 -1.34406 0.822964 0
M  V30 5452 C 503.97 -1.51275 0.508727 0
M  V30 5453 C 504.17 -1.76776 -0.967083 0
M  V30 5454 O 503.226 -1.81871 -1.75155 0
M  V30 5455 C 504.539 -2.67765 1.36829 0
M  V30 5456 C 506.087 -2.81647 1.36542 0
M  V30 5457 C 506.562 -4.01181 2.20947 0
M  V30 5458 N 508.053 -4.08388 2.18571 0
M  V30 5459 C 508.788 -5.00036 2.80627 0
M  V30 5460 N 508.284 -5.96906 3.51674 0
M  V30 5461 N 510.077 -4.92908 2.70181 0
M  V30 5462 H 502.228 -1.16113 1.77852 0
M  V30 5463 H 504.491 -0.56947 0.757897 0
M  V30 5464 H 504.197 -2.55551 2.41633 0
M  V30 5465 H 504.071 -3.62779 1.03303 0
M  V30 5466 H 506.458 -2.93303 0.325163 0
M  V30 5467 H 506.539 -1.87443 1.74066 0
M  V30 5468 H 506.183 -3.90286 3.25022 0
M  V30 5469 H 506.113 -4.94599 1.80774 0
M  V30 5470 H 508.604 -3.39051 1.66891 0
M  V30 5471 H 508.917 -6.63468 3.96271 0
M  V30 5472 H 507.262 -5.9703 3.5578 0
M  V30 5473 H 510.453 -4.1619 2.14251 0
M  V30 5474 H 510.626 -5.64137 3.18831 0
M  V30 5475 N 504.032 -0.577932 -1.46621 0
M  V30 5476 C 505.278 -0.0617793 -2.02706 0
M  V30 5477 C 505.611 1.29294 -1.44903 0
M  V30 5478 O 504.886 1.8461 -0.61232 0
M  V30 5479 C 505.169 0.00911824 -3.60099 0
M  V30 5480 C 505.022 -1.37416 -4.28295 0
M  V30 5481 C 506.341 0.712159 -4.343 0
M  V30 5482 H 503.46 -0.0239246 -0.736612 0
M  V30 5483 H 506.102 -0.744211 -1.74818 0
M  V30 5484 H 504.252 0.590292 -3.83989 0
M  V30 5485 H 505.924 -2.00013 -4.15683 0
M  V30 5486 H 504.167 -1.94319 -3.87843 0
M  V30 5487 H 504.838 -1.27707 -5.37024 0
M  V30 5488 H 507.314 0.218486 -4.15526 0
M  V30 5489 H 506.19 0.730782 -5.44014 0
M  V30 5490 H 506.451 1.77251 -4.05012 0
M  V30 5491 N 505.51 1.54411 -0.315457 0
M  V30 5492 C 506.759 1.99599 0.290395 0
M  V30 5493 C 507.072 1.20746 1.53882 0
M  V30 5494 O 508.278 1.56272 2.22017 0
M  V30 5495 C 506.734 3.5539 0.56797 0
M  V30 5496 C 506.342 4.43068 -0.662945 0
M  V30 5497 C 508.086 4.09067 1.13422 0
M  V30 5498 C 505.993 5.90317 -0.357722 0
M  V30 5499 H 504.923 0.745592 0.112286 0
M  V30 5500 H 507.574 1.78477 -0.426418 0
M  V30 5501 H 505.956 3.72468 1.34476 0
M  V30 5502 H 507.13 4.37765 -1.43869 0
M  V30 5503 H 505.445 4.00238 -1.14884 0
M  V30 5504 H 508.042 5.16663 1.37707 0
M  V30 5505 H 508.385 3.60552 2.08106 0
M  V30 5506 H 508.918 3.95589 0.418805 0
M  V30 5507 H 505.657 6.4301 -1.27351 0
M  V30 5508 H 505.177 5.98592 0.380472 0
M  V30 5509 H 506.856 6.4699 0.0354284 0
M  V30 5510 N 506.988 0.0434614 1.5754 0
M  V30 5511 C 508.213 -0.645358 1.97104 0
M  V30 5512 C 508.638 -1.64037 0.920521 0
M  V30 5513 O 507.996 -1.80922 -0.11708 0
M  V30 5514 C 508.044 -1.31547 3.35749 0
M  V30 5515 O 507.148 -2.43103 3.33129 0
M  V30 5516 H 506.489 -0.168403 0.64229 0
M  V30 5517 H 509.019 0.109573 2.04306 0
M  V30 5518 H 509.029 -1.66895 3.72304 0
M  V30 5519 H 507.704 -0.586205 4.11748 0
M  V30 5520 H 506.281 -2.0976 3.0831 0
M  V30 5521 N 508.466 -1.55915 -0.229846 0
M  V30 5522 C 509.714 -1.7819 -0.953565 0
M  V30 5523 C 510.035 -0.610504 -1.85197 0
M  V30 5524 O 509.305 0.372988 -1.92316 0
M  V30 5525 H 507.885 -0.657208 -0.355087 0
M  V30 5526 H 510.547 -1.9337 -0.243693 0
M  V30 5527 H 509.643 -2.70011 -1.56527 0
M  V30 5528 N 509.944 0.496216 -1.49584 0
M  V30 5529 C 511.19 1.25189 -1.59548 0
M  V30 5530 C 511.523 1.9212 -0.283466 0
M  V30 5531 O 510.798 1.80947 0.713324 0
M  V30 5532 C 511.081 2.31516 -2.75812 0
M  V30 5533 C 510.934 1.69054 -4.16822 0
M  V30 5534 C 512.253 3.3304 -2.87702 0
M  V30 5535 H 509.372 0.45379 -0.580727 0
M  V30 5536 H 512.014 0.549327 -1.81886 0
M  V30 5537 H 510.164 2.91438 -2.56897 0
M  V30 5538 H 511.836 1.12923 -4.47265 0
M  V30 5539 H 510.079 0.994485 -4.22247 0
M  V30 5540 H 510.75 2.462 -4.94054 0
M  V30 5541 H 513.226 2.83114 -3.04936 0
M  V30 5542 H 512.102 4.04794 -3.7072 0
M  V30 5543 H 512.363 3.95655 -1.97255 0
M  V30 5544 N 511.423 1.38739 0.74761 0
M  V30 5545 C 512.353 1.39173 1.87492 0
M  V30 5546 C 513.334 0.256794 1.6815 0
M  V30 5547 O 514.519 0.460762 1.88655 0
M  V30 5548 C 511.649 1.22197 3.25093 0
M  V30 5549 C 510.603 2.32957 3.59047 0
M  V30 5550 C 509.929 2.01082 4.95449 0
M  V30 5551 C 511.229 3.75237 3.6331 0
M  V30 5552 H 512.923 2.3351 1.87386 0
M  V30 5553 H 510.469 1.12399 0.900134 0
M  V30 5554 H 512.422 1.21124 4.03617 0
M  V30 5555 H 511.146 0.243241 3.25693 0
M  V30 5556 H 509.805 2.33226 2.82845 0
M  V30 5557 H 509.453 1.01678 4.92616 0
M  V30 5558 H 509.153 2.75267 5.19136 0
M  V30 5559 H 510.677 2.01638 5.76346 0
M  V30 5560 H 512.091 3.76966 4.31937 0
M  V30 5561 H 510.488 4.48677 3.98509 0
M  V30 5562 H 511.558 4.07122 2.634 0
M  V30 5563 N 512.901 -0.976442 1.23707 0
M  V30 5564 C 513.833 -2.07212 0.979574 0
M  V30 5565 C 514.846 -1.6273 -0.0478528 0
M  V30 5566 O 516.035 -1.77506 0.18815 0
M  V30 5567 C 513.135 -3.35835 0.45479 0
M  V30 5568 C 512.308 -4.09268 1.54331 0
M  V30 5569 C 511.367 -5.16166 1.02271 0
M  V30 5570 O 510.393 -5.42827 1.71254 0
M  V30 5571 N 511.595 -5.80313 -0.147419 0
M  V30 5572 H 514.36 -2.29878 1.92292 0
M  V30 5573 H 511.921 -1.14343 1.14618 0
M  V30 5574 H 513.913 -4.04597 0.0914631 0
M  V30 5575 H 512.483 -3.10106 -0.394068 0
M  V30 5576 H 511.703 -3.34906 2.07923 0
M  V30 5577 H 512.991 -4.55095 2.27522 0
M  V30 5578 H 512.389 -5.61043 -0.724353 0
M  V30 5579 H 510.946 -6.50231 -0.451972 0
M  V30 5580 N 514.379 -1.04941 -1.1758 0
M  V30 5581 C 515.309 -0.669172 -2.23706 0
M  V30 5582 C 516.29 0.331835 -1.66832 0
M  V30 5583 O 517.475 0.209988 -1.93061 0
M  V30 5584 C 514.605 -0.0404889 -3.47276 0
M  V30 5585 C 513.559 -0.965983 -4.16957 0
M  V30 5586 C 512.885 -0.201312 -5.34321 0
M  V30 5587 C 514.185 -2.28902 -4.69469 0
M  V30 5588 H 515.879 -1.55639 -2.55767 0
M  V30 5589 H 513.425 -0.749793 -1.22939 0
M  V30 5590 H 515.378 0.237298 -4.20731 0
M  V30 5591 H 514.102 0.881658 -3.14475 0
M  V30 5592 H 512.761 -1.22829 -3.45411 0
M  V30 5593 H 512.409 0.723519 -4.97769 0
M  V30 5594 H 512.109 -0.817968 -5.81879 0
M  V30 5595 H 513.633 0.0692499 -6.10561 0
M  V30 5596 H 515.047 -2.07132 -5.34574 0
M  V30 5597 H 513.444 -2.85942 -5.27596 0
M  V30 5598 H 514.514 -2.92937 -3.86414 0
M  V30 5599 N 515.857 1.33968 -0.830081 0
M  V30 5600 C 517.105 1.97672 -0.420734 0
M  V30 5601 C 517.426 1.66111 1.02138 0
M  V30 5602 O 516.696 0.955503 1.71017 0
M  V30 5603 H 515.276 0.73125 -0.152587 0
M  V30 5604 H 517.938 1.63483 -1.0611 0
M  V30 5605 H 517.034 3.07294 -0.545588 0
M  V30 5606 N 517.335 0.585699 1.46312 0
M  V30 5607 C 518.283 -0.158577 2.32059 0
M  V30 5608 C 519.277 -0.881427 1.44662 0
M  V30 5609 O 520.483 -0.799476 1.61271 0
M  V30 5610 H 516.858 -0.0700066 0.748734 0
M  V30 5611 H 518.829 0.583383 2.92642 0
M  V30 5612 C 517.578 -1.15701 3.27885 0
M  V30 5613 H 516.901 -0.610215 3.95116 0
M  V30 5614 H 518.341 -1.64812 3.90657 0
M  V30 5615 C 516.8 -2.21951 2.53455 0
M  V30 5616 O 517.33 -3.29352 2.29978 0
M  V30 5617 N 515.536 -1.9664 2.13965 0
M  V30 5618 H 515.083 -1.09309 2.33258 0
M  V30 5619 H 515.041 -2.6794 1.64485 0
M  V30 5620 N 518.813 -1.54241 0.323641 0
M  V30 5621 C 520.062 -1.9975 -0.279806 0
M  V30 5622 C 520.375 -1.2156 -1.5324 0
M  V30 5623 O 521.581 -1.57447 -2.21185 0
M  V30 5624 C 520.037 -3.55686 -0.549115 0
M  V30 5625 C 519.645 -4.4271 0.686432 0
M  V30 5626 C 521.389 -4.09663 -1.11251 0
M  V30 5627 C 519.296 -5.90119 0.389022 0
M  V30 5628 H 518.226 -0.746177 -0.10833 0
M  V30 5629 H 520.877 -1.78248 0.435877 0
M  V30 5630 H 519.259 -3.73176 -1.32499 0
M  V30 5631 H 520.433 -4.36996 1.46188 0
M  V30 5632 H 518.748 -3.99623 1.17005 0
M  V30 5633 H 521.345 -5.17386 -1.34965 0
M  V30 5634 H 521.688 -3.61651 -2.06191 0
M  V30 5635 H 522.221 -3.95806 -0.39782 0
M  V30 5636 H 518.96 -6.42326 1.30759 0
M  V30 5637 H 518.48 -5.98785 -0.348722 0
M  V30 5638 H 520.159 -6.47 -0.0011164 0
M  V30 5639 N 520.291 -0.0518155 -1.57515 0
M  V30 5640 C 521.537 0.622745 -1.93002 0
M  V30 5641 C 521.87 1.70456 -0.930499 0
M  V30 5642 O 521.145 1.94452 0.0434086 0
M  V30 5643 C 521.428 1.21824 -3.38867 0
M  V30 5644 C 521.281 0.144434 -4.49568 0
M  V30 5645 C 522.6 2.12968 -3.8514 0
M  V30 5646 H 519.719 0.22491 -0.701844 0
M  V30 5647 H 522.361 -0.113711 -1.89659 0
M  V30 5648 H 520.511 1.8459 -3.41846 0
M  V30 5649 H 522.183 -0.48753 -4.58717 0
M  V30 5650 H 520.426 -0.527424 -4.30582 0
M  V30 5651 H 521.097 0.601127 -5.48717 0
M  V30 5652 H 523.573 1.60163 -3.8404 0
M  V30 5653 H 522.449 2.51578 -4.87852 0
M  V30 5654 H 522.71 3.03004 -3.21934 0
M  V30 5655 N 521.769 1.56035 0.221574 0
M  V30 5656 C 523.016 1.79047 0.94597 0
M  V30 5657 C 523.344 0.62057 1.84334 0
M  V30 5658 O 522.599 -0.395053 1.91671 0
M  V30 5659 C 522.898 3.07813 1.8162 0
M  V30 5660 C 522.564 4.3797 1.07206 0
M  V30 5661 C 521.226 4.73334 0.866508 0
M  V30 5662 C 523.578 5.18326 0.546565 0
M  V30 5663 C 520.906 5.8657 0.123549 0
M  V30 5664 C 523.258 6.32335 -0.18305 0
M  V30 5665 C 521.922 6.66301 -0.399861 0
M  V30 5666 H 521.192 0.655178 0.346155 0
M  V30 5667 H 523.839 1.90299 0.214146 0
M  V30 5668 H 522.144 2.91682 2.61589 0
M  V30 5669 H 523.841 3.2282 2.37884 0
M  V30 5670 H 520.431 4.10202 1.24226 0
M  V30 5671 H 524.615 4.9144 0.692847 0
M  V30 5672 H 519.871 6.11376 -0.0546591 0
M  V30 5673 H 524.045 6.9383 -0.59775 0
M  V30 5674 H 521.672 7.53889 -0.977489 0
M  V30 5675 N 523.247 -0.488276 1.49845 0
M  V30 5676 C 524.194 -1.58836 1.67451 0
M  V30 5677 C 525.164 -1.57886 0.515857 0
M  V30 5678 O 526.349 -1.75679 0.744403 0
M  V30 5679 C 523.489 -2.96915 1.75885 0
M  V30 5680 C 522.602 -3.07784 3.03138 0
M  V30 5681 C 521.737 -4.36673 3.02473 0
M  V30 5682 C 520.776 -4.41222 4.24252 0
M  V30 5683 N 519.913 -5.61557 4.21424 0
M  V30 5684 H 524.753 -1.43131 2.61376 0
M  V30 5685 H 522.29 -0.696186 1.29583 0
M  V30 5686 H 524.248 -3.76965 1.78755 0
M  V30 5687 H 522.878 -3.11295 0.85414 0
M  V30 5688 H 521.93 -2.20717 3.09819 0
M  V30 5689 H 523.242 -3.07005 3.93128 0
M  V30 5690 H 522.396 -5.25055 3.03977 0
M  V30 5691 H 521.135 -4.40037 2.10283 0
M  V30 5692 H 520.14 -3.5124 4.22978 0
M  V30 5693 H 521.365 -4.39564 5.17649 0
M  V30 5694 H 519.311 -5.65738 3.32078 0
M  V30 5695 H 519.228 -5.62447 5.05163 0
M  V30 5696 H 520.496 -6.52111 4.2705 0
M  V30 5697 N 524.725 -1.39134 -0.740242 0
M  V30 5698 C 525.672 -1.37434 -1.8542 0
M  V30 5699 C 526.642 -0.234822 -1.64432 0
M  V30 5700 O 527.827 -0.429125 -1.85912 0
M  V30 5701 C 524.967 -1.21844 -3.22875 0
M  V30 5702 C 524.08 -2.45296 -3.55603 0
M  V30 5703 C 523.215 -2.22334 -4.82432 0
M  V30 5704 C 522.254 -3.41488 -5.07988 0
M  V30 5705 N 521.391 -3.17877 -6.26018 0
M  V30 5706 H 526.231 -2.3266 -1.86207 0
M  V30 5707 H 523.768 -1.15578 -0.909946 0
M  V30 5708 H 525.726 -1.10818 -4.02213 0
M  V30 5709 H 524.356 -0.3025 -3.21379 0
M  V30 5710 H 523.408 -2.66945 -2.71006 0
M  V30 5711 H 524.72 -3.34063 -3.7041 0
M  V30 5712 H 523.874 -2.0852 -5.69741 0
M  V30 5713 H 522.613 -1.30954 -4.6979 0
M  V30 5714 H 521.618 -3.55807 -4.19144 0
M  V30 5715 H 522.843 -4.33763 -5.22519 0
M  V30 5716 H 520.789 -2.29156 -6.14673 0
M  V30 5717 H 520.706 -4.00198 -6.41387 0
M  V30 5718 H 521.974 -3.07746 -7.16179 0
M  V30 5719 N 526.204 0.969867 -1.24223 0
M  V30 5720 C 527.114 2.09806 -1.0497 0
M  V30 5721 C 528.13 1.73998 0.00886455 0
M  V30 5722 O 529.306 2.00513 -0.188848 0
M  V30 5723 C 526.371 3.40467 -0.654452 0
M  V30 5724 C 525.432 3.90236 -1.78926 0
M  V30 5725 C 524.665 5.14662 -1.41277 0
M  V30 5726 O 524.888 5.69602 -0.301632 0
M  V30 5727 O 523.822 5.58761 -2.23763 0
M  V30 5728 H 527.648 2.28942 -1.99548 0
M  V30 5729 H 525.233 1.08197 -1.03023 0
M  V30 5730 H 527.115 4.19039 -0.445452 0
M  V30 5731 H 525.79 3.22636 0.262216 0
M  V30 5732 H 524.697 3.12735 -2.05299 0
M  V30 5733 H 526.03 4.1254 -2.68462 0
M  V30 5734 N 527.682 1.05563 1.17022 0
M  V30 5735 C 529.098 0.777684 1.39371 0
M  V30 5736 C 529.298 -0.626269 1.91521 0
M  V30 5737 O 528.354 -1.38806 2.10924 0
M  V30 5738 C 529.667 1.83642 2.3811 0
M  V30 5739 C 531.215 1.85907 2.51809 0
M  V30 5740 C 531.69 2.90813 3.53824 0
M  V30 5741 N 533.181 2.898 3.61345 0
M  V30 5742 C 533.916 3.6762 4.40049 0
M  V30 5743 N 533.412 4.55237 5.22237 0
M  V30 5744 N 535.205 3.56044 4.34959 0
M  V30 5745 H 527.356 1.9614 0.815047 0
M  V30 5746 H 529.619 0.849527 0.420722 0
M  V30 5747 H 529.325 2.84425 2.06871 0
M  V30 5748 H 529.199 1.6812 3.37662 0
M  V30 5749 H 531.586 0.857865 2.82356 0
M  V30 5750 H 531.667 2.05506 1.52318 0
M  V30 5751 H 531.311 3.91122 3.24015 0
M  V30 5752 H 531.241 2.68465 4.53028 0
M  V30 5753 H 533.732 2.26274 3.02669 0
M  V30 5754 H 534.045 5.11291 5.79484 0
M  V30 5755 H 532.39 4.59296 5.21605 0
M  V30 5756 H 535.581 2.86986 3.69806 0
M  V30 5757 H 535.754 4.16938 4.96051 0
M  V30 5758 N 529.16 -1.33526 0.837174 0
M  V30 5759 C 530.108 -2.31168 0.257698 0
M  V30 5760 C 531.102 -1.5806 -0.609388 0
M  V30 5761 O 532.308 -1.72941 -0.499139 0
M  V30 5762 H 528.683 -0.74922 0.0646058 0
M  V30 5763 H 530.654 -2.77552 1.09578 0
M  V30 5764 C 529.403 -3.4326 -0.553887 0
M  V30 5765 H 528.726 -3.99665 0.104008 0
M  V30 5766 H 530.166 -4.13782 -0.925219 0
M  V30 5767 C 528.625 -2.88965 -1.73207 0
M  V30 5768 O 529.155 -2.85013 -2.83073 0
M  V30 5769 N 527.361 -2.45596 -1.55342 0
M  V30 5770 H 526.908 -2.49009 -0.659705 0
M  V30 5771 H 526.866 -2.0962 -2.34322 0
M  V30 5772 N 530.638 -0.59345 -1.46 0
M  V30 5773 C 531.866 -0.0890934 -2.06708 0
M  V30 5774 C 532.281 1.2205 -1.44046 0
M  V30 5775 O 531.638 1.74029 -0.549551 0
M  V30 5776 C 531.689 0.0720263 -3.61428 0
M  V30 5777 O 531.41 -1.18574 -4.21748 0
M  V30 5778 C 532.911 0.609487 -4.3909 0
M  V30 5779 H 530.131 -0.0623628 -0.668096 0
M  V30 5780 H 532.675 -0.817171 -1.87464 0
M  V30 5781 H 530.83 0.750369 -3.80063 0
M  V30 5782 H 531.244 -1.0064 -5.14754 0
M  V30 5783 H 532.718 0.671363 -5.47902 0
M  V30 5784 H 533.195 1.62878 -4.07882 0
M  V30 5785 H 533.801 -0.03434 -4.25286 0
M  V30 5786 N 532.116 1.54067 -0.331816 0
M  V30 5787 C 533.393 1.92915 0.322955 0
M  V30 5788 C 533.773 1.26225 1.69205 0
M  V30 5789 O 533.121 0.408919 2.24811 0
M  V30 5790 C 533.331 3.46619 0.406946 0
M  V30 5791 C 534.679 4.19386 0.663339 0
M  V30 5792 O 535.703 3.5282 0.489536 0
M  V30 5793 O 534.562 5.37288 0.999193 0
M  V30 5794 H 531.656 0.805808 0.186016 0
M  V30 5795 H 534.202 1.65342 -0.382135 0
M  V30 5796 H 532.974 3.87354 -0.554287 0
M  V30 5797 H 532.597 3.80324 1.15929 0
M  V30 5798 N 533.594 0.0601682 1.57485 0
M  V30 5799 C 534.526 -0.94047 2.09016 0
M  V30 5800 C 535.539 -1.26897 1.01985 0
M  V30 5801 O 536.728 -1.22819 1.29529 0
M  V30 5802 C 533.828 -2.25955 2.52582 0
M  V30 5803 C 533.001 -2.11163 3.83052 0
M  V30 5804 C 532.06 -3.26273 4.12835 0
M  V30 5805 O 531.086 -3.01779 4.82616 0
M  V30 5806 N 532.288 -4.51022 3.65458 0
M  V30 5807 H 535.053 -0.500578 2.9549 0
M  V30 5808 H 532.614 -0.125852 1.6141 0
M  V30 5809 H 534.606 -3.01846 2.69575 0
M  V30 5810 H 533.176 -2.61481 1.71308 0
M  V30 5811 H 532.396 -1.19808 3.75552 0
M  V30 5812 H 533.684 -1.98517 4.68475 0
M  V30 5813 H 533.082 -4.73811 3.09062 0
M  V30 5814 H 531.639 -5.23978 3.87673 0
M  V30 5815 N 535.072 -1.5615 -0.213296 0
M  V30 5816 C 536.035 -1.92249 -1.24792 0
M  V30 5817 C 537.035 -0.801828 -1.39382 0
M  V30 5818 O 538.225 -1.06948 -1.37506 0
M  V30 5819 C 535.357 -2.18056 -2.62039 0
M  V30 5820 H 536.55 -2.84793 -0.939845 0
M  V30 5821 H 534.103 -1.49559 -0.454062 0
M  V30 5822 H 534.838 -1.2809 -2.97932 0
M  V30 5823 H 534.623 -2.99703 -2.52825 0
M  V30 5824 H 536.113 -2.47051 -3.36683 0
M  V30 5825 N 536.55 0.480323 -1.50102 0
M  V30 5826 C 537.775 1.26126 -1.64642 0
M  V30 5827 C 538.2 1.85257 -0.325823 0
M  V30 5828 O 537.558 1.66854 0.709194 0
M  V30 5829 C 537.606 2.35243 -2.73301 0
M  V30 5830 O 536.71 3.39646 -2.33911 0
M  V30 5831 H 536.051 0.371463 -0.550374 0
M  V30 5832 H 538.581 0.572696 -1.96421 0
M  V30 5833 H 538.591 2.80695 -2.96098 0
M  V30 5834 H 537.266 1.91574 -3.6915 0
M  V30 5835 H 535.843 2.99969 -2.21525 0
M  V30 5836 N 538.028 1.39524 0.732853 0
M  V30 5837 C 538.961 1.32806 1.85574 0
M  V30 5838 C 539.939 0.201354 1.61348 0
M  V30 5839 O 541.123 0.38216 1.84585 0
M  V30 5840 C 538.25 1.06271 3.21596 0
M  V30 5841 C 537.296 2.21161 3.64678 0
M  V30 5842 S 538.129 3.83454 3.73796 0
M  V30 5843 C 539.285 3.59149 5.12604 0
M  V30 5844 H 539.518 2.27838 1.9099 0
M  V30 5845 H 537.051 1.25605 0.897927 0
M  V30 5846 H 539.009 0.916461 4.00139 0
M  V30 5847 H 537.67 0.129223 3.13834 0
M  V30 5848 H 536.863 1.98193 4.63396 0
M  V30 5849 H 536.465 2.32 2.93346 0
M  V30 5850 H 538.757 3.16547 5.99003 0
M  V30 5851 H 539.7 4.57335 5.40602 0
M  V30 5852 H 540.108 2.93203 4.82382 0
M  V30 5853 N 539.506 -0.963266 1.24736 0
M  V30 5854 C 540.917 -1.52145 1.08207 0
M  V30 5855 C 541.268 -1.93142 -0.345061 0
M  V30 5856 O 540.393 -1.77769 -1.23399 0
M  V30 5857 C 540.988 -2.76486 1.95808 0
M  V30 5858 C 539.547 -3.28646 1.8349 0
M  V30 5859 C 538.694 -2.01529 1.90476 0
M  V30 5860 H 541.645 -0.781083 1.38148 0
M  V30 5861 H 541.666 -3.49986 1.49297 0
M  V30 5862 H 541.178 -2.46617 2.99669 0
M  V30 5863 H 539.279 -3.63357 0.824787 0
M  V30 5864 H 539.392 -3.97246 2.67829 0
M  V30 5865 H 537.756 -2.16442 1.34258 0
M  V30 5866 H 538.539 -1.7402 2.95926 0
M  V30 5867 N 540.985 -1.06182 -1.16461 0
M  V30 5868 C 542.262 -0.691364 -1.82974 0
M  V30 5869 C 542.642 0.827377 -1.9421 0
M  V30 5870 O 541.99 1.73723 -1.48434 0
M  V30 5871 C 542.2 -1.39199 -3.20038 0
M  V30 5872 C 543.548 -1.53647 -3.95825 0
M  V30 5873 O 544.572 -1.35181 -3.29552 0
M  V30 5874 O 543.431 -1.83932 -5.14618 0
M  V30 5875 H 540.525 -0.244605 -0.789998 0
M  V30 5876 H 543.071 -1.16203 -1.23673 0
M  V30 5877 H 541.843 -2.42766 -3.06888 0
M  V30 5878 H 541.466 -0.911335 -3.87015 0
M  V30 5879 N 542.463 1.3308 -0.844243 0
M  V30 5880 C 543.411 2.31028 -0.269954 0
M  V30 5881 C 544.405 1.58381 0.600997 0
M  V30 5882 O 545.611 1.73203 0.48996 0
M  V30 5883 H 541.986 0.748866 -0.0685782 0
M  V30 5884 H 543.957 2.76967 -1.11049 0
M  V30 5885 C 542.706 3.43549 0.535676 0
M  V30 5886 H 542.029 3.99604 -0.125202 0
M  V30 5887 H 543.469 4.14267 0.903262 0
M  V30 5888 C 541.928 2.8988 1.71672 0
M  V30 5889 O 542.458 2.86511 2.81557 0
M  V30 5890 N 540.664 2.46416 1.54037 0
M  V30 5891 H 540.211 2.49356 0.64649 0
M  V30 5892 H 540.169 2.1086 2.33207 0
M  V30 5893 N 543.941 0.601185 1.45683 0
M  V30 5894 C 545.169 0.100054 2.06658 0
M  V30 5895 C 545.584 -1.21285 1.44691 0
M  V30 5896 O 544.941 -1.73735 0.558772 0
M  V30 5897 C 544.992 -0.0528579 3.61461 0
M  V30 5898 O 544.713 1.20809 4.21114 0
M  V30 5899 C 546.214 -0.586193 4.39407 0
M  V30 5900 H 543.434 0.065905 0.667756 0
M  V30 5901 H 545.978 0.827101 1.87028 0
M  V30 5902 H 544.133 -0.730203 3.80456 0
M  V30 5903 H 544.547 1.03368 5.14213 0
M  V30 5904 H 546.021 -0.642297 5.4825 0
M  V30 5905 H 546.498 -1.60713 4.0874 0
M  V30 5906 H 547.104 0.0568935 4.25262 0
M  V30 5907 N 545.419 -1.53889 0.339982 0
M  V30 5908 C 546.382 -2.23547 -0.50592 0
M  V30 5909 C 547.382 -1.23445 -1.03044 0
M  V30 5910 O 548.572 -1.47909 -0.920253 0
M  V30 5911 C 545.704 -2.95234 -1.7044 0
M  V30 5912 H 546.897 -2.99722 0.103247 0
M  V30 5913 H 544.45 -1.56033 0.0912804 0
M  V30 5914 H 545.185 -2.23236 -2.35236 0
M  V30 5915 H 544.97 -3.68654 -1.33553 0
M  V30 5916 H 546.46 -3.48258 -2.30447 0
M  V30 5917 N 546.897 -0.0685191 -1.57451 0
M  V30 5918 C 547.86 0.885173 -2.11417 0
M  V30 5919 C 548.86 1.22853 -1.03748 0
M  V30 5920 O 550.05 1.16235 -1.2975 0
M  V30 5921 C 547.182 2.18964 -2.61281 0
M  V30 5922 H 548.375 0.417034 -2.96986 0
M  V30 5923 H 545.928 0.18014 -1.55258 0
M  V30 5924 H 546.663 2.70321 -1.79156 0
M  V30 5925 H 546.448 1.9534 -3.39977 0
M  V30 5926 H 547.938 2.87242 -3.0312 0
M  V30 5927 N 548.375 1.56261 0.205012 0
M  V30 5928 C 549.307 1.90266 1.27795 0
M  V30 5929 C 550.32 0.792397 1.42214 0
M  V30 5930 O 551.509 1.07077 1.42817 0
M  V30 5931 C 548.609 2.11074 2.65143 0
M  V30 5932 C 547.782 3.42176 2.7246 0
M  V30 5933 C 546.841 3.52216 3.90936 0
M  V30 5934 O 545.867 4.25119 3.78501 0
M  V30 5935 N 547.069 2.84573 5.05963 0
M  V30 5936 H 549.834 2.82896 0.989434 0
M  V30 5937 H 547.395 1.57008 0.394981 0
M  V30 5938 H 549.387 2.15089 3.4281 0
M  V30 5939 H 547.957 1.2499 2.86524 0
M  V30 5940 H 547.177 3.50116 1.81142 0
M  V30 5941 H 548.465 4.28509 2.74331 0
M  V30 5942 H 547.863 2.25152 5.18963 0
M  V30 5943 H 546.42 2.94228 5.81613 0
M  V30 5944 N 549.853 -0.472356 1.50355 0
M  V30 5945 C 550.8 -1.57051 1.69126 0
M  V30 5946 C 551.77 -1.5733 0.532574 0
M  V30 5947 O 552.955 -1.7488 0.762994 0
M  V30 5948 C 550.095 -2.95033 1.79024 0
M  V30 5949 C 549.208 -3.04552 3.06386 0
M  V30 5950 C 548.343 -4.33441 3.07087 0
M  V30 5951 C 547.382 -4.36697 4.28908 0
M  V30 5952 N 546.519 -5.57056 4.27356 0
M  V30 5953 H 551.359 -1.40351 2.62879 0
M  V30 5954 H 548.896 -0.682403 1.30314 0
M  V30 5955 H 550.854 -3.75048 1.82744 0
M  V30 5956 H 549.484 -3.10371 0.887109 0
M  V30 5957 H 548.536 -2.17419 3.12143 0
M  V30 5958 H 549.848 -3.02818 3.96362 0
M  V30 5959 H 549.002 -5.21801 3.09529 0
M  V30 5960 H 547.741 -4.37782 2.14939 0
M  V30 5961 H 546.746 -3.46734 4.2668 0
M  V30 5962 H 547.971 -4.34049 5.22282 0
M  V30 5963 H 545.917 -5.62184 3.3806 0
M  V30 5964 H 545.834 -5.57058 5.111 0
M  V30 5965 H 547.102 -6.47545 4.33942 0
M  V30 5966 N 551.331 -1.39911 -0.725443 0
M  V30 5967 C 552.577 -1.37858 -1.48738 0
M  V30 5968 C 552.91 0.0224187 -1.94187 0
M  V30 5969 O 552.185 0.989204 -1.67466 0
M  V30 5970 C 552.468 -2.3594 -2.72038 0
M  V30 5971 C 552.321 -3.85023 -2.32546 0
M  V30 5972 C 553.64 -2.31704 -3.74167 0
M  V30 5973 H 550.759 -0.502074 -0.539528 0
M  V30 5974 H 553.401 -1.70974 -0.828728 0
M  V30 5975 H 551.551 -2.0783 -3.28236 0
M  V30 5976 H 553.223 -4.2392 -1.81905 0
M  V30 5977 H 551.466 -4.01334 -1.64661 0
M  V30 5978 H 552.137 -4.49152 -3.20884 0
M  V30 5979 H 554.613 -2.5658 -3.27576 0
M  V30 5980 H 553.489 -3.02395 -4.58092 0
M  V30 5981 H 553.75 -1.3253 -4.21768 0
M  V30 5982 N 552.809 0.956637 -1.25245 0
M  V30 5983 C 554.034 1.74104 -1.12706 0
M  V30 5984 C 554.459 1.85436 0.315429 0
M  V30 5985 O 553.817 1.33334 1.22848 0
M  V30 5986 C 553.865 3.1338 -1.78396 0
M  V30 5987 O 552.969 3.98485 -1.06224 0
M  V30 5988 H 552.31 0.53476 -0.393609 0
M  V30 5989 H 554.84 1.19924 -1.65769 0
M  V30 5990 H 554.85 3.6385 -1.846 0
M  V30 5991 H 553.525 3.04448 -2.83345 0
M  V30 5992 H 552.102 3.56952 -1.07886 0
M  V30 5993 N 554.287 1.06798 1.15896 0
M  V30 5994 C 555.237 0.653213 2.18443 0
M  V30 5995 C 556.221 -0.318763 1.57711 0
M  V30 5996 O 557.413 -0.133388 1.76497 0
M  V30 5997 C 554.542 0.0465785 3.43268 0
M  V30 5998 C 553.628 1.04336 4.11066 0
M  V30 5999 N 554.019 2.22084 4.54436 0
M  V30 6000 C 552.317 0.875433 4.37324 0
M  V30 6001 C 553.018 2.85276 5.06944 0
M  V30 6002 N 551.994 2.12973 5.00143 0
M  V30 6003 H 555.796 1.55011 2.49698 0
M  V30 6004 H 553.31 0.940384 1.32403 0
M  V30 6005 H 555.307 -0.26843 4.16035 0
M  V30 6006 H 553.967 -0.845504 3.13499 0
M  V30 6007 H 554.978 2.59833 4.48004 0
M  V30 6008 H 551.655 0.0357721 4.17485 0
M  V30 6009 H 553.045 3.85223 5.50503 0
M  V30 6010 N 555.766 -1.3263 0.851289 0
M  V30 6011 C 556.696 -2.31449 0.308771 0
M  V30 6012 C 557.677 -1.59531 -0.590255 0
M  V30 6013 O 558.862 -1.87351 -0.511205 0
M  V30 6014 C 555.992 -3.43586 -0.506548 0
M  V30 6015 C 554.946 -4.26963 0.297753 0
M  V30 6016 C 554.272 -5.30831 -0.642094 0
M  V30 6017 C 555.572 -4.99643 1.52166 0
M  V30 6018 H 557.266 -2.77074 1.13447 0
M  V30 6019 H 554.812 -1.33207 0.546971 0
M  V30 6020 H 556.765 -4.11754 -0.896474 0
M  V30 6021 H 555.489 -2.96681 -1.36558 0
M  V30 6022 H 554.148 -3.60437 0.669391 0
M  V30 6023 H 553.796 -4.8018 -1.49788 0
M  V30 6024 H 553.496 -5.87501 -0.107968 0
M  V30 6025 H 555.02 -6.01862 -1.02927 0
M  V30 6026 H 556.434 -5.6051 1.20421 0
M  V30 6027 H 554.831 -5.66022 1.99347 0
M  V30 6028 H 555.901 -4.27701 2.28474 0
M  V30 6029 N 557.244 -0.608902 -1.45362 0
M  V30 6030 C 558.174 0.0964526 -2.33301 0
M  V30 6031 C 559.155 0.857444 -1.46908 0
M  V30 6032 O 560.34 0.827735 -1.75676 0
M  V30 6033 C 557.47 1.09354 -3.29635 0
M  V30 6034 C 556.424 0.445676 -4.25673 0
M  V30 6035 C 555.75 1.5511 -5.11708 0
M  V30 6036 C 557.05 -0.633972 -5.18438 0
M  V30 6037 H 558.744 -0.637829 -2.92527 0
M  V30 6038 H 556.29 -0.308178 -1.40664 0
M  V30 6039 H 558.243 1.59556 -3.90025 0
M  V30 6040 H 556.967 1.85843 -2.6857 0
M  V30 6041 H 555.626 -0.0354897 -3.66583 0
M  V30 6042 H 555.274 2.30631 -4.4701 0
M  V30 6043 H 554.974 1.12311 -5.76767 0
M  V30 6044 H 556.498 2.05537 -5.74967 0
M  V30 6045 H 557.912 -0.215974 -5.72893 0
M  V30 6046 H 556.309 -0.983789 -5.91981 0
M  V30 6047 H 557.379 -1.51005 -4.60788 0
M  V30 6048 N 558.722 1.53707 -0.348139 0
M  V30 6049 C 559.97 2.00591 0.246478 0
M  V30 6050 C 560.291 1.23753 1.50699 0
M  V30 6051 O 559.561 0.345964 1.92821 0
M  V30 6052 H 558.141 0.741053 0.0940679 0
M  V30 6053 H 560.803 1.89139 -0.470354 0
M  V30 6054 H 559.899 3.08297 0.485714 0
M  V30 6055 N 560.2 0.0768682 1.57412 0
M  V30 6056 C 561.449 -0.590679 1.92857 0
M  V30 6057 C 561.762 -1.70461 0.959293 0
M  V30 6058 O 562.968 -2.43207 1.20675 0
M  V30 6059 C 561.424 -1.10204 3.42612 0
M  V30 6060 C 561.032 -0.0188447 4.47996 0
M  V30 6061 C 562.776 -1.74336 3.87049 0
M  V30 6062 C 560.683 -0.544536 5.88888 0
M  V30 6063 H 559.613 -0.224411 0.71983 0
M  V30 6064 H 562.264 0.149924 1.82887 0
M  V30 6065 H 560.646 -1.89577 3.47673 0
M  V30 6066 H 561.82 0.755936 4.54557 0
M  V30 6067 H 560.135 0.526555 4.13057 0
M  V30 6068 H 562.732 -2.14708 4.89699 0
M  V30 6069 H 563.075 -2.60537 3.24694 0
M  V30 6070 H 563.608 -1.01577 3.84613 0
M  V30 6071 H 560.347 0.280426 6.549 0
M  V30 6072 H 559.867 -1.28673 5.85836 0
M  V30 6073 H 561.546 -1.01933 6.3892 0
M  V30 6074 N 561.678 -1.56367 -0.196722 0
M  V30 6075 C 562.626 -1.95304 -1.2633 0
M  V30 6076 C 563.62 -0.838252 -1.47206 0
M  V30 6077 O 564.826 -1.02325 -1.48087 0
M  V30 6078 H 561.201 -0.621013 -0.424083 0
M  V30 6079 H 563.172 -2.84254 -0.907879 0
M  V30 6080 C 561.921 -2.3074 -2.60104 0
M  V30 6081 H 561.244 -3.16047 -2.44856 0
M  V30 6082 H 562.684 -2.61849 -3.33484 0
M  V30 6083 C 561.143 -1.14143 -3.16975 0
M  V30 6084 O 561.673 -0.415602 -3.99544 0
M  V30 6085 N 559.879 -0.91867 -2.75697 0
M  V30 6086 H 559.426 -1.51065 -2.08656 0
M  V30 6087 H 559.384 -0.140321 -3.14087 0
M  V30 6088 N 563.156 0.464375 -1.50603 0
M  V30 6089 C 564.402 1.21776 -1.62168 0
M  V30 6090 C 564.735 1.91476 -0.324154 0
M  V30 6091 O 564.01 1.8242 0.674782 0
M  V30 6092 C 564.293 2.25614 -2.80661 0
M  V30 6093 C 564.146 1.60175 -4.20314 0
M  V30 6094 C 565.465 3.26862 -2.94702 0
M  V30 6095 H 562.584 0.44137 -0.590222 0
M  V30 6096 H 565.226 0.510623 -1.8301 0
M  V30 6097 H 563.376 2.85923 -2.63021 0
M  V30 6098 H 565.048 1.03411 -4.4956 0
M  V30 6099 H 563.291 0.904697 -4.24261 0
M  V30 6100 H 563.962 2.35665 -4.99165 0
M  V30 6101 H 566.438 2.76582 -3.10872 0
M  V30 6102 H 565.314 3.96839 -3.79223 0
M  V30 6103 H 565.575 3.91382 -2.05603 0
M  V30 6104 N 564.634 1.40294 0.718013 0
M  V30 6105 C 565.862 1.4175 1.50714 0
M  V30 6106 C 566.277 0.0165366 1.88793 0
M  V30 6107 O 565.634 -0.958942 1.55276 0
M  V30 6108 C 565.685 2.30598 2.784 0
M  V30 6109 O 565.406 3.6524 2.41932 0
M  V30 6110 C 566.907 2.4062 3.72313 0
M  V30 6111 H 564.127 0.483565 0.465194 0
M  V30 6112 H 566.671 1.84316 0.885889 0
M  V30 6113 H 564.826 1.91401 3.36815 0
M  V30 6114 H 565.24 4.12402 3.24076 0
M  V30 6115 H 566.714 3.07001 4.58753 0
M  V30 6116 H 567.191 1.4305 4.15251 0
M  V30 6117 H 567.797 2.80359 3.19811 0
M  V30 6118 N 566.112 -0.949982 1.2575 0
M  V30 6119 C 567.389 -1.6718 1.01539 0
M  V30 6120 C 567.769 -2.06095 -0.456942 0
M  V30 6121 O 567.117 -1.77792 -1.43534 0
M  V30 6122 C 567.327 -2.8906 1.95564 0
M  V30 6123 C 568.675 -3.60909 2.23673 0
M  V30 6124 O 569.699 -2.9915 1.9336 0
M  V30 6125 O 568.558 -4.72127 2.75243 0
M  V30 6126 H 565.652 -0.731697 0.385419 0
M  V30 6127 H 568.198 -1.00249 1.36924 0
M  V30 6128 H 566.97 -2.57128 2.94959 0
M  V30 6129 H 566.593 -3.63719 1.60605 0
M  V30 6130 N 567.59 -1.07411 -1.15328 0
M  V30 6131 C 568.837 -0.797649 -1.86128 0
M  V30 6132 C 569.165 0.676298 -1.82364 0
M  V30 6133 O 568.42 1.51223 -1.24218 0
M  V30 6134 C 568.719 -1.25191 -3.34757 0
M  V30 6135 C 568.385 -2.73191 -3.58716 0
M  V30 6136 C 567.047 -3.13616 -3.64964 0
M  V30 6137 C 569.399 -3.68718 -3.6837 0
M  V30 6138 C 566.727 -4.48383 -3.78377 0
M  V30 6139 C 569.079 -5.03248 -3.83306 0
M  V30 6140 C 567.743 -5.43293 -3.878 0
M  V30 6141 H 567.013 -0.29188 -0.681092 0
M  V30 6142 H 569.66 -1.34524 -1.36292 0
M  V30 6143 H 567.965 -0.623712 -3.86804 0
M  V30 6144 H 569.662 -1.01489 -3.87945 0
M  V30 6145 H 566.252 -2.40898 -3.54494 0
M  V30 6146 H 570.436 -3.38614 -3.62842 0
M  V30 6147 H 565.692 -4.78877 -3.80114 0
M  V30 6148 H 569.866 -5.77142 -3.89718 0
M  V30 6149 H 567.493 -6.47721 -3.97946 0
M  V30 6150 N 569.068 1.32177 -0.85831 0
M  V30 6151 C 570.296 2.01313 -0.477582 0
M  V30 6152 C 570.711 1.6449 0.926736 0
M  V30 6153 O 570.068 0.868096 1.60531 0
M  V30 6154 C 570.119 3.56293 -0.611337 0
M  V30 6155 O 569.84 3.91794 -1.96034 0
M  V30 6156 C 571.341 4.42702 -0.230093 0
M  V30 6157 H 568.561 0.644323 -0.187322 0
M  V30 6158 H 571.105 1.68674 -1.15626 0
M  V30 6159 H 569.26 3.87395 0.0196494 0
M  V30 6160 H 569.674 4.86513 -1.95973 0
M  V30 6161 H 571.148 5.50727 -0.374674 0
M  V30 6162 H 571.625 4.3129 0.829779 0
M  V30 6163 H 572.231 4.16997 -0.836302 0
M  V30 6164 N 570.547 0.616602 1.45037 0
M  V30 6165 C 571.963 0.280994 1.57107 0
M  V30 6166 C 572.163 -1.21627 1.60653 0
M  V30 6167 O 571.219 -1.9997 1.54169 0
M  V30 6168 C 572.532 0.960116 2.8496 0
M  V30 6169 C 574.08 0.936884 2.98649 0
M  V30 6170 C 574.555 1.59619 4.29285 0
M  V30 6171 N 576.046 1.5621 4.36065 0
M  V30 6172 C 576.781 2.04131 5.35834 0
M  V30 6173 N 576.277 2.60177 6.4209 0
M  V30 6174 N 578.07 1.94845 5.27249 0
M  V30 6175 H 570.221 1.58867 1.40979 0
M  V30 6176 H 572.484 0.666024 0.674623 0
M  V30 6177 H 572.19 2.01473 2.88273 0
M  V30 6178 H 572.064 0.488921 3.74018 0
M  V30 6179 H 574.451 -0.109209 2.94898 0
M  V30 6180 H 574.532 1.44643 2.10979 0
M  V30 6181 H 574.176 2.64166 4.33796 0
M  V30 6182 H 574.106 1.06159 5.15789 0
M  V30 6183 H 576.597 1.15276 3.59889 0
M  V30 6184 H 576.91 2.94513 7.1448 0
M  V30 6185 H 575.255 2.64221 6.42816 0
M  V30 6186 H 578.446 1.50792 4.43147 0
M  V30 6187 H 578.619 2.32504 6.04852 0
M  V30 6188 N 572.025 -1.5352 0.356285 0
M  V30 6189 C 573.273 -2.00719 -0.235837 0
M  V30 6190 C 573.594 -1.24551 -1.5004 0
M  V30 6191 O 572.864 -0.356185 -1.92635 0
M  V30 6192 H 571.444 -0.741542 -0.0901366 0
M  V30 6193 H 574.106 -1.88887 0.480378 0
M  V30 6194 H 573.202 -3.08551 -0.469357 0
M  V30 6195 N 573.503 -0.0852151 -1.57369 0
M  V30 6196 C 574.752 0.580443 -1.93168 0
M  V30 6197 C 575.065 1.6995 -0.968319 0
M  V30 6198 O 576.271 2.42564 -1.21963 0
M  V30 6199 C 574.727 1.08386 -3.43192 0
M  V30 6200 C 574.335 -0.00491388 -4.48 0
M  V30 6201 C 576.079 1.72281 -3.87968 0
M  V30 6202 C 573.986 0.513299 -5.89168 0
M  V30 6203 H 572.916 0.22059 -0.72101 0
M  V30 6204 H 575.567 -0.159621 -1.82804 0
M  V30 6205 H 573.949 1.8773 -3.48674 0
M  V30 6206 H 575.123 -0.780032 -4.5415 0
M  V30 6207 H 573.438 -0.548453 -4.12772 0
M  V30 6208 H 576.035 2.12108 -4.9083 0
M  V30 6209 H 576.378 2.58811 -3.26071 0
M  V30 6210 H 576.911 0.995359 -3.85146 0
M  V30 6211 H 573.65 -0.315153 -6.54742 0
M  V30 6212 H 573.17 1.25564 -5.8651 0
M  V30 6213 H 574.849 0.985433 -6.39451 0
M  V30 6214 N 574.981 1.5647 0.188427 0
M  V30 6215 C 575.911 1.98101 1.23606 0
M  V30 6216 C 576.892 0.853961 1.47111 0
M  V30 6217 O 578.077 1.11879 1.58735 0
M  V30 6218 C 575.207 2.32624 2.57882 0
M  V30 6219 C 574.161 3.48129 2.48978 0
M  V30 6220 C 573.487 3.68347 3.87588 0
M  V30 6221 C 574.787 4.82112 2.00911 0
M  V30 6222 H 576.481 2.85864 0.890068 0
M  V30 6223 H 574.027 1.37532 0.426714 0
M  V30 6224 H 575.98 2.60343 3.3136 0
M  V30 6225 H 574.704 1.41751 2.94235 0
M  V30 6226 H 573.363 3.20511 1.77956 0
M  V30 6227 H 573.011 2.74793 4.21305 0
M  V30 6228 H 572.711 4.46055 3.82503 0
M  V30 6229 H 574.235 3.98449 4.62678 0
M  V30 6230 H 575.649 5.08819 2.64151 0
M  V30 6231 H 574.046 5.63337 2.06814 0
M  V30 6232 H 575.116 4.75249 0.96262 0
M  V30 6233 N 576.459 -0.456382 1.50847 0
M  V30 6234 C 577.687 -1.23026 1.66349 0
M  V30 6235 C 578.102 -1.85473 0.352868 0
M  V30 6236 O 577.459 -1.69885 -0.666739 0
M  V30 6237 C 577.51 -2.32827 2.76539 0
M  V30 6238 O 577.231 -1.72938 4.02522 0
M  V30 6239 C 578.732 -3.23448 3.03144 0
M  V30 6240 H 575.952 -0.371527 0.558756 0
M  V30 6241 H 578.496 -0.543082 1.97157 0
M  V30 6242 H 576.651 -2.97294 2.48384 0
M  V30 6243 H 577.065 -2.45357 4.63573 0
M  V30 6244 H 578.539 -3.96669 3.83872 0
M  V30 6245 H 579.016 -3.83094 2.14793 0
M  V30 6246 H 579.622 -2.64702 3.32886 0
M  V30 6247 N 577.937 -1.40673 -0.710563 0
M  V30 6248 C 579.348 -1.34975 -1.28991 0
M  V30 6249 C 579.699 -0.0256272 -1.96183 0
M  V30 6250 O 578.824 0.876339 -1.97862 0
M  V30 6251 C 579.419 -2.44467 -2.34567 0
M  V30 6252 C 577.978 -2.42213 -2.88114 0
M  V30 6253 C 577.125 -2.25085 -1.61963 0
M  V30 6254 H 580.076 -1.50406 -0.506343 0
M  V30 6255 H 580.097 -2.12663 -3.15523 0
M  V30 6256 H 579.609 -3.40825 -1.85634 0
M  V30 6257 H 577.71 -1.49568 -3.41263 0
M  V30 6258 H 577.823 -3.37983 -3.39565 0
M  V30 6259 H 576.187 -1.72691 -1.87216 0
M  V30 6260 H 576.97 -3.23449 -1.15047 0
M  V30 6261 N 579.415 0.9433 -1.26252 0
M  V30 6262 C 580.831 1.21644 -1.03319 0
M  V30 6263 C 581.031 2.0003 0.242983 0
M  V30 6264 O 580.087 2.33838 0.952688 0
M  V30 6265 C 581.4 1.97978 -2.2633 0
M  V30 6266 C 582.948 2.10978 -2.31209 0
M  V30 6267 C 583.423 2.90713 -3.53907 0
M  V30 6268 N 584.914 2.98287 -3.54371 0
M  V30 6269 C 585.649 3.60406 -4.45976 0
M  V30 6270 N 585.145 4.24043 -5.47868 0
M  V30 6271 N 586.938 3.57658 -4.33633 0
M  V30 6272 H 579.089 0.419221 -2.08222 0
M  V30 6273 H 581.352 0.247995 -0.914988 0
M  V30 6274 H 581.058 1.47788 -3.19142 0
M  V30 6275 H 580.932 2.9865 -2.30408 0
M  V30 6276 H 583.319 2.6036 -1.38913 0
M  V30 6277 H 583.4 1.09575 -2.31143 0
M  V30 6278 H 583.044 2.42018 -4.46531 0
M  V30 6279 H 582.974 3.92367 -3.5122 0
M  V30 6280 H 585.465 2.53044 -2.80673 0
M  V30 6281 H 585.778 4.69334 -6.13959 0
M  V30 6282 H 584.123 4.22637 -5.51728 0
M  V30 6283 H 587.314 3.07134 -3.53251 0
M  V30 6284 H 587.487 4.05782 -5.05218 0
M  V30 6285 N 580.893 1.08022 1.14757 0
M  V30 6286 C 582.142 0.802468 1.8505 0
M  V30 6287 C 582.455 -0.674061 1.83619 0
M  V30 6288 O 583.661 -1.06683 2.49662 0
M  V30 6289 C 582.117 1.38551 3.32162 0
M  V30 6290 C 581.725 2.89354 3.42021 0
M  V30 6291 C 583.469 1.18608 4.07594 0
M  V30 6292 C 581.376 3.40815 4.83321 0
M  V30 6293 H 580.306 0.296518 0.693248 0
M  V30 6294 H 582.957 1.30114 1.29393 0
M  V30 6295 H 581.339 0.814556 3.87532 0
M  V30 6296 H 582.513 3.52552 2.96722 0
M  V30 6297 H 580.828 3.08165 2.80041 0
M  V30 6298 H 583.425 1.54525 5.11885 0
M  V30 6299 H 583.768 0.125599 4.1611 0
M  V30 6300 H 584.301 1.72375 3.58513 0
M  V30 6301 H 581.04 4.46418 4.79991 0
M  V30 6302 H 580.56 2.82374 5.29174 0
M  V30 6303 H 582.239 3.37171 5.522 0
M  V30 6304 N 582.371 -1.3172 0.865308 0
M  V30 6305 C 583.318 -2.2863 0.315736 0
M  V30 6306 C 584.288 -1.55524 -0.583213 0
M  V30 6307 O 585.473 -1.83694 -0.51585 0
M  V30 6308 C 582.613 -3.41735 -0.480773 0
M  V30 6309 C 581.726 -4.297 0.445167 0
M  V30 6310 C 580.861 -5.29944 -0.365012 0
M  V30 6311 C 579.9 -6.09554 0.557651 0
M  V30 6312 N 579.037 -7.01768 -0.215994 0
M  V30 6313 H 583.877 -2.75026 1.14736 0
M  V30 6314 H 581.414 -1.35302 0.577209 0
M  V30 6315 H 583.372 -4.06045 -0.958306 0
M  V30 6316 H 582.002 -2.96461 -1.27714 0
M  V30 6317 H 581.054 -3.65875 1.04113 0
M  V30 6318 H 582.366 -4.85295 1.15284 0
M  V30 6319 H 581.52 -5.99908 -0.905255 0
M  V30 6320 H 580.259 -4.74994 -1.106 0
M  V30 6321 H 579.264 -5.38485 1.10969 0
M  V30 6322 H 580.489 -6.66591 1.29742 0
M  V30 6323 H 578.435 -6.49232 -0.939878 0
M  V30 6324 H 578.352 -7.54762 0.432431 0
M  V30 6325 H 579.62 -7.76002 -0.737618 0
M  V30 6326 N 583.85 -0.624285 -1.44708 0
M  V30 6327 C 585.096 -0.126237 -2.02407 0
M  V30 6328 C 585.428 1.24618 -1.48943 0
M  V30 6329 O 584.704 1.82569 -0.670742 0
M  V30 6330 C 584.986 -0.105449 -3.59946 0
M  V30 6331 C 584.84 -1.50972 -4.23707 0
M  V30 6332 C 586.159 0.573629 -4.36346 0
M  V30 6333 H 583.278 -0.0473472 -0.735478 0
M  V30 6334 H 585.92 -0.799452 -1.72362 0
M  V30 6335 H 584.07 0.46783 -3.85673 0
M  V30 6336 H 585.742 -2.13136 -4.0911 0
M  V30 6337 H 583.985 -2.0656 -3.81465 0
M  V30 6338 H 584.656 -1.44727 -5.32689 0
M  V30 6339 H 587.132 0.0861787 -4.16011 0
M  V30 6340 H 586.008 0.557338 -5.46063 0
M  V30 6341 H 586.269 1.64276 -4.10446 0
M  V30 6342 N 585.328 1.53329 -0.364422 0
M  V30 6343 C 586.576 2.00842 0.225189 0
M  V30 6344 C 586.897 1.25345 1.49378 0
M  V30 6345 O 586.167 0.366396 1.92443 0
M  V30 6346 H 584.747 0.742009 0.0862027 0
M  V30 6347 H 587.409 1.8863 -0.490389 0
M  V30 6348 H 586.505 3.08795 0.452987 0
M  V30 6349 N 586.806 0.0935595 1.57322 0
M  V30 6350 C 588.222 -0.263091 1.57417 0
M  V30 6351 C 588.422 -1.68526 1.1046 0
M  V30 6352 O 587.478 -2.40139 0.780357 0
M  V30 6353 C 588.791 -0.0529201 3.00653 0
M  V30 6354 C 590.339 -0.120788 3.12767 0
M  V30 6355 C 590.814 0.0613707 4.57959 0
M  V30 6356 N 592.305 0.00648534 4.632 0
M  V30 6357 C 593.04 0.122699 5.73269 0
M  V30 6358 N 592.536 0.29366 6.92177 0
M  V30 6359 N 594.329 0.0640787 5.62063 0
M  V30 6360 H 586.48 1.02277 1.86154 0
M  V30 6361 H 588.743 0.4007 0.859153 0
M  V30 6362 H 588.449 0.929279 3.39201 0
M  V30 6363 H 588.323 -0.795899 3.68708 0
M  V30 6364 H 590.71 -1.09349 2.74093 0
M  V30 6365 H 590.791 0.653656 2.47307 0
M  V30 6366 H 590.435 1.03093 4.97327 0
M  V30 6367 H 590.365 -0.732748 5.21477 0
M  V30 6368 H 592.856 -0.123173 3.77699 0
M  V30 6369 H 593.169 0.37389 7.71895 0
M  V30 6370 H 591.514 0.329307 6.94219 0
M  V30 6371 H 594.705 -0.0683396 4.6805 0
M  V30 6372 H 594.878 0.158097 6.47807 0
M  V30 6373 N 588.284 -1.56567 -0.180126 0
M  V30 6374 C 589.561 -1.7235 -0.924931 0
M  V30 6375 C 589.941 -0.652523 -2.00762 0
M  V30 6376 O 589.289 0.334115 -2.26044 0
M  V30 6377 C 589.499 -3.1523 -1.49771 0
M  V30 6378 C 590.847 -3.75921 -1.97405 0
M  V30 6379 O 591.871 -3.18452 -1.59583 0
M  V30 6380 O 590.73 -4.7681 -2.67048 0
M  V30 6381 H 587.824 -0.703502 -0.434758 0
M  V30 6382 H 590.37 -1.6886 -0.168647 0
M  V30 6383 H 589.142 -3.84656 -0.718027 0
M  V30 6384 H 588.765 -3.23009 -2.31842 0
M  V30 6385 N 589.762 0.448376 -1.51087 0
M  V30 6386 C 590.992 1.21965 -1.66757 0
M  V30 6387 C 591.4 1.85748 -0.359753 0
M  V30 6388 O 590.743 1.71022 0.670604 0
M  V30 6389 C 590.805 2.35284 -2.71812 0
M  V30 6390 C 590.469 1.91957 -4.1473 0
M  V30 6391 C 591.466 1.42921 -4.9987 0
M  V30 6392 C 589.151 1.99985 -4.60772 0
M  V30 6393 C 591.145 1.02485 -6.29107 0
M  V30 6394 C 588.832 1.5916 -5.90009 0
M  V30 6395 C 589.83 1.10491 -6.74004 0
M  V30 6396 O 589.518 0.702413 -8.00825 0
M  V30 6397 H 589.25 0.374125 -0.563034 0
M  V30 6398 H 591.804 0.538927 -1.98204 0
M  V30 6399 H 590.034 3.06599 -2.35657 0
M  V30 6400 H 591.723 2.97184 -2.76472 0
M  V30 6401 H 592.489 1.36123 -4.65506 0
M  V30 6402 H 588.368 2.36814 -3.95525 0
M  V30 6403 H 591.912 0.644271 -6.94619 0
M  V30 6404 H 587.809 1.65626 -6.2389 0
M  V30 6405 H 588.577 0.829248 -8.14288 0
M  V30 6406 N 591.24 1.41047 0.703093 0
M  V30 6407 C 592.486 1.40207 1.46526 0
M  V30 6408 C 592.819 0.00847763 1.94198 0
M  V30 6409 O 592.094 -0.962437 1.69019 0
M  V30 6410 C 592.377 2.40238 2.6825 0
M  V30 6411 C 592.23 3.88674 2.26391 0
M  V30 6412 C 593.549 2.37627 3.70434 0
M  V30 6413 H 590.668 0.510594 0.531472 0
M  V30 6414 H 593.31 1.72271 0.801422 0
M  V30 6415 H 591.46 2.13026 3.24888 0
M  V30 6416 H 593.132 4.2676 1.75138 0
M  V30 6417 H 591.375 4.03903 1.58255 0
M  V30 6418 H 592.046 4.542 3.13698 0
M  V30 6419 H 594.522 2.61759 3.23452 0
M  V30 6420 H 593.398 3.09645 4.53223 0
M  V30 6421 H 593.659 1.39223 4.19606 0
M  V30 6422 N 592.718 -0.936591 1.26751 0
M  V30 6423 C 593.65 -2.03991 1.045 0
M  V30 6424 C 594.663 -1.628 0.00394261 0
M  V30 6425 O 595.852 -1.76817 0.244526 0
M  V30 6426 C 592.952 -3.34218 0.561403 0
M  V30 6427 C 592.125 -4.04151 1.67274 0
M  V30 6428 C 591.184 -5.12651 1.1864 0
M  V30 6429 O 590.21 -5.37104 1.88437 0
M  V30 6430 N 591.412 -5.80488 0.037278 0
M  V30 6431 H 594.177 -2.23644 1.99508 0
M  V30 6432 H 591.738 -1.10638 1.18198 0
M  V30 6433 H 593.73 -4.04101 0.220136 0
M  V30 6434 H 592.3 -3.11203 -0.295211 0
M  V30 6435 H 591.52 -3.28121 2.18472 0
M  V30 6436 H 592.808 -4.47626 2.41885 0
M  V30 6437 H 592.206 -5.63064 -0.545494 0
M  V30 6438 H 590.763 -6.5134 -0.244877 0
M  V30 6439 N 594.196 -1.08629 -1.14182 0
M  V30 6440 C 595.143 -0.718299 -2.19338 0
M  V30 6441 C 596.113 0.296587 -1.63431 0
M  V30 6442 O 597.298 0.180079 -1.89948 0
M  V30 6443 C 594.438 -0.136203 -3.44831 0
M  V30 6444 C 593.551 -1.20414 -4.14879 0
M  V30 6445 C 592.686 -0.585666 -5.27962 0
M  V30 6446 C 591.725 -1.63548 -5.89846 0
M  V30 6447 N 590.862 -1.03864 -6.94375 0
M  V30 6448 H 595.702 -1.61932 -2.50164 0
M  V30 6449 H 593.239 -0.80919 -1.22844 0
M  V30 6450 H 595.197 0.219021 -4.16625 0
M  V30 6451 H 593.827 0.728121 -3.14481 0
M  V30 6452 H 592.879 -1.67676 -3.41451 0
M  V30 6453 H 594.191 -1.99959 -4.56966 0
M  V30 6454 H 593.345 -0.178818 -6.06436 0
M  V30 6455 H 592.084 0.24142 -4.87102 0
M  V30 6456 H 591.089 -2.05197 -5.10073 0
M  V30 6457 H 592.314 -2.46509 -6.3278 0
M  V30 6458 H 590.26 -0.232687 -6.55587 0
M  V30 6459 H 590.177 -1.77116 -7.3496 0
M  V30 6460 H 591.445 -0.657724 -7.7672 0
M  V30 6461 N 595.674 1.31259 -0.872281 0
M  V30 6462 C 596.637 2.26744 -0.334656 0
M  V30 6463 C 597.637 1.52307 0.515681 0
M  V30 6464 O 598.827 1.71148 0.324656 0
M  V30 6465 C 595.959 3.36841 0.524482 0
M  V30 6466 H 597.152 2.75812 -1.17762 0
M  V30 6467 H 594.705 1.42232 -0.648064 0
M  V30 6468 H 595.44 2.93069 1.38855 0
M  V30 6469 H 595.225 3.92009 -0.0844299 0
M  V30 6470 H 596.715 4.07944 0.892838 0
M  V30 6471 N 597.152 0.631951 1.44375 0
M  V30 6472 C 598.084 -0.110911 2.28931 0
M  V30 6473 C 599.097 -0.808086 1.41329 0
M  V30 6474 O 600.286 -0.669396 1.65473 0
M  V30 6475 C 597.386 -1.17928 3.1772 0
M  V30 6476 C 596.559 -0.564458 4.33743 0
M  V30 6477 C 595.618 -1.5269 5.0356 0
M  V30 6478 O 594.644 -1.04372 5.59549 0
M  V30 6479 N 595.846 -2.86123 5.05088 0
M  V30 6480 H 598.611 0.614758 2.93327 0
M  V30 6481 H 596.172 0.473171 1.54831 0
M  V30 6482 H 598.164 -1.82348 3.61291 0
M  V30 6483 H 596.734 -1.80717 2.55069 0
M  V30 6484 H 595.954 0.258373 3.93352 0
M  V30 6485 H 597.242 -0.134355 5.08623 0
M  V30 6486 H 596.64 -3.27959 4.60933 0
M  V30 6487 H 595.197 -3.45901 5.52445 0
M  V30 6488 N 598.631 -1.53133 0.372548 0
M  V30 6489 C 599.859 -2.05774 -0.215515 0
M  V30 6490 C 600.274 -1.24555 -1.41886 0
M  V30 6491 O 599.631 -0.287951 -1.80214 0
M  V30 6492 C 599.682 -3.5645 -0.602161 0
M  V30 6493 O 599.403 -4.34591 0.553359 0
M  V30 6494 C 600.904 -4.25374 -1.24787 0
M  V30 6495 H 598.124 -0.670009 -0.0364529 0
M  V30 6496 H 600.668 -1.97434 0.532934 0
M  V30 6497 H 598.823 -3.64918 -1.30052 0
M  V30 6498 H 599.237 -5.23954 0.239336 0
M  V30 6499 H 600.711 -5.32097 -1.46891 0
M  V30 6500 H 601.188 -3.79531 -2.21026 0
M  V30 6501 H 601.794 -4.21177 -0.590752 0
M  V30 6502 N 600.109 -0.101901 -1.5727 0
M  V30 6503 C 601.056 0.854577 -2.14396 0
M  V30 6504 C 602.026 1.27521 -1.06432 0
M  V30 6505 O 603.211 1.35575 -1.34253 0
M  V30 6506 C 600.351 2.10576 -2.73408 0
M  V30 6507 C 599.464 1.73504 -3.95626 0
M  V30 6508 C 598.599 2.9346 -4.42781 0
M  V30 6509 C 597.638 2.52547 -5.57572 0
M  V30 6510 N 596.775 3.65359 -5.99547 0
M  V30 6511 H 601.615 0.360578 -2.9581 0
M  V30 6512 H 599.152 0.166303 -1.46157 0
M  V30 6513 H 601.11 2.83859 -3.05745 0
M  V30 6514 H 599.74 2.57463 -1.94711 0
M  V30 6515 H 598.792 0.901622 -3.6956 0
M  V30 6516 H 600.104 1.39426 -4.78917 0
M  V30 6517 H 599.258 3.74988 -4.76937 0
M  V30 6518 H 597.997 3.30753 -3.58404 0
M  V30 6519 H 597.002 1.69446 -5.23037 0
M  V30 6520 H 598.227 2.1639 -6.43702 0
M  V30 6521 H 596.173 4.02358 -5.18116 0
M  V30 6522 H 596.09 3.35148 -6.77652 0
M  V30 6523 H 597.358 4.47378 -6.38336 0
M  V30 6524 N 601.587 1.56661 0.17182 0
M  V30 6525 C 602.497 1.99604 1.2327 0
M  V30 6526 C 603.513 0.907333 1.4847 0
M  V30 6527 O 604.689 1.21492 1.60629 0
M  V30 6528 C 601.754 2.34685 2.55194 0
M  V30 6529 C 600.815 3.57381 2.3786 0
M  V30 6530 C 600.048 3.90779 3.63494 0
M  V30 6531 O 600.271 3.25152 4.6865 0
M  V30 6532 O 599.205 4.84129 3.57634 0
M  V30 6533 H 603.031 2.90114 0.898192 0
M  V30 6534 H 600.616 1.44522 0.378647 0
M  V30 6535 H 602.498 2.5822 3.33017 0
M  V30 6536 H 601.173 1.47336 2.88225 0
M  V30 6537 H 600.08 3.39064 1.5807 0
M  V30 6538 H 601.413 4.45268 2.09754 0
M  V30 6539 N 603.065 -0.440357 1.51323 0
M  V30 6540 C 603.997 -1.55254 1.68609 0
M  V30 6541 C 605.01 -1.52614 0.566812 0
M  V30 6542 O 606.199 -1.57445 0.841032 0
M  V30 6543 C 603.299 -2.94169 1.68279 0
M  V30 6544 C 602.472 -3.21346 2.96742 0
M  V30 6545 C 601.531 -4.3997 2.8864 0
M  V30 6546 O 600.557 -4.38771 3.62586 0
M  V30 6547 N 601.759 -5.43367 2.04285 0
M  V30 6548 H 604.524 -1.40831 2.6455 0
M  V30 6549 H 602.085 -0.629251 1.49171 0
M  V30 6550 H 604.077 -3.71543 1.60431 0
M  V30 6551 H 602.647 -3.02205 0.799441 0
M  V30 6552 H 601.867 -2.32299 3.18482 0
M  V30 6553 H 603.155 -3.3633 3.81785 0
M  V30 6554 H 602.553 -5.47176 1.43578 0
M  V30 6555 H 601.11 -6.19605 2.02318 0
M  V30 6556 N 604.543 -1.41418 -0.695603 0
M  V30 6557 C 605.506 -1.42988 -1.79129 0
M  V30 6558 C 606.506 -0.320514 -1.57573 0
M  V30 6559 O 607.696 -0.58039 -1.64247 0
M  V30 6560 C 604.828 -1.24122 -3.175 0
M  V30 6561 H 606.021 -2.40526 -1.7913 0
M  V30 6562 H 603.574 -1.2756 -0.903225 0
M  V30 6563 H 604.309 -0.274253 -3.23138 0
M  V30 6564 H 604.094 -2.045 -3.34547 0
M  V30 6565 H 605.584 -1.28056 -3.97481 0
M  V30 6566 N 606.021 0.929856 -1.27246 0
M  V30 6567 C 607.298 1.65544 -1.04186 0
M  V30 6568 C 607.678 2.06796 0.424097 0
M  V30 6569 O 607.026 1.80053 1.40688 0
M  V30 6570 C 607.236 2.85912 -2.00138 0
M  V30 6571 C 608.584 3.57305 -2.29387 0
M  V30 6572 O 609.608 2.96036 -1.98094 0
M  V30 6573 O 608.467 4.67688 -2.82719 0
M  V30 6574 H 605.561 0.725473 -0.397011 0
M  V30 6575 H 608.107 0.980583 -1.38501 0
M  V30 6576 H 606.879 2.52403 -2.99013 0
M  V30 6577 H 606.502 3.61118 -1.66371 0
M  V30 6578 N 607.499 1.09233 1.13605 0
M  V30 6579 C 608.746 0.827159 1.84836 0
M  V30 6580 C 609.074 -0.647199 1.83416 0
M  V30 6581 O 608.329 -1.49228 1.26608 0
M  V30 6582 C 608.628 1.305 3.32723 0
M  V30 6583 C 608.294 2.78864 3.54325 0
M  V30 6584 C 606.956 3.19382 3.59928 0
M  V30 6585 C 609.308 3.74532 3.62457 0
M  V30 6586 C 606.636 4.54346 3.71196 0
M  V30 6587 C 608.988 5.09283 3.75252 0
M  V30 6588 C 607.652 5.49394 3.79108 0
M  V30 6589 H 606.922 0.302679 0.676363 0
M  V30 6590 H 609.569 1.36676 1.34134 0
M  V30 6591 H 607.874 0.68517 3.85762 0
M  V30 6592 H 609.571 1.07648 3.86281 0
M  V30 6593 H 606.161 2.46507 3.50617 0
M  V30 6594 H 610.345 3.44343 3.57409 0
M  V30 6595 H 605.601 4.84864 3.72447 0
M  V30 6596 H 609.775 5.83269 3.80487 0
M  V30 6597 H 607.402 6.5397 3.87591 0
M  V30 6598 N 608.977 -1.30795 0.87923 0
M  V30 6599 C 609.94 -2.26563 0.346676 0
M  V30 6600 C 610.94 -1.52578 -0.507597 0
M  V30 6601 O 612.13 -1.71318 -0.315575 0
M  V30 6602 C 609.262 -3.37115 -0.506611 0
M  V30 6603 H 610.455 -2.75183 1.19223 0
M  V30 6604 H 608.008 -1.41886 0.655598 0
M  V30 6605 H 608.743 -2.93802 -1.37299 0
M  V30 6606 H 608.528 -3.91959 0.105218 0
M  V30 6607 H 610.018 -4.08412 -0.871192 0
M  V30 6608 N 610.455 -0.639598 -1.44038 0
M  V30 6609 C 611.704 -0.144885 -2.01179 0
M  V30 6610 C 612.017 1.24372 -1.50967 0
M  V30 6611 O 613.223 1.83291 -2.00292 0
M  V30 6612 C 611.679 -0.208244 -3.59297 0
M  V30 6613 C 611.287 -1.59869 -4.18504 0
M  V30 6614 C 613.031 0.229568 -4.23879 0
M  V30 6615 C 610.938 -1.61671 -5.68873 0
M  V30 6616 H 609.868 -0.0504005 -0.752314 0
M  V30 6617 H 612.519 -0.799639 -1.65161 0
M  V30 6618 H 610.901 0.513767 -3.92653 0
M  V30 6619 H 612.075 -2.34496 -3.96671 0
M  V30 6620 H 610.39 -1.98131 -3.66242 0
M  V30 6621 H 612.987 0.235758 -5.3418 0
M  V30 6622 H 613.33 1.25848 -3.96822 0
M  V30 6623 H 613.863 -0.440233 -3.95357 0
M  V30 6624 H 610.602 -2.62427 -6.00677 0
M  V30 6625 H 610.122 -0.913489 -5.92803 0
M  V30 6626 H 611.801 -1.35439 -6.32665 0
M  V30 6627 N 611.933 1.52934 -0.380664 0
M  V30 6628 C 612.843 2.29921 0.466192 0
M  V30 6629 C 613.859 1.36488 1.07922 0
M  V30 6630 O 615.035 1.69553 1.0869 0
M  V30 6631 C 612.1 3.08468 1.58266 0
M  V30 6632 C 611.161 4.17595 0.995627 0
M  V30 6633 C 610.394 4.92387 2.05889 0
M  V30 6634 O 610.617 4.67184 3.27254 0
M  V30 6635 O 609.551 5.77949 1.68102 0
M  V30 6636 H 613.377 3.03274 -0.160735 0
M  V30 6637 H 610.962 1.48698 -0.144617 0
M  V30 6638 H 612.844 3.57469 2.23145 0
M  V30 6639 H 611.519 2.37937 2.19471 0
M  V30 6640 H 610.426 3.72811 0.310332 0
M  V30 6641 H 611.759 4.90336 0.427918 0
M  V30 6642 N 613.412 0.11024 1.57214 0
M  V30 6643 C 614.375 -0.828808 2.1369 0
M  V30 6644 C 615.375 -1.20059 1.06969 0
M  V30 6645 O 616.565 -1.12754 1.32786 0
M  V30 6646 C 613.697 -2.11959 2.66994 0
M  V30 6647 H 614.89 -0.338146 2.97988 0
M  V30 6648 H 612.443 -0.138913 1.55681 0
M  V30 6649 H 613.178 -2.65476 1.8626 0
M  V30 6650 H 612.963 -1.86258 3.45037 0
M  V30 6651 H 614.453 -2.79105 3.10629 0
M  V30 6652 N 614.89 -1.56749 -0.16351 0
M  V30 6653 C 615.82 -2.00042 -1.20438 0
M  V30 6654 C 616.801 -0.877256 -1.45733 0
M  V30 6655 O 617.986 -1.1439 -1.56935 0
M  V30 6656 C 615.116 -2.36697 -2.54149 0
M  V30 6657 C 614.07 -3.52046 -2.43408 0
M  V30 6658 C 613.396 -3.74466 -3.81679 0
M  V30 6659 C 614.696 -4.85247 -1.93216 0
M  V30 6660 H 616.39 -2.87244 -0.844477 0
M  V30 6661 H 613.936 -1.38194 -0.40478 0
M  V30 6662 H 615.889 -2.65582 -3.27176 0
M  V30 6663 H 614.613 -1.46414 -2.91943 0
M  V30 6664 H 613.272 -3.23301 -1.72834 0
M  V30 6665 H 612.92 -2.81461 -4.1688 0
M  V30 6666 H 612.62 -4.52084 -3.75359 0
M  V30 6667 H 614.144 -4.0576 -4.5628 0
M  V30 6668 H 615.558 -5.12957 -2.56023 0
M  V30 6669 H 613.955 -5.66556 -1.97825 0
M  V30 6670 H 615.025 -4.7672 -0.88689 0
M  V30 6671 N 616.368 0.432326 -1.51554 0
M  V30 6672 C 617.331 1.50765 -1.72634 0
M  V30 6673 C 618.331 1.49334 -0.596314 0
M  V30 6674 O 619.521 1.51268 -0.863925 0
M  V30 6675 C 616.653 2.90284 -1.7874 0
M  V30 6676 H 617.846 1.33377 -2.68609 0
M  V30 6677 H 615.399 0.661329 -1.4162 0
M  V30 6678 H 616.134 3.13071 -0.845977 0
M  V30 6679 H 615.919 2.92727 -2.6087 0
M  V30 6680 H 617.409 3.68282 -1.96871 0
M  V30 6681 N 617.846 1.41785 0.688094 0
M  V30 6682 C 618.793 1.44221 1.80191 0
M  V30 6683 C 619.763 0.295688 1.63447 0
M  V30 6684 O 620.948 0.49783 1.84191 0
M  V30 6685 C 618.088 1.33743 3.1813 0
M  V30 6686 C 617.201 2.58325 3.46254 0
M  V30 6687 C 616.336 2.40086 4.73848 0
M  V30 6688 C 615.375 3.60107 4.94964 0
M  V30 6689 N 614.512 3.40892 6.13789 0
M  V30 6690 H 619.352 2.39411 1.77444 0
M  V30 6691 H 616.889 1.18876 0.866423 0
M  V30 6692 H 618.847 1.25669 3.97823 0
M  V30 6693 H 617.477 0.42157 3.20035 0
M  V30 6694 H 616.529 2.7682 2.60912 0
M  V30 6695 H 617.841 3.4758 3.57756 0
M  V30 6696 H 616.995 2.29522 5.61609 0
M  V30 6697 H 615.734 1.483 4.64606 0
M  V30 6698 H 614.739 3.71118 4.05649 0
M  V30 6699 H 615.964 4.52857 5.06061 0
M  V30 6700 H 613.91 2.51812 6.05745 0
M  V30 6701 H 613.827 4.23727 6.26092 0
M  V30 6702 H 615.095 3.34114 7.04264 0
M  V30 6703 N 619.324 -0.923095 1.27737 0
M  V30 6704 C 620.287 -2.00587 1.10894 0
M  V30 6705 C 621.287 -1.60718 0.0514927 0
M  V30 6706 O 622.477 -1.71658 0.296481 0
M  V30 6707 C 619.609 -3.33829 0.690717 0
M  V30 6708 H 620.802 -2.16959 2.07048 0
M  V30 6709 H 618.355 -1.10451 1.1059 0
M  V30 6710 H 619.09 -3.23157 -0.272 0
M  V30 6711 H 618.875 -3.64125 1.45448 0
M  V30 6712 H 620.365 -4.13336 0.595252 0
M  V30 6713 N 620.802 -1.09834 -1.13024 0
M  V30 6714 C 622.03 -0.858902 -1.8823 0
M  V30 6715 C 622.445 0.590164 -1.79339 0
M  V30 6716 O 621.802 1.4065 -1.16292 0
M  V30 6717 C 621.853 -1.29066 -3.37675 0
M  V30 6718 O 621.574 -2.6829 -3.46341 0
M  V30 6719 C 623.075 -1.08421 -4.29837 0
M  V30 6720 H 620.295 -0.308713 -0.595766 0
M  V30 6721 H 622.839 -1.4614 -1.4305 0
M  V30 6722 H 620.994 -0.731961 -3.80422 0
M  V30 6723 H 621.408 -2.86598 -4.39274 0
M  V30 6724 H 622.882 -1.43553 -5.33007 0
M  V30 6725 H 623.359 -0.0223315 -4.39194 0
M  V30 6726 H 623.965 -1.62907 -3.92863 0
M  V30 6727 N 622.28 1.30327 -0.886154 0
M  V30 6728 C 623.51 1.99964 -0.519421 0
M  V30 6729 C 623.918 1.66593 0.89686 0
M  V30 6730 O 623.261 0.899886 1.60149 0
M  V30 6731 C 623.323 3.54187 -0.615795 0
M  V30 6732 C 622.987 4.11078 -1.9966 0
M  V30 6733 C 623.984 4.26985 -2.96614 0
M  V30 6734 C 621.669 4.46429 -2.30231 0
M  V30 6735 C 623.663 4.77456 -4.22273 0
M  V30 6736 C 621.35 4.966 -3.56135 0
M  V30 6737 C 622.348 5.12066 -4.5197 0
M  V30 6738 O 622.036 5.61154 -5.7564 0
M  V30 6739 H 621.768 0.645979 -0.199217 0
M  V30 6740 H 624.322 1.67154 -1.19368 0
M  V30 6741 H 622.552 3.86528 0.115448 0
M  V30 6742 H 624.241 4.05065 -0.26017 0
M  V30 6743 H 625.007 3.99975 -2.74308 0
M  V30 6744 H 620.886 4.33658 -1.56404 0
M  V30 6745 H 624.43 4.89444 -4.97082 0
M  V30 6746 H 620.327 5.23045 -3.78277 0
M  V30 6747 H 621.095 5.79494 -5.78039 0
M  V30 6748 N 623.758 0.647228 1.43697 0
M  V30 6749 C 624.668 -0.0487997 2.34549 0
M  V30 6750 C 625.684 -0.818586 1.53542 0
M  V30 6751 O 626.86 -0.767195 1.86215 0
M  V30 6752 C 623.925 -1.00734 3.31743 0
M  V30 6753 C 622.986 -0.23515 4.28655 0
M  V30 6754 C 622.219 -1.14803 5.21206 0
M  V30 6755 O 622.442 -2.38717 5.18045 0
M  V30 6756 O 621.376 -0.623667 5.9866 0
M  V30 6757 H 625.202 0.698863 2.9555 0
M  V30 6758 H 622.787 0.407412 1.43738 0
M  V30 6759 H 624.669 -1.55837 3.91526 0
M  V30 6760 H 623.344 -1.73534 2.73254 0
M  V30 6761 H 622.251 0.359319 3.7237 0
M  V30 6762 H 623.584 0.453152 4.9011 0
M  V30 6763 N 625.236 -1.5273 0.388769 0
M  V30 6764 C 626.652 -1.59553 0.0387049 0
M  V30 6765 C 626.852 -1.40278 -1.44652 0
M  V30 6766 O 625.908 -1.21951 -2.21098 0
M  V30 6767 C 627.221 -2.9625 0.515409 0
M  V30 6768 C 628.769 -3.09426 0.471621 0
M  V30 6769 C 629.244 -4.48572 0.924505 0
M  V30 6770 N 630.735 -4.54754 0.880496 0
M  V30 6771 C 631.47 -5.60653 1.20234 0
M  V30 6772 N 630.966 -6.74198 1.59463 0
M  V30 6773 N 632.759 -5.50755 1.12363 0
M  V30 6774 H 624.91 -1.63508 1.35569 0
M  V30 6775 H 627.173 -0.768097 0.555636 0
M  V30 6776 H 626.879 -3.15569 1.5527 0
M  V30 6777 H 626.753 -3.77102 -0.085792 0
M  V30 6778 H 629.14 -2.89804 -0.556588 0
M  V30 6779 H 629.221 -2.30528 1.10862 0
M  V30 6780 H 628.865 -4.68936 1.95094 0
M  V30 6781 H 628.795 -5.25935 0.264524 0
M  V30 6782 H 631.286 -3.73237 0.591815 0
M  V30 6783 H 631.599 -7.5097 1.82385 0
M  V30 6784 H 629.944 -6.75531 1.63349 0
M  V30 6785 H 633.135 -4.6093 0.816169 0
M  V30 6786 H 633.308 -6.33184 1.37777 0
M  V30 6787 N 626.714 -0.118576 -1.57153 0
M  V30 6788 C 627.647 0.869046 -2.11004 0
M  V30 6789 C 628.625 1.26115 -1.02634 0
M  V30 6790 O 629.809 1.36228 -1.30285 0
M  V30 6791 C 626.936 2.16297 -2.6064 0
M  V30 6792 C 625.982 1.91896 -3.80891 0
M  V30 6793 S 626.815 1.13562 -5.2332 0
M  V30 6794 C 627.971 2.44135 -5.76324 0
M  V30 6795 H 628.204 0.411005 -2.94445 0
M  V30 6796 H 625.737 0.0951891 -1.54106 0
M  V30 6797 H 627.695 2.90642 -2.89892 0
M  V30 6798 H 626.356 2.59219 -1.77382 0
M  V30 6799 H 625.549 2.8777 -4.13768 0
M  V30 6800 H 625.151 1.25672 -3.52253 0
M  V30 6801 H 627.443 3.39976 -5.86022 0
M  V30 6802 H 628.386 2.15803 -6.74414 0
M  V30 6803 H 628.794 2.53483 -5.04387 0
M  V30 6804 N 628.193 1.56834 0.155195 0
M  V30 6805 C 629.44 1.82898 0.869179 0
M  V30 6806 C 629.768 0.698194 1.81537 0
M  V30 6807 O 629.023 -0.313404 1.93174 0
M  V30 6808 C 629.322 3.15239 1.68402 0
M  V30 6809 C 628.988 4.42123 0.885341 0
M  V30 6810 C 627.65 4.76583 0.664971 0
M  V30 6811 C 630.002 5.20178 0.326234 0
M  V30 6812 C 627.33 5.86566 -0.125346 0
M  V30 6813 C 629.682 6.3099 -0.45108 0
M  V30 6814 C 628.346 6.64006 -0.682102 0
M  V30 6815 H 627.616 0.66927 0.318055 0
M  V30 6816 H 630.263 1.91036 0.133241 0
M  V30 6817 H 628.568 3.02515 2.48982 0
M  V30 6818 H 630.265 3.32618 2.23978 0
M  V30 6819 H 626.855 4.15102 1.06716 0
M  V30 6820 H 631.039 4.93936 0.483787 0
M  V30 6821 H 626.295 6.10594 -0.313915 0
M  V30 6822 H 630.469 6.9067 -0.89149 0
M  V30 6823 H 628.096 7.49065 -1.29636 0
M  V30 6824 N 629.671 -0.424282 1.51781 0
M  V30 6825 C 631.087 -0.761768 1.40247 0
M  V30 6826 C 631.287 -1.95324 0.495041 0
M  V30 6827 O 630.343 -2.5246 -0.0448949 0
M  V30 6828 C 631.656 -1.0299 2.82513 0
M  V30 6829 C 633.204 -1.13354 2.91753 0
M  V30 6830 C 633.679 -1.43453 4.34954 0
M  V30 6831 N 635.17 -1.5035 4.3812 0
M  V30 6832 C 635.905 -1.75236 5.45967 0
M  V30 6833 N 635.401 -1.97827 6.63955 0
M  V30 6834 N 637.194 -1.77126 5.33463 0
M  V30 6835 H 629.345 0.360228 2.09323 0
M  V30 6836 H 631.608 0.0988128 0.942836 0
M  V30 6837 H 631.314 -0.226961 3.50967 0
M  V30 6838 H 631.188 -1.95411 3.22637 0
M  V30 6839 H 633.575 -1.92709 2.23489 0
M  V30 6840 H 633.656 -0.188041 2.55108 0
M  V30 6841 H 633.3 -0.646209 5.03772 0
M  V30 6842 H 633.23 -2.3923 4.69123 0
M  V30 6843 H 635.721 -1.34742 3.53062 0
M  V30 6844 H 636.034 -2.16223 7.41935 0
M  V30 6845 H 634.379 -1.95123 6.67047 0
M  V30 6846 H 637.57 -1.59005 4.40267 0
M  V30 6847 H 637.743 -1.96182 6.17589 0
M  V30 6848 N 631.149 -1.42148 -0.680565 0
M  V30 6849 C 632.395 -1.4352 -1.44131 0
M  V30 6850 C 632.75 -0.0486244 -1.92339 0
M  V30 6851 O 632.043 0.92819 -1.67616 0
M  V30 6852 C 632.237 -2.38945 -2.65782 0
M  V30 6853 C 632.066 -3.86743 -2.29477 0
M  V30 6854 C 630.836 -4.5532 -2.19115 0
M  V30 6855 C 633.034 -4.77321 -1.91491 0
M  V30 6856 N 631.016 -5.88174 -1.75853 0
M  V30 6857 C 632.387 -5.99238 -1.59103 0
M  V30 6858 C 634.442 -4.64829 -1.78432 0
M  V30 6859 C 633.145 -7.10053 -1.14968 0
M  V30 6860 C 635.171 -5.75621 -1.35702 0
M  V30 6861 C 634.533 -6.96645 -1.04234 0
M  V30 6862 H 630.632 -0.580363 -0.524121 0
M  V30 6863 H 633.216 -1.78132 -0.785939 0
M  V30 6864 H 631.387 -2.06403 -3.29017 0
M  V30 6865 H 633.119 -2.30935 -3.32342 0
M  V30 6866 H 629.874 -4.09456 -2.37998 0
M  V30 6867 H 630.298 -6.58625 -1.56661 0
M  V30 6868 H 634.94 -3.71745 -2.01409 0
M  V30 6869 H 632.658 -8.0299 -0.907365 0
M  V30 6870 H 636.244 -5.67964 -1.26126 0
M  V30 6871 H 635.124 -7.80918 -0.716707 0
M  V30 6872 N 632.627 0.916307 -1.28225 0
M  V30 6873 C 633.557 2.0352 -1.14464 0
M  V30 6874 C 634.538 1.70045 -0.0430844 0
M  V30 6875 O 635.723 1.92954 -0.219619 0
M  V30 6876 C 632.853 3.37889 -0.803027 0
M  V30 6877 C 631.807 3.85516 -1.85908 0
M  V30 6878 C 631.133 5.1682 -1.37116 0
M  V30 6879 C 632.433 4.07655 -3.26519 0
M  V30 6880 H 634.127 2.1529 -2.08064 0
M  V30 6881 H 631.673 1.03446 -1.00174 0
M  V30 6882 H 633.626 4.15654 -0.693537 0
M  V30 6883 H 632.35 3.26164 0.168674 0
M  V30 6884 H 631.009 3.09953 -1.95767 0
M  V30 6885 H 630.657 5.01497 -0.38859 0
M  V30 6886 H 630.357 5.49657 -2.07728 0
M  V30 6887 H 631.881 5.97143 -1.27484 0
M  V30 6888 H 633.295 4.75953 -3.19596 0
M  V30 6889 H 631.692 4.51818 -3.94943 0
M  V30 6890 H 632.762 3.12553 -3.70727 0
M  V30 6891 N 634.105 1.10431 1.1244 0
M  V30 6892 C 635.351 0.847972 1.84221 0
M  V30 6893 C 635.684 -0.624903 1.83871 0
M  V30 6894 O 634.959 -1.46074 1.28423 0
M  V30 6895 C 635.242 1.39695 3.319 0
M  V30 6896 C 635.095 2.93668 3.40704 0
M  V30 6897 C 636.414 1.03924 4.27654 0
M  V30 6898 H 633.533 0.309502 0.668863 0
M  V30 6899 H 636.175 1.36745 1.31912 0
M  V30 6900 H 634.325 0.955095 3.76577 0
M  V30 6901 H 635.997 3.46379 3.04662 0
M  V30 6902 H 634.24 3.30272 2.81252 0
M  V30 6903 H 634.911 3.27162 4.446 0
M  V30 6904 H 637.387 1.42049 3.91102 0
M  V30 6905 H 636.263 1.45027 5.29394 0
M  V30 6906 H 636.524 -0.051336 4.4207 0
M  V30 6907 N 635.583 -1.29855 0.893053 0
M  V30 6908 C 636.513 -2.3035 0.382249 0
M  V30 6909 C 637.494 -1.61328 -0.539203 0
M  V30 6910 O 638.679 -1.88882 -0.451342 0
M  V30 6911 C 635.809 -3.45024 -0.396983 0
M  V30 6912 C 634.763 -4.258 0.433437 0
M  V30 6913 C 634.089 -5.32605 -0.472889 0
M  V30 6914 C 635.389 -4.94549 1.67984 0
M  V30 6915 H 637.083 -2.73325 1.22205 0
M  V30 6916 H 634.629 -1.314 0.589073 0
M  V30 6917 H 636.582 -4.14398 -0.765024 0
M  V30 6918 H 635.306 -3.00875 -1.2705 0
M  V30 6919 H 633.965 -3.58125 0.783723 0
M  V30 6920 H 633.613 -4.84702 -1.34435 0
M  V30 6921 H 633.313 -5.87547 0.0789958 0
M  V30 6922 H 634.837 -6.04832 -0.837269 0
M  V30 6923 H 636.251 -5.56395 1.38192 0
M  V30 6924 H 634.648 -5.59393 2.17254 0
M  V30 6925 H 635.718 -4.20215 2.41965 0
M  V30 6926 N 637.061 -0.65484 -1.43351 0
M  V30 6927 C 638.477 -0.32255 -1.56307 0
M  V30 6928 C 638.677 1.17324 -1.63821 0
M  V30 6929 O 637.733 1.95813 -1.59417 0
M  V30 6930 C 639.046 -1.03533 -2.82314 0
M  V30 6931 C 640.594 -1.01574 -2.9606 0
M  V30 6932 C 641.069 -1.70945 -4.24902 0
M  V30 6933 N 642.56 -1.67716 -4.3177 0
M  V30 6934 C 643.295 -2.18265 -5.30234 0
M  V30 6935 N 642.791 -2.7711 -6.34966 0
M  V30 6936 N 644.584 -2.08756 -5.21898 0
M  V30 6937 H 636.735 -1.62549 -1.36717 0
M  V30 6938 H 638.998 -0.683676 -0.656727 0
M  V30 6939 H 638.704 -2.09045 -2.8283 0
M  V30 6940 H 638.578 -0.587913 -3.7259 0
M  V30 6941 H 640.965 0.0309834 -2.95084 0
M  V30 6942 H 641.046 -1.50186 -2.07069 0
M  V30 6943 H 640.69 -2.75574 -4.26639 0
M  V30 6944 H 640.62 -1.19797 -5.12793 0
M  V30 6945 H 643.111 -1.24777 -3.56706 0
M  V30 6946 H 643.424 -3.13353 -7.06421 0
M  V30 6947 H 641.769 -2.81171 -6.35585 0
M  V30 6948 H 644.96 -1.62488 -4.38994 0
M  V30 6949 H 645.133 -2.48459 -5.98475 0
M  V30 6950 N 638.539 1.52521 -0.396863 0
M  V30 6951 C 639.788 2.00857 0.184184 0
M  V30 6952 C 640.101 1.28733 1.47265 0
M  V30 6953 O 641.307 1.67821 2.13421 0
M  V30 6954 C 639.763 3.57901 0.378787 0
M  V30 6955 C 639.371 4.38931 -0.896873 0
M  V30 6956 C 641.115 4.14504 0.915789 0
M  V30 6957 C 639.022 5.87591 -0.670133 0
M  V30 6958 H 637.952 0.750496 0.0726055 0
M  V30 6959 H 640.603 1.75965 -0.520425 0
M  V30 6960 H 638.985 3.79072 1.14543 0
M  V30 6961 H 640.159 4.29524 -1.66872 0
M  V30 6962 H 638.474 3.93586 -1.35938 0
M  V30 6963 H 641.071 5.23236 1.10126 0
M  V30 6964 H 641.414 3.71076 1.88701 0
M  V30 6965 H 641.947 3.97253 0.208523 0
M  V30 6966 H 638.686 6.35355 -1.61257 0
M  V30 6967 H 638.206 5.99767 0.0626368 0
M  V30 6968 H 639.885 6.46268 -0.307577 0
M  V30 6969 N 640.017 0.126909 1.57088 0
M  V30 6970 C 640.965 -0.837618 2.16995 0
M  V30 6971 C 641.959 -1.26974 1.12133 0
M  V30 6972 O 643.165 -1.24056 1.30423 0
M  V30 6973 H 639.54 -0.288256 0.694559 0
M  V30 6974 H 641.511 -0.307957 2.96807 0
M  V30 6975 C 640.26 -2.07474 2.79016 0
M  V30 6976 H 639.583 -1.75117 3.59408 0
M  V30 6977 H 641.023 -2.72949 3.24461 0
M  V30 6978 C 639.482 -2.86967 1.76498 0
M  V30 6979 O 640.012 -3.82625 1.22316 0
M  V30 6980 N 638.218 -2.51111 1.46258 0
M  V30 6981 H 637.765 -1.73389 1.90509 0
M  V30 6982 H 637.723 -3.04594 0.779085 0
M  V30 6983 N 641.495 -1.56914 -0.146875 0
M  V30 6984 C 642.442 -1.98275 -1.18134 0
M  V30 6985 C 643.412 -0.850367 -1.42681 0
M  V30 6986 O 644.597 -1.11244 -1.55014 0
M  V30 6987 C 641.737 -2.36861 -2.5098 0
M  V30 6988 C 640.85 -3.63391 -2.33605 0
M  V30 6989 C 639.985 -3.91079 -3.59486 0
M  V30 6990 C 639.024 -5.10879 -3.37149 0
M  V30 6991 N 638.161 -5.34577 -4.55161 0
M  V30 6992 H 643.001 -2.8645 -0.821622 0
M  V30 6993 H 640.538 -1.41718 -0.394248 0
M  V30 6994 H 642.496 -2.57262 -3.28439 0
M  V30 6995 H 641.126 -1.51766 -2.84898 0
M  V30 6996 H 640.178 -3.50766 -1.47199 0
M  V30 6997 H 641.49 -4.51007 -2.13059 0
M  V30 6998 H 640.644 -4.11979 -4.45374 0
M  V30 6999 H 639.383 -3.01885 -3.83036 0
M  V30 7000 H 638.388 -4.89853 -2.49649 0
M  V30 7001 H 639.613 -6.01626 -3.14997 0
M  V30 7002 H 637.559 -4.48337 -4.78884 0
M  V30 7003 H 637.476 -6.16463 -4.37618 0
M  V30 7004 H 638.744 -5.59975 -5.42263 0
M  V30 7005 N 642.974 0.416227 -1.52004 0
M  V30 7006 C 643.937 1.48926 -1.74223 0
M  V30 7007 C 644.937 1.48693 -0.612119 0
M  V30 7008 O 646.127 1.50343 -0.879921 0
M  V30 7009 C 643.259 2.88372 -1.81809 0
M  V30 7010 H 644.452 1.3052 -2.70008 0
M  V30 7011 H 642.005 0.646271 -1.42313 0
M  V30 7012 H 642.74 3.12157 -0.879135 0
M  V30 7013 H 642.525 2.89944 -2.6396 0
M  V30 7014 H 644.015 3.66173 -2.00766 0
M  V30 7015 N 644.452 1.42507 0.673017 0
M  V30 7016 C 645.382 1.48916 1.79851 0
M  V30 7017 C 646.363 0.345566 1.66553 0
M  V30 7018 O 647.548 0.560116 1.85947 0
M  V30 7019 C 644.678 1.39258 3.18158 0
M  V30 7020 C 643.632 2.51662 3.46194 0
M  V30 7021 C 642.958 2.27062 4.84094 0
M  V30 7022 C 644.258 3.93968 3.42909 0
M  V30 7023 H 645.952 2.43114 1.74745 0
M  V30 7024 H 643.498 1.17013 0.839288 0
M  V30 7025 H 645.451 1.42349 3.96629 0
M  V30 7026 H 644.175 0.415542 3.23946 0
M  V30 7027 H 642.834 2.47891 2.70084 0
M  V30 7028 H 642.482 1.27648 4.86534 0
M  V30 7029 H 642.182 3.02398 5.03815 0
M  V30 7030 H 643.706 2.31905 5.64847 0
M  V30 7031 H 645.12 3.99332 4.11347 0
M  V30 7032 H 643.517 4.6917 3.74165 0
M  V30 7033 H 644.587 4.20512 2.41449 0
M  V30 7034 N 645.93 -0.909495 1.28709 0
M  V30 7035 C 647.207 -1.63865 1.06806 0
M  V30 7036 C 647.587 -2.07445 -0.391143 0
M  V30 7037 O 646.935 -1.82269 -1.37805 0
M  V30 7038 C 647.145 -2.82692 2.04661 0
M  V30 7039 C 648.493 -3.5361 2.35042 0
M  V30 7040 O 649.517 -2.92847 2.02779 0
M  V30 7041 O 648.376 -4.63131 2.90124 0
M  V30 7042 H 645.47 -0.719065 0.408502 0
M  V30 7043 H 648.016 -0.958424 1.40044 0
M  V30 7044 H 646.788 -2.47614 3.0299 0
M  V30 7045 H 646.411 -3.58426 1.72095 0
M  V30 7046 N 647.408 -1.11026 -1.11852 0
M  V30 7047 C 648.355 -0.764662 -2.17765 0
M  V30 7048 C 649.325 0.261854 -1.64023 0
M  V30 7049 O 650.51 0.139748 -1.90288 0
M  V30 7050 C 647.65 -0.209317 -3.44465 0
M  V30 7051 C 646.763 -1.29187 -4.12231 0
M  V30 7052 C 645.898 -0.697523 -5.266 0
M  V30 7053 C 644.937 -1.76023 -5.86244 0
M  V30 7054 N 644.074 -1.18569 -6.92016 0
M  V30 7055 H 648.914 -1.67202 -2.46673 0
M  V30 7056 H 646.451 -0.835065 -1.21099 0
M  V30 7057 H 648.409 0.130599 -4.16996 0
M  V30 7058 H 647.039 0.661251 -3.15955 0
M  V30 7059 H 646.091 -1.74881 -3.37818 0
M  V30 7060 H 647.403 -2.09607 -4.52622 0
M  V30 7061 H 646.557 -0.307412 -6.05921 0
M  V30 7062 H 645.296 0.138044 -4.87505 0
M  V30 7063 H 644.301 -2.1597 -5.05606 0
M  V30 7064 H 645.526 -2.59875 -6.27409 0
M  V30 7065 H 643.472 -0.371695 -6.54946 0
M  V30 7066 H 643.389 -1.92666 -7.31038 0
M  V30 7067 H 644.657 -0.82233 -7.7515 0
M  V30 7068 N 648.886 1.2938 -0.899927 0
M  V30 7069 C 650.114 1.99691 -0.541386 0
M  V30 7070 C 650.529 1.67355 0.873936 0
M  V30 7071 O 649.886 0.918728 1.57688 0
M  V30 7072 C 649.937 3.54168 -0.72438 0
M  V30 7073 O 649.658 3.85359 -2.08399 0
M  V30 7074 C 651.159 4.41746 -0.370819 0
M  V30 7075 H 648.379 0.638037 -0.207726 0
M  V30 7076 H 650.923 1.6491 -1.20934 0
M  V30 7077 H 649.078 3.87261 -0.103607 0
M  V30 7078 H 649.492 4.80032 -2.11352 0
M  V30 7079 H 650.966 5.49256 -0.549693 0
M  V30 7080 H 651.443 4.33712 0.692148 0
M  V30 7081 H 652.049 4.14125 -0.968543 0
M  V30 7082 N 650.364 0.662433 1.43002 0
M  V30 7083 C 651.311 -0.0235324 2.30788 0
M  V30 7084 C 652.281 -0.805342 1.4527 0
M  V30 7085 O 653.466 -0.78009 1.74124 0
M  V30 7086 C 650.606 -0.977545 3.30965 0
M  V30 7087 C 649.719 -0.190865 4.31578 0
M  V30 7088 C 648.854 -1.13951 5.18834 0
M  V30 7089 C 647.893 -0.343796 6.11134 0
M  V30 7090 N 647.03 -1.2445 6.90982 0
M  V30 7091 H 651.87 0.730921 2.88897 0
M  V30 7092 H 649.407 0.372197 1.42313 0
M  V30 7093 H 651.365 -1.54437 3.87563 0
M  V30 7094 H 649.995 -1.69877 2.74484 0
M  V30 7095 H 649.047 0.492388 3.772 0
M  V30 7096 H 650.359 0.427464 4.96965 0
M  V30 7097 H 649.513 -1.77666 5.80103 0
M  V30 7098 H 648.252 -1.79174 4.53595 0
M  V30 7099 H 647.257 0.30665 5.48944 0
M  V30 7100 H 648.482 0.304161 6.78419 0
M  V30 7101 H 646.428 -1.88336 6.28383 0
M  V30 7102 H 646.345 -0.680959 7.52927 0
M  V30 7103 H 647.613 -1.86952 7.56749 0
M  V30 7104 N 651.842 -1.52309 0.404946 0
M  V30 7105 C 653.258 -1.59503 0.0556255 0
M  V30 7106 C 653.458 -1.41805 -1.43156 0
M  V30 7107 O 652.514 -1.2429 -2.19792 0
M  V30 7108 C 653.827 -2.95687 0.546801 0
M  V30 7109 C 655.375 -3.08909 0.504413 0
M  V30 7110 C 655.85 -4.47566 0.97203 0
M  V30 7111 N 657.341 -4.53795 0.928679 0
M  V30 7112 C 658.076 -5.59346 1.26174 0
M  V30 7113 N 657.572 -6.72469 1.66604 0
M  V30 7114 N 659.365 -5.49532 1.18198 0
M  V30 7115 H 651.516 -1.6206 1.37296 0
M  V30 7116 H 653.779 -0.762161 0.563751 0
M  V30 7117 H 653.485 -3.13905 1.58609 0
M  V30 7118 H 653.359 -3.77172 -0.0457905 0
M  V30 7119 H 655.746 -2.90378 -0.525819 0
M  V30 7120 H 655.827 -2.2934 1.13301 0
M  V30 7121 H 655.471 -4.6684 2.00057 0
M  V30 7122 H 655.401 -5.25625 0.320292 0
M  V30 7123 H 657.892 -3.72588 0.631369 0
M  V30 7124 H 658.205 -7.48993 1.9034 0
M  V30 7125 H 656.55 -6.73761 1.70504 0
M  V30 7126 H 659.741 -4.60038 0.865011 0
M  V30 7127 H 659.914 -6.31687 1.44485 0
M  V30 7128 N 653.32 -0.135238 -1.57019 0
M  V30 7129 C 654.252 0.839675 -2.13265 0
M  V30 7130 C 655.265 1.21887 -1.07923 0
M  V30 7131 O 656.454 1.16499 -1.35241 0
M  V30 7132 C 653.554 2.13647 -2.63075 0
M  V30 7133 C 652.727 1.92646 -3.92691 0
M  V30 7134 C 651.786 3.06205 -4.27931 0
M  V30 7135 O 650.812 2.78409 -4.96465 0
M  V30 7136 N 652.014 4.33072 -3.86561 0
M  V30 7137 H 654.779 0.359026 -2.97542 0
M  V30 7138 H 652.34 0.0486979 -1.61827 0
M  V30 7139 H 654.332 2.88641 -2.8367 0
M  V30 7140 H 652.902 2.5301 -1.83588 0
M  V30 7141 H 652.122 1.01754 -3.80841 0
M  V30 7142 H 653.41 1.75939 -4.77413 0
M  V30 7143 H 652.808 4.58526 -3.31316 0
M  V30 7144 H 651.365 5.04885 -4.12231 0
M  V30 7145 N 654.798 1.5699 0.138552 0
M  V30 7146 C 656.046 1.83446 0.848053 0
M  V30 7147 C 656.367 0.71744 1.81322 0
M  V30 7148 O 655.637 -0.260228 1.94164 0
M  V30 7149 H 654.217 0.676792 0.316166 0
M  V30 7150 H 656.879 1.94462 0.130538 0
M  V30 7151 H 655.975 2.78677 1.40518 0
M  V30 7152 N 656.276 -0.40816 1.52223 0
M  V30 7153 C 657.239 -1.48 1.7501 0
M  V30 7154 C 658.239 -1.48367 0.619996 0
M  V30 7155 O 659.429 -1.49874 0.887881 0
M  V30 7156 C 656.561 -2.87403 1.83336 0
M  V30 7157 H 657.754 -1.29086 2.70697 0
M  V30 7158 H 655.307 -0.638715 1.42654 0
M  V30 7159 H 656.042 -3.11686 0.895677 0
M  V30 7160 H 655.827 -2.8854 2.65494 0
M  V30 7161 H 657.317 -3.65103 2.02705 0
M  V30 7162 N 657.755 -1.42862 -0.66545 0
M  V30 7163 C 658.98 -1.47456 -1.45848 0
M  V30 7164 C 659.405 -0.0900312 -1.87884 0
M  V30 7165 O 658.763 0.913587 -1.56599 0
M  V30 7166 C 658.811 -2.41514 -2.67774 0
M  V30 7167 O 657.915 -1.89296 -3.66389 0
M  V30 7168 H 657.256 -0.499236 -0.437789 0
M  V30 7169 H 659.786 -1.8765 -0.815394 0
M  V30 7170 H 659.796 -2.58409 -3.15735 0
M  V30 7171 H 658.471 -3.42099 -2.36519 0
M  V30 7172 H 657.048 -1.82003 -3.25468 0
M  V30 7173 N 659.233 0.902656 -1.29189 0
M  V30 7174 C 660.48 1.65287 -1.16989 0
M  V30 7175 C 660.808 1.92485 0.279232 0
M  V30 7176 O 660.063 1.53143 1.21843 0
M  V30 7177 C 660.362 3.011 -1.92545 0
M  V30 7178 C 660.028 2.93521 -3.42281 0
M  V30 7179 C 658.69 2.91161 -3.83117 0
M  V30 7180 C 661.042 2.82947 -4.3771 0
M  V30 7181 C 658.37 2.76043 -5.17704 0
M  V30 7182 C 660.722 2.69368 -5.72384 0
M  V30 7183 C 659.386 2.65373 -6.12482 0
M  V30 7184 H 658.656 0.604828 -0.428094 0
M  V30 7185 H 661.303 1.05084 -1.60092 0
M  V30 7186 H 659.608 3.65153 -1.42024 0
M  V30 7187 H 661.305 3.58073 -1.80512 0
M  V30 7188 H 657.895 2.96158 -3.09819 0
M  V30 7189 H 662.079 2.83849 -4.07116 0
M  V30 7190 H 657.335 2.71352 -5.47885 0
M  V30 7191 H 661.509 2.60156 -6.45981 0
M  V30 7192 H 659.136 2.53415 -7.16718 0
M  V30 7193 N 660.711 1.11618 1.11262 0
M  V30 7194 C 661.96 0.860934 1.82403 0
M  V30 7195 C 662.273 -0.615303 1.8567 0
M  V30 7196 O 663.479 -0.986861 2.52929 0
M  V30 7197 C 661.935 1.49048 3.27586 0
M  V30 7198 C 661.543 3.00089 3.32642 0
M  V30 7199 C 663.287 1.31515 4.03614 0
M  V30 7200 C 661.194 3.56019 4.72234 0
M  V30 7201 H 660.124 0.318423 0.683464 0
M  V30 7202 H 662.775 1.34165 1.25188 0
M  V30 7203 H 661.157 0.937434 3.84744 0
M  V30 7204 H 662.331 3.61813 2.85356 0
M  V30 7205 H 660.646 3.16919 2.70096 0
M  V30 7206 H 663.243 1.70732 5.0671 0
M  V30 7207 H 663.586 0.257917 4.155 0
M  V30 7208 H 664.119 1.83694 3.52848 0
M  V30 7209 H 660.858 4.61463 4.65545 0
M  V30 7210 H 660.378 2.99066 5.19923 0
M  V30 7211 H 662.057 3.54568 5.41193 0
M  V30 7212 N 662.189 -1.289 0.906776 0
M  V30 7213 C 663.437 -1.94883 0.535266 0
M  V30 7214 C 663.758 -1.71784 -0.922791 0
M  V30 7215 O 663.028 -1.05359 -1.65156 0
M  V30 7216 H 661.608 -0.721109 0.194962 0
M  V30 7217 H 664.27 -1.57018 1.15461 0
M  V30 7218 H 663.366 -3.03591 0.723821 0
M  V30 7219 N 663.667 -0.670007 -1.42649 0
M  V30 7220 C 664.916 -0.187526 -2.00826 0
M  V30 7221 C 665.229 1.21142 -1.53571 0
M  V30 7222 O 666.435 1.79001 -2.04134 0
M  V30 7223 C 664.891 -0.284409 -3.58774 0
M  V30 7224 C 664.499 -1.6871 -4.15019 0
M  V30 7225 C 666.243 0.139605 -4.2427 0
M  V30 7226 C 664.15 -1.73701 -5.65316 0
M  V30 7227 H 663.08 -0.0663468 -0.751075 0
M  V30 7228 H 665.731 -0.834492 -1.63427 0
M  V30 7229 H 664.113 0.430364 -3.93655 0
M  V30 7230 H 665.287 -2.42857 -3.91608 0
M  V30 7231 H 663.602 -2.05855 -3.61957 0
M  V30 7232 H 666.199 0.122398 -5.3456 0
M  V30 7233 H 666.542 1.17403 -3.99402 0
M  V30 7234 H 667.075 -0.523995 -3.94334 0
M  V30 7235 H 663.814 -2.75109 -5.94975 0
M  V30 7236 H 663.334 -1.03903 -5.90732 0
M  V30 7237 H 665.013 -1.48829 -6.2965 0
M  V30 7238 N 665.145 1.52092 -0.413018 0
M  V30 7239 C 666.075 2.30021 0.401567 0
M  V30 7240 C 667.056 1.34395 1.04269 0
M  V30 7241 O 668.241 1.63304 1.05097 0
M  V30 7242 C 665.371 3.12447 1.51638 0
M  V30 7243 C 664.325 4.16153 1.00005 0
M  V30 7244 C 663.651 4.86948 2.20875 0
M  V30 7245 C 664.951 5.22275 0.0513757 0
M  V30 7246 H 666.645 2.98365 -0.248704 0
M  V30 7247 H 664.191 1.4349 -0.121052 0
M  V30 7248 H 666.144 3.65733 2.09326 0
M  V30 7249 H 664.868 2.41879 2.19458 0
M  V30 7250 H 663.527 3.63882 0.445549 0
M  V30 7251 H 663.175 4.12905 2.8726 0
M  V30 7252 H 662.875 5.57057 1.86978 0
M  V30 7253 H 664.399 5.43048 2.79162 0
M  V30 7254 H 665.813 5.70778 0.537176 0
M  V30 7255 H 664.21 5.9977 -0.198977 0
M  V30 7256 H 665.28 4.76611 -0.892736 0
M  V30 7257 N 666.623 0.143563 1.56945 0
M  V30 7258 C 667.9 -0.553285 1.87612 0
M  V30 7259 C 668.28 -1.83195 1.04894 0
M  V30 7260 O 667.628 -2.28102 0.134773 0
M  V30 7261 C 667.838 -0.822055 3.3918 0
M  V30 7262 C 669.186 -1.16435 4.08324 0
M  V30 7263 O 670.21 -0.911522 3.4434 0
M  V30 7264 O 669.069 -1.63996 5.21313 0
M  V30 7265 H 666.163 -0.281851 0.777489 0
M  V30 7266 H 668.709 0.179916 1.68744 0
M  V30 7267 H 667.481 0.0830265 3.91212 0
M  V30 7268 H 667.104 -1.60956 3.63564 0
M  V30 7269 N 668.101 -1.57061 -0.130224 0
M  V30 7270 C 669.35 -1.83446 -0.838488 0
M  V30 7271 C 669.663 -0.727468 -1.81569 0
M  V30 7272 O 670.869 -0.877394 -2.56932 0
M  V30 7273 C 669.325 -3.25201 -1.54182 0
M  V30 7274 C 668.933 -4.4388 -0.606178 0
M  V30 7275 C 670.677 -3.60844 -2.23588 0
M  V30 7276 C 668.584 -5.76661 -1.31209 0
M  V30 7277 H 667.514 -0.684185 -0.316871 0
M  V30 7278 H 670.165 -1.83273 -0.0912059 0
M  V30 7279 H 668.547 -3.1981 -2.33533 0
M  V30 7280 H 669.721 -4.60545 0.153308 0
M  V30 7281 H 668.036 -4.16395 -0.0196705 0
M  V30 7282 H 670.633 -4.57313 -2.77072 0
M  V30 7283 H 670.976 -2.87724 -3.00867 0
M  V30 7284 H 671.509 -3.67971 -1.51137 0
M  V30 7285 H 668.248 -6.52922 -0.580823 0
M  V30 7286 H 667.768 -5.63902 -2.04387 0
M  V30 7287 H 669.447 -6.20035 -1.8484 0
M  V30 7288 N 669.579 0.400081 -1.52437 0
M  V30 7289 C 670.542 1.4707 -1.75793 0
M  V30 7290 C 671.542 1.48036 -0.627856 0
M  V30 7291 O 672.732 1.49401 -0.895817 0
M  V30 7292 C 669.864 2.86427 -1.84858 0
M  V30 7293 H 671.057 1.27649 -2.71377 0
M  V30 7294 H 668.61 0.631141 -1.42991 0
M  V30 7295 H 669.345 3.11207 -0.912194 0
M  V30 7296 H 669.13 2.87128 -2.6702 0
M  V30 7297 H 670.62 3.64023 -2.04638 0
M  V30 7298 N 671.057 1.43213 0.657864 0
M  V30 7299 C 672.305 1.44298 1.41501 0
M  V30 7300 C 672.626 0.0666478 1.94886 0
M  V30 7301 O 671.896 -0.897345 1.74139 0
M  V30 7302 H 670.476 0.531257 0.525143 0
M  V30 7303 H 673.138 1.78777 0.776195 0
M  V30 7304 H 672.234 2.1528 2.25966 0
M  V30 7305 N 672.536 -0.895792 1.29666 0
M  V30 7306 C 673.783 -1.64664 1.17864 0
M  V30 7307 C 674.111 -1.92631 -0.26902 0
M  V30 7308 O 673.366 -1.53787 -1.21029 0
M  V30 7309 C 673.665 -3.00075 1.94139 0
M  V30 7310 C 673.331 -2.91702 3.43833 0
M  V30 7311 C 671.993 -2.89126 3.84656 0
M  V30 7312 C 674.345 -2.80622 4.39205 0
M  V30 7313 C 671.673 -2.73293 5.1916 0
M  V30 7314 C 674.025 -2.66329 5.73805 0
M  V30 7315 C 672.689 -2.62121 6.1388 0
M  V30 7316 H 671.959 -0.602549 0.431295 0
M  V30 7317 H 674.606 -1.04234 1.60648 0
M  V30 7318 H 672.911 -3.64394 1.43958 0
M  V30 7319 H 674.608 -3.57111 1.82408 0
M  V30 7320 H 671.198 -2.94511 3.11386 0
M  V30 7321 H 675.382 -2.81686 4.08615 0
M  V30 7322 H 670.638 -2.68443 5.49316 0
M  V30 7323 H 674.812 -2.56727 6.47352 0
M  V30 7324 H 672.439 -2.49611 7.18052 0
M  V30 7325 N 674.014 -1.12206 -1.10668 0
M  V30 7326 C 674.924 -0.800686 -2.20513 0
M  V30 7327 C 675.94 0.209512 -1.72734 0
M  V30 7328 O 677.116 0.043705 -2.01353 0
M  V30 7329 C 674.181 -0.257353 -3.45744 0
M  V30 7330 C 673.242 -1.32718 -4.0827 0
M  V30 7331 C 672.475 -0.809674 -5.27522 0
M  V30 7332 O 672.698 0.35742 -5.69279 0
M  V30 7333 O 671.632 -1.57816 -5.80842 0
M  V30 7334 H 675.458 -1.71807 -2.50432 0
M  V30 7335 H 673.043 -0.898546 -1.19359 0
M  V30 7336 H 674.925 0.0408849 -4.2138 0
M  V30 7337 H 673.6 0.632627 -3.17458 0
M  V30 7338 H 672.507 -1.67855 -3.34329 0
M  V30 7339 H 673.84 -2.19083 -4.40753 0
M  V30 7340 N 675.492 1.28418 -0.913599 0
M  V30 7341 C 676.741 1.94265 -0.542572 0
M  V30 7342 C 677.054 1.72709 0.918207 0
M  V30 7343 O 678.26 2.32778 1.39738 0
M  V30 7344 C 676.716 3.47956 -0.919507 0
M  V30 7345 C 676.324 3.78291 -2.4 0
M  V30 7346 C 678.068 4.19962 -0.619057 0
M  V30 7347 C 675.975 5.2529 -2.71707 0
M  V30 7348 H 674.905 0.727213 -0.199192 0
M  V30 7349 H 677.556 1.45931 -1.11249 0
M  V30 7350 H 675.938 3.9502 -0.278372 0
M  V30 7351 H 677.112 3.42035 -3.08786 0
M  V30 7352 H 675.427 3.19456 -2.67089 0
M  V30 7353 H 678.024 5.28178 -0.832623 0
M  V30 7354 H 678.367 4.13935 0.443126 0
M  V30 7355 H 678.9 3.78674 -1.21865 0
M  V30 7356 H 675.639 5.36394 -3.76778 0
M  V30 7357 H 675.159 5.62743 -2.07559 0
M  V30 7358 H 676.838 5.93027 -2.58703 0
M  V30 7359 N 676.97 0.677563 1.42291 0
M  V30 7360 C 678.217 0.200975 2.015 0
M  V30 7361 C 678.545 -1.19342 1.53583 0
M  V30 7362 O 677.8 -1.81579 0.7299 0
M  V30 7363 C 678.099 0.187229 3.56909 0
M  V30 7364 C 677.765 1.52667 4.24268 0
M  V30 7365 C 676.427 1.89341 4.42384 0
M  V30 7366 C 678.779 2.40869 4.62203 0
M  V30 7367 C 676.107 3.13836 4.95705 0
M  V30 7368 C 678.459 3.64679 5.16906 0
M  V30 7369 C 677.123 4.01519 5.33234 0
M  V30 7370 H 676.393 0.0735418 0.737342 0
M  V30 7371 H 679.04 0.873095 1.70439 0
M  V30 7372 H 677.345 -0.568407 3.87655 0
M  V30 7373 H 679.042 -0.198773 4.00507 0
M  V30 7374 H 675.632 1.23138 4.1053 0
M  V30 7375 H 679.816 2.1382 4.47878 0
M  V30 7376 H 675.072 3.42396 5.06532 0
M  V30 7377 H 679.246 4.33224 5.45243 0
M  V30 7378 H 676.873 4.98062 5.74316 0
M  V30 7379 N 678.448 -1.51871 0.421078 0
M  V30 7380 C 679.725 -1.9447 -0.20993 0
M  V30 7381 C 680.105 -1.35875 -1.61558 0
M  V30 7382 O 679.453 -0.539294 -2.22045 0
M  V30 7383 C 679.663 -3.48402 -0.204165 0
M  V30 7384 C 681.011 -4.2254 -0.417696 0
M  V30 7385 O 682.035 -3.55074 -0.282999 0
M  V30 7386 O 680.894 -5.422 -0.684239 0
M  V30 7387 H 677.988 -0.815283 -0.138718 0
M  V30 7388 H 680.534 -1.62832 0.477884 0
M  V30 7389 H 679.306 -3.83464 0.779183 0
M  V30 7390 H 678.929 -3.86436 -0.935576 0
M  V30 7391 N 679.926 -0.151884 -1.56866 0
M  V30 7392 C 680.856 0.781943 -2.20018 0
M  V30 7393 C 681.837 1.25347 -1.14987 0
M  V30 7394 O 683.022 1.31015 -1.43348 0
M  V30 7395 C 680.152 2.01928 -2.82564 0
M  V30 7396 C 679.106 1.68434 -3.93464 0
M  V30 7397 C 678.432 2.99472 -4.42968 0
M  V30 7398 C 679.732 0.927244 -5.14003 0
M  V30 7399 H 681.426 0.255607 -2.98307 0
M  V30 7400 H 678.972 0.121502 -1.43486 0
M  V30 7401 H 680.925 2.67741 -3.25411 0
M  V30 7402 H 679.649 2.56943 -2.01614 0
M  V30 7403 H 678.308 1.04998 -3.51242 0
M  V30 7404 H 677.956 3.52488 -3.58834 0
M  V30 7405 H 677.656 2.77823 -5.17772 0
M  V30 7406 H 679.18 3.66348 -4.88489 0
M  V30 7407 H 680.594 1.48756 -5.53665 0
M  V30 7408 H 678.991 0.810513 -5.94601 0
M  V30 7409 H 680.061 -0.0801163 -4.84834 0
M  V30 7410 N 681.404 1.57128 0.121893 0
M  V30 7411 C 682.352 2.01109 1.16868 0
M  V30 7412 C 683.346 0.907532 1.43039 0
M  V30 7413 O 684.552 1.09274 1.43036 0
M  V30 7414 H 680.927 0.640539 0.393971 0
M  V30 7415 H 682.898 2.88261 0.771224 0
M  V30 7416 C 681.647 2.42887 2.48799 0
M  V30 7417 H 680.97 3.2737 2.29498 0
M  V30 7418 H 682.41 2.77461 3.20611 0
M  V30 7419 C 680.869 1.29137 3.11168 0
M  V30 7420 O 681.399 0.605756 3.97106 0
M  V30 7421 N 679.605 1.04916 2.71 0
M  V30 7422 H 679.152 1.60848 2.01211 0
M  V30 7423 H 679.11 0.290016 3.1306 0
M  V30 7424 N 682.882 -0.391992 1.52647 0
M  V30 7425 C 684.107 -1.16312 1.71716 0
M  V30 7426 C 684.532 -1.83042 0.433279 0
M  V30 7427 O 683.89 -1.70705 -0.610707 0
M  V30 7428 C 683.938 -2.18908 2.86551 0
M  V30 7429 O 683.042 -3.2543 2.53316 0
M  V30 7430 H 682.383 -0.338743 0.571095 0
M  V30 7431 H 684.913 -0.457202 1.99426 0
M  V30 7432 H 684.923 -2.62954 3.1196 0
M  V30 7433 H 683.598 -1.69726 3.79692 0
M  V30 7434 H 682.175 -2.86543 2.38637 0
M  V30 7435 N 684.36 -1.4356 -0.65026 0
M  V30 7436 C 685.607 -1.45333 -1.41012 0
M  V30 7437 C 685.935 -0.0787282 -1.94341 0
M  V30 7438 O 685.19 0.916715 -1.72901 0
M  V30 7439 C 685.489 -2.44528 -2.60654 0
M  V30 7440 C 685.155 -3.90331 -2.25727 0
M  V30 7441 C 683.817 -4.3004 -2.15914 0
M  V30 7442 C 686.169 -4.822 -1.97821 0
M  V30 7443 C 683.497 -5.59568 -1.76354 0
M  V30 7444 C 685.849 -6.12095 -1.59759 0
M  V30 7445 C 684.513 -6.50778 -1.48473 0
M  V30 7446 H 683.783 -0.531813 -0.516 0
M  V30 7447 H 686.43 -1.76657 -0.739219 0
M  V30 7448 H 684.735 -2.06619 -3.3289 0
M  V30 7449 H 686.432 -2.43155 -3.18868 0
M  V30 7450 H 683.022 -3.58905 -2.34276 0
M  V30 7451 H 687.206 -4.5229 -2.04322 0
M  V30 7452 H 682.462 -5.88376 -1.66205 0
M  V30 7453 H 686.636 -6.82751 -1.37198 0
M  V30 7454 H 684.263 -7.5105 -1.17591 0
M  V30 7455 N 685.838 0.888903 -1.30139 0
M  V30 7456 C 686.748 2.02705 -1.18101 0
M  V30 7457 C 687.764 1.73702 -0.101809 0
M  V30 7458 O 688.94 1.98906 -0.315984 0
M  V30 7459 C 686.005 3.35616 -0.869651 0
M  V30 7460 C 685.066 3.78067 -2.03381 0
M  V30 7461 C 684.299 5.04635 -1.73721 0
M  V30 7462 O 684.522 5.66531 -0.663267 0
M  V30 7463 O 683.456 5.43399 -2.58845 0
M  V30 7464 H 687.282 2.15788 -2.13704 0
M  V30 7465 H 684.867 1.01426 -1.09695 0
M  V30 7466 H 686.749 4.15358 -0.711043 0
M  V30 7467 H 685.424 3.23651 0.0565002 0
M  V30 7468 H 684.331 2.99046 -2.24772 0
M  V30 7469 H 685.664 3.94631 -2.94155 0
M  V30 7470 N 687.317 1.12792 1.10072 0
M  V30 7471 C 688.249 0.757003 2.16338 0
M  V30 7472 C 689.262 -0.218144 1.61332 0
M  V30 7473 O 690.451 0.0010727 1.785 0
M  V30 7474 C 687.551 0.100303 3.38752 0
M  V30 7475 C 686.724 1.10586 4.2319 0
M  V30 7476 C 685.783 0.47609 5.24042 0
M  V30 7477 O 684.809 1.13418 5.57786 0
M  V30 7478 N 686.011 -0.754823 5.75572 0
M  V30 7479 H 688.776 1.6714 2.48766 0
M  V30 7480 H 686.337 1.02003 1.25726 0
M  V30 7481 H 688.329 -0.333092 4.03327 0
M  V30 7482 H 686.899 -0.716915 3.04268 0
M  V30 7483 H 686.119 1.71677 3.54853 0
M  V30 7484 H 687.407 1.78571 4.76435 0
M  V30 7485 H 686.805 -1.30838 5.50362 0
M  V30 7486 H 685.362 -1.13098 6.41913 0
M  V30 7487 N 688.795 -1.27931 0.920396 0
M  V30 7488 C 689.725 -2.29487 0.431024 0
M  V30 7489 C 690.706 -1.62435 -0.504861 0
M  V30 7490 O 691.891 -1.89797 -0.411176 0
M  V30 7491 C 689.021 -3.45788 -0.323709 0
M  V30 7492 C 687.975 -4.24784 0.523658 0
M  V30 7493 C 687.301 -5.33488 -0.359809 0
M  V30 7494 C 688.601 -4.90874 1.78437 0
M  V30 7495 H 690.295 -2.70671 1.27975 0
M  V30 7496 H 687.841 -1.30121 0.616813 0
M  V30 7497 H 689.794 -4.15927 -0.676952 0
M  V30 7498 H 688.518 -3.03502 -1.2064 0
M  V30 7499 H 687.177 -3.56382 0.85951 0
M  V30 7500 H 686.825 -4.87445 -1.24124 0
M  V30 7501 H 686.525 -5.87247 0.203605 0
M  V30 7502 H 688.049 -6.06472 -0.708787 0
M  V30 7503 H 689.463 -5.53339 1.49963 0
M  V30 7504 H 687.86 -5.54659 2.29071 0
M  V30 7505 H 688.93 -4.14988 2.50824 0
M  V30 7506 N 690.273 -0.685099 -1.4193 0
M  V30 7507 C 691.513 -0.215676 -2.03259 0
M  V30 7508 C 691.877 1.15934 -1.53047 0
M  V30 7509 O 693.078 1.72401 -2.06231 0
M  V30 7510 C 691.349 -0.259649 -3.56456 0
M  V30 7511 S 692.908 0.137262 -4.38585 0
M  V30 7512 H 689.726 -0.0877362 -0.705566 0
M  V30 7513 H 692.328 -0.900547 -1.73523 0
M  V30 7514 H 691.032 -1.26256 -3.90497 0
M  V30 7515 H 690.563 0.444716 -3.90878 0
M  V30 7516 H 692.578 1.36787 -4.76973 0
M  V30 7517 N 691.751 1.51645 -0.429126 0
M  V30 7518 C 693 2.01203 0.141538 0
M  V30 7519 C 693.313 1.31828 1.44502 0
M  V30 7520 O 694.519 1.7231 2.09813 0
M  V30 7521 C 692.975 3.58624 0.302786 0
M  V30 7522 C 692.583 4.3693 -0.989775 0
M  V30 7523 C 694.327 4.16353 0.827661 0
M  V30 7524 C 692.234 5.86037 -0.794619 0
M  V30 7525 H 691.164 0.751867 0.05667 0
M  V30 7526 H 693.815 1.74822 -0.557633 0
M  V30 7527 H 692.197 3.81417 1.06476 0
M  V30 7528 H 693.371 4.25887 -1.75945 0
M  V30 7529 H 691.686 3.90614 -1.44256 0
M  V30 7530 H 694.283 5.25455 0.990026 0
M  V30 7531 H 694.626 3.74995 1.80787 0
M  V30 7532 H 695.159 3.97606 0.124213 0
M  V30 7533 H 691.898 6.31792 -1.74697 0
M  V30 7534 H 691.418 5.99765 -0.0645968 0
M  V30 7535 H 693.097 6.45471 -0.444591 0
M  V30 7536 N 693.229 0.160201 1.56784 0
M  V30 7537 C 694.177 -0.791402 2.18723 0
M  V30 7538 C 695.171 -1.24567 1.14801 0
M  V30 7539 O 696.377 -1.21262 1.33025 0
M  V30 7540 H 692.752 -0.273458 0.700517 0
M  V30 7541 H 694.723 -0.244931 2.97393 0
M  V30 7542 C 693.472 -2.01509 2.83354 0
M  V30 7543 H 692.795 -1.67454 3.63041 0
M  V30 7544 H 694.235 -2.66006 3.30177 0
M  V30 7545 C 692.694 -2.83159 1.82545 0
M  V30 7546 O 693.224 -3.79944 1.30405 0
M  V30 7547 N 691.43 -2.47953 1.51552 0
M  V30 7548 H 690.977 -1.69309 1.94144 0
M  V30 7549 H 690.935 -3.02873 0.843519 0
M  V30 7550 N 694.707 -1.5719 -0.113559 0
M  V30 7551 C 695.937 -1.89053 -0.833212 0
M  V30 7552 C 696.345 -0.750139 -1.73694 0
M  V30 7553 O 695.688 0.287808 -1.81431 0
M  V30 7554 C 695.75 -3.15986 -1.71443 0
M  V30 7555 C 695.414 -4.46271 -0.984449 0
M  V30 7556 C 696.411 -5.18897 -0.322741 0
M  V30 7557 C 694.096 -4.92963 -0.964011 0
M  V30 7558 C 696.09 -6.3644 0.349646 0
M  V30 7559 C 693.777 -6.10422 -0.287828 0
M  V30 7560 C 694.775 -6.82009 0.36784 0
M  V30 7561 O 694.463 -7.97233 1.03322 0
M  V30 7562 H 694.195 -0.630225 -0.244526 0
M  V30 7563 H 696.749 -2.05152 -0.100847 0
M  V30 7564 H 694.979 -2.95984 -2.48858 0
M  V30 7565 H 696.668 -3.33826 -2.309 0
M  V30 7566 H 697.434 -4.83875 -0.330114 0
M  V30 7567 H 693.313 -4.37143 -1.46379 0
M  V30 7568 H 696.857 -6.92254 0.861996 0
M  V30 7569 H 692.754 -6.449 -0.278237 0
M  V30 7570 H 693.522 -8.13105 0.938247 0
M  V30 7571 N 696.185 0.383891 -1.52853 0
M  V30 7572 C 697.413 1.1495 -1.7203 0
M  V30 7573 C 697.828 1.83578 -0.440957 0
M  V30 7574 O 697.185 1.72872 0.584925 0
M  V30 7575 C 697.236 2.19368 -2.87333 0
M  V30 7576 O 696.957 1.53536 -4.10315 0
M  V30 7577 C 698.458 3.08616 -3.18231 0
M  V30 7578 H 695.678 0.344445 -0.575846 0
M  V30 7579 H 698.222 0.448397 -1.99524 0
M  V30 7580 H 696.377 2.85105 -2.62286 0
M  V30 7581 H 696.791 2.2296 -4.74752 0
M  V30 7582 H 698.265 3.77902 -4.02361 0
M  V30 7583 H 698.742 3.72409 -2.32826 0
M  V30 7584 H 699.348 2.48518 -3.45136 0
M  V30 7585 N 697.663 1.43903 0.642637 0
M  V30 7586 C 698.611 1.50164 1.77634 0
M  V30 7587 C 699.605 0.374294 1.65213 0
M  V30 7588 O 700.811 0.548748 1.71431 0
M  V30 7589 H 697.186 0.470974 0.586249 0
M  V30 7590 H 699.157 2.45603 1.69474 0
M  V30 7591 C 697.906 1.45196 3.15933 0
M  V30 7592 H 697.229 2.31253 3.26132 0
M  V30 7593 H 698.669 1.53638 3.95185 0
M  V30 7594 C 697.128 0.171043 3.36466 0
M  V30 7595 O 697.658 -0.763413 3.94379 0
M  V30 7596 N 695.864 0.077847 2.90496 0
M  V30 7597 H 695.411 0.8391 2.43551 0
M  V30 7598 H 695.369 -0.778473 3.0461 0
M  V30 7599 N 699.141 -0.881989 1.30609 0
M  V30 7600 C 700.051 -2.02076 1.19174 0
M  V30 7601 C 701.067 -1.73645 0.11102 0
M  V30 7602 O 702.243 -1.98735 0.326528 0
M  V30 7603 C 699.308 -3.3515 0.887438 0
M  V30 7604 C 698.369 -3.76983 2.05383 0
M  V30 7605 C 697.602 -5.03707 1.76395 0
M  V30 7606 O 697.825 -5.66171 0.693302 0
M  V30 7607 O 696.759 -5.42019 2.61723 0
M  V30 7608 H 700.585 -2.14652 2.14845 0
M  V30 7609 H 698.17 -1.00843 1.10232 0
M  V30 7610 H 700.052 -4.14975 0.73306 0
M  V30 7611 H 698.727 -3.23676 -0.0393354 0
M  V30 7612 H 697.634 -2.97849 2.26355 0
M  V30 7613 H 698.967 -3.93066 2.96243 0
M  V30 7614 N 700.619 -1.13374 -1.09472 0
M  V30 7615 C 701.566 -0.810682 -2.16094 0
M  V30 7616 C 702.536 0.227003 -1.64541 0
M  V30 7617 O 703.721 0.0993538 -1.90541 0
M  V30 7618 C 700.861 -0.282336 -3.43943 0
M  V30 7619 C 699.974 -1.37902 -4.09398 0
M  V30 7620 C 699.109 -0.809066 -5.25002 0
M  V30 7621 C 698.148 -1.88419 -5.82379 0
M  V30 7622 N 697.285 -1.33221 -6.89345 0
M  V30 7623 H 702.125 -1.72397 -2.43071 0
M  V30 7624 H 699.662 -0.860564 -1.19301 0
M  V30 7625 H 701.62 0.0421189 -4.17179 0
M  V30 7626 H 700.25 0.594083 -3.17286 0
M  V30 7627 H 699.302 -1.82008 -3.34032 0
M  V30 7628 H 700.614 -2.19161 -4.48074 0
M  V30 7629 H 699.768 -0.435867 -6.05132 0
M  V30 7630 H 698.507 0.0346058 -4.87688 0
M  V30 7631 H 697.512 -2.26646 -5.00911 0
M  V30 7632 H 698.737 -2.73125 -6.21755 0
M  V30 7633 H 696.683 -0.510535 -6.5401 0
M  V30 7634 H 696.6 -2.08129 -7.26786 0
M  V30 7635 H 697.868 -0.986565 -7.73232 0
M  V30 7636 N 702.098 1.27442 -0.927168 0
M  V30 7637 C 703.028 2.29256 -0.443188 0
M  V30 7638 C 704.009 1.62701 0.49624 0
M  V30 7639 O 705.194 1.90013 0.401105 0
M  V30 7640 C 702.324 3.45955 0.305366 0
M  V30 7641 C 701.278 4.24501 -0.546178 0
M  V30 7642 C 700.604 5.33671 0.331512 0
M  V30 7643 C 701.904 4.89921 -1.81037 0
M  V30 7644 H 703.598 2.69988 -1.29409 0
M  V30 7645 H 701.144 1.29792 -0.623705 0
M  V30 7646 H 703.097 4.1628 0.654885 0
M  V30 7647 H 701.821 3.04138 1.19029 0
M  V30 7648 H 700.48 3.55921 -0.878398 0
M  V30 7649 H 700.128 4.88096 1.21537 0
M  V30 7650 H 699.828 5.87131 -0.234746 0
M  V30 7651 H 701.352 6.0684 0.676614 0
M  V30 7652 H 702.766 5.52536 -1.52895 0
M  V30 7653 H 701.163 5.53436 -2.32009 0
M  V30 7654 H 702.233 4.13652 -2.53021 0
M  V30 7655 N 703.576 0.692616 1.41565 0
M  V30 7656 C 704.508 -0.0137132 2.29196 0
M  V30 7657 C 705.521 -0.747417 1.44629 0
M  V30 7658 O 706.71 -0.598611 1.68163 0
M  V30 7659 C 703.81 -1.04347 3.22436 0
M  V30 7660 C 702.983 -0.379985 4.35746 0
M  V30 7661 C 702.042 -1.31195 5.09583 0
M  V30 7662 O 701.068 -0.805455 5.63472 0
M  V30 7663 N 702.27 -2.64443 5.16769 0
M  V30 7664 H 705.035 0.738614 2.90456 0
M  V30 7665 H 702.596 0.538415 1.52685 0
M  V30 7666 H 704.588 -1.6686 3.687 0
M  V30 7667 H 703.158 -1.69736 2.62504 0
M  V30 7668 H 702.378 0.424975 3.91903 0
M  V30 7669 H 703.666 0.0814904 5.08735 0
M  V30 7670 H 703.064 -3.08114 4.74428 0
M  V30 7671 H 701.621 -3.22159 5.66619 0
M  V30 7672 N 705.054 -1.51416 0.437162 0
M  V30 7673 C 705.986 -2.255 -0.410171 0
M  V30 7674 C 706.999 -1.29511 -0.986444 0
M  V30 7675 O 708.188 -1.55266 -0.880614 0
M  V30 7676 C 705.288 -2.99511 -1.58575 0
M  V30 7677 C 704.461 -4.22595 -1.12839 0
M  V30 7678 C 703.52 -4.79187 -2.17407 0
M  V30 7679 O 702.546 -5.4103 -1.76849 0
M  V30 7680 N 703.748 -4.63204 -3.49889 0
M  V30 7681 H 706.513 -2.98856 0.224783 0
M  V30 7682 H 704.074 -1.59699 0.266041 0
M  V30 7683 H 706.066 -3.34258 -2.28152 0
M  V30 7684 H 704.636 -2.29167 -2.12606 0
M  V30 7685 H 703.856 -3.93344 -0.259695 0
M  V30 7686 H 705.144 -5.02468 -0.800196 0
M  V30 7687 H 704.542 -4.13945 -3.85573 0
M  V30 7688 H 703.099 -5.02313 -4.15361 0
M  V30 7689 N 706.532 -0.168513 -1.56696 0
M  V30 7690 C 707.462 0.758563 -2.20835 0
M  V30 7691 C 708.443 1.24121 -1.1631 0
M  V30 7692 O 709.628 1.29487 -1.4473 0
M  V30 7693 C 706.758 1.9892 -2.8469 0
M  V30 7694 C 705.712 1.64252 -3.95228 0
M  V30 7695 C 705.038 2.94757 -4.46119 0
M  V30 7696 C 706.338 0.872675 -5.14958 0
M  V30 7697 H 708.032 0.223953 -2.98561 0
M  V30 7698 H 705.578 0.106277 -1.43607 0
M  V30 7699 H 707.531 2.64275 -3.28233 0
M  V30 7700 H 706.255 2.5479 -2.04327 0
M  V30 7701 H 704.914 1.01266 -3.52336 0
M  V30 7702 H 704.562 3.48662 -3.62552 0
M  V30 7703 H 704.262 2.72316 -5.2069 0
M  V30 7704 H 705.786 3.61147 -4.92347 0
M  V30 7705 H 707.2 1.42875 -5.55211 0
M  V30 7706 H 705.597 0.747402 -5.95428 0
M  V30 7707 H 706.667 -0.131535 -4.84722 0
M  V30 7708 N 708.01 1.57248 0.105221 0
M  V30 7709 C 709.257 1.8557 0.810552 0
M  V30 7710 C 709.585 0.755595 1.79223 0
M  V30 7711 O 708.84 -0.251788 1.94073 0
M  V30 7712 C 709.139 3.20437 1.58287 0
M  V30 7713 C 708.805 4.44716 0.744235 0
M  V30 7714 C 707.467 4.78458 0.513013 0
M  V30 7715 C 709.819 5.20953 0.160578 0
M  V30 7716 C 707.147 5.8587 -0.311894 0
M  V30 7717 C 709.499 6.29235 -0.651596 0
M  V30 7718 C 708.163 6.615 -0.893005 0
M  V30 7719 H 707.433 0.67905 0.296602 0
M  V30 7720 H 710.08 1.91363 0.0723968 0
M  V30 7721 H 708.385 3.10283 2.39232 0
M  V30 7722 H 710.082 3.39576 2.13282 0
M  V30 7723 H 706.672 4.18287 0.934555 0
M  V30 7724 H 710.856 4.95226 0.3264 0
M  V30 7725 H 706.112 6.09286 -0.508012 0
M  V30 7726 H 710.286 6.87484 -1.11077 0
M  V30 7727 H 707.913 7.44562 -1.53401 0
M  V30 7728 N 709.488 -0.375779 1.53054 0
M  V30 7729 C 710.436 -1.48015 1.79428 0
M  V30 7730 C 711.43 -1.55893 0.662854 0
M  V30 7731 O 712.636 -1.58901 0.845599 0
M  V30 7732 H 709.011 -0.492887 0.56795 0
M  V30 7733 H 710.982 -1.22971 2.71884 0
M  V30 7734 C 709.731 -2.84984 1.99197 0
M  V30 7735 H 709.054 -2.79677 2.85693 0
M  V30 7736 H 710.494 -3.61462 2.21633 0
M  V30 7737 C 708.953 -3.28025 0.768183 0
M  V30 7738 O 709.483 -4.01671 -0.0480482 0
M  V30 7739 N 707.689 -2.84454 0.594521 0
M  V30 7740 H 707.236 -2.24688 1.25988 0
M  V30 7741 H 707.194 -3.13609 -0.222916 0
M  V30 7742 N 710.966 -1.44241 -0.634997 0
M  V30 7743 C 711.916 -1.47247 -1.74076 0
M  V30 7744 C 712.9 -0.338708 -1.57295 0
M  V30 7745 O 714.092 -0.583751 -1.67097 0
M  V30 7746 C 711.221 -1.41579 -3.12746 0
M  V30 7747 C 710.307 -2.60055 -3.35011 0
M  V30 7748 N 710.698 -3.85321 -3.27661 0
M  V30 7749 C 708.996 -2.55168 -3.65794 0
M  V30 7750 C 709.697 -4.64241 -3.50508 0
M  V30 7751 N 708.673 -3.95254 -3.73196 0
M  V30 7752 H 712.475 -2.4195 -1.66845 0
M  V30 7753 H 709.989 -1.3915 -0.837326 0
M  V30 7754 H 711.986 -1.41816 -3.92038 0
M  V30 7755 H 710.646 -0.479108 -3.21146 0
M  V30 7756 H 711.657 -4.17345 -3.06665 0
M  V30 7757 H 708.334 -1.70276 -3.81198 0
M  V30 7758 H 709.724 -5.73267 -3.50449 0
M  V30 7759 N 712.444 0.87505 -1.31075 0
M  V30 7760 C 713.672 1.66058 -1.23419 0
M  V30 7761 C 714.087 1.87723 0.201347 0
M  V30 7762 O 713.444 1.43178 1.13165 0
M  V30 7763 C 713.495 3.03142 -1.96945 0
M  V30 7764 O 713.216 2.82448 -3.34895 0
M  V30 7765 C 714.717 3.97583 -1.96067 0
M  V30 7766 H 711.937 0.517868 -0.426677 0
M  V30 7767 H 714.481 1.09258 -1.72867 0
M  V30 7768 H 712.636 3.56645 -1.51271 0
M  V30 7769 H 713.05 3.69483 -3.72267 0
M  V30 7770 H 714.524 4.91104 -2.52034 0
M  V30 7771 H 715.001 4.2898 -0.941961 0
M  V30 7772 H 715.607 3.50015 -2.41597 0
M  V30 7773 N 713.922 1.13953 1.08869 0
M  V30 7774 C 714.855 0.765765 2.14968 0
M  V30 7775 C 715.833 -0.250689 1.60656 0
M  V30 7776 O 717.017 -0.140852 1.87973 0
M  V30 7777 C 714.144 0.136146 3.38426 0
M  V30 7778 C 713.19 1.12201 4.11477 0
M  V30 7779 S 714.023 2.65711 4.64928 0
M  V30 7780 C 715.179 2.04125 5.91679 0
M  V30 7781 H 715.412 1.66444 2.46341 0
M  V30 7782 H 712.945 0.960263 1.20906 0
M  V30 7783 H 714.903 -0.220712 4.09906 0
M  V30 7784 H 713.564 -0.739887 3.05261 0
M  V30 7785 H 712.757 0.629398 5.00055 0
M  V30 7786 H 712.359 1.42262 3.45886 0
M  V30 7787 H 714.651 1.39381 6.63008 0
M  V30 7788 H 715.594 2.90808 6.45629 0
M  V30 7789 H 716.002 1.4905 5.44467 0
M  V30 7790 N 715.4 -1.26948 0.933913 0
M  V30 7791 C 716.647 -1.94087 0.577625 0
M  V30 7792 C 716.975 -1.73345 -0.88214 0
M  V30 7793 O 716.23 -1.05945 -1.64542 0
M  V30 7794 C 716.529 -3.46963 0.857406 0
M  V30 7795 C 716.195 -3.87834 2.2999 0
M  V30 7796 C 714.857 -3.98704 2.69423 0
M  V30 7797 C 717.209 -4.08442 3.23766 0
M  V30 7798 C 714.537 -4.27573 4.01744 0
M  V30 7799 C 716.889 -4.38798 4.55675 0
M  V30 7800 C 715.553 -4.47881 4.94934 0
M  V30 7801 H 714.823 -0.710215 0.211368 0
M  V30 7802 H 717.47 -1.50899 1.17905 0
M  V30 7803 H 715.775 -3.91416 0.173369 0
M  V30 7804 H 717.472 -3.97062 0.560615 0
M  V30 7805 H 714.062 -3.79916 1.98399 0
M  V30 7806 H 718.246 -3.99479 2.94499 0
M  V30 7807 H 713.502 -4.32815 4.31834 0
M  V30 7808 H 717.676 -4.5369 5.28335 0
M  V30 7809 H 715.303 -4.70005 5.97495 0
M  V30 7810 N 716.879 -0.700114 -1.41195 0
M  V30 7811 C 718.128 -0.230082 -2.00383 0
M  V30 7812 C 718.441 1.17857 -1.56106 0
M  V30 7813 O 719.647 1.74631 -2.07885 0
M  V30 7814 C 718.103 -0.360447 -3.5809 0
M  V30 7815 C 717.711 -1.77475 -4.11347 0
M  V30 7816 C 719.455 0.0495799 -4.24471 0
M  V30 7817 C 717.362 -1.85653 -5.61504 0
M  V30 7818 H 716.292 -0.0822633 -0.749499 0
M  V30 7819 H 718.943 -0.868969 -1.6162 0
M  V30 7820 H 717.325 0.346768 -3.94479 0
M  V30 7821 H 718.499 -2.51109 -3.86369 0
M  V30 7822 H 716.814 -2.13486 -3.57509 0
M  V30 7823 H 719.411 0.00898219 -5.34699 0
M  V30 7824 H 719.754 1.08904 -4.01803 0
M  V30 7825 H 720.287 -0.607521 -3.93134 0
M  V30 7826 H 717.026 -2.87667 -5.89006 0
M  V30 7827 H 716.546 -1.1641 -5.88395 0
M  V30 7828 H 718.225 -1.62151 -6.26351 0
M  V30 7829 N 718.357 1.51182 -0.445186 0
M  V30 7830 C 719.287 2.30821 0.352686 0
M  V30 7831 C 720.268 1.36576 1.01395 0
M  V30 7832 O 721.453 1.65497 1.01609 0
M  V30 7833 C 718.583 3.15593 1.44976 0
M  V30 7834 C 717.537 4.1818 0.911553 0
M  V30 7835 C 716.863 4.91523 2.10497 0
M  V30 7836 C 718.163 5.22266 -0.059418 0
M  V30 7837 H 719.857 2.97771 -0.311936 0
M  V30 7838 H 717.403 1.43201 -0.151461 0
M  V30 7839 H 719.356 3.70091 2.01521 0
M  V30 7840 H 718.08 2.4648 2.14278 0
M  V30 7841 H 716.739 3.64746 0.368264 0
M  V30 7842 H 716.387 4.18906 2.78437 0
M  V30 7843 H 716.087 5.60898 1.7512 0
M  V30 7844 H 717.611 5.48847 2.6758 0
M  V30 7845 H 719.025 5.71789 0.415985 0
M  V30 7846 H 717.422 5.99213 -0.326152 0
M  V30 7847 H 718.492 4.7461 -0.993631 0
M  V30 7848 N 719.835 0.176821 1.56605 0
M  V30 7849 C 720.745 -0.763682 2.21822 0
M  V30 7850 C 721.761 -1.24889 1.21156 0
M  V30 7851 O 722.937 -1.29987 1.53836 0
M  V30 7852 C 720.002 -1.97352 2.8505 0
M  V30 7853 C 719.063 -1.53466 4.00932 0
M  V30 7854 C 718.296 -2.68682 4.61135 0
M  V30 7855 O 718.519 -3.85694 4.20234 0
M  V30 7856 O 717.453 -2.42442 5.50913 0
M  V30 7857 H 721.279 -0.238363 3.02763 0
M  V30 7858 H 718.864 -0.0516331 1.49311 0
M  V30 7859 H 720.746 -2.68096 3.25119 0
M  V30 7860 H 719.421 -2.48779 2.07101 0
M  V30 7861 H 718.328 -0.796551 3.65521 0
M  V30 7862 H 719.661 -1.06724 4.8049 0
M  V30 7863 N 721.313 -1.57302 -0.09688 0
M  V30 7864 C 722.245 -1.98618 -1.14384 0
M  V30 7865 C 723.258 -0.888483 -1.36418 0
M  V30 7866 O 724.447 -1.16661 -1.35101 0
M  V30 7867 C 721.547 -2.28838 -2.49973 0
M  V30 7868 C 720.72 -3.60132 -2.48241 0
M  V30 7869 C 719.779 -3.7831 -3.65743 0
M  V30 7870 O 718.805 -4.50183 -3.48316 0
M  V30 7871 N 720.007 -3.18752 -4.85157 0
M  V30 7872 H 722.772 -2.8904 -0.792202 0
M  V30 7873 H 720.333 -1.59356 -0.285883 0
M  V30 7874 H 722.325 -2.38193 -3.27179 0
M  V30 7875 H 720.895 -1.44431 -2.77233 0
M  V30 7876 H 720.115 -3.61763 -1.56593 0
M  V30 7877 H 721.403 -4.46389 -2.4416 0
M  V30 7878 H 720.801 -2.60368 -5.0222 0
M  V30 7879 H 719.358 -3.33595 -5.59962 0
M  V30 7880 N 722.791 0.367657 -1.53252 0
M  V30 7881 C 723.701 1.47415 -1.82499 0
M  V30 7882 C 724.717 1.58711 -0.713222 0
M  V30 7883 O 725.893 1.74644 -1.00306 0
M  V30 7884 C 722.958 2.82706 -2.00694 0
M  V30 7885 C 722.019 2.80955 -3.24596 0
M  V30 7886 C 721.252 4.09793 -3.41914 0
M  V30 7887 O 721.475 5.05852 -2.63572 0
M  V30 7888 O 720.409 4.15731 -4.3526 0
M  V30 7889 H 724.235 1.25624 -2.765 0
M  V30 7890 H 721.82 0.557559 -1.38606 0
M  V30 7891 H 723.702 3.62873 -2.14246 0
M  V30 7892 H 722.377 3.04479 -1.09883 0
M  V30 7893 H 721.284 1.99494 -3.16469 0
M  V30 7894 H 722.617 2.64136 -4.15323 0
M  V30 7895 N 724.269 1.44576 0.627338 0
M  V30 7896 C 725.179 1.54232 1.76776 0
M  V30 7897 C 726.195 0.427782 1.6866 0
M  V30 7898 O 727.371 0.685671 1.89369 0
M  V30 7899 C 724.436 1.48738 3.13174 0
M  V30 7900 C 723.497 2.71074 3.32893 0
M  V30 7901 C 722.73 2.65832 4.62784 0
M  V30 7902 O 722.953 1.72048 5.43834 0
M  V30 7903 O 721.887 3.56742 4.84787 0
M  V30 7904 H 725.713 2.50586 1.71582 0
M  V30 7905 H 723.298 1.26865 0.789028 0
M  V30 7906 H 725.18 1.48211 3.94476 0
M  V30 7907 H 723.855 0.555292 3.18902 0
M  V30 7908 H 722.762 2.77168 2.51254 0
M  V30 7909 H 724.095 3.63342 3.32029 0
M  V30 7910 N 725.747 -0.868086 1.31537 0
M  V30 7911 C 726.977 -1.65162 1.24118 0
M  V30 7912 C 727.385 -1.88187 -0.195558 0
M  V30 7913 O 726.728 -1.44154 -1.13866 0
M  V30 7914 C 726.79 -3.04119 1.91708 0
M  V30 7915 C 726.454 -3.04194 3.4105 0
M  V30 7916 C 727.451 -2.82016 4.36764 0
M  V30 7917 C 725.136 -3.25256 3.82772 0
M  V30 7918 C 727.13 -2.80881 5.72175 0
M  V30 7919 C 724.817 -3.23749 5.18295 0
M  V30 7920 C 725.815 -3.01589 6.12808 0
M  V30 7921 O 725.503 -2.9993 7.45853 0
M  V30 7922 H 725.235 -0.521597 0.430015 0
M  V30 7923 H 727.789 -1.09165 1.73989 0
M  V30 7924 H 726.019 -3.61849 1.36389 0
M  V30 7925 H 727.708 -3.64701 1.78179 0
M  V30 7926 H 728.474 -2.65525 4.05859 0
M  V30 7927 H 724.353 -3.41534 3.09638 0
M  V30 7928 H 727.897 -2.63503 6.45919 0
M  V30 7929 H 723.794 -3.39781 5.48834 0
M  V30 7930 H 724.562 -3.15979 7.55049 0
M  V30 7931 N 727.225 -1.14528 -1.08264 0
M  V30 7932 C 728.157 -0.791325 -2.15106 0
M  V30 7933 C 729.17 0.192449 -1.61659 0
M  V30 7934 O 730.359 -0.0294704 -1.78476 0
M  V30 7935 C 727.459 -0.154183 -3.38549 0
M  V30 7936 C 726.632 -1.17305 -4.21377 0
M  V30 7937 C 725.691 -0.559401 -5.23218 0
M  V30 7938 O 724.717 -1.22277 -5.55911 0
M  V30 7939 N 725.919 0.663159 -5.767 0
M  V30 7940 H 728.684 -1.71076 -2.46075 0
M  V30 7941 H 726.245 -1.0399 -1.24087 0
M  V30 7942 H 728.237 0.268884 -4.03806 0
M  V30 7943 H 726.807 0.668418 -3.0537 0
M  V30 7944 H 726.027 -1.773 -3.52077 0
M  V30 7945 H 727.315 -1.86128 -4.73533 0
M  V30 7946 H 726.713 1.22066 -5.52373 0
M  V30 7947 H 725.27 1.02871 -6.43631 0
M  V30 7948 N 728.703 1.26451 -0.940633 0
M  V30 7949 C 730.119 1.4608 -0.642859 0
M  V30 7950 C 730.319 1.84765 0.803998 0
M  V30 7951 O 729.375 1.96902 1.58069 0
M  V30 7952 C 730.688 2.54359 -1.60381 0
M  V30 7953 C 732.236 2.6821 -1.61345 0
M  V30 7954 C 732.711 3.79659 -2.56169 0
M  V30 7955 N 734.202 3.87051 -2.54452 0
M  V30 7956 C 734.937 4.72739 -3.24507 0
M  V30 7957 N 734.433 5.6282 -4.03987 0
M  V30 7958 N 736.226 4.66581 -3.13462 0
M  V30 7959 H 728.377 0.996289 -1.87584 0
M  V30 7960 H 730.64 0.498921 -0.80609 0
M  V30 7961 H 730.346 2.32758 -2.6366 0
M  V30 7962 H 730.22 3.52005 -1.35545 0
M  V30 7963 H 732.607 2.89184 -0.587913 0
M  V30 7964 H 732.688 1.7101 -1.90235 0
M  V30 7965 H 732.332 3.59438 -3.58841 0
M  V30 7966 H 732.262 4.76315 -2.2457 0
M  V30 7967 H 734.753 3.22649 -1.96739 0
M  V30 7968 H 735.066 6.25095 -4.54396 0
M  V30 7969 H 733.411 5.62574 -4.08088 0
M  V30 7970 H 736.602 3.9521 -2.50852 0
M  V30 7971 H 736.775 5.33141 -3.68327 0
M  V30 7972 N 730.181 0.707592 1.40822 0
M  V30 7973 C 731.091 0.0507246 2.34545 0
M  V30 7974 C 732.107 -0.752727 1.56876 0
M  V30 7975 O 733.283 -0.687524 1.89302 0
M  V30 7976 C 730.348 -0.865731 3.35717 0
M  V30 7977 C 729.409 -0.0531313 4.29267 0
M  V30 7978 C 728.642 -0.925939 5.25606 0
M  V30 7979 O 728.865 -2.16531 5.27703 0
M  V30 7980 O 727.799 -0.369194 6.00767 0
M  V30 7981 H 731.625 0.823587 2.9232 0
M  V30 7982 H 729.21 0.46801 1.4188 0
M  V30 7983 H 731.092 -1.39091 3.97783 0
M  V30 7984 H 729.767 -1.61788 2.80368 0
M  V30 7985 H 728.674 0.516931 3.70511 0
M  V30 7986 H 730.007 0.660617 4.87747 0
M  V30 7987 N 731.66 -1.50943 0.453197 0
M  V30 7988 C 732.908 -2.01813 -0.107709 0
M  V30 7989 C 733.229 -1.33841 -1.41816 0
M  V30 7990 O 732.499 -0.477973 -1.8998 0
M  V30 7991 H 731.079 -0.745773 -0.0427948 0
M  V30 7992 H 733.741 -1.8545 0.599531 0
M  V30 7993 H 732.837 -3.10911 -0.27218 0
M  V30 7994 N 733.138 -0.185124 -1.56509 0
M  V30 7995 C 734.387 0.456421 -1.96468 0
M  V30 7996 C 734.7 1.63448 -1.07444 0
M  V30 7997 O 735.906 2.34316 -1.37143 0
M  V30 7998 C 734.362 0.863404 -3.4939 0
M  V30 7999 C 733.97 -0.289815 -4.47062 0
M  V30 8000 C 735.714 1.47259 -3.98139 0
M  V30 8001 C 733.621 0.137571 -5.9124 0
M  V30 8002 H 732.551 0.17429 -0.733579 0
M  V30 8003 H 735.202 -0.275554 -1.81419 0
M  V30 8004 H 733.584 1.65176 -3.59907 0
M  V30 8005 H 734.758 -1.06728 -4.4827 0
M  V30 8006 H 733.073 -0.809851 -4.08449 0
M  V30 8007 H 735.67 1.80463 -5.03326 0
M  V30 8008 H 736.013 2.3755 -3.41871 0
M  V30 8009 H 736.546 0.748405 -3.90696 0
M  V30 8010 H 733.285 -0.730907 -6.51412 0
M  V30 8011 H 732.805 0.8801 -5.93308 0
M  V30 8012 H 734.484 0.576771 -6.44424 0
M  V30 8013 N 734.616 1.57351 0.0885366 0
M  V30 8014 C 735.526 2.05858 1.12516 0
M  V30 8015 C 736.542 0.984758 1.43452 0
M  V30 8016 O 737.718 1.29836 1.53963 0
M  V30 8017 C 734.783 2.47882 2.42395 0
M  V30 8018 C 733.844 3.69487 2.18582 0
M  V30 8019 C 733.077 4.09497 3.42268 0
M  V30 8020 O 733.3 3.49536 4.50755 0
M  V30 8021 O 732.234 5.02406 3.31469 0
M  V30 8022 H 736.06 2.94467 0.743146 0
M  V30 8023 H 733.645 1.46326 0.301507 0
M  V30 8024 H 735.527 2.75509 3.18862 0
M  V30 8025 H 734.202 1.62408 2.8001 0
M  V30 8026 H 733.109 3.46967 1.39875 0
M  V30 8027 H 734.442 4.55761 1.85857 0
M  V30 8028 N 736.094 -0.359525 1.53444 0
M  V30 8029 C 737.34 -1.09958 1.71116 0
M  V30 8030 C 737.695 -1.8681 0.460414 0
M  V30 8031 O 736.988 -1.83635 -0.5467 0
M  V30 8032 C 737.182 -2.08287 2.90433 0
M  V30 8033 C 737.011 -1.41098 4.26991 0
M  V30 8034 C 735.781 -1.16255 4.91745 0
M  V30 8035 C 737.979 -0.845517 5.07302 0
M  V30 8036 N 735.961 -0.454798 6.12213 0
M  V30 8037 C 737.332 -0.267455 6.19423 0
M  V30 8038 C 739.387 -0.744797 4.92298 0
M  V30 8039 C 738.09 0.401511 7.18179 0
M  V30 8040 C 740.116 -0.0896013 5.91332 0
M  V30 8041 C 739.478 0.47756 7.02779 0
M  V30 8042 H 735.577 -0.387305 0.679352 0
M  V30 8043 H 738.161 -0.38519 1.90852 0
M  V30 8044 H 736.332 -2.77034 2.72226 0
M  V30 8045 H 738.064 -2.75015 2.96899 0
M  V30 8046 H 734.819 -1.44544 4.51003 0
M  V30 8047 H 735.243 -0.116108 6.769 0
M  V30 8048 H 739.885 -1.16905 4.06317 0
M  V30 8049 H 737.603 0.837694 8.03746 0
M  V30 8050 H 741.189 -0.0125162 5.81799 0
M  V30 8051 H 740.069 0.976522 7.78096 0
M  V30 8052 N 737.572 -1.44907 -0.619662 0
M  V30 8053 C 738.52 -1.52971 -1.75222 0
M  V30 8054 C 739.514 -0.400531 -1.64597 0
M  V30 8055 O 740.72 -0.575952 -1.70537 0
M  V30 8056 H 737.095 -0.480241 -0.578682 0
M  V30 8057 H 739.066 -2.48269 -1.65545 0
M  V30 8058 C 737.815 -1.50204 -3.13583 0
M  V30 8059 H 737.138 -2.36412 -3.22412 0
M  V30 8060 H 738.578 -1.59905 -3.92691 0
M  V30 8061 C 737.037 -0.22455 -3.36151 0
M  V30 8062 O 737.567 0.700574 -3.95544 0
M  V30 8063 N 735.773 -0.124052 -2.90335 0
M  V30 8064 H 735.32 -0.87774 -2.42185 0
M  V30 8065 H 735.278 0.729914 -3.0581 0
M  V30 8066 N 739.05 0.861098 -1.31996 0
M  V30 8067 C 740.297 1.61481 -1.22188 0
M  V30 8068 C 740.625 1.93276 0.217853 0
M  V30 8069 O 739.88 1.56942 1.16909 0
M  V30 8070 C 740.179 2.94822 -2.02027 0
M  V30 8071 C 739.845 2.82483 -3.51446 0
M  V30 8072 C 738.507 2.78825 -3.92186 0
M  V30 8073 C 740.859 2.68878 -4.46491 0
M  V30 8074 C 738.187 2.59433 -5.26224 0
M  V30 8075 C 740.539 2.51022 -5.80664 0
M  V30 8076 C 739.203 2.45753 -6.20614 0
M  V30 8077 H 738.473 0.590902 -0.447119 0
M  V30 8078 H 741.12 0.999376 -1.63355 0
M  V30 8079 H 739.425 3.6045 -1.53569 0
M  V30 8080 H 741.122 3.52149 -1.91812 0
M  V30 8081 H 737.712 2.86152 -3.19085 0
M  V30 8082 H 741.896 2.70754 -4.1594 0
M  V30 8083 H 737.152 2.53784 -5.5624 0
M  V30 8084 H 741.326 2.39473 -6.53931 0
M  V30 8085 H 738.953 2.30485 -7.24417 0
M  V30 8086 N 740.528 1.15101 1.07655 0
M  V30 8087 C 741.777 0.918528 1.79572 0
M  V30 8088 C 742.09 -0.555922 1.87534 0
M  V30 8089 O 743.296 -0.905893 2.55941 0
M  V30 8090 C 741.752 1.59394 3.22679 0
M  V30 8091 C 741.36 3.1052 3.22927 0
M  V30 8092 C 743.104 1.44289 3.99225 0
M  V30 8093 C 741.011 3.70862 4.60668 0
M  V30 8094 H 739.941 0.340006 0.672987 0
M  V30 8095 H 742.592 1.38079 1.20857 0
M  V30 8096 H 740.974 1.05936 3.81567 0
M  V30 8097 H 742.148 3.70708 2.737 0
M  V30 8098 H 740.463 3.25351 2.59876 0
M  V30 8099 H 743.06 1.86766 5.01022 0
M  V30 8100 H 743.403 0.389975 4.14469 0
M  V30 8101 H 743.936 1.94826 3.46825 0
M  V30 8102 H 740.675 4.7604 4.50628 0
M  V30 8103 H 740.195 3.15456 5.10145 0
M  V30 8104 H 741.874 3.71607 5.29639 0
M  V30 8105 N 742.006 -1.2595 0.947325 0
M  V30 8106 C 743.283 -1.88676 0.515824 0
M  V30 8107 C 743.663 -1.85547 -1.00675 0
M  V30 8108 O 743.011 -1.31399 -1.8694 0
M  V30 8109 C 743.221 -3.31734 1.08415 0
M  V30 8110 C 744.569 -4.08545 1.15654 0
M  V30 8111 O 745.593 -3.40826 1.03517 0
M  V30 8112 O 744.452 -5.29663 1.34608 0
M  V30 8113 H 741.546 -0.809537 0.169055 0
M  V30 8114 H 744.092 -1.34075 1.04029 0
M  V30 8115 H 742.864 -3.28404 2.1276 0
M  V30 8116 H 742.487 -3.93882 0.542499 0
M  V30 8117 N 743.484 -0.715051 -1.40445 0
M  V30 8118 C 744.731 -0.254328 -2.00897 0
M  V30 8119 C 745.059 1.15228 -1.56693 0
M  V30 8120 O 744.314 1.7958 -0.777786 0
M  V30 8121 C 744.613 -0.281791 -3.56287 0
M  V30 8122 C 744.279 -1.63862 -4.20071 0
M  V30 8123 C 742.941 -2.01003 -4.37208 0
M  V30 8124 C 745.293 -2.53039 -4.55654 0
M  V30 8125 C 742.621 -3.26869 -4.8721 0
M  V30 8126 C 744.973 -3.78256 -5.07055 0
M  V30 8127 C 743.637 -4.15515 -5.22401 0
M  V30 8128 H 742.907 -0.0930652 -0.735133 0
M  V30 8129 H 745.554 -0.917977 -1.68064 0
M  V30 8130 H 743.859 0.465428 -3.89026 0
M  V30 8131 H 745.556 0.0925158 -4.00893 0
M  V30 8132 H 742.146 -1.33979 -4.07121 0
M  V30 8133 H 746.33 -2.2562 -4.42051 0
M  V30 8134 H 741.586 -3.55706 -4.97276 0
M  V30 8135 H 745.76 -4.47528 -5.33565 0
M  V30 8136 H 743.387 -5.13114 -5.60909 0
M  V30 8137 N 744.962 1.50701 -0.461195 0
M  V30 8138 C 746.21 2.01867 0.0970051 0
M  V30 8139 C 746.531 1.34591 1.41104 0
M  V30 8140 O 745.801 0.488041 1.89723 0
M  V30 8141 H 744.381 0.74599 0.0388392 0
M  V30 8142 H 747.043 1.85129 -0.609357 0
M  V30 8143 H 746.139 3.11051 0.255688 0
M  V30 8144 N 746.441 0.193421 1.56409 0
M  V30 8145 C 747.371 -0.723334 2.22014 0
M  V30 8146 C 748.352 -1.22254 1.1827 0
M  V30 8147 O 749.537 -1.27168 1.46771 0
M  V30 8148 C 746.667 -1.94366 2.87818 0
M  V30 8149 C 745.621 -1.57943 3.97791 0
M  V30 8150 C 744.947 -2.87623 4.50752 0
M  V30 8151 C 746.247 -0.790639 5.16281 0
M  V30 8152 H 747.941 -0.176426 2.9888 0
M  V30 8153 H 745.487 -0.0834166 1.43758 0
M  V30 8154 H 747.44 -2.5902 3.32396 0
M  V30 8155 H 746.164 -2.51507 2.08355 0
M  V30 8156 H 744.823 -0.956482 3.53903 0
M  V30 8157 H 744.471 -3.4285 3.68053 0
M  V30 8158 H 744.171 -2.63998 5.24956 0
M  V30 8159 H 745.695 -3.53268 4.9803 0
M  V30 8160 H 747.109 -1.34024 5.57414 0
M  V30 8161 H 745.506 -0.65258 5.96541 0
M  V30 8162 H 746.576 0.208633 4.84451 0
M  V30 8163 N 747.919 -1.57396 -0.0801906 0
M  V30 8164 C 749.196 -1.77883 -0.813451 0
M  V30 8165 C 749.576 -0.778879 -1.96206 0
M  V30 8166 O 748.924 0.189683 -2.27711 0
M  V30 8167 C 749.134 -3.24116 -1.2942 0
M  V30 8168 C 750.482 -3.87714 -1.73098 0
M  V30 8169 O 751.506 -3.27956 -1.39007 0
M  V30 8170 O 750.365 -4.92828 -2.36184 0
M  V30 8171 H 747.459 -0.729727 -0.389138 0
M  V30 8172 H 750.005 -1.69591 -0.0609166 0
M  V30 8173 H 748.777 -3.88443 -0.471947 0
M  V30 8174 H 748.4 -3.371 -2.1083 0
M  V30 8175 N 749.397 0.351382 -1.53633 0
M  V30 8176 C 750.327 1.43688 -1.84055 0
M  V30 8177 C 751.308 1.55251 -0.695073 0
M  V30 8178 O 752.493 1.69587 -0.946257 0
M  V30 8179 C 749.623 2.80843 -2.04315 0
M  V30 8180 C 748.577 2.84094 -3.20117 0
M  V30 8181 C 747.903 4.2406 -3.25696 0
M  V30 8182 C 749.203 2.50334 -4.58399 0
M  V30 8183 H 750.897 1.18478 -2.74961 0
M  V30 8184 H 748.443 0.568509 -1.32303 0
M  V30 8185 H 750.396 3.56821 -2.2418 0
M  V30 8186 H 749.12 3.07471 -1.10132 0
M  V30 8187 H 747.779 2.10568 -3.00094 0
M  V30 8188 H 747.427 4.47785 -2.29123 0
M  V30 8189 H 747.127 4.27147 -4.03509 0
M  V30 8190 H 748.651 5.0189 -3.47762 0
M  V30 8191 H 750.065 3.16025 -4.78332 0
M  V30 8192 H 748.462 2.64717 -5.38558 0
M  V30 8193 H 749.532 1.45542 -4.62543 0
M  V30 8194 N 750.875 1.45233 0.611969 0
M  V30 8195 C 751.807 1.49575 1.73666 0
M  V30 8196 C 752.82 0.386987 1.58134 0
M  V30 8197 O 754.009 0.653804 1.66095 0
M  V30 8198 C 751.109 1.33223 3.11617 0
M  V30 8199 C 750.282 2.57694 3.5343 0
M  V30 8200 C 749.341 2.35962 4.70328 0
M  V30 8201 O 748.367 3.09553 4.77667 0
M  V30 8202 N 749.569 1.40243 5.63305 0
M  V30 8203 H 752.334 2.46539 1.70407 0
M  V30 8204 H 749.895 1.40917 0.79712 0
M  V30 8205 H 751.887 1.16502 3.87569 0
M  V30 8206 H 750.457 0.44551 3.09409 0
M  V30 8207 H 749.677 2.8956 2.67486 0
M  V30 8208 H 750.965 3.40441 3.78124 0
M  V30 8209 H 750.363 0.795023 5.60086 0
M  V30 8210 H 748.92 1.29496 6.38807 0
M  V30 8211 N 752.353 -0.854086 1.3245 0
M  V30 8212 C 753.764 -1.42427 1.20712 0
M  V30 8213 C 754.115 -1.95371 -0.18013 0
M  V30 8214 O 753.24 -1.87587 -1.07889 0
M  V30 8215 C 753.835 -2.58897 2.18536 0
M  V30 8216 C 752.394 -3.11913 2.10683 0
M  V30 8217 C 751.541 -1.84661 2.06871 0
M  V30 8218 H 754.492 -0.661192 1.4427 0
M  V30 8219 H 754.513 -3.36074 1.78422 0
M  V30 8220 H 754.025 -2.20333 3.19492 0
M  V30 8221 H 752.126 -3.55059 1.12977 0
M  V30 8222 H 752.239 -3.73119 3.00532 0
M  V30 8223 H 750.603 -2.04285 1.52118 0
M  V30 8224 H 751.386 -1.48314 3.09609 0
M  V30 8225 N 753.831 -1.1567 -1.07043 0
M  V30 8226 C 755.071 -0.944089 -1.81291 0
M  V30 8227 C 755.435 0.519305 -1.84844 0
M  V30 8228 O 756.636 0.850357 -2.54995 0
M  V30 8229 C 754.907 -1.54528 -3.22267 0
M  V30 8230 S 756.466 -1.47623 -4.13223 0
M  V30 8231 H 753.284 -0.339696 -0.624602 0
M  V30 8232 H 755.886 -1.47277 -1.28568 0
M  V30 8233 H 754.59 -2.60321 -3.17271 0
M  V30 8234 H 754.121 -1.0156 -3.80065 0
M  V30 8235 H 756.136 -0.471261 -4.93957 0
M  V30 8236 N 755.309 1.25446 -0.953992 0
M  V30 8237 C 756.558 1.92441 -0.604101 0
M  V30 8238 C 756.871 1.75543 0.862796 0
M  V30 8239 O 758.077 2.37106 1.32262 0
M  V30 8240 C 756.533 3.44854 -1.02974 0
M  V30 8241 C 756.141 3.70464 -2.51914 0
M  V30 8242 C 757.885 4.1778 -0.752352 0
M  V30 8243 C 755.792 5.1638 -2.88281 0
M  V30 8244 H 754.722 0.720508 -0.222227 0
M  V30 8245 H 757.373 1.42318 -1.15836 0
M  V30 8246 H 755.755 3.93935 -0.403904 0
M  V30 8247 H 756.929 3.32038 -3.19511 0
M  V30 8248 H 755.244 3.10797 -2.77117 0
M  V30 8249 H 757.841 5.25261 -1.00024 0
M  V30 8250 H 758.184 4.15135 0.311212 0
M  V30 8251 H 758.717 3.74605 -1.33851 0
M  V30 8252 H 755.456 5.24135 -3.93653 0
M  V30 8253 H 754.976 5.55855 -2.25357 0
M  V30 8254 H 756.655 5.84497 -2.77439 0
M  V30 8255 N 756.787 0.722489 1.40064 0
M  V30 8256 C 758.064 0.191829 1.94657 0
M  V30 8257 C 758.444 -1.30389 1.66018 0
M  V30 8258 O 757.792 -2.06342 0.981588 0
M  V30 8259 C 758.002 0.511978 3.45224 0
M  V30 8260 C 759.35 0.454426 4.22161 0
M  V30 8261 O 760.374 0.448438 3.53366 0
M  V30 8262 O 759.233 0.437986 5.44742 0
M  V30 8263 H 756.327 0.0307821 0.826427 0
M  V30 8264 H 758.873 0.800493 1.49634 0
M  V30 8265 H 757.645 1.54622 3.59455 0
M  V30 8266 H 757.268 -0.126296 3.97399 0
M  V30 8267 N 758.265 -1.50454 0.469181 0
M  V30 8268 C 759.195 -2.31353 -0.31592 0
M  V30 8269 C 760.176 -1.38172 -0.992094 0
M  V30 8270 O 761.361 -1.67093 -0.989633 0
M  V30 8271 C 758.491 -3.1786 -1.39937 0
M  V30 8272 C 757.445 -4.19578 -0.844909 0
M  V30 8273 C 756.771 -4.9481 -2.0265 0
M  V30 8274 C 758.071 -5.22106 0.142499 0
M  V30 8275 H 759.765 -2.97237 0.359269 0
M  V30 8276 H 757.311 -1.42942 0.174224 0
M  V30 8277 H 759.264 -3.7325 -1.95607 0
M  V30 8278 H 757.988 -2.49858 -2.1033 0
M  V30 8279 H 756.647 -3.65285 -0.310189 0
M  V30 8280 H 756.295 -4.23282 -2.71737 0
M  V30 8281 H 755.995 -5.63613 -1.66174 0
M  V30 8282 H 757.519 -5.53035 -2.58815 0
M  V30 8283 H 758.933 -5.72378 -0.324966 0
M  V30 8284 H 757.33 -5.98618 0.421441 0
M  V30 8285 H 758.4 -4.7297 1.06901 0
M  V30 8286 N 759.743 -0.201713 -1.56304 0
M  V30 8287 C 760.992 0.435557 -1.96941 0
M  V30 8288 C 761.305 1.62299 -1.09172 0
M  V30 8289 O 762.511 2.32849 -1.3962 0
M  V30 8290 C 760.967 0.826298 -3.50286 0
M  V30 8291 C 760.575 -0.337216 -4.46729 0
M  V30 8292 C 762.319 1.43028 -3.99679 0
M  V30 8293 C 760.226 0.0748539 -5.91353 0
M  V30 8294 H 759.156 0.1665 -0.735387 0
M  V30 8295 H 761.807 -0.294781 -1.81117 0
M  V30 8296 H 760.189 1.61349 -3.61639 0
M  V30 8297 H 761.363 -1.11476 -4.47113 0
M  V30 8298 H 759.678 -0.853126 -4.07567 0
M  V30 8299 H 762.275 1.75115 -5.05212 0
M  V30 8300 H 762.618 2.33911 -3.44371 0
M  V30 8301 H 763.151 0.706924 -3.91468 0
M  V30 8302 H 759.89 -0.799957 -6.506 0
M  V30 8303 H 759.41 0.817122 -5.94208 0
M  V30 8304 H 761.089 0.508389 -6.45 0
M  V30 8305 N 761.222 1.57436 0.0718424 0
M  V30 8306 C 762.132 2.07039 1.10326 0
M  V30 8307 C 763.148 0.999918 1.424 0
M  V30 8308 O 764.324 1.31462 1.52577 0
M  V30 8309 C 761.389 2.50439 2.39752 0
M  V30 8310 C 760.45 3.71784 2.14651 0
M  V30 8311 C 759.683 4.13104 3.37906 0
M  V30 8312 O 759.906 3.54298 4.47023 0
M  V30 8313 O 758.84 5.05894 3.26121 0
M  V30 8314 H 762.666 2.95239 0.711872 0
M  V30 8315 H 760.251 1.46638 0.28597 0
M  V30 8316 H 762.133 2.78876 3.15921 0
M  V30 8317 H 760.808 1.65368 2.78271 0
M  V30 8318 H 759.715 3.48431 1.36187 0
M  V30 8319 H 761.048 4.57707 1.81012 0
M  V30 8320 N 762.7 -0.34323 1.53817 0
M  V30 8321 C 763.647 -1.42153 1.81827 0
M  V30 8322 C 764.617 -1.52251 0.663996 0
M  V30 8323 O 765.802 -1.67784 0.908461 0
M  V30 8324 C 762.942 -2.78799 2.03384 0
M  V30 8325 C 762.055 -2.7749 3.31094 0
M  V30 8326 C 761.19 -4.05856 3.42717 0
M  V30 8327 C 760.229 -3.98776 4.64375 0
M  V30 8328 N 759.366 -5.18833 4.73029 0
M  V30 8329 H 764.206 -1.17567 2.73829 0
M  V30 8330 H 761.743 -0.569506 1.35628 0
M  V30 8331 H 763.701 -3.58211 2.13872 0
M  V30 8332 H 762.331 -3.01736 1.14696 0
M  V30 8333 H 761.383 -1.90182 3.29446 0
M  V30 8334 H 762.695 -2.68137 4.206 0
M  V30 8335 H 761.849 -4.93691 3.52638 0
M  V30 8336 H 760.588 -4.1799 2.51267 0
M  V30 8337 H 759.593 -3.09325 4.5453 0
M  V30 8338 H 760.818 -3.88224 5.57189 0
M  V30 8339 H 758.764 -5.31511 3.84489 0
M  V30 8340 H 758.681 -5.11737 5.56472 0
M  V30 8341 H 759.949 -6.08439 4.87261 0
M  V30 8342 N 764.178 -1.45556 -0.604258 0
M  V30 8343 C 765.589 -1.44171 -1.18624 0
M  V30 8344 C 765.94 -0.171081 -1.95453 0
M  V30 8345 O 765.065 0.727156 -2.03817 0
M  V30 8346 C 765.66 -2.61193 -2.15786 0
M  V30 8347 C 764.219 -2.62918 -2.69353 0
M  V30 8348 C 763.366 -2.36479 -1.4482 0
M  V30 8349 H 766.317 -1.53747 -0.393381 0
M  V30 8350 H 766.338 -2.35481 -2.98879 0
M  V30 8351 H 765.85 -3.53656 -1.59841 0
M  V30 8352 H 763.951 -1.7447 -3.29228 0
M  V30 8353 H 764.064 -3.6224 -3.13559 0
M  V30 8354 H 762.428 -1.86103 -1.73891 0
M  V30 8355 H 763.211 -3.31091 -0.907376 0
M  V30 8356 N 765.656 0.84705 -1.32902 0
M  V30 8357 C 766.619 1.9378 -1.224 0
M  V30 8358 C 767.619 1.60144 -0.145108 0
M  V30 8359 O 768.809 1.69638 -0.396058 0
M  V30 8360 C 765.941 3.29234 -0.884174 0
M  V30 8361 H 767.134 2.04518 -2.19345 0
M  V30 8362 H 764.687 1.03816 -1.16842 0
M  V30 8363 H 765.422 3.24193 0.0831277 0
M  V30 8364 H 765.207 3.55026 -1.6643 0
M  V30 8365 H 766.697 4.09162 -0.835226 0
M  V30 8366 N 767.134 1.16236 1.06428 0
M  V30 8367 C 768.382 0.941171 1.78847 0
M  V30 8368 C 768.703 -0.53248 1.87589 0
M  V30 8369 O 767.973 -1.38686 1.38358 0
M  V30 8370 H 766.553 0.345228 0.66244 0
M  V30 8371 H 769.215 1.46479 1.28569 0
M  V30 8372 H 768.311 1.35871 2.80972 0
M  V30 8373 N 768.612 -1.24939 0.960631 0
M  V30 8374 C 770.023 -1.74701 0.658529 0
M  V30 8375 C 770.374 -1.77967 -0.825959 0
M  V30 8376 O 769.499 -1.40444 -1.64634 0
M  V30 8377 C 770.094 -3.17263 1.18867 0
M  V30 8378 C 768.653 -3.64561 0.936614 0
M  V30 8379 C 767.8 -2.43423 1.32817 0
M  V30 8380 H 770.751 -1.10741 1.13676 0
M  V30 8381 H 770.772 -3.76481 0.551589 0
M  V30 8382 H 770.284 -3.14854 2.26912 0
M  V30 8383 H 768.385 -3.72378 -0.128608 0
M  V30 8384 H 768.498 -4.52392 1.57729 0
M  V30 8385 H 766.862 -2.43513 0.746548 0
M  V30 8386 H 767.645 -2.437 2.41796 0
M  V30 8387 N 770.09 -0.729906 -1.39679 0
M  V30 8388 C 771.501 -0.346241 -1.83461 0
M  V30 8389 C 771.852 1.1215 -1.60987 0
M  V30 8390 O 770.977 1.86456 -1.09832 0
M  V30 8391 C 771.572 -0.621656 -3.33048 0
M  V30 8392 C 770.131 -0.291543 -3.75269 0
M  V30 8393 C 769.278 -0.886844 -2.62736 0
M  V30 8394 H 772.229 -0.927949 -1.28743 0
M  V30 8395 H 772.25 0.108301 -3.80346 0
M  V30 8396 H 771.762 -1.68996 -3.49373 0
M  V30 8397 H 769.863 0.771133 -3.64533 0
M  V30 8398 H 769.976 -0.770544 -4.72863 0
M  V30 8399 H 768.34 -0.313839 -2.52759 0
M  V30 8400 H 769.123 -1.95971 -2.81869 0
M  V30 8401 N 771.568 1.50203 -0.477153 0
M  V30 8402 C 772.816 2.01959 0.0755889 0
M  V30 8403 C 773.137 1.3608 1.39668 0
M  V30 8404 O 772.407 0.508136 1.89195 0
M  V30 8405 H 770.987 0.74636 0.0309248 0
M  V30 8406 H 773.649 1.84473 -0.628959 0
M  V30 8407 H 772.745 3.11305 0.222683 0
M  V30 8408 N 773.046 0.209999 1.56195 0
M  V30 8409 C 774.295 -0.425106 1.97169 0
M  V30 8410 C 774.608 -1.61718 1.10031 0
M  V30 8411 O 775.814 -2.32105 1.40853 0
M  V30 8412 C 774.27 -0.80771 3.50719 0
M  V30 8413 C 773.878 0.360902 4.46544 0
M  V30 8414 C 775.622 -1.40906 4.00432 0
M  V30 8415 C 773.529 -0.0434919 5.91384 0
M  V30 8416 H 772.459 -0.162598 0.736259 0
M  V30 8417 H 775.11 0.304382 1.80958 0
M  V30 8418 H 773.492 -1.59429 3.62489 0
M  V30 8419 H 774.666 1.13846 4.46515 0
M  V30 8420 H 772.981 0.874729 4.07109 0
M  V30 8421 H 775.578 -1.72433 5.06133 0
M  V30 8422 H 775.921 -2.32081 3.45607 0
M  V30 8423 H 776.454 -0.686154 3.91838 0
M  V30 8424 H 773.193 0.834448 6.50167 0
M  V30 8425 H 772.713 -0.785598 5.94633 0
M  V30 8426 H 774.392 -0.474176 6.4526 0
M  V30 8427 N 774.524 -1.57472 -0.0634922 0
M  V30 8428 C 775.454 -2.07297 -1.07473 0
M  V30 8429 C 776.435 -0.968162 -1.39859 0
M  V30 8430 O 777.62 -1.24139 -1.49343 0
M  V30 8431 C 774.75 -2.52381 -2.38581 0
M  V30 8432 C 773.704 -3.66813 -2.20526 0
M  V30 8433 C 773.03 -3.97982 -3.57092 0
M  V30 8434 C 774.33 -4.96553 -1.61965 0
M  V30 8435 H 776.024 -2.92033 -0.660092 0
M  V30 8436 H 773.57 -1.40488 -0.316074 0
M  V30 8437 H 775.523 -2.85852 -3.09624 0
M  V30 8438 H 774.247 -1.64684 -2.8204 0
M  V30 8439 H 772.906 -3.33639 -1.51924 0
M  V30 8440 H 772.554 -3.07403 -3.98136 0
M  V30 8441 H 772.254 -4.7504 -3.45848 0
M  V30 8442 H 773.778 -4.33956 -4.29552 0
M  V30 8443 H 775.192 -5.28201 -2.22883 0
M  V30 8444 H 773.589 -5.7799 -1.61394 0
M  V30 8445 H 774.659 -4.81396 -0.581918 0
M  V30 8446 N 776.003 0.335068 -1.53997 0
M  V30 8447 C 776.966 1.39481 -1.81872 0
M  V30 8448 C 777.966 1.4524 -0.690078 0
M  V30 8449 O 779.156 1.45467 -0.958377 0
M  V30 8450 C 776.288 2.78329 -1.9684 0
M  V30 8451 H 777.481 1.16024 -2.76547 0
M  V30 8452 H 775.034 0.569926 -1.45539 0
M  V30 8453 H 775.769 3.07058 -1.04337 0
M  V30 8454 H 775.554 2.75544 -2.78958 0
M  V30 8455 H 777.044 3.55016 -2.19894 0
M  V30 8456 N 777.481 1.45874 0.596531 0
M  V30 8457 C 778.411 1.5824 1.71705 0
M  V30 8458 C 779.392 0.433366 1.64487 0
M  V30 8459 O 780.577 0.657895 1.82717 0
M  V30 8460 C 777.707 1.55927 3.10329 0
M  V30 8461 C 776.661 2.69659 3.32367 0
M  V30 8462 C 775.987 2.52403 4.71377 0
M  V30 8463 C 777.287 4.11591 3.21544 0
M  V30 8464 H 778.981 2.52035 1.61613 0
M  V30 8465 H 776.527 1.21297 0.776082 0
M  V30 8466 H 778.48 1.63173 3.88526 0
M  V30 8467 H 777.204 0.586674 3.21288 0
M  V30 8468 H 775.863 2.61859 2.56564 0
M  V30 8469 H 775.511 1.53258 4.79083 0
M  V30 8470 H 775.211 3.28679 4.87077 0
M  V30 8471 H 776.735 2.6152 5.5176 0
M  V30 8472 H 778.149 4.20576 3.89601 0
M  V30 8473 H 776.546 4.88344 3.4877 0
M  V30 8474 H 777.616 4.32719 2.1882 0
M  V30 8475 N 778.959 -0.83999 1.33349 0
M  V30 8476 C 779.889 -1.965 1.26135 0
M  V30 8477 C 780.87 -1.69505 0.142152 0
M  V30 8478 O 782.055 -1.91346 0.331743 0
M  V30 8479 C 779.185 -3.32632 0.99866 0
M  V30 8480 C 778.139 -3.74021 2.08068 0
M  V30 8481 C 777.465 -5.07947 1.67014 0
M  V30 8482 C 778.765 -3.87925 3.49731 0
M  V30 8483 H 780.459 -2.02793 2.20262 0
M  V30 8484 H 778.005 -0.974297 1.06035 0
M  V30 8485 H 779.958 -4.10903 0.934696 0
M  V30 8486 H 778.682 -3.26593 0.0217759 0
M  V30 8487 H 777.341 -2.98012 2.13505 0
M  V30 8488 H 776.989 -4.98378 0.680316 0
M  V30 8489 H 776.689 -5.36611 2.39422 0
M  V30 8490 H 778.213 -5.88695 1.62082 0
M  V30 8491 H 779.627 -4.5651 3.46802 0
M  V30 8492 H 778.024 -4.28023 4.20614 0
M  V30 8493 H 779.094 -2.90407 3.88319 0
M  V30 8494 N 780.437 -1.16799 -1.0581 0
M  V30 8495 C 781.714 -0.862616 -1.75551 0
M  V30 8496 C 782.094 0.6385 -2.01212 0
M  V30 8497 O 781.442 1.58784 -1.64317 0
M  V30 8498 C 781.652 -1.6907 -3.05314 0
M  V30 8499 C 783 -1.90675 -3.79379 0
M  V30 8500 O 784.024 -1.65976 -3.15167 0
M  V30 8501 O 782.883 -2.32145 -4.94743 0
M  V30 8502 H 779.977 -0.318789 -0.763088 0
M  V30 8503 H 782.523 -1.27461 -1.12034 0
M  V30 8504 H 781.295 -2.70912 -2.82352 0
M  V30 8505 H 780.918 -1.27606 -3.76567 0
M  V30 8506 N 781.915 1.24427 -0.967243 0
M  V30 8507 C 782.825 2.29109 -0.504592 0
M  V30 8508 C 783.841 1.68495 0.434224 0
M  V30 8509 O 785.017 1.99041 0.307379 0
M  V30 8510 C 782.082 3.46133 0.198273 0
M  V30 8511 C 781.143 4.22149 -0.780313 0
M  V30 8512 C 780.376 5.33585 -0.110896 0
M  V30 8513 O 780.599 5.59676 1.10088 0
M  V30 8514 O 779.533 5.96522 -0.802823 0
M  V30 8515 H 783.359 2.708 -1.37482 0
M  V30 8516 H 780.944 1.30111 -0.73426 0
M  V30 8517 H 782.826 4.17205 0.593124 0
M  V30 8518 H 781.501 3.0642 1.04347 0
M  V30 8519 H 780.408 3.53454 -1.22561 0
M  V30 8520 H 781.741 4.65677 -1.59392 0
M  V30 8521 N 783.393 0.737304 1.3929 0
M  V30 8522 C 784.303 0.100464 2.34385 0
M  V30 8523 C 785.319 -0.719282 1.58437 0
M  V30 8524 O 786.495 -0.647216 1.90717 0
M  V30 8525 C 783.56 -0.794325 3.37478 0
M  V30 8526 C 782.621 0.0379345 4.29283 0
M  V30 8527 C 781.854 -0.814241 5.27452 0
M  V30 8528 O 782.077 -2.05288 5.32177 0
M  V30 8529 O 781.011 -0.241679 6.01415 0
M  V30 8530 H 784.837 0.885407 2.90507 0
M  V30 8531 H 782.422 0.497999 1.40856 0
M  V30 8532 H 784.304 -1.30622 4.00644 0
M  V30 8533 H 782.979 -1.55804 2.83737 0
M  V30 8534 H 781.886 0.595405 3.69331 0
M  V30 8535 H 783.219 0.763926 4.86236 0
M  V30 8536 N 784.871 -1.49948 0.485112 0
M  V30 8537 C 786.111 -2.04301 -0.0635728 0
M  V30 8538 C 786.475 -1.35804 -1.35725 0
M  V30 8539 O 787.676 -1.80789 -1.98919 0
M  V30 8540 C 785.947 -3.56666 -0.228962 0
M  V30 8541 S 787.506 -4.32614 -0.734185 0
M  V30 8542 H 784.324 -0.710939 -0.00931895 0
M  V30 8543 H 786.926 -1.84185 0.655455 0
M  V30 8544 H 785.63 -4.04068 0.718148 0
M  V30 8545 H 785.161 -3.8116 -0.973696 0
M  V30 8546 H 787.176 -4.53859 -2.00565 0
M  V30 8547 N 786.349 -0.21828 -1.56081 0
M  V30 8548 C 787.595 0.408181 -1.99262 0
M  V30 8549 C 787.95 1.57618 -1.10337 0
M  V30 8550 O 787.243 1.90991 -0.15263 0
M  V30 8551 C 787.437 0.894782 -3.46018 0
M  V30 8552 C 787.266 -0.224528 -4.49139 0
M  V30 8553 C 786.036 -0.689843 -5.00569 0
M  V30 8554 C 788.234 -1.04165 -5.03641 0
M  V30 8555 N 786.216 -1.78455 -5.8739 0
M  V30 8556 C 787.587 -1.98529 -5.87355 0
M  V30 8557 C 789.642 -1.08146 -4.86013 0
M  V30 8558 C 788.345 -2.96549 -6.55325 0
M  V30 8559 C 790.371 -2.04982 -5.5474 0
M  V30 8560 C 789.733 -2.98086 -6.38219 0
M  V30 8561 H 785.832 0.116127 -0.77333 0
M  V30 8562 H 788.416 -0.3293 -1.91895 0
M  V30 8563 H 786.587 1.60163 -3.53839 0
M  V30 8564 H 788.319 1.49379 -3.76122 0
M  V30 8565 H 785.074 -0.279021 -4.72777 0
M  V30 8566 H 785.498 -2.33381 -6.35502 0
M  V30 8567 H 790.14 -0.375581 -4.21129 0
M  V30 8568 H 787.858 -3.68101 -7.19394 0
M  V30 8569 H 791.444 -2.08732 -5.43067 0
M  V30 8570 H 790.324 -3.71794 -6.90463 0
M  V30 8571 N 787.827 1.57504 0.0551401 0
M  V30 8572 C 789.074 1.88055 0.751104 0
M  V30 8573 C 789.402 0.812231 1.76729 0
M  V30 8574 O 788.657 -0.189918 1.94776 0
M  V30 8575 C 788.956 3.25311 1.48013 0
M  V30 8576 C 788.622 4.46858 0.602375 0
M  V30 8577 C 787.284 4.79847 0.360536 0
M  V30 8578 C 789.636 5.212 -0.00524047 0
M  V30 8579 C 786.964 5.84582 -0.498127 0
M  V30 8580 C 789.316 6.26844 -0.851453 0
M  V30 8581 C 787.98 6.58324 -1.103 0
M  V30 8582 H 787.25 0.688142 0.274848 0
M  V30 8583 H 789.897 1.91497 0.0114795 0
M  V30 8584 H 788.202 3.17737 2.29239 0
M  V30 8585 H 789.899 3.46189 2.02371 0
M  V30 8586 H 786.489 4.21049 0.801007 0
M  V30 8587 H 790.673 4.96013 0.168682 0
M  V30 8588 H 785.929 6.07361 -0.701594 0
M  V30 8589 H 790.103 6.83603 -1.32893 0
M  V30 8590 H 787.73 7.39304 -1.77011 0
M  V30 8591 N 789.305 -0.326896 1.54172 0
M  V30 8592 C 790.716 -0.901533 1.63491 0
M  V30 8593 C 791.067 -1.88994 0.52684 0
M  V30 8594 O 790.192 -2.137 -0.340794 0
M  V30 8595 C 790.787 -1.64192 2.96355 0
M  V30 8596 C 789.346 -2.16533 3.07881 0
M  V30 8597 C 788.493 -0.98966 2.59039 0
M  V30 8598 H 791.444 -0.104568 1.58355 0
M  V30 8599 H 791.465 -2.50592 2.86328 0
M  V30 8600 H 790.977 -0.922291 3.76982 0
M  V30 8601 H 789.078 -2.91622 2.31922 0
M  V30 8602 H 789.191 -2.41762 4.13628 0
M  V30 8603 H 787.555 -1.36787 2.14852 0
M  V30 8604 H 788.338 -0.284401 3.4212 0
M  V30 8605 N 790.784 -1.46188 -0.588786 0
M  V30 8606 C 791.731 -1.56292 -1.69828 0
M  V30 8607 C 792.701 -0.407581 -1.61022 0
M  V30 8608 O 793.886 -0.623532 -1.80324 0
M  V30 8609 C 791.026 -1.55341 -3.08161 0
M  V30 8610 C 790.139 -2.81564 -3.27636 0
M  V30 8611 C 789.274 -2.72158 -4.56183 0
M  V30 8612 C 788.313 -3.93348 -4.68981 0
M  V30 8613 N 787.45 -3.82365 -5.88848 0
M  V30 8614 H 792.29 -2.51066 -1.6053 0
M  V30 8615 H 789.827 -1.24562 -0.782474 0
M  V30 8616 H 791.785 -1.52776 -3.88221 0
M  V30 8617 H 790.415 -0.641034 -3.16371 0
M  V30 8618 H 789.467 -2.94136 -2.41223 0
M  V30 8619 H 790.779 -3.714 -3.32962 0
M  V30 8620 H 789.933 -2.67665 -5.44464 0
M  V30 8621 H 788.672 -1.79953 -4.53286 0
M  V30 8622 H 787.677 -3.98181 -3.7912 0
M  V30 8623 H 788.902 -4.86643 -4.73662 0
M  V30 8624 H 786.848 -2.92942 -5.86959 0
M  V30 8625 H 786.765 -4.65851 -5.95415 0
M  V30 8626 H 788.033 -3.81836 -6.79575 0
M  V30 8627 N 792.262 0.832906 -1.33792 0
M  V30 8628 C 793.225 1.92471 -1.24449 0
M  V30 8629 C 794.225 1.59981 -0.162085 0
M  V30 8630 O 795.415 1.69208 -0.414029 0
M  V30 8631 C 792.547 3.28278 -0.919044 0
M  V30 8632 H 793.74 2.0218 -2.21502 0
M  V30 8633 H 791.293 1.0257 -1.17936 0
M  V30 8634 H 792.028 3.24263 0.048738 0
M  V30 8635 H 791.813 3.53241 -1.70187 0
M  V30 8636 H 793.303 4.08253 -0.878576 0
M  V30 8637 N 793.74 1.17359 1.05189 0
M  V30 8638 C 794.968 0.986529 1.81866 0
M  V30 8639 C 795.383 -0.46522 1.82979 0
M  V30 8640 O 794.74 -1.32305 1.25705 0
M  V30 8641 C 794.791 1.52021 3.27982 0
M  V30 8642 O 794.512 2.91511 3.27037 0
M  V30 8643 C 796.013 1.37774 4.21347 0
M  V30 8644 H 793.233 0.349021 0.573084 0
M  V30 8645 H 795.777 1.55648 1.32643 0
M  V30 8646 H 793.932 0.992287 3.74476 0
M  V30 8647 H 794.346 3.16178 4.18488 0
M  V30 8648 H 795.82 1.7993 5.21852 0
M  V30 8649 H 796.297 0.32483 4.37997 0
M  V30 8650 H 796.903 1.89583 3.80708 0
M  V30 8651 N 795.218 -1.23913 0.973828 0
M  V30 8652 C 796.495 -1.87539 0.555729 0
M  V30 8653 C 796.875 -1.87641 -0.967162 0
M  V30 8654 O 796.223 -1.35335 -1.84111 0
M  V30 8655 C 796.433 -3.29359 1.15427 0
M  V30 8656 C 797.781 -4.06 1.24294 0
M  V30 8657 O 798.805 -3.38554 1.10723 0
M  V30 8658 O 797.664 -5.26689 1.45813 0
M  V30 8659 H 794.758 -0.805769 0.186188 0
M  V30 8660 H 797.304 -1.31838 1.06849 0
M  V30 8661 H 796.076 -3.23817 2.19678 0
M  V30 8662 H 795.699 -3.92642 0.625925 0
M  V30 8663 N 796.696 -0.74468 -1.38897 0
M  V30 8664 C 797.643 -0.111064 -2.30533 0
M  V30 8665 C 798.613 0.719276 -1.49719 0
M  V30 8666 O 799.798 0.677244 -1.78376 0
M  V30 8667 C 796.938 0.78292 -3.36102 0
M  V30 8668 C 796.051 -0.0610817 -4.31957 0
M  V30 8669 C 795.186 0.835075 -5.24595 0
M  V30 8670 C 794.225 -0.0130974 -6.12099 0
M  V30 8671 N 793.362 0.839525 -6.97063 0
M  V30 8672 H 798.202 -0.898113 -2.84144 0
M  V30 8673 H 795.739 -0.454537 -1.39901 0
M  V30 8674 H 797.697 1.31578 -3.95908 0
M  V30 8675 H 796.327 1.53585 -2.83922 0
M  V30 8676 H 795.379 -0.711469 -3.73687 0
M  V30 8677 H 796.691 -0.716482 -4.93627 0
M  V30 8678 H 795.845 1.43542 -5.89475 0
M  V30 8679 H 794.584 1.52423 -4.63269 0
M  V30 8680 H 793.589 -0.626179 -5.46223 0
M  V30 8681 H 794.814 -0.699181 -6.75491 0
M  V30 8682 H 792.76 1.5138 -6.38295 0
M  V30 8683 H 792.677 0.240823 -7.55616 0
M  V30 8684 H 793.945 1.42513 -7.66362 0
M  V30 8685 N 798.174 1.49689 -0.493057 0
M  V30 8686 C 799.399 2.07331 0.0535114 0
M  V30 8687 C 799.824 1.35196 1.30781 0
M  V30 8688 O 799.182 0.406246 1.7669 0
M  V30 8689 C 799.23 3.59364 0.29825 0
M  V30 8690 O 798.334 3.88819 1.37454 0
M  V30 8691 H 797.675 0.663612 -0.0227018 0
M  V30 8692 H 800.205 1.926 -0.690402 0
M  V30 8693 H 800.215 4.04515 0.532159 0
M  V30 8694 H 798.89 4.1128 -0.618207 0
M  V30 8695 H 797.467 3.55487 1.12621 0
M  V30 8696 N 799.652 0.226554 1.55963 0
M  V30 8697 C 800.899 -0.403789 1.98433 0
M  V30 8698 C 801.227 -1.59416 1.1143 0
M  V30 8699 O 800.482 -1.95042 0.160389 0
M  V30 8700 C 800.781 -0.87642 3.46488 0
M  V30 8701 C 800.447 0.203973 4.50438 0
M  V30 8702 C 799.109 0.500754 4.78587 0
M  V30 8703 C 801.461 0.934396 5.12756 0
M  V30 8704 C 798.789 1.53239 5.66334 0
M  V30 8705 C 801.141 1.9554 6.0162 0
M  V30 8706 C 799.805 2.25905 6.28111 0
M  V30 8707 H 799.075 -0.147757 0.726119 0
M  V30 8708 H 801.722 0.330121 1.88633 0
M  V30 8709 H 800.027 -1.68918 3.53517 0
M  V30 8710 H 801.724 -1.37407 3.76723 0
M  V30 8711 H 798.314 -0.0374917 4.28584 0
M  V30 8712 H 802.498 0.718355 4.91074 0
M  V30 8713 H 797.754 1.77321 5.85122 0
M  V30 8714 H 801.928 2.52642 6.48957 0
M  V30 8715 H 799.555 3.05985 6.959 0
M  V30 8716 N 801.13 -1.57531 -0.0467866 0
M  V30 8717 C 802.376 -1.8873 -0.742218 0
M  V30 8718 C 802.709 -0.822084 -1.75941 0
M  V30 8719 O 801.984 0.164922 -1.938 0
M  V30 8720 C 802.267 -3.30586 -1.42776 0
M  V30 8721 C 802.12 -4.47785 -0.425285 0
M  V30 8722 C 803.439 -3.71068 -2.36636 0
M  V30 8723 H 800.558 -0.686406 -0.268359 0
M  V30 8724 H 803.2 -1.89999 -0.00511341 0
M  V30 8725 H 801.35 -3.29634 -2.05605 0
M  V30 8726 H 803.022 -4.60867 0.199721 0
M  V30 8727 H 801.265 -4.33037 0.25713 0
M  V30 8728 H 801.936 -5.43884 -0.943086 0
M  V30 8729 H 804.412 -3.73273 -1.83866 0
M  V30 8730 H 803.288 -4.71165 -2.81593 0
M  V30 8731 H 803.549 -3.02355 -3.22542 0
M  V30 8732 N 802.608 0.318715 -1.54344 0
M  V30 8733 C 803.518 1.41535 -1.87097 0
M  V30 8734 C 804.534 1.56361 -0.763353 0
M  V30 8735 O 805.71 1.71365 -1.05811 0
M  V30 8736 C 802.775 2.76178 -2.09587 0
M  V30 8737 C 801.836 2.70486 -3.3337 0
M  V30 8738 C 801.069 3.98708 -3.54778 0
M  V30 8739 O 801.292 4.9721 -2.79532 0
M  V30 8740 O 800.226 4.01674 -4.48266 0
M  V30 8741 H 804.052 1.16764 -2.80357 0
M  V30 8742 H 801.637 0.51318 -1.4031 0
M  V30 8743 H 803.519 3.55873 -2.25682 0
M  V30 8744 H 802.194 3.00829 -1.19514 0
M  V30 8745 H 801.101 1.89325 -3.22656 0
M  V30 8746 H 802.434 2.50789 -4.23516 0
M  V30 8747 N 804.086 1.46499 0.581025 0
M  V30 8748 C 805.033 1.5719 1.68997 0
M  V30 8749 C 806.003 0.416114 1.60803 0
M  V30 8750 O 807.188 0.633086 1.79991 0
M  V30 8751 C 804.328 1.56973 3.07333 0
M  V30 8752 C 803.441 2.83298 3.26139 0
M  V30 8753 C 802.576 2.74574 4.54734 0
M  V30 8754 C 801.615 3.9583 4.66889 0
M  V30 8755 N 800.752 3.85482 5.86811 0
M  V30 8756 H 805.592 2.51914 1.59196 0
M  V30 8757 H 803.129 1.24975 0.775857 0
M  V30 8758 H 805.087 1.54832 3.87405 0
M  V30 8759 H 803.717 0.657803 3.16027 0
M  V30 8760 H 802.769 2.95411 2.3966 0
M  V30 8761 H 804.081 3.7316 3.30988 0
M  V30 8762 H 803.235 2.70548 5.43036 0
M  V30 8763 H 801.974 1.82354 4.52325 0
M  V30 8764 H 800.979 4.00186 3.77003 0
M  V30 8765 H 802.204 4.89148 4.71075 0
M  V30 8766 H 800.15 2.96051 5.85397 0
M  V30 8767 H 800.067 4.69002 5.92936 0
M  V30 8768 H 801.335 3.85434 6.7754 0
M  V30 8769 N 805.565 -0.825799 1.34232 0
M  V30 8770 C 806.811 -1.58419 1.26614 0
M  V30 8771 C 807.144 -1.93503 -0.164341 0
M  V30 8772 O 806.419 -1.59785 -1.109 0
M  V30 8773 C 806.702 -2.8856 2.15418 0
M  V30 8774 C 806.555 -2.60075 3.66989 0
M  V30 8775 C 807.874 -3.90107 2.03726 0
M  V30 8776 H 804.993 -0.574794 0.461282 0
M  V30 8777 H 807.635 -0.951519 1.64457 0
M  V30 8778 H 805.785 -3.42553 1.83275 0
M  V30 8779 H 807.457 -2.12414 4.09485 0
M  V30 8780 H 805.7 -1.93565 3.88221 0
M  V30 8781 H 806.371 -3.52866 4.24488 0
M  V30 8782 H 808.847 -3.45459 2.31942 0
M  V30 8783 H 807.723 -4.78976 2.68092 0
M  V30 8784 H 807.984 -4.30329 1.01337 0
M  V30 8785 N 807.043 -1.17915 -1.04565 0
M  V30 8786 C 807.976 -0.845021 -2.11978 0
M  V30 8787 C 808.954 0.19089 -1.61476 0
M  V30 8788 O 810.138 0.0709905 -1.88366 0
M  V30 8789 C 807.265 -0.261657 -3.37688 0
M  V30 8790 C 806.311 -1.27396 -4.07029 0
M  V30 8791 S 807.144 -2.82783 -4.54746 0
M  V30 8792 C 808.3 -2.25944 -5.83695 0
M  V30 8793 H 808.533 -1.75472 -2.39993 0
M  V30 8794 H 806.066 -1.00447 -1.17259 0
M  V30 8795 H 808.024 0.0684257 -4.10443 0
M  V30 8796 H 806.685 0.626082 -3.07797 0
M  V30 8797 H 805.878 -0.814557 -4.97374 0
M  V30 8798 H 805.48 -1.55002 -3.40368 0
M  V30 8799 H 807.772 -1.63892 -6.57378 0
M  V30 8800 H 808.715 -3.14569 -6.34391 0
M  V30 8801 H 809.123 -1.69155 -5.3856 0
M  V30 8802 N 808.521 1.23394 -0.980386 0
M  V30 8803 C 809.453 2.24146 -0.478657 0
M  V30 8804 C 810.466 1.57303 0.419492 0
M  V30 8805 O 811.655 1.77094 0.223631 0
M  V30 8806 C 808.755 3.3732 0.326913 0
M  V30 8807 C 807.928 4.33744 -0.56436 0
M  V30 8808 C 806.987 5.25866 0.187358 0
M  V30 8809 O 806.013 5.67626 -0.423019 0
M  V30 8810 N 807.215 5.61492 1.47335 0
M  V30 8811 H 809.98 2.67826 -1.34496 0
M  V30 8812 H 807.541 1.37566 -0.853653 0
M  V30 8813 H 809.533 3.95926 0.838148 0
M  V30 8814 H 808.103 2.92823 1.09422 0
M  V30 8815 H 807.323 3.73641 -1.25642 0
M  V30 8816 H 808.611 4.95123 -1.17177 0
M  V30 8817 H 808.009 5.29514 1.99077 0
M  V30 8818 H 806.566 6.2257 1.93002 0
M  V30 8819 N 809.999 0.752036 1.385 0
M  V30 8820 C 810.909 0.125318 2.34265 0
M  V30 8821 C 811.925 -0.702437 1.59191 0
M  V30 8822 O 813.101 -0.626951 1.91393 0
M  V30 8823 C 810.166 -0.758486 3.38301 0
M  V30 8824 C 809.227 0.0834636 4.29219 0
M  V30 8825 C 808.46 -0.758252 5.28286 0
M  V30 8826 O 808.683 -1.99632 5.34325 0
M  V30 8827 O 807.617 -0.177878 6.01637 0
M  V30 8828 H 811.443 0.91617 2.89551 0
M  V30 8829 H 809.028 0.512911 1.4032 0
M  V30 8830 H 810.91 -1.26365 4.02007 0
M  V30 8831 H 809.585 -1.52786 2.85374 0
M  V30 8832 H 808.492 0.634545 3.68679 0
M  V30 8833 H 809.825 0.815455 4.85398 0
M  V30 8834 N 811.477 -1.49425 0.500989 0
M  V30 8835 C 812.409 -2.27037 -0.314159 0
M  V30 8836 C 813.422 -1.33578 -0.930626 0
M  V30 8837 O 814.611 -1.58861 -0.813968 0
M  V30 8838 C 811.711 -3.05968 -1.45729 0
M  V30 8839 C 810.884 -4.27 -0.948135 0
M  V30 8840 C 809.943 -4.87977 -1.96888 0
M  V30 8841 O 808.969 -5.48044 -1.53743 0
M  V30 8842 N 810.171 -4.77627 -3.29928 0
M  V30 8843 H 812.936 -2.97634 0.351336 0
M  V30 8844 H 810.497 -1.58427 0.333536 0
M  V30 8845 H 812.489 -3.43634 -2.1377 0
M  V30 8846 H 811.059 -2.37978 -2.02695 0
M  V30 8847 H 810.279 -3.94091 -0.0926311 0
M  V30 8848 H 811.567 -5.0541 -0.586362 0
M  V30 8849 H 810.965 -4.29926 -3.67669 0
M  V30 8850 H 809.522 -5.19478 -3.93682 0
M  V30 8851 N 812.955 -0.234822 -1.55841 0
M  V30 8852 C 814.203 0.392483 -1.98252 0
M  V30 8853 C 814.524 1.59344 -1.12404 0
M  V30 8854 O 813.794 1.94834 -0.204055 0
M  V30 8855 H 812.374 0.147999 -0.732192 0
M  V30 8856 H 815.036 -0.330804 -1.92072 0
M  V30 8857 H 814.132 0.709829 -3.03921 0
M  V30 8858 N 814.433 1.57553 0.0384317 0
M  V30 8859 C 815.661 1.93093 0.743141 0
M  V30 8860 C 816.076 0.833787 1.69391 0
M  V30 8861 O 815.433 -0.190532 1.81503 0
M  V30 8862 C 815.484 3.28533 1.50826 0
M  V30 8863 O 815.205 4.34032 0.595665 0
M  V30 8864 C 816.706 3.78297 2.31098 0
M  V30 8865 H 813.926 0.637486 0.20941 0
M  V30 8866 H 816.47 2.045 -0.00125154 0
M  V30 8867 H 814.625 3.18552 2.20462 0
M  V30 8868 H 815.039 5.12155 1.13124 0
M  V30 8869 H 816.513 4.75602 2.80191 0
M  V30 8870 H 816.99 3.09008 3.12107 0
M  V30 8871 H 817.596 3.91331 1.66555 0
M  V30 8872 N 815.911 -0.310526 1.54511 0
M  V30 8873 C 816.861 -1.38405 1.81185 0
M  V30 8874 C 817.845 -1.46355 0.668499 0
M  V30 8875 O 819.037 -1.50668 0.928873 0
M  V30 8876 C 816.166 -2.75059 2.0542 0
M  V30 8877 C 815.252 -2.7137 3.25913 0
M  V30 8878 N 815.643 -2.37298 4.4668 0
M  V30 8879 C 813.941 -3.02484 3.27749 0
M  V30 8880 C 814.642 -2.42669 5.28665 0
M  V30 8881 N 813.618 -2.79639 4.66158 0
M  V30 8882 H 817.42 -1.11012 2.72128 0
M  V30 8883 H 814.934 -0.519068 1.53881 0
M  V30 8884 H 816.931 -3.52451 2.22674 0
M  V30 8885 H 815.591 -3.03372 1.15739 0
M  V30 8886 H 816.602 -2.09917 4.73451 0
M  V30 8887 H 813.279 -3.35754 2.48144 0
M  V30 8888 H 814.669 -2.19206 6.35136 0
M  V30 8889 N 817.389 -1.46805 -0.573248 0
M  V30 8890 C 818.8 -1.46655 -1.15539 0
M  V30 8891 C 819.151 -0.2125 -1.95046 0
M  V30 8892 O 818.276 0.683759 -2.05314 0
M  V30 8893 C 818.871 -2.65711 -2.10198 0
M  V30 8894 C 817.43 -2.68572 -2.63716 0
M  V30 8895 C 816.577 -2.39498 -1.39772 0
M  V30 8896 H 819.528 -1.54547 -0.36068 0
M  V30 8897 H 819.549 -2.41768 -2.93817 0
M  V30 8898 H 819.061 -3.56967 -1.52303 0
M  V30 8899 H 817.162 -1.81414 -3.25453 0
M  V30 8900 H 817.275 -3.68809 -3.05805 0
M  V30 8901 H 815.639 -1.89749 -1.69904 0
M  V30 8902 H 816.422 -3.32942 -0.836943 0
M  V30 8903 N 818.867 0.818669 -1.34668 0
M  V30 8904 C 819.814 1.92983 -1.26595 0
M  V30 8905 C 820.784 1.65506 -0.140315 0
M  V30 8906 O 821.969 1.88063 -0.322005 0
M  V30 8907 C 819.109 3.2932 -1.03163 0
M  V30 8908 C 818.222 3.69061 -2.24539 0
M  V30 8909 C 817.357 4.94368 -1.94355 0
M  V30 8910 C 816.396 5.26702 -3.11851 0
M  V30 8911 N 815.533 6.43187 -2.81522 0
M  V30 8912 H 820.373 1.99219 -2.2162 0
M  V30 8913 H 817.91 0.974612 -1.1018 0
M  V30 8914 H 819.868 4.07897 -0.87613 0
M  V30 8915 H 818.498 3.22584 -0.118045 0
M  V30 8916 H 817.55 2.85842 -2.50995 0
M  V30 8917 H 818.862 3.88924 -3.12313 0
M  V30 8918 H 818.016 5.80742 -1.75566 0
M  V30 8919 H 816.755 4.76515 -1.03848 0
M  V30 8920 H 815.76 4.38823 -3.31231 0
M  V30 8921 H 816.985 5.46492 -4.03142 0
M  V30 8922 H 814.931 6.26783 -1.93596 0
M  V30 8923 H 814.848 6.63243 -3.62829 0
M  V30 8924 H 816.116 7.32621 -2.66247 0
M  V30 8925 N 820.346 1.18468 1.03938 0
M  V30 8926 C 821.593 0.980833 1.77161 0
M  V30 8927 C 821.921 -0.489425 1.88242 0
M  V30 8928 O 821.176 -1.37961 1.388 0
M  V30 8929 C 821.475 1.58229 3.20466 0
M  V30 8930 C 821.141 3.07889 3.29416 0
M  V30 8931 C 819.803 3.48737 3.31566 0
M  V30 8932 C 822.155 4.03903 3.29411 0
M  V30 8933 C 819.483 4.84171 3.31355 0
M  V30 8934 C 821.835 5.39253 3.3074 0
M  V30 8935 C 820.499 5.79547 3.31182 0
M  V30 8936 H 819.769 0.358912 0.648277 0
M  V30 8937 H 822.416 1.47552 1.22069 0
M  V30 8938 H 820.721 1.00964 3.78568 0
M  V30 8939 H 822.418 1.39998 3.75768 0
M  V30 8940 H 819.008 2.75335 3.28464 0
M  V30 8941 H 823.192 3.73395 3.2694 0
M  V30 8942 H 818.448 5.14685 3.30015 0
M  V30 8943 H 822.622 6.13417 3.29686 0
M  V30 8944 H 820.249 6.84466 3.30772 0
M  V30 8945 N 821.824 -1.22873 0.986916 0
M  V30 8946 C 822.756 -2.23889 0.490537 0
M  V30 8947 C 823.769 -1.57523 -0.411144 0
M  V30 8948 O 824.958 -1.7721 -0.214236 0
M  V30 8949 C 822.058 -3.37488 -0.30902 0
M  V30 8950 C 821.231 -4.33438 0.587354 0
M  V30 8951 C 820.29 -5.25958 -0.159467 0
M  V30 8952 O 819.316 -5.67394 0.453115 0
M  V30 8953 N 820.518 -5.62265 -1.44355 0
M  V30 8954 H 823.283 -2.67109 1.35914 0
M  V30 8955 H 820.844 -1.37111 0.860937 0
M  V30 8956 H 822.836 -3.96365 -0.817139 0
M  V30 8957 H 821.406 -2.934 -1.07868 0
M  V30 8958 H 820.626 -3.72969 1.27622 0
M  V30 8959 H 821.914 -4.94495 1.19801 0
M  V30 8960 H 821.312 -5.30562 -1.96266 0
M  V30 8961 H 819.869 -6.23585 -1.89698 0
M  V30 8962 N 823.302 -0.75937 -1.38099 0
M  V30 8963 C 824.249 -0.135508 -2.30402 0
M  V30 8964 C 825.219 0.703356 -1.50473 0
M  V30 8965 O 826.404 0.658287 -1.79084 0
M  V30 8966 C 823.544 0.747228 -3.36913 0
M  V30 8967 C 822.657 -0.106893 -4.31868 0
M  V30 8968 C 821.792 0.779388 -5.25451 0
M  V30 8969 C 820.831 -0.0780179 -6.1205 0
M  V30 8970 N 819.968 0.765545 -6.97914 0
M  V30 8971 H 824.808 -0.9282 -2.83176 0
M  V30 8972 H 822.345 -0.46935 -1.39411 0
M  V30 8973 H 824.303 1.27371 -3.97281 0
M  V30 8974 H 822.933 1.50565 -2.85535 0
M  V30 8975 H 821.985 -0.751063 -3.72912 0
M  V30 8976 H 823.297 -0.768798 -4.9284 0
M  V30 8977 H 822.451 1.37282 -5.90964 0
M  V30 8978 H 821.19 1.47501 -4.6486 0
M  V30 8979 H 820.195 -0.684078 -5.45528 0
M  V30 8980 H 821.42 -0.770786 -6.74712 0
M  V30 8981 H 819.366 1.44601 -6.39864 0
M  V30 8982 H 819.283 0.160666 -7.55829 0
M  V30 8983 H 820.551 1.34377 -7.6783 0
M  V30 8984 N 824.78 1.49157 -0.508906 0
M  V30 8985 C 826.191 1.86593 -0.0630975 0
M  V30 8986 C 826.542 1.42051 1.35337 0
M  V30 8987 O 825.667 0.801866 2.00995 0
M  V30 8988 C 826.262 3.38629 -0.107729 0
M  V30 8989 C 824.821 3.75336 0.282776 0
M  V30 8990 C 823.968 2.7317 -0.4768 0
M  V30 8991 H 826.919 1.41362 -0.72128 0
M  V30 8992 H 826.94 3.74271 0.685689 0
M  V30 8993 H 826.452 3.71017 -1.13876 0
M  V30 8994 H 824.553 3.48558 1.31675 0
M  V30 8995 H 824.666 4.79081 -0.0421728 0
M  V30 8996 H 823.03 2.54591 0.0743552 0
M  V30 8997 H 823.813 3.08403 -1.50807 0
M  V30 8998 N 826.258 0.243083 1.55714 0
M  V30 8999 C 827.205 -0.658078 2.21219 0
M  V30 9000 C 828.175 -1.1742 1.17481 0
M  V30 9001 O 829.36 -1.22937 1.45915 0
M  V30 9002 C 826.5 -1.85104 2.91257 0
M  V30 9003 C 825.613 -1.3718 4.09641 0
M  V30 9004 C 824.748 -2.52403 4.67404 0
M  V30 9005 C 823.787 -2.01321 5.78045 0
M  V30 9006 N 822.924 -3.09896 6.30007 0
M  V30 9007 H 827.764 -0.0927854 2.97856 0
M  V30 9008 H 825.301 -0.0340375 1.47061 0
M  V30 9009 H 827.259 -2.55179 3.3006 0
M  V30 9010 H 825.889 -2.38887 2.17101 0
M  V30 9011 H 824.941 -0.565232 3.76177 0
M  V30 9012 H 826.253 -0.957409 4.89525 0
M  V30 9013 H 825.407 -3.30525 5.08761 0
M  V30 9014 H 824.146 -2.97142 3.86728 0
M  V30 9015 H 823.151 -1.21667 5.36169 0
M  V30 9016 H 824.376 -1.57556 6.6057 0
M  V30 9017 H 822.322 -3.54077 5.52237 0
M  V30 9018 H 822.239 -2.72776 7.05074 0
M  V30 9019 H 823.507 -3.8809 6.76023 0
M  V30 9020 N 827.736 -1.57571 -0.0300757 0
M  V30 9021 C 828.668 -2.0329 -1.05857 0
M  V30 9022 C 829.681 -0.945543 -1.32527 0
M  V30 9023 O 830.87 -1.22287 -1.30032 0
M  V30 9024 C 827.97 -2.39234 -2.40042 0
M  V30 9025 C 827.143 -3.70337 -2.32743 0
M  V30 9026 C 826.202 -3.93482 -3.49369 0
M  V30 9027 O 825.228 -4.64551 -3.28909 0
M  V30 9028 N 826.43 -3.39042 -4.71201 0
M  V30 9029 H 829.195 -2.9214 -0.668897 0
M  V30 9030 H 826.756 -1.60425 -0.218038 0
M  V30 9031 H 828.748 -2.51856 -3.16782 0
M  V30 9032 H 827.318 -1.5606 -2.70858 0
M  V30 9033 H 826.538 -3.68079 -1.41109 0
M  V30 9034 H 827.826 -4.56343 -2.25007 0
M  V30 9035 H 827.224 -2.81434 -4.90725 0
M  V30 9036 H 825.781 -3.57045 -5.45309 0
M  V30 9037 N 829.214 0.302327 -1.54673 0
M  V30 9038 C 830.144 1.37759 -1.88533 0
M  V30 9039 C 831.125 1.52961 -0.744113 0
M  V30 9040 O 832.31 1.6649 -0.999731 0
M  V30 9041 C 829.44 2.74201 -2.13146 0
M  V30 9042 C 828.394 2.73765 -3.28993 0
M  V30 9043 C 827.72 4.13483 -3.39022 0
M  V30 9044 C 829.02 2.35624 -4.66132 0
M  V30 9045 H 830.714 1.0967 -2.78591 0
M  V30 9046 H 828.26 0.52613 -1.34044 0
M  V30 9047 H 830.213 3.49508 -2.35419 0
M  V30 9048 H 828.937 3.03812 -1.19858 0
M  V30 9049 H 827.596 2.00914 -3.06642 0
M  V30 9050 H 827.244 4.40269 -2.43253 0
M  V30 9051 H 826.944 4.14093 -4.16894 0
M  V30 9052 H 828.468 4.90572 -3.63553 0
M  V30 9053 H 829.882 3.00647 -4.88143 0
M  V30 9054 H 828.279 2.47449 -5.46707 0
M  V30 9055 H 829.349 1.30753 -4.66939 0
M  V30 9056 N 830.692 1.47107 0.565454 0
M  V30 9057 C 831.639 1.58974 1.6732 0
M  V30 9058 C 832.609 0.433146 1.60353 0
M  V30 9059 O 833.794 0.652141 1.79309 0
M  V30 9060 C 830.934 1.60224 3.05651 0
M  V30 9061 C 830.047 2.86741 3.23116 0
M  V30 9062 C 829.182 2.79381 4.51796 0
M  V30 9063 C 828.221 4.0076 4.62664 0
M  V30 9064 N 827.358 3.91685 5.8269 0
M  V30 9065 H 832.198 2.53588 1.56515 0
M  V30 9066 H 829.735 1.25791 0.762558 0
M  V30 9067 H 831.693 1.58933 3.85741 0
M  V30 9068 H 830.323 0.691285 3.15311 0
M  V30 9069 H 829.375 2.97936 2.36513 0
M  V30 9070 H 830.687 3.7665 3.27011 0
M  V30 9071 H 829.841 2.76293 5.40136 0
M  V30 9072 H 828.58 1.87142 4.50366 0
M  V30 9073 H 827.585 4.04162 3.72738 0
M  V30 9074 H 828.81 4.94117 4.6586 0
M  V30 9075 H 826.756 3.02243 5.82224 0
M  V30 9076 H 826.673 4.75264 5.87929 0
M  V30 9077 H 827.941 3.92599 6.73414 0
M  V30 9078 N 832.17 -0.811516 1.35101 0
M  V30 9079 C 833.447 -1.55491 1.18667 0
M  V30 9080 C 833.827 -2.09775 -0.236189 0
M  V30 9081 O 833.175 -1.91989 -1.23905 0
M  V30 9082 C 833.385 -2.66732 2.25067 0
M  V30 9083 C 834.733 -3.35201 2.60625 0
M  V30 9084 O 835.757 -2.76998 2.23943 0
M  V30 9085 O 834.616 -4.40334 3.23679 0
M  V30 9086 H 831.71 -0.686783 0.460716 0
M  V30 9087 H 834.256 -0.851903 1.46768 0
M  V30 9088 H 833.028 -2.24457 3.20523 0
M  V30 9089 H 832.651 -3.44673 1.98208 0
M  V30 9090 N 833.648 -1.19017 -1.03309 0
M  V30 9091 C 834.595 -0.924088 -2.11493 0
M  V30 9092 C 835.565 0.139464 -1.65513 0
M  V30 9093 O 836.75 -0.00178761 -1.908 0
M  V30 9094 C 833.89 -0.464255 -3.41963 0
M  V30 9095 C 833.003 -1.5941 -4.01513 0
M  V30 9096 C 832.138 -1.08622 -5.19976 0
M  V30 9097 C 831.177 -2.19024 -5.71572 0
M  V30 9098 N 830.314 -1.69575 -6.81314 0
M  V30 9099 H 835.154 -1.85039 -2.33591 0
M  V30 9100 H 832.691 -0.922593 -1.14572 0
M  V30 9101 H 834.649 -0.179078 -4.16815 0
M  V30 9102 H 833.279 0.425062 -3.19989 0
M  V30 9103 H 832.331 -1.99458 -3.23915 0
M  V30 9104 H 833.643 -2.42604 -4.35826 0
M  V30 9105 H 832.797 -0.756022 -6.01971 0
M  V30 9106 H 831.536 -0.223955 -4.87186 0
M  V30 9107 H 830.541 -2.5288 -4.88193 0
M  V30 9108 H 831.766 -3.05699 -6.06403 0
M  V30 9109 H 829.712 -0.856494 -6.50385 0
M  V30 9110 H 829.629 -2.46361 -7.14732 0
M  V30 9111 H 830.897 -1.39505 -7.66915 0
M  V30 9112 N 835.127 1.22348 -0.993418 0
M  V30 9113 C 836.09 2.22522 -0.549251 0
M  V30 9114 C 837.09 1.56529 0.368164 0
M  V30 9115 O 838.28 1.73463 0.16005 0
M  V30 9116 C 835.412 3.40307 0.201037 0
M  V30 9117 H 836.605 2.63332 -1.43515 0
M  V30 9118 H 834.158 1.35407 -0.78068 0
M  V30 9119 H 834.893 3.0497 1.10289 0
M  V30 9120 H 834.678 3.8942 -0.457685 0
M  V30 9121 H 836.168 4.14597 0.499946 0
M  V30 9122 N 836.605 0.766683 1.37694 0
M  V30 9123 C 837.882 0.25366 1.93948 0
M  V30 9124 C 838.262 -1.25041 1.70082 0
M  V30 9125 O 837.61 -2.03115 1.04674 0
M  V30 9126 C 837.82 0.621549 3.43421 0
M  V30 9127 C 839.168 0.588504 4.20502 0
M  V30 9128 O 840.192 0.560632 3.5176 0
M  V30 9129 O 839.051 0.61107 5.43073 0
M  V30 9130 H 836.145 0.0570586 0.825029 0
M  V30 9131 H 838.691 0.847693 1.47011 0
M  V30 9132 H 837.463 1.65979 3.54354 0
M  V30 9133 H 837.086 0.000197027 3.976 0
M  V30 9134 N 838.083 -1.48885 0.516809 0
M  V30 9135 C 839.33 -2.02488 -0.0220602 0
M  V30 9136 C 839.658 -1.39513 -1.35523 0
M  V30 9137 O 838.913 -0.52558 -1.8851 0
M  V30 9138 C 839.212 -3.56801 -0.206798 0
M  V30 9139 C 838.878 -4.38496 1.05035 0
M  V30 9140 C 837.54 -4.60538 1.39492 0
M  V30 9141 C 839.892 -4.85909 1.88525 0
M  V30 9142 C 837.22 -5.2724 2.57361 0
M  V30 9143 C 839.572 -5.53909 3.05561 0
M  V30 9144 C 838.236 -5.74193 3.4038 0
M  V30 9145 H 837.506 -0.740956 -0.00807238 0
M  V30 9146 H 840.153 -1.79014 0.680168 0
M  V30 9147 H 838.458 -3.79042 -0.991687 0
M  V30 9148 H 840.155 -3.95885 -0.638447 0
M  V30 9149 H 836.745 -4.2159 0.771984 0
M  V30 9150 H 840.929 -4.68694 1.63218 0
M  V30 9151 H 836.185 -5.41145 2.84556 0
M  V30 9152 H 840.359 -5.89619 3.7057 0
M  V30 9153 H 837.986 -6.25652 4.31814 0
M  V30 9154 N 839.561 -0.251338 -1.55583 0
M  V30 9155 C 840.801 0.373651 -2.00956 0
M  V30 9156 C 841.165 1.54806 -1.13574 0
M  V30 9157 O 842.366 2.24108 -1.48422 0
M  V30 9158 C 840.637 0.768919 -3.49031 0
M  V30 9159 S 842.196 1.38381 -4.16409 0
M  V30 9160 H 839.014 0.117371 -0.701245 0
M  V30 9161 H 841.616 -0.367611 -1.92013 0
M  V30 9162 H 840.32 -0.0950492 -4.1029 0
M  V30 9163 H 839.851 1.54225 -3.61909 0
M  V30 9164 H 841.866 2.6728 -4.18062 0
M  V30 9165 N 841.039 1.57585 0.0217189 0
M  V30 9166 C 842.288 1.88786 0.710125 0
M  V30 9167 C 842.601 0.850819 1.76126 0
M  V30 9168 O 843.807 1.0523 2.50277 0
M  V30 9169 C 842.263 3.3505 1.31413 0
M  V30 9170 C 841.871 4.47001 0.298959 0
M  V30 9171 C 843.615 3.7539 1.98199 0
M  V30 9172 C 841.522 5.8433 0.911727 0
M  V30 9173 H 840.452 0.704388 0.268986 0
M  V30 9174 H 843.103 1.83466 -0.0352638 0
M  V30 9175 H 841.485 3.35138 2.10947 0
M  V30 9176 H 842.659 4.58395 -0.470203 0
M  V30 9177 H 840.974 4.15542 -0.267222 0
M  V30 9178 H 843.571 4.75314 2.4491 0
M  V30 9179 H 843.914 3.07766 2.80331 0
M  V30 9180 H 844.447 3.77508 1.2543 0
M  V30 9181 H 841.186 6.55372 0.129659 0
M  V30 9182 H 840.706 5.76643 1.65056 0
M  V30 9183 H 842.385 6.31295 1.41688 0
M  V30 9184 N 842.517 -0.29412 1.54831 0
M  V30 9185 C 843.766 -1.02614 1.73647 0
M  V30 9186 C 844.079 -1.88193 0.533162 0
M  V30 9187 O 845.285 -2.64713 0.603275 0
M  V30 9188 C 843.741 -1.87417 3.07251 0
M  V30 9189 C 843.349 -1.06806 4.35082 0
M  V30 9190 C 845.093 -2.60176 3.35423 0
M  V30 9191 C 843 -1.90926 5.59733 0
M  V30 9192 H 841.93 -0.386834 0.647206 0
M  V30 9193 H 844.581 -0.282789 1.81308 0
M  V30 9194 H 842.963 -2.65765 2.93572 0
M  V30 9195 H 844.137 -0.330226 4.59615 0
M  V30 9196 H 842.452 -0.455979 4.13896 0
M  V30 9197 H 845.049 -3.23476 4.25755 0
M  V30 9198 H 845.392 -3.29365 2.54606 0
M  V30 9199 H 845.925 -1.88871 3.50103 0
M  V30 9200 H 842.664 -1.26194 6.43238 0
M  V30 9201 H 842.184 -2.62363 5.39375 0
M  V30 9202 H 843.863 -2.48807 5.97247 0
M  V30 9203 N 843.995 -1.47404 -0.557645 0
M  V30 9204 C 844.945 -1.56267 -1.66026 0
M  V30 9205 C 845.929 -0.42161 -1.55278 0
M  V30 9206 O 847.121 -0.671505 -1.63768 0
M  V30 9207 C 844.25 -1.57958 -3.04802 0
M  V30 9208 C 843.336 -2.77447 -3.20755 0
M  V30 9209 N 843.727 -4.02148 -3.06775 0
M  V30 9210 C 842.025 -2.74199 -3.51754 0
M  V30 9211 C 842.726 -4.82168 -3.25406 0
M  V30 9212 N 841.702 -4.14481 -3.5172 0
M  V30 9213 H 845.504 -2.50454 -1.53785 0
M  V30 9214 H 843.018 -1.43392 -0.762388 0
M  V30 9215 H 845.015 -1.62397 -3.8397 0
M  V30 9216 H 843.675 -0.648667 -3.18155 0
M  V30 9217 H 844.686 -4.33014 -2.84111 0
M  V30 9218 H 841.363 -1.90243 -3.71637 0
M  V30 9219 H 842.753 -5.91037 -3.19569 0
M  V30 9220 N 845.473 0.80434 -1.35529 0
M  V30 9221 C 846.703 1.59052 -1.31856 0
M  V30 9222 C 847.111 1.88905 0.105549 0
M  V30 9223 O 846.454 1.49422 1.06858 0
M  V30 9224 C 846.516 2.94626 -2.06 0
M  V30 9225 C 846.18 2.87576 -3.55175 0
M  V30 9226 C 847.177 2.60856 -4.49722 0
M  V30 9227 C 844.862 3.06623 -3.97854 0
M  V30 9228 C 846.856 2.53262 -5.84925 0
M  V30 9229 C 844.543 2.98652 -5.33151 0
M  V30 9230 C 845.541 2.72007 -6.26499 0
M  V30 9231 O 845.229 2.64003 -7.59314 0
M  V30 9232 H 844.961 0.500486 -0.454411 0
M  V30 9233 H 847.515 1.0074 -1.78999 0
M  V30 9234 H 845.745 3.5493 -1.53498 0
M  V30 9235 H 847.434 3.55785 -1.95376 0
M  V30 9236 H 848.2 2.45858 -4.18066 0
M  V30 9237 H 844.079 3.26372 -3.2558 0
M  V30 9238 H 847.623 2.32386 -6.57756 0
M  V30 9239 H 843.52 3.13208 -5.64421 0
M  V30 9240 H 844.288 2.79595 -7.69265 0
M  V30 9241 N 846.951 1.19563 1.02676 0
M  V30 9242 C 847.914 0.937182 2.09164 0
M  V30 9243 C 848.914 -0.0831927 1.60585 0
M  V30 9244 O 850.104 0.15178 1.73538 0
M  V30 9245 C 847.236 0.408912 3.38439 0
M  V30 9246 H 848.429 1.88164 2.33526 0
M  V30 9247 H 845.982 1.00959 1.19319 0
M  V30 9248 H 846.717 -0.541497 3.19747 0
M  V30 9249 H 846.502 1.14464 3.7502 0
M  V30 9250 H 847.992 0.247242 4.16867 0
M  V30 9251 N 848.429 -1.21819 0.999893 0
M  V30 9252 C 849.677 -1.90375 0.678351 0
M  V30 9253 C 849.998 -1.78155 -0.792824 0
M  V30 9254 O 849.268 -1.17319 -1.56885 0
M  V30 9255 H 847.848 -0.704661 0.247915 0
M  V30 9256 H 850.51 -1.48021 1.2679 0
M  V30 9257 H 849.606 -2.97385 0.947023 0
M  V30 9258 N 849.908 -0.773975 -1.37286 0
M  V30 9259 C 850.855 -0.159938 -2.30245 0
M  V30 9260 C 851.825 0.687356 -1.51211 0
M  V30 9261 O 853.01 0.639255 -1.79773 0
M  V30 9262 C 850.15 0.711452 -3.37687 0
M  V30 9263 C 849.263 -0.152692 -4.3173 0
M  V30 9264 C 848.398 0.723613 -5.26248 0
M  V30 9265 C 847.437 -0.14293 -6.11933 0
M  V30 9266 N 846.574 0.691479 -6.98687 0
M  V30 9267 H 851.414 -0.958182 -2.82175 0
M  V30 9268 H 848.951 -0.48411 -1.38906 0
M  V30 9269 H 850.909 1.2315 -3.9861 0
M  V30 9270 H 849.539 1.47528 -2.87116 0
M  V30 9271 H 848.591 -0.790574 -3.72094 0
M  V30 9272 H 849.903 -0.821027 -4.91997 0
M  V30 9273 H 849.057 1.31006 -5.92387 0
M  V30 9274 H 847.796 1.42562 -4.66398 0
M  V30 9275 H 846.801 -0.7419 -5.44771 0
M  V30 9276 H 848.026 -0.842305 -6.73856 0
M  V30 9277 H 845.972 1.37806 -6.41362 0
M  V30 9278 H 845.889 0.0804911 -7.55957 0
M  V30 9279 H 847.157 1.26225 -7.69212 0
M  V30 9280 N 851.386 1.48609 -0.524698 0
M  V30 9281 C 852.632 2.02797 0.0113382 0
M  V30 9282 C 852.965 1.40147 1.34433 0
M  V30 9283 O 852.24 0.545368 1.86698 0
M  V30 9284 C 852.523 3.59832 0.138931 0
M  V30 9285 C 852.376 4.32971 -1.21886 0
M  V30 9286 C 853.695 4.3145 0.868265 0
M  V30 9287 H 850.814 0.736995 0.00264645 0
M  V30 9288 H 853.456 1.77388 -0.680704 0
M  V30 9289 H 851.606 3.81612 0.72834 0
M  V30 9290 H 853.278 4.22624 -1.84897 0
M  V30 9291 H 851.521 3.94597 -1.80211 0
M  V30 9292 H 852.192 5.41279 -1.08263 0
M  V30 9293 H 854.668 4.14468 0.368145 0
M  V30 9294 H 853.544 5.41025 0.926428 0
M  V30 9295 H 853.805 3.98358 1.91737 0
M  V30 9296 N 852.864 0.259585 1.55447 0
M  V30 9297 C 854.141 -0.412595 1.91199 0
M  V30 9298 C 854.521 -1.74909 1.18194 0
M  V30 9299 O 853.869 -2.26474 0.303603 0
M  V30 9300 C 854.079 -0.568195 3.44344 0
M  V30 9301 C 855.427 -0.858253 4.15836 0
M  V30 9302 O 856.451 -0.653588 3.50152 0
M  V30 9303 O 855.31 -1.24874 5.32042 0
M  V30 9304 H 852.404 -0.223403 0.796254 0
M  V30 9305 H 854.95 0.30459 1.66944 0
M  V30 9306 H 853.722 0.372989 3.89518 0
M  V30 9307 H 853.345 -1.33544 3.74502 0
M  V30 9308 N 854.342 -1.57594 -0.0133615 0
M  V30 9309 C 855.572 -1.93969 -0.711295 0
M  V30 9310 C 855.98 -0.859084 -1.68572 0
M  V30 9311 O 855.323 0.171842 -1.82894 0
M  V30 9312 C 855.385 -3.2625 -1.51001 0
M  V30 9313 C 855.049 -4.51628 -0.698645 0
M  V30 9314 C 856.046 -5.19899 0.00791185 0
M  V30 9315 C 853.731 -4.98095 -0.648553 0
M  V30 9316 C 855.725 -6.32928 0.753691 0
M  V30 9317 C 853.412 -6.11017 0.10096 0
M  V30 9318 C 854.41 -6.78289 0.800828 0
M  V30 9319 O 854.098 -7.89048 1.53814 0
M  V30 9320 H 853.83 -0.6445 -0.203951 0
M  V30 9321 H 856.384 -2.05378 0.0298267 0
M  V30 9322 H 854.614 -3.11211 -2.29531 0
M  V30 9323 H 856.303 -3.47835 -2.09202 0
M  V30 9324 H 857.069 -4.84995 -0.0217192 0
M  V30 9325 H 852.948 -4.45568 -1.18282 0
M  V30 9326 H 856.492 -6.85371 1.3005 0
M  V30 9327 H 852.389 -6.45364 0.132459 0
M  V30 9328 H 853.157 -8.05492 1.45345 0
M  V30 9329 N 855.82 0.285905 -1.54985 0
M  V30 9330 C 856.767 1.35306 -1.86978 0
M  V30 9331 C 857.737 1.49682 -0.720046 0
M  V30 9332 O 858.922 1.64297 -0.970107 0
M  V30 9333 C 856.062 2.71059 -2.13591 0
M  V30 9334 C 855.175 2.6501 -3.41165 0
M  V30 9335 C 854.31 3.92856 -3.57544 0
M  V30 9336 C 853.349 3.81266 -4.78855 0
M  V30 9337 N 852.486 5.00919 -4.9196 0
M  V30 9338 H 857.326 1.07323 -2.78003 0
M  V30 9339 H 854.863 0.518776 -1.37649 0
M  V30 9340 H 856.821 3.50026 -2.27019 0
M  V30 9341 H 855.451 2.97271 -1.25816 0
M  V30 9342 H 854.503 1.77824 -3.36278 0
M  V30 9343 H 855.815 2.52342 -4.30262 0
M  V30 9344 H 854.969 4.80263 -3.70718 0
M  V30 9345 H 853.708 4.08377 -2.66608 0
M  V30 9346 H 852.713 2.92243 -4.65698 0
M  V30 9347 H 853.938 3.67277 -5.71213 0
M  V30 9348 H 851.884 5.16875 -4.03951 0
M  V30 9349 H 851.801 4.90732 -5.75081 0
M  V30 9350 H 853.069 5.89935 -5.09507 0
M  V30 9351 N 857.298 1.47698 0.54982 0
M  V30 9352 C 858.261 1.60282 1.63837 0
M  V30 9353 C 859.261 0.477394 1.5355 0
M  V30 9354 O 860.451 0.742665 1.57576 0
M  V30 9355 C 857.583 1.55431 3.03404 0
M  V30 9356 H 858.776 2.57325 1.54026 0
M  V30 9357 H 856.329 1.35999 0.770329 0
M  V30 9358 H 857.064 0.597912 3.1874 0
M  V30 9359 H 856.849 2.37116 3.12279 0
M  V30 9360 H 858.339 1.6739 3.82584 0
M  V30 9361 N 858.776 -0.797141 1.35954 0
M  V30 9362 C 860.053 -1.54224 1.2031 0
M  V30 9363 C 860.433 -2.10013 -0.213926 0
M  V30 9364 O 859.781 -1.93292 -1.21862 0
M  V30 9365 C 859.991 -2.6433 2.27883 0
M  V30 9366 C 861.339 -3.32418 2.64165 0
M  V30 9367 O 862.363 -2.74607 2.26868 0
M  V30 9368 O 861.222 -4.36876 3.28331 0
M  V30 9369 H 858.316 -0.681857 0.467974 0
M  V30 9370 H 860.862 -0.836288 1.47663 0
M  V30 9371 H 859.634 -2.21044 3.22885 0
M  V30 9372 H 859.257 -3.42551 2.01853 0
M  V30 9373 N 860.254 -1.20106 -1.0204 0
M  V30 9374 C 861.164 -0.962051 -2.13967 0
M  V30 9375 C 862.18 0.0808053 -1.73812 0
M  V30 9376 O 863.356 -0.105774 -2.01122 0
M  V30 9377 C 860.421 -0.513108 -3.42882 0
M  V30 9378 C 859.482 -1.62636 -3.97301 0
M  V30 9379 C 858.715 -1.19875 -5.20063 0
M  V30 9380 O 858.938 -0.0658423 -5.70362 0
M  V30 9381 O 857.872 -2.00467 -5.67536 0
M  V30 9382 H 861.698 -1.8991 -2.36998 0
M  V30 9383 H 859.283 -0.984608 -1.12365 0
M  V30 9384 H 861.165 -0.271797 -4.20523 0
M  V30 9385 H 859.84 0.395402 -3.21276 0
M  V30 9386 H 858.747 -1.92192 -3.20957 0
M  V30 9387 H 860.08 -2.51174 -4.23288 0
M  V30 9388 N 861.732 1.21287 -1.00634 0
M  V30 9389 C 862.978 1.90957 -0.70051 0
M  V30 9390 C 863.333 1.76729 0.760567 0
M  V30 9391 O 862.626 1.13405 1.54434 0
M  V30 9392 C 862.82 3.41374 -1.05824 0
M  V30 9393 C 862.649 3.70237 -2.55254 0
M  V30 9394 C 861.419 3.89518 -3.21876 0
M  V30 9395 C 863.617 3.73633 -3.53417 0
M  V30 9396 N 861.599 4.05809 -4.60643 0
M  V30 9397 C 862.97 3.95225 -4.777 0
M  V30 9398 C 865.025 3.56545 -3.47534 0
M  V30 9399 C 863.728 4.01502 -5.96815 0
M  V30 9400 C 865.754 3.64089 -4.6604 0
M  V30 9401 C 865.116 3.86144 -5.89128 0
M  V30 9402 H 861.215 0.718861 -0.307835 0
M  V30 9403 H 863.799 1.45913 -1.28908 0
M  V30 9404 H 861.97 3.85193 -0.498106 0
M  V30 9405 H 863.702 3.98476 -0.707006 0
M  V30 9406 H 860.457 3.87479 -2.72318 0
M  V30 9407 H 860.881 4.17854 -5.32661 0
M  V30 9408 H 865.523 3.38469 -2.53375 0
M  V30 9409 H 863.241 4.18378 -6.91365 0
M  V30 9410 H 866.827 3.52188 -4.63092 0
M  V30 9411 H 865.707 3.91827 -6.79295 0
M  V30 9412 N 863.21 0.781244 1.36873 0
M  V30 9413 C 864.14 0.188128 2.32741 0
M  V30 9414 C 865.121 -0.672326 1.56249 0
M  V30 9415 O 866.306 -0.607835 1.84442 0
M  V30 9416 C 863.436 -0.684341 3.40491 0
M  V30 9417 C 862.39 0.0755641 4.27933 0
M  V30 9418 C 861.716 -0.916968 5.26779 0
M  V30 9419 C 863.016 1.26006 5.06873 0
M  V30 9420 H 864.71 0.989016 2.82593 0
M  V30 9421 H 862.256 0.477038 1.35869 0
M  V30 9422 H 864.209 -1.10915 4.06541 0
M  V30 9423 H 862.933 -1.51785 2.89187 0
M  V30 9424 H 861.592 0.481258 3.63427 0
M  V30 9425 H 861.24 -1.74528 4.71751 0
M  V30 9426 H 860.94 -0.413 5.86147 0
M  V30 9427 H 862.464 -1.34052 5.95703 0
M  V30 9428 H 863.878 0.911425 5.66009 0
M  V30 9429 H 862.275 1.69676 5.75613 0
M  V30 9430 H 863.345 2.05948 4.38991 0
M  V30 9431 N 864.689 -1.48329 0.532571 0
M  V30 9432 C 865.622 -2.26524 -0.2761 0
M  V30 9433 C 866.6 -1.32498 -0.942496 0
M  V30 9434 O 867.784 -1.61844 -0.966376 0
M  V30 9435 C 864.911 -3.08808 -1.39124 0
M  V30 9436 C 863.957 -4.18227 -0.835984 0
M  V30 9437 S 864.79 -5.34669 0.298186 0
M  V30 9438 C 865.946 -6.20514 -0.81937 0
M  V30 9439 H 866.179 -2.94764 0.387502 0
M  V30 9440 H 863.712 -1.51081 0.318407 0
M  V30 9441 H 865.67 -3.56792 -2.03002 0
M  V30 9442 H 864.331 -2.39976 -2.02658 0
M  V30 9443 H 863.524 -4.75435 -1.67264 0
M  V30 9444 H 863.126 -3.72996 -0.27385 0
M  V30 9445 H 865.418 -6.55371 -1.7174 0
M  V30 9446 H 866.361 -7.07525 -0.285199 0
M  V30 9447 H 866.769 -5.5366 -1.10094 0
M  V30 9448 N 866.167 -0.267825 -1.55308 0
M  V30 9449 C 867.114 0.6228 -2.22238 0
M  V30 9450 C 868.084 1.15536 -1.19334 0
M  V30 9451 O 869.269 1.206 -1.47852 0
M  V30 9452 C 866.409 1.80447 -2.94164 0
M  V30 9453 C 865.522 1.30646 -4.11771 0
M  V30 9454 C 864.657 2.44935 -4.7136 0
M  V30 9455 C 863.696 1.92099 -5.81175 0
M  V30 9456 N 862.833 2.99834 -6.34857 0
M  V30 9457 H 867.673 0.0453874 -2.97965 0
M  V30 9458 H 865.21 0.0106371 -1.47096 0
M  V30 9459 H 867.168 2.49896 -3.34078 0
M  V30 9460 H 865.798 2.35403 -2.20874 0
M  V30 9461 H 864.85 0.505314 -3.77029 0
M  V30 9462 H 866.162 0.879409 -4.90987 0
M  V30 9463 H 865.316 3.2239 -5.13955 0
M  V30 9464 H 864.055 2.90951 -3.91406 0
M  V30 9465 H 863.06 1.13122 -5.38037 0
M  V30 9466 H 864.285 1.47027 -6.62993 0
M  V30 9467 H 862.231 3.45246 -5.578 0
M  V30 9468 H 862.148 2.61524 -7.09324 0
M  V30 9469 H 863.416 3.77286 -6.82111 0
M  V30 9470 N 867.645 1.57599 0.00500368 0
M  V30 9471 C 868.593 2.09223 1.01628 0
M  V30 9472 C 869.587 1.01113 1.35913 0
M  V30 9473 O 870.793 1.19583 1.34536 0
M  V30 9474 H 867.168 0.667999 0.345372 0
M  V30 9475 H 869.139 2.93188 0.555274 0
M  V30 9476 C 867.888 2.60674 2.30097 0
M  V30 9477 H 867.211 3.43491 2.04582 0
M  V30 9478 H 868.651 3.00479 2.99146 0
M  V30 9479 C 867.11 1.51862 3.00731 0
M  V30 9480 O 867.64 0.898651 3.91519 0
M  V30 9481 N 865.846 1.24729 2.62471 0
M  V30 9482 H 865.393 1.7533 1.88725 0
M  V30 9483 H 865.351 0.521437 3.10046 0
M  V30 9484 N 869.123 -0.277682 1.55134 0
M  V30 9485 C 870.056 -1.3685 1.82612 0
M  V30 9486 C 871.034 -1.47752 0.678833 0
M  V30 9487 O 872.218 -1.6445 0.921329 0
M  V30 9488 C 869.345 -2.74539 1.98359 0
M  V30 9489 C 868.391 -2.80945 3.20893 0
M  V30 9490 S 869.224 -2.40666 4.78373 0
M  V30 9491 C 870.38 -3.80338 4.97085 0
M  V30 9492 H 870.613 -1.13338 2.74849 0
M  V30 9493 H 868.146 -0.477063 1.46845 0
M  V30 9494 H 870.104 -3.53834 2.08115 0
M  V30 9495 H 868.765 -2.95306 1.07019 0
M  V30 9496 H 867.958 -3.81992 3.28783 0
M  V30 9497 H 867.56 -2.09667 3.09703 0
M  V30 9498 H 869.852 -4.75565 4.8254 0
M  V30 9499 H 870.795 -3.77403 5.99143 0
M  V30 9500 H 871.203 -3.71424 4.25094 0
M  V30 9501 N 870.601 -1.47988 -0.541979 0
M  V30 9502 C 871.878 -1.45878 -1.30303 0
M  V30 9503 C 872.258 -0.163931 -2.10463 0
M  V30 9504 O 871.606 0.854479 -2.11922 0
M  V30 9505 C 871.816 -2.71359 -2.19466 0
M  V30 9506 C 873.164 -3.19199 -2.79995 0
M  V30 9507 O 874.188 -2.72193 -2.2976 0
M  V30 9508 O 873.047 -4.00961 -3.71339 0
M  V30 9509 H 870.141 -0.582043 -0.587498 0
M  V30 9510 H 872.687 -1.60207 -0.559623 0
M  V30 9511 H 871.459 -3.57122 -1.59936 0
M  V30 9512 H 871.082 -2.59692 -3.01075 0
M  V30 9513 N 872.079 0.78992 -1.36375 0
M  V30 9514 C 873.49 1.36506 -1.2737 0
M  V30 9515 C 873.841 1.96008 0.086711 0
M  V30 9516 O 872.966 1.92521 0.988159 0
M  V30 9517 C 873.561 2.48175 -2.30639 0
M  V30 9518 C 872.12 3.01506 -2.25325 0
M  V30 9519 C 871.267 1.74581 -2.15445 0
M  V30 9520 H 874.218 0.591606 -1.47261 0
M  V30 9521 H 874.239 3.27179 -1.94253 0
M  V30 9522 H 873.751 2.04838 -3.2964 0
M  V30 9523 H 871.852 3.49265 -1.29788 0
M  V30 9524 H 871.965 3.58355 -3.17992 0
M  V30 9525 H 870.329 1.96794 -1.61692 0
M  V30 9526 H 871.112 1.33373 -3.16333 0
M  V30 9527 N 873.557 1.20646 1.01402 0
M  V30 9528 C 874.487 0.98155 2.11867 0
M  V30 9529 C 875.468 -0.0903712 1.6986 0
M  V30 9530 O 876.653 0.0676586 1.94082 0
M  V30 9531 C 873.783 0.535636 3.43145 0
M  V30 9532 C 872.737 1.55109 3.98905 0
M  V30 9533 C 872.063 0.961725 5.2598 0
M  V30 9534 C 873.363 2.93552 4.32001 0
M  V30 9535 H 875.057 1.90544 2.3094 0
M  V30 9536 H 872.603 0.917554 1.10982 0
M  V30 9537 H 874.556 0.365512 4.19812 0
M  V30 9538 H 873.28 -0.423882 3.23838 0
M  V30 9539 H 871.939 1.70862 3.24348 0
M  V30 9540 H 871.587 -0.00580108 5.03 0
M  V30 9541 H 871.287 1.63993 5.64252 0
M  V30 9542 H 872.811 0.802726 6.053 0
M  V30 9543 H 874.225 2.81295 4.99546 0
M  V30 9544 H 872.622 3.58303 4.81393 0
M  V30 9545 H 873.692 3.4508 3.40658 0
M  V30 9546 N 875.035 -1.20752 1.01276 0
M  V30 9547 C 875.983 -2.25432 0.572989 0
M  V30 9548 C 876.977 -1.64935 -0.386354 0
M  V30 9549 O 878.183 -1.7816 -0.256696 0
M  V30 9550 H 874.558 -0.733229 0.166972 0
M  V30 9551 H 876.529 -2.59856 1.46687 0
M  V30 9552 C 875.278 -3.47615 -0.0768249 0
M  V30 9553 H 874.601 -3.94442 0.652354 0
M  V30 9554 H 876.041 -4.22572 -0.3477 0
M  V30 9555 C 874.5 -3.1003 -1.31845 0
M  V30 9556 O 875.03 -3.21216 -2.41211 0
M  V30 9557 N 873.236 -2.64616 -1.20111 0
M  V30 9558 H 872.783 -2.55714 -0.311184 0
M  V30 9559 H 872.741 -2.39838 -2.03286 0
M  V30 9560 N 876.513 -0.788492 -1.36457 0
M  V30 9561 C 877.79 -0.284484 -1.9352 0
M  V30 9562 C 878.17 1.2232 -1.7205 0
M  V30 9563 O 877.518 2.01424 -1.07892 0
M  V30 9564 C 877.728 -0.676106 -3.42388 0
M  V30 9565 C 879.076 -0.655327 -4.19512 0
M  V30 9566 O 880.1 -0.616523 -3.50824 0
M  V30 9567 O 878.959 -0.697391 -5.42032 0
M  V30 9568 H 876.053 -0.0701769 -0.824017 0
M  V30 9569 H 878.599 -0.870974 -1.45644 0
M  V30 9570 H 877.371 -1.71596 -3.51668 0
M  V30 9571 H 876.994 -0.0634517 -3.97549 0
M  V30 9572 N 877.991 1.48044 -0.54043 0
M  V30 9573 C 878.939 2.31461 0.229862 0
M  V30 9574 C 879.933 1.41884 0.925495 0
M  V30 9575 O 881.139 1.58736 0.848689 0
M  V30 9576 H 877.514 0.746227 0.0929975 0
M  V30 9577 H 879.485 2.94297 -0.493118 0
M  V30 9578 C 878.234 3.24172 1.25729 0
M  V30 9579 H 877.557 3.93052 0.731426 0
M  V30 9580 H 878.997 3.85404 1.76747 0
M  V30 9581 C 877.456 2.4651 2.2964 0
M  V30 9582 O 877.986 2.19742 3.36268 0
M  V30 9583 N 876.192 2.07817 2.03127 0
M  V30 9584 H 875.739 2.29786 1.1643 0
M  V30 9585 H 875.697 1.56168 2.72872 0
M  V30 9586 N 879.47 0.276058 1.55163 0
M  V30 9587 C 880.719 -0.341098 1.98795 0
M  V30 9588 C 881.032 -1.56905 1.16791 0
M  V30 9589 O 882.238 -2.25922 1.50571 0
M  V30 9590 C 880.694 -0.658231 3.5383 0
M  V30 9591 C 880.302 0.549972 4.44611 0
M  V30 9592 C 882.046 -1.23796 4.06048 0
M  V30 9593 C 879.953 0.207373 5.91036 0
M  V30 9594 H 878.883 -0.131224 0.742493 0
M  V30 9595 H 881.534 0.380858 1.79504 0
M  V30 9596 H 879.916 -1.43911 3.68925 0
M  V30 9597 H 881.09 1.32681 4.41285 0
M  V30 9598 H 879.405 1.04661 4.03032 0
M  V30 9599 H 882.002 -1.50811 5.12991 0
M  V30 9600 H 882.345 -2.17214 3.55139 0
M  V30 9601 H 882.878 -0.519345 3.94395 0
M  V30 9602 H 879.617 1.10946 6.46043 0
M  V30 9603 H 879.137 -0.532687 5.9743 0
M  V30 9604 H 880.816 -0.200072 6.46691 0
M  V30 9605 N 880.948 -1.576 0.00335426 0
M  V30 9606 C 881.911 -2.07576 -0.971838 0
M  V30 9607 C 882.911 -0.985796 -1.27038 0
M  V30 9608 O 884.101 -1.24833 -1.21501 0
M  V30 9609 C 881.233 -2.52003 -2.29581 0
M  V30 9610 H 882.426 -2.95008 -0.539481 0
M  V30 9611 H 879.979 -1.54381 -0.244186 0
M  V30 9612 H 880.714 -1.67825 -2.77498 0
M  V30 9613 H 880.499 -3.31609 -2.09231 0
M  V30 9614 H 881.989 -2.90983 -2.99531 0
M  V30 9615 N 882.426 0.269451 -1.5528 0
M  V30 9616 C 883.654 1.01872 -1.80082 0
M  V30 9617 C 884.069 1.79802 -0.575917 0
M  V30 9618 O 883.426 1.76735 0.455081 0
M  V30 9619 C 883.477 1.9745 -3.02813 0
M  V30 9620 O 883.198 1.22677 -4.20573 0
M  V30 9621 C 884.699 2.8416 -3.40247 0
M  V30 9622 H 881.919 0.300781 -0.59981 0
M  V30 9623 H 884.463 0.29916 -2.023 0
M  V30 9624 H 882.618 2.64864 -2.82712 0
M  V30 9625 H 883.032 1.87129 -4.89982 0
M  V30 9626 H 884.506 3.47014 -4.29284 0
M  V30 9627 H 884.983 3.54113 -2.59809 0
M  V30 9628 H 885.589 2.22232 -3.6262 0
M  V30 9629 N 883.904 1.48273 0.534124 0
M  V30 9630 C 884.834 1.6538 1.64839 0
M  V30 9631 C 885.815 0.502741 1.62501 0
M  V30 9632 O 887 0.734799 1.79762 0
M  V30 9633 C 884.13 1.68949 3.03436 0
M  V30 9634 C 883.084 2.83513 3.20631 0
M  V30 9635 C 882.41 2.72169 4.60248 0
M  V30 9636 C 883.71 4.24858 3.03797 0
M  V30 9637 H 885.404 2.58663 1.50777 0
M  V30 9638 H 882.95 1.24479 0.723937 0
M  V30 9639 H 884.903 1.79505 3.81256 0
M  V30 9640 H 883.627 0.722415 3.1851 0
M  V30 9641 H 882.286 2.72505 2.45227 0
M  V30 9642 H 881.934 1.7344 4.72152 0
M  V30 9643 H 881.634 3.49042 4.72698 0
M  V30 9644 H 883.158 2.84687 5.40172 0
M  V30 9645 H 884.572 4.36721 3.71413 0
M  V30 9646 H 882.969 5.02697 3.27743 0
M  V30 9647 H 884.039 4.41611 2.0027 0
M  V30 9648 N 885.382 -0.782676 1.36792 0
M  V30 9649 C 886.312 -1.90973 1.34356 0
M  V30 9650 C 887.293 -1.6875 0.213917 0
M  V30 9651 O 888.478 -1.89766 0.412601 0
M  V30 9652 C 885.608 -3.28097 1.13884 0
M  V30 9653 C 884.562 -3.6486 2.23744 0
M  V30 9654 C 883.888 -5.00406 1.88408 0
M  V30 9655 C 885.188 -3.72742 3.6587 0
M  V30 9656 H 886.882 -1.93268 2.28665 0
M  V30 9657 H 884.428 -0.928447 1.10072 0
M  V30 9658 H 886.381 -4.06569 1.10813 0
M  V30 9659 H 885.105 -3.26206 0.160275 0
M  V30 9660 H 883.764 -2.88689 2.25952 0
M  V30 9661 H 883.412 -4.95044 0.891083 0
M  V30 9662 H 883.112 -5.25973 2.61966 0
M  V30 9663 H 884.636 -5.81291 1.86905 0
M  V30 9664 H 886.05 -4.4139 3.65852 0
M  V30 9665 H 884.447 -4.09798 4.38389 0
M  V30 9666 H 885.517 -2.73676 4.00287 0
M  V30 9667 N 886.86 -1.21182 -1.00761 0
M  V30 9668 C 887.81 -0.936247 -2.0789 0
M  V30 9669 C 888.794 0.107482 -1.60541 0
M  V30 9670 O 889.986 -0.1011 -1.76711 0
M  V30 9671 C 887.115 -0.499949 -3.3964 0
M  V30 9672 C 886.201 -1.5776 -3.93666 0
M  V30 9673 N 886.592 -2.80208 -4.2109 0
M  V30 9674 C 884.89 -1.44586 -4.21913 0
M  V30 9675 C 885.591 -3.49787 -4.64784 0
M  V30 9676 N 884.567 -2.7722 -4.676 0
M  V30 9677 H 888.369 -1.86659 -2.27015 0
M  V30 9678 H 885.883 -1.10716 -1.1881 0
M  V30 9679 H 887.88 -0.283897 -4.15932 0
M  V30 9680 H 886.54 0.423659 -3.21924 0
M  V30 9681 H 887.551 -3.16776 -4.09724 0
M  V30 9682 H 884.228 -0.587346 -4.13348 0
M  V30 9683 H 885.618 -4.54615 -4.94747 0
M  V30 9684 N 888.338 1.20213 -1.01915 0
M  V30 9685 C 889.27 2.2251 -0.549725 0
M  V30 9686 C 890.283 1.58558 0.369235 0
M  V30 9687 O 891.472 1.77715 0.167176 0
M  V30 9688 C 888.572 3.38189 0.219432 0
M  V30 9689 C 887.745 4.31729 -0.702066 0
M  V30 9690 C 886.804 5.26196 0.0199624 0
M  V30 9691 O 885.83 5.65993 -0.60339 0
M  V30 9692 N 887.032 5.65895 1.29397 0
M  V30 9693 H 889.797 2.63412 -1.42948 0
M  V30 9694 H 887.358 1.3478 -0.896987 0
M  V30 9695 H 889.35 3.98392 0.711763 0
M  V30 9696 H 887.92 2.96156 1.00051 0
M  V30 9697 H 887.14 3.69455 -1.37466 0
M  V30 9698 H 888.428 4.91145 -1.3287 0
M  V30 9699 H 887.826 5.35579 1.8213 0
M  V30 9700 H 886.383 6.28395 1.73098 0
M  V30 9701 N 889.816 0.795718 1.36037 0
M  V30 9702 C 891.041 0.38204 2.03851 0
M  V30 9703 C 891.466 -0.995553 1.59594 0
M  V30 9704 O 890.824 -1.64258 0.767401 0
M  V30 9705 C 890.872 0.461248 3.57638 0
M  V30 9706 O 889.976 -0.529448 4.08987 0
M  V30 9707 H 889.317 0.161227 0.644129 0
M  V30 9708 H 891.847 1.07858 1.73861 0
M  V30 9709 H 891.857 0.32712 4.06687 0
M  V30 9710 H 890.532 1.46613 3.89201 0
M  V30 9711 H 889.109 -0.35646 3.71192 0
M  V30 9712 N 891.294 -1.47756 0.548274 0
M  V30 9713 C 892.519 -2.07387 0.023475 0
M  V30 9714 C 892.944 -1.39956 -1.25674 0
M  V30 9715 O 892.302 -0.471543 -1.7506 0
M  V30 9716 C 892.35 -3.60224 -0.164669 0
M  V30 9717 O 891.454 -3.93653 -1.22928 0
M  V30 9718 H 890.795 -0.662312 0.0473156 0
M  V30 9719 H 893.325 -1.89905 0.761409 0
M  V30 9720 H 893.335 -4.06211 -0.38166 0
M  V30 9721 H 892.01 -4.08702 0.770425 0
M  V30 9722 H 890.587 -3.59422 -0.993495 0
M  V30 9723 N 892.772 -0.284283 -1.55015 0
M  V30 9724 C 894.049 0.382125 -1.91831 0
M  V30 9725 C 894.429 1.73007 -1.20962 0
M  V30 9726 O 893.777 2.25962 -0.339594 0
M  V30 9727 C 893.987 0.513341 -3.45204 0
M  V30 9728 C 895.335 0.791989 -4.17148 0
M  V30 9729 O 896.359 0.597799 -3.51148 0
M  V30 9730 O 895.218 1.16394 -5.33961 0
M  V30 9731 H 892.312 0.210707 -0.799707 0
M  V30 9732 H 894.858 -0.331111 -1.66438 0
M  V30 9733 H 893.63 -0.434911 -3.88876 0
M  V30 9734 H 893.253 1.27569 -3.76579 0
M  V30 9735 N 894.251 1.57596 -0.0117121 0
M  V30 9736 C 895.198 2.09153 0.975897 0
M  V30 9737 C 896.168 0.989579 1.33404 0
M  V30 9738 O 897.353 1.26273 1.43038 0
M  V30 9739 C 894.493 2.60906 2.2588 0
M  V30 9740 C 893.606 3.85046 1.95866 0
M  V30 9741 C 892.741 4.25257 3.18323 0
M  V30 9742 C 891.78 5.42202 2.84049 0
M  V30 9743 N 890.917 5.77651 3.99079 0
M  V30 9744 H 895.757 2.93261 0.52931 0
M  V30 9745 H 893.294 1.44965 0.249691 0
M  V30 9746 H 895.252 2.88995 3.00895 0
M  V30 9747 H 893.882 1.79654 2.68187 0
M  V30 9748 H 892.934 3.63794 1.11168 0
M  V30 9749 H 894.246 4.70151 1.66611 0
M  V30 9750 H 893.4 4.5469 4.01674 0
M  V30 9751 H 892.139 3.38884 3.50726 0
M  V30 9752 H 891.144 5.1248 1.99107 0
M  V30 9753 H 892.369 6.3026 2.52881 0
M  V30 9754 H 890.315 4.94235 4.31356 0
M  V30 9755 H 890.232 6.57356 3.73388 0
M  V30 9756 H 891.5 6.11681 4.83183 0
M  V30 9757 N 895.729 -0.261212 1.5542 0
M  V30 9758 C 896.976 -0.99123 1.76581 0
M  V30 9759 C 897.304 -1.85854 0.573457 0
M  V30 9760 O 896.559 -1.90604 -0.443705 0
M  V30 9761 C 896.858 -1.89395 3.03091 0
M  V30 9762 C 896.524 -1.18318 4.351 0
M  V30 9763 C 895.186 -0.986688 4.70975 0
M  V30 9764 C 897.538 -0.678299 5.16767 0
M  V30 9765 C 894.866 -0.272788 5.86065 0
M  V30 9766 C 897.218 0.0220646 6.32596 0
M  V30 9767 C 895.882 0.230161 6.67103 0
M  V30 9768 H 895.152 -0.362717 0.646156 0
M  V30 9769 H 897.799 -0.262506 1.89692 0
M  V30 9770 H 896.104 -2.68927 2.8493 0
M  V30 9771 H 897.801 -2.46022 3.16661 0
M  V30 9772 H 894.391 -1.34625 4.06908 0
M  V30 9773 H 898.575 -0.817691 4.89518 0
M  V30 9774 H 893.831 -0.10095 6.11317 0
M  V30 9775 H 898.005 0.420981 6.95126 0
M  V30 9776 H 895.632 0.785312 7.56133 0
M  V30 9777 N 897.207 -1.48554 -0.526253 0
M  V30 9778 C 898.453 -1.56994 -1.28378 0
M  V30 9779 C 898.786 -0.244701 -1.92652 0
M  V30 9780 O 898.061 0.749636 -1.79473 0
M  V30 9781 C 898.344 -2.71092 -2.37026 0
M  V30 9782 C 898.197 -4.13331 -1.77418 0
M  V30 9783 C 899.516 -2.80934 -3.38769 0
M  V30 9784 H 896.635 -0.571466 -0.465398 0
M  V30 9785 H 899.277 -1.80742 -0.585861 0
M  V30 9786 H 897.427 -2.50973 -2.96555 0
M  V30 9787 H 899.099 -4.44899 -1.21912 0
M  V30 9788 H 897.342 -4.20158 -1.07936 0
M  V30 9789 H 898.013 -4.88994 -2.56104 0
M  V30 9790 H 900.489 -2.9917 -2.892 0
M  V30 9791 H 899.365 -3.62489 -4.12181 0
M  V30 9792 H 899.626 -1.89244 -3.99549 0
M  V30 9793 N 898.685 0.775411 -1.37205 0
M  V30 9794 C 899.91 1.5696 -1.35567 0
M  V30 9795 C 900.335 1.88012 0.0575554 0
M  V30 9796 O 899.693 1.48954 1.03355 0
M  V30 9797 C 899.741 2.85886 -2.19776 0
M  V30 9798 O 898.845 3.80103 -1.59987 0
M  V30 9799 H 898.186 0.475583 -0.463375 0
M  V30 9800 H 900.716 0.96001 -1.80679 0
M  V30 9801 H 900.726 3.35024 -2.32859 0
M  V30 9802 H 899.401 2.62613 -3.22502 0
M  V30 9803 H 897.978 3.38736 -1.55924 0
M  V30 9804 N 900.163 1.21714 1.00117 0
M  V30 9805 C 901.073 0.99597 2.12409 0
M  V30 9806 C 902.089 -0.0531431 1.73919 0
M  V30 9807 O 903.265 0.137757 2.00928 0
M  V30 9808 C 900.33 0.567593 3.42022 0
M  V30 9809 C 899.391 1.68936 3.94663 0
M  V30 9810 C 898.624 1.28133 5.1809 0
M  V30 9811 O 898.847 0.156574 5.70185 0
M  V30 9812 O 897.781 2.0947 5.64275 0
M  V30 9813 H 901.607 1.93657 2.33946 0
M  V30 9814 H 899.192 1.00236 1.10784 0
M  V30 9815 H 901.074 0.338664 4.20037 0
M  V30 9816 H 899.749 -0.34424 3.21864 0
M  V30 9817 H 898.656 1.97274 3.17858 0
M  V30 9818 H 899.989 2.57876 4.19238 0
M  V30 9819 N 901.641 -1.19671 1.02551 0
M  V30 9820 C 902.571 -2.25009 0.623965 0
M  V30 9821 C 903.552 -1.66129 -0.36538 0
M  V30 9822 O 904.737 -1.92599 -0.248842 0
M  V30 9823 C 901.867 -3.47287 -0.0294869 0
M  V30 9824 C 900.821 -4.18818 0.881781 0
M  V30 9825 C 900.147 -5.34618 0.0936189 0
M  V30 9826 C 901.447 -4.73986 2.19396 0
M  V30 9827 H 903.141 -2.58851 1.50454 0
M  V30 9828 H 900.687 -1.24425 0.724872 0
M  V30 9829 H 902.64 -4.20168 -0.322016 0
M  V30 9830 H 901.364 -3.12635 -0.944838 0
M  V30 9831 H 900.023 -3.47815 1.15845 0
M  V30 9832 H 899.671 -4.9621 -0.823661 0
M  V30 9833 H 899.371 -5.83409 0.700568 0
M  V30 9834 H 900.895 -6.10297 -0.192249 0
M  V30 9835 H 902.309 -5.38639 1.96319 0
M  V30 9836 H 900.706 -5.3325 2.75254 0
M  V30 9837 H 901.776 -3.92238 2.85092 0
M  V30 9838 N 903.119 -0.802921 -1.35613 0
M  V30 9839 C 904.365 -0.391259 -1.99601 0
M  V30 9840 C 904.72 1.02922 -1.62557 0
M  V30 9841 O 904.013 1.70357 -0.876878 0
M  V30 9842 C 904.207 -0.507806 -3.53774 0
M  V30 9843 C 904.036 -1.93807 -4.05794 0
M  V30 9844 C 902.806 -2.56564 -4.3532 0
M  V30 9845 C 905.004 -2.90211 -4.24596 0
M  V30 9846 N 902.986 -3.91038 -4.73247 0
M  V30 9847 C 904.357 -4.09548 -4.65479 0
M  V30 9848 C 906.412 -2.87091 -4.06796 0
M  V30 9849 C 905.115 -5.26191 -4.90424 0
M  V30 9850 C 907.141 -4.02933 -4.32896 0
M  V30 9851 C 906.503 -5.21017 -4.74047 0
M  V30 9852 H 902.602 -0.190867 -0.758349 0
M  V30 9853 H 905.186 -1.04338 -1.64382 0
M  V30 9854 H 903.357 0.114306 -3.88232 0
M  V30 9855 H 905.089 -0.0710855 -4.04638 0
M  V30 9856 H 901.844 -2.07945 -4.25507 0
M  V30 9857 H 902.268 -4.60262 -4.96475 0
M  V30 9858 H 906.91 -1.96951 -3.74126 0
M  V30 9859 H 904.628 -6.16906 -5.2197 0
M  V30 9860 H 908.214 -4.01895 -4.2068 0
M  V30 9861 H 907.094 -6.09165 -4.93849 0
M  V30 9862 N 904.597 1.47463 -0.556102 0
M  V30 9863 C 905.544 2.29998 0.192213 0
M  V30 9864 C 906.514 1.38993 0.909403 0
M  V30 9865 O 907.699 1.67954 0.905316 0
M  V30 9866 C 904.839 3.22932 1.21692 0
M  V30 9867 C 903.952 4.29027 0.505908 0
M  V30 9868 C 903.087 5.09114 1.51581 0
M  V30 9869 C 902.126 6.06984 0.789714 0
M  V30 9870 N 901.263 6.80033 1.74639 0
M  V30 9871 H 906.103 2.93468 -0.517734 0
M  V30 9872 H 903.64 1.44654 -0.267147 0
M  V30 9873 H 905.598 3.75234 1.8236 0
M  V30 9874 H 904.228 2.61329 1.89491 0
M  V30 9875 H 903.28 3.7979 -0.215276 0
M  V30 9876 H 904.592 4.9876 -0.062958 0
M  V30 9877 H 903.746 5.6556 2.19606 0
M  V30 9878 H 902.485 4.3928 2.11859 0
M  V30 9879 H 901.49 5.49717 0.0955382 0
M  V30 9880 H 902.715 6.78827 0.192688 0
M  V30 9881 H 900.661 6.12931 2.33777 0
M  V30 9882 H 900.578 7.45933 1.22965 0
M  V30 9883 H 901.846 7.41054 2.41782 0
M  V30 9884 N 906.075 0.2925 1.54862 0
M  V30 9885 C 907.352 -0.371946 1.92031 0
M  V30 9886 C 907.732 -1.72363 1.21878 0
M  V30 9887 O 907.08 -2.25779 0.351573 0
M  V30 9888 C 907.29 -0.495027 3.45471 0
M  V30 9889 C 908.638 -0.769855 4.17562 0
M  V30 9890 O 909.662 -0.579168 3.5146 0
M  V30 9891 O 908.521 -1.13561 5.34571 0
M  V30 9892 H 905.615 -0.206463 0.800813 0
M  V30 9893 H 908.161 0.339933 1.6626 0
M  V30 9894 H 906.933 0.455528 3.88639 0
M  V30 9895 H 906.556 -1.2557 3.7725 0
M  V30 9896 N 907.553 -1.57587 0.0200696 0
M  V30 9897 C 908.799 -1.91708 -0.661503 0
M  V30 9898 C 909.132 -0.895968 -1.72296 0
M  V30 9899 O 908.407 0.082577 -1.94325 0
M  V30 9900 C 908.69 -3.36344 -1.28627 0
M  V30 9901 C 908.543 -4.49186 -0.234982 0
M  V30 9902 C 909.862 -3.80771 -2.20685 0
M  V30 9903 H 906.981 -0.69717 -0.239005 0
M  V30 9904 H 909.623 -1.8985 0.0754764 0
M  V30 9905 H 907.773 -3.38058 -1.91439 0
M  V30 9906 H 909.445 -4.59606 0.395011 0
M  V30 9907 H 907.688 -4.31557 0.440565 0
M  V30 9908 H 908.359 -5.47395 -0.711558 0
M  V30 9909 H 910.835 -3.80735 -1.67868 0
M  V30 9910 H 909.711 -4.82685 -2.61356 0
M  V30 9911 H 909.972 -3.15764 -3.09428 0
M  V30 9912 N 909.032 0.252966 -1.55557 0
M  V30 9913 C 910.309 1.00432 -1.67847 0
M  V30 9914 C 910.689 2.03587 -0.55816 0
M  V30 9915 O 910.037 2.24239 0.439197 0
M  V30 9916 C 910.247 1.64313 -3.079 0
M  V30 9917 C 911.595 2.14726 -3.66303 0
M  V30 9918 O 912.619 1.74264 -3.10661 0
M  V30 9919 O 911.478 2.89 -4.63833 0
M  V30 9920 H 908.572 0.467102 -0.682455 0
M  V30 9921 H 911.118 0.247233 -1.67889 0
M  V30 9922 H 909.89 0.896681 -3.80888 0
M  V30 9923 H 909.513 2.46657 -3.11843 0
M  V30 9924 N 910.51 1.48831 0.518367 0
M  V30 9925 C 911.926 1.35209 0.847979 0
M  V30 9926 C 912.126 0.371927 1.98038 0
M  V30 9927 O 911.182 -0.202681 2.51685 0
M  V30 9928 C 912.495 2.7552 1.20455 0
M  V30 9929 C 914.043 2.84094 1.31377 0
M  V30 9930 C 914.518 4.25132 1.70372 0
M  V30 9931 N 916.009 4.27861 1.77453 0
M  V30 9932 C 916.744 5.3394 2.09035 0
M  V30 9933 N 916.24 6.50285 2.3896 0
M  V30 9934 N 918.033 5.21343 2.10139 0
M  V30 9935 H 910.184 2.11166 -0.228624 0
M  V30 9936 H 912.447 0.94717 -0.0396599 0
M  V30 9937 H 912.153 3.48861 0.445991 0
M  V30 9938 H 912.027 3.09785 2.15204 0
M  V30 9939 H 914.414 2.11001 2.06307 0
M  V30 9940 H 914.495 2.53433 0.347203 0
M  V30 9941 H 914.139 4.98745 0.959975 0
M  V30 9942 H 914.069 4.53245 2.68098 0
M  V30 9943 H 916.56 3.43945 1.56557 0
M  V30 9944 H 916.873 7.26961 2.62196 0
M  V30 9945 H 915.218 6.5354 2.36454 0
M  V30 9946 H 918.409 4.29462 1.86225 0
M  V30 9947 H 918.582 6.04112 2.34419 0
M  V30 9948 N 911.988 -0.768124 1.37614 0
M  V30 9949 C 913.237 -1.5221 1.32345 0
M  V30 9950 C 913.55 -1.95399 -0.0885761 0
M  V30 9951 O 914.756 -2.70216 -0.263752 0
M  V30 9952 C 913.212 -2.74872 2.32322 0
M  V30 9953 C 912.82 -2.38767 3.79071 0
M  V30 9954 C 914.564 -3.52805 2.36069 0
M  V30 9955 C 912.471 -3.57953 4.7077 0
M  V30 9956 H 911.401 -0.571461 0.491883 0
M  V30 9957 H 914.052 -0.841004 1.63093 0
M  V30 9958 H 912.434 -3.44889 1.94596 0
M  V30 9959 H 913.608 -1.7651 4.25654 0
M  V30 9960 H 911.923 -1.74 3.78303 0
M  V30 9961 H 914.52 -4.41397 3.01782 0
M  V30 9962 H 914.863 -3.92925 1.37535 0
M  V30 9963 H 915.396 -2.89788 2.72521 0
M  V30 9964 H 912.135 -3.22911 5.70446 0
M  V30 9965 H 911.655 -4.19302 4.28889 0
M  V30 9966 H 913.334 -4.2472 4.8808 0
M  V30 9967 N 913.466 -1.22244 -0.994698 0
M  V30 9968 C 914.715 -1.04005 -1.72817 0
M  V30 9969 C 915.028 0.425413 -1.90918 0
M  V30 9970 O 916.234 0.727429 -2.61574 0
M  V30 9971 C 914.69 -1.81244 -3.10932 0
M  V30 9972 C 914.298 -3.32028 -3.00768 0
M  V30 9973 C 916.042 -1.71448 -3.88337 0
M  V30 9974 C 913.949 -4.01716 -4.34026 0
M  V30 9975 H 912.879 -0.385559 -0.647966 0
M  V30 9976 H 915.53 -1.46077 -1.11058 0
M  V30 9977 H 913.912 -1.3197 -3.73363 0
M  V30 9978 H 915.086 -3.88682 -2.47513 0
M  V30 9979 H 913.401 -3.4248 -2.36846 0
M  V30 9980 H 915.998 -2.20836 -4.86965 0
M  V30 9981 H 916.341 -0.674568 -4.10798 0
M  V30 9982 H 916.874 -2.18256 -3.3258 0
M  V30 9983 H 913.613 -5.05952 -4.16765 0
M  V30 9984 H 913.133 -3.49849 -4.87202 0
M  V30 9985 H 914.812 -4.0721 -5.02782 0
M  V30 9986 N 914.944 1.19125 -1.03184 0
M  V30 9987 C 916.192 1.8851 -0.728587 0
M  V30 9988 C 916.513 1.80195 0.74531 0
M  V30 9989 O 915.783 1.21437 1.5372 0
M  V30 9990 H 914.363 0.69784 -0.266511 0
M  V30 9991 H 917.025 1.44607 -1.3067 0
M  V30 9992 H 916.121 2.9477 -1.02554 0
M  V30 9993 N 916.422 0.810101 1.35185 0
M  V30 9994 C 917.352 0.237453 2.32289 0
M  V30 9995 C 918.333 -0.639032 1.5764 0
M  V30 9996 O 919.518 -0.568575 1.8569 0
M  V30 9997 C 916.648 -0.611964 3.41866 0
M  V30 9998 C 915.602 0.166318 4.27677 0
M  V30 9999 C 914.928 -0.805024 5.28605 0
M  V30 10000 C 916.228 1.36729 5.04086 0
M  V30 10001 H 917.922 1.04874 2.80432 0
M  V30 10002 H 915.468 0.505751 1.34826 0
M  V30 10003 H 917.421 -1.02267 4.08802 0
M  V30 10004 H 916.145 -1.45617 2.92341 0
M  V30 10005 H 914.804 0.558238 3.62325 0
M  V30 10006 H 914.452 -1.64483 4.75347 0
M  V30 10007 H 914.152 -0.288577 5.86891 0
M  V30 10008 H 915.676 -1.21386 5.98413 0
M  V30 10009 H 917.09 1.03128 5.63948 0
M  V30 10010 H 915.487 1.81848 5.71884 0
M  V30 10011 H 916.557 2.15214 4.34524 0
M  V30 10012 N 917.9 -1.47166 0.563914 0
M  V30 10013 C 919.177 -1.95586 -0.0236172 0
M  V30 10014 C 919.557 -1.50655 -1.47872 0
M  V30 10015 O 918.905 -0.748479 -2.15894 0
M  V30 10016 C 919.115 -3.48762 0.128841 0
M  V30 10017 C 920.463 -4.24598 -0.0130544 0
M  V30 10018 O 921.487 -3.56155 0.0567242 0
M  V30 10019 O 920.346 -5.46253 -0.164332 0
M  V30 10020 H 917.44 -0.824793 -0.0603789 0
M  V30 10021 H 919.986 -1.57536 0.63091 0
M  V30 10022 H 918.758 -3.74291 1.14113 0
M  V30 10023 H 918.381 -3.93594 -0.56299 0
M  V30 10024 N 919.378 -0.300708 -1.54705 0
M  V30 10025 C 920.31 0.609179 -2.20956 0
M  V30 10026 C 921.323 1.09776 -1.20221 0
M  V30 10027 O 922.512 1.01527 -1.46815 0
M  V30 10028 C 919.612 1.84595 -2.84214 0
M  V30 10029 C 918.785 1.49991 -4.10879 0
M  V30 10030 C 917.844 2.5918 -4.57943 0
M  V30 10031 O 916.87 2.24285 -5.23149 0
M  V30 10032 N 918.072 3.89714 -4.30236 0
M  V30 10033 H 920.837 0.0420111 -2.99671 0
M  V30 10034 H 918.398 -0.122896 -1.61433 0
M  V30 10035 H 920.39 2.56988 -3.12633 0
M  V30 10036 H 918.96 2.32152 -2.09342 0
M  V30 10037 H 918.18 0.608637 -3.89473 0
M  V30 10038 H 919.468 1.24409 -4.93356 0
M  V30 10039 H 918.866 4.20874 -3.77997 0
M  V30 10040 H 917.423 4.58406 -4.63365 0
M  V30 10041 N 920.856 1.57574 -0.0284266 0
M  V30 10042 C 922.102 1.92056 0.651327 0
M  V30 10043 C 922.435 0.905092 1.71819 0
M  V30 10044 O 921.71 -0.0722703 1.94366 0
M  V30 10045 C 921.993 3.37021 1.26841 0
M  V30 10046 C 921.846 4.49304 0.211157 0
M  V30 10047 C 923.165 3.81936 2.18662 0
M  V30 10048 H 920.284 0.698428 0.235304 0
M  V30 10049 H 922.926 1.89807 -0.0855435 0
M  V30 10050 H 921.076 3.39068 1.89644 0
M  V30 10051 H 922.748 4.5939 -0.419379 0
M  V30 10052 H 920.991 4.31317 -0.463445 0
M  V30 10053 H 921.662 5.47764 0.682518 0
M  V30 10054 H 924.138 3.8162 1.65847 0
M  V30 10055 H 923.014 4.84064 2.58792 0
M  V30 10056 H 923.275 3.174 3.07749 0
M  V30 10057 N 922.334 -0.244713 1.55689 0
M  V30 10058 C 923.297 -1.2864 1.89695 0
M  V30 10059 C 924.297 -1.40969 0.773583 0
M  V30 10060 O 925.487 -1.39632 1.04156 0
M  V30 10061 C 922.619 -2.66379 2.12732 0
M  V30 10062 H 923.812 -0.997033 2.82841 0
M  V30 10063 H 921.365 -0.484103 1.48614 0
M  V30 10064 H 922.1 -3.00452 1.22062 0
M  V30 10065 H 921.885 -2.58812 2.94549 0
M  V30 10066 H 923.375 -3.41592 2.40218 0
M  V30 10067 N 923.813 -1.49104 -0.510467 0
M  V30 10068 C 925.061 -1.578 -1.26268 0
M  V30 10069 C 925.382 -0.262349 -1.93227 0
M  V30 10070 O 924.652 0.717624 -1.82283 0
M  V30 10071 H 923.232 -0.581387 -0.46904 0
M  V30 10072 H 925.894 -1.85678 -0.592423 0
M  V30 10073 H 924.99 -2.36919 -2.03165 0
M  V30 10074 N 925.291 0.760815 -1.38019 0
M  V30 10075 C 926.224 1.88212 -1.2904 0
M  V30 10076 C 927.202 1.61721 -0.168805 0
M  V30 10077 O 928.386 1.85318 -0.344893 0
M  V30 10078 C 925.513 3.23672 -0.997702 0
M  V30 10079 C 924.559 3.6906 -2.13769 0
M  V30 10080 S 925.392 3.81445 -3.75845 0
M  V30 10081 C 926.548 5.19736 -3.48748 0
M  V30 10082 H 926.781 1.95541 -2.23944 0
M  V30 10083 H 924.314 0.923051 -1.2377 0
M  V30 10084 H 926.272 4.01904 -0.835657 0
M  V30 10085 H 924.933 3.14031 -0.065967 0
M  V30 10086 H 924.126 4.67295 -1.88816 0
M  V30 10087 H 923.728 2.97961 -2.26043 0
M  V30 10088 H 926.02 6.05259 -3.04414 0
M  V30 10089 H 926.963 5.49706 -4.46351 0
M  V30 10090 H 927.371 4.88191 -2.83425 0
M  V30 10091 N 926.769 1.22769 0.988202 0
M  V30 10092 C 927.994 1.08239 1.76915 0
M  V30 10093 C 928.419 -0.362519 1.84574 0
M  V30 10094 O 927.777 -1.26202 1.30165 0
M  V30 10095 C 927.825 1.70363 3.17819 0
M  V30 10096 O 926.929 0.960484 4.01059 0
M  V30 10097 H 926.27 0.379872 0.544604 0
M  V30 10098 H 928.8 1.62663 1.24104 0
M  V30 10099 H 928.81 1.7528 3.6843 0
M  V30 10100 H 927.485 2.75505 3.1156 0
M  V30 10101 H 926.062 0.987667 3.59582 0
M  V30 10102 N 928.247 -1.18576 1.03814 0
M  V30 10103 C 929.157 -2.25778 0.637311 0
M  V30 10104 C 930.173 -1.7074 -0.335248 0
M  V30 10105 O 931.349 -2.00494 -0.19081 0
M  V30 10106 C 928.414 -3.467 0.00386953 0
M  V30 10107 C 927.475 -4.16881 1.02511 0
M  V30 10108 C 926.708 -5.32031 0.421802 0
M  V30 10109 O 926.931 -5.65142 -0.772699 0
M  V30 10110 O 925.865 -5.90826 1.14925 0
M  V30 10111 H 929.691 -2.62323 1.53037 0
M  V30 10112 H 927.276 -1.25609 0.80887 0
M  V30 10113 H 929.158 -4.19953 -0.348873 0
M  V30 10114 H 927.833 -3.11983 -0.863047 0
M  V30 10115 H 926.74 -3.45707 1.4296 0
M  V30 10116 H 928.073 -4.55592 1.86271 0
M  V30 10117 N 929.725 -0.817259 -1.34754 0
M  V30 10118 C 930.953 -0.415451 -2.02686 0
M  V30 10119 C 931.368 0.97688 -1.61563 0
M  V30 10120 O 930.725 1.63125 -0.818321 0
M  V30 10121 C 930.776 -0.501486 -3.58005 0
M  V30 10122 O 930.497 -1.83893 -3.97637 0
M  V30 10123 C 931.998 -0.0938504 -4.43201 0
M  V30 10124 H 929.218 -0.16742 -0.649778 0
M  V30 10125 H 931.762 -1.10384 -1.7215 0
M  V30 10126 H 929.917 0.138766 -3.87151 0
M  V30 10127 H 930.331 -1.8092 -4.92309 0
M  V30 10128 H 931.805 -0.205145 -5.51619 0
M  V30 10129 H 932.282 0.962011 -4.28535 0
M  V30 10130 H 932.888 -0.707677 -4.19371 0
M  V30 10131 N 931.203 1.46865 -0.571711 0
M  V30 10132 C 932.166 2.28658 0.157499 0
M  V30 10133 C 933.166 1.37773 0.829172 0
M  V30 10134 O 934.356 1.6026 0.682811 0
M  V30 10135 C 931.488 3.17859 1.23202 0
M  V30 10136 H 932.681 2.94603 -0.561171 0
M  V30 10137 H 930.234 1.52793 -0.329229 0
M  V30 10138 H 930.969 2.56637 1.98262 0
M  V30 10139 H 930.754 3.84762 0.755031 0
M  V30 10140 H 932.244 3.7945 1.74378 0
M  V30 10141 N 932.681 0.308908 1.54543 0
M  V30 10142 C 933.611 -0.556657 2.26768 0
M  V30 10143 C 934.592 -1.13145 1.27013 0
M  V30 10144 O 935.777 -1.15931 1.558 0
M  V30 10145 C 932.907 -1.72481 3.01443 0
M  V30 10146 C 931.861 -1.28001 4.08411 0
M  V30 10147 C 931.187 -2.53395 4.70845 0
M  V30 10148 C 932.487 -0.405497 5.20724 0
M  V30 10149 H 934.181 0.0457618 2.99365 0
M  V30 10150 H 931.727 0.0234495 1.43981 0
M  V30 10151 H 933.68 -2.3365 3.50693 0
M  V30 10152 H 932.404 -2.35359 2.26437 0
M  V30 10153 H 931.063 -0.69133 3.60022 0
M  V30 10154 H 930.711 -3.14604 3.92471 0
M  V30 10155 H 930.411 -2.2433 5.43093 0
M  V30 10156 H 931.935 -3.15352 5.22863 0
M  V30 10157 H 933.349 -0.923076 5.6582 0
M  V30 10158 H 931.746 -0.208282 5.99738 0
M  V30 10159 H 932.816 0.567412 4.81569 0
M  V30 10160 N 934.159 -1.57557 0.0367827 0
M  V30 10161 C 935.57 -1.79853 -0.500971 0
M  V30 10162 C 935.921 -0.947749 -1.71791 0
M  V30 10163 O 935.046 -0.160287 -2.15806 0
M  V30 10164 C 935.641 -3.26193 -0.915626 0
M  V30 10165 C 934.2 -3.49457 -1.39845 0
M  V30 10166 C 933.347 -2.74864 -0.366784 0
M  V30 10167 H 936.298 -1.56509 0.262768 0
M  V30 10168 H 936.319 -3.36324 -1.7795 0
M  V30 10169 H 935.831 -3.88089 -0.0297227 0
M  V30 10170 H 933.932 -2.92823 -2.30402 0
M  V30 10171 H 934.045 -4.58172 -1.40054 0
M  V30 10172 H 932.409 -2.4057 -0.836554 0
M  V30 10173 H 933.192 -3.39479 0.510785 0
M  V30 10174 N 935.637 0.236453 -1.55816 0
M  V30 10175 C 936.885 0.96111 -1.77784 0
M  V30 10176 C 937.206 1.85454 -0.602648 0
M  V30 10177 O 936.476 1.92157 0.381137 0
M  V30 10178 H 935.056 0.35787 -0.655697 0
M  V30 10179 H 937.718 0.251888 -1.93265 0
M  V30 10180 H 936.814 1.5767 -2.69345 0
M  V30 10181 N 937.115 1.49373 0.502552 0
M  V30 10182 C 938.078 1.65413 1.58654 0
M  V30 10183 C 939.078 0.526003 1.51953 0
M  V30 10184 O 940.268 0.792421 1.55133 0
M  V30 10185 C 937.4 1.65005 2.98306 0
M  V30 10186 H 938.593 2.62095 1.45762 0
M  V30 10187 H 936.146 1.38381 0.726672 0
M  V30 10188 H 936.881 0.699014 3.16677 0
M  V30 10189 H 936.666 2.46931 3.04578 0
M  V30 10190 H 938.156 1.79477 3.77065 0
M  V30 10191 N 938.594 -0.753485 1.38421 0
M  V30 10192 C 939.841 -1.51261 1.34634 0
M  V30 10193 C 940.169 -1.94396 -0.0635771 0
M  V30 10194 O 939.424 -1.65736 -1.04068 0
M  V30 10195 C 939.723 -2.77836 2.24816 0
M  V30 10196 C 939.389 -2.53662 3.72782 0
M  V30 10197 C 938.051 -2.46779 4.13103 0
M  V30 10198 C 940.403 -2.32548 4.66445 0
M  V30 10199 C 937.731 -2.16796 5.45176 0
M  V30 10200 C 940.083 -2.04085 5.98775 0
M  V30 10201 C 938.747 -1.95658 6.3818 0
M  V30 10202 H 938.017 -0.553503 0.492661 0
M  V30 10203 H 940.664 -0.866406 1.7078 0
M  V30 10204 H 938.969 -3.47106 1.81726 0
M  V30 10205 H 940.666 -3.35793 2.19189 0
M  V30 10206 H 937.256 -2.59891 3.40815 0
M  V30 10207 H 941.44 -2.36845 4.3614 0
M  V30 10208 H 936.696 -2.0878 5.74648 0
M  V30 10209 H 940.87 -1.86751 6.70893 0
M  V30 10210 H 938.497 -1.7219 7.40442 0
M  V30 10211 N 940.072 -1.23292 -0.981677 0
M  V30 10212 C 941.019 -1.01296 -2.07383 0
M  V30 10213 C 941.989 0.069139 -1.65956 0
M  V30 10214 O 943.174 -0.0827108 -1.90621 0
M  V30 10215 C 940.314 -0.608876 -3.39686 0
M  V30 10216 C 939.427 -1.76296 -3.9439 0
M  V30 10217 C 938.562 -1.30578 -5.14901 0
M  V30 10218 C 937.601 -2.4307 -5.61768 0
M  V30 10219 N 936.738 -1.98319 -6.73509 0
M  V30 10220 H 941.578 -1.9478 -2.25532 0
M  V30 10221 H 939.115 -0.970356 -1.10555 0
M  V30 10222 H 941.073 -0.355702 -4.15681 0
M  V30 10223 H 939.703 0.288961 -3.21504 0
M  V30 10224 H 938.755 -2.13017 -3.15163 0
M  V30 10225 H 940.067 -2.60871 -4.25145 0
M  V30 10226 H 939.221 -1.01066 -5.98223 0
M  V30 10227 H 937.96 -0.430386 -4.85797 0
M  V30 10228 H 936.965 -2.73358 -4.77028 0
M  V30 10229 H 938.19 -3.31144 -5.92892 0
M  V30 10230 H 936.136 -1.13157 -6.46167 0
M  V30 10231 H 936.053 -2.76454 -7.0364 0
M  V30 10232 H 937.321 -1.71907 -7.60308 0
M  V30 10233 N 941.55 1.18024 -1.04442 0
M  V30 10234 C 942.778 1.92032 -0.770161 0
M  V30 10235 C 943.193 1.76391 0.673181 0
M  V30 10236 O 942.55 1.09604 1.45922 0
M  V30 10237 C 942.601 3.43328 -1.13173 0
M  V30 10238 O 942.322 3.5848 -2.51841 0
M  V30 10239 C 943.823 4.34427 -0.882523 0
M  V30 10240 H 941.043 0.609518 -0.280586 0
M  V30 10241 H 943.587 1.49711 -1.39308 0
M  V30 10242 H 941.742 3.83423 -0.553704 0
M  V30 10243 H 942.156 4.52166 -2.65794 0
M  V30 10244 H 943.63 5.39123 -1.18533 0
M  V30 10245 H 944.107 4.3882 0.18257 0
M  V30 10246 H 944.713 4.00035 -1.44403 0
M  V30 10247 N 943.028 0.824394 1.34319 0
M  V30 10248 C 944.444 0.510336 1.51221 0
M  V30 10249 C 944.644 -0.965201 1.76879 0
M  V30 10250 O 943.7 -1.74961 1.82057 0
M  V30 10251 C 945.013 1.37114 2.6762 0
M  V30 10252 C 946.561 1.36842 2.81502 0
M  V30 10253 C 947.036 2.21374 4.00946 0
M  V30 10254 N 948.527 2.19005 4.08156 0
M  V30 10255 C 949.262 2.81159 4.99737 0
M  V30 10256 N 948.758 3.52309 5.96532 0
M  V30 10257 N 950.551 2.70706 4.9262 0
M  V30 10258 H 942.702 1.77976 1.15924 0
M  V30 10259 H 944.965 0.758503 0.568663 0
M  V30 10260 H 944.671 2.41905 2.55294 0
M  V30 10261 H 944.545 1.03689 3.62669 0
M  V30 10262 H 946.932 0.328284 2.93268 0
M  V30 10263 H 947.013 1.74265 1.87257 0
M  V30 10264 H 946.657 3.25437 3.8994 0
M  V30 10265 H 946.587 1.813 4.94407 0
M  V30 10266 H 949.078 1.67252 3.38874 0
M  V30 10267 H 949.391 3.96977 6.63045 0
M  V30 10268 H 947.736 3.56415 5.96652 0
M  V30 10269 H 950.927 2.14694 4.15962 0
M  V30 10270 H 951.1 3.19431 5.63798 0
M  V30 10271 N 944.506 -1.46559 0.579492 0
M  V30 10272 C 945.453 -2.30275 -0.155598 0
M  V30 10273 C 946.423 -1.40422 -0.887175 0
M  V30 10274 O 947.608 -1.69373 -0.878481 0
M  V30 10275 C 944.748 -3.24827 -1.16539 0
M  V30 10276 C 943.861 -4.29778 -0.43759 0
M  V30 10277 C 942.996 -5.11461 -1.43462 0
M  V30 10278 C 942.035 -6.08164 -0.693048 0
M  V30 10279 N 941.172 -6.82726 -1.63799 0
M  V30 10280 H 946.012 -2.92607 0.564356 0
M  V30 10281 H 943.549 -1.44211 0.290126 0
M  V30 10282 H 945.507 -3.78088 -1.76368 0
M  V30 10283 H 944.137 -2.64311 -1.8531 0
M  V30 10284 H 943.189 -3.794 0.27567 0
M  V30 10285 H 944.501 -4.98597 0.142298 0
M  V30 10286 H 943.655 -5.68982 -2.1058 0
M  V30 10287 H 942.394 -4.42595 -2.04844 0
M  V30 10288 H 941.399 -5.49799 -0.00807093 0
M  V30 10289 H 942.624 -6.79047 -0.0846678 0
M  V30 10290 H 940.57 -6.16572 -2.23997 0
M  V30 10291 H 940.487 -7.47795 -1.11082 0
M  V30 10292 H 941.755 -7.44807 -2.29962 0
M  V30 10293 N 945.984 -0.3171 -1.54377 0
M  V30 10294 C 947.232 0.286842 -2.00054 0
M  V30 10295 C 947.553 1.53161 -1.20692 0
M  V30 10296 O 946.823 1.93479 -0.307045 0
M  V30 10297 H 945.403 0.108979 -0.739008 0
M  V30 10298 H 948.065 -0.432152 -1.90049 0
M  V30 10299 H 947.161 0.547729 -3.07256 0
M  V30 10300 N 947.462 1.57535 -0.0451378 0
M  V30 10301 C 948.395 2.06721 0.96653 0
M  V30 10302 C 949.373 0.966392 1.30766 0
M  V30 10303 O 950.557 1.23789 1.42157 0
M  V30 10304 C 947.684 2.50266 2.2822 0
M  V30 10305 C 946.73 3.71525 2.09455 0
M  V30 10306 S 947.563 5.17453 1.37851 0
M  V30 10307 C 948.719 5.64308 2.70753 0
M  V30 10308 H 948.952 2.92207 0.547911 0
M  V30 10309 H 946.485 1.53494 0.166973 0
M  V30 10310 H 948.443 2.76019 3.03849 0
M  V30 10311 H 947.104 1.65097 2.67211 0
M  V30 10312 H 946.297 3.99894 3.06759 0
M  V30 10313 H 945.899 3.46008 1.41967 0
M  V30 10314 H 948.191 5.69525 3.66943 0
M  V30 10315 H 949.134 6.63613 2.47028 0
M  V30 10316 H 949.542 4.92014 2.76736 0
M  V30 10317 N 948.94 -0.228186 1.55939 0
M  V30 10318 C 950.187 -0.953552 1.78644 0
M  V30 10319 C 950.515 -1.84596 0.61275 0
M  V30 10320 O 949.77 -1.91502 -0.403175 0
M  V30 10321 C 950.069 -1.82924 3.0704 0
M  V30 10322 C 949.735 -1.09062 4.37511 0
M  V30 10323 C 948.397 -0.886565 4.72962 0
M  V30 10324 C 950.749 -0.568533 5.1809 0
M  V30 10325 C 948.077 -0.148413 5.86512 0
M  V30 10326 C 950.429 0.156243 6.32407 0
M  V30 10327 C 949.093 0.371612 6.66465 0
M  V30 10328 H 948.363 -0.348929 0.653704 0
M  V30 10329 H 951.01 -0.222211 1.90206 0
M  V30 10330 H 949.315 -2.62823 2.90571 0
M  V30 10331 H 951.012 -2.3925 3.21808 0
M  V30 10332 H 947.602 -1.25963 4.09672 0
M  V30 10333 H 951.786 -0.713673 4.91142 0
M  V30 10334 H 947.042 0.0287418 6.11393 0
M  V30 10335 H 951.216 0.568333 6.94077 0
M  V30 10336 H 948.843 0.945522 7.54297 0
M  V30 10337 N 950.418 -1.49637 -0.494624 0
M  V30 10338 C 951.834 -1.36541 -0.826361 0
M  V30 10339 C 952.034 -0.403386 -1.97421 0
M  V30 10340 O 951.09 0.162614 -2.51976 0
M  V30 10341 C 952.403 -2.77401 -1.16057 0
M  V30 10342 C 953.951 -2.86148 -1.26841 0
M  V30 10343 C 954.426 -4.27789 -1.63587 0
M  V30 10344 N 955.917 -4.3063 -1.70624 0
M  V30 10345 C 956.652 -5.37198 -2.00514 0
M  V30 10346 N 956.148 -6.54004 -2.28584 0
M  V30 10347 N 957.941 -5.2462 -2.01818 0
M  V30 10348 H 950.092 -2.10776 0.26219 0
M  V30 10349 H 952.355 -0.946419 0.0547235 0
M  V30 10350 H 952.061 -3.49526 -0.390434 0
M  V30 10351 H 951.935 -3.1317 -2.10249 0
M  V30 10352 H 954.322 -2.14256 -2.02925 0
M  V30 10353 H 954.403 -2.53953 -0.30684 0
M  V30 10354 H 954.047 -5.00209 -0.880507 0
M  V30 10355 H 953.977 -4.57453 -2.60854 0
M  V30 10356 H 956.468 -3.46393 -1.51065 0
M  V30 10357 H 956.781 -7.31041 -2.50598 0
M  V30 10358 H 955.126 -6.57219 -2.26027 0
M  V30 10359 H 958.317 -4.32371 -1.79369 0
M  V30 10360 H 958.49 -6.07765 -2.24778 0
M  V30 10361 N 951.896 0.746133 -1.38819 0
M  V30 10362 C 953.124 1.53539 -1.38685 0
M  V30 10363 C 953.539 1.88788 0.0215039 0
M  V30 10364 O 952.896 1.53312 0.990031 0
M  V30 10365 C 952.947 2.8299 -2.24942 0
M  V30 10366 O 952.668 2.49242 -3.60292 0
M  V30 10367 C 954.169 3.77085 -2.3307 0
M  V30 10368 H 951.389 0.474842 -0.474095 0
M  V30 10369 H 953.933 0.922844 -1.82493 0
M  V30 10370 H 952.088 3.40603 -1.84576 0
M  V30 10371 H 952.502 3.32319 -4.05789 0
M  V30 10372 H 953.976 4.64845 -2.97696 0
M  V30 10373 H 954.453 4.18049 -1.34655 0
M  V30 10374 H 955.059 3.25394 -2.73859 0
M  V30 10375 N 953.375 1.23811 0.975125 0
M  V30 10376 C 954.621 1.07495 1.71967 0
M  V30 10377 C 954.954 -0.386451 1.90316 0
M  V30 10378 O 954.229 -1.28591 1.45927 0
M  V30 10379 C 954.512 1.80694 3.11483 0
M  V30 10380 C 954.365 3.3454 3.00671 0
M  V30 10381 C 955.684 1.57367 4.11003 0
M  V30 10382 H 952.803 0.3919 0.624166 0
M  V30 10383 H 955.445 1.52383 1.13487 0
M  V30 10384 H 953.595 1.42538 3.61407 0
M  V30 10385 H 955.267 3.8225 2.5823 0
M  V30 10386 H 953.51 3.63301 2.37054 0
M  V30 10387 H 954.181 3.80951 3.99475 0
M  V30 10388 H 956.657 1.90545 3.69908 0
M  V30 10389 H 955.533 2.11052 5.06703 0
M  V30 10390 H 955.794 0.510221 4.39146 0
M  V30 10391 N 954.853 -1.17469 1.05066 0
M  V30 10392 C 956.101 -1.87327 0.758485 0
M  V30 10393 C 956.422 -1.81358 -0.716549 0
M  V30 10394 O 955.692 -1.23868 -1.51768 0
M  V30 10395 H 954.272 -0.693512 0.277579 0
M  V30 10396 H 956.934 -1.4251 1.32954 0
M  V30 10397 H 956.03 -2.93101 1.0723 0
M  V30 10398 N 956.331 -0.831506 -1.3388 0
M  V30 10399 C 957.263 -0.216908 -2.28171 0
M  V30 10400 C 958.276 0.598141 -1.51414 0
M  V30 10401 O 959.465 0.426416 -1.73332 0
M  V30 10402 C 956.565 0.713831 -3.31297 0
M  V30 10403 C 955.738 -0.0602673 -4.37358 0
M  V30 10404 C 954.797 0.792696 -5.20195 0
M  V30 10405 O 953.823 0.234564 -5.68716 0
M  V30 10406 N 955.025 2.11119 -5.40748 0
M  V30 10407 H 957.79 -1.02704 -2.81553 0
M  V30 10408 H 955.351 -0.689272 -1.46495 0
M  V30 10409 H 957.343 1.28925 -3.83615 0
M  V30 10410 H 955.913 1.42469 -2.78247 0
M  V30 10411 H 955.133 -0.817041 -3.8564 0
M  V30 10412 H 956.421 -0.592822 -5.05335 0
M  V30 10413 H 955.819 2.58828 -5.03016 0
M  V30 10414 H 954.376 2.63527 -5.96151 0
M  V30 10415 N 957.809 1.4625 -0.587256 0
M  V30 10416 C 958.739 2.33132 0.131076 0
M  V30 10417 C 959.72 1.45619 0.879158 0
M  V30 10418 O 960.905 1.74428 0.853723 0
M  V30 10419 C 958.035 3.27975 1.14236 0
M  V30 10420 C 956.989 4.24965 0.508819 0
M  V30 10421 C 956.315 5.09349 1.62689 0
M  V30 10422 C 957.615 5.19322 -0.55694 0
M  V30 10423 H 959.309 2.93442 -0.594333 0
M  V30 10424 H 956.855 1.41106 -0.287263 0
M  V30 10425 H 958.808 3.87614 1.65328 0
M  V30 10426 H 957.532 2.65781 1.8981 0
M  V30 10427 H 956.191 3.66595 0.0189337 0
M  V30 10428 H 955.839 4.43537 2.37242 0
M  V30 10429 H 955.539 5.75036 1.20861 0
M  V30 10430 H 957.063 5.71852 2.14049 0
M  V30 10431 H 958.477 5.73151 -0.130903 0
M  V30 10432 H 956.874 5.93376 -0.895801 0
M  V30 10433 H 957.944 4.62979 -1.44148 0
M  V30 10434 N 959.287 0.325282 1.54207 0
M  V30 10435 C 960.517 -0.278285 2.04717 0
M  V30 10436 C 960.925 -1.46198 1.20095 0
M  V30 10437 O 960.268 -1.82319 0.224813 0
M  V30 10438 C 960.33 -0.774387 3.51061 0
M  V30 10439 C 959.994 0.287225 4.56096 0
M  V30 10440 C 960.991 1.12388 5.07607 0
M  V30 10441 C 958.676 0.435908 5.00405 0
M  V30 10442 C 960.67 2.09492 6.0199 0
M  V30 10443 C 958.357 1.41037 5.94602 0
M  V30 10444 C 959.355 2.23834 6.45281 0
M  V30 10445 O 959.043 3.19625 7.37628 0
M  V30 10446 H 958.775 -0.0608309 0.673257 0
M  V30 10447 H 961.329 0.470049 1.99949 0
M  V30 10448 H 959.559 -1.57366 3.53232 0
M  V30 10449 H 961.248 -1.29649 3.84637 0
M  V30 10450 H 962.014 1.02 4.74153 0
M  V30 10451 H 957.893 -0.198668 4.60572 0
M  V30 10452 H 961.437 2.74157 6.4147 0
M  V30 10453 H 957.334 1.51487 6.27473 0
M  V30 10454 H 958.102 3.14884 7.55507 0
M  V30 10455 N 960.765 -1.57509 0.0534917 0
M  V30 10456 C 961.712 -2.11667 -0.920101 0
M  V30 10457 C 962.682 -1.0246 -1.30733 0
M  V30 10458 O 963.867 -1.30021 -1.39639 0
M  V30 10459 C 961.007 -2.66803 -2.18883 0
M  V30 10460 C 960.12 -3.90104 -1.85588 0
M  V30 10461 C 959.255 -4.33547 -3.06937 0
M  V30 10462 C 958.294 -5.49542 -2.69573 0
M  V30 10463 N 957.431 -5.88029 -3.83623 0
M  V30 10464 H 962.271 -2.94562 -0.451371 0
M  V30 10465 H 959.808 -1.45576 -0.211168 0
M  V30 10466 H 961.766 -2.96871 -2.93127 0
M  V30 10467 H 960.396 -1.86702 -2.63329 0
M  V30 10468 H 959.448 -3.66613 -1.01484 0
M  V30 10469 H 960.76 -4.74404 -1.54087 0
M  V30 10470 H 959.914 -4.6518 -3.89477 0
M  V30 10471 H 958.653 -3.48064 -3.41618 0
M  V30 10472 H 957.658 -5.17579 -1.8545 0
M  V30 10473 H 958.883 -6.36743 -2.36082 0
M  V30 10474 H 956.829 -5.05498 -4.181 0
M  V30 10475 H 956.746 -6.67025 -3.55828 0
M  V30 10476 H 958.014 -6.24277 -4.66796 0
M  V30 10477 N 962.243 0.219913 -1.56058 0
M  V30 10478 C 963.153 1.29349 -1.95719 0
M  V30 10479 C 964.169 1.5119 -0.861248 0
M  V30 10480 O 965.345 1.64289 -1.16495 0
M  V30 10481 C 962.41 2.6229 -2.26726 0
M  V30 10482 C 961.471 2.48738 -3.49897 0
M  V30 10483 C 960.704 3.75339 -3.79416 0
M  V30 10484 O 960.927 4.78427 -3.10586 0
M  V30 10485 O 959.861 3.72352 -4.72903 0
M  V30 10486 H 963.687 0.986979 -2.87215 0
M  V30 10487 H 961.272 0.42291 -1.43289 0
M  V30 10488 H 963.154 3.408 -2.47857 0
M  V30 10489 H 961.829 2.92619 -1.38404 0
M  V30 10490 H 960.736 1.68422 -3.34043 0
M  V30 10491 H 962.069 2.23347 -4.38608 0
M  V30 10492 N 963.721 1.49897 0.486681 0
M  V30 10493 C 964.653 1.63755 1.60365 0
M  V30 10494 C 965.666 0.519614 1.54285 0
M  V30 10495 O 966.855 0.792219 1.59957 0
M  V30 10496 C 963.955 1.59153 2.99205 0
M  V30 10497 C 963.128 2.8672 3.30319 0
M  V30 10498 C 962.187 2.74974 4.48638 0
M  V30 10499 O 961.213 3.48922 4.49714 0
M  V30 10500 N 962.415 1.87479 5.49392 0
M  V30 10501 H 965.18 2.60094 1.48899 0
M  V30 10502 H 962.741 1.47166 0.674825 0
M  V30 10503 H 964.733 1.4893 3.76301 0
M  V30 10504 H 963.303 0.706133 3.0452 0
M  V30 10505 H 962.523 3.11188 2.41983 0
M  V30 10506 H 963.811 3.71262 3.47911 0
M  V30 10507 H 963.209 1.26684 5.51333 0
M  V30 10508 H 961.766 1.83169 6.25534 0
M  V30 10509 N 965.199 -0.738761 1.39212 0
M  V30 10510 C 966.129 -1.86602 1.40364 0
M  V30 10511 C 967.11 -1.67984 0.267495 0
M  V30 10512 O 968.295 -1.88358 0.472765 0
M  V30 10513 C 965.425 -3.24308 1.24265 0
M  V30 10514 C 964.379 -3.57557 2.35239 0
M  V30 10515 C 963.705 -4.94159 2.04233 0
M  V30 10516 C 965.005 -3.60914 3.77543 0
M  V30 10517 H 966.699 -1.85896 2.34698 0
M  V30 10518 H 964.245 -0.892959 1.1297 0
M  V30 10519 H 966.198 -4.02838 1.23692 0
M  V30 10520 H 964.922 -3.25531 0.263974 0
M  V30 10521 H 963.581 -2.81354 2.35022 0
M  V30 10522 H 963.229 -4.91959 1.04813 0
M  V30 10523 H 962.929 -5.17373 2.78567 0
M  V30 10524 H 964.453 -5.7505 2.05303 0
M  V30 10525 H 965.867 -4.29528 3.79709 0
M  V30 10526 H 964.264 -3.95644 4.51205 0
M  V30 10527 H 965.334 -2.60803 4.08791 0
M  V30 10528 N 966.677 -1.24326 -0.968545 0
M  V30 10529 C 967.64 -1.03591 -2.04454 0
M  V30 10530 C 968.64 0.0064809 -1.60799 0
M  V30 10531 O 969.83 -0.234404 -1.72616 0
M  V30 10532 C 966.962 -0.56992 -3.36102 0
M  V30 10533 H 968.155 -1.99092 -2.24282 0
M  V30 10534 H 965.708 -1.06537 -1.14366 0
M  V30 10535 H 966.443 0.388325 -3.21967 0
M  V30 10536 H 966.228 -1.32227 -3.69132 0
M  V30 10537 H 967.718 -0.445854 -4.15213 0
M  V30 10538 N 968.156 1.1691 -1.05688 0
M  V30 10539 C 969.103 2.21095 -0.662246 0
M  V30 10540 C 970.073 1.62623 0.338083 0
M  V30 10541 O 971.258 1.89428 0.228362 0
M  V30 10542 C 968.398 3.45066 -0.0484018 0
M  V30 10543 C 967.511 4.17809 -1.09817 0
M  V30 10544 C 966.646 5.29281 -0.451114 0
M  V30 10545 C 965.685 5.93817 -1.48484 0
M  V30 10546 N 964.822 6.96793 -0.861588 0
M  V30 10547 H 969.662 2.54204 -1.55513 0
M  V30 10548 H 967.199 1.24863 -0.777665 0
M  V30 10549 H 969.157 4.15932 0.324978 0
M  V30 10550 H 967.787 3.12526 0.807918 0
M  V30 10551 H 966.839 3.45608 -1.58932 0
M  V30 10552 H 968.151 4.61907 -1.88265 0
M  V30 10553 H 967.305 6.06695 -0.0244251 0
M  V30 10554 H 966.044 4.8633 0.365306 0
M  V30 10555 H 965.049 5.1513 -1.92149 0
M  V30 10556 H 966.274 6.38848 -2.30325 0
M  V30 10557 H 964.22 6.55967 -0.0657688 0
M  V30 10558 H 964.137 7.39229 -1.58354 0
M  V30 10559 H 965.405 7.78142 -0.45984 0
M  V30 10560 N 969.634 0.838594 1.33437 0
M  V30 10561 C 970.564 0.286672 2.31734 0
M  V30 10562 C 971.545 -0.605451 1.5896 0
M  V30 10563 O 972.73 -0.529059 1.86854 0
M  V30 10564 C 969.86 -0.539311 3.43087 0
M  V30 10565 C 968.814 0.256997 4.27228 0
M  V30 10566 C 968.14 -0.692718 5.30194 0
M  V30 10567 C 969.44 1.47391 5.01072 0
M  V30 10568 H 971.134 1.10798 2.78144 0
M  V30 10569 H 968.68 0.534235 1.33723 0
M  V30 10570 H 970.633 -0.935724 4.1088 0
M  V30 10571 H 969.357 -1.39383 2.95364 0
M  V30 10572 H 968.016 0.634967 3.61059 0
M  V30 10573 H 967.664 -1.54363 4.78729 0
M  V30 10574 H 967.364 -0.164023 5.87371 0
M  V30 10575 H 968.888 -1.08665 6.00853 0
M  V30 10576 H 970.302 1.15067 5.61634 0
M  V30 10577 H 968.699 1.93937 5.67898 0
M  V30 10578 H 969.769 2.24382 4.29861 0
M  V30 10579 N 971.112 -1.45937 0.595003 0
M  V30 10580 C 972.045 -2.27491 -0.179775 0
M  V30 10581 C 973.023 -1.36376 -0.88545 0
M  V30 10582 O 974.207 -1.65797 -0.896863 0
M  V30 10583 C 971.334 -3.1443 -1.25902 0
M  V30 10584 C 970.38 -4.21396 -0.657847 0
M  V30 10585 S 971.213 -5.32923 0.524689 0
M  V30 10586 C 972.369 -6.2343 -0.555452 0
M  V30 10587 H 972.602 -2.92855 0.512173 0
M  V30 10588 H 970.135 -1.49595 0.382199 0
M  V30 10589 H 972.093 -3.65081 -1.87687 0
M  V30 10590 H 970.754 -2.48356 -1.92297 0
M  V30 10591 H 969.947 -4.82102 -1.46948 0
M  V30 10592 H 969.549 -3.73822 -0.115403 0
M  V30 10593 H 971.841 -6.62066 -1.43789 0
M  V30 10594 H 972.784 -7.08098 0.0151431 0
M  V30 10595 H 973.192 -5.57831 -0.865125 0
M  V30 10596 N 972.59 -0.333456 -1.54032 0
M  V30 10597 C 973.553 0.515392 -2.2333 0
M  V30 10598 C 974.553 1.03566 -1.23007 0
M  V30 10599 O 975.743 0.926514 -1.47517 0
M  V30 10600 C 972.875 1.7169 -2.94508 0
M  V30 10601 H 974.068 -0.0905407 -2.99763 0
M  V30 10602 H 971.621 -0.0846651 -1.56071 0
M  V30 10603 H 972.356 2.3618 -2.22237 0
M  V30 10604 H 972.141 1.35115 -3.68085 0
M  V30 10605 H 973.631 2.31922 -3.47278 0
M  V30 10606 N 974.068 1.57479 -0.061844 0
M  V30 10607 C 975.296 1.97429 0.618837 0
M  V30 10608 C 975.711 0.939826 1.63746 0
M  V30 10609 O 975.068 -0.0747173 1.82347 0
M  V30 10610 C 975.119 3.3746 1.29628 0
M  V30 10611 O 974.84 4.36941 0.318431 0
M  V30 10612 C 976.341 3.92228 2.06572 0
M  V30 10613 H 973.561 0.649513 0.168444 0
M  V30 10614 H 976.105 2.04078 -0.131303 0
M  V30 10615 H 974.26 3.31928 1.99757 0
M  V30 10616 H 974.674 5.18313 0.803239 0
M  V30 10617 H 976.148 4.92458 2.49377 0
M  V30 10618 H 976.625 3.28231 2.91824 0
M  V30 10619 H 977.231 4.01131 1.4133 0
M  V30 10620 N 975.546 -0.211634 1.56173 0
M  V30 10621 C 976.476 -1.26533 1.96244 0
M  V30 10622 C 977.457 -1.48362 0.832028 0
M  V30 10623 O 978.642 -1.60378 1.0951 0
M  V30 10624 C 975.772 -2.61307 2.2877 0
M  V30 10625 C 974.726 -2.54119 3.44395 0
M  V30 10626 C 974.052 -3.93014 3.62552 0
M  V30 10627 C 975.352 -2.08046 4.79076 0
M  V30 10628 H 977.046 -0.932407 2.84511 0
M  V30 10629 H 974.592 -0.447084 1.36884 0
M  V30 10630 H 976.545 -3.35188 2.55396 0
M  V30 10631 H 975.269 -2.96307 1.37367 0
M  V30 10632 H 973.928 -1.82694 3.17834 0
M  V30 10633 H 973.576 -4.25338 2.68508 0
M  V30 10634 H 973.276 -3.89083 4.40327 0
M  V30 10635 H 974.8 -4.68542 3.91537 0
M  V30 10636 H 976.214 -2.71676 5.04842 0
M  V30 10637 H 974.611 -2.15154 5.60204 0
M  V30 10638 H 975.681 -1.03306 4.73768 0
M  V30 10639 N 977.024 -1.50153 -0.478725 0
M  V30 10640 C 978.44 -1.3741 -0.811833 0
M  V30 10641 C 978.64 -0.424303 -1.96982 0
M  V30 10642 O 977.696 0.13588 -2.52134 0
M  V30 10643 C 979.009 -2.78616 -1.13108 0
M  V30 10644 C 980.557 -2.87477 -1.23798 0
M  V30 10645 C 981.032 -4.295 -1.5904 0
M  V30 10646 N 982.523 -4.32415 -1.66047 0
M  V30 10647 C 983.258 -5.39295 -1.94805 0
M  V30 10648 N 982.754 -6.56392 -2.21635 0
M  V30 10649 N 984.547 -5.26731 -1.96243 0
M  V30 10650 H 976.698 -2.10486 0.284531 0
M  V30 10651 H 978.961 -0.945786 0.0647585 0
M  V30 10652 H 978.667 -3.49921 -0.35334 0
M  V30 10653 H 978.541 -3.15382 -2.06915 0
M  V30 10654 H 980.928 -2.16396 -2.00641 0
M  V30 10655 H 981.009 -2.54264 -0.279888 0
M  V30 10656 H 980.653 -5.01115 -0.827404 0
M  V30 10657 H 980.583 -4.60194 -2.55987 0
M  V30 10658 H 983.074 -3.47975 -1.47383 0
M  V30 10659 H 983.387 -7.33658 -2.4283 0
M  V30 10660 H 981.732 -6.59579 -2.19043 0
M  V30 10661 H 984.923 -4.34249 -1.74773 0
M  V30 10662 H 985.096 -6.10115 -2.1832 0
M  V30 10663 N 978.502 0.731368 -1.39602 0
M  V30 10664 C 979.45 1.86676 -1.38761 0
M  V30 10665 C 980.444 1.6723 -0.270247 0
M  V30 10666 O 981.65 1.74528 -0.440471 0
M  V30 10667 H 978.025 0.614553 -0.433391 0
M  V30 10668 H 979.996 1.84501 -2.34525 0
M  V30 10669 C 978.745 3.24394 -1.25155 0
M  V30 10670 H 978.068 3.39955 -2.10406 0
M  V30 10671 H 979.508 4.04019 -1.28625 0
M  V30 10672 C 977.967 3.36877 0.0396976 0
M  V30 10673 O 978.497 3.88833 1.00854 0
M  V30 10674 N 976.703 2.90414 0.103965 0
M  V30 10675 H 976.25 2.48321 -0.685155 0
M  V30 10676 H 976.208 2.99146 0.967435 0
M  V30 10677 N 979.98 1.24838 0.961938 0
M  V30 10678 C 981.208 1.11871 1.74047 0
M  V30 10679 C 981.623 -0.328209 1.85925 0
M  V30 10680 O 980.98 -1.22616 1.35173 0
M  V30 10681 C 981.031 1.75931 3.15801 0
M  V30 10682 O 980.752 3.14967 3.04512 0
M  V30 10683 C 982.253 1.68649 4.09966 0
M  V30 10684 H 979.473 0.390569 0.545616 0
M  V30 10685 H 982.017 1.65058 1.20732 0
M  V30 10686 H 980.172 1.26733 3.66084 0
M  V30 10687 H 980.586 3.46349 3.93882 0
M  V30 10688 H 982.06 2.18144 5.07067 0
M  V30 10689 H 982.537 0.648831 4.34381 0
M  V30 10690 H 983.143 2.17301 3.65596 0
M  V30 10691 N 981.458 -1.16348 1.06306 0
M  V30 10692 C 982.406 -2.22799 0.668087 0
M  V30 10693 C 983.4 -1.66426 -0.316051 0
M  V30 10694 O 984.606 -1.79089 -0.180902 0
M  V30 10695 H 980.981 -0.725487 0.19792 0
M  V30 10696 H 982.952 -2.53401 1.57577 0
M  V30 10697 C 981.701 -3.47628 0.0706797 0
M  V30 10698 H 981.024 -3.9132 0.819064 0
M  V30 10699 H 982.464 -4.23666 -0.16816 0
M  V30 10700 C 980.923 -3.15343 -1.18577 0
M  V30 10701 O 981.453 -3.31158 -2.27371 0
M  V30 10702 N 979.659 -2.69472 -1.08779 0
M  V30 10703 H 979.206 -2.56803 -0.202447 0
M  V30 10704 H 979.164 -2.48244 -1.92931 0
M  V30 10705 N 982.937 -0.845659 -1.3299 0
M  V30 10706 C 984.348 -0.50048 -1.79867 0
M  V30 10707 C 984.699 0.981027 -1.69913 0
M  V30 10708 O 983.824 1.76477 -1.25239 0
M  V30 10709 C 984.419 -0.901679 -3.26581 0
M  V30 10710 C 982.978 -0.608536 -3.71448 0
M  V30 10711 C 982.125 -1.10632 -2.54275 0
M  V30 10712 H 985.076 -1.03372 -1.20416 0
M  V30 10713 H 985.097 -0.214433 -3.79895 0
M  V30 10714 H 984.609 -1.97998 -3.33794 0
M  V30 10715 H 982.71 0.459416 -3.69757 0
M  V30 10716 H 982.823 -1.16853 -4.64631 0
M  V30 10717 H 981.187 -0.526925 -2.4919 0
M  V30 10718 H 981.97 -2.19154 -2.64247 0
M  V30 10719 N 984.415 1.45619 -0.602734 0
M  V30 10720 C 985.363 2.32228 0.131484 0
M  V30 10721 C 986.357 1.45681 0.864484 0
M  V30 10722 O 987.563 1.62193 0.7806 0
M  V30 10723 H 983.938 0.7495 0.0612638 0
M  V30 10724 H 985.909 2.91941 -0.617496 0
M  V30 10725 C 984.658 3.29213 1.11866 0
M  V30 10726 H 983.981 3.95801 0.564061 0
M  V30 10727 H 985.421 3.92554 1.60242 0
M  V30 10728 C 983.88 2.56028 2.18978 0
M  V30 10729 O 984.41 2.33806 3.26646 0
M  V30 10730 N 982.616 2.16245 1.94129 0
M  V30 10731 H 982.163 2.34518 1.06579 0
M  V30 10732 H 982.121 1.67601 2.66003 0
M  V30 10733 N 985.893 0.34162 1.53853 0
M  V30 10734 C 987.14 -0.255484 2.00882 0
M  V30 10735 C 987.468 -1.50711 1.22949 0
M  V30 10736 O 986.723 -1.93315 0.304625 0
M  V30 10737 C 987.022 -0.616989 3.52034 0
M  V30 10738 C 986.688 0.537536 4.47684 0
M  V30 10739 C 985.35 0.854379 4.73554 0
M  V30 10740 C 987.702 1.31217 5.04412 0
M  V30 10741 C 985.03 1.94826 5.53407 0
M  V30 10742 C 987.382 2.39628 5.85458 0
M  V30 10743 C 986.046 2.71874 6.09623 0
M  V30 10744 H 985.316 -0.0934881 0.735079 0
M  V30 10745 H 987.963 0.469135 1.85665 0
M  V30 10746 H 986.268 -1.42229 3.65073 0
M  V30 10747 H 987.965 -1.09084 3.85878 0
M  V30 10748 H 984.555 0.280524 4.27681 0
M  V30 10749 H 988.739 1.08064 4.84392 0
M  V30 10750 H 983.995 2.20235 5.70356 0
M  V30 10751 H 988.169 3.00084 6.28429 0
M  V30 10752 H 985.796 3.56762 6.71286 0
M  V30 10753 N 987.371 -1.57444 0.0701946 0
M  V30 10754 C 988.617 -1.93716 -0.600178 0
M  V30 10755 C 988.95 -0.950329 -1.69359 0
M  V30 10756 O 988.225 0.0207123 -1.94489 0
M  V30 10757 C 988.508 -3.40266 -1.17861 0
M  V30 10758 C 988.361 -4.49706 -0.0919575 0
M  V30 10759 C 989.68 -3.87599 -2.08459 0
M  V30 10760 H 986.799 -0.704421 -0.216704 0
M  V30 10761 H 989.441 -1.89514 0.135838 0
M  V30 10762 H 987.591 -3.43977 -1.80587 0
M  V30 10763 H 989.263 -4.58116 0.541031 0
M  V30 10764 H 987.506 -4.29937 0.577639 0
M  V30 10765 H 988.177 -5.49381 -0.537048 0
M  V30 10766 H 990.653 -3.85883 -1.5567 0
M  V30 10767 H 989.529 -4.90755 -2.45867 0
M  V30 10768 H 989.79 -3.25448 -2.99226 0
M  V30 10769 N 988.849 0.203349 -1.56283 0
M  V30 10770 C 990.265 0.55384 -1.49682 0
M  V30 10771 C 990.465 1.86261 -0.768701 0
M  V30 10772 O 989.521 2.50517 -0.315824 0
M  V30 10773 C 990.834 0.616216 -2.94318 0
M  V30 10774 C 992.382 0.705611 -3.04943 0
M  V30 10775 C 992.857 0.79917 -4.50974 0
M  V30 10776 N 994.348 0.862916 -4.55091 0
M  V30 10777 C 995.083 0.955334 -5.65386 0
M  V30 10778 N 994.579 1.01057 -6.8539 0
M  V30 10779 N 996.372 0.991884 -5.53279 0
M  V30 10780 H 988.523 -0.655244 -2.0204 0
M  V30 10781 H 990.786 -0.232344 -0.919087 0
M  V30 10782 H 990.492 -0.27619 -3.50614 0
M  V30 10783 H 990.366 1.47371 -3.4722 0
M  V30 10784 H 992.753 1.58845 -2.48701 0
M  V30 10785 H 992.834 -0.177921 -2.5518 0
M  V30 10786 H 992.478 -0.0792841 -5.07838 0
M  V30 10787 H 992.408 1.69838 -4.9846 0
M  V30 10788 H 994.899 0.829812 -3.68677 0
M  V30 10789 H 995.212 1.08137 -7.65197 0
M  V30 10790 H 993.557 0.979384 -6.88065 0
M  V30 10791 H 996.748 0.945514 -4.58451 0
M  V30 10792 H 996.921 1.06045 -6.39264 0
M  V30 10793 N 990.327 1.50405 0.470755 0
M  V30 10794 C 991.567 1.63049 1.23266 0
M  V30 10795 C 991.931 0.323815 1.8925 0
M  V30 10796 O 993.132 0.325692 2.6682 0
M  V30 10797 C 991.403 2.7783 2.24823 0
M  V30 10798 S 992.962 3.10609 3.09948 0
M  V30 10799 H 989.78 0.574787 0.418499 0
M  V30 10800 H 992.382 1.8819 0.529619 0
M  V30 10801 H 991.086 3.71252 1.74929 0
M  V30 10802 H 990.617 2.54776 2.99755 0
M  V30 10803 H 992.632 2.5446 4.25987 0
M  V30 10804 N 991.805 -0.723954 1.39988 0
M  V30 10805 C 993.054 -1.47922 1.3712 0
M  V30 10806 C 993.367 -1.95582 -0.0263665 0
M  V30 10807 O 994.573 -2.70918 -0.177652 0
M  V30 10808 C 993.029 -2.67342 2.40949 0
M  V30 10809 C 992.637 -2.26586 3.86475 0
M  V30 10810 C 994.381 -3.45116 2.47174 0
M  V30 10811 C 992.288 -3.42794 4.81919 0
M  V30 10812 H 991.218 -0.555522 0.509815 0
M  V30 10813 H 993.869 -0.788692 1.65686 0
M  V30 10814 H 992.251 -3.38524 2.0547 0
M  V30 10815 H 993.425 -1.62878 4.31054 0
M  V30 10816 H 991.74 -1.61876 3.83647 0
M  V30 10817 H 994.337 -4.31573 3.15672 0
M  V30 10818 H 994.68 -3.8835 1.49966 0
M  V30 10819 H 995.213 -2.80971 2.81602 0
M  V30 10820 H 991.952 -3.046 5.8043 0
M  V30 10821 H 991.472 -4.05445 4.42012 0
M  V30 10822 H 993.151 -4.08977 5.01345 0
M  V30 10823 N 993.283 -1.25346 -0.955304 0
M  V30 10824 C 994.532 -1.0945 -1.69421 0
M  V30 10825 C 994.845 0.364459 -1.92175 0
M  V30 10826 O 996.051 0.643843 -2.63755 0
M  V30 10827 C 994.507 -1.91045 -3.05008 0
M  V30 10828 C 994.115 -3.41428 -2.90053 0
M  V30 10829 C 995.859 -1.83716 -3.82686 0
M  V30 10830 C 993.766 -4.1532 -4.21026 0
M  V30 10831 H 992.696 -0.405978 -0.635372 0
M  V30 10832 H 995.347 -1.49536 -1.06354 0
M  V30 10833 H 993.729 -1.43781 -3.68975 0
M  V30 10834 H 994.903 -3.9636 -2.35022 0
M  V30 10835 H 993.218 -3.49842 -2.25831 0
M  V30 10836 H 995.815 -2.36217 -4.79693 0
M  V30 10837 H 996.158 -0.804919 -4.08444 0
M  V30 10838 H 996.691 -2.28726 -3.25468 0
M  V30 10839 H 993.43 -5.18955 -4.00457 0
M  V30 10840 H 992.95 -3.65172 -4.75825 0
M  V30 10841 H 994.629 -4.22999 -4.89572 0
M  V30 10842 N 994.761 1.15782 -1.06922 0
M  V30 10843 C 996.172 1.68062 -0.813144 0
M  V30 10844 C 996.523 1.84681 0.662374 0
M  V30 10845 O 995.648 1.54696 1.51321 0
M  V30 10846 C 996.243 3.05273 -1.46949 0
M  V30 10847 C 994.802 3.54647 -1.26104 0
M  V30 10848 C 993.949 2.30477 -1.54194 0
M  V30 10849 H 996.9 1.00056 -1.23185 0
M  V30 10850 H 996.921 3.69986 -0.888308 0
M  V30 10851 H 996.433 2.93145 -2.54337 0
M  V30 10852 H 994.534 3.72024 -0.20718 0
M  V30 10853 H 994.647 4.36354 -1.97819 0
M  V30 10854 H 993.011 2.35803 -0.96276 0
M  V30 10855 H 993.794 2.2094 -2.62755 0
M  V30 10856 N 996.239 0.8527 1.3254 0
M  V30 10857 C 997.187 0.284659 2.30852 0
M  V30 10858 C 998.181 -0.5909 1.5876 0
M  V30 10859 O 999.387 -0.478922 1.73512 0
M  V30 10860 H 995.762 0.0733452 0.748415 0
M  V30 10861 H 997.733 1.1281 2.76254 0
M  V30 10862 C 996.482 -0.51379 3.43883 0
M  V30 10863 H 995.805 0.150644 3.99516 0
M  V30 10864 H 997.245 -0.876866 4.14834 0
M  V30 10865 C 995.704 -1.69823 2.90967 0
M  V30 10866 O 996.234 -2.79727 2.88298 0
M  V30 10867 N 994.44 -1.52465 2.47392 0
M  V30 10868 H 993.987 -0.630599 2.49762 0
M  V30 10869 H 993.945 -2.31859 2.12341 0
M  V30 10870 N 997.718 -1.45297 0.610449 0
M  V30 10871 C 998.668 -2.27639 -0.128194 0
M  V30 10872 C 999.652 -1.37485 -0.835861 0
M  V30 10873 O 1000.84 -1.61454 -0.725378 0
M  V30 10874 C 997.973 -3.24413 -1.123 0
M  V30 10875 C 997.059 -4.22055 -0.416029 0
M  V30 10876 N 997.45 -5.02867 0.543921 0
M  V30 10877 C 995.748 -4.41041 -0.663208 0
M  V30 10878 C 996.449 -5.73728 0.959731 0
M  V30 10879 N 995.425 -5.42756 0.302873 0
M  V30 10880 H 999.227 -2.8752 0.609056 0
M  V30 10881 H 996.741 -1.56484 0.434338 0
M  V30 10882 H 998.738 -3.82139 -1.6666 0
M  V30 10883 H 997.398 -2.66092 -1.86078 0
M  V30 10884 H 998.409 -5.09649 0.920799 0
M  V30 10885 H 995.086 -3.93842 -1.38544 0
M  V30 10886 H 996.476 -6.48666 1.75163 0
M  V30 10887 N 999.196 -0.349774 -1.5367 0
M  V30 10888 C 1000.11 0.512421 -2.28935 0
M  V30 10889 C 1001.12 1.1065 -1.34286 0
M  V30 10890 O 1002.3 1.12084 -1.67329 0
M  V30 10891 C 999.363 1.64449 -3.05217 0
M  V30 10892 C 998.424 1.07956 -4.15505 0
M  V30 10893 C 997.657 2.15768 -4.88139 0
M  V30 10894 O 997.88 3.366 -4.60496 0
M  V30 10895 O 996.814 1.79712 -5.74445 0
M  V30 10896 H 1000.64 -0.0996001 -3.03537 0
M  V30 10897 H 998.225 -0.114629 -1.4896 0
M  V30 10898 H 1000.11 2.30302 -3.52901 0
M  V30 10899 H 998.782 2.24221 -2.33467 0
M  V30 10900 H 997.689 0.385381 -3.7211 0
M  V30 10901 H 999.022 0.526621 -4.89375 0
M  V30 10902 N 1000.67 1.57404 -0.0785433 0
M  V30 10903 C 1001.62 2.13104 0.88631 0
M  V30 10904 C 1002.59 1.04527 1.29086 0
M  V30 10905 O 1003.78 1.32226 1.37553 0
M  V30 10906 C 1000.92 2.70252 2.14611 0
M  V30 10907 C 1000.03 3.93007 1.79358 0
M  V30 10908 C 999.164 4.38376 3 0
M  V30 10909 C 998.203 5.53761 2.60796 0
M  V30 10910 N 997.34 5.94058 3.74219 0
M  V30 10911 H 1002.18 2.95243 0.404452 0
M  V30 10912 H 999.717 1.45894 0.187982 0
M  V30 10913 H 1001.67 3.01497 2.88367 0
M  V30 10914 H 1000.3 1.90868 2.60326 0
M  V30 10915 H 999.357 3.68181 0.956384 0
M  V30 10916 H 1000.67 4.76795 1.4652 0
M  V30 10917 H 999.823 4.71317 3.82027 0
M  V30 10918 H 998.562 3.53455 3.36037 0
M  V30 10919 H 997.567 5.20464 1.77192 0
M  V30 10920 H 998.792 6.40419 2.25922 0
M  V30 10921 H 996.738 5.12085 4.10005 0
M  V30 10922 H 996.655 6.72602 3.45171 0
M  V30 10923 H 997.923 6.31624 4.56805 0
M  V30 10924 N 1002.15 -0.195058 1.56388 0
M  V30 10925 C 1003.1 -1.24175 1.94549 0
M  V30 10926 C 1004.07 -1.45229 0.806089 0
M  V30 10927 O 1005.25 -1.58362 1.06425 0
M  V30 10928 C 1002.39 -2.58145 2.29031 0
M  V30 10929 C 1001.51 -2.44669 3.56035 0
M  V30 10930 C 1000.64 -3.71342 3.7984 0
M  V30 10931 C 999.681 -3.52699 5.0027 0
M  V30 10932 N 998.818 -4.71385 5.20328 0
M  V30 10933 H 1003.66 -0.909319 2.83788 0
M  V30 10934 H 1001.19 -0.437641 1.40439 0
M  V30 10935 H 1003.15 -3.36195 2.4704 0
M  V30 10936 H 1001.78 -2.8943 1.42933 0
M  V30 10937 H 1000.83 -1.57916 3.46073 0
M  V30 10938 H 1002.15 -2.26827 4.44242 0
M  V30 10939 H 1001.3 -4.57832 3.98088 0
M  V30 10940 H 1000.04 -3.92138 2.89964 0
M  V30 10941 H 999.045 -2.64594 4.81944 0
M  V30 10942 H 1000.27 -3.33349 5.91655 0
M  V30 10943 H 998.216 -4.92444 4.33399 0
M  V30 10944 H 998.133 -4.56368 6.02714 0
M  V30 10945 H 999.401 -5.59226 5.43035 0
M  V30 10946 N 1003.63 -1.50653 -0.462772 0
M  V30 10947 C 1004.59 -1.69561 -1.54213 0
M  V30 10948 C 1005.59 -0.566106 -1.50505 0
M  V30 10949 O 1006.78 -0.833273 -1.52978 0
M  V30 10950 C 1003.91 -1.72856 -2.93826 0
M  V30 10951 H 1005.11 -2.65867 -1.38761 0
M  V30 10952 H 1002.66 -1.40259 -0.689728 0
M  V30 10953 H 1003.4 -0.78273 -3.14712 0
M  V30 10954 H 1003.18 -2.54919 -2.97924 0
M  V30 10955 H 1004.67 -1.89411 -3.72174 0
M  V30 10956 N 1005.11 0.71652 -1.4037 0
M  V30 10957 C 1006.36 1.47347 -1.38324 0
M  V30 10958 C 1006.68 1.94995 0.0139949 0
M  V30 10959 O 1005.95 1.7028 0.968585 0
M  V30 10960 H 1004.53 0.546662 -0.509087 0
M  V30 10961 H 1007.19 0.849455 -1.75415 0
M  V30 10962 H 1006.29 2.34675 -2.05752 0
M  V30 10963 N 1006.59 1.25851 0.948643 0
M  V30 10964 C 1007.53 1.06759 2.04625 0
M  V30 10965 C 1008.5 -0.0251144 1.66081 0
M  V30 10966 O 1009.69 0.133221 1.90334 0
M  V30 10967 C 1006.83 0.698724 3.37952 0
M  V30 10968 C 1005.94 1.8669 3.89578 0
M  V30 10969 C 1005.08 1.44184 5.11258 0
M  V30 10970 C 1004.12 2.57878 5.55126 0
M  V30 10971 N 1003.25 2.16106 6.68014 0
M  V30 10972 H 1008.09 2.00691 2.20289 0
M  V30 10973 H 1005.63 0.999327 1.07944 0
M  V30 10974 H 1007.59 0.465788 4.14592 0
M  V30 10975 H 1006.22 -0.203618 3.22157 0
M  V30 10976 H 1005.27 2.21298 3.09405 0
M  V30 10977 H 1006.58 2.72051 4.18079 0
M  V30 10978 H 1005.74 1.16891 5.95333 0
M  V30 10979 H 1004.47 0.559035 4.84485 0
M  V30 10980 H 1003.48 2.85909 4.69612 0
M  V30 10981 H 1004.7 3.46747 5.83904 0
M  V30 10982 H 1002.65 1.3025 6.42939 0
M  V30 10983 H 1002.57 2.95012 6.96063 0
M  V30 10984 H 1003.84 1.92005 7.55483 0
M  V30 10985 N 1008.06 -1.15214 1.07534 0
M  V30 10986 C 1008.99 -2.2216 0.718837 0
M  V30 10987 C 1009.98 -1.6753 -0.29459 0
M  V30 10988 O 1011.16 -1.93481 -0.166931 0
M  V30 10989 C 1008.29 -3.471 0.117836 0
M  V30 10990 C 1007.24 -4.14701 1.05862 0
M  V30 10991 C 1006.57 -5.3374 0.320284 0
M  V30 10992 C 1007.87 -4.64254 2.39302 0
M  V30 10993 H 1009.56 -2.52237 1.61297 0
M  V30 10994 H 1007.11 -1.21239 0.776992 0
M  V30 10995 H 1009.06 -4.21156 -0.143519 0
M  V30 10996 H 1007.79 -3.16361 -0.811389 0
M  V30 10997 H 1006.45 -3.42589 1.30493 0
M  V30 10998 H 1006.09 -4.99257 -0.61246 0
M  V30 10999 H 1005.79 -5.79912 0.947381 0
M  V30 11000 H 1007.32 -6.10563 0.0667721 0
M  V30 11001 H 1008.73 -5.29827 2.18988 0
M  V30 11002 H 1007.13 -5.21095 2.97623 0
M  V30 11003 H 1008.2 -3.79793 3.01472 0
M  V30 11004 N 1009.54 -0.859717 -1.32086 0
M  V30 11005 C 1010.82 -0.386665 -1.9174 0
M  V30 11006 C 1011.2 1.13028 -1.78292 0
M  V30 11007 O 1010.55 1.95422 -1.18417 0
M  V30 11008 C 1010.76 -0.856648 -3.38323 0
M  V30 11009 C 1012.11 -0.87678 -4.15449 0
M  V30 11010 O 1013.13 -0.80162 -3.47063 0
M  V30 11011 O 1011.99 -0.98373 -5.37573 0
M  V30 11012 H 1009.08 -0.113758 -0.819139 0
M  V30 11013 H 1011.63 -0.946952 -1.40822 0
M  V30 11014 H 1010.4 -1.89996 -3.42078 0
M  V30 11015 H 1010.02 -0.274095 -3.96654 0
M  V30 11016 N 1011.02 1.44971 -0.618145 0
M  V30 11017 C 1012.43 1.85611 -0.201334 0
M  V30 11018 C 1012.78 1.51698 1.24427 0
M  V30 11019 O 1011.91 0.94875 1.94493 0
M  V30 11020 C 1012.5 3.36897 -0.358619 0
M  V30 11021 C 1011.06 3.764 0.00358196 0
M  V30 11022 C 1010.21 2.68881 -0.678118 0
M  V30 11023 H 1013.16 1.35622 -0.824152 0
M  V30 11024 H 1013.18 3.78326 0.406176 0
M  V30 11025 H 1012.69 3.61548 -1.41084 0
M  V30 11026 H 1010.79 3.57365 1.05457 0
M  V30 11027 H 1010.91 4.77449 -0.397427 0
M  V30 11028 H 1009.27 2.54442 -0.114699 0
M  V30 11029 H 1010.05 2.96367 -1.73268 0
M  V30 11030 N 1012.5 0.357919 1.53482 0
M  V30 11031 C 1013.45 -0.50845 2.22258 0
M  V30 11032 C 1014.43 -1.05476 1.21506 0
M  V30 11033 O 1015.62 -0.986075 1.46988 0
M  V30 11034 C 1012.75 -1.65157 3.00962 0
M  V30 11035 C 1011.84 -1.11851 4.09084 0
M  V30 11036 N 1012.23 -0.307818 5.04862 0
M  V30 11037 C 1010.53 -1.39405 4.23653 0
M  V30 11038 C 1011.23 -0.016842 5.81698 0
M  V30 11039 N 1010.21 -0.612396 5.40139 0
M  V30 11040 H 1014.01 0.117836 2.93664 0
M  V30 11041 H 1011.52 0.16553 1.61554 0
M  V30 11042 H 1013.52 -2.28435 3.48745 0
M  V30 11043 H 1012.18 -2.281 2.31086 0
M  V30 11044 H 1013.19 0.0523313 5.17874 0
M  V30 11045 H 1009.87 -2.02682 3.65002 0
M  V30 11046 H 1011.26 0.638046 6.68864 0
M  V30 11047 N 1013.98 -1.5736 0.0868897 0
M  V30 11048 C 1014.91 -2.16596 -0.872252 0
M  V30 11049 C 1015.89 -1.09706 -1.29995 0
M  V30 11050 O 1017.07 -1.37808 -1.36831 0
M  V30 11051 C 1014.2 -2.73972 -2.1344 0
M  V30 11052 C 1013.16 -3.86163 -1.8456 0
M  V30 11053 C 1012.48 -4.30206 -3.17533 0
M  V30 11054 C 1013.78 -5.0973 -1.13899 0
M  V30 11055 H 1015.48 -2.96995 -0.378738 0
M  V30 11056 H 1013.02 -1.42861 -0.18073 0
M  V30 11057 H 1014.98 -3.14062 -2.80968 0
M  V30 11058 H 1013.7 -1.90817 -2.6506 0
M  V30 11059 H 1012.36 -3.466 -1.19432 0
M  V30 11060 H 1012.01 -3.43951 -3.67024 0
M  V30 11061 H 1011.71 -5.05841 -2.98996 0
M  V30 11062 H 1013.23 -4.72922 -3.86234 0
M  V30 11063 H 1014.64 -5.4704 -1.71523 0
M  V30 11064 H 1013.04 -5.90741 -1.05569 0
M  V30 11065 H 1014.11 -4.8475 -0.120432 0
M  V30 11066 N 1015.45 0.186762 -1.56489 0
M  V30 11067 C 1016.7 0.907194 -1.81378 0
M  V30 11068 C 1017.03 1.82558 -0.662283 0
M  V30 11069 O 1016.31 1.91564 0.336699 0
M  V30 11070 C 1016.59 1.71624 -3.16571 0
M  V30 11071 C 1016.44 0.822009 -4.42225 0
M  V30 11072 C 1017.76 2.68713 -3.48542 0
M  V30 11073 H 1014.88 0.328366 -0.659806 0
M  V30 11074 H 1017.52 0.174142 -1.892 0
M  V30 11075 H 1015.67 2.34119 -3.10033 0
M  V30 11076 H 1017.35 0.211122 -4.60817 0
M  V30 11077 H 1015.59 0.129178 -4.33608 0
M  V30 11078 H 1016.26 1.42326 -5.33336 0
M  V30 11079 H 1018.74 2.16348 -3.55433 0
M  V30 11080 H 1017.61 3.22397 -4.44242 0
M  V30 11081 H 1017.87 3.48165 -2.72459 0
M  V30 11082 N 1016.93 1.50896 0.454776 0
M  V30 11083 C 1017.86 1.73885 1.5584 0
M  V30 11084 C 1018.84 0.588172 1.59607 0
M  V30 11085 O 1020.03 0.829054 1.75614 0
M  V30 11086 C 1017.16 1.84796 2.94054 0
M  V30 11087 C 1016.11 3.00111 3.05152 0
M  V30 11088 C 1015.44 2.96183 4.45174 0
M  V30 11089 C 1016.74 4.40365 2.80849 0
M  V30 11090 H 1018.43 2.66292 1.36854 0
M  V30 11091 H 1015.98 1.28142 0.656936 0
M  V30 11092 H 1017.93 1.99462 3.71204 0
M  V30 11093 H 1016.66 0.890235 3.14233 0
M  V30 11094 H 1015.31 2.85121 2.30438 0
M  V30 11095 H 1014.96 1.98224 4.62295 0
M  V30 11096 H 1014.66 3.73608 4.53532 0
M  V30 11097 H 1016.19 3.1292 5.24322 0
M  V30 11098 H 1017.6 4.55795 3.47741 0
M  V30 11099 H 1016 5.19363 3.00636 0
M  V30 11100 H 1017.07 4.51606 1.76579 0
M  V30 11101 N 1018.41 -0.709066 1.40748 0
M  V30 11102 C 1019.69 -1.4626 1.29874 0
M  V30 11103 C 1020.07 -2.10949 -0.0799322 0
M  V30 11104 O 1019.42 -2.00651 -1.09323 0
M  V30 11105 C 1019.63 -2.49302 2.44232 0
M  V30 11106 C 1020.97 -3.14945 2.84771 0
M  V30 11107 O 1022 -2.59623 2.43873 0
M  V30 11108 O 1020.86 -4.15111 3.5545 0
M  V30 11109 H 1017.95 -0.650716 0.51039 0
M  V30 11110 H 1020.5 -0.740687 1.52682 0
M  V30 11111 H 1019.27 -2.00063 3.36289 0
M  V30 11112 H 1018.89 -3.29021 2.23229 0
M  V30 11113 N 1019.89 -1.26353 -0.941956 0
M  V30 11114 C 1020.82 -1.03634 -2.04432 0
M  V30 11115 C 1021.83 0.00295864 -1.628 0
M  V30 11116 O 1023.02 -0.237029 -1.76919 0
M  V30 11117 C 1020.12 -0.547231 -3.34453 0
M  V30 11118 C 1019.3 -1.65559 -4.04857 0
M  V30 11119 C 1018.36 -1.16466 -5.13149 0
M  V30 11120 O 1017.38 -1.86158 -5.37898 0
M  V30 11121 N 1018.58 -0.0126703 -5.80499 0
M  V30 11122 H 1021.35 -1.98558 -2.24488 0
M  V30 11123 H 1018.91 -1.17728 -1.11138 0
M  V30 11124 H 1020.9 -0.203004 -4.04191 0
M  V30 11125 H 1019.47 0.308401 -3.11075 0
M  V30 11126 H 1018.69 -2.17079 -3.29044 0
M  V30 11127 H 1019.98 -2.39985 -4.48647 0
M  V30 11128 H 1019.38 0.569358 -5.62828 0
M  V30 11129 H 1017.93 0.272486 -6.5123 0
M  V30 11130 N 1021.37 1.14642 -1.08144 0
M  V30 11131 C 1022.3 2.21775 -0.730609 0
M  V30 11132 C 1023.28 1.67683 0.285702 0
M  V30 11133 O 1024.46 1.93567 0.156667 0
M  V30 11134 C 1021.59 3.47033 -0.136242 0
M  V30 11135 C 1020.55 4.14134 -1.0806 0
M  V30 11136 C 1019.87 5.33563 -0.348585 0
M  V30 11137 C 1021.17 4.62978 -2.41761 0
M  V30 11138 H 1022.87 2.51378 -1.62633 0
M  V30 11139 H 1020.41 1.20825 -0.783411 0
M  V30 11140 H 1022.37 4.21226 0.121182 0
M  V30 11141 H 1021.09 3.16786 0.7946 0
M  V30 11142 H 1019.75 3.41892 -1.32308 0
M  V30 11143 H 1019.4 4.99575 0.585974 0
M  V30 11144 H 1019.1 5.79402 -0.978122 0
M  V30 11145 H 1020.62 6.10519 -0.0991508 0
M  V30 11146 H 1022.04 5.28659 -2.21795 0
M  V30 11147 H 1020.43 5.1951 -3.00383 0
M  V30 11148 H 1021.5 3.78189 -3.03482 0
M  V30 11149 N 1022.85 0.866709 1.31628 0
M  V30 11150 C 1024.26 0.558188 1.49521 0
M  V30 11151 C 1024.46 -0.90844 1.7986 0
M  V30 11152 O 1023.52 -1.6908 1.87531 0
M  V30 11153 C 1024.83 1.45559 2.63122 0
M  V30 11154 C 1026.38 1.45728 2.77006 0
M  V30 11155 C 1026.85 2.34017 3.937 0
M  V30 11156 N 1028.34 2.31879 4.00982 0
M  V30 11157 C 1029.08 2.96915 4.90539 0
M  V30 11158 N 1028.58 3.71109 5.85021 0
M  V30 11159 N 1030.37 2.86241 4.83759 0
M  V30 11160 H 1022.52 1.81574 1.10203 0
M  V30 11161 H 1024.78 0.77621 0.544244 0
M  V30 11162 H 1024.49 2.49904 2.47469 0
M  V30 11163 H 1024.36 1.15174 3.59186 0
M  V30 11164 H 1026.75 0.421419 2.92075 0
M  V30 11165 H 1026.83 1.80134 1.81619 0
M  V30 11166 H 1026.47 3.37678 3.79389 0
M  V30 11167 H 1026.4 1.96937 4.88388 0
M  V30 11168 H 1028.9 1.77948 3.33381 0
M  V30 11169 H 1029.21 4.1787 6.5008 0
M  V30 11170 H 1027.55 3.75217 5.8501 0
M  V30 11171 H 1030.74 2.27819 4.08921 0
M  V30 11172 H 1030.92 3.37206 5.5335 0
M  V30 11173 N 1024.32 -1.44642 0.625825 0
M  V30 11174 C 1025.56 -2.03977 0.131444 0
M  V30 11175 C 1025.93 -1.48122 -1.22163 0
M  V30 11176 O 1027.13 -1.98926 -1.80781 0
M  V30 11177 C 1025.4 -3.57224 0.112032 0
M  V30 11178 S 1026.96 -4.37643 -0.318501 0
M  V30 11179 H 1023.78 -0.70859 0.0584859 0
M  V30 11180 H 1026.38 -1.77099 0.828024 0
M  V30 11181 H 1025.08 -3.95383 1.10001 0
M  V30 11182 H 1024.61 -3.88705 -0.605965 0
M  V30 11183 H 1026.63 -4.70909 -1.56393 0
M  V30 11184 N 1025.8 -0.366053 -1.5329 0
M  V30 11185 C 1026.75 0.495319 -2.27265 0
M  V30 11186 C 1027.74 1.08298 -1.30261 0
M  V30 11187 O 1028.95 1.02613 -1.47887 0
M  V30 11188 H 1025.32 0.178454 -0.730519 0
M  V30 11189 H 1027.3 -0.150354 -2.98021 0
M  V30 11190 C 1026.04 1.62283 -3.07505 0
M  V30 11191 H 1025.37 1.17993 -3.81992 0
M  V30 11192 H 1026.81 2.20024 -3.62444 0
M  V30 11193 C 1025.27 2.56542 -2.18375 0
M  V30 11194 O 1025.8 3.59371 -1.79486 0
M  V30 11195 N 1024 2.25742 -1.82999 0
M  V30 11196 H 1023.55 1.42159 -2.14822 0
M  V30 11197 H 1023.51 2.89064 -1.2365 0
M  V30 11198 N 1027.28 1.57312 -0.0952337 0
M  V30 11199 C 1028.53 1.93974 0.567319 0
M  V30 11200 C 1028.85 0.977805 1.68713 0
M  V30 11201 O 1028.12 0.0298944 1.95877 0
M  V30 11202 H 1026.7 0.71612 0.212558 0
M  V30 11203 H 1029.36 1.94254 -0.158598 0
M  V30 11204 H 1028.46 2.964 0.977423 0
M  V30 11205 N 1028.76 -0.17846 1.56586 0
M  V30 11206 C 1030 -0.897562 1.81856 0
M  V30 11207 C 1030.34 -1.82204 0.671955 0
M  V30 11208 O 1029.61 -1.91739 -0.326535 0
M  V30 11209 C 1029.89 -1.69942 3.17477 0
M  V30 11210 C 1029.75 -0.798545 4.42655 0
M  V30 11211 C 1031.07 -2.66861 3.49962 0
M  V30 11212 H 1028.19 -0.324863 0.661539 0
M  V30 11213 H 1030.83 -0.164106 1.8929 0
M  V30 11214 H 1028.98 -2.32471 3.11271 0
M  V30 11215 H 1030.65 -0.18668 4.60922 0
M  V30 11216 H 1028.89 -0.106181 4.3367 0
M  V30 11217 H 1029.56 -1.39496 5.34083 0
M  V30 11218 H 1032.04 -2.1446 3.56576 0
M  V30 11219 H 1030.92 -3.20037 4.45946 0
M  V30 11220 H 1031.18 -3.46715 2.74301 0
M  V30 11221 N 1030.24 -1.51135 -0.446768 0
M  V30 11222 C 1031.17 -1.74709 -1.54916 0
M  V30 11223 C 1032.15 -0.596628 -1.59293 0
M  V30 11224 O 1033.33 -0.838356 -1.75172 0
M  V30 11225 C 1030.46 -1.86353 -2.9307 0
M  V30 11226 C 1029.42 -3.01725 -3.03556 0
M  V30 11227 C 1028.74 -2.9854 -4.43597 0
M  V30 11228 C 1030.04 -4.41848 -2.7851 0
M  V30 11229 H 1031.74 -2.67014 -1.3544 0
M  V30 11230 H 1029.28 -1.28489 -0.650131 0
M  V30 11231 H 1031.23 -2.01428 -3.70141 0
M  V30 11232 H 1029.96 -0.906887 -3.13756 0
M  V30 11233 H 1028.62 -2.86339 -2.28922 0
M  V30 11234 H 1028.27 -2.00673 -4.61237 0
M  V30 11235 H 1027.97 -3.76008 -4.51544 0
M  V30 11236 H 1029.49 -3.15696 -5.22655 0
M  V30 11237 H 1030.9 -4.57633 -3.45319 0
M  V30 11238 H 1029.3 -5.2095 -2.97877 0
M  V30 11239 H 1030.37 -4.52536 -1.74182 0
M  V30 11240 N 1031.71 0.701592 -1.41122 0
M  V30 11241 C 1032.62 1.84548 -1.44841 0
M  V30 11242 C 1033.64 1.70654 -0.339594 0
M  V30 11243 O 1034.82 1.92675 -0.586378 0
M  V30 11244 C 1031.88 3.20477 -1.3227 0
M  V30 11245 C 1030.94 3.46524 -2.53415 0
M  V30 11246 C 1030.17 4.75968 -2.41434 0
M  V30 11247 O 1030.4 5.52037 -1.43566 0
M  V30 11248 O 1029.33 5.02664 -3.31078 0
M  V30 11249 H 1033.16 1.84367 -2.41335 0
M  V30 11250 H 1030.74 0.853863 -1.22595 0
M  V30 11251 H 1032.62 4.01642 -1.2752 0
M  V30 11252 H 1031.3 3.21355 -0.388889 0
M  V30 11253 H 1030.21 2.65313 -2.63742 0
M  V30 11254 H 1031.54 3.50455 -3.45604 0
M  V30 11255 N 1033.19 1.2685 0.935242 0
M  V30 11256 C 1034.44 1.12522 1.67878 0
M  V30 11257 C 1034.76 -0.330894 1.92172 0
M  V30 11258 O 1034.03 -1.23259 1.52263 0
M  V30 11259 H 1032.61 0.413418 0.622169 0
M  V30 11260 H 1035.27 1.59267 1.12339 0
M  V30 11261 H 1034.37 1.64853 2.65009 0
M  V30 11262 N 1034.67 -1.14067 1.0875 0
M  V30 11263 C 1035.92 -1.84535 0.814235 0
M  V30 11264 C 1036.23 -1.84044 -0.662355 0
M  V30 11265 O 1037.44 -2.50336 -1.05091 0
M  V30 11266 C 1035.89 -3.31273 1.40663 0
M  V30 11267 C 1035.5 -3.40171 2.91526 0
M  V30 11268 C 1037.25 -4.0683 1.21201 0
M  V30 11269 C 1035.15 -4.81141 3.43885 0
M  V30 11270 H 1034.08 -0.691346 0.300926 0
M  V30 11271 H 1036.73 -1.28562 1.30935 0
M  V30 11272 H 1035.12 -3.87005 0.839215 0
M  V30 11273 H 1036.29 -2.94471 3.54434 0
M  V30 11274 H 1034.61 -2.78073 3.09942 0
M  V30 11275 H 1037.2 -5.10891 1.57781 0
M  V30 11276 H 1037.55 -4.16022 0.152092 0
M  V30 11277 H 1038.08 -3.57408 1.74655 0
M  V30 11278 H 1034.82 -4.77138 4.49466 0
M  V30 11279 H 1034.34 -5.27365 2.85738 0
M  V30 11280 H 1036.02 -5.50042 3.40681 0
M  V30 11281 N 1036.15 -0.873678 -1.31166 0
M  V30 11282 C 1037.56 -0.566109 -1.49223 0
M  V30 11283 C 1037.76 0.898889 -1.80339 0
M  V30 11284 O 1036.82 1.68084 -1.88425 0
M  V30 11285 C 1038.13 -1.46952 -2.62346 0
M  V30 11286 C 1039.68 -1.47195 -2.76229 0
M  V30 11287 C 1040.16 -2.36102 -3.92454 0
M  V30 11288 N 1041.65 -2.34003 -3.99746 0
M  V30 11289 C 1042.38 -2.99513 -4.88958 0
M  V30 11290 N 1041.88 -3.74206 -5.83045 0
M  V30 11291 N 1043.67 -2.88802 -4.82234 0
M  V30 11292 H 1035.82 -1.82156 -1.09239 0
M  V30 11293 H 1038.09 -0.779086 -0.54012 0
M  V30 11294 H 1037.79 -2.51213 -2.4614 0
M  V30 11295 H 1037.67 -1.17077 -3.5857 0
M  V30 11296 H 1040.05 -0.436902 -2.91848 0
M  V30 11297 H 1040.13 -1.81095 -1.80661 0
M  V30 11298 H 1039.78 -3.39685 -3.77593 0
M  V30 11299 H 1039.71 -1.99524 -4.87337 0
M  V30 11300 H 1042.2 -1.79713 -3.32433 0
M  V30 11301 H 1042.51 -4.21312 -6.47855 0
M  V30 11302 H 1040.86 -3.78314 -5.83012 0
M  V30 11303 H 1044.05 -2.29984 -4.07707 0
M  V30 11304 H 1044.22 -3.40136 -5.51554 0
M  V30 11305 N 1037.63 1.44308 -0.633487 0
M  V30 11306 C 1038.88 2.01239 -0.136356 0
M  V30 11307 C 1039.19 1.50438 1.25011 0
M  V30 11308 O 1040.39 1.99513 1.84138 0
M  V30 11309 C 1038.85 3.59382 -0.193011 0
M  V30 11310 C 1038.46 4.19178 -1.58093 0
M  V30 11311 C 1040.2 4.23778 0.247534 0
M  V30 11312 C 1038.11 5.69553 -1.59258 0
M  V30 11313 H 1037.04 0.752521 -0.0472109 0
M  V30 11314 H 1039.69 1.65498 -0.79263 0
M  V30 11315 H 1038.07 3.92432 0.530408 0
M  V30 11316 H 1039.25 3.97662 -2.32813 0
M  V30 11317 H 1037.56 3.67079 -1.96576 0
M  V30 11318 H 1040.16 5.34075 0.258401 0
M  V30 11319 H 1040.5 3.96285 1.27529 0
M  V30 11320 H 1041.03 3.9554 -0.423469 0
M  V30 11321 H 1037.77 6.01784 -2.59878 0
M  V30 11322 H 1037.29 5.93185 -0.888352 0
M  V30 11323 H 1038.97 6.33234 -1.32756 0
M  V30 11324 N 1039.1 0.374177 1.53094 0
M  V30 11325 C 1040.34 -0.21278 2.03289 0
M  V30 11326 C 1040.71 -1.45291 1.25517 0
M  V30 11327 O 1041.91 -2.11605 1.65761 0
M  V30 11328 C 1040.18 -0.48913 3.54037 0
M  V30 11329 S 1041.74 -1.04853 4.26088 0
M  V30 11330 H 1038.56 -0.0612752 0.708355 0
M  V30 11331 H 1041.16 0.519031 1.88484 0
M  V30 11332 H 1039.86 0.420786 4.08237 0
M  V30 11333 H 1039.39 -1.24978 3.7302 0
M  V30 11334 H 1041.41 -2.33213 4.3798 0
M  V30 11335 N 1040.58 -1.57259 0.103575 0
M  V30 11336 C 1042 -1.57581 -0.253062 0
M  V30 11337 C 1042.2 -1.11531 -1.67819 0
M  V30 11338 O 1041.25 -0.795632 -2.39637 0
M  V30 11339 C 1042.57 -3.00681 -0.0337753 0
M  V30 11340 C 1044.12 -3.12837 -0.10087 0
M  V30 11341 C 1044.59 -4.57911 0.0905295 0
M  V30 11342 N 1046.08 -4.63186 0.0359789 0
M  V30 11343 C 1046.82 -5.73179 0.159199 0
M  V30 11344 N 1046.31 -6.91976 0.337728 0
M  V30 11345 N 1048.11 -5.62011 0.0998662 0
M  V30 11346 H 1040.26 -1.85499 1.0346 0
M  V30 11347 H 1042.52 -0.856584 0.406163 0
M  V30 11348 H 1042.23 -3.38602 0.950858 0
M  V30 11349 H 1042.1 -3.69207 -0.772406 0
M  V30 11350 H 1044.49 -2.74783 -1.07601 0
M  V30 11351 H 1044.57 -2.46886 0.66939 0
M  V30 11352 H 1044.21 -4.9666 1.06258 0
M  V30 11353 H 1044.14 -5.21933 -0.699528 0
M  V30 11354 H 1046.63 -3.7777 -0.099121 0
M  V30 11355 H 1046.95 -7.71641 0.423032 0
M  V30 11356 H 1045.29 -6.93996 0.373504 0
M  V30 11357 H 1048.48 -4.68084 -0.0385356 0
M  V30 11358 H 1048.65 -6.47693 0.199342 0
M  V30 11359 N 1042.06 0.170153 -1.56679 0
M  V30 11360 C 1042.99 1.23525 -1.93066 0
M  V30 11361 C 1044.01 1.40414 -0.823879 0
M  V30 11362 O 1045.19 1.40396 -1.10232 0
M  V30 11363 C 1042.29 2.60376 -2.16928 0
M  V30 11364 C 1041.47 2.6477 -3.4816 0
M  V30 11365 C 1040.53 3.82993 -3.60837 0
M  V30 11366 O 1039.55 3.68937 -4.33444 0
M  V30 11367 N 1040.75 4.99498 -2.95773 0
M  V30 11368 H 1043.52 0.926172 -2.8503 0
M  V30 11369 H 1041.08 0.359909 -1.57849 0
M  V30 11370 H 1043.07 3.37934 -2.22672 0
M  V30 11371 H 1041.64 2.83669 -1.31342 0
M  V30 11372 H 1040.86 1.73298 -3.54064 0
M  V30 11373 H 1042.15 2.64717 -4.34514 0
M  V30 11374 H 1041.55 5.13819 -2.36657 0
M  V30 11375 H 1040.11 5.74914 -3.07111 0
M  V30 11376 N 1043.54 1.5137 0.438746 0
M  V30 11377 C 1044.79 1.63645 1.18595 0
M  V30 11378 C 1045.11 0.354241 1.91755 0
M  V30 11379 O 1044.38 -0.629838 1.85499 0
M  V30 11380 H 1042.96 0.603103 0.440767 0
M  V30 11381 H 1045.62 1.88293 0.503159 0
M  V30 11382 H 1044.72 2.46342 1.9163 0
M  V30 11383 N 1045.02 -0.694098 1.41492 0
M  V30 11384 C 1046.26 -1.45415 1.40929 0
M  V30 11385 C 1046.59 -1.94491 0.0189301 0
M  V30 11386 O 1045.85 -1.7 -0.96945 0
M  V30 11387 C 1046.15 -2.6805 2.36398 0
M  V30 11388 C 1045.81 -2.37623 3.83205 0
M  V30 11389 C 1044.47 -2.29035 4.23198 0
M  V30 11390 C 1046.83 -2.12555 4.75888 0
M  V30 11391 C 1044.15 -1.93478 5.5388 0
M  V30 11392 C 1046.51 -1.78506 6.06892 0
M  V30 11393 C 1045.17 -1.68415 6.45905 0
M  V30 11394 H 1044.44 -0.53211 0.515694 0
M  V30 11395 H 1047.09 -0.793193 1.74301 0
M  V30 11396 H 1045.39 -3.39086 1.96285 0
M  V30 11397 H 1047.09 -3.26194 2.33234 0
M  V30 11398 H 1043.68 -2.45202 3.51531 0
M  V30 11399 H 1047.86 -2.18133 4.45793 0
M  V30 11400 H 1043.12 -1.84219 5.82986 0
M  V30 11401 H 1047.29 -1.58128 6.7821 0
M  V30 11402 H 1044.92 -1.40631 7.47079 0
M  V30 11403 N 1046.49 -1.27344 -0.928501 0
M  V30 11404 C 1047.91 -1.12361 -1.49103 0
M  V30 11405 C 1048.26 0.291667 -1.9402 0
M  V30 11406 O 1047.38 1.18449 -1.81104 0
M  V30 11407 C 1047.98 -2.03358 -2.70981 0
M  V30 11408 C 1046.54 -1.92483 -3.23461 0
M  V30 11409 C 1045.68 -1.95961 -1.962 0
M  V30 11410 H 1048.63 -1.40249 -0.742689 0
M  V30 11411 H 1048.65 -1.58892 -3.45736 0
M  V30 11412 H 1048.17 -3.06356 -2.38259 0
M  V30 11413 H 1046.27 -0.924676 -3.60944 0
M  V30 11414 H 1046.38 -2.78682 -3.89709 0
M  V30 11415 H 1044.74 -1.40175 -2.12657 0
M  V30 11416 H 1045.53 -3.00612 -1.65793 0
M  V30 11417 N 1047.97 1.13488 -1.09353 0
M  V30 11418 C 1048.92 2.20949 -0.726923 0
M  V30 11419 C 1049.91 1.67205 0.271816 0
M  V30 11420 O 1051.12 1.79505 0.133356 0
M  V30 11421 H 1047.5 0.719985 -0.217086 0
M  V30 11422 H 1049.47 2.49134 -1.6424 0
M  V30 11423 C 1048.22 3.47319 -0.162822 0
M  V30 11424 H 1047.54 3.89011 -0.922527 0
M  V30 11425 H 1048.98 4.23963 0.0557734 0
M  V30 11426 C 1047.44 3.18376 1.10175 0
M  V30 11427 O 1047.97 3.3707 2.18511 0
M  V30 11428 N 1046.17 2.72262 1.01597 0
M  V30 11429 H 1045.72 2.5725 0.134289 0
M  V30 11430 H 1045.68 2.53272 1.86281 0
M  V30 11431 N 1049.45 0.880621 1.30701 0
M  V30 11432 C 1050.87 0.574015 1.4892 0
M  V30 11433 C 1051.07 -0.889312 1.80813 0
M  V30 11434 O 1050.12 -1.67082 1.89314 0
M  V30 11435 C 1051.44 1.48341 2.61563 0
M  V30 11436 C 1052.98 1.48658 2.75445 0
M  V30 11437 C 1053.46 2.3818 3.91196 0
M  V30 11438 N 1054.95 2.36119 3.985 0
M  V30 11439 C 1055.69 3.02101 4.87363 0
M  V30 11440 N 1055.18 3.77293 5.81052 0
M  V30 11441 N 1056.97 2.91356 4.80696 0
M  V30 11442 H 1049.13 1.82732 1.08271 0
M  V30 11443 H 1051.39 0.781939 0.535981 0
M  V30 11444 H 1051.09 2.52515 2.44804 0
M  V30 11445 H 1050.97 1.18977 3.57944 0
M  V30 11446 H 1053.36 0.452374 2.91612 0
M  V30 11447 H 1053.44 1.8205 1.79698 0
M  V30 11448 H 1053.08 3.41683 3.75786 0
M  V30 11449 H 1053.01 2.02106 4.86272 0
M  V30 11450 H 1055.5 1.81474 3.31475 0
M  V30 11451 H 1055.81 4.24742 6.45612 0
M  V30 11452 H 1054.16 3.81401 5.80998 0
M  V30 11453 H 1057.35 2.32143 4.06481 0
M  V30 11454 H 1057.52 3.43056 5.49742 0
M  V30 11455 N 1050.93 -1.4397 0.641131 0
M  V30 11456 C 1052.18 -2.02246 0.14985 0
M  V30 11457 C 1052.51 -1.50387 -1.22871 0
M  V30 11458 O 1051.78 -0.692003 -1.81773 0
M  V30 11459 C 1052.07 -3.59798 0.147449 0
M  V30 11460 C 1051.92 -4.21916 1.55907 0
M  V30 11461 C 1053.24 -4.36985 -0.522667 0
M  V30 11462 H 1050.36 -0.734875 0.0559274 0
M  V30 11463 H 1053 -1.71418 0.819513 0
M  V30 11464 H 1051.15 -3.86193 -0.422789 0
M  V30 11465 H 1052.82 -4.06594 2.17896 0
M  V30 11466 H 1051.06 -3.79028 2.10998 0
M  V30 11467 H 1051.74 -5.30964 1.50934 0
M  V30 11468 H 1054.21 -4.16083 -0.0376226 0
M  V30 11469 H 1053.09 -5.46676 -0.493572 0
M  V30 11470 H 1053.35 -4.12335 -1.59475 0
M  V30 11471 N 1052.41 -0.382291 -1.52893 0
M  V30 11472 C 1053.65 0.202433 -2.01787 0
M  V30 11473 C 1053.99 1.47044 -1.26853 0
M  V30 11474 O 1053.26 1.91007 -0.366969 0
M  V30 11475 C 1053.54 0.477471 -3.5692 0
M  V30 11476 C 1053.4 -0.805339 -4.42532 0
M  V30 11477 C 1054.72 1.27106 -4.21346 0
M  V30 11478 H 1051.84 0.0720998 -0.733465 0
M  V30 11479 H 1054.48 -0.510478 -1.83014 0
M  V30 11480 H 1052.63 1.08478 -3.73048 0
M  V30 11481 H 1054.3 -1.4424 -4.3817 0
M  V30 11482 H 1052.54 -1.42216 -4.09826 0
M  V30 11483 H 1053.21 -0.567635 -5.49074 0
M  V30 11484 H 1055.69 0.757161 -4.09153 0
M  V30 11485 H 1054.57 1.43225 -5.29885 0
M  V30 11486 H 1054.83 2.28431 -3.78513 0
M  V30 11487 N 1053.89 1.57202 -0.111913 0
M  V30 11488 C 1055.13 1.9495 0.547795 0
M  V30 11489 C 1055.46 0.994763 1.67137 0
M  V30 11490 O 1054.72 0.0173528 1.95692 0
M  V30 11491 C 1055.01 3.39152 1.12741 0
M  V30 11492 C 1054.68 4.50724 0.125916 0
M  V30 11493 C 1053.34 4.80968 -0.149489 0
M  V30 11494 C 1055.69 5.18215 -0.556987 0
M  V30 11495 C 1053.02 5.76023 -1.1142 0
M  V30 11496 C 1055.37 6.14307 -1.51029 0
M  V30 11497 C 1054.04 6.42947 -1.79375 0
M  V30 11498 H 1053.31 0.713372 0.200453 0
M  V30 11499 H 1055.96 1.90542 -0.191316 0
M  V30 11500 H 1054.26 3.4022 1.94313 0
M  V30 11501 H 1055.96 3.65668 1.64584 0
M  V30 11502 H 1052.55 4.27162 0.350756 0
M  V30 11503 H 1056.73 4.95012 -0.357378 0
M  V30 11504 H 1051.99 5.9652 -1.34064 0
M  V30 11505 H 1056.16 6.65692 -2.04516 0
M  V30 11506 H 1053.79 7.1641 -2.54284 0
M  V30 11507 N 1055.36 -0.161842 1.56767 0
M  V30 11508 C 1056.3 -1.22499 1.93718 0
M  V30 11509 C 1057.31 -1.39975 0.831314 0
M  V30 11510 O 1058.5 -1.3981 1.10975 0
M  V30 11511 C 1055.6 -2.59222 2.18306 0
M  V30 11512 C 1054.77 -2.6292 3.4956 0
M  V30 11513 C 1053.83 -3.81074 3.62863 0
M  V30 11514 O 1052.86 -3.66633 4.35395 0
M  V30 11515 N 1054.06 -4.97923 2.98418 0
M  V30 11516 H 1056.82 -0.911043 2.85517 0
M  V30 11517 H 1054.38 -0.351533 1.58038 0
M  V30 11518 H 1056.38 -3.36749 2.24461 0
M  V30 11519 H 1054.95 -2.82969 1.32844 0
M  V30 11520 H 1054.17 -1.71418 3.54978 0
M  V30 11521 H 1055.45 -2.62409 4.35911 0
M  V30 11522 H 1054.85 -5.12557 2.39378 0
M  V30 11523 H 1053.41 -5.73277 3.10155 0
M  V30 11524 N 1056.84 -1.516 -0.430713 0
M  V30 11525 C 1057.75 -1.76247 -1.54836 0
M  V30 11526 C 1058.77 -0.646985 -1.61524 0
M  V30 11527 O 1059.94 -0.929987 -1.78643 0
M  V30 11528 C 1057.01 -1.88833 -2.90763 0
M  V30 11529 C 1056.07 -3.12701 -2.94137 0
M  V30 11530 C 1055.3 -3.24676 -4.23581 0
M  V30 11531 O 1055.53 -2.42429 -5.16318 0
M  V30 11532 O 1054.46 -4.17697 -4.33374 0
M  V30 11533 H 1058.29 -2.71069 -1.3695 0
M  V30 11534 H 1055.87 -1.36182 -0.614396 0
M  V30 11535 H 1057.75 -1.99057 -3.71422 0
M  V30 11536 H 1056.43 -0.971987 -3.08762 0
M  V30 11537 H 1055.33 -3.0795 -2.1241 0
M  V30 11538 H 1056.67 -4.04045 -2.81084 0
M  V30 11539 N 1058.32 0.686584 -1.41858 0
M  V30 11540 C 1059.57 1.44665 -1.41698 0
M  V30 11541 C 1059.89 1.94478 -0.0292442 0
M  V30 11542 O 1059.15 1.70512 0.960421 0
M  V30 11543 C 1059.45 2.66793 -2.37816 0
M  V30 11544 C 1059.11 2.35587 -3.8446 0
M  V30 11545 C 1057.78 2.26788 -4.24406 0
M  V30 11546 C 1060.13 2.10028 -4.77009 0
M  V30 11547 C 1057.46 1.90538 -5.54898 0
M  V30 11548 C 1059.81 1.75285 -6.07831 0
M  V30 11549 C 1058.47 1.64987 -6.46789 0
M  V30 11550 H 1057.74 0.529367 -0.518509 0
M  V30 11551 H 1060.39 0.783938 -1.74719 0
M  V30 11552 H 1058.69 3.38041 -1.9808 0
M  V30 11553 H 1060.39 3.24953 -2.34961 0
M  V30 11554 H 1056.98 2.43334 -3.52826 0
M  V30 11555 H 1061.17 2.15766 -4.46944 0
M  V30 11556 H 1056.42 1.81125 -5.83955 0
M  V30 11557 H 1060.6 1.5453 -6.79039 0
M  V30 11558 H 1058.22 1.36667 -7.47814 0
M  V30 11559 N 1059.8 1.27835 0.921735 0
M  V30 11560 C 1061.21 1.05369 1.19873 0
M  V30 11561 C 1061.41 -0.208997 2.00413 0
M  V30 11562 O 1060.47 -0.912861 2.35421 0
M  V30 11563 C 1061.78 2.29658 1.94108 0
M  V30 11564 C 1063.33 2.34756 2.07023 0
M  V30 11565 C 1063.81 3.5879 2.84664 0
M  V30 11566 N 1065.3 3.59383 2.9223 0
M  V30 11567 C 1066.03 4.52029 3.52785 0
M  V30 11568 N 1065.53 5.54986 4.14683 0
M  V30 11569 N 1067.32 4.39641 3.50246 0
M  V30 11570 H 1059.47 2.08903 0.383819 0
M  V30 11571 H 1061.73 0.919065 0.232429 0
M  V30 11572 H 1061.44 3.21604 1.4235 0
M  V30 11573 H 1061.31 2.35444 2.94696 0
M  V30 11574 H 1063.7 1.43312 2.57965 0
M  V30 11575 H 1063.78 2.32969 1.05636 0
M  V30 11576 H 1063.43 4.50574 2.34404 0
M  V30 11577 H 1063.36 3.57829 3.86349 0
M  V30 11578 H 1065.85 2.84927 2.48244 0
M  V30 11579 H 1066.16 6.21837 4.58845 0
M  V30 11580 H 1064.51 5.58822 4.13211 0
M  V30 11581 H 1067.7 3.58413 3.01094 0
M  V30 11582 H 1067.87 5.12033 3.97148 0
M  V30 11583 N 1061.28 -1.12907 1.09954 0
M  V30 11584 C 1062.21 -2.18194 0.701701 0
M  V30 11585 C 1063.22 -1.60724 -0.259131 0
M  V30 11586 O 1064.41 -1.78445 -0.0443549 0
M  V30 11587 C 1061.51 -3.38897 0.0140602 0
M  V30 11588 C 1060.68 -4.25867 0.997807 0
M  V30 11589 C 1059.74 -5.25084 0.34257 0
M  V30 11590 O 1058.77 -5.60492 0.991857 0
M  V30 11591 N 1059.97 -5.73464 -0.901058 0
M  V30 11592 H 1062.73 -2.52939 1.60755 0
M  V30 11593 H 1060.3 -1.28281 0.987703 0
M  V30 11594 H 1062.29 -4.02349 -0.435628 0
M  V30 11595 H 1060.86 -3.02345 -0.794118 0
M  V30 11596 H 1060.08 -3.59107 1.6259 0
M  V30 11597 H 1061.37 -4.80825 1.66388 0
M  V30 11598 H 1060.76 -5.46854 -1.44802 0
M  V30 11599 H 1059.32 -6.38827 -1.29398 0
M  V30 11600 N 1062.75 -0.88754 -1.30232 0
M  V30 11601 C 1064.17 -0.581904 -1.48614 0
M  V30 11602 C 1064.37 0.879711 -1.81282 0
M  V30 11603 O 1063.43 1.66076 -1.90198 0
M  V30 11604 C 1064.74 -1.49726 -2.60773 0
M  V30 11605 C 1066.29 -1.50117 -2.74653 0
M  V30 11606 C 1066.76 -2.40251 -3.89927 0
M  V30 11607 N 1068.25 -2.38229 -3.97242 0
M  V30 11608 C 1068.99 -3.04682 -4.85754 0
M  V30 11609 N 1068.48 -3.80369 -5.79043 0
M  V30 11610 N 1070.28 -2.93901 -4.79144 0
M  V30 11611 H 1062.43 -1.83304 -1.073 0
M  V30 11612 H 1064.69 -0.78477 -0.531826 0
M  V30 11613 H 1064.4 -2.5381 -2.43462 0
M  V30 11614 H 1064.27 -1.20874 -3.57308 0
M  V30 11615 H 1066.66 -0.467832 -2.91368 0
M  V30 11616 H 1066.74 -1.83001 -1.7873 0
M  V30 11617 H 1066.38 -3.43671 -3.73969 0
M  V30 11618 H 1066.31 -2.04682 -4.85194 0
M  V30 11619 H 1068.8 -1.83229 -3.30508 0
M  V30 11620 H 1069.12 -4.28159 -6.4335 0
M  V30 11621 H 1067.46 -3.84477 -5.78967 0
M  V30 11622 H 1070.65 -2.34296 -4.05245 0
M  V30 11623 H 1070.83 -3.45967 -5.47915 0
M  V30 11624 N 1064.23 1.43628 -0.648757 0
M  V30 11625 C 1065.46 2.05918 -0.167701 0
M  V30 11626 C 1065.87 1.48681 1.17006 0
M  V30 11627 O 1065.21 0.610984 1.73242 0
M  V30 11628 C 1065.28 3.595 0.00265514 0
M  V30 11629 C 1064.94 4.39295 -1.2597 0
M  V30 11630 C 1065.94 4.71643 -2.18743 0
M  V30 11631 C 1063.62 4.79379 -1.50004 0
M  V30 11632 C 1065.62 5.42978 -3.33846 0
M  V30 11633 C 1063.3 5.50459 -2.65401 0
M  V30 11634 C 1064.3 5.82181 -3.57148 0
M  V30 11635 O 1063.99 6.5181 -4.7053 0
M  V30 11636 H 1063.72 0.670619 -0.0851261 0
M  V30 11637 H 1066.27 1.85196 -0.888351 0
M  V30 11638 H 1064.5 3.7878 0.77863 0
M  V30 11639 H 1066.19 4.03503 0.440501 0
M  V30 11640 H 1066.96 4.41199 -2.01416 0
M  V30 11641 H 1062.84 4.54098 -0.794745 0
M  V30 11642 H 1066.38 5.67656 -4.05479 0
M  V30 11643 H 1062.28 5.8032 -2.82664 0
M  V30 11644 H 1063.05 6.7029 -4.69738 0
M  V30 11645 N 1065.71 0.390394 1.52688 0
M  V30 11646 C 1066.62 -0.451543 2.30213 0
M  V30 11647 C 1067.64 -1.07051 1.37172 0
M  V30 11648 O 1068.81 -1.07609 1.70242 0
M  V30 11649 C 1065.88 -1.56299 3.0947 0
M  V30 11650 C 1064.94 -0.969017 4.18221 0
M  V30 11651 C 1064.17 -2.0275 4.93688 0
M  V30 11652 O 1064.39 -3.24273 4.69258 0
M  V30 11653 O 1063.33 -1.64418 5.79008 0
M  V30 11654 H 1067.15 0.180042 3.03166 0
M  V30 11655 H 1064.74 0.154082 1.48603 0
M  V30 11656 H 1066.62 -2.20864 3.58883 0
M  V30 11657 H 1065.3 -2.17952 2.3933 0
M  V30 11658 H 1064.2 -0.286587 3.73001 0
M  V30 11659 H 1065.54 -0.396687 4.90599 0
M  V30 11660 N 1067.19 -1.57141 0.120249 0
M  V30 11661 C 1068.44 -1.94413 -0.53727 0
M  V30 11662 C 1068.75 -1.00594 -1.67751 0
M  V30 11663 O 1069.96 -1.27336 -2.39787 0
M  V30 11664 C 1068.41 -3.45521 -1.00714 0
M  V30 11665 C 1068.02 -4.47878 0.104706 0
M  V30 11666 C 1069.76 -3.9171 -1.63596 0
M  V30 11667 C 1067.67 -5.90165 -0.381932 0
M  V30 11668 H 1066.6 -0.725745 -0.204475 0
M  V30 11669 H 1069.25 -1.82404 0.200302 0
M  V30 11670 H 1067.63 -3.52769 -1.79917 0
M  V30 11671 H 1068.81 -4.523 0.881002 0
M  V30 11672 H 1067.12 -4.11448 0.640264 0
M  V30 11673 H 1069.72 -4.95433 -2.01122 0
M  V30 11674 H 1070.06 -3.31756 -2.51483 0
M  V30 11675 H 1070.6 -3.87268 -0.909319 0
M  V30 11676 H 1067.34 -6.53877 0.460921 0
M  V30 11677 H 1066.86 -5.89161 -1.12468 0
M  V30 11678 H 1068.53 -6.41488 -0.842748 0
M  V30 11679 N 1068.67 0.153526 -1.5685 0
M  V30 11680 C 1069.6 1.19162 -2.00805 0
M  V30 11681 C 1070.58 1.45172 -0.886518 0
M  V30 11682 O 1071.76 1.56203 -1.15387 0
M  V30 11683 C 1068.89 2.52637 -2.38311 0
M  V30 11684 C 1067.85 2.41161 -3.53589 0
M  V30 11685 C 1067.17 3.79287 -3.76889 0
M  V30 11686 C 1068.47 1.90122 -4.86468 0
M  V30 11687 H 1070.17 0.82617 -2.87776 0
M  V30 11688 H 1067.71 0.395972 -1.38449 0
M  V30 11689 H 1069.67 3.25478 -2.6766 0
M  V30 11690 H 1068.39 2.91005 -1.4827 0
M  V30 11691 H 1067.05 1.70772 -3.24395 0
M  V30 11692 H 1066.7 4.15079 -2.84109 0
M  V30 11693 H 1066.4 3.72472 -4.54465 0
M  V30 11694 H 1067.92 4.53687 -4.08657 0
M  V30 11695 H 1069.33 2.52752 -5.14577 0
M  V30 11696 H 1067.73 1.94214 -5.67804 0
M  V30 11697 H 1068.8 0.856517 -4.77275 0
M  V30 11698 N 1070.14 1.51827 0.422667 0
M  V30 11699 C 1071.37 1.69049 1.1929 0
M  V30 11700 C 1071.79 0.394095 1.84641 0
M  V30 11701 O 1071.14 -0.628731 1.71328 0
M  V30 11702 C 1071.2 2.81657 2.26609 0
M  V30 11703 O 1070.92 4.06275 1.63929 0
M  V30 11704 C 1072.42 3.10274 3.16615 0
M  V30 11705 H 1069.64 0.566894 0.358988 0
M  V30 11706 H 1072.18 1.98318 0.499029 0
M  V30 11707 H 1070.34 2.54945 2.91688 0
M  V30 11708 H 1070.75 4.68924 2.3497 0
M  V30 11709 H 1072.22 3.92613 3.88019 0
M  V30 11710 H 1072.7 2.23273 3.78214 0
M  V30 11711 H 1073.31 3.387 2.57221 0
M  V30 11712 N 1071.62 -0.679052 1.4222 0
M  V30 11713 C 1073.03 -1.25953 1.37815 0
M  V30 11714 C 1073.38 -1.96077 0.0693215 0
M  V30 11715 O 1072.51 -1.99765 -0.832047 0
M  V30 11716 C 1073.1 -2.29063 2.49631 0
M  V30 11717 C 1071.66 -2.82647 2.48571 0
M  V30 11718 C 1070.81 -1.56909 2.28637 0
M  V30 11719 H 1073.76 -0.472714 1.51496 0
M  V30 11720 H 1073.78 -3.10708 2.19638 0
M  V30 11721 H 1073.29 -1.77996 3.44876 0
M  V30 11722 H 1071.4 -3.37846 1.57132 0
M  V30 11723 H 1071.51 -3.31952 3.45463 0
M  V30 11724 H 1069.87 -1.83323 1.76819 0
M  V30 11725 H 1070.66 -1.07814 3.25931 0
M  V30 11726 N 1073.1 -1.28322 -0.914942 0
M  V30 11727 C 1074.05 -1.12003 -2.03858 0
M  V30 11728 C 1075.04 -0.0396287 -1.69354 0
M  V30 11729 O 1076.25 -0.198309 -1.78904 0
M  V30 11730 H 1072.62 -0.34552 -0.667922 0
M  V30 11731 H 1074.59 -2.07168 -2.14765 0
M  V30 11732 C 1073.34 -0.797402 -3.38433 0
M  V30 11733 H 1072.67 -1.62071 -3.65476 0
M  V30 11734 H 1074.11 -0.723165 -4.17787 0
M  V30 11735 C 1072.57 0.498807 -3.33187 0
M  V30 11736 O 1073.1 1.52946 -3.71444 0
M  V30 11737 N 1071.3 0.499101 -2.86282 0
M  V30 11738 H 1070.85 -0.340056 -2.55346 0
M  V30 11739 H 1070.81 1.36641 -2.83155 0
M  V30 11740 N 1074.58 1.12322 -1.10551 0
M  V30 11741 C 1075.8 1.8822 -0.871093 0
M  V30 11742 C 1076.23 1.7916 0.573005 0
M  V30 11743 O 1075.59 1.14738 1.40374 0
M  V30 11744 C 1075.63 3.35349 -1.32565 0
M  V30 11745 O 1074.74 4.09461 -0.49145 0
M  V30 11746 H 1074.08 0.584787 -0.314516 0
M  V30 11747 H 1076.61 1.42039 -1.47262 0
M  V30 11748 H 1076.62 3.86189 -1.31612 0
M  V30 11749 H 1075.29 3.4126 -2.37728 0
M  V30 11750 H 1073.87 3.68575 -0.566294 0
M  V30 11751 N 1076.06 0.894434 1.2976 0
M  V30 11752 C 1077.31 0.513673 1.95049 0
M  V30 11753 C 1077.62 -0.943744 1.71327 0
M  V30 11754 O 1078.82 -1.43179 2.30678 0
M  V30 11755 C 1077.28 0.867751 3.49282 0
M  V30 11756 C 1076.89 2.34358 3.81812 0
M  V30 11757 C 1078.63 0.556645 4.20835 0
M  V30 11758 C 1076.54 2.63879 5.29265 0
M  V30 11759 H 1075.47 0.188375 0.73009 0
M  V30 11760 H 1078.12 1.09071 1.47566 0
M  V30 11761 H 1076.5 0.2197 3.9539 0
M  V30 11762 H 1077.68 3.03674 3.46581 0
M  V30 11763 H 1075.99 2.62318 3.23386 0
M  V30 11764 H 1078.59 0.754123 5.29355 0
M  V30 11765 H 1078.93 -0.504526 4.13231 0
M  V30 11766 H 1079.46 1.1623 3.80441 0
M  V30 11767 H 1076.2 3.68774 5.41928 0
M  V30 11768 H 1075.72 1.99182 5.65762 0
M  V30 11769 H 1077.4 2.49871 5.96803 0
M  V30 11770 N 1077.53 -1.43282 0.656365 0
M  V30 11771 C 1078.95 -1.85012 0.250475 0
M  V30 11772 C 1079.3 -1.54944 -1.20361 0
M  V30 11773 O 1078.42 -0.999983 -1.9191 0
M  V30 11774 C 1079.02 -3.35827 0.447815 0
M  V30 11775 C 1077.58 -3.76277 0.0962151 0
M  V30 11776 C 1076.72 -2.66988 0.749168 0
M  V30 11777 H 1079.67 -1.3339 0.85982 0
M  V30 11778 H 1079.69 -3.7927 -0.305726 0
M  V30 11779 H 1079.21 -3.5768 1.5062 0
M  V30 11780 H 1077.31 -3.60035 -0.959449 0
M  V30 11781 H 1077.42 -4.76227 0.523875 0
M  V30 11782 H 1075.78 -2.54048 0.18212 0
M  V30 11783 H 1076.57 -2.91669 1.81064 0
M  V30 11784 N 1079.01 -0.398486 -1.52479 0
M  V30 11785 C 1079.96 0.432212 -2.26717 0
M  V30 11786 C 1080.93 1.05007 -1.28696 0
M  V30 11787 O 1082.12 1.07636 -1.57541 0
M  V30 11788 C 1079.26 1.54868 -3.08399 0
M  V30 11789 C 1078.37 0.952779 -4.21362 0
M  V30 11790 C 1077.5 2.04106 -4.90423 0
M  V30 11791 C 1076.54 1.42153 -5.95364 0
M  V30 11792 N 1075.68 2.44951 -6.57984 0
M  V30 11793 H 1080.52 -0.207303 -2.97278 0
M  V30 11794 H 1078.06 -0.114066 -1.46657 0
M  V30 11795 H 1080.01 2.20684 -3.54054 0
M  V30 11796 H 1078.64 2.15837 -2.4003 0
M  V30 11797 H 1077.7 0.183962 -3.79955 0
M  V30 11798 H 1079.01 0.460131 -4.96673 0
M  V30 11799 H 1078.16 2.77672 -5.39429 0
M  V30 11800 H 1076.9 2.56733 -4.14656 0
M  V30 11801 H 1075.91 0.671161 -5.45688 0
M  V30 11802 H 1077.13 0.903093 -6.73068 0
M  V30 11803 H 1075.08 2.9673 -5.85053 0
M  V30 11804 H 1074.99 2.00468 -7.28937 0
M  V30 11805 H 1076.26 3.18119 -7.11632 0
M  V30 11806 N 1080.49 1.57075 -0.12858 0
M  V30 11807 C 1081.74 1.95134 0.526046 0
M  V30 11808 C 1082.06 1.01337 1.66601 0
M  V30 11809 O 1081.33 0.0714361 1.9577 0
M  V30 11810 H 1079.91 0.720468 0.19732 0
M  V30 11811 H 1082.57 1.93874 -0.199767 0
M  V30 11812 H 1081.67 2.98406 0.914332 0
M  V30 11813 N 1081.97 -0.145205 1.5693 0
M  V30 11814 C 1083.22 -0.857516 1.83447 0
M  V30 11815 C 1083.54 -1.81088 0.709739 0
M  V30 11816 O 1082.8 -1.9337 -0.301097 0
M  V30 11817 C 1083.1 -1.66391 3.16305 0
M  V30 11818 C 1082.76 -0.857171 4.42678 0
M  V30 11819 C 1081.43 -0.634611 4.76997 0
M  V30 11820 C 1083.78 -0.293105 5.20375 0
M  V30 11821 C 1081.11 0.162693 5.86474 0
M  V30 11822 C 1083.46 0.491248 6.3069 0
M  V30 11823 C 1082.12 0.724368 6.63558 0
M  V30 11824 H 1081.39 -0.313787 0.671281 0
M  V30 11825 H 1084.04 -0.121074 1.91117 0
M  V30 11826 H 1082.34 -2.47051 3.04094 0
M  V30 11827 H 1084.04 -2.21855 3.34038 0
M  V30 11828 H 1080.63 -1.0407 4.15773 0
M  V30 11829 H 1084.82 -0.452326 4.94234 0
M  V30 11830 H 1080.07 0.352788 6.10381 0
M  V30 11831 H 1084.25 0.935449 6.90089 0
M  V30 11832 H 1081.87 1.34403 7.48224 0
M  V30 11833 N 1083.45 -1.52049 -0.414609 0
M  V30 11834 C 1084.38 -1.69712 -1.52555 0
M  V30 11835 C 1085.36 -0.544681 -1.53206 0
M  V30 11836 O 1086.54 -0.771358 -1.71995 0
M  V30 11837 C 1083.67 -1.73145 -2.91099 0
M  V30 11838 C 1082.72 -2.94624 -3.08382 0
M  V30 11839 S 1083.55 -4.55062 -2.82274 0
M  V30 11840 C 1084.7 -4.61274 -4.23057 0
M  V30 11841 H 1084.94 -2.63675 -1.37342 0
M  V30 11842 H 1082.47 -1.42018 -0.605824 0
M  V30 11843 H 1084.43 -1.75808 -3.70947 0
M  V30 11844 H 1083.09 -0.803198 -3.03657 0
M  V30 11845 H 1082.28 -2.93492 -4.0973 0
M  V30 11846 H 1081.88 -2.8982 -2.36391 0
M  V30 11847 H 1084.18 -4.38313 -5.16612 0
M  V30 11848 H 1085.12 -5.63188 -4.29214 0
M  V30 11849 H 1085.53 -3.90361 -4.07773 0
M  V30 11850 N 1084.93 0.6715 -1.42579 0
M  V30 11851 C 1086.2 1.42766 -1.33706 0
M  V30 11852 C 1086.58 2.11086 0.0239748 0
M  V30 11853 O 1085.93 2.03479 1.03964 0
M  V30 11854 C 1086.14 2.42739 -2.50756 0
M  V30 11855 C 1087.49 3.07284 -2.93021 0
M  V30 11856 O 1088.51 2.53066 -2.50671 0
M  V30 11857 O 1087.37 4.05541 -3.66331 0
M  V30 11858 H 1084.47 0.636955 -0.527463 0
M  V30 11859 H 1087.01 0.699946 -1.54593 0
M  V30 11860 H 1085.78 1.91076 -3.41476 0
M  V30 11861 H 1085.41 3.22986 -2.31874 0
M  V30 11862 N 1086.4 1.28806 0.908124 0
M  V30 11863 C 1087.65 1.16058 1.65454 0
M  V30 11864 C 1087.97 -0.290057 1.92831 0
M  V30 11865 O 1087.24 -1.20001 1.54843 0
M  V30 11866 H 1085.82 0.426522 0.61326 0
M  V30 11867 H 1088.48 1.61614 1.08936 0
M  V30 11868 H 1087.58 1.70437 2.61453 0
M  V30 11869 N 1087.88 -1.11734 1.11145 0
M  V30 11870 C 1088.83 -2.17683 0.766979 0
M  V30 11871 C 1089.8 -1.64051 -0.260108 0
M  V30 11872 O 1090.98 -1.90302 -0.137723 0
M  V30 11873 C 1088.12 -3.44442 0.212982 0
M  V30 11874 C 1087.24 -4.12094 1.29626 0
M  V30 11875 C 1086.37 -5.26526 0.703127 0
M  V30 11876 C 1085.41 -5.86057 1.76647 0
M  V30 11877 N 1084.55 -6.91889 1.19306 0
M  V30 11878 H 1089.39 -2.46495 1.67465 0
M  V30 11879 H 1086.92 -1.21011 0.836353 0
M  V30 11880 H 1088.88 -4.17009 -0.126162 0
M  V30 11881 H 1087.51 -3.16025 -0.657888 0
M  V30 11882 H 1086.56 -3.37631 1.75241 0
M  V30 11883 H 1087.88 -4.52398 2.10089 0
M  V30 11884 H 1087.03 -6.05888 0.313859 0
M  V30 11885 H 1085.77 -4.87519 -0.132856 0
M  V30 11886 H 1084.77 -5.05375 2.16508 0
M  V30 11887 H 1086 -6.27132 2.60543 0
M  V30 11888 H 1083.95 -6.54906 0.378664 0
M  V30 11889 H 1083.86 -7.30832 1.93443 0
M  V30 11890 H 1085.13 -7.75062 0.830578 0
M  V30 11891 N 1089.36 -0.901303 -1.29284 0
M  V30 11892 C 1090.29 -0.337552 -2.26701 0
M  V30 11893 C 1091.3 0.517039 -1.54371 0
M  V30 11894 O 1092.49 0.333937 -1.75349 0
M  V30 11895 C 1089.59 0.537214 -3.34615 0
M  V30 11896 C 1088.77 -0.292017 -4.36424 0
M  V30 11897 C 1087.83 0.515837 -5.23666 0
M  V30 11898 O 1086.85 -0.0672303 -5.6916 0
M  V30 11899 N 1088.05 1.82159 -5.51179 0
M  V30 11900 H 1090.82 -1.17484 -2.75713 0
M  V30 11901 H 1088.38 -0.765957 -1.42635 0
M  V30 11902 H 1090.37 1.0841 -3.8991 0
M  V30 11903 H 1088.94 1.2752 -2.85408 0
M  V30 11904 H 1088.16 -1.02031 -3.80767 0
M  V30 11905 H 1089.45 -0.859855 -5.01482 0
M  V30 11906 H 1088.85 2.318 -5.16028 0
M  V30 11907 H 1087.4 2.31556 -6.09282 0
M  V30 11908 N 1090.84 1.42931 -0.663954 0
M  V30 11909 C 1091.8 2.29197 0.0117626 0
M  V30 11910 C 1092.8 1.42767 0.739875 0
M  V30 11911 O 1093.99 1.64278 0.579509 0
M  V30 11912 C 1091.12 3.2505 1.02738 0
M  V30 11913 H 1092.32 2.90438 -0.747391 0
M  V30 11914 H 1089.87 1.5039 -0.425733 0
M  V30 11915 H 1090.6 2.68726 1.8154 0
M  V30 11916 H 1090.39 3.88785 0.508809 0
M  V30 11917 H 1091.88 3.89771 1.49893 0
M  V30 11918 N 1092.32 0.406567 1.52266 0
M  V30 11919 C 1093.56 -0.169611 2.03695 0
M  V30 11920 C 1093.92 -1.42596 1.2857 0
M  V30 11921 O 1095.12 -2.08041 1.70212 0
M  V30 11922 C 1093.39 -0.413924 3.54995 0
M  V30 11923 S 1094.95 -0.957916 4.28217 0
M  V30 11924 H 1091.77 -0.0462362 0.709495 0
M  V30 11925 H 1094.37 0.558895 1.87341 0
M  V30 11926 H 1093.07 0.507285 4.07253 0
M  V30 11927 H 1092.61 -1.17038 3.75587 0
M  V30 11928 H 1094.62 -2.2387 4.42828 0
M  V30 11929 N 1093.79 -1.57004 0.136909 0
M  V30 11930 C 1095.04 -1.96087 -0.517477 0
M  V30 11931 C 1095.37 -1.0213 -1.65176 0
M  V30 11932 O 1094.65 -0.0617958 -1.94402 0
M  V30 11933 C 1094.93 -3.44958 -1.03323 0
M  V30 11934 C 1094.78 -4.49691 0.0988609 0
M  V30 11935 C 1096.1 -3.96091 -1.91832 0
M  V30 11936 H 1093.22 -0.712978 -0.186632 0
M  V30 11937 H 1095.86 -1.88767 0.216095 0
M  V30 11938 H 1094.01 -3.51327 -1.65836 0
M  V30 11939 H 1095.69 -4.55409 0.734847 0
M  V30 11940 H 1093.93 -4.271 0.75947 0
M  V30 11941 H 1094.6 -5.51165 -0.303554 0
M  V30 11942 H 1097.08 -3.92139 -1.39164 0
M  V30 11943 H 1095.95 -5.00742 -2.24831 0
M  V30 11944 H 1096.21 -3.37846 -2.85153 0
M  V30 11945 N 1095.27 0.136881 -1.57004 0
M  V30 11946 C 1096.2 1.17026 -2.02057 0
M  V30 11947 C 1097.18 1.44223 -0.901866 0
M  V30 11948 O 1098.37 1.54971 -1.17037 0
M  V30 11949 C 1095.5 2.50095 -2.40977 0
M  V30 11950 C 1094.45 2.37398 -3.56127 0
M  V30 11951 C 1093.78 3.75268 -3.80891 0
M  V30 11952 C 1095.08 1.84952 -4.88457 0
M  V30 11953 H 1096.77 0.795601 -2.88636 0
M  V30 11954 H 1094.32 0.381266 -1.38861 0
M  V30 11955 H 1096.27 3.22621 -2.71097 0
M  V30 11956 H 1095 2.89416 -1.51348 0
M  V30 11957 H 1093.65 1.67322 -3.26188 0
M  V30 11958 H 1093.3 4.12043 -2.88496 0
M  V30 11959 H 1093 3.67631 -4.5839 0
M  V30 11960 H 1094.53 4.49327 -4.13446 0
M  V30 11961 H 1095.94 2.4728 -5.17229 0
M  V30 11962 H 1094.34 1.88181 -5.69832 0
M  V30 11963 H 1095.41 0.805848 -4.78157 0
M  V30 11964 N 1096.75 1.52266 0.40654 0
M  V30 11965 C 1097.68 1.70519 1.51653 0
M  V30 11966 C 1098.66 0.552798 1.52915 0
M  V30 11967 O 1099.85 0.780468 1.71584 0
M  V30 11968 C 1096.97 1.74686 2.90176 0
M  V30 11969 C 1096.02 2.96255 3.06815 0
M  V30 11970 S 1096.85 4.56553 2.79856 0
M  V30 11971 C 1098.01 4.63511 4.20605 0
M  V30 11972 H 1098.24 2.64399 1.35942 0
M  V30 11973 H 1095.77 1.42337 0.598284 0
M  V30 11974 H 1097.73 1.77773 3.7001 0
M  V30 11975 H 1096.39 0.819291 3.03227 0
M  V30 11976 H 1095.59 2.95661 4.08167 0
M  V30 11977 H 1095.19 2.91069 2.34851 0
M  V30 11978 H 1097.48 4.41047 5.1428 0
M  V30 11979 H 1098.42 5.65456 4.26222 0
M  V30 11980 H 1098.83 3.92518 4.05697 0
M  V30 11981 N 1098.23 -0.663929 1.42933 0
M  V30 11982 C 1099.48 -1.41973 1.43271 0
M  V30 11983 C 1099.79 -1.95518 0.0566103 0
M  V30 11984 O 1101 -2.71428 -0.0625862 0
M  V30 11985 C 1099.45 -2.56882 2.52071 0
M  V30 11986 C 1099.06 -2.0999 3.95737 0
M  V30 11987 C 1100.8 -3.34322 2.61589 0
M  V30 11988 C 1098.71 -3.22046 4.96025 0
M  V30 11989 H 1097.64 -0.5334 0.532917 0
M  V30 11990 H 1100.29 -0.717709 1.68882 0
M  V30 11991 H 1098.67 -3.29504 2.19643 0
M  V30 11992 H 1099.85 -1.44449 4.37574 0
M  V30 11993 H 1098.16 -1.45459 3.90168 0
M  V30 11994 H 1100.76 -4.17796 3.33692 0
M  V30 11995 H 1101.1 -3.8164 1.66302 0
M  V30 11996 H 1101.64 -2.68775 2.93266 0
M  V30 11997 H 1098.38 -2.79708 5.92827 0
M  V30 11998 H 1097.9 -3.86333 4.5881 0
M  V30 11999 H 1099.57 -3.87345 5.1824 0
M  V30 12000 N 1099.71 -1.29285 -0.901281 0
M  V30 12001 C 1100.65 -1.1428 -2.00521 0
M  V30 12002 C 1101.62 -0.0365428 -1.6606 0
M  V30 12003 O 1102.81 -0.203771 -1.89709 0
M  V30 12004 C 1099.95 -0.823671 -3.35126 0
M  V30 12005 C 1099.06 -2.01021 -3.8238 0
M  V30 12006 C 1098.2 -1.6306 -5.05554 0
M  V30 12007 C 1097.24 -2.78304 -5.45173 0
M  V30 12008 N 1096.37 -2.4075 -6.59533 0
M  V30 12009 H 1101.21 -2.08729 -2.12688 0
M  V30 12010 H 1098.75 -1.0387 -1.04161 0
M  V30 12011 H 1100.71 -0.61934 -4.12577 0
M  V30 12012 H 1099.34 0.0839113 -3.22691 0
M  V30 12013 H 1098.39 -2.32629 -3.00978 0
M  V30 12014 H 1099.7 -2.8738 -4.07694 0
M  V30 12015 H 1098.86 -1.38906 -5.90584 0
M  V30 12016 H 1097.59 -0.738464 -4.82077 0
M  V30 12017 H 1096.6 -3.03142 -4.58678 0
M  V30 12018 H 1097.82 -3.68179 -5.70632 0
M  V30 12019 H 1095.77 -1.54022 -6.37662 0
M  V30 12020 H 1095.69 -3.20643 -6.84634 0
M  V30 12021 H 1096.96 -2.19912 -7.47836 0
M  V30 12022 N 1101.18 1.11143 -1.11736 0
M  V30 12023 C 1102.15 2.15456 -0.78174 0
M  V30 12024 C 1103.15 1.59547 0.200383 0
M  V30 12025 O 1104.34 1.74183 -0.0244893 0
M  V30 12026 C 1101.47 3.40523 -0.160364 0
M  V30 12027 H 1102.66 2.46658 -1.70586 0
M  V30 12028 H 1100.22 1.26381 -0.919644 0
M  V30 12029 H 1100.95 3.14932 0.773835 0
M  V30 12030 H 1100.74 3.82386 -0.867378 0
M  V30 12031 H 1102.23 4.17559 0.0582175 0
M  V30 12032 N 1102.66 0.908147 1.28804 0
M  V30 12033 C 1103.59 0.409106 2.29888 0
M  V30 12034 C 1104.57 -0.520338 1.61946 0
M  V30 12035 O 1105.76 -0.429268 1.89396 0
M  V30 12036 C 1102.89 -0.35669 3.45463 0
M  V30 12037 C 1101.84 0.4831 4.25265 0
M  V30 12038 C 1101.17 -0.4107 5.3312 0
M  V30 12039 C 1102.47 1.73744 4.92555 0
M  V30 12040 H 1104.16 1.25386 2.7188 0
M  V30 12041 H 1101.71 0.604368 1.30703 0
M  V30 12042 H 1103.66 -0.71661 4.15262 0
M  V30 12043 H 1102.39 -1.2353 3.02337 0
M  V30 12044 H 1101.04 0.825464 3.57186 0
M  V30 12045 H 1100.69 -1.28769 4.86238 0
M  V30 12046 H 1100.39 0.14756 5.87415 0
M  V30 12047 H 1101.92 -0.766626 6.05768 0
M  V30 12048 H 1103.33 1.44676 5.54745 0
M  V30 12049 H 1101.73 2.23767 5.5682 0
M  V30 12050 H 1102.8 2.46853 4.17363 0
M  V30 12051 N 1104.14 -1.42577 0.671525 0
M  V30 12052 C 1105.05 -2.34598 -0.00898225 0
M  V30 12053 C 1106.07 -1.54909 -0.792407 0
M  V30 12054 O 1107.24 -1.87491 -0.735477 0
M  V30 12055 C 1104.31 -3.33405 -0.950888 0
M  V30 12056 C 1103.37 -4.28993 -0.16236 0
M  V30 12057 C 1102.6 -5.2308 -1.0594 0
M  V30 12058 O 1102.82 -5.22022 -2.2989 0
M  V30 12059 O 1101.76 -5.99632 -0.521966 0
M  V30 12060 H 1105.58 -2.94321 0.748927 0
M  V30 12061 H 1103.17 -1.43025 0.43175 0
M  V30 12062 H 1105.05 -3.94115 -1.49169 0
M  V30 12063 H 1103.73 -2.7616 -1.68871 0
M  V30 12064 H 1102.63 -3.71707 0.42247 0
M  V30 12065 H 1103.97 -4.8927 0.536274 0
M  V30 12066 N 1105.62 -0.414636 -1.52048 0
M  V30 12067 C 1106.55 0.399119 -2.30064 0
M  V30 12068 C 1107.53 1.04126 -1.34506 0
M  V30 12069 O 1108.71 1.04923 -1.63416 0
M  V30 12070 C 1105.84 1.51305 -3.12608 0
M  V30 12071 C 1104.8 0.995621 -4.16259 0
M  V30 12072 C 1104.12 2.20357 -4.87183 0
M  V30 12073 C 1105.42 0.0458178 -5.2228 0
M  V30 12074 H 1107.12 -0.251879 -2.98339 0
M  V30 12075 H 1104.66 -0.122579 -1.43477 0
M  V30 12076 H 1106.62 2.08936 -3.65956 0
M  V30 12077 H 1105.34 2.19201 -2.42113 0
M  V30 12078 H 1104 0.441676 -3.6393 0
M  V30 12079 H 1103.65 2.8682 -4.13211 0
M  V30 12080 H 1103.35 1.86385 -5.57256 0
M  V30 12081 H 1104.87 2.78584 -5.43345 0
M  V30 12082 H 1106.29 0.531102 -5.70835 0
M  V30 12083 H 1104.68 -0.20536 -5.99749 0
M  V30 12084 H 1105.75 -0.897807 -4.76516 0
M  V30 12085 N 1107.1 1.56929 -0.145233 0
M  V30 12086 C 1108.37 1.8767 0.551288 0
M  V30 12087 C 1108.75 1.05089 1.83083 0
M  V30 12088 O 1108.1 0.137201 2.28088 0
M  V30 12089 C 1108.31 3.39268 0.818445 0
M  V30 12090 C 1109.66 4.08447 1.16 0
M  V30 12091 O 1110.68 3.44436 0.907857 0
M  V30 12092 O 1109.54 5.21488 1.63441 0
M  V30 12093 H 1106.64 0.777788 0.281024 0
M  V30 12094 H 1109.18 1.68724 -0.181712 0
M  V30 12095 H 1107.95 3.91203 -0.0871897 0
M  V30 12096 H 1107.58 3.63735 1.60569 0
M  V30 12097 N 1108.58 -0.128553 1.57075 0
M  V30 12098 C 1109.8 -0.8564 1.88893 0
M  V30 12099 C 1110.23 -1.73095 0.736196 0
M  V30 12100 O 1109.58 -1.78567 -0.313629 0
M  V30 12101 C 1109.63 -1.67368 3.19406 0
M  V30 12102 O 1108.74 -2.77973 3.04639 0
M  V30 12103 H 1108.08 -0.237424 0.620102 0
M  V30 12104 H 1110.61 -0.113821 2.04283 0
M  V30 12105 H 1110.62 -2.0649 3.51889 0
M  V30 12106 H 1109.29 -1.03161 4.02903 0
M  V30 12107 H 1107.87 -2.42123 2.83603 0
M  V30 12108 N 1110.05 -1.5248 -0.398459 0
M  V30 12109 C 1111 -1.77211 -1.50662 0
M  V30 12110 C 1112 -0.639638 -1.5686 0
M  V30 12111 O 1113.2 -0.821917 -1.60139 0
M  V30 12112 H 1109.58 -0.56057 -0.501264 0
M  V30 12113 H 1111.55 -2.70028 -1.26993 0
M  V30 12114 C 1110.3 -1.94944 -2.8791 0
M  V30 12115 H 1109.62 -2.8151 -2.83888 0
M  V30 12116 H 1111.06 -2.16243 -3.64712 0
M  V30 12117 C 1109.52 -0.719402 -3.29129 0
M  V30 12118 O 1110.05 0.107671 -4.01556 0
M  V30 12119 N 1108.25 -0.552228 -2.85305 0
M  V30 12120 H 1107.8 -1.22638 -2.26534 0
M  V30 12121 H 1107.76 0.269447 -3.13243 0
M  V30 12122 N 1111.53 0.65634 -1.43283 0
M  V30 12123 C 1112.46 1.78101 -1.51004 0
M  V30 12124 C 1113.44 1.66138 -0.36498 0
M  V30 12125 O 1114.63 1.85281 -0.581778 0
M  V30 12126 C 1111.76 3.16511 -1.42961 0
M  V30 12127 C 1110.71 3.43233 -2.55685 0
M  V30 12128 C 1110.04 4.81411 -2.32696 0
M  V30 12129 C 1111.34 3.38288 -3.97943 0
M  V30 12130 H 1113.03 1.71896 -2.45137 0
M  V30 12131 H 1110.58 0.825575 -1.17984 0
M  V30 12132 H 1112.53 3.94941 -1.46968 0
M  V30 12133 H 1111.25 3.23439 -0.45332 0
M  V30 12134 H 1109.91 2.67173 -2.51026 0
M  V30 12135 H 1109.56 4.85011 -1.33317 0
M  V30 12136 H 1109.26 5.00251 -3.08257 0
M  V30 12137 H 1110.79 5.62102 -2.38481 0
M  V30 12138 H 1112.2 4.06659 -4.04106 0
M  V30 12139 H 1110.6 3.68664 -4.73505 0
M  V30 12140 H 1111.67 2.36525 -4.23301 0
M  V30 12141 N 1113.01 1.29761 0.894412 0
M  V30 12142 C 1114.24 1.20765 1.67629 0
M  V30 12143 C 1114.65 -0.233434 1.87754 0
M  V30 12144 O 1113.99 -1.16747 1.4183 0
M  V30 12145 C 1114.05 1.85542 3.07919 0
M  V30 12146 C 1113.72 3.34852 3.11004 0
M  V30 12147 C 1114.71 4.30994 2.90758 0
M  V30 12148 C 1112.4 3.76141 3.32901 0
M  V30 12149 C 1114.39 5.664 2.92352 0
M  V30 12150 C 1112.08 5.11667 3.34126 0
M  V30 12151 C 1113.08 6.06607 3.13874 0
M  V30 12152 O 1112.77 7.39659 3.14897 0
M  V30 12153 H 1112.5 0.419418 0.530155 0
M  V30 12154 H 1115.05 1.71754 1.12648 0
M  V30 12155 H 1113.28 1.29071 3.64524 0
M  V30 12156 H 1114.97 1.70795 3.68217 0
M  V30 12157 H 1115.74 4.00427 2.73648 0
M  V30 12158 H 1111.62 3.02694 3.47703 0
M  V30 12159 H 1115.16 6.40479 2.76464 0
M  V30 12160 H 1111.06 5.41877 3.50769 0
M  V30 12161 H 1111.82 7.4853 3.31127 0
M  V30 12162 N 1114.49 -1.10549 1.12324 0
M  V30 12163 C 1115.9 -1.34508 0.85905 0
M  V30 12164 C 1116.1 -1.94901 -0.511468 0
M  V30 12165 O 1115.16 -2.18793 -1.2604 0
M  V30 12166 C 1116.47 -2.26788 1.97453 0
M  V30 12167 C 1118.02 -2.40328 2.00528 0
M  V30 12168 C 1118.5 -3.35936 3.11305 0
M  V30 12169 N 1119.99 -3.43504 3.1074 0
M  V30 12170 C 1120.72 -4.17449 3.93096 0
M  V30 12171 N 1120.22 -4.9429 4.85437 0
M  V30 12172 N 1122.01 -4.13055 3.81237 0
M  V30 12173 H 1114.16 -0.697171 2.00632 0
M  V30 12174 H 1116.42 -0.369548 0.873005 0
M  V30 12175 H 1116.13 -1.89621 2.96204 0
M  V30 12176 H 1116 -3.27086 1.87869 0
M  V30 12177 H 1118.39 -2.76765 1.02397 0
M  V30 12178 H 1118.47 -1.39849 2.14186 0
M  V30 12179 H 1118.12 -3.00225 4.09667 0
M  V30 12180 H 1118.05 -4.36291 2.94886 0
M  V30 12181 H 1120.54 -2.88702 2.43843 0
M  V30 12182 H 1120.85 -5.48109 5.4479 0
M  V30 12183 H 1119.2 -4.93419 4.89452 0
M  V30 12184 H 1122.39 -3.52117 3.08433 0
M  V30 12185 H 1122.56 -4.70424 4.45651 0
M  V30 12186 N 1115.97 -0.914965 -1.28321 0
M  V30 12187 C 1117.21 -0.544639 -1.94208 0
M  V30 12188 C 1117.53 0.916368 -1.72806 0
M  V30 12189 O 1118.73 1.39491 -2.32926 0
M  V30 12190 C 1117.19 -0.923209 -3.47858 0
M  V30 12191 C 1116.8 -2.40403 -3.78035 0
M  V30 12192 C 1118.54 -0.623526 -4.19896 0
M  V30 12193 C 1116.45 -2.72266 -5.25 0
M  V30 12194 H 1115.38 -0.199966 -0.727 0
M  V30 12195 H 1118.03 -1.11405 -1.45812 0
M  V30 12196 H 1116.41 -0.282576 -3.94991 0
M  V30 12197 H 1117.59 -3.09149 -3.41706 0
M  V30 12198 H 1115.9 -2.67429 -3.19172 0
M  V30 12199 H 1118.5 -0.838243 -5.28089 0
M  V30 12200 H 1118.84 0.438721 -4.13982 0
M  V30 12201 H 1119.37 -1.22268 -3.78544 0
M  V30 12202 H 1116.11 -3.77349 -5.35993 0
M  V30 12203 H 1115.63 -2.08157 -5.62522 0
M  V30 12204 H 1117.31 -2.59334 -5.92752 0
M  V30 12205 N 1117.44 1.42219 -0.679077 0
M  V30 12206 C 1118.69 2.01081 -0.202718 0
M  V30 12207 C 1119.01 1.53986 1.19639 0
M  V30 12208 O 1118.28 0.763359 1.80415 0
M  V30 12209 H 1116.86 0.743526 -0.0719547 0
M  V30 12210 H 1119.52 1.74077 -0.876544 0
M  V30 12211 H 1118.62 3.11411 -0.207314 0
M  V30 12212 N 1118.92 0.422693 1.51826 0
M  V30 12213 C 1119.85 -0.43167 2.25098 0
M  V30 12214 C 1120.87 -0.998758 1.28564 0
M  V30 12215 O 1122.06 -0.89539 1.54418 0
M  V30 12216 C 1119.16 -1.61426 2.97985 0
M  V30 12217 C 1118.33 -1.16866 4.21499 0
M  V30 12218 C 1117.39 -2.2197 4.77091 0
M  V30 12219 O 1116.41 -1.82004 5.39317 0
M  V30 12220 N 1117.62 -3.54293 4.59844 0
M  V30 12221 H 1120.38 0.196255 2.99057 0
M  V30 12222 H 1117.94 0.25079 1.59946 0
M  V30 12223 H 1119.93 -2.31331 3.32066 0
M  V30 12224 H 1118.5 -2.14783 2.27128 0
M  V30 12225 H 1117.72 -0.297217 3.93078 0
M  V30 12226 H 1119.01 -0.848106 5.01682 0
M  V30 12227 H 1118.41 -3.89505 4.10247 0
M  V30 12228 H 1116.97 -4.20135 4.98327 0
M  V30 12229 N 1120.4 -1.5685 0.153553 0
M  V30 12230 C 1121.62 -2.01135 -0.505904 0
M  V30 12231 C 1122.05 -1.03301 -1.57196 0
M  V30 12232 O 1121.41 -0.00976022 -1.81297 0
M  V30 12233 C 1121.46 -3.44129 -1.0774 0
M  V30 12234 O 1120.56 -3.49318 -2.19205 0
M  V30 12235 H 1119.9 -0.652496 -0.123062 0
M  V30 12236 H 1122.43 -2.03039 0.252216 0
M  V30 12237 H 1122.44 -3.83066 -1.40444 0
M  V30 12238 H 1121.12 -4.1484 -0.296754 0
M  V30 12239 H 1119.69 -3.22227 -1.8768 0
M  V30 12240 N 1121.88 0.120221 -1.57141 0
M  V30 12241 C 1122.82 1.14751 -2.00252 0
M  V30 12242 C 1123.79 1.41217 -0.874462 0
M  V30 12243 O 1124.98 1.53104 -1.13859 0
M  V30 12244 C 1122.12 2.46923 -2.41087 0
M  V30 12245 C 1121.23 2.27403 -3.67303 0
M  V30 12246 C 1120.37 3.52797 -3.97125 0
M  V30 12247 C 1119.41 3.28429 -5.16528 0
M  V30 12248 N 1118.54 4.46022 -5.42226 0
M  V30 12249 H 1123.38 0.772884 -2.87803 0
M  V30 12250 H 1120.92 0.370137 -1.42367 0
M  V30 12251 H 1122.88 3.24025 -2.62799 0
M  V30 12252 H 1121.51 2.82281 -1.5658 0
M  V30 12253 H 1120.56 1.41224 -3.53214 0
M  V30 12254 H 1121.87 2.05373 -4.54558 0
M  V30 12255 H 1121.03 4.38318 -4.19479 0
M  V30 12256 H 1119.77 3.77857 -3.08343 0
M  V30 12257 H 1118.77 2.41299 -4.94019 0
M  V30 12258 H 1120 3.0474 -6.06886 0
M  V30 12259 H 1117.94 4.71205 -4.56401 0
M  V30 12260 H 1117.86 4.27092 -6.23802 0
M  V30 12261 H 1119.13 5.3268 -5.69098 0
M  V30 12262 N 1123.36 1.52689 0.390367 0
M  V30 12263 C 1124.6 1.67914 1.13722 0
M  V30 12264 C 1124.94 0.417159 1.89667 0
M  V30 12265 O 1124.21 -0.585005 1.85494 0
M  V30 12266 C 1124.49 2.91331 2.11656 0
M  V30 12267 C 1124.35 4.27626 1.39484 0
M  V30 12268 C 1125.67 3.10293 3.12099 0
M  V30 12269 H 1122.78 0.611047 0.412057 0
M  V30 12270 H 1125.43 1.85283 0.420753 0
M  V30 12271 H 1123.58 2.76654 2.72754 0
M  V30 12272 H 1125.25 4.54068 0.813607 0
M  V30 12273 H 1123.49 4.28169 0.69669 0
M  V30 12274 H 1124.16 5.10066 2.11038 0
M  V30 12275 H 1126.64 3.23992 2.6109 0
M  V30 12276 H 1125.51 3.98127 3.7787 0
M  V30 12277 H 1125.78 2.24448 3.80888 0
M  V30 12278 N 1124.83 -0.648732 1.43629 0
M  V30 12279 C 1126.08 -1.40857 1.45483 0
M  V30 12280 C 1126.41 -1.94332 0.0807963 0
M  V30 12281 O 1125.66 -1.72999 -0.914875 0
M  V30 12282 C 1125.96 -2.60394 2.44806 0
M  V30 12283 C 1125.63 -2.25311 3.90571 0
M  V30 12284 C 1124.29 -2.15456 4.3027 0
M  V30 12285 C 1126.64 -1.97307 4.8241 0
M  V30 12286 C 1123.97 -1.75759 5.59755 0
M  V30 12287 C 1126.32 -1.59108 6.12264 0
M  V30 12288 C 1124.99 -1.47781 6.50936 0
M  V30 12289 H 1124.26 -0.515434 0.532362 0
M  V30 12290 H 1126.9 -0.737339 1.76736 0
M  V30 12291 H 1125.21 -3.3267 2.06973 0
M  V30 12292 H 1126.91 -3.18609 2.43494 0
M  V30 12293 H 1123.5 -2.33894 3.59154 0
M  V30 12294 H 1127.68 -2.0384 4.52507 0
M  V30 12295 H 1122.94 -1.65579 5.88552 0
M  V30 12296 H 1127.11 -1.36472 6.82897 0
M  V30 12297 H 1124.74 -1.16792 7.51175 0
M  V30 12298 N 1126.31 -1.30234 -0.887518 0
M  V30 12299 C 1127.56 -1.1891 -1.6391 0
M  V30 12300 C 1127.89 0.256749 -1.92798 0
M  V30 12301 O 1127.14 1.20047 -1.54555 0
M  V30 12302 C 1127.44 -1.96046 -2.98832 0
M  V30 12303 C 1127.11 -3.45683 -2.89507 0
M  V30 12304 C 1125.77 -3.86489 -2.8667 0
M  V30 12305 C 1128.12 -4.40983 -2.7782 0
M  V30 12306 C 1125.45 -5.2089 -2.69982 0
M  V30 12307 C 1127.8 -5.75489 -2.6267 0
M  V30 12308 C 1126.47 -6.15537 -2.58207 0
M  V30 12309 H 1125.74 -0.435123 -0.599791 0
M  V30 12310 H 1128.38 -1.61308 -1.03209 0
M  V30 12311 H 1126.69 -1.46275 -3.6347 0
M  V30 12312 H 1128.38 -1.84678 -3.55942 0
M  V30 12313 H 1124.97 -3.13255 -2.92523 0
M  V30 12314 H 1129.16 -4.10401 -2.79079 0
M  V30 12315 H 1124.41 -5.51014 -2.6494 0
M  V30 12316 H 1128.59 -6.48973 -2.526 0
M  V30 12317 H 1126.22 -7.19627 -2.45034 0
M  V30 12318 N 1127.79 1.09952 -1.12909 0
M  V30 12319 C 1129.21 1.34051 -0.866172 0
M  V30 12320 C 1129.41 1.95169 0.501125 0
M  V30 12321 O 1128.46 2.19458 1.24878 0
M  V30 12322 C 1129.78 2.25738 -1.98653 0
M  V30 12323 C 1131.32 2.39261 -2.01799 0
M  V30 12324 C 1131.8 3.3428 -3.13083 0
M  V30 12325 N 1133.29 3.41851 -3.12558 0
M  V30 12326 C 1134.02 4.15358 -3.95304 0
M  V30 12327 N 1133.52 4.91709 -4.88051 0
M  V30 12328 N 1135.31 4.11027 -3.83423 0
M  V30 12329 H 1127.46 0.686521 -2.00999 0
M  V30 12330 H 1129.73 0.364913 -0.874953 0
M  V30 12331 H 1129.43 1.88048 -2.97205 0
M  V30 12332 H 1129.31 3.26085 -1.89601 0
M  V30 12333 H 1131.69 2.76218 -1.03864 0
M  V30 12334 H 1131.78 1.38712 -2.14925 0
M  V30 12335 H 1131.42 2.98048 -4.11254 0
M  V30 12336 H 1131.35 4.34721 -2.97195 0
M  V30 12337 H 1133.84 2.87405 -2.45371 0
M  V30 12338 H 1134.15 5.45212 -5.47689 0
M  V30 12339 H 1132.5 4.90816 -4.92061 0
M  V30 12340 H 1135.69 3.50477 -3.10296 0
M  V30 12341 H 1135.86 4.68054 -4.4814 0
M  V30 12342 N 1129.27 0.921757 1.27833 0
M  V30 12343 C 1130.23 0.420978 2.25301 0
M  V30 12344 C 1131.23 -0.457158 1.54165 0
M  V30 12345 O 1132.42 -0.259079 1.72263 0
M  V30 12346 C 1129.55 -0.395501 3.38598 0
M  V30 12347 H 1130.75 1.28206 2.71115 0
M  V30 12348 H 1128.3 0.701893 1.39654 0
M  V30 12349 H 1129.03 -1.27565 2.98157 0
M  V30 12350 H 1128.82 0.234029 3.91401 0
M  V30 12351 H 1130.31 -0.736444 4.11055 0
M  V30 12352 N 1130.75 -1.41857 0.686609 0
M  V30 12353 C 1131.99 -2.0097 0.213378 0
M  V30 12354 C 1132.32 -1.54618 -1.1882 0
M  V30 12355 O 1131.59 -0.772916 -1.80008 0
M  V30 12356 H 1130.17 -0.743134 0.0758968 0
M  V30 12357 H 1132.83 -1.73609 0.885763 0
M  V30 12358 H 1131.92 -3.11296 0.223826 0
M  V30 12359 N 1132.22 -0.430739 -1.51599 0
M  V30 12360 C 1133.47 0.138133 -2.02329 0
M  V30 12361 C 1133.8 1.42934 -1.31466 0
M  V30 12362 O 1133.08 1.89743 -0.427551 0
M  V30 12363 C 1133.36 0.363677 -3.58259 0
M  V30 12364 C 1133.21 -0.94572 -4.39746 0
M  V30 12365 C 1134.53 1.13637 -4.25176 0
M  V30 12366 H 1131.65 0.0487287 -0.735387 0
M  V30 12367 H 1134.29 -0.568444 -1.81297 0
M  V30 12368 H 1132.44 0.965552 -3.7631 0
M  V30 12369 H 1134.12 -1.58107 -4.33359 0
M  V30 12370 H 1132.36 -1.55183 -4.05094 0
M  V30 12371 H 1133.03 -0.742031 -5.4699 0
M  V30 12372 H 1135.51 0.626608 -4.11355 0
M  V30 12373 H 1134.38 1.26294 -5.34173 0
M  V30 12374 H 1134.64 2.16273 -3.85588 0
M  V30 12375 N 1133.7 1.56767 -0.161869 0
M  V30 12376 C 1134.63 2.20511 0.767918 0
M  V30 12377 C 1135.61 1.15783 1.24612 0
M  V30 12378 O 1136.8 1.44179 1.301 0
M  V30 12379 C 1133.93 2.83844 2.00125 0
M  V30 12380 C 1132.88 3.94528 1.65926 0
M  V30 12381 C 1132.21 4.44866 2.96646 0
M  V30 12382 C 1133.51 5.14583 0.894497 0
M  V30 12383 H 1135.2 2.98464 0.236607 0
M  V30 12384 H 1132.75 1.43561 0.112363 0
M  V30 12385 H 1134.7 3.27109 2.65664 0
M  V30 12386 H 1133.43 2.03246 2.55654 0
M  V30 12387 H 1132.08 3.51904 1.02759 0
M  V30 12388 H 1131.73 3.61071 3.50196 0
M  V30 12389 H 1131.43 5.19531 2.74521 0
M  V30 12390 H 1132.96 4.90812 3.6323 0
M  V30 12391 H 1134.37 5.54601 1.45228 0
M  V30 12392 H 1132.77 5.95105 0.772636 0
M  V30 12393 H 1133.84 4.84773 -0.110986 0
M  V30 12394 N 1135.18 -0.111886 1.57202 0
M  V30 12395 C 1136.14 -1.12101 1.99915 0
M  V30 12396 C 1137.14 -1.33906 0.890272 0
M  V30 12397 O 1138.33 -1.30303 1.15615 0
M  V30 12398 C 1135.47 -2.47392 2.34543 0
M  V30 12399 H 1136.66 -0.753736 2.90274 0
M  V30 12400 H 1134.21 -0.35641 1.52182 0
M  V30 12401 H 1134.95 -2.89026 1.47086 0
M  V30 12402 H 1134.73 -2.32917 3.15423 0
M  V30 12403 H 1136.22 -3.20004 2.68304 0
M  V30 12404 N 1136.66 -1.52894 -0.382264 0
M  V30 12405 C 1137.61 -1.74531 -1.46707 0
M  V30 12406 C 1138.59 -0.599499 -1.49315 0
M  V30 12407 O 1139.78 -0.857577 -1.54837 0
M  V30 12408 C 1136.91 -1.92366 -2.84342 0
M  V30 12409 C 1136 -3.12899 -2.86278 0
M  V30 12410 N 1136.39 -4.35125 -2.57876 0
M  V30 12411 C 1134.69 -3.13282 -3.17444 0
M  V30 12412 C 1135.39 -5.16769 -2.67066 0
M  V30 12413 N 1134.37 -4.52606 -3.0108 0
M  V30 12414 H 1138.17 -2.66653 -1.23585 0
M  V30 12415 H 1135.68 -1.51292 -0.590286 0
M  V30 12416 H 1137.68 -2.0599 -3.62455 0
M  V30 12417 H 1136.34 -1.01461 -3.08441 0
M  V30 12418 H 1137.35 -4.63143 -2.31774 0
M  V30 12419 H 1134.03 -2.32211 -3.46964 0
M  V30 12420 H 1135.42 -6.24219 -2.48595 0
M  V30 12421 N 1138.14 0.641106 -1.43971 0
M  V30 12422 C 1139.07 1.76489 -1.52885 0
M  V30 12423 C 1140.05 1.65742 -0.38258 0
M  V30 12424 O 1141.23 1.84653 -0.601397 0
M  V30 12425 C 1138.36 3.14977 -1.4631 0
M  V30 12426 C 1137.32 3.40502 -2.59311 0
M  V30 12427 C 1136.64 4.78916 -2.37789 0
M  V30 12428 C 1137.94 3.34048 -4.01509 0
M  V30 12429 H 1139.64 1.69286 -2.46946 0
M  V30 12430 H 1137.18 0.813015 -1.18853 0
M  V30 12431 H 1139.14 3.9336 -1.51149 0
M  V30 12432 H 1137.86 3.2294 -0.487599 0
M  V30 12433 H 1136.52 2.64495 -2.53846 0
M  V30 12434 H 1136.17 4.8357 -1.38454 0
M  V30 12435 H 1135.87 4.96954 -3.13545 0
M  V30 12436 H 1137.39 5.59541 -2.4443 0
M  V30 12437 H 1138.81 4.0235 -4.08396 0
M  V30 12438 H 1137.2 3.63622 -4.77388 0
M  V30 12439 H 1138.27 2.32022 -4.25786 0
M  V30 12440 N 1139.62 1.30703 0.880598 0
M  V30 12441 C 1140.53 1.19389 2.01949 0
M  V30 12442 C 1141.54 0.112868 1.73634 0
M  V30 12443 O 1142.72 0.328643 1.98701 0
M  V30 12444 C 1139.78 0.891004 3.35055 0
M  V30 12445 C 1138.84 2.05784 3.76764 0
M  V30 12446 C 1138.08 1.76931 5.03519 0
M  V30 12447 O 1138.3 0.699326 5.66097 0
M  V30 12448 O 1137.23 2.623 5.4174 0
M  V30 12449 H 1141.06 2.15073 2.14423 0
M  V30 12450 H 1138.64 1.10339 1.00726 0
M  V30 12451 H 1140.53 0.737476 4.14897 0
M  V30 12452 H 1139.2 -0.0358909 3.2368 0
M  V30 12453 H 1138.11 2.26672 2.97608 0
M  V30 12454 H 1139.44 2.96661 3.9275 0
M  V30 12455 N 1141.09 -1.09351 1.1349 0
M  V30 12456 C 1142 -2.19564 0.826366 0
M  V30 12457 C 1143.02 -1.72967 -0.189339 0
M  V30 12458 O 1144.2 -2.0139 -0.0202033 0
M  V30 12459 C 1141.26 -3.4542 0.297685 0
M  V30 12460 C 1140.32 -4.06694 1.37473 0
M  V30 12461 C 1139.55 -5.26542 0.871183 0
M  V30 12462 O 1139.78 -5.69657 -0.290958 0
M  V30 12463 O 1138.71 -5.78961 1.64584 0
M  V30 12464 H 1142.54 -2.4841 1.74718 0
M  V30 12465 H 1140.12 -1.18302 0.912414 0
M  V30 12466 H 1142 -4.21399 0.00829479 0
M  V30 12467 H 1140.68 -3.18175 -0.595536 0
M  V30 12468 H 1139.59 -3.32347 1.71745 0
M  V30 12469 H 1140.92 -4.38166 2.24212 0
M  V30 12470 N 1142.57 -0.928524 -1.27343 0
M  V30 12471 C 1143.48 -0.433901 -2.30553 0
M  V30 12472 C 1144.5 0.485832 -1.6708 0
M  V30 12473 O 1145.67 0.36844 -1.98001 0
M  V30 12474 C 1142.74 0.304617 -3.45359 0
M  V30 12475 C 1141.8 -0.650131 -4.24349 0
M  V30 12476 C 1141.03 0.0532372 -5.33673 0
M  V30 12477 O 1141.26 1.27246 -5.56026 0
M  V30 12478 O 1140.19 -0.619009 -5.98709 0
M  V30 12479 H 1144.02 -1.2909 -2.74899 0
M  V30 12480 H 1141.6 -0.693903 -1.32308 0
M  V30 12481 H 1143.48 0.721137 -4.15184 0
M  V30 12482 H 1142.16 1.13721 -3.03066 0
M  V30 12483 H 1141.06 -1.11635 -3.57055 0
M  V30 12484 H 1142.4 -1.44996 -4.70358 0
M  V30 12485 N 1144.05 1.41491 -0.694123 0
M  V30 12486 C 1145.47 1.55358 -0.365532 0
M  V30 12487 C 1145.67 1.66994 1.12762 0
M  V30 12488 O 1144.72 1.64756 1.91342 0
M  V30 12489 C 1146.03 2.79352 -1.11279 0
M  V30 12490 C 1147.58 2.93147 -1.097 0
M  V30 12491 C 1148.06 4.20027 -1.82597 0
M  V30 12492 N 1149.55 4.26981 -1.7956 0
M  V30 12493 C 1150.28 5.24013 -2.32805 0
M  V30 12494 N 1149.78 6.27083 -2.94515 0
M  V30 12495 N 1151.57 5.15943 -2.23069 0
M  V30 12496 H 1143.72 1.32183 -1.66257 0
M  V30 12497 H 1145.99 0.637624 -0.701527 0
M  V30 12498 H 1145.69 2.76958 -2.16765 0
M  V30 12499 H 1145.57 3.70827 -0.690439 0
M  V30 12500 H 1147.95 2.95057 -0.0504037 0
M  V30 12501 H 1148.03 2.02849 -1.55839 0
M  V30 12502 H 1147.68 4.18878 -2.87235 0
M  V30 12503 H 1147.61 5.09294 -1.33893 0
M  V30 12504 H 1150.1 3.53129 -1.34567 0
M  V30 12505 H 1150.41 6.97511 -3.32714 0
M  V30 12506 H 1148.76 6.27589 -2.98592 0
M  V30 12507 H 1151.95 4.34346 -1.74532 0
M  V30 12508 H 1152.12 5.91396 -2.64868 0
M  V30 12509 N 1145.53 0.438773 1.51369 0
M  V30 12510 C 1146.8 -0.18722 1.94702 0
M  V30 12511 C 1147.18 -1.59962 1.37752 0
M  V30 12512 O 1146.53 -2.214 0.565171 0
M  V30 12513 C 1146.74 -0.163491 3.48617 0
M  V30 12514 C 1148.09 -0.368355 4.22999 0
M  V30 12515 O 1149.11 -0.241541 3.5538 0
M  V30 12516 O 1147.97 -0.620916 5.42961 0
M  V30 12517 H 1145.07 -0.129194 0.816846 0
M  V30 12518 H 1147.61 0.496855 1.62263 0
M  V30 12519 H 1146.39 0.823882 3.82528 0
M  V30 12520 H 1146.01 -0.890414 3.87501 0
M  V30 12521 N 1147.01 -1.56678 0.170181 0
M  V30 12522 C 1147.94 -2.20916 -0.756213 0
M  V30 12523 C 1148.92 -1.16442 -1.23997 0
M  V30 12524 O 1150.1 -1.44867 -1.29333 0
M  V30 12525 C 1147.23 -2.84901 -1.98617 0
M  V30 12526 C 1146.19 -3.95403 -1.63831 0
M  V30 12527 C 1145.51 -4.46432 -2.94282 0
M  V30 12528 C 1146.81 -5.15051 -0.867195 0
M  V30 12529 H 1148.51 -2.98585 -0.220776 0
M  V30 12530 H 1146.05 -1.43619 -0.104748 0
M  V30 12531 H 1148 -3.28514 -2.63926 0
M  V30 12532 H 1146.73 -2.04598 -2.54572 0
M  V30 12533 H 1145.39 -3.52444 -1.00891 0
M  V30 12534 H 1145.04 -3.62923 -3.48276 0
M  V30 12535 H 1144.74 -5.20979 -2.71762 0
M  V30 12536 H 1146.26 -4.92731 -3.60622 0
M  V30 12537 H 1147.67 -5.55363 -1.42285 0
M  V30 12538 H 1146.07 -5.95507 -0.741065 0
M  V30 12539 H 1147.14 -4.84707 0.136693 0
M  V30 12540 N 1148.48 0.103547 -1.57259 0
M  V30 12541 C 1149.43 1.12621 -2.01458 0
M  V30 12542 C 1150.4 1.40282 -0.889391 0
M  V30 12543 O 1151.59 1.51887 -1.15477 0
M  V30 12544 C 1148.73 2.44352 -2.43692 0
M  V30 12545 C 1147.84 2.23495 -3.69695 0
M  V30 12546 C 1146.97 3.48565 -4.00844 0
M  V30 12547 C 1146.01 3.22932 -5.19982 0
M  V30 12548 N 1145.15 4.40246 -5.46926 0
M  V30 12549 H 1149.99 0.742315 -2.88606 0
M  V30 12550 H 1147.53 0.355016 -1.42752 0
M  V30 12551 H 1149.48 3.2122 -2.66221 0
M  V30 12552 H 1148.11 2.80605 -1.59565 0
M  V30 12553 H 1147.17 1.3747 -3.54692 0
M  V30 12554 H 1148.48 2.0054 -4.56711 0
M  V30 12555 H 1147.63 4.33844 -4.24104 0
M  V30 12556 H 1146.37 3.74565 -3.12333 0
M  V30 12557 H 1145.38 2.36045 -4.96551 0
M  V30 12558 H 1146.6 2.98286 -6.10084 0
M  V30 12559 H 1144.55 4.66338 -4.61373 0
M  V30 12560 H 1144.46 4.20452 -6.28296 0
M  V30 12561 H 1145.73 5.26614 -5.74716 0
M  V30 12562 N 1149.96 1.53094 0.37415 0
M  V30 12563 C 1151.21 1.68082 1.11495 0
M  V30 12564 C 1151.52 0.434685 1.90709 0
M  V30 12565 O 1152.73 0.464956 2.67489 0
M  V30 12566 C 1151.19 2.97101 2.03124 0
M  V30 12567 C 1150.79 4.28947 1.29262 0
M  V30 12568 C 1152.54 3.21456 2.77248 0
M  V30 12569 C 1150.44 5.4906 2.19743 0
M  V30 12570 H 1149.37 0.626238 0.419931 0
M  V30 12571 H 1152.03 1.79594 0.376588 0
M  V30 12572 H 1150.41 2.79371 2.80656 0
M  V30 12573 H 1151.58 4.57279 0.568528 0
M  V30 12574 H 1149.9 4.10968 0.670362 0
M  V30 12575 H 1152.49 4.08377 3.45155 0
M  V30 12576 H 1152.84 2.37153 3.42146 0
M  V30 12577 H 1153.37 3.3982 2.06803 0
M  V30 12578 H 1150.11 6.35815 1.59437 0
M  V30 12579 H 1149.63 5.25019 2.90027 0
M  V30 12580 H 1151.31 5.83517 2.79495 0
M  V30 12581 N 1151.44 -0.633461 1.44309 0
M  V30 12582 C 1152.67 -1.42033 1.50447 0
M  V30 12583 C 1153.08 -1.88362 0.128585 0
M  V30 12584 O 1152.44 -1.60695 -0.865071 0
M  V30 12585 C 1152.49 -2.6422 2.46719 0
M  V30 12586 O 1152.21 -2.19823 3.78958 0
M  V30 12587 C 1153.71 -3.57372 2.62298 0
M  V30 12588 H 1150.93 -0.435667 0.510329 0
M  V30 12589 H 1153.48 -0.774907 1.8925 0
M  V30 12590 H 1151.63 -3.24859 2.11058 0
M  V30 12591 H 1152.05 -2.99022 4.30913 0
M  V30 12592 H 1153.52 -4.39719 3.33693 0
M  V30 12593 H 1154 -4.06026 1.67449 0
M  V30 12594 H 1154.6 -3.02603 2.9885 0
M  V30 12595 N 1152.92 -1.31168 -0.873655 0
M  V30 12596 C 1154.2 -1.11285 -1.60857 0
M  V30 12597 C 1154.58 0.333788 -2.08444 0
M  V30 12598 O 1153.92 1.32726 -1.86 0
M  V30 12599 C 1154.13 -2.12379 -2.7694 0
M  V30 12600 C 1155.48 -2.44704 -3.46994 0
M  V30 12601 O 1156.51 -2.10778 -2.87143 0
M  V30 12602 O 1155.36 -3.02786 -4.54954 0
M  V30 12603 H 1152.46 -0.428177 -0.707526 0
M  V30 12604 H 1155 -1.42634 -0.91944 0
M  V30 12605 H 1153.78 -3.09703 -2.39164 0
M  V30 12606 H 1153.4 -1.81914 -3.53544 0
M  V30 12607 N 1154.4 1.08748 -1.14068 0
M  V30 12608 C 1155.64 1.81333 -0.908081 0
M  V30 12609 C 1155.98 1.85826 0.564112 0
M  V30 12610 O 1155.25 1.33157 1.41773 0
M  V30 12611 C 1155.53 3.27127 -1.50531 0
M  V30 12612 C 1155.39 3.30865 -3.04711 0
M  V30 12613 C 1156.71 4.24006 -1.17928 0
M  V30 12614 H 1153.82 0.658326 -0.331325 0
M  V30 12615 H 1156.47 1.27345 -1.41008 0
M  V30 12616 H 1154.62 3.73233 -1.07839 0
M  V30 12617 H 1156.29 2.93109 -3.56209 0
M  V30 12618 H 1154.53 2.70241 -3.39341 0
M  V30 12619 H 1155.2 4.33603 -3.41603 0
M  V30 12620 H 1157.68 3.86221 -1.54831 0
M  V30 12621 H 1156.55 5.2434 -1.62353 0
M  V30 12622 H 1156.82 4.42 -0.0940349 0
M  V30 12623 N 1155.87 0.935264 1.26849 0
M  V30 12624 C 1157.12 0.575467 1.93317 0
M  V30 12625 C 1157.44 -0.88876 1.74242 0
M  V30 12626 O 1158.64 -1.35767 2.35116 0
M  V30 12627 C 1157.1 0.978433 3.46345 0
M  V30 12628 C 1156.71 2.46386 3.74163 0
M  V30 12629 C 1158.45 0.690249 4.18851 0
M  V30 12630 C 1156.36 2.80584 5.20602 0
M  V30 12631 H 1155.29 0.211506 0.723727 0
M  V30 12632 H 1157.94 1.1371 1.44022 0
M  V30 12633 H 1156.32 0.345379 3.94491 0
M  V30 12634 H 1157.49 3.14547 3.36745 0
M  V30 12635 H 1155.81 2.72473 3.14877 0
M  V30 12636 H 1158.41 0.922151 5.26688 0
M  V30 12637 H 1158.75 -0.372805 4.14627 0
M  V30 12638 H 1159.28 1.28275 3.76551 0
M  V30 12639 H 1156.02 3.85828 5.29921 0
M  V30 12640 H 1155.54 2.1708 5.59139 0
M  V30 12641 H 1157.22 2.68732 5.88551 0
M  V30 12642 N 1157.35 -1.41121 0.701616 0
M  V30 12643 C 1158.6 -2.00359 0.232214 0
M  V30 12644 C 1158.91 -1.56231 -1.17691 0
M  V30 12645 O 1160.12 -2.08071 -1.74409 0
M  V30 12646 C 1158.58 -3.58052 0.364257 0
M  V30 12647 C 1158.18 -4.11158 1.77913 0
M  V30 12648 C 1159.93 -4.24476 -0.0450628 0
M  V30 12649 C 1157.84 -5.61306 1.8625 0
M  V30 12650 H 1156.77 -0.749411 0.0830609 0
M  V30 12651 H 1159.42 -1.61528 0.870689 0
M  V30 12652 H 1157.8 -3.94515 -0.342569 0
M  V30 12653 H 1158.97 -3.86101 2.5152 0
M  V30 12654 H 1157.29 -3.57282 2.13866 0
M  V30 12655 H 1159.88 -5.347 -0.00329209 0
M  V30 12656 H 1160.23 -4.01919 -1.08477 0
M  V30 12657 H 1160.76 -3.93069 0.611704 0
M  V30 12658 H 1157.5 -5.88699 2.88294 0
M  V30 12659 H 1157.02 -5.88271 1.17036 0
M  V30 12660 H 1158.7 -6.26179 1.62817 0
M  V30 12661 N 1158.83 -0.446794 -1.51134 0
M  V30 12662 C 1160.08 0.116263 -2.01765 0
M  V30 12663 C 1160.4 1.42382 -1.33238 0
M  V30 12664 O 1159.67 1.9018 -0.469915 0
M  V30 12665 H 1158.25 0.0459558 -0.745585 0
M  V30 12666 H 1160.91 -0.591664 -1.85702 0
M  V30 12667 H 1160.01 0.285358 -3.10793 0
M  V30 12668 N 1160.31 1.56586 -0.178487 0
M  V30 12669 C 1161.56 1.97098 0.464617 0
M  V30 12670 C 1161.88 1.06476 1.62767 0
M  V30 12671 O 1161.14 0.100337 1.95443 0
M  V30 12672 C 1161.44 3.43629 0.982552 0
M  V30 12673 C 1161.1 4.50853 -0.0653645 0
M  V30 12674 C 1159.77 4.79901 -0.353349 0
M  V30 12675 C 1162.12 5.15387 -0.776279 0
M  V30 12676 C 1159.45 5.70779 -1.35751 0
M  V30 12677 C 1161.8 6.07349 -1.76948 0
M  V30 12678 C 1160.46 6.34761 -2.06483 0
M  V30 12679 H 1159.73 0.721232 0.170016 0
M  V30 12680 H 1162.38 1.89559 -0.271959 0
M  V30 12681 H 1160.68 3.48155 1.79709 0
M  V30 12682 H 1162.38 3.7232 1.48926 0
M  V30 12683 H 1158.97 4.28266 0.169266 0
M  V30 12684 H 1163.15 4.9305 -0.567008 0
M  V30 12685 H 1158.41 5.90298 -1.59244 0
M  V30 12686 H 1162.58 6.56419 -2.32567 0
M  V30 12687 H 1160.21 7.0498 -2.84441 0
M  V30 12688 N 1161.79 -0.095206 1.57312 0
M  V30 12689 C 1162.72 -1.14173 1.98739 0
M  V30 12690 C 1163.73 -1.36323 0.889934 0
M  V30 12691 O 1164.92 -1.34977 1.16805 0
M  V30 12692 C 1162.02 -2.49729 2.29104 0
M  V30 12693 C 1161.19 -2.47857 3.60396 0
M  V30 12694 C 1160.25 -3.65341 3.78699 0
M  V30 12695 O 1159.28 -3.47837 4.50553 0
M  V30 12696 N 1160.48 -4.84818 3.19268 0
M  V30 12697 H 1163.25 -0.789126 2.89124 0
M  V30 12698 H 1160.81 -0.284187 1.59386 0
M  V30 12699 H 1162.8 -3.26925 2.38541 0
M  V30 12700 H 1161.37 -2.7708 1.44726 0
M  V30 12701 H 1160.59 -1.56208 3.61929 0
M  V30 12702 H 1161.88 -2.43685 4.46649 0
M  V30 12703 H 1161.27 -5.01943 2.60902 0
M  V30 12704 H 1159.83 -5.59607 3.34191 0
M  V30 12705 N 1163.26 -1.53291 -0.366026 0
M  V30 12706 C 1164.23 -1.79025 -1.43117 0
M  V30 12707 C 1165.23 -0.660676 -1.46601 0
M  V30 12708 O 1166.42 -0.928875 -1.47369 0
M  V30 12709 C 1163.55 -1.91192 -2.82238 0
M  V30 12710 H 1164.74 -2.74154 -1.21572 0
M  V30 12711 H 1162.3 -1.44361 -0.599132 0
M  V30 12712 H 1163.03 -0.98129 -3.09097 0
M  V30 12713 H 1162.82 -2.7335 -2.81109 0
M  V30 12714 H 1164.31 -2.12696 -3.59375 0
M  V30 12715 N 1164.74 0.6258 -1.44643 0
M  V30 12716 C 1165.98 1.39676 -1.49232 0
M  V30 12717 C 1166.35 1.91601 -0.123682 0
M  V30 12718 O 1167.55 2.68764 -0.0442486 0
M  V30 12719 C 1165.82 2.52704 -2.52736 0
M  V30 12720 S 1167.38 3.40795 -2.76413 0
M  V30 12721 H 1164.2 0.476436 -0.527759 0
M  V30 12722 H 1166.8 0.72394 -1.81602 0
M  V30 12723 H 1165.5 2.12876 -3.50873 0
M  V30 12724 H 1165.03 3.24806 -2.21956 0
M  V30 12725 H 1167.05 4.5031 -2.08412 0
M  V30 12726 N 1166.22 1.31629 0.866686 0
M  V30 12727 C 1167.46 1.22806 1.63395 0
M  V30 12728 C 1167.82 -0.209785 1.9085 0
M  V30 12729 O 1169.03 -0.421562 2.65474 0
M  V30 12730 C 1167.3 2.05187 2.92631 0
M  V30 12731 S 1168.86 2.13261 3.83491 0
M  V30 12732 H 1165.67 0.437339 0.560585 0
M  V30 12733 H 1168.28 1.66333 1.02731 0
M  V30 12734 H 1166.98 3.08736 2.70389 0
M  V30 12735 H 1166.51 1.62393 3.58318 0
M  V30 12736 H 1168.53 1.27333 4.79584 0
M  V30 12737 N 1167.7 -1.08142 1.14644 0
M  V30 12738 C 1169.12 -1.32656 0.887388 0
M  V30 12739 C 1169.32 -1.95942 -0.470012 0
M  V30 12740 O 1168.37 -2.21417 -1.21371 0
M  V30 12741 C 1169.68 -2.22549 2.02219 0
M  V30 12742 C 1171.23 -2.36021 2.0558 0
M  V30 12743 C 1171.71 -3.29257 3.18361 0
M  V30 12744 N 1173.2 -3.36835 3.17957 0
M  V30 12745 C 1173.93 -4.09017 4.01862 0
M  V30 12746 N 1173.43 -4.83882 4.95812 0
M  V30 12747 N 1175.22 -4.04875 3.89913 0
M  V30 12748 H 1167.37 -0.654457 2.02066 0
M  V30 12749 H 1169.64 -0.350947 0.880648 0
M  V30 12750 H 1169.34 -1.83296 3.00159 0
M  V30 12751 H 1169.22 -3.23027 1.94765 0
M  V30 12752 H 1171.6 -2.74531 1.08245 0
M  V30 12753 H 1171.68 -1.35275 2.17105 0
M  V30 12754 H 1171.33 -2.91468 4.15944 0
M  V30 12755 H 1171.26 -4.29938 3.04074 0
M  V30 12756 H 1173.75 -2.83465 2.49912 0
M  V30 12757 H 1174.06 -5.3643 5.56294 0
M  V30 12758 H 1172.41 -4.82926 4.99808 0
M  V30 12759 H 1175.6 -3.45496 3.15833 0
M  V30 12760 H 1175.77 -4.60866 4.55529 0
M  V30 12761 N 1169.18 -0.941978 -1.26351 0
M  V30 12762 C 1170.43 -0.588806 -1.93333 0
M  V30 12763 C 1170.75 0.875067 -1.74263 0
M  V30 12764 O 1170.02 1.62187 -1.09873 0
M  V30 12765 H 1168.6 -0.214774 -0.715459 0
M  V30 12766 H 1171.26 -1.19747 -1.53774 0
M  V30 12767 H 1170.35 -0.807267 -3.01479 0
M  V30 12768 N 1170.66 1.40747 -0.709091 0
M  V30 12769 C 1171.89 2.05022 -0.254887 0
M  V30 12770 C 1172.29 1.5351 1.10595 0
M  V30 12771 O 1171.64 0.683912 1.70494 0
M  V30 12772 C 1171.7 3.59188 -0.149823 0
M  V30 12773 C 1171.36 4.33557 -1.44489 0
M  V30 12774 C 1172.36 4.61941 -2.3855 0
M  V30 12775 C 1170.04 4.72585 -1.70201 0
M  V30 12776 C 1172.04 5.2833 -3.56575 0
M  V30 12777 C 1169.73 5.38707 -2.88509 0
M  V30 12778 C 1170.72 5.66509 -3.81518 0
M  V30 12779 O 1170.41 6.31267 -4.97752 0
M  V30 12780 H 1170.14 0.666405 -0.113493 0
M  V30 12781 H 1172.7 1.81261 -0.966099 0
M  V30 12782 H 1170.93 3.81742 0.617276 0
M  V30 12783 H 1172.62 4.05008 0.268965 0
M  V30 12784 H 1173.38 4.32259 -2.19947 0
M  V30 12785 H 1169.26 4.50318 -0.986628 0
M  V30 12786 H 1172.81 5.49947 -4.2919 0
M  V30 12787 H 1168.7 5.67809 -3.07023 0
M  V30 12788 H 1169.47 6.49764 -4.97745 0
M  V30 12789 N 1172.13 0.454803 1.50895 0
M  V30 12790 C 1173.06 -0.337982 2.31041 0
M  V30 12791 C 1174.04 -1.00523 1.37219 0
M  V30 12792 O 1175.23 -1.00553 1.66141 0
M  V30 12793 C 1172.36 -1.42964 3.1651 0
M  V30 12794 C 1171.31 -0.884907 4.18752 0
M  V30 12795 C 1170.64 -2.07363 4.92854 0
M  V30 12796 C 1171.94 0.0926716 5.22218 0
M  V30 12797 H 1173.63 0.33089 2.97566 0
M  V30 12798 H 1171.18 0.160577 1.43102 0
M  V30 12799 H 1173.13 -1.9916 3.71367 0
M  V30 12800 H 1171.86 -2.12705 2.47839 0
M  V30 12801 H 1170.52 -0.345031 3.64973 0
M  V30 12802 H 1170.16 -2.75764 4.2067 0
M  V30 12803 H 1169.86 -1.71545 5.62002 0
M  V30 12804 H 1171.39 -2.6408 5.5054 0
M  V30 12805 H 1172.8 -0.379568 5.72042 0
M  V30 12806 H 1171.2 0.3643 5.98993 0
M  V30 12807 H 1172.27 1.02383 4.73968 0
M  V30 12808 N 1173.61 -1.56489 0.186789 0
M  V30 12809 C 1174.57 -2.17478 -0.723596 0
M  V30 12810 C 1175.57 -1.12698 -1.14699 0
M  V30 12811 O 1176.76 -1.38128 -1.06143 0
M  V30 12812 C 1173.9 -2.77015 -1.98685 0
M  V30 12813 H 1175.09 -2.99282 -0.192403 0
M  V30 12814 H 1172.64 -1.56174 -0.0628153 0
M  V30 12815 H 1173.38 -1.98987 -2.56076 0
M  V30 12816 H 1173.16 -3.53711 -1.69207 0
M  V30 12817 H 1174.65 -3.23872 -2.63622 0
M  V30 12818 N 1175.09 0.086862 -1.5736 0
M  V30 12819 C 1176.51 0.441284 -1.53378 0
M  V30 12820 C 1176.71 1.80046 -0.904748 0
M  V30 12821 O 1175.76 2.47484 -0.500781 0
M  V30 12822 C 1177.07 0.3962 -2.98078 0
M  V30 12823 C 1178.62 0.477468 -3.09337 0
M  V30 12824 C 1179.1 0.462448 -4.55659 0
M  V30 12825 N 1180.59 0.522963 -4.60238 0
M  V30 12826 C 1181.32 0.533313 -5.70914 0
M  V30 12827 N 1180.82 0.499376 -6.90998 0
M  V30 12828 N 1182.61 0.578742 -5.59113 0
M  V30 12829 H 1174.76 -0.803308 -1.96623 0
M  V30 12830 H 1177.03 -0.299879 -0.89932 0
M  V30 12831 H 1176.73 -0.535505 -3.47599 0
M  V30 12832 H 1176.61 1.21209 -3.57195 0
M  V30 12833 H 1178.99 1.39959 -2.59799 0
M  V30 12834 H 1179.07 -0.366717 -2.53158 0
M  V30 12835 H 1178.72 -0.455768 -5.05851 0
M  V30 12836 H 1178.65 1.32396 -5.09685 0
M  V30 12837 H 1181.14 0.554051 -3.73816 0
M  V30 12838 H 1181.45 0.510784 -7.7111 0
M  V30 12839 H 1179.8 0.466296 -6.93434 0
M  V30 12840 H 1182.99 0.602841 -4.64202 0
M  V30 12841 H 1183.16 0.583339 -6.45369 0
M  V30 12842 N 1176.57 1.53483 0.357892 0
M  V30 12843 C 1177.51 1.80463 1.43881 0
M  V30 12844 C 1178.48 0.649438 1.52877 0
M  V30 12845 O 1179.67 0.892409 1.68644 0
M  V30 12846 C 1176.81 2.00714 2.80727 0
M  V30 12847 C 1175.92 3.28431 2.80637 0
M  V30 12848 C 1175.06 3.38828 4.09107 0
M  V30 12849 C 1174.1 4.60549 4.03189 0
M  V30 12850 N 1173.23 4.68057 5.23323 0
M  V30 12851 H 1178.07 2.72694 1.20174 0
M  V30 12852 H 1175.61 1.35079 0.582422 0
M  V30 12853 H 1177.57 2.10444 3.60235 0
M  V30 12854 H 1176.2 1.11811 3.02817 0
M  V30 12855 H 1175.25 3.27617 1.93317 0
M  V30 12856 H 1176.56 4.18022 2.72138 0
M  V30 12857 H 1175.72 3.47911 4.97034 0
M  V30 12858 H 1174.46 2.47267 4.20369 0
M  V30 12859 H 1173.46 4.51558 3.13649 0
M  V30 12860 H 1174.69 5.53459 3.93523 0
M  V30 12861 H 1172.63 3.794 5.35156 0
M  V30 12862 H 1172.55 5.51563 5.17024 0
M  V30 12863 H 1173.82 4.81433 6.1306 0
M  V30 12864 N 1178.05 -0.61812 1.44973 0
M  V30 12865 C 1179.01 -1.71135 1.52465 0
M  V30 12866 C 1180.01 -1.5561 0.405246 0
M  V30 12867 O 1181.2 -1.60869 0.668351 0
M  V30 12868 C 1178.33 -3.10324 1.41108 0
M  V30 12869 H 1179.52 -1.65862 2.49859 0
M  V30 12870 H 1177.08 -0.832932 1.32257 0
M  V30 12871 H 1177.81 -3.21183 0.448574 0
M  V30 12872 H 1177.6 -3.23001 2.2229 0
M  V30 12873 H 1179.09 -3.89976 1.49361 0
M  V30 12874 N 1179.52 -1.32087 -0.859693 0
M  V30 12875 C 1180.77 -1.2236 -1.61351 0
M  V30 12876 C 1181.1 0.215796 -1.93299 0
M  V30 12877 O 1180.35 1.16742 -1.57066 0
M  V30 12878 C 1180.65 -2.0234 -2.94607 0
M  V30 12879 C 1180.32 -3.51746 -2.82109 0
M  V30 12880 C 1178.98 -3.92482 -2.78408 0
M  V30 12881 C 1181.33 -4.46776 -2.68403 0
M  V30 12882 C 1178.66 -5.265 -2.58873 0
M  V30 12883 C 1181.01 -5.80931 -2.50404 0
M  V30 12884 C 1179.68 -6.20875 -2.45092 0
M  V30 12885 H 1178.95 -0.447748 -0.590426 0
M  V30 12886 H 1181.59 -1.63461 -0.997637 0
M  V30 12887 H 1179.9 -1.53952 -3.60286 0
M  V30 12888 H 1181.6 -1.92187 -3.51945 0
M  V30 12889 H 1178.19 -3.19389 -2.85812 0
M  V30 12890 H 1182.37 -4.16228 -2.70311 0
M  V30 12891 H 1177.63 -5.5651 -2.53192 0
M  V30 12892 H 1181.8 -6.54185 -2.38777 0
M  V30 12893 H 1179.43 -7.24662 -2.29714 0
M  V30 12894 N 1181 1.07532 -1.15215 0
M  V30 12895 C 1181.96 2.1286 -0.84989 0
M  V30 12896 C 1182.96 1.60103 0.149524 0
M  V30 12897 O 1184.15 1.74017 -0.0798918 0
M  V30 12898 C 1181.29 3.3984 -0.268617 0
M  V30 12899 H 1182.48 2.41106 -1.78347 0
M  V30 12900 H 1180.03 1.23392 -0.959386 0
M  V30 12901 H 1180.77 3.17235 0.67325 0
M  V30 12902 H 1180.55 3.79433 -0.988592 0
M  V30 12903 H 1182.04 4.17533 -0.0746554 0
M  V30 12904 N 1182.48 0.948665 1.2585 0
M  V30 12905 C 1183.43 0.462904 2.2611 0
M  V30 12906 C 1184.4 -0.481433 1.5897 0
M  V30 12907 O 1185.58 -0.395997 1.86645 0
M  V30 12908 C 1182.72 -0.258808 3.44128 0
M  V30 12909 C 1181.84 0.722072 4.25923 0
M  V30 12910 C 1180.97 -0.0215958 5.31196 0
M  V30 12911 C 1180.01 0.950612 6.04673 0
M  V30 12912 N 1179.15 0.238209 7.01696 0
M  V30 12913 H 1183.99 1.32279 2.67032 0
M  V30 12914 H 1181.52 0.663485 1.31287 0
M  V30 12915 H 1183.48 -0.693759 4.11391 0
M  V30 12916 H 1182.11 -1.08278 3.04098 0
M  V30 12917 H 1181.16 1.27552 3.58378 0
M  V30 12918 H 1182.48 1.46421 4.76825 0
M  V30 12919 H 1181.63 -0.51547 6.04506 0
M  V30 12920 H 1180.37 -0.796563 4.81151 0
M  V30 12921 H 1179.37 1.45554 5.30183 0
M  V30 12922 H 1180.6 1.72571 6.56808 0
M  V30 12923 H 1178.54 -0.518129 6.53951 0
M  V30 12924 H 1178.46 0.919542 7.50387 0
M  V30 12925 H 1179.73 -0.234325 7.79148 0
M  V30 12926 N 1183.96 -1.40369 0.716545 0
M  V30 12927 C 1185.37 -1.54757 0.390202 0
M  V30 12928 C 1185.57 -1.68767 -1.10091 0
M  V30 12929 O 1184.63 -1.67779 -1.88697 0
M  V30 12930 C 1185.94 -2.77546 1.15709 0
M  V30 12931 C 1187.49 -2.91364 1.14349 0
M  V30 12932 C 1187.97 -4.17068 1.89256 0
M  V30 12933 N 1189.46 -4.2407 1.8633 0
M  V30 12934 C 1190.19 -5.20243 2.41112 0
M  V30 12935 N 1189.69 -6.22318 3.04454 0
M  V30 12936 N 1191.48 -5.12328 2.31249 0
M  V30 12937 H 1183.63 -1.29521 1.68339 0
M  V30 12938 H 1185.9 -0.626382 0.711582 0
M  V30 12939 H 1185.6 -2.73474 2.21144 0
M  V30 12940 H 1185.48 -3.69682 0.749347 0
M  V30 12941 H 1187.86 -2.94939 0.0973383 0
M  V30 12942 H 1187.94 -2.00344 1.59047 0
M  V30 12943 H 1187.59 -4.14255 2.93863 0
M  V30 12944 H 1187.52 -5.07099 1.41978 0
M  V30 12945 H 1190.01 -3.50944 1.40168 0
M  V30 12946 H 1190.32 -6.92129 3.43769 0
M  V30 12947 H 1188.67 -6.22759 3.08538 0
M  V30 12948 H 1191.86 -4.31514 1.8142 0
M  V30 12949 H 1192.03 -5.87107 2.74243 0
M  V30 12950 N 1185.44 -0.462799 -1.50652 0
M  V30 12951 C 1186.37 0.371837 -2.26164 0
M  V30 12952 C 1187.38 0.96432 -1.31167 0
M  V30 12953 O 1188.57 0.854134 -1.56738 0
M  V30 12954 C 1185.67 1.53469 -3.0216 0
M  V30 12955 C 1184.84 1.0565 -4.24449 0
M  V30 12956 C 1183.9 2.09243 -4.82808 0
M  V30 12957 O 1182.93 1.67641 -5.43953 0
M  V30 12958 N 1184.13 3.41976 -4.69076 0
M  V30 12959 H 1186.9 -0.275476 -2.98431 0
M  V30 12960 H 1184.46 -0.293109 -1.59225 0
M  V30 12961 H 1186.45 2.22446 -3.38083 0
M  V30 12962 H 1185.02 2.08685 -2.32743 0
M  V30 12963 H 1184.24 0.192895 -3.93728 0
M  V30 12964 H 1185.53 0.714796 -5.03754 0
M  V30 12965 H 1184.92 3.78491 -4.20429 0
M  V30 12966 H 1183.48 4.06775 -5.09291 0
M  V30 12967 N 1186.91 1.56388 -0.195085 0
M  V30 12968 C 1187.85 2.16316 0.757643 0
M  V30 12969 C 1188.86 1.12498 1.17678 0
M  V30 12970 O 1190.05 1.39591 1.11251 0
M  V30 12971 C 1187.15 2.7104 2.03447 0
M  V30 12972 C 1186.32 3.99759 1.77514 0
M  V30 12973 C 1185.38 4.3931 2.89644 0
M  V30 12974 O 1184.41 5.06732 2.59252 0
M  V30 12975 N 1185.61 4.02813 4.17998 0
M  V30 12976 H 1188.37 2.98696 0.24517 0
M  V30 12977 H 1185.93 1.61895 -0.0131194 0
M  V30 12978 H 1187.93 2.94483 2.776 0
M  V30 12979 H 1186.5 1.93114 2.45817 0
M  V30 12980 H 1185.72 3.84448 0.8714 0
M  V30 12981 H 1187 4.83782 1.57585 0
M  V30 12982 H 1186.4 3.4858 4.45543 0
M  V30 12983 H 1184.96 4.31206 4.88779 0
M  V30 12984 N 1188.39 -0.0785156 1.57404 0
M  V30 12985 C 1189.32 -1.12058 1.99939 0
M  V30 12986 C 1190.34 -1.35372 0.904343 0
M  V30 12987 O 1191.53 -1.33731 1.1823 0
M  V30 12988 C 1188.63 -2.47285 2.31739 0
M  V30 12989 C 1187.8 -2.44021 3.63005 0
M  V30 12990 C 1186.86 -3.61303 3.82552 0
M  V30 12991 O 1185.88 -3.43039 4.54217 0
M  V30 12992 N 1187.09 -4.81404 3.24392 0
M  V30 12993 H 1189.85 -0.758416 2.89945 0
M  V30 12994 H 1187.41 -0.267266 1.59679 0
M  V30 12995 H 1189.4 -3.24377 2.41995 0
M  V30 12996 H 1187.97 -2.75529 1.47657 0
M  V30 12997 H 1187.19 -1.52361 3.63565 0
M  V30 12998 H 1188.48 -2.38934 4.49208 0
M  V30 12999 H 1187.88 -4.99147 2.66211 0
M  V30 13000 H 1186.44 -5.56031 3.40107 0
M  V30 13001 N 1189.87 -1.5367 -0.349747 0
M  V30 13002 C 1190.8 -1.84208 -1.43492 0
M  V30 13003 C 1191.78 -0.696725 -1.55177 0
M  V30 13004 O 1192.97 -0.948061 -1.69486 0
M  V30 13005 C 1190.1 -2.04613 -2.80625 0
M  V30 13006 C 1189.05 -3.20419 -2.83753 0
M  V30 13007 C 1188.38 -3.26147 -4.23713 0
M  V30 13008 C 1189.68 -4.58666 -2.49846 0
M  V30 13009 H 1191.37 -2.75087 -1.18185 0
M  V30 13010 H 1188.92 -1.32363 -0.567101 0
M  V30 13011 H 1190.87 -2.2456 -3.56582 0
M  V30 13012 H 1189.59 -1.10459 -3.07354 0
M  V30 13013 H 1188.25 -3.00318 -2.10249 0
M  V30 13014 H 1187.9 -2.29599 -4.47541 0
M  V30 13015 H 1187.6 -4.03963 -4.26717 0
M  V30 13016 H 1189.12 -3.48296 -5.0152 0
M  V30 13017 H 1190.54 -4.78668 -3.15516 0
M  V30 13018 H 1188.94 -5.3884 -2.64144 0
M  V30 13019 H 1190.01 -4.62697 -1.4505 0
M  V30 13020 N 1191.35 0.610423 -1.45298 0
M  V30 13021 C 1192.58 1.39621 -1.52688 0
M  V30 13022 C 1192.99 1.88133 -0.158535 0
M  V30 13023 O 1192.35 1.62051 0.839396 0
M  V30 13024 C 1192.4 2.60261 -2.50891 0
M  V30 13025 O 1192.12 2.13766 -3.82408 0
M  V30 13026 C 1193.62 3.53154 -2.6795 0
M  V30 13027 H 1190.84 0.427493 -0.517195 0
M  V30 13028 H 1193.39 0.744701 -1.90459 0
M  V30 13029 H 1191.54 3.2146 -2.162 0
M  V30 13030 H 1191.95 2.92128 -4.35616 0
M  V30 13031 H 1193.43 4.34355 -3.40647 0
M  V30 13032 H 1193.91 4.03311 -1.73888 0
M  V30 13033 H 1194.51 2.9781 -3.03627 0
M  V30 13034 N 1192.83 1.32541 0.852676 0
M  V30 13035 C 1193.79 1.21578 1.94297 0
M  V30 13036 C 1194.79 0.138318 1.60204 0
M  V30 13037 O 1195.98 0.388864 1.69804 0
M  V30 13038 C 1193.11 0.870209 3.29606 0
M  V30 13039 H 1194.3 2.18476 2.05446 0
M  V30 13040 H 1191.86 1.16401 1.0431 0
M  V30 13041 H 1192.59 -0.0968698 3.24155 0
M  V30 13042 H 1192.38 1.64924 3.55728 0
M  V30 13043 H 1193.87 0.817874 4.09513 0
M  V30 13044 N 1194.3 -1.0692 1.15784 0
M  V30 13045 C 1195.24 -2.13637 0.802141 0
M  V30 13046 C 1196.22 -1.61058 -0.223384 0
M  V30 13047 O 1197.4 -1.88185 -0.108927 0
M  V30 13048 C 1194.53 -3.38146 0.193568 0
M  V30 13049 C 1193.57 -4.09513 1.19169 0
M  V30 13050 S 1194.41 -4.60351 2.73564 0
M  V30 13051 C 1195.56 -5.88129 2.14138 0
M  V30 13052 H 1195.79 -2.4348 1.70601 0
M  V30 13053 H 1193.33 -1.19259 0.980646 0
M  V30 13054 H 1195.29 -4.10222 -0.151106 0
M  V30 13055 H 1193.95 -3.06473 -0.687968 0
M  V30 13056 H 1193.14 -4.98914 0.714183 0
M  V30 13057 H 1192.74 -3.43422 1.48113 0
M  V30 13058 H 1195.03 -6.60547 1.50614 0
M  V30 13059 H 1195.98 -6.406 3.01724 0
M  V30 13060 H 1196.38 -5.41859 1.5827 0
M  V30 13061 N 1195.78 -0.955326 -1.25345 0
M  V30 13062 C 1196.73 -0.474888 -2.25862 0
M  V30 13063 C 1197.7 0.472996 -1.59223 0
M  V30 13064 O 1198.88 0.386094 -1.86853 0
M  V30 13065 C 1196.02 0.240554 -3.44261 0
M  V30 13066 C 1195.14 -0.74465 -4.25534 0
M  V30 13067 C 1194.27 -0.00657513 -5.312 0
M  V30 13068 C 1193.31 -0.982666 -6.04161 0
M  V30 13069 N 1192.45 -0.275418 -7.0156 0
M  V30 13070 H 1197.29 -1.33693 -2.66327 0
M  V30 13071 H 1194.83 -0.670439 -1.30933 0
M  V30 13072 H 1196.78 0.671933 -4.11753 0
M  V30 13073 H 1195.41 1.06664 -3.04668 0
M  V30 13074 H 1194.47 -1.29451 -3.57696 0
M  V30 13075 H 1195.78 -1.48948 -4.76042 0
M  V30 13076 H 1194.93 0.483404 -6.04771 0
M  V30 13077 H 1193.67 0.771035 -4.81567 0
M  V30 13078 H 1192.68 -1.48364 -5.29404 0
M  V30 13079 H 1193.9 -1.76052 -6.55883 0
M  V30 13080 H 1191.85 0.483441 -6.54216 0
M  V30 13081 H 1191.76 -0.959324 -7.49889 0
M  V30 13082 H 1193.03 0.193002 -7.79261 0
M  V30 13083 N 1197.26 1.39987 -0.723979 0
M  V30 13084 C 1198.51 2.01028 -0.267511 0
M  V30 13085 C 1198.84 1.57295 1.13894 0
M  V30 13086 O 1198.12 0.796805 1.7743 0
M  V30 13087 C 1198.4 3.58326 -0.356971 0
M  V30 13088 C 1198.25 4.12109 -1.8024 0
M  V30 13089 C 1199.57 4.39289 0.267003 0
M  V30 13090 H 1196.69 0.730364 -0.0986775 0
M  V30 13091 H 1199.33 1.66348 -0.91806 0
M  V30 13092 H 1197.48 3.88001 0.196908 0
M  V30 13093 H 1199.15 3.93199 -2.41231 0
M  V30 13094 H 1197.4 3.66082 -2.32737 0
M  V30 13095 H 1198.07 5.21261 -1.81634 0
M  V30 13096 H 1200.54 4.15595 -0.20503 0
M  V30 13097 H 1199.42 5.48624 0.174004 0
M  V30 13098 H 1199.68 4.20931 1.35164 0
M  V30 13099 N 1198.74 0.470782 1.50404 0
M  V30 13100 C 1199.67 -0.313458 2.31386 0
M  V30 13101 C 1200.65 -0.990623 1.38278 0
M  V30 13102 O 1201.84 -0.987854 1.67198 0
M  V30 13103 C 1198.97 -1.39599 3.18009 0
M  V30 13104 C 1197.92 -0.840443 4.19667 0
M  V30 13105 C 1197.25 -2.02124 4.95025 0
M  V30 13106 C 1198.55 0.148055 5.2209 0
M  V30 13107 H 1200.24 0.362432 2.97198 0
M  V30 13108 H 1197.79 0.175745 1.42924 0
M  V30 13109 H 1199.74 -1.9521 3.73458 0
M  V30 13110 H 1198.46 -2.10064 2.50081 0
M  V30 13111 H 1197.12 -0.306302 3.65318 0
M  V30 13112 H 1196.77 -2.71286 4.23571 0
M  V30 13113 H 1196.47 -1.65574 5.6379 0
M  V30 13114 H 1197.99 -2.58226 5.5331 0
M  V30 13115 H 1199.41 -0.318874 5.72413 0
M  V30 13116 H 1197.8 0.427811 5.98573 0
M  V30 13117 H 1198.87 1.07404 4.72855 0
M  V30 13118 N 1200.22 -1.56282 0.203376 0
M  V30 13119 C 1201.15 -2.16714 -0.74616 0
M  V30 13120 C 1202.16 -1.13121 -1.17079 0
M  V30 13121 O 1203.35 -1.40179 -1.10509 0
M  V30 13122 C 1200.45 -2.72115 -2.02007 0
M  V30 13123 C 1199.62 -4.00695 -1.75391 0
M  V30 13124 C 1198.68 -4.40839 -2.8731 0
M  V30 13125 O 1197.71 -5.081 -2.56561 0
M  V30 13126 N 1198.91 -4.05024 -4.15856 0
M  V30 13127 H 1201.68 -2.98821 -0.229326 0
M  V30 13128 H 1199.24 -1.61885 0.0217049 0
M  V30 13129 H 1201.23 -2.95951 -2.76035 0
M  V30 13130 H 1199.8 -1.94415 -2.44789 0
M  V30 13131 H 1199.02 -3.84905 -0.851 0
M  V30 13132 H 1200.31 -4.8461 -1.55017 0
M  V30 13133 H 1199.71 -3.50938 -4.43688 0
M  V30 13134 H 1198.26 -4.33792 -4.86485 0
M  V30 13135 N 1201.7 0.070167 -1.57444 0
M  V30 13136 C 1203.11 0.424991 -1.53838 0
M  V30 13137 C 1203.31 1.79076 -0.923793 0
M  V30 13138 O 1202.37 2.46939 -0.527002 0
M  V30 13139 C 1203.68 0.364562 -2.98482 0
M  V30 13140 C 1205.23 0.444631 -3.09826 0
M  V30 13141 C 1205.7 0.414093 -4.56124 0
M  V30 13142 N 1207.19 0.474119 -4.60767 0
M  V30 13143 C 1207.93 0.472729 -5.71448 0
M  V30 13144 N 1207.43 0.426059 -6.91489 0
M  V30 13145 N 1209.22 0.519408 -5.59695 0
M  V30 13146 H 1201.37 -0.824117 -1.9576 0
M  V30 13147 H 1203.63 -0.309401 -0.896089 0
M  V30 13148 H 1203.34 -0.572343 -3.47012 0
M  V30 13149 H 1203.21 1.17414 -3.5846 0
M  V30 13150 H 1205.6 1.37196 -2.61269 0
M  V30 13151 H 1205.68 -0.393547 -2.52755 0
M  V30 13152 H 1205.32 -0.509394 -5.05339 0
M  V30 13153 H 1205.25 1.26983 -5.11061 0
M  V30 13154 H 1207.75 0.514371 -3.74383 0
M  V30 13155 H 1208.06 0.428969 -7.71609 0
M  V30 13156 H 1206.4 0.392722 -6.9389 0
M  V30 13157 H 1209.59 0.553573 -4.64815 0
M  V30 13158 H 1209.77 0.514856 -6.45951 0
M  V30 13159 N 1203.17 1.53854 0.341593 0
M  V30 13160 C 1204.12 1.8268 1.43982 0
M  V30 13161 C 1205.12 0.697415 1.54378 0
M  V30 13162 O 1206.32 0.880785 1.56978 0
M  V30 13163 H 1202.7 0.578788 0.480113 0
M  V30 13164 H 1204.67 2.74556 1.16884 0
M  V30 13165 C 1203.42 2.05496 2.80476 0
M  V30 13166 H 1202.74 2.91852 2.73244 0
M  V30 13167 H 1204.18 2.2963 3.56435 0
M  V30 13168 C 1202.64 0.841061 3.26233 0
M  V30 13169 O 1203.17 0.0414376 4.01679 0
M  V30 13170 N 1201.37 0.657736 2.83059 0
M  V30 13171 H 1200.92 1.30962 2.21826 0
M  V30 13172 H 1200.88 -0.153003 3.14027 0
M  V30 13173 N 1204.65 -0.602709 1.4562 0
M  V30 13174 C 1205.89 -1.37284 1.51435 0
M  V30 13175 C 1206.26 -1.9138 0.154148 0
M  V30 13176 O 1207.46 -2.68659 0.0870009 0
M  V30 13177 C 1205.73 -2.48651 2.56724 0
M  V30 13178 S 1207.29 -3.36354 2.818 0
M  V30 13179 H 1204.1 -0.46798 0.535272 0
M  V30 13180 H 1206.71 -0.694957 1.82731 0
M  V30 13181 H 1205.41 -2.07267 3.54215 0
M  V30 13182 H 1204.94 -3.21234 2.27095 0
M  V30 13183 H 1206.96 -4.46937 2.15549 0
M  V30 13184 N 1206.13 -1.32992 -0.845635 0
M  V30 13185 C 1207.09 -1.22607 -1.9365 0
M  V30 13186 C 1208.09 -0.146812 -1.60128 0
M  V30 13187 O 1209.28 -0.397863 -1.69596 0
M  V30 13188 C 1206.41 -0.887677 -3.2914 0
M  V30 13189 H 1207.61 -2.19563 -2.04285 0
M  V30 13190 H 1205.16 -1.16952 -1.03691 0
M  V30 13191 H 1205.9 0.0796777 -3.24202 0
M  V30 13192 H 1205.68 -1.66808 -3.54849 0
M  V30 13193 H 1207.17 -0.83958 -4.09073 0
M  V30 13194 N 1207.61 1.06304 -1.1635 0
M  V30 13195 C 1208.57 2.11947 -0.872419 0
M  V30 13196 C 1209.57 1.60253 0.132534 0
M  V30 13197 O 1210.76 1.73922 -0.0983441 0
M  V30 13198 C 1207.89 3.39536 -0.304646 0
M  V30 13199 H 1209.09 2.39201 -1.80894 0
M  V30 13200 H 1206.64 1.22367 -0.972419 0
M  V30 13201 H 1207.37 3.17931 0.639565 0
M  V30 13202 H 1207.16 3.78363 -1.02878 0
M  V30 13203 H 1208.65 4.17431 -0.118936 0
M  V30 13204 N 1209.09 0.96196 1.24836 0
M  V30 13205 C 1210.32 0.637214 1.96528 0
M  V30 13206 C 1210.72 -0.79638 1.71623 0
M  V30 13207 O 1210.07 -1.54524 0.993372 0
M  V30 13208 C 1210.13 0.824972 3.49906 0
M  V30 13209 C 1209.79 2.23711 3.985 0
M  V30 13210 C 1210.79 3.21439 4.08623 0
M  V30 13211 C 1208.47 2.56327 4.31974 0
M  V30 13212 C 1210.47 4.49872 4.51546 0
M  V30 13213 C 1208.16 3.84987 4.74582 0
M  V30 13214 C 1209.15 4.81572 4.84332 0
M  V30 13215 O 1208.84 6.07938 5.25991 0
M  V30 13216 H 1208.57 0.237214 0.633013 0
M  V30 13217 H 1211.13 1.29081 1.59773 0
M  V30 13218 H 1209.36 0.114219 3.86531 0
M  V30 13219 H 1211.05 0.500179 4.02806 0
M  V30 13220 H 1211.81 2.97569 3.82985 0
M  V30 13221 H 1207.69 1.81872 4.23608 0
M  V30 13222 H 1211.24 5.25261 4.59071 0
M  V30 13223 H 1207.13 4.08661 4.99666 0
M  V30 13224 H 1207.9 6.11421 5.44157 0
M  V30 13225 N 1210.56 -1.39601 0.731392 0
M  V30 13226 C 1211.49 -2.33268 0.1041 0
M  V30 13227 C 1212.47 -1.53724 -0.728219 0
M  V30 13228 O 1213.66 -1.82131 -0.673933 0
M  V30 13229 C 1210.79 -3.37802 -0.806646 0
M  V30 13230 C 1209.74 -4.27928 -0.0787588 0
M  V30 13231 C 1209.07 -5.23131 -1.10628 0
M  V30 13232 C 1210.37 -5.11086 1.07651 0
M  V30 13233 H 1212.06 -2.85975 0.886496 0
M  V30 13234 H 1209.61 -1.375 0.427746 0
M  V30 13235 H 1211.56 -4.02278 -1.25499 0
M  V30 13236 H 1210.29 -2.83527 -1.62112 0
M  V30 13237 H 1208.95 -3.64926 0.349926 0
M  V30 13238 H 1208.59 -4.65152 -1.91422 0
M  V30 13239 H 1208.29 -5.84277 -0.624043 0
M  V30 13240 H 1209.82 -5.90483 -1.5544 0
M  V30 13241 H 1211.23 -5.68927 0.706781 0
M  V30 13242 H 1209.63 -5.81356 1.48814 0
M  V30 13243 H 1210.7 -4.46131 1.89988 0
M  V30 13244 N 1212.04 -0.478751 -1.50152 0
M  V30 13245 C 1212.99 0.311426 -2.28689 0
M  V30 13246 C 1213.96 0.980375 -1.34082 0
M  V30 13247 O 1215.14 0.991337 -1.63025 0
M  V30 13248 C 1212.28 1.38302 -3.16175 0
M  V30 13249 C 1211.4 0.728084 -4.2582 0
M  V30 13250 C 1210.53 1.77822 -5.00552 0
M  V30 13251 C 1209.57 1.10395 -6.02063 0
M  V30 13252 N 1208.71 2.09728 -6.70044 0
M  V30 13253 H 1213.55 -0.364592 -2.95761 0
M  V30 13254 H 1211.09 -0.191645 -1.45846 0
M  V30 13255 H 1213.04 2.01606 -3.65255 0
M  V30 13256 H 1211.67 2.0281 -2.51133 0
M  V30 13257 H 1210.73 -0.0177026 -3.80396 0
M  V30 13258 H 1212.04 0.196209 -4.98414 0
M  V30 13259 H 1211.19 2.48687 -5.53389 0
M  V30 13260 H 1209.93 2.34392 -4.27682 0
M  V30 13261 H 1208.94 0.38096 -5.48479 0
M  V30 13262 H 1210.16 0.545045 -6.76909 0
M  V30 13263 H 1208.11 2.65301 -5.9996 0
M  V30 13264 H 1208.02 1.61546 -7.38538 0
M  V30 13265 H 1209.29 2.7995 -7.27495 0
M  V30 13266 N 1213.52 1.56172 -0.211661 0
M  V30 13267 C 1214.45 2.22843 0.697375 0
M  V30 13268 C 1215.43 1.19689 1.20866 0
M  V30 13269 O 1216.62 1.48245 1.25447 0
M  V30 13270 C 1213.75 2.90067 1.90993 0
M  V30 13271 C 1212.7 3.99608 1.5329 0
M  V30 13272 C 1212.03 4.54078 2.82343 0
M  V30 13273 C 1213.33 5.17169 0.730333 0
M  V30 13274 H 1215.02 2.99065 0.141533 0
M  V30 13275 H 1212.57 1.43846 0.0666337 0
M  V30 13276 H 1214.52 3.35396 2.55123 0
M  V30 13277 H 1213.24 2.11276 2.49058 0
M  V30 13278 H 1211.9 3.54995 0.915115 0
M  V30 13279 H 1211.55 3.72029 3.38531 0
M  V30 13280 H 1211.25 5.28001 2.57853 0
M  V30 13281 H 1212.77 5.02119 3.47432 0
M  V30 13282 H 1214.19 5.5894 1.2751 0
M  V30 13283 H 1212.59 5.97262 0.582916 0
M  V30 13284 H 1213.66 4.84174 -0.265157 0
M  V30 13285 N 1215 -0.0618163 1.57479 0
M  V30 13286 C 1216.41 -0.416827 1.54061 0
M  V30 13287 C 1216.61 -1.78584 0.933277 0
M  V30 13288 O 1215.67 -2.46656 0.54009 0
M  V30 13289 C 1216.98 -0.348728 2.98671 0
M  V30 13290 C 1218.53 -0.428194 3.10057 0
M  V30 13291 C 1219.01 -0.389898 4.56337 0
M  V30 13292 N 1220.5 -0.449677 4.61012 0
M  V30 13293 C 1221.23 -0.442418 5.71691 0
M  V30 13294 N 1220.73 -0.389381 6.91705 0
M  V30 13295 N 1222.52 -0.489719 5.59963 0
M  V30 13296 H 1214.67 0.834487 1.9532 0
M  V30 13297 H 1216.94 0.314149 0.894435 0
M  V30 13298 H 1216.64 0.590738 3.46703 0
M  V30 13299 H 1216.52 -1.15511 3.59078 0
M  V30 13300 H 1218.9 -1.35808 2.61992 0
M  V30 13301 H 1218.98 0.406946 2.52542 0
M  V30 13302 H 1218.63 0.536186 5.05062 0
M  V30 13303 H 1218.56 -1.24271 5.11727 0
M  V30 13304 H 1221.05 -0.49451 3.74651 0
M  V30 13305 H 1221.36 -0.388042 7.71825 0
M  V30 13306 H 1219.71 -0.355918 6.94088 0
M  V30 13307 H 1222.9 -0.528915 4.65102 0
M  V30 13308 H 1223.07 -0.480592 6.46215 0
M  V30 13309 N 1216.48 -1.54033 -0.333429 0
M  V30 13310 C 1217.42 -1.83441 -1.43011 0
M  V30 13311 C 1218.42 -0.705592 -1.54006 0
M  V30 13312 O 1219.62 -0.889098 -1.56509 0
M  V30 13313 H 1216 -0.581326 -0.477037 0
M  V30 13314 H 1217.97 -2.75172 -1.15426 0
M  V30 13315 C 1216.72 -2.0698 -2.79382 0
M  V30 13316 H 1216.04 -2.93297 -2.71692 0
M  V30 13317 H 1217.48 -2.31517 -3.55212 0
M  V30 13318 C 1215.94 -0.85835 -3.25782 0
M  V30 13319 O 1216.47 -0.062739 -4.01651 0
M  V30 13320 N 1214.68 -0.672738 -2.82706 0
M  V30 13321 H 1214.22 -1.32136 -2.21128 0
M  V30 13322 H 1214.18 0.136347 -3.14104 0
M  V30 13323 N 1217.95 0.594978 -1.45938 0
M  V30 13324 C 1219.2 1.35356 -1.51823 0
M  V30 13325 C 1219.56 1.91711 -0.162721 0
M  V30 13326 O 1218.85 1.72831 0.827047 0
M  V30 13327 C 1219.04 2.51129 -2.54301 0
M  V30 13328 C 1218.87 2.06113 -3.99684 0
M  V30 13329 C 1217.64 1.91698 -4.67525 0
M  V30 13330 C 1219.84 1.62817 -4.87848 0
M  V30 13331 N 1217.82 1.40625 -5.97577 0
M  V30 13332 C 1219.19 1.23248 -6.07626 0
M  V30 13333 C 1221.25 1.50523 -4.74602 0
M  V30 13334 C 1219.95 0.726124 -7.15626 0
M  V30 13335 C 1221.98 1.0129 -5.82661 0
M  V30 13336 C 1221.34 0.626938 -7.01604 0
M  V30 13337 H 1217.44 0.488744 -0.610454 0
M  V30 13338 H 1220.02 0.678804 -1.82484 0
M  V30 13339 H 1218.19 3.16184 -2.25571 0
M  V30 13340 H 1219.92 3.18046 -2.50257 0
M  V30 13341 H 1216.68 2.1327 -4.22863 0
M  V30 13342 H 1217.1 1.17285 -6.66763 0
M  V30 13343 H 1221.75 1.78985 -3.83046 0
M  V30 13344 H 1219.46 0.429069 -8.0696 0
M  V30 13345 H 1223.05 0.921864 -5.7445 0
M  V30 13346 H 1221.93 0.251849 -7.83795 0
M  V30 13347 N 1219.43 1.33438 0.838571 0
M  V30 13348 C 1220.36 1.19552 1.9555 0
M  V30 13349 C 1221.38 0.12642 1.62308 0
M  V30 13350 O 1222.57 0.376868 1.74476 0
M  V30 13351 C 1219.67 0.811273 3.29046 0
M  V30 13352 C 1218.84 1.97207 3.9042 0
M  V30 13353 C 1217.9 1.56875 5.02271 0
M  V30 13354 O 1216.92 2.28314 5.21403 0
M  V30 13355 N 1218.13 0.473924 5.78562 0
M  V30 13356 H 1220.89 2.15769 2.07999 0
M  V30 13357 H 1218.45 1.26187 1.01432 0
M  V30 13358 H 1220.44 0.523553 4.01299 0
M  V30 13359 H 1219.01 -0.0602291 3.12542 0
M  V30 13360 H 1218.23 2.4254 3.10754 0
M  V30 13361 H 1219.52 2.74878 4.28158 0
M  V30 13362 H 1218.92 -0.120306 5.65572 0
M  V30 13363 H 1217.48 0.245877 6.51336 0
M  V30 13364 N 1220.91 -1.05686 1.16912 0
M  V30 13365 C 1222.16 -1.79006 0.965835 0
M  V30 13366 C 1222.51 -1.85774 -0.500593 0
M  V30 13367 O 1221.8 -1.34282 -1.3667 0
M  V30 13368 C 1222 -3.22779 1.53455 0
M  V30 13369 C 1221.83 -3.30023 3.05474 0
M  V30 13370 C 1220.6 -3.396 3.74166 0
M  V30 13371 C 1222.8 -3.19376 4.03117 0
M  V30 13372 N 1220.78 -3.35923 5.13838 0
M  V30 13373 C 1222.15 -3.23013 5.2921 0
M  V30 13374 C 1224.2 -3.03304 3.94856 0
M  V30 13375 C 1222.91 -3.12228 6.48002 0
M  V30 13376 C 1224.93 -2.93859 5.13226 0
M  V30 13377 C 1224.29 -2.98124 6.38202 0
M  V30 13378 H 1220.39 -0.667577 0.407266 0
M  V30 13379 H 1222.98 -1.26025 1.48411 0
M  V30 13380 H 1221.15 -3.74143 1.04268 0
M  V30 13381 H 1222.88 -3.8431 1.26839 0
M  V30 13382 H 1219.64 -3.44654 3.24824 0
M  V30 13383 H 1220.06 -3.37567 5.86837 0
M  V30 13384 H 1224.7 -2.98848 2.99081 0
M  V30 13385 H 1222.42 -3.15439 7.43992 0
M  V30 13386 H 1226.01 -2.82501 5.0861 0
M  V30 13387 H 1224.89 -2.90882 7.28256 0
M  V30 13388 N 1222.39 -0.968567 -1.24324 0
M  V30 13389 C 1223.63 -0.641458 -1.9302 0
M  V30 13390 C 1223.99 0.814553 -1.74307 0
M  V30 13391 O 1223.28 1.57848 -1.08603 0
M  V30 13392 C 1223.48 -0.952762 -3.44467 0
M  V30 13393 C 1223.31 -2.43748 -3.77911 0
M  V30 13394 C 1222.08 -3.09746 -3.99231 0
M  V30 13395 C 1224.27 -3.4176 -3.84324 0
M  V30 13396 N 1222.26 -4.47947 -4.19782 0
M  V30 13397 C 1223.63 -4.65321 -4.09728 0
M  V30 13398 C 1225.68 -3.36406 -3.67064 0
M  V30 13399 C 1224.38 -5.84186 -4.19665 0
M  V30 13400 C 1226.41 -4.54624 -3.78248 0
M  V30 13401 C 1225.77 -5.76976 -4.04077 0
M  V30 13402 H 1221.87 -0.285584 -0.727987 0
M  V30 13403 H 1224.46 -1.2436 -1.49808 0
M  V30 13404 H 1222.63 -0.379421 -3.86542 0
M  V30 13405 H 1224.36 -0.584137 -4.00462 0
M  V30 13406 H 1221.11 -2.60274 -3.95669 0
M  V30 13407 H 1221.54 -5.19559 -4.34036 0
M  V30 13408 H 1226.18 -2.42847 -3.461 0
M  V30 13409 H 1223.9 -6.78172 -4.3944 0
M  V30 13410 H 1227.48 -4.52043 -3.66262 0
M  V30 13411 H 1226.36 -6.66925 -4.1253 0
M  V30 13412 N 1223.87 1.39211 -0.738786 0
M  V30 13413 C 1225.28 1.54116 -0.414773 0
M  V30 13414 C 1225.48 1.70497 1.07392 0
M  V30 13415 O 1224.54 1.7076 1.86003 0
M  V30 13416 C 1225.85 2.7567 -1.2011 0
M  V30 13417 C 1227.4 2.89508 -1.1897 0
M  V30 13418 C 1227.87 4.14005 -1.95868 0
M  V30 13419 N 1229.37 4.21052 -1.93053 0
M  V30 13420 C 1230.1 5.16341 -2.49358 0
M  V30 13421 N 1229.6 6.17396 -3.14316 0
M  V30 13422 N 1231.39 5.08585 -2.3937 0
M  V30 13423 H 1223.54 1.26827 -1.70378 0
M  V30 13424 H 1225.8 0.614983 -0.721457 0
M  V30 13425 H 1225.51 2.69922 -2.25467 0
M  V30 13426 H 1225.38 3.68443 -0.808065 0
M  V30 13427 H 1227.77 2.94747 -0.144248 0
M  V30 13428 H 1227.85 1.97788 -1.62214 0
M  V30 13429 H 1227.5 4.09527 -3.00416 0
M  V30 13430 H 1227.43 5.04776 -1.50028 0
M  V30 13431 H 1229.92 3.48669 -1.45733 0
M  V30 13432 H 1230.23 6.86572 -3.54737 0
M  V30 13433 H 1228.57 6.17772 -3.18407 0
M  V30 13434 H 1231.77 4.28573 -1.88262 0
M  V30 13435 H 1231.94 5.8267 -2.83549 0
M  V30 13436 N 1225.34 0.486708 1.49896 0
M  V30 13437 C 1226.27 -0.288898 2.31706 0
M  V30 13438 C 1227.26 -0.975901 1.3932 0
M  V30 13439 O 1228.44 -0.970065 1.68236 0
M  V30 13440 C 1225.57 -1.36218 3.19471 0
M  V30 13441 C 1224.52 -0.795884 4.20535 0
M  V30 13442 C 1223.85 -1.96862 4.97141 0
M  V30 13443 C 1225.15 0.203421 5.21904 0
M  V30 13444 H 1226.84 0.393934 2.96797 0
M  V30 13445 H 1224.39 0.190894 1.42729 0
M  V30 13446 H 1226.34 -1.91238 3.75508 0
M  V30 13447 H 1225.07 -2.074 2.52295 0
M  V30 13448 H 1223.73 -0.267538 3.65622 0
M  V30 13449 H 1223.37 -2.66779 4.26425 0
M  V30 13450 H 1223.07 -1.59585 5.65514 0
M  V30 13451 H 1224.6 -2.52343 5.56017 0
M  V30 13452 H 1226.01 -0.258144 5.72719 0
M  V30 13453 H 1224.41 0.491273 5.98086 0
M  V30 13454 H 1225.48 1.12414 4.7169 0
M  V30 13455 N 1226.82 -1.56058 0.219941 0
M  V30 13456 C 1228.07 -1.9826 -0.412197 0
M  V30 13457 C 1228.4 -1.10754 -1.59887 0
M  V30 13458 O 1227.65 -0.15212 -1.95108 0
M  V30 13459 C 1227.95 -3.46113 -0.8911 0
M  V30 13460 C 1227.62 -4.50521 0.184877 0
M  V30 13461 C 1226.28 -4.78795 0.480462 0
M  V30 13462 C 1228.63 -5.13147 0.912652 0
M  V30 13463 C 1225.96 -5.66979 1.50837 0
M  V30 13464 C 1228.31 -6.02444 1.92988 0
M  V30 13465 C 1226.98 -6.29063 2.2324 0
M  V30 13466 H 1226.25 -0.725486 -0.150834 0
M  V30 13467 H 1228.89 -1.88771 0.322122 0
M  V30 13468 H 1227.2 -3.52797 -1.70415 0
M  V30 13469 H 1228.9 -3.76137 -1.39003 0
M  V30 13470 H 1225.49 -4.28564 -0.0556594 0
M  V30 13471 H 1229.67 -4.91374 0.697532 0
M  V30 13472 H 1224.93 -5.85868 1.74839 0
M  V30 13473 H 1229.1 -6.50022 2.49889 0
M  V30 13474 H 1226.73 -6.97191 3.03032 0
M  V30 13475 N 1228.3 0.053464 -1.57509 0
M  V30 13476 C 1229.53 0.761533 -1.92375 0
M  V30 13477 C 1229.94 1.70179 -0.817585 0
M  V30 13478 O 1229.3 1.81313 0.207843 0
M  V30 13479 C 1229.35 1.53954 -3.27078 0
M  V30 13480 O 1229.07 0.637054 -4.33443 0
M  V30 13481 C 1230.57 2.34697 -3.76075 0
M  V30 13482 H 1227.79 0.215483 -0.635459 0
M  V30 13483 H 1230.34 0.0182624 -2.04492 0
M  V30 13484 H 1228.49 2.23492 -3.16434 0
M  V30 13485 H 1228.91 1.18006 -5.11053 0
M  V30 13486 H 1230.38 2.84716 -4.72906 0
M  V30 13487 H 1230.86 3.15041 -3.06016 0
M  V30 13488 H 1231.46 1.70281 -3.89724 0
M  V30 13489 N 1229.78 1.54207 0.325255 0
M  V30 13490 C 1230.73 1.83474 1.40021 0
M  V30 13491 C 1231.7 0.681719 1.51466 0
M  V30 13492 O 1232.88 0.92798 1.66713 0
M  V30 13493 C 1230.02 2.06624 2.76407 0
M  V30 13494 C 1229.13 3.3431 2.73607 0
M  V30 13495 C 1228.27 3.4743 4.01828 0
M  V30 13496 C 1227.31 4.68997 3.93329 0
M  V30 13497 N 1226.45 4.79052 5.13277 0
M  V30 13498 H 1231.29 2.75182 1.14363 0
M  V30 13499 H 1228.82 1.36284 0.553639 0
M  V30 13500 H 1230.78 2.18037 3.5569 0
M  V30 13501 H 1229.41 1.18209 3.00377 0
M  V30 13502 H 1228.46 3.31643 1.86324 0
M  V30 13503 H 1229.77 4.237 2.6321 0
M  V30 13504 H 1228.93 3.58376 4.89542 0
M  V30 13505 H 1227.67 2.56128 4.1503 0
M  V30 13506 H 1226.67 4.58109 3.04 0
M  V30 13507 H 1227.9 5.61681 3.81695 0
M  V30 13508 H 1225.84 3.90666 5.26988 0
M  V30 13509 H 1225.76 5.62406 5.05208 0
M  V30 13510 H 1227.03 4.94328 6.02711 0
M  V30 13511 N 1231.26 -0.58723 1.46251 0
M  V30 13512 C 1232.5 -1.3476 1.51551 0
M  V30 13513 C 1232.84 -1.93499 0.16483 0
M  V30 13514 O 1232.11 -1.7622 -0.823207 0
M  V30 13515 C 1232.39 -2.48033 2.61059 0
M  V30 13516 C 1232.25 -1.94358 4.05642 0
M  V30 13517 C 1233.57 -3.50096 2.66685 0
M  V30 13518 H 1230.69 -0.48863 0.551733 0
M  V30 13519 H 1233.33 -0.660097 1.78165 0
M  V30 13520 H 1231.48 -3.06679 2.38496 0
M  V30 13521 H 1233.15 -1.40204 4.39478 0
M  V30 13522 H 1231.39 -1.25217 4.15335 0
M  V30 13523 H 1232.06 -2.76105 4.77986 0
M  V30 13524 H 1234.54 -3.01324 2.86955 0
M  V30 13525 H 1233.42 -4.26817 3.45135 0
M  V30 13526 H 1233.68 -4.07032 1.7256 0
M  V30 13527 N 1232.74 -1.33881 -0.831482 0
M  V30 13528 C 1233.68 -1.24748 -1.94182 0
M  V30 13529 C 1234.65 -0.124516 -1.65633 0
M  V30 13530 O 1235.84 -0.304045 -1.88362 0
M  V30 13531 C 1232.98 -1.00016 -3.30289 0
M  V30 13532 C 1232.09 -2.21007 -3.71187 0
M  V30 13533 C 1231.23 -1.89629 -4.962 0
M  V30 13534 C 1230.26 -3.06811 -5.29654 0
M  V30 13535 N 1229.4 -2.75372 -6.45844 0
M  V30 13536 H 1234.24 -2.19709 -2.01325 0
M  V30 13537 H 1231.78 -1.09245 -0.985081 0
M  V30 13538 H 1233.74 -0.837167 -4.08714 0
M  V30 13539 H 1232.37 -0.0872582 -3.22682 0
M  V30 13540 H 1231.42 -2.48256 -2.88224 0
M  V30 13541 H 1232.73 -3.08587 -3.91887 0
M  V30 13542 H 1231.88 -1.70016 -5.82391 0
M  V30 13543 H 1230.62 -0.992964 -4.77485 0
M  V30 13544 H 1229.63 -3.27029 -4.41964 0
M  V30 13545 H 1230.85 -3.97909 -5.50314 0
M  V30 13546 H 1228.8 -1.87607 -6.28601 0
M  V30 13547 H 1228.72 -3.56483 -6.66675 0
M  V30 13548 H 1229.98 -2.59244 -7.35128 0
M  V30 13549 N 1234.21 1.05064 -1.1747 0
M  V30 13550 C 1235.62 1.59547 -0.969628 0
M  V30 13551 C 1235.98 1.90153 0.483332 0
M  V30 13552 O 1235.1 1.68415 1.35887 0
M  V30 13553 C 1235.7 2.89877 -1.75377 0
M  V30 13554 C 1234.25 3.41013 -1.59332 0
M  V30 13555 C 1233.4 2.1473 -1.7546 0
M  V30 13556 H 1236.35 0.878595 -1.3216 0
M  V30 13557 H 1236.37 3.59834 -1.23691 0
M  V30 13558 H 1235.89 2.67569 -2.8112 0
M  V30 13559 H 1233.99 3.68355 -0.560827 0
M  V30 13560 H 1234.1 4.15512 -2.38509 0
M  V30 13561 H 1232.46 2.25553 -1.18313 0
M  V30 13562 H 1233.25 1.9489 -2.82618 0
M  V30 13563 N 1235.69 0.975146 1.23809 0
M  V30 13564 C 1236.62 0.530389 2.27396 0
M  V30 13565 C 1237.6 -0.433763 1.64476 0
M  V30 13566 O 1238.79 -0.32827 1.91405 0
M  V30 13567 C 1235.92 -0.173066 3.46869 0
M  V30 13568 C 1234.87 0.707844 4.22106 0
M  V30 13569 C 1234.2 -0.127527 5.34548 0
M  V30 13570 C 1235.5 1.99609 4.82652 0
M  V30 13571 H 1237.19 1.39622 2.64851 0
M  V30 13572 H 1234.74 0.672802 1.27316 0
M  V30 13573 H 1236.69 -0.495481 4.18477 0
M  V30 13574 H 1235.41 -1.0733 3.0846 0
M  V30 13575 H 1234.07 1.01364 3.52308 0
M  V30 13576 H 1233.72 -1.02814 4.9238 0
M  V30 13577 H 1233.42 0.458728 5.85807 0
M  V30 13578 H 1234.95 -0.444443 6.0898 0
M  V30 13579 H 1236.36 1.73878 5.46296 0
M  V30 13580 H 1234.76 2.52969 5.44175 0
M  V30 13581 H 1235.83 2.68629 4.03691 0
M  V30 13582 N 1237.17 -1.38817 0.746158 0
M  V30 13583 C 1238.1 -2.33144 0.128836 0
M  V30 13584 C 1239.08 -1.54487 -0.711873 0
M  V30 13585 O 1240.27 -1.82836 -0.654577 0
M  V30 13586 C 1237.4 -3.38639 -0.770772 0
M  V30 13587 C 1236.35 -4.27987 -0.0333669 0
M  V30 13588 C 1235.68 -5.24274 -1.05073 0
M  V30 13589 C 1236.98 -5.09915 1.13066 0
M  V30 13590 H 1238.67 -2.85019 0.916778 0
M  V30 13591 H 1236.22 -1.37039 0.442306 0
M  V30 13592 H 1238.17 -4.03587 -1.21225 0
M  V30 13593 H 1236.89 -2.8523 -1.59095 0
M  V30 13594 H 1235.55 -3.64534 0.388612 0
M  V30 13595 H 1235.2 -4.67156 -1.86478 0
M  V30 13596 H 1234.9 -5.84906 -0.562037 0
M  V30 13597 H 1236.42 -5.92099 -1.49169 0
M  V30 13598 H 1237.84 -5.68145 0.767084 0
M  V30 13599 H 1236.23 -5.79744 1.54972 0
M  V30 13600 H 1237.3 -4.4409 1.94709 0
M  V30 13601 N 1238.65 -0.49465 -1.49636 0
M  V30 13602 C 1239.58 0.323781 -2.26902 0
M  V30 13603 C 1240.59 0.936281 -1.33183 0
M  V30 13604 O 1241.78 0.820695 -1.58514 0
M  V30 13605 C 1238.88 1.47025 -3.05347 0
M  V30 13606 C 1238.05 0.966228 -4.26594 0
M  V30 13607 C 1237.11 1.98955 -4.87138 0
M  V30 13608 O 1236.14 1.56065 -5.47387 0
M  V30 13609 N 1237.34 3.3195 -4.76224 0
M  V30 13610 H 1240.11 -0.338716 -2.9778 0
M  V30 13611 H 1237.67 -0.326817 -1.58567 0
M  V30 13612 H 1239.66 2.15225 -3.42725 0
M  V30 13613 H 1238.23 2.03702 -2.37117 0
M  V30 13614 H 1237.45 0.109336 -3.94048 0
M  V30 13615 H 1238.74 0.607781 -5.05157 0
M  V30 13616 H 1238.14 3.69488 -4.28363 0
M  V30 13617 H 1236.69 3.95881 -5.17805 0
M  V30 13618 N 1240.13 1.55939 -0.228214 0
M  V30 13619 C 1241.37 1.9877 0.402272 0
M  V30 13620 C 1241.7 1.11587 1.5894 0
M  V30 13621 O 1240.98 0.175032 1.93711 0
M  V30 13622 C 1241.26 3.50396 0.830353 0
M  V30 13623 C 1241.12 4.4835 -0.360876 0
M  V30 13624 C 1242.43 4.06602 1.68413 0
M  V30 13625 H 1239.55 0.722646 0.144746 0
M  V30 13626 H 1242.2 1.87186 -0.325784 0
M  V30 13627 H 1240.35 3.60398 1.4507 0
M  V30 13628 H 1242.02 4.5035 -0.999113 0
M  V30 13629 H 1240.26 4.21946 -1.00719 0
M  V30 13630 H 1240.93 5.51997 -0.0183074 0
M  V30 13631 H 1243.41 3.99585 1.16064 0
M  V30 13632 H 1242.28 5.12998 1.95254 0
M  V30 13633 H 1242.54 3.53897 2.64971 0
M  V30 13634 N 1241.6 -0.0451101 1.57535 0
M  V30 13635 C 1242.83 -0.755068 1.93167 0
M  V30 13636 C 1243.25 -1.68949 0.826915 0
M  V30 13637 O 1242.61 -1.79978 -0.218534 0
M  V30 13638 C 1242.66 -1.50201 3.27829 0
M  V30 13639 O 1241.76 -2.61434 3.18945 0
M  V30 13640 H 1241.11 -0.204219 0.631815 0
M  V30 13641 H 1243.64 -0.00537504 2.04599 0
M  V30 13642 H 1243.65 -1.87547 3.6234 0
M  V30 13643 H 1242.32 -0.816591 4.07805 0
M  V30 13644 H 1240.9 -2.26749 2.96039 0
M  V30 13645 N 1243.08 -1.54377 -0.317073 0
M  V30 13646 C 1244.5 -1.45232 -0.6618 0
M  V30 13647 C 1244.7 -0.630457 -1.91383 0
M  V30 13648 O 1243.75 -0.13181 -2.52156 0
M  V30 13649 C 1245.07 -2.89025 -0.829761 0
M  V30 13650 C 1246.62 -2.98967 -0.926685 0
M  V30 13651 C 1247.09 -4.43923 -1.12677 0
M  V30 13652 N 1248.58 -4.47564 -1.19335 0
M  V30 13653 C 1249.32 -5.56887 -1.36617 0
M  V30 13654 N 1248.81 -6.76167 -1.50899 0
M  V30 13655 N 1250.61 -5.44546 -1.39377 0
M  V30 13656 H 1242.76 -2.0629 0.505766 0
M  V30 13657 H 1245.02 -0.933615 0.164522 0
M  V30 13658 H 1244.73 -3.51695 0.0190945 0
M  V30 13659 H 1244.6 -3.35515 -1.72364 0
M  V30 13660 H 1246.99 -2.36421 -1.76604 0
M  V30 13661 H 1247.07 -2.55798 -0.00913402 0
M  V30 13662 H 1246.71 -5.07059 -0.29224 0
M  V30 13663 H 1246.64 -4.84708 -2.05829 0
M  V30 13664 H 1249.13 -3.61623 -1.09715 0
M  V30 13665 H 1249.45 -7.55242 -1.63796 0
M  V30 13666 H 1247.79 -6.79062 -1.47985 0
M  V30 13667 H 1250.98 -4.50311 -1.27819 0
M  V30 13668 H 1251.15 -6.29799 -1.52502 0
M  V30 13669 N 1244.56 0.579466 -1.4656 0
M  V30 13670 C 1245.49 1.70291 -1.53406 0
M  V30 13671 C 1246.51 1.57232 -0.422116 0
M  V30 13672 O 1247.69 1.64598 -0.69064 0
M  V30 13673 C 1244.79 3.08572 -1.40131 0
M  V30 13674 C 1243.97 3.47602 -2.65502 0
M  V30 13675 C 1243.03 4.64955 -2.4638 0
M  V30 13676 O 1242.05 4.70653 -3.20116 0
M  V30 13677 N 1243.25 5.60041 -1.52756 0
M  V30 13678 H 1246.02 1.64873 -2.50274 0
M  V30 13679 H 1243.58 0.765533 -1.42658 0
M  V30 13680 H 1245.57 3.84877 -1.25106 0
M  V30 13681 H 1244.14 3.0834 -0.514322 0
M  V30 13682 H 1243.36 2.60969 -2.95446 0
M  V30 13683 H 1244.65 3.70446 -3.48779 0
M  V30 13684 H 1244.05 5.58176 -0.919587 0
M  V30 13685 H 1242.61 6.35764 -1.43693 0
M  V30 13686 N 1246.04 1.3432 0.824371 0
M  V30 13687 C 1246.95 1.27847 1.96704 0
M  V30 13688 C 1247.96 0.18641 1.72999 0
M  V30 13689 O 1249.14 0.412623 1.97128 0
M  V30 13690 C 1246.21 1.03231 3.30975 0
M  V30 13691 C 1245.27 2.21579 3.67697 0
M  V30 13692 C 1244.5 1.98128 4.95561 0
M  V30 13693 O 1244.72 0.938798 5.62621 0
M  V30 13694 O 1243.66 2.85041 5.30128 0
M  V30 13695 H 1247.48 2.23974 2.05108 0
M  V30 13696 H 1245.07 1.14512 0.959554 0
M  V30 13697 H 1246.95 0.912784 4.11395 0
M  V30 13698 H 1245.62 0.101425 3.23541 0
M  V30 13699 H 1244.53 2.3909 2.87727 0
M  V30 13700 H 1245.86 3.13052 3.79815 0
M  V30 13701 N 1247.52 -1.0444 1.18026 0
M  V30 13702 C 1248.43 -2.15862 0.918747 0
M  V30 13703 C 1249.44 -1.73614 -0.115808 0
M  V30 13704 O 1250.62 -2.01294 0.0652312 0
M  V30 13705 C 1247.68 -3.43846 0.443922 0
M  V30 13706 C 1246.74 -4.00497 1.54599 0
M  V30 13707 C 1245.98 -5.22373 1.09372 0
M  V30 13708 O 1246.2 -5.70379 -0.049085 0
M  V30 13709 O 1245.13 -5.71459 1.88992 0
M  V30 13710 H 1248.96 -2.40776 1.85097 0
M  V30 13711 H 1246.55 -1.14326 0.961769 0
M  V30 13712 H 1248.43 -4.20985 0.187017 0
M  V30 13713 H 1247.1 -3.20414 -0.460051 0
M  V30 13714 H 1246.01 -3.24764 1.85686 0
M  V30 13715 H 1247.34 -4.28262 2.42595 0
M  V30 13716 N 1248.99 -0.981699 -1.2329 0
M  V30 13717 C 1249.9 -0.531296 -2.28505 0
M  V30 13718 C 1250.92 0.414531 -1.6899 0
M  V30 13719 O 1252.1 0.284129 -1.99386 0
M  V30 13720 C 1249.16 0.157864 -3.4634 0
M  V30 13721 C 1248.22 -0.829527 -4.21209 0
M  V30 13722 C 1247.46 -0.17316 -5.33419 0
M  V30 13723 O 1247.68 1.03549 -5.60922 0
M  V30 13724 O 1246.61 -0.872385 -5.95544 0
M  V30 13725 H 1250.44 -1.40633 -2.69177 0
M  V30 13726 H 1248.02 -0.749395 -1.29246 0
M  V30 13727 H 1249.91 0.544394 -4.17869 0
M  V30 13728 H 1248.58 1.00764 -3.07617 0
M  V30 13729 H 1247.49 -1.26678 -3.51999 0
M  V30 13730 H 1248.82 -1.64815 -4.63785 0
M  V30 13731 N 1250.47 1.3842 -0.753509 0
M  V30 13732 C 1251.41 2.28079 -0.0741683 0
M  V30 13733 C 1252.38 1.45372 0.728398 0
M  V30 13734 O 1253.57 1.74737 0.707043 0
M  V30 13735 C 1250.69 3.26475 0.901764 0
M  V30 13736 C 1249.74 4.26097 0.185438 0
M  V30 13737 S 1250.57 5.23791 -1.11372 0
M  V30 13738 C 1251.73 6.25741 -0.140861 0
M  V30 13739 H 1251.96 2.85349 -0.834475 0
M  V30 13740 H 1249.5 1.4442 -0.546089 0
M  V30 13741 H 1251.45 3.83678 1.4595 0
M  V30 13742 H 1250.11 2.68189 1.63504 0
M  V30 13743 H 1249.31 4.95447 0.924578 0
M  V30 13744 H 1248.91 3.72789 -0.300772 0
M  V30 13745 H 1251.2 6.73945 0.693174 0
M  V30 13746 H 1252.14 7.03543 -0.80202 0
M  V30 13747 H 1252.55 5.6399 0.2398 0
M  V30 13748 N 1251.95 0.502579 1.49372 0
M  V30 13749 C 1252.88 -0.321683 2.25921 0
M  V30 13750 C 1253.86 -0.968999 1.30572 0
M  V30 13751 O 1255.05 -0.998788 1.59864 0
M  V30 13752 C 1252.17 -1.45318 3.05942 0
M  V30 13753 C 1251.22 -0.920076 4.16457 0
M  V30 13754 S 1252.05 0.190402 5.35161 0
M  V30 13755 C 1253.21 -0.944222 6.18737 0
M  V30 13756 H 1253.44 0.328036 2.95485 0
M  V30 13757 H 1250.97 0.287903 1.51692 0
M  V30 13758 H 1252.93 -2.1015 3.52629 0
M  V30 13759 H 1251.59 -2.07452 2.35844 0
M  V30 13760 H 1250.79 -1.76808 4.71969 0
M  V30 13761 H 1250.39 -0.348944 3.72369 0
M  V30 13762 H 1252.68 -1.8491 6.51778 0
M  V30 13763 H 1253.62 -0.42769 7.06807 0
M  V30 13764 H 1254.03 -1.21227 5.5133 0
M  V30 13765 N 1253.43 -1.55816 0.23648 0
M  V30 13766 C 1254.39 -2.1967 -0.654041 0
M  V30 13767 C 1255.39 -1.1629 -1.11056 0
M  V30 13768 O 1256.58 -1.41435 -1.01695 0
M  V30 13769 C 1253.71 -2.83196 -1.89771 0
M  V30 13770 H 1254.91 -2.99743 -0.0970911 0
M  V30 13771 H 1252.46 -1.56295 -0.013098 0
M  V30 13772 H 1253.19 -2.07033 -2.49616 0
M  V30 13773 H 1252.98 -3.58915 -1.57868 0
M  V30 13774 H 1254.47 -3.32095 -2.53184 0
M  V30 13775 N 1254.91 0.036755 -1.57557 0
M  V30 13776 C 1255.85 1.03975 -2.06053 0
M  V30 13777 C 1256.82 1.36384 -0.948089 0
M  V30 13778 O 1258.01 1.46853 -1.21815 0
M  V30 13779 C 1255.15 2.33796 -2.53837 0
M  V30 13780 C 1254.26 2.07614 -3.78841 0
M  V30 13781 C 1253.4 3.3125 -4.15267 0
M  V30 13782 C 1252.44 3.00587 -5.33211 0
M  V30 13783 N 1251.57 4.16653 -5.65106 0
M  V30 13784 H 1256.41 0.61924 -2.91495 0
M  V30 13785 H 1253.95 0.294151 -1.44129 0
M  V30 13786 H 1255.91 3.09639 -2.79606 0
M  V30 13787 H 1254.54 2.73584 -1.71323 0
M  V30 13788 H 1253.59 1.22302 -3.60203 0
M  V30 13789 H 1254.9 1.80989 -4.64806 0
M  V30 13790 H 1254.06 4.15466 -4.42123 0
M  V30 13791 H 1252.79 3.60981 -3.27939 0
M  V30 13792 H 1251.8 2.14772 -5.06115 0
M  V30 13793 H 1253.02 2.72142 -6.22186 0
M  V30 13794 H 1250.97 4.4635 -4.80737 0
M  V30 13795 H 1250.89 3.93425 -6.45564 0
M  V30 13796 H 1252.16 5.01764 -5.96534 0
M  V30 13797 N 1256.39 1.54543 0.308881 0
M  V30 13798 C 1257.3 1.87994 1.4034 0
M  V30 13799 C 1258.31 0.773294 1.55872 0
M  V30 13800 O 1259.49 1.069 1.70688 0
M  V30 13801 C 1256.55 2.11341 2.74838 0
M  V30 13802 C 1255.61 3.35086 2.68358 0
M  V30 13803 C 1254.85 3.5731 3.96441 0
M  V30 13804 O 1255.07 2.82692 4.9542 0
M  V30 13805 O 1254 4.50814 3.98811 0
M  V30 13806 H 1257.83 2.81094 1.14976 0
M  V30 13807 H 1255.41 1.40634 0.504236 0
M  V30 13808 H 1257.3 2.27943 3.54429 0
M  V30 13809 H 1255.97 1.21427 3.00062 0
M  V30 13810 H 1254.88 3.23855 1.87267 0
M  V30 13811 H 1256.21 4.25104 2.48087 0
M  V30 13812 N 1257.86 -0.571685 1.46866 0
M  V30 13813 C 1258.77 -1.70758 1.60869 0
M  V30 13814 C 1259.79 -1.66903 0.49186 0
M  V30 13815 O 1260.97 -1.86613 0.757468 0
M  V30 13816 C 1258.03 -3.07267 1.60586 0
M  V30 13817 C 1257.09 -3.22301 2.83585 0
M  V30 13818 C 1256.32 -4.52298 2.83306 0
M  V30 13819 O 1256.55 -5.36869 1.92685 0
M  V30 13820 O 1255.48 -4.70814 3.7499 0
M  V30 13821 H 1259.31 -1.6189 2.56954 0
M  V30 13822 H 1256.89 -0.740018 1.29785 0
M  V30 13823 H 1258.77 -3.8853 1.63163 0
M  V30 13824 H 1257.45 -3.16549 0.676637 0
M  V30 13825 H 1256.36 -2.4049 2.86558 0
M  V30 13826 H 1257.69 -3.17916 3.75753 0
M  V30 13827 N 1259.34 -1.34755 -0.817236 0
M  V30 13828 C 1260.25 -1.28888 -1.96023 0
M  V30 13829 C 1261.27 -0.195582 -1.72897 0
M  V30 13830 O 1262.44 -0.423071 -1.96906 0
M  V30 13831 C 1259.51 -1.04985 -3.30423 0
M  V30 13832 C 1258.57 -2.23526 -3.66517 0
M  V30 13833 C 1257.8 -2.00753 -4.94504 0
M  V30 13834 O 1258.03 -0.968622 -5.62116 0
M  V30 13835 O 1256.96 -2.87848 -5.28608 0
M  V30 13836 H 1260.79 -2.25059 -2.03917 0
M  V30 13837 H 1258.37 -1.15019 -0.953467 0
M  V30 13838 H 1260.25 -0.934589 -4.10906 0
M  V30 13839 H 1258.93 -0.118582 -3.23483 0
M  V30 13840 H 1257.83 -2.40613 -2.86455 0
M  V30 13841 H 1259.17 -3.15062 -3.78149 0
M  V30 13842 N 1260.82 1.03812 -1.18578 0
M  V30 13843 C 1261.75 2.13802 -0.938665 0
M  V30 13844 C 1262.73 1.69643 0.124575 0
M  V30 13845 O 1263.92 1.94179 -0.0285421 0
M  V30 13846 C 1261.05 3.44154 -0.466392 0
M  V30 13847 C 1260 4.01949 -1.47041 0
M  V30 13848 C 1259.33 5.27811 -0.855558 0
M  V30 13849 C 1260.63 4.37827 -2.84789 0
M  V30 13850 H 1262.32 2.34732 -1.85852 0
M  V30 13851 H 1259.87 1.12808 -0.895007 0
M  V30 13852 H 1261.82 4.20463 -0.280856 0
M  V30 13853 H 1260.54 3.22918 0.489041 0
M  V30 13854 H 1259.2 3.27725 -1.64293 0
M  V30 13855 H 1258.85 5.02886 0.107142 0
M  V30 13856 H 1258.55 5.67441 -1.52592 0
M  V30 13857 H 1260.07 6.06795 -0.680609 0
M  V30 13858 H 1261.49 5.05112 -2.71173 0
M  V30 13859 H 1259.88 4.88514 -3.48532 0
M  V30 13860 H 1260.95 3.47541 -3.38147 0
M  V30 13861 N 1262.3 0.988223 1.22768 0
M  V30 13862 C 1263.54 0.662441 1.91676 0
M  V30 13863 C 1263.88 -0.802931 1.76824 0
M  V30 13864 O 1263.15 -1.58011 1.13415 0
M  V30 13865 C 1263.43 1.06332 3.44043 0
M  V30 13866 C 1263.29 2.5869 3.67967 0
M  V30 13867 C 1264.61 0.613058 4.35809 0
M  V30 13868 H 1261.73 0.242132 0.69609 0
M  V30 13869 H 1264.37 1.23091 1.44736 0
M  V30 13870 H 1262.52 0.579623 3.84152 0
M  V30 13871 H 1264.19 3.14694 3.37291 0
M  V30 13872 H 1262.43 3.00971 3.12408 0
M  V30 13873 H 1263.1 2.8179 4.74656 0
M  V30 13874 H 1265.58 1.02846 4.0319 0
M  V30 13875 H 1264.46 0.921901 5.41103 0
M  V30 13876 H 1264.72 -0.48641 4.39416 0
M  V30 13877 N 1263.78 -1.38018 0.760839 0
M  V30 13878 C 1264.72 -2.30387 0.13796 0
M  V30 13879 C 1265.69 -1.50548 -0.701754 0
M  V30 13880 O 1266.88 -1.79154 -0.656381 0
M  V30 13881 C 1264.02 -3.36993 -0.743642 0
M  V30 13882 C 1263.13 -4.31856 0.111489 0
M  V30 13883 C 1262.27 -5.25534 -0.773796 0
M  V30 13884 C 1261.3 -6.12042 0.0845311 0
M  V30 13885 N 1260.44 -6.97995 -0.758118 0
M  V30 13886 H 1265.28 -2.83077 0.931212 0
M  V30 13887 H 1262.82 -1.39361 0.470833 0
M  V30 13888 H 1264.78 -3.97417 -1.26948 0
M  V30 13889 H 1263.41 -2.85695 -1.50261 0
M  V30 13890 H 1262.46 -3.72832 0.755031 0
M  V30 13891 H 1263.77 -4.92758 0.774042 0
M  V30 13892 H 1262.92 -5.9111 -1.36653 0
M  V30 13893 H 1261.66 -4.65017 -1.47006 0
M  V30 13894 H 1260.67 -5.45455 0.689883 0
M  V30 13895 H 1261.89 -6.74629 0.777966 0
M  V30 13896 H 1259.84 -6.40018 -1.4392 0
M  V30 13897 H 1259.76 -7.55846 -0.152623 0
M  V30 13898 H 1261.02 -7.67973 -1.33559 0
M  V30 13899 N 1265.25 -0.510493 -1.49103 0
M  V30 13900 C 1266.5 0.030689 -2.02777 0
M  V30 13901 C 1266.83 1.35765 -1.38858 0
M  V30 13902 O 1266.11 1.87209 -0.527528 0
M  V30 13903 C 1266.39 0.173261 -3.59683 0
M  V30 13904 C 1266.24 -1.17749 -4.34114 0
M  V30 13905 C 1267.56 0.909395 -4.30602 0
M  V30 13906 H 1264.68 0.0096789 -0.736936 0
M  V30 13907 H 1267.32 -0.663746 -1.78029 0
M  V30 13908 H 1265.47 0.764721 -3.80899 0
M  V30 13909 H 1267.15 -1.80856 -4.24369 0
M  V30 13910 H 1265.39 -1.76438 -3.96298 0
M  V30 13911 H 1266.06 -1.03094 -5.42287 0
M  V30 13912 H 1268.54 0.407677 -4.14098 0
M  V30 13913 H 1267.41 0.978012 -5.40117 0
M  V30 13914 H 1267.67 1.9553 -3.96511 0
M  V30 13915 N 1266.73 1.55688 -0.24474 0
M  V30 13916 C 1268.15 1.59219 0.110159 0
M  V30 13917 C 1268.35 1.26187 1.57096 0
M  V30 13918 O 1267.4 1.00815 2.31501 0
M  V30 13919 C 1268.72 2.99764 -0.237075 0
M  V30 13920 C 1270.26 3.12475 -0.181198 0
M  V30 13921 C 1270.74 4.55236 -0.502435 0
M  V30 13922 N 1272.23 4.60981 -0.452855 0
M  V30 13923 C 1272.97 5.69418 -0.674605 0
M  V30 13924 N 1272.46 6.86125 -0.959366 0
M  V30 13925 N 1274.25 5.5883 -0.605459 0
M  V30 13926 H 1266.41 1.7543 -1.19741 0
M  V30 13927 H 1268.67 0.816537 -0.481634 0
M  V30 13928 H 1268.37 3.28666 -1.25185 0
M  V30 13929 H 1268.25 3.74662 0.436859 0
M  V30 13930 H 1270.64 2.83355 0.824248 0
M  V30 13931 H 1270.72 2.39857 -0.888952 0
M  V30 13932 H 1270.36 4.85077 -1.50543 0
M  V30 13933 H 1270.29 5.26111 0.226773 0
M  V30 13934 H 1272.78 3.77128 -0.241401 0
M  V30 13935 H 1273.09 7.64699 -1.11605 0
M  V30 13936 H 1271.44 6.87814 -0.996816 0
M  V30 13937 H 1274.63 4.6653 -0.383053 0
M  V30 13938 H 1274.8 6.43268 -0.781673 0
M  V30 13939 N 1268.21 -0.0283989 1.57574 0
M  V30 13940 C 1269.12 -1.04575 2.10003 0
M  V30 13941 C 1270.14 -1.39588 1.03881 0
M  V30 13942 O 1271.31 -1.48894 1.35619 0
M  V30 13943 C 1268.38 -2.32755 2.56955 0
M  V30 13944 C 1267.44 -2.04317 3.77562 0
M  V30 13945 C 1266.67 -3.26385 4.22266 0
M  V30 13946 O 1266.89 -4.37082 3.66491 0
M  V30 13947 O 1265.83 -3.12046 5.14695 0
M  V30 13948 H 1269.65 -0.630183 2.9709 0
M  V30 13949 H 1267.24 -0.245423 1.4737 0
M  V30 13950 H 1269.12 -3.08111 2.87482 0
M  V30 13951 H 1267.8 -2.73605 1.72979 0
M  V30 13952 H 1266.7 -1.26527 3.52054 0
M  V30 13953 H 1268.04 -1.68321 4.62524 0
M  V30 13954 N 1269.69 -1.54705 -0.300681 0
M  V30 13955 C 1270.63 -1.85678 -1.37084 0
M  V30 13956 C 1271.6 -0.70573 -1.50362 0
M  V30 13957 O 1272.79 -0.954385 -1.65215 0
M  V30 13958 C 1269.93 -2.10995 -2.73084 0
M  V30 13959 C 1269.04 -3.38621 -2.68254 0
M  V30 13960 C 1268.18 -3.53779 -3.9625 0
M  V30 13961 C 1267.22 -4.75195 -3.85818 0
M  V30 13962 N 1266.35 -4.87157 -5.05591 0
M  V30 13963 H 1271.19 -2.76967 -1.09971 0
M  V30 13964 H 1268.73 -1.37147 -0.531887 0
M  V30 13965 H 1270.69 -2.23669 -3.52176 0
M  V30 13966 H 1269.32 -1.22973 -2.98458 0
M  V30 13967 H 1268.37 -3.34566 -1.81025 0
M  V30 13968 H 1269.68 -4.27834 -2.56436 0
M  V30 13969 H 1268.84 -3.66119 -4.83779 0
M  V30 13970 H 1267.58 -2.62699 -4.10902 0
M  V30 13971 H 1266.58 -4.62888 -2.96673 0
M  V30 13972 H 1267.81 -5.67683 -3.72711 0
M  V30 13973 H 1265.75 -3.99001 -5.20706 0
M  V30 13974 H 1265.67 -5.70372 -4.96197 0
M  V30 13975 H 1266.94 -5.03854 -5.9477 0
M  V30 13976 N 1271.17 0.563888 -1.47167 0
M  V30 13977 C 1272.1 1.68655 -1.55204 0
M  V30 13978 C 1273.11 1.56776 -0.438769 0
M  V30 13979 O 1274.3 1.63856 -0.708059 0
M  V30 13980 C 1271.4 3.07068 -1.43396 0
M  V30 13981 C 1270.57 3.44767 -2.69174 0
M  V30 13982 C 1269.63 4.62316 -2.51298 0
M  V30 13983 O 1268.66 4.67231 -3.2509 0
M  V30 13984 N 1269.86 5.58389 -1.58688 0
M  V30 13985 H 1272.63 1.62209 -2.52009 0
M  V30 13986 H 1270.19 0.750359 -1.43462 0
M  V30 13987 H 1272.18 3.83529 -1.29181 0
M  V30 13988 H 1270.75 3.07777 -0.546997 0
M  V30 13989 H 1269.97 2.57821 -2.98198 0
M  V30 13990 H 1271.26 3.66726 -3.52689 0
M  V30 13991 H 1270.65 5.57169 -0.978737 0
M  V30 13992 H 1269.21 6.34204 -1.50428 0
M  V30 13993 N 1272.64 1.35187 0.810078 0
M  V30 13994 C 1273.57 1.30481 1.93641 0
M  V30 13995 C 1274.56 0.179875 1.69146 0
M  V30 13996 O 1275.74 0.374284 1.90559 0
M  V30 13997 C 1272.87 1.07251 3.30325 0
M  V30 13998 C 1271.82 2.16348 3.69293 0
M  V30 13999 C 1271.15 1.78288 5.04101 0
M  V30 14000 C 1272.45 3.58285 3.80038 0
M  V30 14001 H 1274.14 2.24725 1.97836 0
M  V30 14002 H 1271.69 1.08179 0.950436 0
M  V30 14003 H 1273.64 1.02599 4.08719 0
M  V30 14004 H 1272.37 0.0945203 3.26463 0
M  V30 14005 H 1271.03 2.2009 2.93182 0
M  V30 14006 H 1270.67 0.791163 4.96739 0
M  V30 14007 H 1270.37 2.51315 5.31144 0
M  V30 14008 H 1271.9 1.75155 5.84938 0
M  V30 14009 H 1273.31 3.56884 4.48672 0
M  V30 14010 H 1271.71 4.30044 4.18548 0
M  V30 14011 H 1272.78 3.94691 2.81685 0
M  V30 14012 N 1274.12 -1.03182 1.19127 0
M  V30 14013 C 1275.09 -2.09559 0.928307 0
M  V30 14014 C 1276.09 -1.60548 -0.0899992 0
M  V30 14015 O 1277.28 -1.736 0.144422 0
M  V30 14016 C 1274.41 -3.38609 0.394561 0
M  V30 14017 H 1275.6 -2.34321 1.87173 0
M  V30 14018 H 1273.15 -1.19746 1.00452 0
M  V30 14019 H 1273.89 -3.19515 -0.555046 0
M  V30 14020 H 1273.67 -3.75502 1.12873 0
M  V30 14021 H 1275.16 -4.16969 0.229569 0
M  V30 14022 N 1275.6 -0.99472 -1.22242 0
M  V30 14023 C 1276.56 -0.551619 -2.22463 0
M  V30 14024 C 1277.56 0.366498 -1.56568 0
M  V30 14025 O 1278.75 0.158204 -1.7348 0
M  V30 14026 C 1275.89 0.197416 -3.40328 0
M  V30 14027 H 1277.08 -1.43795 -2.63179 0
M  V30 14028 H 1274.63 -0.782121 -1.35324 0
M  V30 14029 H 1275.37 1.09965 -3.05087 0
M  V30 14030 H 1275.15 -0.461829 -3.89371 0
M  V30 14031 H 1276.64 0.495534 -4.1465 0
M  V30 14032 N 1277.08 1.37613 -0.768148 0
M  V30 14033 C 1277.99 2.34103 -0.152649 0
M  V30 14034 C 1279 1.6 0.683811 0
M  V30 14035 O 1280.18 1.92112 0.604572 0
M  V30 14036 C 1277.25 3.39164 0.718954 0
M  V30 14037 C 1276.31 4.29092 -0.13355 0
M  V30 14038 C 1275.54 5.29135 0.696547 0
M  V30 14039 O 1275.76 5.36618 1.93383 0
M  V30 14040 O 1274.7 6.01804 0.107652 0
M  V30 14041 H 1278.52 2.88462 -0.949899 0
M  V30 14042 H 1276.11 1.39711 -0.529252 0
M  V30 14043 H 1277.99 4.03454 1.21665 0
M  V30 14044 H 1276.66 2.87137 1.49445 0
M  V30 14045 H 1275.57 3.67914 -0.677528 0
M  V30 14046 H 1276.9 4.84413 -0.872048 0
M  V30 14047 N 1278.56 0.518393 1.4883 0
M  V30 14048 C 1279.5 -0.264197 2.31095 0
M  V30 14049 C 1280.5 -0.946455 1.40494 0
M  V30 14050 O 1281.7 -0.872161 1.57459 0
M  V30 14051 H 1278.08 -0.104065 0.744765 0
M  V30 14052 H 1280.05 0.449375 2.94997 0
M  V30 14053 C 1278.8 -1.30527 3.2227 0
M  V30 14054 H 1278.12 -0.789695 3.91923 0
M  V30 14055 H 1279.56 -1.82449 3.82738 0
M  V30 14056 C 1278.02 -2.33274 2.43073 0
M  V30 14057 O 1278.55 -3.39493 2.14726 0
M  V30 14058 N 1276.76 -2.06189 2.04779 0
M  V30 14059 H 1276.3 -1.19829 2.28033 0
M  V30 14060 H 1276.26 -2.7516 1.521 0
M  V30 14061 N 1280.03 -1.55556 0.252993 0
M  V30 14062 C 1281.45 -1.59276 -0.101714 0
M  V30 14063 C 1281.65 -1.27018 -1.56424 0
M  V30 14064 O 1280.71 -1.02042 -2.30963 0
M  V30 14065 C 1282.02 -2.99634 0.252969 0
M  V30 14066 C 1283.57 -3.12375 0.197767 0
M  V30 14067 C 1284.04 -4.54963 0.52657 0
M  V30 14068 N 1285.53 -4.60734 0.477296 0
M  V30 14069 C 1286.27 -5.69052 0.704793 0
M  V30 14070 N 1285.76 -6.85607 0.99574 0
M  V30 14071 N 1287.56 -5.58501 0.635086 0
M  V30 14072 H 1279.71 -1.74793 1.2067 0
M  V30 14073 H 1281.97 -0.813971 0.485958 0
M  V30 14074 H 1281.68 -3.27998 1.26926 0
M  V30 14075 H 1281.55 -3.74888 -0.416984 0
M  V30 14076 H 1283.94 -2.83788 -0.809209 0
M  V30 14077 H 1284.02 -2.39382 0.901659 0
M  V30 14078 H 1283.66 -4.84271 1.53113 0
M  V30 14079 H 1283.59 -5.26224 -0.198869 0
M  V30 14080 H 1286.08 -3.76995 0.261398 0
M  V30 14081 H 1286.4 -7.64096 1.15659 0
M  V30 14082 H 1284.74 -6.87276 1.03328 0
M  V30 14083 H 1287.93 -4.6632 0.407789 0
M  V30 14084 H 1288.11 -6.42845 0.815777 0
M  V30 14085 N 1281.51 0.0200419 -1.57587 0
M  V30 14086 C 1282.44 1.01715 -2.10181 0
M  V30 14087 C 1283.42 1.37136 -1.00636 0
M  V30 14088 O 1284.61 1.45862 -1.2821 0
M  V30 14089 C 1281.74 2.31531 -2.58865 0
M  V30 14090 C 1280.69 2.10327 -3.72755 0
M  V30 14091 C 1280.02 3.45981 -4.07678 0
M  V30 14092 C 1281.32 1.4821 -5.0083 0
M  V30 14093 H 1283.01 0.579307 -2.93742 0
M  V30 14094 H 1280.56 0.277211 -1.41307 0
M  V30 14095 H 1282.51 3.01623 -2.94281 0
M  V30 14096 H 1281.24 2.77392 -1.72399 0
M  V30 14097 H 1279.89 1.42665 -3.37701 0
M  V30 14098 H 1279.54 3.89508 -3.18265 0
M  V30 14099 H 1279.24 3.32616 -4.84397 0
M  V30 14100 H 1280.77 4.17421 -4.45637 0
M  V30 14101 H 1282.18 2.08232 -5.34146 0
M  V30 14102 H 1280.58 1.45393 -5.82221 0
M  V30 14103 H 1281.65 0.448942 -4.82817 0
M  V30 14104 N 1282.99 1.54862 0.292472 0
M  V30 14105 C 1284.22 1.7855 1.04534 0
M  V30 14106 C 1284.63 0.549161 1.80637 0
M  V30 14107 O 1283.99 -0.481268 1.7604 0
M  V30 14108 C 1284.04 2.99849 2.01923 0
M  V30 14109 O 1283.76 4.18706 1.28907 0
M  V30 14110 C 1285.26 3.35991 2.8918 0
M  V30 14111 H 1282.48 0.595279 0.309652 0
M  V30 14112 H 1285.03 2.01834 0.329159 0
M  V30 14113 H 1283.18 2.78749 2.69032 0
M  V30 14114 H 1283.6 4.87151 1.94383 0
M  V30 14115 H 1285.07 4.24085 3.53349 0
M  V30 14116 H 1285.55 2.54524 3.57931 0
M  V30 14117 H 1286.15 3.59281 2.27591 0
M  V30 14118 N 1284.47 -0.556076 1.47464 0
M  V30 14119 C 1285.38 -1.69043 1.62671 0
M  V30 14120 C 1286.39 -1.66372 0.509535 0
M  V30 14121 O 1287.57 -1.85799 0.777218 0
M  V30 14122 C 1284.64 -3.05546 1.63836 0
M  V30 14123 C 1283.7 -3.19275 2.86988 0
M  V30 14124 C 1282.93 -4.49267 2.88088 0
M  V30 14125 O 1283.15 -5.34796 1.98368 0
M  V30 14126 O 1282.09 -4.66811 3.79962 0
M  V30 14127 H 1285.91 -1.59155 2.58657 0
M  V30 14128 H 1283.5 -0.726211 1.30562 0
M  V30 14129 H 1285.38 -3.86778 1.67275 0
M  V30 14130 H 1284.05 -3.15814 0.710173 0
M  V30 14131 H 1282.96 -2.37437 2.89093 0
M  V30 14132 H 1284.29 -3.13912 3.79104 0
M  V30 14133 N 1285.95 -1.35615 -0.802897 0
M  V30 14134 C 1286.88 -1.23192 -1.92091 0
M  V30 14135 C 1287.86 -0.118995 -1.62164 0
M  V30 14136 O 1289.04 -0.287743 -1.86291 0
M  V30 14137 C 1286.17 -0.897699 -3.26587 0
M  V30 14138 C 1285.22 -2.02319 -3.75459 0
M  V30 14139 S 1286.05 -3.63938 -3.92822 0
M  V30 14140 C 1287.2 -3.32601 -5.30215 0
M  V30 14141 H 1287.44 -2.17825 -2.02335 0
M  V30 14142 H 1284.97 -1.20873 -0.960675 0
M  V30 14143 H 1286.93 -0.711674 -4.04284 0
M  V30 14144 H 1285.59 0.0306305 -3.14085 0
M  V30 14145 H 1284.78 -1.74357 -4.7288 0
M  V30 14146 H 1284.38 -2.16774 -3.04771 0
M  V30 14147 H 1286.68 -2.85658 -6.14334 0
M  V30 14148 H 1287.62 -4.29236 -5.63172 0
M  V30 14149 H 1288.03 -2.68279 -4.96676 0
M  V30 14150 N 1287.43 1.02549 -1.19673 0
M  V30 14151 C 1288.34 2.14373 -0.952972 0
M  V30 14152 C 1289.35 1.73776 0.0881727 0
M  V30 14153 O 1290.53 2.01165 -0.0972471 0
M  V30 14154 C 1287.59 3.43096 -0.498569 0
M  V30 14155 C 1286.65 3.97987 -1.60951 0
M  V30 14156 C 1285.89 5.20567 -1.17669 0
M  V30 14157 O 1286.11 5.70385 -0.0416636 0
M  V30 14158 O 1285.04 5.6838 -1.98059 0
M  V30 14159 H 1288.87 2.378 -1.88904 0
M  V30 14160 H 1286.45 1.12781 -0.979836 0
M  V30 14161 H 1288.34 4.20634 -0.253968 0
M  V30 14162 H 1287.01 3.21105 0.409018 0
M  V30 14163 H 1285.92 3.21768 -1.90829 0
M  V30 14164 H 1287.25 4.24349 -2.49377 0
M  V30 14165 N 1288.9 1.00119 1.21713 0
M  V30 14166 C 1290.13 0.700431 1.94683 0
M  V30 14167 C 1290.55 -0.736333 1.73849 0
M  V30 14168 O 1289.9 -1.49778 1.04272 0
M  V30 14169 C 1289.95 1.00722 3.47185 0
M  V30 14170 O 1289.68 2.38754 3.67326 0
M  V30 14171 C 1291.18 0.725335 4.37326 0
M  V30 14172 H 1288.4 0.25843 0.619238 0
M  V30 14173 H 1290.94 1.3382 1.54636 0
M  V30 14174 H 1289.1 0.415117 3.85169 0
M  V30 14175 H 1289.51 2.49321 4.61454 0
M  V30 14176 H 1290.98 0.990202 5.43046 0
M  V30 14177 H 1291.46 -0.340649 4.37877 0
M  V30 14178 H 1292.07 1.29888 4.04981 0
M  V30 14179 N 1290.38 -1.37203 0.775435 0
M  V30 14180 C 1291.31 -2.32819 0.17826 0
M  V30 14181 C 1292.29 -1.55963 -0.678944 0
M  V30 14182 O 1293.48 -1.84183 -0.615648 0
M  V30 14183 C 1290.61 -3.40198 -0.698768 0
M  V30 14184 C 1289.56 -4.27961 0.057423 0
M  V30 14185 C 1288.89 -5.26385 -0.93929 0
M  V30 14186 C 1290.19 -5.07402 1.23856 0
M  V30 14187 H 1291.88 -2.8301 0.977028 0
M  V30 14188 H 1289.43 -1.3607 0.471274 0
M  V30 14189 H 1291.38 -4.06067 -1.12637 0
M  V30 14190 H 1290.1 -2.88541 -1.53009 0
M  V30 14191 H 1288.76 -3.63628 0.465848 0
M  V30 14192 H 1288.41 -4.71007 -1.76527 0
M  V30 14193 H 1288.11 -5.85966 -0.437844 0
M  V30 14194 H 1289.64 -5.9513 -1.36576 0
M  V30 14195 H 1291.05 -5.6639 0.887423 0
M  V30 14196 H 1289.45 -5.76327 1.67234 0
M  V30 14197 H 1290.52 -4.3986 2.04085 0
M  V30 14198 N 1291.86 -0.526279 -1.48553 0
M  V30 14199 C 1292.79 0.275579 -2.27537 0
M  V30 14200 C 1293.8 0.90782 -1.35139 0
M  V30 14201 O 1294.99 0.786887 -1.6022 0
M  V30 14202 C 1292.09 1.40515 -3.08397 0
M  V30 14203 C 1291.27 0.875523 -4.28548 0
M  V30 14204 C 1290.33 1.88577 -4.91249 0
M  V30 14205 O 1289.35 1.44419 -5.50574 0
M  V30 14206 N 1290.55 3.21774 -4.83158 0
M  V30 14207 H 1293.32 -0.401803 -2.96994 0
M  V30 14208 H 1290.88 -0.360378 -1.57838 0
M  V30 14209 H 1292.87 2.07907 -3.47213 0
M  V30 14210 H 1291.44 1.98626 -2.41384 0
M  V30 14211 H 1290.66 0.025728 -3.94192 0
M  V30 14212 H 1291.95 0.500493 -5.06332 0
M  V30 14213 H 1291.35 3.60319 -4.36104 0
M  V30 14214 H 1289.9 3.84808 -5.26085 0
M  V30 14215 N 1293.34 1.5542 -0.261239 0
M  V30 14216 C 1294.56 2.04142 0.366144 0
M  V30 14217 C 1294.99 1.13884 1.49706 0
M  V30 14218 O 1294.35 0.134629 1.80799 0
M  V30 14219 C 1294.39 3.50733 0.837774 0
M  V30 14220 O 1293.5 3.63588 1.94621 0
M  V30 14221 H 1292.84 0.659424 0.077821 0
M  V30 14222 H 1295.37 2.0082 -0.391487 0
M  V30 14223 H 1295.38 3.91831 1.13721 0
M  V30 14224 H 1294.05 4.15899 0.0102742 0
M  V30 14225 H 1292.63 3.34391 1.65037 0
M  V30 14226 N 1294.82 -0.0116844 1.57596 0
M  V30 14227 C 1295.75 -1.03477 2.04512 0
M  V30 14228 C 1296.76 -1.31414 0.960945 0
M  V30 14229 O 1297.95 -1.28596 1.23796 0
M  V30 14230 C 1295.05 -2.37234 2.42019 0
M  V30 14231 C 1294.22 -2.28405 3.73028 0
M  V30 14232 C 1293.28 -3.44753 3.97532 0
M  V30 14233 O 1292.31 -3.23465 4.68358 0
M  V30 14234 N 1293.51 -4.67212 3.44518 0
M  V30 14235 H 1296.27 -0.634758 2.92901 0
M  V30 14236 H 1293.84 -0.1993 1.60669 0
M  V30 14237 H 1295.83 -3.13821 2.55535 0
M  V30 14238 H 1294.4 -2.69018 1.5921 0
M  V30 14239 H 1293.62 -1.36804 3.697 0
M  V30 14240 H 1294.91 -2.19666 4.58938 0
M  V30 14241 H 1294.3 -4.87407 2.87142 0
M  V30 14242 H 1292.86 -5.41105 3.63384 0
M  V30 14243 N 1296.29 -1.55015 -0.284256 0
M  V30 14244 C 1297.22 -1.90128 -1.3555 0
M  V30 14245 C 1298.2 -0.761914 -1.52082 0
M  V30 14246 O 1299.39 -1.01909 -1.65312 0
M  V30 14247 C 1296.52 -2.16332 -2.71695 0
M  V30 14248 C 1295.47 -3.32166 -2.69907 0
M  V30 14249 C 1294.8 -3.43824 -4.09498 0
M  V30 14250 C 1296.1 -4.6885 -2.30168 0
M  V30 14251 H 1297.79 -2.79852 -1.06411 0
M  V30 14252 H 1295.34 -1.34649 -0.510451 0
M  V30 14253 H 1297.29 -2.39482 -3.46737 0
M  V30 14254 H 1296.02 -1.23395 -3.02392 0
M  V30 14255 H 1294.68 -3.08965 -1.97322 0
M  V30 14256 H 1294.32 -2.48375 -4.374 0
M  V30 14257 H 1294.02 -4.21698 -4.092 0
M  V30 14258 H 1295.55 -3.69254 -4.86296 0
M  V30 14259 H 1296.96 -4.91619 -2.9493 0
M  V30 14260 H 1295.36 -5.49558 -2.41052 0
M  V30 14261 H 1296.43 -4.68433 -1.25294 0
M  V30 14262 N 1297.77 0.548248 -1.47757 0
M  V30 14263 C 1298.7 1.6705 -1.55466 0
M  V30 14264 C 1299.68 1.57444 -0.406208 0
M  V30 14265 O 1300.87 1.78176 -0.615268 0
M  V30 14266 C 1297.99 3.0535 -1.46558 0
M  V30 14267 C 1297.04 3.33372 -2.66017 0
M  V30 14268 S 1297.87 3.21643 -4.28143 0
M  V30 14269 C 1299.03 4.62421 -4.21803 0
M  V30 14270 H 1299.26 1.60258 -2.50409 0
M  V30 14271 H 1296.79 0.72978 -1.36065 0
M  V30 14272 H 1298.75 3.85118 -1.42106 0
M  V30 14273 H 1297.41 3.09599 -0.529838 0
M  V30 14274 H 1296.61 4.34218 -2.55873 0
M  V30 14275 H 1296.21 2.6124 -2.67638 0
M  V30 14276 H 1298.5 5.53561 -3.9061 0
M  V30 14277 H 1299.44 4.77621 -5.22766 0
M  V30 14278 H 1299.85 4.40887 -3.52532 0
M  V30 14279 N 1299.25 1.36039 0.795694 0
M  V30 14280 C 1300.21 1.29709 1.88966 0
M  V30 14281 C 1301.21 0.206142 1.59473 0
M  V30 14282 O 1302.4 0.460534 1.68002 0
M  V30 14283 C 1299.53 1.00922 3.25619 0
M  V30 14284 H 1300.73 2.26993 1.95995 0
M  V30 14285 H 1298.28 1.2072 0.992791 0
M  V30 14286 H 1299.02 0.0407027 3.24274 0
M  V30 14287 H 1298.8 1.79863 3.48413 0
M  V30 14288 H 1300.29 0.990826 4.05675 0
M  V30 14289 N 1300.73 -1.01913 1.20215 0
M  V30 14290 C 1301.64 -2.13864 0.964328 0
M  V30 14291 C 1302.65 -1.73821 -0.0789556 0
M  V30 14292 O 1303.83 -2.01111 0.107914 0
M  V30 14293 C 1300.9 -3.42827 0.516757 0
M  V30 14294 C 1299.96 -3.97127 1.63059 0
M  V30 14295 C 1299.19 -5.19935 1.20428 0
M  V30 14296 O 1299.41 -5.70355 0.0719119 0
M  V30 14297 O 1298.35 -5.67322 2.01071 0
M  V30 14298 H 1302.17 -2.36795 1.90162 0
M  V30 14299 H 1299.76 -1.1226 0.985803 0
M  V30 14300 H 1301.64 -4.20493 0.276272 0
M  V30 14301 H 1300.31 -3.21318 -0.391983 0
M  V30 14302 H 1299.22 -3.20752 1.92533 0
M  V30 14303 H 1300.55 -4.2302 2.51624 0
M  V30 14304 N 1302.21 -1.00763 -1.2118 0
M  V30 14305 C 1303.15 -0.570257 -2.23644 0
M  V30 14306 C 1304.12 0.405039 -1.61086 0
M  V30 14307 O 1305.31 0.306496 -1.88322 0
M  V30 14308 C 1302.45 0.094325 -3.44971 0
M  V30 14309 C 1301.56 -0.924463 -4.21993 0
M  V30 14310 C 1300.7 -0.231869 -5.30694 0
M  V30 14311 C 1299.74 -1.23803 -5.99449 0
M  V30 14312 N 1298.87 -0.572725 -6.9976 0
M  V30 14313 H 1303.71 -1.44869 -2.60417 0
M  V30 14314 H 1301.25 -0.725369 -1.27972 0
M  V30 14315 H 1303.21 0.496689 -4.14233 0
M  V30 14316 H 1301.84 0.936457 -3.08918 0
M  V30 14317 H 1300.89 -1.44505 -3.51884 0
M  V30 14318 H 1302.2 -1.69004 -4.69296 0
M  V30 14319 H 1301.36 0.226465 -6.06277 0
M  V30 14320 H 1300.09 0.566092 -4.84403 0
M  V30 14321 H 1299.1 -1.70684 -5.22635 0
M  V30 14322 H 1300.32 -2.03711 -6.47826 0
M  V30 14323 H 1298.27 0.205531 -6.55678 0
M  V30 14324 H 1298.19 -1.27651 -7.45145 0
M  V30 14325 H 1299.46 -0.137683 -7.79378 0
M  V30 14326 N 1303.68 1.3679 -0.7827 0
M  V30 14327 C 1304.61 2.32721 -0.190604 0
M  V30 14328 C 1305.6 1.56321 0.670663 0
M  V30 14329 O 1306.78 1.84507 0.605871 0
M  V30 14330 C 1303.91 3.40564 0.680717 0
M  V30 14331 C 1302.86 4.27925 -0.080118 0
M  V30 14332 C 1302.19 5.26876 0.911361 0
M  V30 14333 C 1303.49 5.06738 -1.26545 0
M  V30 14334 H 1305.18 2.82488 -0.992023 0
M  V30 14335 H 1302.73 1.35818 -0.478484 0
M  V30 14336 H 1304.68 4.06659 1.10482 0
M  V30 14337 H 1303.41 2.89348 1.51477 0
M  V30 14338 H 1302.07 3.63376 -0.485125 0
M  V30 14339 H 1301.71 4.71936 1.74026 0
M  V30 14340 H 1301.41 5.8619 0.406762 0
M  V30 14341 H 1302.94 5.95846 1.33418 0
M  V30 14342 H 1304.35 5.65911 -0.917448 0
M  V30 14343 H 1302.75 5.75432 -1.70289 0
M  V30 14344 H 1303.82 4.38772 -2.06415 0
M  V30 14345 N 1305.16 0.53415 1.48272 0
M  V30 14346 C 1306.09 -0.263508 2.2768 0
M  V30 14347 C 1307.11 -0.90064 1.35618 0
M  V30 14348 O 1308.3 -0.778379 1.60635 0
M  V30 14349 C 1305.4 -1.38878 3.09138 0
M  V30 14350 C 1304.57 -0.852784 4.29006 0
M  V30 14351 C 1303.63 -1.85969 4.92242 0
M  V30 14352 O 1302.65 -1.41497 5.51332 0
M  V30 14353 N 1303.86 -3.19207 4.84858 0
M  V30 14354 H 1306.62 0.417548 2.96777 0
M  V30 14355 H 1304.18 0.368743 1.57645 0
M  V30 14356 H 1306.17 -2.06062 3.48311 0
M  V30 14357 H 1304.74 -1.97343 2.42434 0
M  V30 14358 H 1303.96 -0.0048227 3.942 0
M  V30 14359 H 1305.25 -0.473634 5.06591 0
M  V30 14360 H 1304.65 -3.58001 4.38009 0
M  V30 14361 H 1303.21 -3.82013 5.28119 0
M  V30 14362 N 1306.64 -1.55279 0.269478 0
M  V30 14363 C 1307.57 -2.25278 -0.614188 0
M  V30 14364 C 1308.55 -1.24092 -1.1634 0
M  V30 14365 O 1309.74 -1.52799 -1.19858 0
M  V30 14366 C 1306.87 -2.96956 -1.80096 0
M  V30 14367 C 1305.82 -4.05021 -1.38353 0
M  V30 14368 C 1305.15 -4.64244 -2.65295 0
M  V30 14369 C 1306.45 -5.19523 -0.537886 0
M  V30 14370 H 1308.14 -2.99385 -0.0304397 0
M  V30 14371 H 1305.69 -1.43994 -0.0132004 0
M  V30 14372 H 1307.64 -3.44633 -2.42499 0
M  V30 14373 H 1306.36 -2.20374 -2.41045 0
M  V30 14374 H 1305.02 -3.58146 -0.78273 0
M  V30 14375 H 1304.67 -3.84337 -3.2449 0
M  V30 14376 H 1304.37 -5.37208 -2.38079 0
M  V30 14377 H 1305.89 -5.14668 -3.28557 0
M  V30 14378 H 1307.31 -5.63287 -1.06677 0
M  V30 14379 H 1305.71 -5.99014 -0.360845 0
M  V30 14380 H 1306.78 -4.82857 0.444672 0
M  V30 14381 N 1308.12 0.00332656 -1.576 0
M  V30 14382 C 1309.05 1.02391 -2.05058 0
M  V30 14383 C 1310.06 1.30903 -0.967901 0
M  V30 14384 O 1311.25 1.27937 -1.24476 0
M  V30 14385 C 1308.35 2.35947 -2.43274 0
M  V30 14386 C 1307.53 2.26423 -3.74234 0
M  V30 14387 C 1306.58 3.4264 -3.99355 0
M  V30 14388 O 1305.61 3.20977 -4.70067 0
M  V30 14389 N 1306.81 4.65379 -3.46991 0
M  V30 14390 H 1309.58 0.619216 -2.93233 0
M  V30 14391 H 1307.14 0.190777 -1.60772 0
M  V30 14392 H 1309.13 3.12462 -2.57196 0
M  V30 14393 H 1307.7 2.6817 -1.60635 0
M  V30 14394 H 1306.92 1.34841 -3.70421 0
M  V30 14395 H 1308.21 2.17229 -4.60097 0
M  V30 14396 H 1307.61 4.85878 -2.89723 0
M  V30 14397 H 1306.16 5.39171 -3.66249 0
M  V30 14398 N 1309.6 1.55164 0.276031 0
M  V30 14399 C 1310.51 1.90928 1.36321 0
M  V30 14400 C 1311.52 0.806183 1.54197 0
M  V30 14401 O 1312.7 1.10497 1.68382 0
M  V30 14402 C 1309.76 2.17123 2.70293 0
M  V30 14403 C 1308.82 3.40703 2.6119 0
M  V30 14404 C 1308.06 3.65638 3.88773 0
M  V30 14405 O 1308.28 2.93137 4.89313 0
M  V30 14406 O 1307.21 4.59172 3.89159 0
M  V30 14407 H 1311.04 2.8347 1.08988 0
M  V30 14408 H 1308.63 1.41672 0.474292 0
M  V30 14409 H 1310.51 2.3541 3.49514 0
M  V30 14410 H 1309.18 1.27765 2.97419 0
M  V30 14411 H 1308.09 3.27754 1.80355 0
M  V30 14412 H 1309.42 4.30271 2.39014 0
M  V30 14413 N 1311.07 -0.540404 1.48045 0
M  V30 14414 C 1312.01 -1.66164 1.57867 0
M  V30 14415 C 1313.02 -1.56058 0.463655 0
M  V30 14416 O 1314.21 -1.62709 0.734038 0
M  V30 14417 C 1311.31 -3.04748 1.48263 0
M  V30 14418 C 1310.48 -3.40441 2.74625 0
M  V30 14419 C 1309.54 -4.58259 2.58621 0
M  V30 14420 O 1308.57 -4.62 3.32482 0
M  V30 14421 N 1309.77 -5.55794 1.67551 0
M  V30 14422 H 1312.53 -1.58179 2.54557 0
M  V30 14423 H 1310.09 -0.727441 1.44637 0
M  V30 14424 H 1312.09 -3.81425 1.35267 0
M  V30 14425 H 1310.66 -3.06868 0.595892 0
M  V30 14426 H 1309.88 -2.53044 3.02262 0
M  V30 14427 H 1311.16 -3.61069 3.58478 0
M  V30 14428 H 1310.56 -5.55541 1.06725 0
M  V30 14429 H 1309.12 -6.3173 1.60499 0
M  V30 14430 N 1312.55 -1.36459 -0.788468 0
M  V30 14431 C 1313.48 -1.33545 -1.91541 0
M  V30 14432 C 1314.46 -0.206762 -1.68839 0
M  V30 14433 O 1315.65 -0.404553 -1.89939 0
M  V30 14434 C 1312.78 -1.12492 -3.28577 0
M  V30 14435 C 1311.73 -2.22196 -3.65805 0
M  V30 14436 C 1311.06 -1.86285 -5.01201 0
M  V30 14437 C 1312.36 -3.64286 -3.7429 0
M  V30 14438 H 1314.05 -2.27844 -1.94236 0
M  V30 14439 H 1311.6 -1.09677 -0.933105 0
M  V30 14440 H 1313.55 -1.09089 -4.07035 0
M  V30 14441 H 1312.28 -0.146446 -3.26272 0
M  V30 14442 H 1310.93 -2.24727 -2.89644 0
M  V30 14443 H 1310.58 -0.87009 -4.95417 0
M  V30 14444 H 1310.28 -2.59734 -5.27079 0
M  V30 14445 H 1311.81 -1.84439 -5.82078 0
M  V30 14446 H 1313.22 -3.63977 -4.42937 0
M  V30 14447 H 1311.62 -4.36648 -4.11653 0
M  V30 14448 H 1312.69 -3.99123 -2.75371 0
M  V30 14449 N 1314.03 1.01274 -1.20754 0
M  V30 14450 C 1314.96 2.10029 -0.917628 0
M  V30 14451 C 1315.98 1.62516 0.0961411 0
M  V30 14452 O 1317.16 1.77986 -0.135371 0
M  V30 14453 C 1314.26 3.37037 -0.354891 0
M  V30 14454 C 1313.44 4.1367 -1.42113 0
M  V30 14455 C 1312.5 5.18974 -0.869023 0
M  V30 14456 O 1311.52 5.47671 -1.55063 0
M  V30 14457 N 1312.72 5.79619 0.319631 0
M  V30 14458 H 1315.49 2.35485 -1.85383 0
M  V30 14459 H 1313.05 1.17695 -1.11173 0
M  V30 14460 H 1315.04 4.0469 0.0286895 0
M  V30 14461 H 1313.61 3.088 0.485956 0
M  V30 14462 H 1312.83 3.40931 -1.97889 0
M  V30 14463 H 1314.12 4.61649 -2.13911 0
M  V30 14464 H 1313.52 5.58646 0.89059 0
M  V30 14465 H 1312.08 6.48603 0.644807 0
M  V30 14466 N 1315.51 1.01404 1.20644 0
M  V30 14467 C 1316.47 0.586941 2.21557 0
M  V30 14468 C 1317.47 -0.341543 1.57131 0
M  V30 14469 O 1318.66 -0.130585 1.7371 0
M  V30 14470 C 1315.79 -0.143248 3.40599 0
M  V30 14471 H 1316.99 1.47964 2.60858 0
M  V30 14472 H 1314.54 0.803551 1.34063 0
M  V30 14473 H 1315.28 -1.05097 3.06798 0
M  V30 14474 H 1315.06 0.523716 3.88587 0
M  V30 14475 H 1316.55 -0.429504 4.15385 0
M  V30 14476 N 1316.99 -1.36373 0.789944 0
M  V30 14477 C 1317.9 -2.3383 0.189873 0
M  V30 14478 C 1318.91 -1.61068 -0.65827 0
M  V30 14479 O 1320.09 -1.93049 -0.573932 0
M  V30 14480 C 1317.15 -3.40264 -0.664905 0
M  V30 14481 C 1316.22 -4.28825 0.201798 0
M  V30 14482 C 1315.45 -5.30176 -0.612278 0
M  V30 14483 O 1315.67 -5.39627 -1.84821 0
M  V30 14484 O 1314.61 -6.01899 -0.0118964 0
M  V30 14485 H 1318.43 -2.86915 0.995671 0
M  V30 14486 H 1316.02 -1.38852 0.551412 0
M  V30 14487 H 1317.9 -4.05339 -1.15231 0
M  V30 14488 H 1316.57 -2.89478 -1.44858 0
M  V30 14489 H 1315.48 -3.66789 0.735974 0
M  V30 14490 H 1316.81 -4.82965 0.949003 0
M  V30 14491 N 1318.47 -0.542005 -1.47987 0
M  V30 14492 C 1319.69 -0.016717 -2.06893 0
M  V30 14493 C 1320.11 1.27015 -1.39687 0
M  V30 14494 O 1319.47 1.75845 -0.488326 0
M  V30 14495 C 1319.52 0.198437 -3.60955 0
M  V30 14496 O 1319.24 -1.03746 -4.25639 0
M  V30 14497 C 1320.74 0.762741 -4.36689 0
M  V30 14498 H 1317.96 -0.0389497 -0.669869 0
M  V30 14499 H 1320.5 -0.751082 -1.90208 0
M  V30 14500 H 1318.66 0.882884 -3.77205 0
M  V30 14501 H 1319.07 -0.82568 -5.1796 0
M  V30 14502 H 1320.55 0.862649 -5.45218 0
M  V30 14503 H 1321.02 1.77049 -4.01933 0
M  V30 14504 H 1321.63 0.114478 -4.25146 0
M  V30 14505 N 1319.94 1.55134 -0.277709 0
M  V30 14506 C 1320.85 2.26296 0.618658 0
M  V30 14507 C 1321.87 1.28978 1.16794 0
M  V30 14508 O 1323.05 1.61918 1.19768 0
M  V30 14509 C 1320.11 2.97214 1.78508 0
M  V30 14510 C 1319.17 4.10016 1.27221 0
M  V30 14511 C 1318.4 4.77543 2.38304 0
M  V30 14512 O 1318.63 4.44293 3.57715 0
M  V30 14513 O 1317.56 5.65437 2.06313 0
M  V30 14514 H 1321.39 3.03671 0.0421031 0
M  V30 14515 H 1318.97 1.49332 -0.0450166 0
M  V30 14516 H 1320.85 3.41773 2.46513 0
M  V30 14517 H 1319.53 2.22753 2.34867 0
M  V30 14518 H 1318.44 3.69907 0.558544 0
M  V30 14519 H 1319.77 4.86385 0.754333 0
M  V30 14520 N 1321.42 0.00503138 1.57599 0
M  V30 14521 C 1322.35 -0.983586 2.11773 0
M  V30 14522 C 1323.33 -1.35518 1.02805 0
M  V30 14523 O 1324.52 -1.43804 1.30514 0
M  V30 14524 C 1321.65 -2.27383 2.62515 0
M  V30 14525 C 1320.6 -2.0437 3.76054 0
M  V30 14526 C 1319.93 -3.39451 4.1313 0
M  V30 14527 C 1321.23 -1.40223 5.03125 0
M  V30 14528 H 1322.92 -0.532501 2.94627 0
M  V30 14529 H 1320.47 -0.254696 1.4173 0
M  V30 14530 H 1322.42 -2.96903 2.99043 0
M  V30 14531 H 1321.14 -2.74614 1.7679 0
M  V30 14532 H 1319.8 -1.37275 3.39928 0
M  V30 14533 H 1319.45 -3.84395 3.24422 0
M  V30 14534 H 1319.15 -3.24868 4.89627 0
M  V30 14535 H 1320.68 -4.10279 4.52221 0
M  V30 14536 H 1322.09 -1.99708 5.37392 0
M  V30 14537 H 1320.49 -1.36112 5.8446 0
M  V30 14538 H 1321.56 -0.372073 4.8347 0
M  V30 14539 N 1322.9 -1.55308 -0.267798 0
M  V30 14540 C 1324.14 -1.77913 -1.0063 0
M  V30 14541 C 1324.5 -0.571149 -1.83308 0
M  V30 14542 O 1325.7 -0.675552 -2.60173 0
M  V30 14543 C 1323.98 -3.05112 -1.86123 0
M  V30 14544 S 1325.53 -3.48856 -2.66167 0
M  V30 14545 H 1322.35 -0.625065 -0.338843 0
M  V30 14546 H 1324.95 -1.93539 -0.276196 0
M  V30 14547 H 1323.66 -3.91118 -1.24317 0
M  V30 14548 H 1323.19 -2.92165 -2.63444 0
M  V30 14549 H 1325.2 -3.0854 -3.8861 0
M  V30 14550 N 1324.38 0.532545 -1.4833 0
M  V30 14551 C 1325.34 1.61955 -1.62183 0
M  V30 14552 C 1326.34 1.52982 -0.495281 0
M  V30 14553 O 1327.53 1.56698 -0.761005 0
M  V30 14554 C 1324.66 3.0157 -1.58961 0
M  V30 14555 H 1325.86 1.51013 -2.59105 0
M  V30 14556 H 1323.41 0.754405 -1.36888 0
M  V30 14557 H 1324.14 3.18021 -0.635069 0
M  V30 14558 H 1323.93 3.09491 -2.40744 0
M  V30 14559 H 1325.42 3.80604 -1.71843 0
M  V30 14560 N 1325.86 1.36875 0.78122 0
M  V30 14561 C 1326.77 1.3404 1.92537 0
M  V30 14562 C 1327.78 0.241354 1.72318 0
M  V30 14563 O 1328.96 0.475128 1.95715 0
M  V30 14564 C 1326.02 1.13708 3.27523 0
M  V30 14565 C 1325.08 2.33165 3.60462 0
M  V30 14566 C 1324.32 2.13793 4.89007 0
M  V30 14567 O 1324.54 1.11732 5.5935 0
M  V30 14568 O 1323.47 3.01762 5.20791 0
M  V30 14569 H 1327.3 2.30386 1.97879 0
M  V30 14570 H 1324.88 1.17506 0.922637 0
M  V30 14571 H 1326.77 1.0432 4.08283 0
M  V30 14572 H 1325.44 0.204306 3.23055 0
M  V30 14573 H 1324.35 2.48123 2.79974 0
M  V30 14574 H 1325.68 3.24977 3.69663 0
M  V30 14575 N 1327.33 -1.00632 1.21289 0
M  V30 14576 C 1328.3 -2.07543 0.972548 0
M  V30 14577 C 1329.3 -1.60703 -0.0559244 0
M  V30 14578 O 1330.49 -1.73255 0.181213 0
M  V30 14579 C 1327.62 -3.37696 0.466297 0
M  V30 14580 H 1328.81 -2.30298 1.92101 0
M  V30 14581 H 1326.36 -1.17588 1.02969 0
M  V30 14582 H 1327.1 -3.2062 -0.487148 0
M  V30 14583 H 1326.88 -3.73024 1.20813 0
M  V30 14584 H 1328.37 -4.16388 0.317962 0
M  V30 14585 N 1328.81 -1.02043 -1.20104 0
M  V30 14586 C 1329.72 -0.603724 -2.26699 0
M  V30 14587 C 1330.74 0.360558 -1.70223 0
M  V30 14588 O 1331.91 0.220552 -2.00189 0
M  V30 14589 C 1328.98 0.0475988 -3.46667 0
M  V30 14590 C 1328.04 -0.963111 -4.18357 0
M  V30 14591 C 1327.27 -0.342775 -5.32598 0
M  V30 14592 O 1327.5 0.856509 -5.63933 0
M  V30 14593 O 1326.43 -1.06141 -5.92467 0
M  V30 14594 H 1330.26 -1.49125 -2.64566 0
M  V30 14595 H 1327.84 -0.790134 -1.26796 0
M  V30 14596 H 1329.72 0.411177 -4.19389 0
M  V30 14597 H 1328.4 0.909266 -3.10667 0
M  V30 14598 H 1327.3 -1.37813 -3.47791 0
M  V30 14599 H 1328.64 -1.79487 -4.58307 0
M  V30 14600 N 1330.29 1.35952 -0.797165 0
M  V30 14601 C 1331.2 2.33726 -0.202271 0
M  V30 14602 C 1332.22 1.61415 0.649719 0
M  V30 14603 O 1333.39 1.93351 0.563686 0
M  V30 14604 C 1330.46 3.40612 0.64685 0
M  V30 14605 C 1329.52 4.28712 -0.224536 0
M  V30 14606 C 1328.75 5.30493 0.584153 0
M  V30 14607 O 1328.97 5.40599 1.81957 0
M  V30 14608 O 1327.91 6.01897 -0.0200239 0
M  V30 14609 H 1331.73 2.86383 -1.01087 0
M  V30 14610 H 1329.32 1.38557 -0.558768 0
M  V30 14611 H 1331.2 4.05944 1.1308 0
M  V30 14612 H 1329.88 2.90243 1.43321 0
M  V30 14613 H 1328.78 3.66394 -0.755415 0
M  V30 14614 H 1330.12 4.82454 -0.974603 0
M  V30 14615 N 1331.77 0.549846 1.47697 0
M  V30 14616 C 1332.7 -0.190364 2.32723 0
M  V30 14617 C 1333.68 -0.915933 1.43334 0
M  V30 14618 O 1334.86 -0.897838 1.72199 0
M  V30 14619 C 1331.99 -1.22545 3.24961 0
M  V30 14620 C 1330.95 -0.616805 4.23532 0
M  V30 14621 C 1330.27 -1.75599 5.05044 0
M  V30 14622 C 1331.57 0.424595 5.20571 0
M  V30 14623 H 1333.27 0.519461 2.94859 0
M  V30 14624 H 1330.81 0.251259 1.41791 0
M  V30 14625 H 1332.77 -1.75139 3.83281 0
M  V30 14626 H 1331.49 -1.96512 2.60865 0
M  V30 14627 H 1330.15 -0.112224 3.66428 0
M  V30 14628 H 1329.8 -2.48453 4.37356 0
M  V30 14629 H 1329.5 -1.35456 5.71774 0
M  V30 14630 H 1331.02 -2.28533 5.6622 0
M  V30 14631 H 1332.44 -0.0150025 5.73298 0
M  V30 14632 H 1330.83 0.7445 5.95464 0
M  V30 14633 H 1331.9 1.32318 4.66497 0
M  V30 14634 N 1333.25 -1.54984 0.285932 0
M  V30 14635 C 1334.66 -1.59455 -0.0679061 0
M  V30 14636 C 1334.86 -1.30308 -1.53695 0
M  V30 14637 O 1333.92 -1.06918 -2.28746 0
M  V30 14638 C 1335.23 -2.9903 0.316469 0
M  V30 14639 C 1336.78 -3.11885 0.263982 0
M  V30 14640 C 1337.25 -4.53744 0.622956 0
M  V30 14641 N 1338.75 -4.59618 0.574917 0
M  V30 14642 C 1339.48 -5.67429 0.825339 0
M  V30 14643 N 1338.98 -6.83341 1.14094 0
M  V30 14644 N 1340.77 -5.57028 0.75341 0
M  V30 14645 H 1332.92 -1.72194 1.2435 0
M  V30 14646 H 1335.18 -0.80348 0.503114 0
M  V30 14647 H 1334.89 -3.25232 1.33855 0
M  V30 14648 H 1334.76 -3.75688 -0.337371 0
M  V30 14649 H 1337.15 -2.85441 -0.748832 0
M  V30 14650 H 1337.23 -2.37416 0.952233 0
M  V30 14651 H 1336.88 -4.80915 1.63351 0
M  V30 14652 H 1336.81 -5.26528 -0.0872039 0
M  V30 14653 H 1339.3 -3.76356 0.341305 0
M  V30 14654 H 1339.61 -7.61471 1.3184 0
M  V30 14655 H 1337.95 -6.8493 1.17883 0
M  V30 14656 H 1341.15 -4.6535 0.506611 0
M  V30 14657 H 1341.32 -6.4097 0.95195 0
M  V30 14658 N 1334.72 -0.0133892 -1.57594 0
M  V30 14659 C 1335.69 0.958601 -2.08191 0
M  V30 14660 C 1336.69 1.26408 -0.993865 0
M  V30 14661 O 1337.88 1.20703 -1.25604 0
M  V30 14662 C 1335.01 2.27971 -2.5346 0
M  V30 14663 H 1336.2 0.520686 -2.95345 0
M  V30 14664 H 1333.76 0.234351 -1.54533 0
M  V30 14665 H 1334.49 2.76424 -1.69588 0
M  V30 14666 H 1334.28 2.07116 -3.32935 0
M  V30 14667 H 1335.77 2.97672 -2.92884 0
M  V30 14668 N 1336.2 1.55448 0.259558 0
M  V30 14669 C 1337.62 1.47588 0.607442 0
M  V30 14670 C 1337.82 0.701053 1.88911 0
M  V30 14671 O 1336.87 0.225305 2.51493 0
M  V30 14672 C 1338.19 2.91905 0.72192 0
M  V30 14673 C 1339.74 3.02201 0.815087 0
M  V30 14674 C 1340.21 4.47799 0.961231 0
M  V30 14675 N 1341.7 4.51684 1.02642 0
M  V30 14676 C 1342.44 5.61574 1.15854 0
M  V30 14677 N 1341.93 6.81301 1.257 0
M  V30 14678 N 1343.73 5.49344 1.1907 0
M  V30 14679 H 1335.88 2.04271 -0.581981 0
M  V30 14680 H 1338.14 0.926865 -0.199059 0
M  V30 14681 H 1337.85 3.51382 -0.149611 0
M  V30 14682 H 1337.72 3.41681 1.59793 0
M  V30 14683 H 1340.11 2.42813 1.67708 0
M  V30 14684 H 1340.19 2.55656 -0.0858102 0
M  V30 14685 H 1339.83 5.07794 0.103848 0
M  V30 14686 H 1339.76 4.92013 1.87698 0
M  V30 14687 H 1342.25 3.65446 0.962184 0
M  V30 14688 H 1342.57 7.60801 1.35652 0
M  V30 14689 H 1340.91 6.84087 1.2268 0
M  V30 14690 H 1344.1 4.54745 1.11018 0
M  V30 14691 H 1344.27 6.35025 1.29022 0
M  V30 14692 N 1337.68 -0.524672 1.4861 0
M  V30 14693 C 1338.61 -1.63782 1.66426 0
M  V30 14694 C 1339.59 -1.62177 0.513077 0
M  V30 14695 O 1340.78 -1.7929 0.74623 0
M  V30 14696 C 1337.91 -3.02354 1.70877 0
M  V30 14697 C 1336.86 -3.18819 2.85549 0
M  V30 14698 C 1336.19 -4.58506 2.75094 0
M  V30 14699 C 1337.49 -3.01086 4.26784 0
M  V30 14700 H 1339.18 -1.49127 2.59618 0
M  V30 14701 H 1336.73 -0.715997 1.24938 0
M  V30 14702 H 1338.68 -3.80105 1.81929 0
M  V30 14703 H 1337.4 -3.18044 0.742682 0
M  V30 14704 H 1336.06 -2.43487 2.74061 0
M  V30 14705 H 1335.71 -4.71038 1.76443 0
M  V30 14706 H 1335.41 -4.70466 3.52044 0
M  V30 14707 H 1336.93 -5.38348 2.88121 0
M  V30 14708 H 1338.35 -3.68624 4.39077 0
M  V30 14709 H 1336.75 -3.24536 5.04774 0
M  V30 14710 H 1337.82 -1.97454 4.42877 0
M  V30 14711 N 1339.16 -1.37287 -0.77395 0
M  V30 14712 C 1340.39 -1.35563 -1.56302 0
M  V30 14713 C 1340.8 0.0595356 -1.88706 0
M  V30 14714 O 1340.16 1.02072 -1.51286 0
M  V30 14715 C 1340.21 -2.19195 -2.87464 0
M  V30 14716 O 1339.93 -3.55197 -2.5645 0
M  V30 14717 C 1341.43 -2.25425 -3.81704 0
M  V30 14718 H 1338.65 -0.464431 -0.484298 0
M  V30 14719 H 1341.2 -1.80597 -0.959425 0
M  V30 14720 H 1339.35 -1.77676 -3.44253 0
M  V30 14721 H 1339.76 -3.99011 -3.40427 0
M  V30 14722 H 1341.24 -2.8827 -4.70749 0
M  V30 14723 H 1341.72 -1.26205 -4.20677 0
M  V30 14724 H 1342.32 -2.67247 -3.30846 0
M  V30 14725 N 1340.64 0.999871 -1.21821 0
M  V30 14726 C 1341.6 2.07024 -0.983541 0
M  V30 14727 C 1342.6 1.6073 0.0474011 0
M  V30 14728 O 1343.79 1.73156 -0.190398 0
M  V30 14729 C 1340.92 3.37444 -0.484199 0
M  V30 14730 H 1342.11 2.29276 -1.9332 0
M  V30 14731 H 1339.67 1.1704 -1.03592 0
M  V30 14732 H 1340.4 3.20874 0.470138 0
M  V30 14733 H 1340.19 3.72378 -1.2279 0
M  V30 14734 H 1341.68 4.16213 -0.34004 0
M  V30 14735 N 1342.11 1.02678 1.19562 0
M  V30 14736 C 1343.06 0.605764 2.22709 0
M  V30 14737 C 1344.03 -0.37936 1.6171 0
M  V30 14738 O 1345.22 -0.276496 1.88786 0
M  V30 14739 C 1342.36 -0.0394312 3.45077 0
M  V30 14740 C 1341.47 0.991481 4.20468 0
M  V30 14741 C 1340.6 0.316269 5.30258 0
M  V30 14742 C 1339.64 1.33324 5.97404 0
M  V30 14743 N 1338.78 0.683979 6.9876 0
M  V30 14744 H 1343.62 1.48994 2.58079 0
M  V30 14745 H 1341.16 0.745636 1.26802 0
M  V30 14746 H 1343.12 -0.430726 4.14971 0
M  V30 14747 H 1341.75 -0.887193 3.10369 0
M  V30 14748 H 1340.8 1.50085 3.49541 0
M  V30 14749 H 1342.11 1.76449 4.66548 0
M  V30 14750 H 1341.26 -0.129983 6.06561 0
M  V30 14751 H 1340 -0.488956 4.85243 0
M  V30 14752 H 1339.01 1.78977 5.19853 0
M  V30 14753 H 1340.23 2.13992 6.44503 0
M  V30 14754 H 1338.18 -0.101192 6.55922 0
M  V30 14755 H 1338.1 1.3949 7.4302 0
M  V30 14756 H 1339.36 0.261658 7.79061 0
M  V30 14757 N 1343.59 -1.35528 0.804364 0
M  V30 14758 C 1344.54 -2.29832 0.211186 0
M  V30 14759 C 1345.51 -1.52704 -0.653503 0
M  V30 14760 O 1346.69 -1.81152 -0.599052 0
M  V30 14761 C 1343.83 -3.39188 -0.636054 0
M  V30 14762 C 1342.95 -4.31283 0.248824 0
M  V30 14763 C 1342.08 -5.2773 -0.60621 0
M  V30 14764 C 1341.12 -6.11463 0.279205 0
M  V30 14765 N 1340.26 -7.00054 -0.535672 0
M  V30 14766 H 1345.1 -2.79971 1.0208 0
M  V30 14767 H 1342.64 -1.37793 0.514931 0
M  V30 14768 H 1344.59 -4.01254 -1.14241 0
M  V30 14769 H 1343.22 -2.90331 -1.41095 0
M  V30 14770 H 1342.28 -3.70241 0.873263 0
M  V30 14771 H 1343.59 -4.90046 0.930417 0
M  V30 14772 H 1342.74 -5.95158 -1.17778 0
M  V30 14773 H 1341.48 -4.69458 -1.32138 0
M  V30 14774 H 1340.49 -5.42984 0.863066 0
M  V30 14775 H 1341.71 -6.71813 0.9922 0
M  V30 14776 H 1339.66 -6.44273 -1.23486 0
M  V30 14777 H 1339.57 -7.55949 0.0879213 0
M  V30 14778 H 1340.84 -7.71833 -1.09059 0
M  V30 14779 N 1345.07 -0.557671 -1.47404 0
M  V30 14780 C 1346 0.227253 -2.28071 0
M  V30 14781 C 1347.02 0.878951 -1.37034 0
M  V30 14782 O 1348.21 0.752725 -1.61853 0
M  V30 14783 C 1345.31 1.33942 -3.11308 0
M  V30 14784 C 1344.48 0.784425 -4.30309 0
M  V30 14785 C 1343.54 1.78114 -4.95138 0
M  V30 14786 O 1342.56 1.32708 -5.53514 0
M  V30 14787 N 1343.77 3.11453 -4.89875 0
M  V30 14788 H 1346.53 -0.464709 -2.96075 0
M  V30 14789 H 1344.09 -0.393777 -1.57038 0
M  V30 14790 H 1346.08 2.00495 -3.51545 0
M  V30 14791 H 1344.65 1.93461 -2.45543 0
M  V30 14792 H 1343.87 -0.0578917 -3.94157 0
M  V30 14793 H 1345.16 0.39298 -5.0728 0
M  V30 14794 H 1344.56 3.50987 -4.43649 0
M  V30 14795 H 1343.12 3.73563 -5.34129 0
M  V30 14796 N 1346.55 1.54831 -0.294147 0
M  V30 14797 C 1347.46 2.26939 0.594621 0
M  V30 14798 C 1348.48 1.30209 1.15419 0
M  V30 14799 O 1349.65 1.6318 1.18044 0
M  V30 14800 C 1346.72 2.9909 1.75345 0
M  V30 14801 C 1345.78 4.11342 1.22865 0
M  V30 14802 C 1345.01 4.80043 2.33225 0
M  V30 14803 O 1345.23 4.48062 3.52983 0
M  V30 14804 O 1344.17 5.67593 2.00304 0
M  V30 14805 H 1347.99 3.03698 0.00989235 0
M  V30 14806 H 1345.58 1.49276 -0.0608528 0
M  V30 14807 H 1347.46 3.44369 2.42875 0
M  V30 14808 H 1346.14 2.25232 2.32492 0
M  V30 14809 H 1345.04 3.70478 0.519279 0
M  V30 14810 H 1346.38 4.87158 0.702703 0
M  V30 14811 N 1348.03 0.0217466 1.57585 0
M  V30 14812 C 1348.96 -0.961069 2.12804 0
M  V30 14813 C 1349.94 -1.3442 1.04237 0
M  V30 14814 O 1351.12 -1.42412 1.32032 0
M  V30 14815 C 1348.25 -2.24586 2.64912 0
M  V30 14816 C 1347.21 -2.0037 3.78201 0
M  V30 14817 C 1346.53 -3.35051 4.16708 0
M  V30 14818 C 1347.83 -1.34879 5.04584 0
M  V30 14819 H 1349.53 -0.501222 2.95175 0
M  V30 14820 H 1347.07 -0.239649 1.41992 0
M  V30 14821 H 1349.03 -2.93715 3.02175 0
M  V30 14822 H 1347.75 -2.72723 1.79693 0
M  V30 14823 H 1346.41 -1.33662 3.41365 0
M  V30 14824 H 1346.06 -3.80932 3.28481 0
M  V30 14825 H 1345.76 -3.19656 4.93045 0
M  V30 14826 H 1347.28 -4.05459 4.56547 0
M  V30 14827 H 1348.7 -1.93997 5.3948 0
M  V30 14828 H 1347.09 -1.29906 5.85871 0
M  V30 14829 H 1348.16 -0.320774 4.83838 0
M  V30 14830 N 1349.51 -1.55583 -0.251311 0
M  V30 14831 C 1350.42 -1.93073 -1.33266 0
M  V30 14832 C 1351.43 -0.830612 -1.52895 0
M  V30 14833 O 1352.61 -1.13162 -1.66602 0
M  V30 14834 C 1349.67 -2.21396 -2.66805 0
M  V30 14835 C 1348.73 -3.44815 -2.55737 0
M  V30 14836 C 1347.97 -3.71777 -3.82907 0
M  V30 14837 O 1348.19 -3.00884 -4.84587 0
M  V30 14838 O 1347.12 -4.65305 -3.81805 0
M  V30 14839 H 1350.95 -2.85168 -1.04465 0
M  V30 14840 H 1348.53 -1.42408 -0.451693 0
M  V30 14841 H 1350.42 -2.4094 -3.45725 0
M  V30 14842 H 1349.09 -1.3248 -2.95348 0
M  V30 14843 H 1348 -3.30582 -1.75118 0
M  V30 14844 H 1349.33 -4.34019 -2.32139 0
M  V30 14845 N 1350.98 0.516783 -1.48886 0
M  V30 14846 C 1351.89 1.6467 -1.67095 0
M  V30 14847 C 1352.91 1.64963 -0.553466 0
M  V30 14848 O 1354.09 1.83673 -0.826206 0
M  V30 14849 C 1351.15 3.01095 -1.71879 0
M  V30 14850 C 1350.21 3.11554 -2.95352 0
M  V30 14851 C 1349.44 4.41471 -2.99898 0
M  V30 14852 O 1349.67 5.29348 -2.12477 0
M  V30 14853 O 1348.6 4.56573 -3.92205 0
M  V30 14854 H 1352.43 1.52242 -2.62785 0
M  V30 14855 H 1350.01 0.69134 -1.32442 0
M  V30 14856 H 1351.89 3.82207 -1.77471 0
M  V30 14857 H 1350.57 3.1382 -0.793656 0
M  V30 14858 H 1349.48 2.29689 -2.95286 0
M  V30 14859 H 1350.81 3.03751 -3.87294 0
M  V30 14860 N 1352.46 1.37696 0.766659 0
M  V30 14861 C 1353.71 1.32507 1.52069 0
M  V30 14862 C 1354.02 -0.0864967 1.95409 0
M  V30 14863 O 1355.23 -0.260877 2.70244 0
M  V30 14864 C 1353.69 2.32614 2.74625 0
M  V30 14865 C 1353.29 3.79325 2.38363 0
M  V30 14866 C 1355.04 2.36445 3.52554 0
M  V30 14867 C 1352.94 4.7115 3.57451 0
M  V30 14868 H 1351.87 0.492491 0.570937 0
M  V30 14869 H 1354.53 1.63183 0.839268 0
M  V30 14870 H 1352.91 1.94963 3.44682 0
M  V30 14871 H 1354.08 4.25841 1.76056 0
M  V30 14872 H 1352.4 3.78488 1.73597 0
M  V30 14873 H 1354.99 3.02252 4.41076 0
M  V30 14874 H 1355.34 1.37953 3.92778 0
M  V30 14875 H 1355.87 2.72829 2.89498 0
M  V30 14876 H 1352.61 5.70789 3.22304 0
M  V30 14877 H 1352.13 4.29335 4.18846 0
M  V30 14878 H 1353.81 4.88532 4.242 0
M  V30 14879 N 1353.94 -0.993397 1.22349 0
M  V30 14880 C 1355.18 -1.74807 1.05933 0
M  V30 14881 C 1355.54 -1.87815 -0.398702 0
M  V30 14882 O 1356.74 -2.5996 -0.683703 0
M  V30 14883 C 1355.02 -3.11601 1.75042 0
M  V30 14884 S 1356.57 -4.02813 1.74032 0
M  V30 14885 H 1353.39 -0.601331 0.379371 0
M  V30 14886 H 1355.99 -1.18777 1.55282 0
M  V30 14887 H 1354.7 -2.99775 2.80291 0
M  V30 14888 H 1354.23 -3.72703 1.25922 0
M  V30 14889 H 1356.24 -4.89876 0.789658 0
M  V30 14890 N 1355.42 -1.03311 -1.19015 0
M  V30 14891 C 1356.37 -0.588076 -2.20285 0
M  V30 14892 C 1357.35 0.365442 -1.56695 0
M  V30 14893 O 1358.54 0.185725 -1.76023 0
M  V30 14894 C 1355.67 0.0553478 -3.43255 0
M  V30 14895 C 1354.76 -0.920863 -4.13982 0
M  V30 14896 N 1355.15 -2.08495 -4.60829 0
M  V30 14897 C 1353.45 -0.74522 -4.3973 0
M  V30 14898 C 1354.15 -2.701 -5.1519 0
M  V30 14899 N 1353.12 -1.98031 -5.06246 0
M  V30 14900 H 1356.93 -1.47529 -2.54189 0
M  V30 14901 H 1354.44 -0.900663 -1.35136 0
M  V30 14902 H 1356.44 0.39182 -4.15055 0
M  V30 14903 H 1355.1 0.938199 -3.1085 0
M  V30 14904 H 1356.11 -2.46418 -4.5552 0
M  V30 14905 H 1352.79 0.088182 -4.17407 0
M  V30 14906 H 1354.18 -3.6871 -5.61696 0
M  V30 14907 N 1356.9 1.35099 -0.81154 0
M  V30 14908 C 1358.17 1.93009 -0.317289 0
M  V30 14909 C 1358.55 1.74101 1.19382 0
M  V30 14910 O 1357.9 1.11295 1.99564 0
M  V30 14911 C 1358.11 3.41191 -0.734123 0
M  V30 14912 C 1359.46 4.1834 -0.726437 0
M  V30 14913 O 1360.48 3.49727 -0.67598 0
M  V30 14914 O 1359.34 5.4077 -0.789291 0
M  V30 14915 H 1356.44 0.822707 -0.084153 0
M  V30 14916 H 1358.98 1.44145 -0.895569 0
M  V30 14917 H 1357.75 3.48705 -1.7754 0
M  V30 14918 H 1357.38 3.97384 -0.130919 0
M  V30 14919 N 1358.37 0.56548 1.47106 0
M  V30 14920 C 1359.3 -0.16567 2.32912 0
M  V30 14921 C 1360.28 -0.900678 1.44298 0
M  V30 14922 O 1361.47 -0.879523 1.73142 0
M  V30 14923 C 1358.6 -1.19092 3.26243 0
M  V30 14924 C 1357.55 -0.571849 4.24163 0
M  V30 14925 C 1356.88 -1.70233 5.06878 0
M  V30 14926 C 1358.18 0.479785 5.20092 0
M  V30 14927 H 1359.87 0.550705 2.94292 0
M  V30 14928 H 1357.42 0.266284 1.41517 0
M  V30 14929 H 1359.37 -1.71064 3.85117 0
M  V30 14930 H 1358.1 -1.93734 2.62934 0
M  V30 14931 H 1356.76 -0.073353 3.66527 0
M  V30 14932 H 1356.4 -2.438 4.39967 0
M  V30 14933 H 1356.1 -1.29384 5.73178 0
M  V30 14934 H 1357.63 -2.22515 5.68612 0
M  V30 14935 H 1359.04 0.0458042 5.73282 0
M  V30 14936 H 1357.44 0.807615 5.94641 0
M  V30 14937 H 1358.51 1.37259 4.65068 0
M  V30 14938 N 1359.85 -1.54672 0.302354 0
M  V30 14939 C 1360.76 -2.27251 -0.582578 0
M  V30 14940 C 1361.78 -1.30819 -1.14727 0
M  V30 14941 O 1362.95 -1.63803 -1.17177 0
M  V30 14942 C 1360.02 -3.00016 -1.73757 0
M  V30 14943 C 1359.08 -4.11988 -1.20682 0
M  V30 14944 C 1358.31 -4.81273 -2.30676 0
M  V30 14945 O 1358.54 -4.49927 -3.50602 0
M  V30 14946 O 1357.47 -5.68647 -1.97291 0
M  V30 14947 H 1361.3 -3.03699 0.00621365 0
M  V30 14948 H 1358.88 -1.49242 0.0687684 0
M  V30 14949 H 1360.76 -3.45652 -2.41045 0
M  V30 14950 H 1359.44 -2.26462 -2.31294 0
M  V30 14951 H 1358.35 -3.70749 -0.499625 0
M  V30 14952 H 1359.68 -4.87524 -0.676858 0
M  V30 14953 N 1361.33 -0.0301034 -1.57571 0
M  V30 14954 C 1362.29 0.936465 -2.09196 0
M  V30 14955 C 1363.29 1.25347 -1.00722 0
M  V30 14956 O 1364.48 1.19364 -1.26877 0
M  V30 14957 C 1361.62 2.2527 -2.55864 0
M  V30 14958 H 1362.81 0.489332 -2.95881 0
M  V30 14959 H 1360.36 0.217948 -1.54773 0
M  V30 14960 H 1361.1 2.7461 -1.72511 0
M  V30 14961 H 1360.88 2.03573 -3.35113 0
M  V30 14962 H 1362.37 2.94549 -2.96025 0
M  V30 14963 N 1362.81 1.55714 0.243056 0
M  V30 14964 C 1364.22 1.48224 0.591754 0
M  V30 14965 C 1364.42 0.72105 1.88157 0
M  V30 14966 O 1363.48 0.251966 2.5124 0
M  V30 14967 C 1364.79 2.92655 0.690918 0
M  V30 14968 C 1366.34 3.03048 0.782988 0
M  V30 14969 C 1366.82 4.48794 0.913682 0
M  V30 14970 N 1368.31 4.52748 0.978454 0
M  V30 14971 C 1369.04 5.62771 1.09891 0
M  V30 14972 N 1368.54 6.82596 1.18467 0
M  V30 14973 N 1370.33 5.50576 1.13237 0
M  V30 14974 H 1362.48 2.03642 -0.603614 0
M  V30 14975 H 1364.75 0.924702 -0.208878 0
M  V30 14976 H 1364.45 3.51203 -0.186871 0
M  V30 14977 H 1364.33 3.43357 1.5616 0
M  V30 14978 H 1366.71 2.44578 1.65123 0
M  V30 14979 H 1366.79 2.55551 -0.112921 0
M  V30 14980 H 1366.44 5.07875 0.0499835 0
M  V30 14981 H 1366.37 4.93976 1.82469 0
M  V30 14982 H 1368.86 3.66445 0.92337 0
M  V30 14983 H 1369.17 7.62197 1.27576 0
M  V30 14984 H 1367.52 6.85349 1.15418 0
M  V30 14985 H 1370.71 4.55897 1.06188 0
M  V30 14986 H 1370.88 6.36358 1.2228 0
M  V30 14987 N 1364.29 -0.50888 1.49158 0
M  V30 14988 C 1365.53 -1.26537 1.58481 0
M  V30 14989 C 1365.87 -1.92353 0.267168 0
M  V30 14990 O 1365.14 -1.80336 -0.728639 0
M  V30 14991 C 1365.42 -2.33846 2.73839 0
M  V30 14992 C 1365.28 -1.72582 4.15374 0
M  V30 14993 C 1366.6 -3.35467 2.84868 0
M  V30 14994 H 1363.71 -0.458697 0.576859 0
M  V30 14995 H 1366.36 -0.564728 1.81413 0
M  V30 14996 H 1364.51 -2.93605 2.54417 0
M  V30 14997 H 1366.18 -1.16711 4.46292 0
M  V30 14998 H 1364.42 -1.03025 4.21389 0
M  V30 14999 H 1365.09 -2.5038 4.91949 0
M  V30 15000 H 1367.57 -2.85689 3.02524 0
M  V30 15001 H 1366.44 -4.07922 3.67275 0
M  V30 15002 H 1366.71 -3.97313 1.93894 0
M  V30 15003 N 1365.76 -1.381 -0.759346 0
M  V30 15004 C 1366.67 -1.37086 -1.9038 0
M  V30 15005 C 1367.69 -0.268738 -1.71912 0
M  V30 15006 O 1368.87 -0.506205 -1.94935 0
M  V30 15007 C 1365.93 -1.18905 -3.25672 0
M  V30 15008 C 1364.99 -2.3887 -3.56707 0
M  V30 15009 C 1364.23 -2.21546 -4.85544 0
M  V30 15010 O 1364.45 -1.20616 -5.57501 0
M  V30 15011 O 1363.38 -3.10009 -5.15924 0
M  V30 15012 H 1367.21 -2.33505 -1.94188 0
M  V30 15013 H 1364.79 -1.18959 -0.903826 0
M  V30 15014 H 1366.68 -1.10803 -4.06572 0
M  V30 15015 H 1365.35 -0.255675 -3.22689 0
M  V30 15016 H 1364.26 -2.52546 -2.75992 0
M  V30 15017 H 1365.59 -3.30817 -3.64446 0
M  V30 15018 N 1367.24 0.986894 -1.22875 0
M  V30 15019 C 1368.15 2.11232 -1.02069 0
M  V30 15020 C 1369.17 1.73969 0.0328424 0
M  V30 15021 O 1370.34 2.00754 -0.161197 0
M  V30 15022 C 1367.41 3.41337 -0.60747 0
M  V30 15023 C 1366.47 3.92665 -1.73531 0
M  V30 15024 C 1365.7 5.1656 -1.34171 0
M  V30 15025 O 1365.93 5.69964 -0.223106 0
M  V30 15026 O 1364.86 5.61791 -2.16041 0
M  V30 15027 H 1368.69 2.3167 -1.96374 0
M  V30 15028 H 1366.27 1.09607 -1.01522 0
M  V30 15029 H 1368.15 4.19613 -0.387661 0
M  V30 15030 H 1366.83 3.22244 0.306653 0
M  V30 15031 H 1365.74 3.15534 -2.0097 0
M  V30 15032 H 1367.07 4.162 -2.62751 0
M  V30 15033 N 1368.72 1.0394 1.18466 0
M  V30 15034 C 1369.63 0.639714 2.2571 0
M  V30 15035 C 1370.65 -0.333431 1.70775 0
M  V30 15036 O 1371.82 -0.188676 2.00514 0
M  V30 15037 C 1368.89 0.007559 3.46699 0
M  V30 15038 C 1367.95 1.02955 4.16772 0
M  V30 15039 C 1367.18 0.427464 5.31985 0
M  V30 15040 O 1367.4 -0.766684 5.65224 0
M  V30 15041 O 1366.34 1.15553 5.90704 0
M  V30 15042 H 1370.16 1.53316 2.6216 0
M  V30 15043 H 1367.75 0.810206 1.25523 0
M  V30 15044 H 1369.63 -0.344404 4.1999 0
M  V30 15045 H 1368.31 -0.859727 3.12074 0
M  V30 15046 H 1367.21 1.43328 3.45554 0
M  V30 15047 H 1368.55 1.86756 4.55393 0
M  V30 15048 N 1370.2 -1.34667 0.818693 0
M  V30 15049 C 1371.11 -2.33375 0.239429 0
M  V30 15050 C 1372.12 -1.62428 -0.623957 0
M  V30 15051 O 1373.3 -1.94223 -0.532854 0
M  V30 15052 C 1370.37 -3.41598 -0.59258 0
M  V30 15053 C 1369.43 -4.28301 0.292712 0
M  V30 15054 C 1368.66 -5.31356 -0.499682 0
M  V30 15055 O 1368.88 -5.43426 -1.73334 0
M  V30 15056 O 1367.82 -6.01789 0.115778 0
M  V30 15057 H 1371.64 -2.84738 1.05631 0
M  V30 15058 H 1369.23 -1.37651 0.58074 0
M  V30 15059 H 1371.11 -4.07692 -1.06607 0
M  V30 15060 H 1369.78 -2.92486 -1.38685 0
M  V30 15061 H 1368.69 -3.65145 0.81361 0
M  V30 15062 H 1370.02 -4.80843 1.05123 0
M  V30 15063 N 1371.68 -0.573274 -1.46804 0
M  V30 15064 C 1372.59 0.168081 -2.33997 0
M  V30 15065 C 1373.6 0.895652 -1.49178 0
M  V30 15066 O 1374.78 0.860951 -1.8207 0
M  V30 15067 C 1371.84 1.17483 -3.26188 0
M  V30 15068 C 1370.9 0.452956 -4.26904 0
M  V30 15069 C 1370.14 1.41175 -5.1469 0
M  V30 15070 O 1370.36 2.64767 -5.05227 0
M  V30 15071 O 1369.29 0.927472 -5.94711 0
M  V30 15072 H 1373.12 -0.547576 -2.98723 0
M  V30 15073 H 1370.71 -0.333747 -1.45624 0
M  V30 15074 H 1372.59 1.75557 -3.8309 0
M  V30 15075 H 1371.26 1.87213 -2.6407 0
M  V30 15076 H 1370.17 -0.169383 -3.73716 0
M  V30 15077 H 1371.5 -0.203186 -4.9178 0
M  V30 15078 N 1373.15 1.5451 -0.310553 0
M  V30 15079 C 1374.57 1.59543 0.0425296 0
M  V30 15080 C 1374.77 1.32737 1.51602 0
M  V30 15081 O 1373.83 1.10543 2.27016 0
M  V30 15082 C 1375.14 2.98489 -0.364002 0
M  V30 15083 C 1376.69 3.11425 -0.313566 0
M  V30 15084 C 1377.16 4.52695 -0.695064 0
M  V30 15085 N 1378.65 4.58645 -0.647966 0
M  V30 15086 C 1379.39 5.66044 -0.915508 0
M  V30 15087 N 1378.88 6.81439 -1.24951 0
M  V30 15088 N 1380.68 5.55759 -0.841933 0
M  V30 15089 H 1372.83 1.70194 -1.27074 0
M  V30 15090 H 1375.09 0.795374 -0.515833 0
M  V30 15091 H 1374.8 3.23061 -1.39012 0
M  V30 15092 H 1374.67 3.76177 0.27756 0
M  V30 15093 H 1377.06 2.86596 0.703326 0
M  V30 15094 H 1377.14 2.35871 -0.989883 0
M  V30 15095 H 1376.78 4.78255 -1.70981 0
M  V30 15096 H 1376.71 5.266 0.00342684 0
M  V30 15097 H 1379.2 3.75765 -0.401137 0
M  V30 15098 H 1379.52 7.59277 -1.43938 0
M  V30 15099 H 1377.86 6.82968 -1.28764 0
M  V30 15100 H 1381.05 4.64486 -0.58058 0
M  V30 15101 H 1381.23 6.39374 -1.0538 0
M  V30 15102 N 1374.63 0.0384594 1.57553 0
M  V30 15103 C 1375.87 -0.642187 1.9405 0
M  V30 15104 C 1376.24 -1.68753 0.915779 0
M  V30 15105 O 1377.44 -2.42133 1.16726 0
M  V30 15106 C 1375.71 -1.23422 3.35413 0
M  V30 15107 S 1377.27 -1.93464 3.93849 0
M  V30 15108 H 1374.09 -0.211198 0.678908 0
M  V30 15109 H 1376.69 0.104358 1.95221 0
M  V30 15110 H 1375.39 -0.461112 4.07801 0
M  V30 15111 H 1374.92 -2.01787 3.37707 0
M  V30 15112 H 1376.94 -3.21401 3.78042 0
M  V30 15113 N 1376.11 -1.55841 -0.234795 0
M  V30 15114 C 1377.04 -1.87793 -1.31402 0
M  V30 15115 C 1378.06 -0.765113 -1.43701 0
M  V30 15116 O 1379.25 -1.04332 -1.44834 0
M  V30 15117 C 1376.35 -2.05976 -2.69123 0
M  V30 15118 C 1375.52 -3.36914 -2.7894 0
M  V30 15119 C 1374.58 -3.44691 -3.97586 0
M  V30 15120 O 1373.6 -4.17818 -3.86545 0
M  V30 15121 N 1374.81 -2.74866 -5.11301 0
M  V30 15122 H 1377.57 -2.80957 -1.04324 0
M  V30 15123 H 1375.13 -1.56226 -0.424872 0
M  V30 15124 H 1377.12 -2.08507 -3.46853 0
M  V30 15125 H 1375.69 -1.195 -2.88857 0
M  V30 15126 H 1374.91 -3.46595 -1.87791 0
M  V30 15127 H 1376.2 -4.23196 -2.82458 0
M  V30 15128 H 1375.6 -2.15208 -5.23165 0
M  V30 15129 H 1374.16 -2.83075 -5.87122 0
M  V30 15130 N 1377.59 0.500963 -1.49426 0
M  V30 15131 C 1378.54 1.59939 -1.62492 0
M  V30 15132 C 1379.52 1.53555 -0.480584 0
M  V30 15133 O 1380.72 1.61085 -0.733538 0
M  V30 15134 C 1377.84 2.98549 -1.6948 0
M  V30 15135 C 1376.93 3.09929 -2.89491 0
M  V30 15136 N 1377.32 2.91198 -4.13567 0
M  V30 15137 C 1375.62 3.41029 -2.87428 0
M  V30 15138 C 1376.32 3.06761 -4.94239 0
M  V30 15139 N 1375.3 3.35639 -4.27606 0
M  V30 15140 H 1379.1 1.44111 -2.56143 0
M  V30 15141 H 1376.61 0.707088 -1.46199 0
M  V30 15142 H 1378.61 3.7749 -1.76938 0
M  V30 15143 H 1377.27 3.15446 -0.769658 0
M  V30 15144 H 1378.28 2.67373 -4.43545 0
M  V30 15145 H 1374.96 3.64103 -2.04293 0
M  V30 15146 H 1376.35 2.96772 -6.02807 0
M  V30 15147 N 1379.07 1.38501 0.752011 0
M  V30 15148 C 1380 1.38577 1.87933 0
M  V30 15149 C 1380.98 0.251454 1.68231 0
M  V30 15150 O 1382.16 0.45477 1.888 0
M  V30 15151 C 1379.29 1.21164 3.25479 0
M  V30 15152 C 1378.25 2.31816 3.59785 0
M  V30 15153 C 1377.57 1.99508 4.96085 0
M  V30 15154 C 1378.87 3.74082 3.645 0
M  V30 15155 H 1380.57 2.32913 1.88127 0
M  V30 15156 H 1378.11 1.12113 0.903698 0
M  V30 15157 H 1380.07 1.19842 4.04 0
M  V30 15158 H 1378.79 0.232899 3.25769 0
M  V30 15159 H 1377.45 2.32327 2.83584 0
M  V30 15160 H 1377.1 1.00114 4.92936 0
M  V30 15161 H 1376.8 2.73617 5.20007 0
M  V30 15162 H 1378.32 1.99807 5.76983 0
M  V30 15163 H 1379.74 3.75593 4.33131 0
M  V30 15164 H 1378.13 4.47409 3.99931 0
M  V30 15165 H 1379.2 4.06284 2.64692 0
M  V30 15166 N 1380.55 -0.980364 1.23396 0
M  V30 15167 C 1381.48 -2.07522 0.972991 0
M  V30 15168 C 1382.49 -1.62714 -0.0530191 0
M  V30 15169 O 1383.68 -1.77564 0.182513 0
M  V30 15170 C 1380.78 -3.35977 0.444126 0
M  V30 15171 C 1379.95 -4.09756 1.53031 0
M  V30 15172 C 1379.01 -5.16488 1.00631 0
M  V30 15173 O 1378.04 -5.43368 1.69529 0
M  V30 15174 N 1379.24 -5.80263 -0.165842 0
M  V30 15175 H 1382 -2.30487 1.91561 0
M  V30 15176 H 1379.57 -1.14706 1.14255 0
M  V30 15177 H 1381.56 -4.04624 0.078617 0
M  V30 15178 H 1380.13 -3.0998 -0.403912 0
M  V30 15179 H 1379.35 -3.35564 2.06858 0
M  V30 15180 H 1380.64 -4.55815 2.26076 0
M  V30 15181 H 1380.03 -5.60811 -0.742162 0
M  V30 15182 H 1378.59 -6.50084 -0.472614 0
M  V30 15183 N 1382.02 -1.04567 -1.17913 0
M  V30 15184 C 1382.99 -0.645476 -2.19923 0
M  V30 15185 C 1383.99 0.299763 -1.57981 0
M  V30 15186 O 1385.18 0.0844825 -1.73995 0
M  V30 15187 C 1382.31 0.0528935 -3.40859 0
M  V30 15188 H 1383.5 -1.54828 -2.56843 0
M  V30 15189 H 1381.05 -0.838812 -1.31885 0
M  V30 15190 H 1381.79 0.969261 -3.09477 0
M  V30 15191 H 1381.57 -0.626558 -3.87062 0
M  V30 15192 H 1383.06 0.319221 -4.16378 0
M  V30 15193 N 1383.5 1.34231 -0.825823 0
M  V30 15194 C 1384.41 2.33245 -0.251803 0
M  V30 15195 C 1385.43 1.62756 0.615334 0
M  V30 15196 O 1386.6 1.94503 0.522547 0
M  V30 15197 C 1383.67 3.41908 0.574456 0
M  V30 15198 C 1382.73 4.2814 -0.315422 0
M  V30 15199 C 1381.96 5.31613 0.471496 0
M  V30 15200 O 1382.19 5.44337 1.70449 0
M  V30 15201 O 1381.12 6.01719 -0.147691 0
M  V30 15202 H 1384.95 2.84174 -1.07139 0
M  V30 15203 H 1382.53 1.37341 -0.588032 0
M  V30 15204 H 1384.41 4.08252 1.04444 0
M  V30 15205 H 1383.09 2.93217 1.37132 0
M  V30 15206 H 1381.99 3.64709 -0.832963 0
M  V30 15207 H 1383.33 4.80279 -1.07672 0
M  V30 15208 N 1384.98 0.581051 1.46498 0
M  V30 15209 C 1385.93 -0.153147 2.30291 0
M  V30 15210 C 1386.9 -0.885681 1.40517 0
M  V30 15211 O 1388.08 -0.876678 1.69467 0
M  V30 15212 C 1385.22 -1.16193 3.24951 0
M  V30 15213 C 1384.33 -0.433016 4.29824 0
M  V30 15214 C 1383.47 -1.42918 5.11613 0
M  V30 15215 C 1382.51 -0.686576 6.08237 0
M  V30 15216 N 1381.65 -1.63072 6.829 0
M  V30 15217 H 1386.49 0.56747 2.92547 0
M  V30 15218 H 1384.02 0.29166 1.4418 0
M  V30 15219 H 1385.98 -1.75965 3.78275 0
M  V30 15220 H 1384.61 -1.85028 2.64508 0
M  V30 15221 H 1383.66 0.279707 3.7937 0
M  V30 15222 H 1384.97 0.147604 4.98582 0
M  V30 15223 H 1384.13 -2.09975 5.69206 0
M  V30 15224 H 1382.87 -2.04373 4.42813 0
M  V30 15225 H 1381.87 -0.00222013 5.498 0
M  V30 15226 H 1383.1 -0.0774416 6.79056 0
M  V30 15227 H 1381.04 -2.2334 6.1681 0
M  V30 15228 H 1380.96 -1.10286 7.47912 0
M  V30 15229 H 1382.23 -2.29169 7.45052 0
M  V30 15230 N 1386.46 -1.54343 0.318742 0
M  V30 15231 C 1387.4 -2.24166 -0.549397 0
M  V30 15232 C 1388.37 -1.23068 -1.1155 0
M  V30 15233 O 1389.56 -1.51737 -1.15674 0
M  V30 15234 C 1386.7 -2.99938 -1.70678 0
M  V30 15235 C 1385.81 -4.15844 -1.17037 0
M  V30 15236 C 1384.95 -4.79158 -2.29305 0
M  V30 15237 C 1383.99 -5.87176 -1.72888 0
M  V30 15238 N 1383.12 -6.44372 -2.78799 0
M  V30 15239 H 1387.96 -2.97954 0.0526018 0
M  V30 15240 H 1385.5 -1.47052 0.0377307 0
M  V30 15241 H 1387.46 -3.42113 -2.38777 0
M  V30 15242 H 1386.09 -2.28494 -2.28014 0
M  V30 15243 H 1385.14 -3.78486 -0.381082 0
M  V30 15244 H 1386.45 -4.93612 -0.717507 0
M  V30 15245 H 1385.61 -5.24277 -3.05317 0
M  V30 15246 H 1384.35 -4.0076 -2.77926 0
M  V30 15247 H 1383.35 -5.41465 -0.953714 0
M  V30 15248 H 1384.58 -6.67469 -1.2515 0
M  V30 15249 H 1382.52 -5.6885 -3.2672 0
M  V30 15250 H 1382.44 -7.17539 -2.38062 0
M  V30 15251 H 1383.71 -6.94147 -3.54655 0
M  V30 15252 N 1387.94 -0.0468143 -1.5753 0
M  V30 15253 C 1388.88 0.929065 -2.11275 0
M  V30 15254 C 1389.85 1.31166 -1.01905 0
M  V30 15255 O 1391.04 1.40189 -1.29428 0
M  V30 15256 C 1388.18 2.20012 -2.65873 0
M  V30 15257 C 1387.29 1.8724 -3.89314 0
M  V30 15258 C 1386.43 3.08772 -4.32242 0
M  V30 15259 C 1385.46 2.719 -5.48395 0
M  V30 15260 N 1384.6 3.86112 -5.86397 0
M  V30 15261 H 1389.44 0.463854 -2.94368 0
M  V30 15262 H 1386.98 0.217338 -1.45486 0
M  V30 15263 H 1388.94 2.94383 -2.95626 0
M  V30 15264 H 1387.57 2.64118 -1.85584 0
M  V30 15265 H 1386.62 1.03037 -3.6618 0
M  V30 15266 H 1387.93 1.56096 -4.73746 0
M  V30 15267 H 1387.08 3.91446 -4.63525 0
M  V30 15268 H 1385.82 3.4309 -3.46613 0
M  V30 15269 H 1384.83 1.87642 -5.16789 0
M  V30 15270 H 1386.05 2.38779 -6.35737 0
M  V30 15271 H 1384 4.2024 -5.03721 0
M  V30 15272 H 1383.92 3.58652 -6.65511 0
M  V30 15273 H 1385.18 4.69438 -6.22293 0
M  V30 15274 N 1389.41 1.55964 0.226527 0
M  V30 15275 C 1390.35 1.87013 1.30772 0
M  V30 15276 C 1391.33 0.727044 1.4544 0
M  V30 15277 O 1392.51 0.974898 1.61332 0
M  V30 15278 C 1389.64 2.07278 2.67869 0
M  V30 15279 C 1388.68 3.29956 2.70243 0
M  V30 15280 S 1389.52 4.86026 2.24808 0
M  V30 15281 C 1390.67 5.09321 3.6379 0
M  V30 15282 H 1390.9 2.78427 1.0424 0
M  V30 15283 H 1388.44 1.48334 0.428525 0
M  V30 15284 H 1390.4 2.19636 3.468 0
M  V30 15285 H 1389.06 1.1667 2.91628 0
M  V30 15286 H 1388.25 3.41164 3.70975 0
M  V30 15287 H 1387.85 3.16429 1.99371 0
M  V30 15288 H 1390.14 4.97914 4.59443 0
M  V30 15289 H 1391.09 6.11227 3.57501 0
M  V30 15290 H 1391.49 4.37076 3.57247 0
M  V30 15291 N 1390.89 -0.493031 1.4969 0
M  V30 15292 C 1391.82 -1.61058 1.63074 0
M  V30 15293 C 1392.84 -1.54504 0.513069 0
M  V30 15294 O 1394.03 -1.60291 0.785431 0
M  V30 15295 C 1391.13 -2.99877 1.57883 0
M  V30 15296 C 1390.3 -3.31531 2.85317 0
M  V30 15297 C 1389.36 -4.49799 2.7307 0
M  V30 15298 O 1388.38 -4.51189 3.47012 0
M  V30 15299 N 1389.59 -5.50182 1.85148 0
M  V30 15300 H 1392.35 -1.5 2.59461 0
M  V30 15301 H 1389.91 -0.681057 1.46878 0
M  V30 15302 H 1391.9 -3.76928 1.47333 0
M  V30 15303 H 1390.47 -3.04817 0.693218 0
M  V30 15304 H 1389.69 -2.433 3.10159 0
M  V30 15305 H 1390.98 -3.49481 3.69784 0
M  V30 15306 H 1390.38 -5.51865 1.24345 0
M  V30 15307 H 1388.94 -6.26305 1.80516 0
M  V30 15308 N 1392.37 -1.38898 -0.744656 0
M  V30 15309 C 1393.3 -1.32739 -1.8685 0
M  V30 15310 C 1394.32 -0.23793 -1.61052 0
M  V30 15311 O 1395.5 -0.496166 -1.71466 0
M  V30 15312 C 1392.6 -1.03602 -3.22676 0
M  V30 15313 C 1391.78 -2.23634 -3.75908 0
M  V30 15314 C 1390.84 -1.91103 -4.90271 0
M  V30 15315 O 1389.86 -2.6369 -5.04437 0
M  V30 15316 N 1391.06 -0.871358 -5.73923 0
M  V30 15317 H 1393.83 -2.29585 -1.92641 0
M  V30 15318 H 1391.39 -1.32875 -0.924979 0
M  V30 15319 H 1393.38 -0.798755 -3.96739 0
M  V30 15320 H 1391.95 -0.155218 -3.12214 0
M  V30 15321 H 1391.17 -2.63371 -2.93307 0
M  V30 15322 H 1392.46 -3.0372 -4.08205 0
M  V30 15323 H 1391.86 -0.269591 -5.65057 0
M  V30 15324 H 1390.42 -0.693984 -6.48095 0
M  V30 15325 N 1393.85 0.973806 -1.23914 0
M  V30 15326 C 1394.8 2.08861 -1.02372 0
M  V30 15327 C 1395.79 1.69354 0.039415 0
M  V30 15328 O 1397 1.79635 -0.114637 0
M  V30 15329 H 1393.37 0.683313 -0.313986 0
M  V30 15330 H 1395.34 2.24195 -1.96924 0
M  V30 15331 C 1394.09 3.41784 -0.638661 0
M  V30 15332 H 1393.41 3.72639 -1.44846 0
M  V30 15333 H 1394.85 4.20706 -0.527487 0
M  V30 15334 C 1393.31 3.30497 0.65369 0
M  V30 15335 O 1393.84 3.63905 1.70107 0
M  V30 15336 N 1392.05 2.83642 0.632104 0
M  V30 15337 H 1391.6 2.56654 -0.220571 0
M  V30 15338 H 1391.55 2.76472 1.49701 0
M  V30 15339 N 1395.33 1.05191 1.17357 0
M  V30 15340 C 1396.58 0.757104 1.86951 0
M  V30 15341 C 1396.89 -0.718637 1.8192 0
M  V30 15342 O 1398.09 -1.12739 2.46986 0
M  V30 15343 C 1396.55 1.30409 3.35442 0
M  V30 15344 C 1396.16 2.80928 3.48975 0
M  V30 15345 C 1397.9 1.08633 4.10365 0
M  V30 15346 C 1395.81 3.28927 4.91488 0
M  V30 15347 H 1394.74 0.279525 0.700273 0
M  V30 15348 H 1397.39 1.2692 1.32528 0
M  V30 15349 H 1395.77 0.719812 3.89403 0
M  V30 15350 H 1396.95 3.45211 3.05231 0
M  V30 15351 H 1395.26 3.01245 2.87473 0
M  V30 15352 H 1397.86 1.41996 5.15501 0
M  V30 15353 H 1398.2 0.0240903 4.16293 0
M  V30 15354 H 1398.73 1.63581 3.6261 0
M  V30 15355 H 1395.47 4.34581 4.90734 0
M  V30 15356 H 1394.99 2.69386 5.35902 0
M  V30 15357 H 1396.67 3.23605 5.60258 0
M  V30 15358 N 1396.8 -1.33791 0.83293 0
M  V30 15359 C 1397.74 -2.28148 0.219336 0
M  V30 15360 C 1398.75 -1.51477 -0.596529 0
M  V30 15361 O 1399.94 -1.73377 -0.424571 0
M  V30 15362 C 1397.04 -3.31373 -0.710305 0
M  V30 15363 C 1396.21 -4.37352 0.0649215 0
M  V30 15364 C 1395.27 -5.20279 -0.78716 0
M  V30 15365 O 1394.3 -5.68741 -0.228511 0
M  V30 15366 N 1395.5 -5.40973 -2.10544 0
M  V30 15367 H 1398.26 -2.81443 1.03004 0
M  V30 15368 H 1395.82 -1.46421 0.690831 0
M  V30 15369 H 1397.82 -3.83752 -1.28517 0
M  V30 15370 H 1396.39 -2.78398 -1.42173 0
M  V30 15371 H 1395.61 -3.85553 0.821144 0
M  V30 15372 H 1396.89 -5.05271 0.598199 0
M  V30 15373 H 1396.29 -5.03291 -2.58292 0
M  V30 15374 H 1394.85 -5.96432 -2.62893 0
M  V30 15375 N 1398.28 -0.588812 -1.46187 0
M  V30 15376 C 1399.19 0.143253 -2.34162 0
M  V30 15377 C 1400.21 0.879779 -1.5012 0
M  V30 15378 O 1401.38 0.841592 -1.82973 0
M  V30 15379 C 1398.45 1.14017 -3.27416 0
M  V30 15380 C 1397.51 0.407651 -4.2736 0
M  V30 15381 C 1396.74 1.35708 -5.16158 0
M  V30 15382 O 1396.97 2.59394 -5.08007 0
M  V30 15383 O 1395.9 0.864343 -5.95662 0
M  V30 15384 H 1399.73 -0.579228 -2.98125 0
M  V30 15385 H 1397.31 -0.349174 -1.45262 0
M  V30 15386 H 1399.19 1.71484 -3.8493 0
M  V30 15387 H 1397.87 1.84401 -2.66041 0
M  V30 15388 H 1396.78 -0.209011 -3.73516 0
M  V30 15389 H 1398.11 -0.255334 -4.91537 0
M  V30 15390 N 1399.76 1.54172 -0.326923 0
M  V30 15391 C 1400.69 2.27402 0.530154 0
M  V30 15392 C 1401.67 1.28325 1.11655 0
M  V30 15393 O 1402.86 1.57142 1.14105 0
M  V30 15394 C 1399.99 3.03435 1.68951 0
M  V30 15395 C 1398.94 4.09877 1.23226 0
M  V30 15396 C 1398.27 4.7377 2.47882 0
M  V30 15397 C 1399.57 5.21161 0.344698 0
M  V30 15398 H 1401.26 2.99291 -0.0806959 0
M  V30 15399 H 1398.81 1.43944 -0.0402511 0
M  V30 15400 H 1400.76 3.53396 2.29541 0
M  V30 15401 H 1399.48 2.29169 2.327 0
M  V30 15402 H 1398.14 3.60805 0.649267 0
M  V30 15403 H 1397.79 3.96116 3.10002 0
M  V30 15404 H 1397.49 5.45674 2.17977 0
M  V30 15405 H 1399.01 5.26507 3.09229 0
M  V30 15406 H 1400.43 5.66859 0.856979 0
M  V30 15407 H 1398.83 5.99941 0.138276 0
M  V30 15408 H 1399.9 4.80874 -0.623575 0
M  V30 15409 N 1401.24 0.0551678 1.57503 0
M  V30 15410 C 1402.15 -0.932959 2.15251 0
M  V30 15411 C 1403.16 -1.33885 1.11134 0
M  V30 15412 O 1404.34 -1.41495 1.43321 0
M  V30 15413 C 1401.41 -2.18807 2.68932 0
M  V30 15414 C 1400.47 -1.84016 3.87862 0
M  V30 15415 C 1399.7 -3.03543 4.38973 0
M  V30 15416 O 1399.92 -4.17041 3.89144 0
M  V30 15417 O 1398.86 -2.84325 5.30512 0
M  V30 15418 H 1402.68 -0.471816 3.00013 0
M  V30 15419 H 1400.27 -0.16696 1.48464 0
M  V30 15420 H 1402.15 -2.92439 3.0341 0
M  V30 15421 H 1400.82 -2.64051 1.87239 0
M  V30 15422 H 1399.73 -1.07687 3.58266 0
M  V30 15423 H 1401.06 -1.43567 4.70796 0
M  V30 15424 N 1402.72 -1.56081 -0.218252 0
M  V30 15425 C 1403.63 -1.95856 -1.29141 0
M  V30 15426 C 1404.64 -0.862857 -1.51099 0
M  V30 15427 O 1405.82 -1.1667 -1.64165 0
M  V30 15428 C 1402.88 -2.27005 -2.62049 0
M  V30 15429 C 1401.94 -3.50162 -2.48365 0
M  V30 15430 C 1401.18 -3.79815 -3.74935 0
M  V30 15431 O 1401.4 -3.11095 -4.78096 0
M  V30 15432 O 1400.33 -4.73299 -3.71849 0
M  V30 15433 H 1404.16 -2.8732 -0.983922 0
M  V30 15434 H 1401.75 -1.43334 -0.421385 0
M  V30 15435 H 1403.63 -2.4822 -3.40536 0
M  V30 15436 H 1402.3 -1.38715 -2.92472 0
M  V30 15437 H 1401.21 -3.34222 -1.68066 0
M  V30 15438 H 1402.54 -4.38845 -2.22881 0
M  V30 15439 N 1404.2 0.485086 -1.49949 0
M  V30 15440 C 1405.13 1.60191 -1.63926 0
M  V30 15441 C 1406.14 1.5423 -0.521256 0
M  V30 15442 O 1407.33 1.59872 -0.79392 0
M  V30 15443 C 1404.43 2.99035 -1.59472 0
M  V30 15444 C 1403.6 3.30014 -2.87071 0
M  V30 15445 C 1402.66 4.48345 -2.75451 0
M  V30 15446 O 1401.69 4.49342 -3.494 0
M  V30 15447 N 1402.89 5.49192 -1.88064 0
M  V30 15448 H 1405.65 1.48622 -2.60253 0
M  V30 15449 H 1403.22 0.673258 -1.47237 0
M  V30 15450 H 1405.21 3.76142 -1.4933 0
M  V30 15451 H 1403.78 3.04445 -0.709373 0
M  V30 15452 H 1403 2.41652 -3.11445 0
M  V30 15453 H 1404.29 3.47515 -3.71632 0
M  V30 15454 H 1403.68 5.51198 -1.2727 0
M  V30 15455 H 1402.24 6.25338 -1.83835 0
M  V30 15456 N 1405.67 1.39291 0.737279 0
M  V30 15457 C 1406.6 1.40562 1.86452 0
M  V30 15458 C 1407.58 0.269283 1.67955 0
M  V30 15459 O 1408.77 0.474769 1.88307 0
M  V30 15460 C 1405.9 1.2461 3.24175 0
M  V30 15461 C 1404.85 2.35619 3.57306 0
M  V30 15462 C 1404.18 2.04758 4.93941 0
M  V30 15463 C 1405.48 3.77927 3.60512 0
M  V30 15464 H 1407.17 2.34896 1.85646 0
M  V30 15465 H 1404.72 1.13065 0.891756 0
M  V30 15466 H 1406.67 1.2412 4.02706 0
M  V30 15467 H 1405.4 0.267438 3.25503 0
M  V30 15468 H 1404.06 2.35322 2.81104 0
M  V30 15469 H 1403.7 1.05336 4.91847 0
M  V30 15470 H 1403.4 2.79117 5.17076 0
M  V30 15471 H 1404.93 2.05915 5.74832 0
M  V30 15472 H 1406.34 3.80166 4.29123 0
M  V30 15473 H 1404.74 4.51626 3.95164 0
M  V30 15474 H 1405.81 4.09068 2.60368 0
M  V30 15475 N 1407.15 -0.967221 1.24429 0
M  V30 15476 C 1408.06 -2.09582 1.05417 0
M  V30 15477 C 1409.08 -1.73999 -0.00516127 0
M  V30 15478 O 1410.25 -2.00472 0.193115 0
M  V30 15479 C 1407.32 -3.40327 0.661697 0
M  V30 15480 C 1406.38 -3.89854 1.79756 0
M  V30 15481 C 1405.61 -5.1436 1.42372 0
M  V30 15482 O 1405.84 -5.69536 0.313754 0
M  V30 15483 O 1404.77 -5.58283 2.24952 0
M  V30 15484 H 1408.6 -2.28517 2.00034 0
M  V30 15485 H 1406.18 -1.07978 1.03253 0
M  V30 15486 H 1408.06 -4.18943 0.454369 0
M  V30 15487 H 1406.74 -3.22691 -0.255348 0
M  V30 15488 H 1405.64 -3.12297 2.05964 0
M  V30 15489 H 1406.98 -4.11967 2.69339 0
M  V30 15490 N 1408.63 -1.05812 -1.16797 0
M  V30 15491 C 1409.54 -0.675541 -2.24663 0
M  V30 15492 C 1410.56 0.30622 -1.71284 0
M  V30 15493 O 1411.73 0.156752 -2.00789 0
M  V30 15494 C 1408.8 -0.0627149 -3.46643 0
M  V30 15495 C 1407.86 -1.09572 -4.15081 0
M  V30 15496 C 1407.09 -0.512044 -5.31238 0
M  V30 15497 O 1407.31 0.676665 -5.66372 0
M  V30 15498 O 1406.25 -1.24936 -5.88791 0
M  V30 15499 H 1410.07 -1.57467 -2.59688 0
M  V30 15500 H 1407.66 -0.830073 -1.24218 0
M  V30 15501 H 1409.54 0.277543 -4.20485 0
M  V30 15502 H 1408.22 0.80997 -3.13403 0
M  V30 15503 H 1407.12 -1.48807 -3.4323 0
M  V30 15504 H 1408.46 -1.93977 -4.52365 0
M  V30 15505 N 1410.11 1.33347 -0.840014 0
M  V30 15506 C 1411.02 2.32965 -0.276527 0
M  V30 15507 C 1412.03 1.634 0.598037 0
M  V30 15508 O 1413.21 1.95046 0.501888 0
M  V30 15509 C 1410.27 3.42498 0.53816 0
M  V30 15510 C 1409.34 4.27781 -0.360814 0
M  V30 15511 C 1408.57 5.32083 0.415085 0
M  V30 15512 O 1408.79 5.46115 1.64666 0
M  V30 15513 O 1407.73 6.01528 -0.211503 0
M  V30 15514 H 1411.55 2.83022 -1.10147 0
M  V30 15515 H 1409.14 1.3671 -0.602566 0
M  V30 15516 H 1411.02 4.09336 1.00108 0
M  V30 15517 H 1409.69 2.94655 1.34015 0
M  V30 15518 H 1408.6 3.63805 -0.871598 0
M  V30 15519 H 1409.93 4.7911 -1.1276 0
M  V30 15520 N 1411.59 0.596556 1.45873 0
M  V30 15521 C 1412.5 -0.130832 2.34235 0
M  V30 15522 C 1413.51 -0.871805 1.50584 0
M  V30 15523 O 1414.69 -0.831877 1.83417 0
M  V30 15524 C 1411.75 -1.12279 3.28016 0
M  V30 15525 C 1410.81 -0.384982 4.2757 0
M  V30 15526 C 1410.05 -1.32969 5.1687 0
M  V30 15527 O 1410.27 -2.56696 5.09375 0
M  V30 15528 O 1409.2 -0.832741 5.96112 0
M  V30 15529 H 1413.03 0.59503 2.97814 0
M  V30 15530 H 1410.61 0.356873 1.45075 0
M  V30 15531 H 1412.5 -1.6944 3.85834 0
M  V30 15532 H 1411.17 -1.82988 2.67015 0
M  V30 15533 H 1410.08 0.228816 3.734 0
M  V30 15534 H 1411.41 0.281398 4.91395 0
M  V30 15535 N 1413.06 -1.53996 0.335095 0
M  V30 15536 C 1414.29 -2.05657 -0.268328 0
M  V30 15537 C 1414.71 -1.20897 -1.44102 0
M  V30 15538 O 1414.07 -0.220737 -1.79951 0
M  V30 15539 C 1414.12 -3.54331 -0.669481 0
M  V30 15540 O 1413.22 -3.7246 -1.77052 0
M  V30 15541 H 1412.56 -0.662386 -0.0462705 0
M  V30 15542 H 1415.09 -1.98723 0.486854 0
M  V30 15543 H 1415.1 -3.9681 -0.948971 0
M  V30 15544 H 1413.78 -4.15474 0.188168 0
M  V30 15545 H 1412.36 -3.41884 -1.48895 0
M  V30 15546 N 1414.54 -0.0635198 -1.57472 0
M  V30 15547 C 1415.5 0.891881 -2.11135 0
M  V30 15548 C 1416.5 1.23182 -1.03358 0
M  V30 15549 O 1417.69 1.16646 -1.2938 0
M  V30 15550 C 1414.83 2.19792 -2.60584 0
M  V30 15551 H 1416.02 0.426461 -2.96852 0
M  V30 15552 H 1413.57 0.185069 -1.552 0
M  V30 15553 H 1414.31 2.70889 -1.78297 0
M  V30 15554 H 1414.09 1.96419 -3.39355 0
M  V30 15555 H 1415.58 2.88203 -3.02206 0
M  V30 15556 N 1416.02 1.56195 0.209972 0
M  V30 15557 C 1417.44 1.49446 0.56018 0
M  V30 15558 C 1417.64 0.760799 1.86585 0
M  V30 15559 O 1416.69 0.305201 2.50649 0
M  V30 15560 C 1418 2.94054 0.628687 0
M  V30 15561 C 1419.55 3.04641 0.718531 0
M  V30 15562 C 1420.03 4.50631 0.81828 0
M  V30 15563 N 1421.52 4.54721 0.8822 0
M  V30 15564 C 1422.25 5.64976 0.979292 0
M  V30 15565 N 1421.75 6.84955 1.03961 0
M  V30 15566 N 1423.54 5.52854 1.01533 0
M  V30 15567 H 1415.69 2.02316 -0.646674 0
M  V30 15568 H 1417.96 0.920063 -0.228446 0
M  V30 15569 H 1417.66 3.50728 -0.261324 0
M  V30 15570 H 1417.54 3.46592 1.48842 0
M  V30 15571 H 1419.92 2.48026 1.59898 0
M  V30 15572 H 1420 2.55254 -0.167102 0
M  V30 15573 H 1419.65 5.07867 -0.0577557 0
M  V30 15574 H 1419.58 4.97736 1.7195 0
M  V30 15575 H 1422.07 3.68322 0.845433 0
M  V30 15576 H 1422.38 7.64732 1.11379 0
M  V30 15577 H 1420.73 6.87643 1.00854 0
M  V30 15578 H 1423.92 4.58046 0.96494 0
M  V30 15579 H 1424.09 6.38809 1.08754 0
M  V30 15580 N 1417.5 -0.477127 1.50204 0
M  V30 15581 C 1418.43 -1.59319 1.64773 0
M  V30 15582 C 1419.44 -1.53951 0.529427 0
M  V30 15583 O 1420.63 -1.59449 0.802388 0
M  V30 15584 C 1417.73 -2.98185 1.61055 0
M  V30 15585 C 1416.9 -3.28486 2.88817 0
M  V30 15586 C 1415.96 -4.46878 2.77825 0
M  V30 15587 O 1414.99 -4.47483 3.51778 0
M  V30 15588 N 1416.19 -5.48187 1.90974 0
M  V30 15589 H 1418.96 -1.4724 2.61037 0
M  V30 15590 H 1416.52 -0.66544 1.47592 0
M  V30 15591 H 1418.51 -3.75345 1.51323 0
M  V30 15592 H 1417.08 -3.04064 0.725509 0
M  V30 15593 H 1416.3 -2.39997 3.12722 0
M  V30 15594 H 1417.59 -3.4554 3.7347 0
M  V30 15595 H 1416.99 -5.50515 1.30192 0
M  V30 15596 H 1415.54 -6.24355 1.87148 0
M  V30 15597 N 1418.98 -1.3968 -0.729882 0
M  V30 15598 C 1419.92 -1.38808 -1.84393 0
M  V30 15599 C 1420.89 -0.247035 -1.64253 0
M  V30 15600 O 1422.08 -0.44293 -1.85588 0
M  V30 15601 C 1419.22 -1.2424 -3.2196 0
M  V30 15602 C 1418.33 -2.47932 -3.53771 0
M  V30 15603 C 1417.47 -2.25913 -4.80767 0
M  V30 15604 C 1416.51 -3.45254 -5.05436 0
M  V30 15605 N 1415.64 -3.2252 -6.23638 0
M  V30 15606 H 1420.48 -2.34038 -1.84473 0
M  V30 15607 H 1418.02 -1.16252 -0.901332 0
M  V30 15608 H 1419.98 -1.13804 -4.01378 0
M  V30 15609 H 1418.61 -0.326375 -3.21146 0
M  V30 15610 H 1417.66 -2.68952 -2.69015 0
M  V30 15611 H 1418.97 -3.36806 -3.67917 0
M  V30 15612 H 1418.13 -2.12748 -5.68175 0
M  V30 15613 H 1416.86 -1.34441 -4.68804 0
M  V30 15614 H 1415.87 -3.58912 -4.16488 0
M  V30 15615 H 1417.09 -4.37634 -5.19282 0
M  V30 15616 H 1415.04 -2.33718 -6.12953 0
M  V30 15617 H 1414.96 -4.04954 -6.38395 0
M  V30 15618 H 1416.23 -3.1306 -7.13872 0
M  V30 15619 N 1420.45 0.960609 -1.2494 0
M  V30 15620 C 1421.38 2.074 -1.07274 0
M  V30 15621 C 1422.37 1.70092 0.0164365 0
M  V30 15622 O 1423.55 1.93604 -0.151975 0
M  V30 15623 C 1420.68 3.40491 -0.684317 0
M  V30 15624 C 1419.63 3.91784 -1.72306 0
M  V30 15625 C 1418.96 5.21301 -1.18949 0
M  V30 15626 C 1420.26 4.18829 -3.12056 0
M  V30 15627 H 1421.95 2.22438 -2.00404 0
M  V30 15628 H 1419.5 1.06888 -0.964937 0
M  V30 15629 H 1421.45 4.17826 -0.547686 0
M  V30 15630 H 1420.18 3.25374 0.282687 0
M  V30 15631 H 1418.84 3.16613 -1.84802 0
M  V30 15632 H 1418.48 5.02549 -0.212892 0
M  V30 15633 H 1418.18 5.56588 -1.8837 0
M  V30 15634 H 1419.71 6.01238 -1.06513 0
M  V30 15635 H 1421.12 4.86844 -3.02748 0
M  V30 15636 H 1419.52 4.6536 -3.78894 0
M  V30 15637 H 1420.59 3.25333 -3.59564 0
M  V30 15638 N 1421.93 1.0643 1.16234 0
M  V30 15639 C 1422.86 0.634274 2.20249 0
M  V30 15640 C 1423.88 -0.308432 1.59852 0
M  V30 15641 O 1425.07 -0.0992067 1.78224 0
M  V30 15642 C 1422.17 -0.0901593 3.3878 0
M  V30 15643 C 1421.34 0.866379 4.28734 0
M  V30 15644 C 1420.4 0.180942 5.25889 0
M  V30 15645 O 1419.42 0.819034 5.63277 0
M  V30 15646 N 1420.63 -1.07698 5.70422 0
M  V30 15647 H 1423.39 1.52901 2.57762 0
M  V30 15648 H 1420.95 0.947789 1.31258 0
M  V30 15649 H 1422.94 -0.559147 4.00819 0
M  V30 15650 H 1421.51 -0.886715 2.9976 0
M  V30 15651 H 1420.73 1.51471 3.63937 0
M  V30 15652 H 1422.02 1.51524 4.85714 0
M  V30 15653 H 1421.42 -1.6155 5.42142 0
M  V30 15654 H 1419.98 -1.48981 6.34545 0
M  V30 15655 N 1423.41 -1.329 0.847073 0
M  V30 15656 C 1424.34 -2.31546 0.301422 0
M  V30 15657 C 1425.32 -1.59342 -0.595317 0
M  V30 15658 O 1426.51 -1.87188 -0.517151 0
M  V30 15659 C 1423.64 -3.43423 -0.517454 0
M  V30 15660 C 1422.59 -4.27055 0.284195 0
M  V30 15661 C 1421.92 -5.30624 -0.658944 0
M  V30 15662 C 1423.22 -5.00123 1.50578 0
M  V30 15663 H 1424.91 -2.77433 1.12567 0
M  V30 15664 H 1422.46 -1.3338 0.542739 0
M  V30 15665 H 1424.41 -4.11467 -0.909543 0
M  V30 15666 H 1423.13 -2.96246 -1.37499 0
M  V30 15667 H 1421.79 -3.60648 0.657944 0
M  V30 15668 H 1421.44 -4.79702 -1.51311 0
M  V30 15669 H 1421.14 -5.87464 -0.12662 0
M  V30 15670 H 1422.66 -6.01533 -1.04837 0
M  V30 15671 H 1424.08 -5.6089 1.18641 0
M  V30 15672 H 1422.48 -5.66652 1.97549 0
M  V30 15673 H 1423.55 -4.28424 2.27115 0
M  V30 15674 N 1424.89 -0.604284 -1.45555 0
M  V30 15675 C 1425.8 0.118409 -2.34301 0
M  V30 15676 C 1426.81 0.863807 -1.51044 0
M  V30 15677 O 1427.99 0.822138 -1.83856 0
M  V30 15678 C 1425.06 1.10538 -3.28606 0
M  V30 15679 C 1424.12 0.362301 -4.27768 0
M  V30 15680 C 1423.35 1.30226 -5.17568 0
M  V30 15681 O 1423.57 2.53991 -5.10729 0
M  V30 15682 O 1422.51 0.801116 -5.96545 0
M  V30 15683 H 1426.33 -0.610816 -2.97494 0
M  V30 15684 H 1423.92 -0.364562 -1.44884 0
M  V30 15685 H 1425.8 1.67392 -3.86727 0
M  V30 15686 H 1424.47 1.81569 -2.67982 0
M  V30 15687 H 1423.38 -0.248616 -3.73273 0
M  V30 15688 H 1424.71 -0.307454 -4.91239 0
M  V30 15689 N 1426.37 1.53816 -0.343257 0
M  V30 15690 C 1427.31 2.25011 0.513664 0
M  V30 15691 C 1428.28 1.24827 1.09578 0
M  V30 15692 O 1429.47 1.53558 1.13245 0
M  V30 15693 C 1426.61 3.02616 1.65885 0
M  V30 15694 C 1425.72 4.17653 1.10406 0
M  V30 15695 C 1424.86 4.82746 2.21653 0
M  V30 15696 C 1423.9 5.89853 1.63524 0
M  V30 15697 N 1423.03 6.48726 2.68512 0
M  V30 15698 H 1427.87 2.97832 -0.099997 0
M  V30 15699 H 1425.41 1.46973 -0.0611206 0
M  V30 15700 H 1427.37 3.45868 2.33304 0
M  V30 15701 H 1426 2.32092 2.2435 0
M  V30 15702 H 1425.05 3.79045 0.320819 0
M  V30 15703 H 1426.36 4.94691 0.638887 0
M  V30 15704 H 1425.52 5.29068 2.96938 0
M  V30 15705 H 1424.25 4.05131 2.71515 0
M  V30 15706 H 1423.26 5.42914 0.86745 0
M  V30 15707 H 1424.48 6.69375 1.14515 0
M  V30 15708 H 1422.43 5.73975 3.17629 0
M  V30 15709 H 1422.35 7.21236 2.26616 0
M  V30 15710 H 1423.62 6.99701 3.43567 0
M  V30 15711 N 1427.84 0.0718701 1.57436 0
M  V30 15712 C 1429.09 -0.598116 1.93779 0
M  V30 15713 C 1429.42 -1.69258 0.952131 0
M  V30 15714 O 1428.7 -1.94491 -0.0186426 0
M  V30 15715 C 1428.98 -1.17499 3.40391 0
M  V30 15716 C 1428.83 -0.0871719 4.49716 0
M  V30 15717 C 1430.15 -2.08047 3.8782 0
M  V30 15718 H 1427.27 -0.215954 0.704651 0
M  V30 15719 H 1429.91 0.137854 1.89499 0
M  V30 15720 H 1428.06 -1.80221 3.44169 0
M  V30 15721 H 1429.74 0.545906 4.58058 0
M  V30 15722 H 1427.98 0.582213 4.29875 0
M  V30 15723 H 1428.65 -0.531202 5.49438 0
M  V30 15724 H 1431.13 -1.5526 3.86049 0
M  V30 15725 H 1430 -2.45345 4.91016 0
M  V30 15726 H 1430.26 -2.98879 3.25766 0
M  V30 15727 N 1429.32 -1.56304 -0.201686 0
M  V30 15728 C 1430.55 -1.84341 -0.939465 0
M  V30 15729 C 1430.97 -0.653544 -1.77128 0
M  V30 15730 O 1430.32 0.377813 -1.78546 0
M  V30 15731 C 1430.37 -3.11111 -1.84098 0
M  V30 15732 O 1430.09 -4.25509 -1.04276 0
M  V30 15733 C 1431.6 -3.52279 -2.69099 0
M  V30 15734 H 1428.82 -0.61232 -0.274419 0
M  V30 15735 H 1431.36 -2.03409 -0.210924 0
M  V30 15736 H 1429.51 -2.9396 -2.52322 0
M  V30 15737 H 1429.93 -4.97655 -1.6565 0
M  V30 15738 H 1431.4 -4.43965 -3.28023 0
M  V30 15739 H 1431.88 -2.74959 -3.42482 0
M  V30 15740 H 1432.49 -3.71939 -2.06256 0
M  V30 15741 N 1430.8 0.469154 -1.50455 0
M  V30 15742 C 1432.03 1.24432 -1.653 0
M  V30 15743 C 1432.44 1.85766 -0.33713 0
M  V30 15744 O 1431.8 1.69313 0.681118 0
M  V30 15745 C 1431.85 2.35163 -2.74555 0
M  V30 15746 O 1431.57 1.76344 -4.01042 0
M  V30 15747 C 1433.07 3.26006 -3.00391 0
M  V30 15748 H 1430.29 0.376251 -0.555587 0
M  V30 15749 H 1432.84 0.559777 -1.96689 0
M  V30 15750 H 1430.99 2.99389 -2.45855 0
M  V30 15751 H 1431.41 2.49278 -4.61477 0
M  V30 15752 H 1432.88 3.99909 -3.80496 0
M  V30 15753 H 1433.36 3.84901 -2.11537 0
M  V30 15754 H 1433.96 2.67515 -3.3063 0
M  V30 15755 N 1432.28 1.40065 0.722464 0
M  V30 15756 C 1433.19 1.42086 1.86678 0
M  V30 15757 C 1434.2 0.314223 1.71139 0
M  V30 15758 O 1435.38 0.55771 1.93524 0
M  V30 15759 C 1432.45 1.27498 3.22405 0
M  V30 15760 C 1431.51 2.48243 3.50248 0
M  V30 15761 C 1430.74 2.34342 4.79499 0
M  V30 15762 O 1430.96 1.35355 5.54108 0
M  V30 15763 O 1429.9 3.23579 5.07523 0
M  V30 15764 H 1433.72 2.38571 1.87929 0
M  V30 15765 H 1431.31 1.21314 0.871968 0
M  V30 15766 H 1433.19 1.21543 4.03491 0
M  V30 15767 H 1431.86 0.341141 3.21897 0
M  V30 15768 H 1430.77 2.59775 2.69199 0
M  V30 15769 H 1432.1 3.40364 3.55547 0
M  V30 15770 N 1433.76 -0.95397 1.25448 0
M  V30 15771 C 1434.72 -2.03231 1.0597 0
M  V30 15772 C 1435.72 -1.60795 0.0122855 0
M  V30 15773 O 1436.91 -1.7233 0.254533 0
M  V30 15774 C 1434.04 -3.35414 0.609105 0
M  V30 15775 H 1435.24 -2.21943 2.01696 0
M  V30 15776 H 1432.79 -1.13115 1.07864 0
M  V30 15777 H 1433.52 -3.22398 -0.350723 0
M  V30 15778 H 1433.31 -3.67564 1.36526 0
M  V30 15779 H 1434.8 -4.14664 0.49428 0
M  V30 15780 N 1435.24 -1.07045 -1.15668 0
M  V30 15781 C 1436.18 -0.688004 -2.20307 0
M  V30 15782 C 1437.15 0.319081 -1.63006 0
M  V30 15783 O 1438.34 0.206239 -1.89682 0
M  V30 15784 C 1435.48 -0.0886692 -3.44986 0
M  V30 15785 C 1434.59 -1.14685 -4.16499 0
M  V30 15786 C 1433.73 -0.512852 -5.28719 0
M  V30 15787 C 1432.76 -1.55404 -5.92044 0
M  V30 15788 N 1431.9 -0.942848 -6.9574 0
M  V30 15789 H 1436.74 -1.58469 -2.52372 0
M  V30 15790 H 1434.28 -0.792184 -1.23947 0
M  V30 15791 H 1436.24 0.276415 -4.16283 0
M  V30 15792 H 1434.87 0.77139 -3.13448 0
M  V30 15793 H 1433.92 -1.62955 -3.43729 0
M  V30 15794 H 1435.23 -1.93643 -4.59678 0
M  V30 15795 H 1434.38 -0.0952274 -6.06625 0
M  V30 15796 H 1433.12 0.308524 -4.86723 0
M  V30 15797 H 1432.13 -1.98148 -5.12852 0
M  V30 15798 H 1433.35 -2.37765 -6.36117 0
M  V30 15799 H 1431.3 -0.142319 -6.55846 0
M  V30 15800 H 1431.22 -1.6697 -7.37331 0
M  V30 15801 H 1432.48 -0.550621 -7.77553 0
M  V30 15802 N 1436.71 1.32449 -0.85411 0
M  V30 15803 C 1437.64 2.31383 -0.313697 0
M  V30 15804 C 1438.62 1.59656 0.586858 0
M  V30 15805 O 1439.81 1.87459 0.507216 0
M  V30 15806 C 1436.94 3.43693 0.499235 0
M  V30 15807 C 1435.89 4.26899 -0.306839 0
M  V30 15808 C 1435.22 5.30966 0.630795 0
M  V30 15809 C 1436.52 4.99318 -1.53229 0
M  V30 15810 H 1438.21 2.76832 -1.14037 0
M  V30 15811 H 1435.76 1.33091 -0.549805 0
M  V30 15812 H 1437.71 4.11944 0.887709 0
M  V30 15813 H 1436.44 2.96971 1.35926 0
M  V30 15814 H 1435.1 3.60294 -0.677061 0
M  V30 15815 H 1434.74 4.80498 1.48765 0
M  V30 15816 H 1434.44 5.87522 0.0954635 0
M  V30 15817 H 1435.97 6.0208 1.01646 0
M  V30 15818 H 1437.38 5.60253 -1.21614 0
M  V30 15819 H 1435.78 5.65596 -2.00552 0
M  V30 15820 H 1436.85 4.27213 -2.29383 0
M  V30 15821 N 1438.19 0.611994 1.45232 0
M  V30 15822 C 1439.14 -0.104265 2.30564 0
M  V30 15823 C 1440.11 -0.855676 1.42364 0
M  V30 15824 O 1441.29 -0.840534 1.71288 0
M  V30 15825 C 1438.43 -1.09274 3.27343 0
M  V30 15826 C 1437.55 -0.341747 4.30646 0
M  V30 15827 C 1436.68 -1.32034 5.14529 0
M  V30 15828 C 1435.72 -0.557405 6.09557 0
M  V30 15829 N 1434.86 -1.4855 6.86205 0
M  V30 15830 H 1439.7 0.629396 2.91278 0
M  V30 15831 H 1437.23 0.322177 1.43528 0
M  V30 15832 H 1439.19 -1.67902 3.81923 0
M  V30 15833 H 1437.82 -1.79376 2.68373 0
M  V30 15834 H 1436.87 0.360114 3.78692 0
M  V30 15835 H 1438.19 0.253328 4.98156 0
M  V30 15836 H 1437.34 -1.97854 5.73532 0
M  V30 15837 H 1436.08 -1.94934 4.47048 0
M  V30 15838 H 1435.08 0.114401 5.49681 0
M  V30 15839 H 1436.31 0.0666137 6.79067 0
M  V30 15840 H 1434.26 -2.10207 6.21409 0
M  V30 15841 H 1434.17 -0.943972 7.50083 0
M  V30 15842 H 1435.44 -2.13314 7.49745 0
M  V30 15843 N 1439.67 -1.53632 0.351409 0
M  V30 15844 C 1440.62 -2.25281 -0.501724 0
M  V30 15845 C 1441.59 -1.25406 -1.08915 0
M  V30 15846 O 1442.77 -1.54157 -1.1243 0
M  V30 15847 C 1439.91 -3.03491 -1.64278 0
M  V30 15848 C 1439.02 -4.18233 -1.0819 0
M  V30 15849 C 1438.16 -4.83914 -2.1909 0
M  V30 15850 C 1437.2 -5.90712 -1.60394 0
M  V30 15851 N 1436.34 -6.50141 -2.65068 0
M  V30 15852 H 1441.18 -2.97775 0.11579 0
M  V30 15853 H 1438.71 -1.46938 0.0689141 0
M  V30 15854 H 1440.67 -3.47101 -2.31467 0
M  V30 15855 H 1439.3 -2.33279 -2.23116 0
M  V30 15856 H 1438.35 -3.7921 -0.300713 0
M  V30 15857 H 1439.66 -4.95023 -0.612644 0
M  V30 15858 H 1438.82 -5.30635 -2.94128 0
M  V30 15859 H 1437.56 -4.06565 -2.69362 0
M  V30 15860 H 1436.56 -5.43366 -0.838646 0
M  V30 15861 H 1437.79 -6.69973 -1.10964 0
M  V30 15862 H 1435.73 -5.75652 -3.14581 0
M  V30 15863 H 1435.65 -7.22427 -2.22788 0
M  V30 15864 H 1436.92 -7.01513 -3.39852 0
M  V30 15865 N 1441.15 -0.0802183 -1.57396 0
M  V30 15866 C 1442.08 0.881426 -2.16225 0
M  V30 15867 C 1443.06 1.30459 -1.09154 0
M  V30 15868 O 1444.24 1.37413 -1.37227 0
M  V30 15869 C 1441.37 2.14599 -2.73065 0
M  V30 15870 C 1440.33 1.86195 -3.85377 0
M  V30 15871 C 1439.65 3.19354 -4.28856 0
M  V30 15872 C 1440.95 1.16059 -5.09242 0
M  V30 15873 H 1442.65 0.391325 -2.96832 0
M  V30 15874 H 1440.19 0.186785 -1.42783 0
M  V30 15875 H 1442.15 2.82297 -3.12868 0
M  V30 15876 H 1440.87 2.65866 -1.89691 0
M  V30 15877 H 1439.53 1.209 -3.46091 0
M  V30 15878 H 1439.18 3.68479 -3.42392 0
M  V30 15879 H 1438.88 3.01137 -5.04569 0
M  V30 15880 H 1440.4 3.88235 -4.71281 0
M  V30 15881 H 1441.82 1.7384 -5.46308 0
M  V30 15882 H 1440.21 1.08072 -5.90288 0
M  V30 15883 H 1441.28 0.14098 -4.84695 0
M  V30 15884 N 1442.63 1.56409 0.193394 0
M  V30 15885 C 1443.54 1.97886 1.26009 0
M  V30 15886 C 1444.55 0.886786 1.49707 0
M  V30 15887 O 1445.73 1.19267 1.62288 0
M  V30 15888 C 1442.79 2.31145 2.58404 0
M  V30 15889 C 1441.85 3.54069 2.42763 0
M  V30 15890 C 1441.09 3.85732 3.68845 0
M  V30 15891 O 1441.31 3.18662 4.73086 0
M  V30 15892 O 1440.24 4.79155 3.64272 0
M  V30 15893 H 1444.07 2.88849 0.938087 0
M  V30 15894 H 1441.65 1.43987 0.398528 0
M  V30 15895 H 1443.54 2.53606 3.36544 0
M  V30 15896 H 1442.21 1.4335 2.90228 0
M  V30 15897 H 1441.12 3.36854 1.62728 0
M  V30 15898 H 1442.45 4.42335 2.15871 0
M  V30 15899 N 1444.1 -0.461169 1.50702 0
M  V30 15900 C 1445.01 -1.58355 1.73092 0
M  V30 15901 C 1446.03 -1.62795 0.61431 0
M  V30 15902 O 1447.21 -1.8048 0.893806 0
M  V30 15903 C 1444.27 -2.94509 1.82936 0
M  V30 15904 C 1443.33 -3.00378 3.06711 0
M  V30 15905 C 1442.56 -4.30037 3.16076 0
M  V30 15906 O 1442.79 -5.21097 2.31978 0
M  V30 15907 O 1441.72 -4.41702 4.08881 0
M  V30 15908 H 1445.55 -1.42384 2.68255 0
M  V30 15909 H 1443.13 -0.641709 1.34916 0
M  V30 15910 H 1445.01 -3.75357 1.91534 0
M  V30 15911 H 1443.69 -3.10658 0.909581 0
M  V30 15912 H 1442.6 -2.18571 3.03608 0
M  V30 15913 H 1443.93 -2.89167 3.983 0
M  V30 15914 N 1445.58 -1.40446 -0.715026 0
M  V30 15915 C 1446.49 -1.43074 -1.85922 0
M  V30 15916 C 1447.51 -0.323294 -1.7097 0
M  V30 15917 O 1448.68 -0.567966 -1.93226 0
M  V30 15918 C 1445.75 -1.29206 -3.21725 0
M  V30 15919 C 1444.81 -2.50097 -3.48927 0
M  V30 15920 C 1444.04 -2.36881 -4.7825 0
M  V30 15921 O 1444.27 -1.38292 -5.53382 0
M  V30 15922 O 1443.2 -3.26266 -5.058 0
M  V30 15923 H 1447.03 -2.39565 -1.86661 0
M  V30 15924 H 1444.61 -1.21775 -0.865522 0
M  V30 15925 H 1446.49 -1.23681 -4.02841 0
M  V30 15926 H 1445.17 -0.358207 -3.21712 0
M  V30 15927 H 1444.07 -2.61199 -2.67817 0
M  V30 15928 H 1445.41 -3.42244 -3.53737 0
M  V30 15929 N 1447.06 0.947303 -1.25952 0
M  V30 15930 C 1447.99 2.0487 -1.02767 0
M  V30 15931 C 1449 1.62797 0.00985984 0
M  V30 15932 O 1450.19 1.77018 -0.229527 0
M  V30 15933 C 1447.29 3.34682 -0.533048 0
M  V30 15934 C 1446.47 4.05555 -1.63841 0
M  V30 15935 C 1445.53 5.13638 -1.1429 0
M  V30 15936 O 1444.55 5.38682 -1.83876 0
M  V30 15937 N 1445.75 5.80499 0.0119377 0
M  V30 15938 H 1448.52 2.25327 -1.97605 0
M  V30 15939 H 1446.08 1.11636 -1.17256 0
M  V30 15940 H 1448.07 4.04273 -0.185868 0
M  V30 15941 H 1446.64 3.10941 0.321585 0
M  V30 15942 H 1445.86 3.29962 -2.15683 0
M  V30 15943 H 1447.15 4.49661 -2.38081 0
M  V30 15944 H 1446.55 5.62581 0.593212 0
M  V30 15945 H 1445.1 6.51109 0.30009 0
M  V30 15946 N 1448.54 1.07657 1.15099 0
M  V30 15947 C 1449.79 0.796589 1.85303 0
M  V30 15948 C 1450.1 -0.679887 1.83404 0
M  V30 15949 O 1451.31 -1.07475 2.49322 0
M  V30 15950 C 1449.76 1.37495 3.326 0
M  V30 15951 C 1449.37 2.88267 3.42938 0
M  V30 15952 C 1451.11 1.17313 4.07968 0
M  V30 15953 C 1449.02 3.39278 4.84401 0
M  V30 15954 H 1447.95 0.294316 0.694186 0
M  V30 15955 H 1450.6 1.29702 1.29806 0
M  V30 15956 H 1448.98 0.802248 3.87789 0
M  V30 15957 H 1450.16 3.51608 2.9784 0
M  V30 15958 H 1448.47 3.07275 2.81018 0
M  V30 15959 H 1451.07 1.52899 5.12373 0
M  V30 15960 H 1451.41 0.112387 4.16148 0
M  V30 15961 H 1451.95 1.71236 3.59059 0
M  V30 15962 H 1448.69 4.44892 4.81406 0
M  V30 15963 H 1448.21 2.80692 5.30068 0
M  V30 15964 H 1449.88 3.35416 5.53267 0
M  V30 15965 N 1450.02 -1.31994 0.861122 0
M  V30 15966 C 1451.27 -1.96294 0.463868 0
M  V30 15967 C 1451.58 -1.68869 -0.98704 0
M  V30 15968 O 1452.78 -2.26959 -1.49003 0
M  V30 15969 C 1451.24 -3.51377 0.77858 0
M  V30 15970 C 1450.85 -3.87653 2.24565 0
M  V30 15971 C 1452.59 -4.22115 0.449365 0
M  V30 15972 C 1450.5 -5.35809 2.50324 0
M  V30 15973 H 1449.43 -0.734647 0.169733 0
M  V30 15974 H 1452.08 -1.50294 1.0528 0
M  V30 15975 H 1450.46 -3.95821 0.119005 0
M  V30 15976 H 1451.64 -3.54197 2.94755 0
M  V30 15977 H 1449.95 -3.29957 2.54003 0
M  V30 15978 H 1452.55 -5.31103 0.61916 0
M  V30 15979 H 1452.89 -4.11814 -0.609528 0
M  V30 15980 H 1453.42 -3.83276 1.06511 0
M  V30 15981 H 1450.16 -5.51138 3.54863 0
M  V30 15982 H 1449.68 -5.70648 1.84719 0
M  V30 15983 H 1451.36 -6.02968 2.34602 0
M  V30 15984 N 1451.49 -0.619688 -1.44906 0
M  V30 15985 C 1452.42 0.0791121 -2.33366 0
M  V30 15986 C 1453.41 0.846503 -1.47541 0
M  V30 15987 O 1454.59 0.814657 -1.76287 0
M  V30 15988 C 1451.72 1.06901 -3.30438 0
M  V30 15989 C 1450.67 0.41403 -4.25993 0
M  V30 15990 C 1450 1.51303 -5.12846 0
M  V30 15991 C 1451.3 -0.672483 -5.17953 0
M  V30 15992 H 1452.99 -0.659551 -2.92045 0
M  V30 15993 H 1450.54 -0.318623 -1.40431 0
M  V30 15994 H 1452.49 1.56653 -3.912 0
M  V30 15995 H 1451.22 1.83842 -2.69944 0
M  V30 15996 H 1449.88 -0.0627315 -3.66546 0
M  V30 15997 H 1449.52 2.27303 -4.48712 0
M  V30 15998 H 1449.22 1.08022 -5.77586 0
M  V30 15999 H 1450.75 2.01258 -5.76479 0
M  V30 16000 H 1452.16 -0.258542 -5.72717 0
M  V30 16001 H 1450.56 -1.02776 -5.91234 0
M  V30 16002 H 1451.63 -1.54425 -4.59653 0
M  V30 16003 N 1452.97 1.53444 -0.359552 0
M  V30 16004 C 1453.88 2.29257 0.497834 0
M  V30 16005 C 1454.9 1.34987 1.09793 0
M  V30 16006 O 1456.07 1.68039 1.11017 0
M  V30 16007 C 1453.14 3.06258 1.62502 0
M  V30 16008 C 1452.2 4.16183 1.05308 0
M  V30 16009 C 1451.43 4.89503 2.12655 0
M  V30 16010 O 1451.66 4.6263 3.33661 0
M  V30 16011 O 1450.59 5.75578 1.76051 0
M  V30 16012 H 1454.42 3.03467 -0.118925 0
M  V30 16013 H 1452 1.48884 -0.124111 0
M  V30 16014 H 1453.88 3.5436 2.2805 0
M  V30 16015 H 1452.56 2.3489 2.22729 0
M  V30 16016 H 1451.47 3.72348 0.361679 0
M  V30 16017 H 1452.8 4.897 0.49545 0
M  V30 16018 N 1454.45 0.0885642 1.57351 0
M  V30 16019 C 1455.73 -0.618587 1.85561 0
M  V30 16020 C 1456.11 -1.86753 0.984206 0
M  V30 16021 O 1455.46 -2.28434 0.0548839 0
M  V30 16022 C 1455.67 -0.940222 3.36096 0
M  V30 16023 C 1457.01 -1.30649 4.04 0
M  V30 16024 O 1458.04 -1.03144 3.4094 0
M  V30 16025 O 1456.9 -1.82135 5.15256 0
M  V30 16026 H 1453.99 -0.308881 0.767152 0
M  V30 16027 H 1456.54 0.120767 1.6927 0
M  V30 16028 H 1455.31 -0.0538991 3.91263 0
M  V30 16029 H 1454.93 -1.73577 3.5771 0
M  V30 16030 N 1455.93 -1.56509 -0.185096 0
M  V30 16031 C 1456.86 -1.91878 -1.25361 0
M  V30 16032 C 1457.87 -0.810443 -1.41194 0
M  V30 16033 O 1459.06 -1.08887 -1.41442 0
M  V30 16034 C 1456.16 -2.14433 -2.62434 0
M  V30 16035 C 1455.34 -3.45618 -2.6808 0
M  V30 16036 C 1454.39 -3.57165 -3.86419 0
M  V30 16037 O 1453.42 -4.29904 -3.73056 0
M  V30 16038 N 1454.62 -2.90993 -5.02298 0
M  V30 16039 H 1457.39 -2.84133 -0.953328 0
M  V30 16040 H 1454.95 -1.57498 -0.374955 0
M  V30 16041 H 1456.94 -2.19437 -3.40044 0
M  V30 16042 H 1455.51 -1.28629 -2.84909 0
M  V30 16043 H 1454.73 -3.52394 -1.76669 0
M  V30 16044 H 1456.02 -4.31968 -2.68851 0
M  V30 16045 H 1455.42 -2.31743 -5.16054 0
M  V30 16046 H 1453.97 -3.01611 -5.77819 0
M  V30 16047 N 1457.41 0.45317 -1.50944 0
M  V30 16048 C 1458.35 1.56953 -1.71664 0
M  V30 16049 C 1459.35 1.59064 -0.582673 0
M  V30 16050 O 1460.55 1.62998 -0.763651 0
M  V30 16051 H 1456.93 0.521147 -0.542135 0
M  V30 16052 H 1458.9 1.36645 -2.65275 0
M  V30 16053 C 1457.65 2.9475 -1.84438 0
M  V30 16054 H 1456.97 2.93852 -2.71093 0
M  V30 16055 H 1458.41 3.72271 -2.02954 0
M  V30 16056 C 1456.87 3.31509 -0.600281 0
M  V30 16057 O 1457.4 4.00906 0.252366 0
M  V30 16058 N 1455.61 2.8711 -0.449014 0
M  V30 16059 H 1455.15 2.30808 -1.14392 0
M  V30 16060 H 1455.11 3.12068 0.382199 0
M  V30 16061 N 1458.88 1.40823 0.707568 0
M  V30 16062 C 1460.12 1.40992 1.47989 0
M  V30 16063 C 1460.49 0.0138056 1.91995 0
M  V30 16064 O 1461.69 -0.109666 2.68576 0
M  V30 16065 C 1459.96 2.37857 2.66756 0
M  V30 16066 S 1461.52 2.56453 3.56058 0
M  V30 16067 H 1458.34 0.499622 0.505864 0
M  V30 16068 H 1460.94 1.77161 0.826703 0
M  V30 16069 H 1459.64 3.38113 2.32611 0
M  V30 16070 H 1459.17 2.03 3.36979 0
M  V30 16071 H 1461.19 1.82294 4.61501 0
M  V30 16072 N 1460.36 -0.94061 1.26453 0
M  V30 16073 C 1461.31 -2.03941 1.08059 0
M  V30 16074 C 1462.28 -1.66094 -0.0145388 0
M  V30 16075 O 1463.46 -1.90246 0.145338 0
M  V30 16076 C 1460.6 -3.37501 0.720228 0
M  V30 16077 C 1459.72 -3.88381 1.89167 0
M  V30 16078 C 1458.85 -5.10329 1.47437 0
M  V30 16079 C 1457.89 -5.53473 2.61408 0
M  V30 16080 N 1457.03 -6.66624 2.20355 0
M  V30 16081 H 1461.87 -2.19006 2.0209 0
M  V30 16082 H 1459.41 -1.07305 1.00618 0
M  V30 16083 H 1461.36 -4.14287 0.492177 0
M  V30 16084 H 1459.99 -3.2228 -0.183101 0
M  V30 16085 H 1459.05 -3.0799 2.23264 0
M  V30 16086 H 1460.36 -4.16338 2.74708 0
M  V30 16087 H 1459.51 -5.94577 1.20679 0
M  V30 16088 H 1458.25 -4.8412 0.589873 0
M  V30 16089 H 1457.26 -4.67782 2.88894 0
M  V30 16090 H 1458.48 -5.81684 3.50458 0
M  V30 16091 H 1456.43 -6.42097 1.34341 0
M  V30 16092 H 1456.34 -6.9417 2.99439 0
M  V30 16093 H 1457.61 -7.54245 1.96811 0
M  V30 16094 N 1461.84 -1.08266 -1.14527 0
M  V30 16095 C 1462.77 -0.732968 -2.21698 0
M  V30 16096 C 1463.75 0.283917 -1.67714 0
M  V30 16097 O 1464.94 0.154607 -1.93584 0
M  V30 16098 C 1462.07 -0.139935 -3.47018 0
M  V30 16099 C 1461.02 -1.08501 -4.14019 0
M  V30 16100 C 1460.35 -0.354263 -5.33525 0
M  V30 16101 C 1461.65 -2.42254 -4.62721 0
M  V30 16102 H 1463.34 -1.629 -2.51205 0
M  V30 16103 H 1460.89 -0.784696 -1.20742 0
M  V30 16104 H 1462.84 0.1167 -4.21238 0
M  V30 16105 H 1461.56 0.791228 -3.16871 0
M  V30 16106 H 1460.22 -1.32672 -3.41751 0
M  V30 16107 H 1459.87 0.580658 -4.99637 0
M  V30 16108 H 1459.57 -0.984287 -5.79297 0
M  V30 16109 H 1461.09 -0.105648 -6.10509 0
M  V30 16110 H 1462.51 -2.22357 -5.28422 0
M  V30 16111 H 1460.91 -3.00935 -5.1919 0
M  V30 16112 H 1461.98 -3.03884 -3.77866 0
M  V30 16113 N 1463.32 1.31536 -0.86811 0
M  V30 16114 C 1464.28 2.26849 -0.327456 0
M  V30 16115 C 1465.28 1.52142 0.520514 0
M  V30 16116 O 1466.47 1.71044 0.330088 0
M  V30 16117 C 1463.6 3.36673 0.535174 0
M  V30 16118 H 1464.8 2.76184 -1.16886 0
M  V30 16119 H 1462.35 1.42437 -0.643545 0
M  V30 16120 H 1463.09 2.92627 1.39785 0
M  V30 16121 H 1462.87 3.92034 -0.0719835 0
M  V30 16122 H 1464.36 4.07658 0.905786 0
M  V30 16123 N 1464.8 0.627364 1.44575 0
M  V30 16124 C 1465.74 -0.0798044 2.30662 0
M  V30 16125 C 1466.71 -0.840528 1.43263 0
M  V30 16126 O 1467.9 -0.82232 1.7217 0
M  V30 16127 C 1465.04 -1.05796 3.28483 0
M  V30 16128 C 1464.15 -0.296052 4.30984 0
M  V30 16129 C 1463.29 -1.26569 5.15901 0
M  V30 16130 C 1462.33 -0.492722 6.10114 0
M  V30 16131 N 1461.46 -1.41263 6.87742 0
M  V30 16132 H 1466.3 0.660254 2.90594 0
M  V30 16133 H 1463.84 0.337382 1.43179 0
M  V30 16134 H 1465.8 -1.63842 3.83682 0
M  V30 16135 H 1464.43 -1.7652 2.7026 0
M  V30 16136 H 1463.48 0.400259 3.78288 0
M  V30 16137 H 1464.79 0.306149 4.9786 0
M  V30 16138 H 1463.95 -1.9176 5.75598 0
M  V30 16139 H 1462.69 -1.90182 4.4909 0
M  V30 16140 H 1461.69 0.172696 5.49529 0
M  V30 16141 H 1462.92 0.138634 6.78958 0
M  V30 16142 H 1460.86 -2.03604 6.23604 0
M  V30 16143 H 1460.78 -0.864362 7.51042 0
M  V30 16144 H 1462.05 -2.0535 7.51965 0
M  V30 16145 N 1466.28 -1.53251 0.367684 0
M  V30 16146 C 1467.19 -2.29518 -0.485669 0
M  V30 16147 C 1468.2 -1.35568 -1.09075 0
M  V30 16148 O 1469.38 -1.68626 -1.10124 0
M  V30 16149 C 1466.44 -3.07115 -1.60876 0
M  V30 16150 C 1465.5 -4.16736 -1.031 0
M  V30 16151 C 1464.74 -4.90624 -2.10056 0
M  V30 16152 O 1464.96 -4.64393 -3.31203 0
M  V30 16153 O 1463.89 -5.76503 -1.72996 0
M  V30 16154 H 1467.72 -3.034 0.135017 0
M  V30 16155 H 1465.3 -1.48816 0.132005 0
M  V30 16156 H 1467.19 -3.55564 -2.26168 0
M  V30 16157 H 1465.86 -2.36068 -2.21481 0
M  V30 16158 H 1464.77 -3.72534 -0.341928 0
M  V30 16159 H 1466.1 -4.89956 -0.469473 0
M  V30 16160 N 1467.75 -0.0969077 -1.57302 0
M  V30 16161 C 1468.7 0.861379 -2.14124 0
M  V30 16162 C 1469.67 1.27858 -1.06026 0
M  V30 16163 O 1470.86 1.36001 -1.33822 0
M  V30 16164 C 1468 2.11443 -2.72738 0
M  V30 16165 C 1467.11 1.7476 -3.95074 0
M  V30 16166 C 1466.24 2.94864 -4.41847 0
M  V30 16167 C 1465.28 2.54316 -5.56767 0
M  V30 16168 N 1464.42 3.67261 -5.98384 0
M  V30 16169 H 1469.26 0.369968 -2.95694 0
M  V30 16170 H 1466.8 0.170943 -1.46103 0
M  V30 16171 H 1468.75 2.84829 -3.04842 0
M  V30 16172 H 1467.38 2.5808 -1.93893 0
M  V30 16173 H 1466.44 0.91335 -3.69272 0
M  V30 16174 H 1467.75 1.40946 -4.78472 0
M  V30 16175 H 1466.9 3.76501 -4.75744 0
M  V30 16176 H 1465.64 3.31889 -3.57352 0
M  V30 16177 H 1464.65 1.71106 -5.22497 0
M  V30 16178 H 1465.87 2.18432 -6.43012 0
M  V30 16179 H 1463.82 4.04001 -5.16836 0
M  V30 16180 H 1463.73 3.37298 -6.76584 0
M  V30 16181 H 1465 4.49403 -6.36912 0
M  V30 16182 N 1469.23 1.56605 0.176793 0
M  V30 16183 C 1470.18 1.95985 1.21896 0
M  V30 16184 C 1471.15 0.822983 1.44278 0
M  V30 16185 O 1472.33 1.08266 1.57109 0
M  V30 16186 C 1469.47 2.32029 2.55454 0
M  V30 16187 C 1468.59 3.58867 2.40497 0
M  V30 16188 C 1467.72 3.84148 3.66884 0
M  V30 16189 C 1466.76 5.04352 3.46837 0
M  V30 16190 N 1465.9 5.25794 4.6528 0
M  V30 16191 H 1470.74 2.84829 0.876137 0
M  V30 16192 H 1468.27 1.4094 0.421221 0
M  V30 16193 H 1470.23 2.50947 3.33289 0
M  V30 16194 H 1468.86 1.46301 2.87743 0
M  V30 16195 H 1467.91 3.47893 1.53866 0
M  V30 16196 H 1469.23 4.46859 2.21627 0
M  V30 16197 H 1468.38 4.03404 4.53155 0
M  V30 16198 H 1467.12 2.9452 3.88727 0
M  V30 16199 H 1466.12 4.84999 2.58952 0
M  V30 16200 H 1467.35 5.95505 3.26421 0
M  V30 16201 H 1465.3 4.39117 4.87352 0
M  V30 16202 H 1465.21 6.07999 4.49303 0
M  V30 16203 H 1466.48 5.49524 5.5285 0
M  V30 16204 N 1470.71 -0.445159 1.51182 0
M  V30 16205 C 1471.64 -1.5473 1.74874 0
M  V30 16206 C 1472.62 -1.5923 0.598323 0
M  V30 16207 O 1473.81 -1.75083 0.840219 0
M  V30 16208 C 1470.94 -2.92872 1.86664 0
M  V30 16209 C 1469.89 -3.03235 3.02048 0
M  V30 16210 C 1469.22 -4.43279 2.99012 0
M  V30 16211 C 1470.52 -2.7804 4.42144 0
M  V30 16212 H 1472.21 -1.35156 2.67158 0
M  V30 16213 H 1469.76 -0.648763 1.28558 0
M  V30 16214 H 1471.71 -3.69927 2.01822 0
M  V30 16215 H 1470.43 -3.1366 0.910225 0
M  V30 16216 H 1469.09 -2.28617 2.86583 0
M  V30 16217 H 1468.74 -4.61023 2.01163 0
M  V30 16218 H 1468.44 -4.51144 3.76488 0
M  V30 16219 H 1469.96 -5.22319 3.16252 0
M  V30 16220 H 1471.38 -3.44831 4.58 0
M  V30 16221 H 1469.77 -2.97323 5.21267 0
M  V30 16222 H 1470.84 -1.737 4.52721 0
M  V30 16223 N 1472.19 -1.41197 -0.700089 0
M  V30 16224 C 1473.12 -1.45456 -1.8266 0
M  V30 16225 C 1474.1 -0.313719 -1.67182 0
M  V30 16226 O 1475.28 -0.524528 -1.86982 0
M  V30 16227 C 1472.41 -1.33161 -3.20758 0
M  V30 16228 C 1471.37 -2.4501 -3.50933 0
M  V30 16229 C 1470.69 -2.17782 -4.88339 0
M  V30 16230 C 1471.99 -3.87352 -3.50365 0
M  V30 16231 H 1473.69 -2.39735 -1.79353 0
M  V30 16232 H 1471.23 -1.1539 -0.861465 0
M  V30 16233 H 1473.19 -1.34754 -3.99274 0
M  V30 16234 H 1471.91 -0.353646 -3.2468 0
M  V30 16235 H 1470.57 -2.42692 -2.74766 0
M  V30 16236 H 1470.22 -1.1834 -4.88881 0
M  V30 16237 H 1469.92 -2.92728 -5.09494 0
M  V30 16238 H 1471.44 -2.21083 -5.6917 0
M  V30 16239 H 1472.86 -3.9141 -4.18893 0
M  V30 16240 H 1471.25 -4.61944 -3.83051 0
M  V30 16241 H 1472.32 -4.15827 -2.4943 0
M  V30 16242 N 1473.67 0.933891 -1.2695 0
M  V30 16243 C 1474.58 2.06713 -1.10936 0
M  V30 16244 C 1475.59 1.73952 -0.0409734 0
M  V30 16245 O 1476.77 1.9989 -0.246199 0
M  V30 16246 C 1473.83 3.38453 -0.751696 0
M  V30 16247 C 1472.89 3.84951 -1.90029 0
M  V30 16248 C 1472.13 5.10404 -1.55959 0
M  V30 16249 O 1472.35 5.68504 -0.464646 0
M  V30 16250 O 1471.28 5.52123 -2.39675 0
M  V30 16251 H 1475.11 2.23133 -2.06023 0
M  V30 16252 H 1472.69 1.05202 -1.06079 0
M  V30 16253 H 1474.58 4.17591 -0.565285 0
M  V30 16254 H 1473.25 3.23255 0.169703 0
M  V30 16255 H 1472.16 3.06727 -2.14172 0
M  V30 16256 H 1473.49 4.04681 -2.80167 0
M  V30 16257 N 1475.14 1.08871 1.13951 0
M  V30 16258 C 1476.42 0.73388 1.81311 0
M  V30 16259 C 1476.8 -0.781824 1.96089 0
M  V30 16260 O 1476.15 -1.70211 1.52448 0
M  V30 16261 C 1476.36 1.46631 3.16702 0
M  V30 16262 C 1477.71 1.62843 3.92132 0
M  V30 16263 O 1478.73 1.42836 3.26307 0
M  V30 16264 O 1477.59 1.95893 5.10185 0
M  V30 16265 H 1474.68 0.262976 0.784074 0
M  V30 16266 H 1477.23 1.19057 1.20927 0
M  V30 16267 H 1476 2.49863 3.01138 0
M  V30 16268 H 1475.62 1.00141 3.84782 0
M  V30 16269 N 1476.62 -1.31073 0.875073 0
M  V30 16270 C 1478.04 -1.49162 0.567697 0
M  V30 16271 C 1478.24 -1.80435 -0.896969 0
M  V30 16272 O 1477.29 -1.88604 -1.67883 0
M  V30 16273 C 1478.61 -2.6219 1.47231 0
M  V30 16274 C 1480.15 -2.76072 1.47489 0
M  V30 16275 C 1480.63 -3.92202 2.36519 0
M  V30 16276 N 1482.12 -3.99497 2.34428 0
M  V30 16277 C 1482.86 -4.88639 3.00033 0
M  V30 16278 N 1482.35 -5.82647 3.74826 0
M  V30 16279 N 1484.14 -4.81926 2.89315 0
M  V30 16280 H 1476.3 -1.09045 1.82272 0
M  V30 16281 H 1478.56 -0.539291 0.77966 0
M  V30 16282 H 1478.26 -2.45872 2.51475 0
M  V30 16283 H 1478.14 -3.58446 1.17459 0
M  V30 16284 H 1480.53 -2.91801 0.440008 0
M  V30 16285 H 1480.61 -1.80468 1.81287 0
M  V30 16286 H 1480.25 -3.77231 3.40087 0
M  V30 16287 H 1480.18 -4.87125 2.00043 0
M  V30 16288 H 1482.67 -3.32241 1.80067 0
M  V30 16289 H 1482.98 -6.47406 4.22001 0
M  V30 16290 H 1481.33 -5.82609 3.78934 0
M  V30 16291 H 1484.52 -4.07462 2.30418 0
M  V30 16292 H 1484.69 -5.51192 3.40722 0
M  V30 16293 N 1478.1 -0.635022 -1.4424 0
M  V30 16294 C 1479.35 -0.138497 -2.01224 0
M  V30 16295 C 1479.66 1.2485 -1.50571 0
M  V30 16296 O 1480.87 1.83926 -1.99709 0
M  V30 16297 C 1479.32 -0.196836 -3.59361 0
M  V30 16298 C 1478.93 -1.58539 -4.1901 0
M  V30 16299 C 1480.68 0.243025 -4.23804 0
M  V30 16300 C 1478.58 -1.59864 -5.69384 0
M  V30 16301 H 1477.51 -0.0480117 -0.75247 0
M  V30 16302 H 1480.16 -0.794391 -1.65414 0
M  V30 16303 H 1478.55 0.526231 -3.92488 0
M  V30 16304 H 1479.72 -2.33236 -3.97414 0
M  V30 16305 H 1478.04 -1.96967 -3.66869 0
M  V30 16306 H 1480.63 0.252717 -5.34102 0
M  V30 16307 H 1480.98 1.27107 -3.96421 0
M  V30 16308 H 1481.51 -0.427678 -3.95494 0
M  V30 16309 H 1478.25 -2.60518 -6.01507 0
M  V30 16310 H 1477.77 -0.894664 -5.9309 0
M  V30 16311 H 1479.45 -1.3343 -6.33092 0
M  V30 16312 N 1479.58 1.53054 -0.375806 0
M  V30 16313 C 1480.54 2.24666 0.453608 0
M  V30 16314 C 1481.54 1.25816 1.00135 0
M  V30 16315 O 1482.73 1.50016 0.885481 0
M  V30 16316 C 1479.86 2.99131 1.63503 0
M  V30 16317 H 1481.06 2.994 -0.173172 0
M  V30 16318 H 1478.61 1.55778 -0.127673 0
M  V30 16319 H 1479.34 2.28666 2.29962 0
M  V30 16320 H 1479.13 3.71671 1.24913 0
M  V30 16321 H 1480.62 3.53542 2.22256 0
M  V30 16322 N 1481.06 0.105248 1.57248 0
M  V30 16323 C 1481.97 -0.864007 2.1811 0
M  V30 16324 C 1482.98 -1.30282 1.15337 0
M  V30 16325 O 1484.16 -1.36864 1.4775 0
M  V30 16326 C 1481.22 -2.1014 2.75757 0
M  V30 16327 C 1480.28 -1.71583 3.9352 0
M  V30 16328 C 1479.52 -2.89424 4.48408 0
M  V30 16329 O 1479.74 -4.04449 4.02215 0
M  V30 16330 O 1478.67 -2.67303 5.39289 0
M  V30 16331 H 1482.5 -0.376131 3.01362 0
M  V30 16332 H 1480.09 -0.119643 1.4892 0
M  V30 16333 H 1481.97 -2.82638 3.1256 0
M  V30 16334 H 1480.64 -2.57961 1.95545 0
M  V30 16335 H 1479.55 -0.962347 3.6151 0
M  V30 16336 H 1480.88 -1.28517 4.75126 0
M  V30 16337 N 1482.53 -1.56697 -0.168486 0
M  V30 16338 C 1483.78 -1.82154 -0.884654 0
M  V30 16339 C 1484.11 -0.682778 -1.82122 0
M  V30 16340 O 1483.36 0.32977 -1.92902 0
M  V30 16341 C 1483.66 -3.138 -1.71068 0
M  V30 16342 C 1483.33 -4.41356 -0.922793 0
M  V30 16343 C 1481.99 -4.76002 -0.705352 0
M  V30 16344 C 1484.34 -5.19883 -0.370323 0
M  V30 16345 C 1481.67 -5.86651 0.0756121 0
M  V30 16346 C 1484.02 -6.31349 0.397568 0
M  V30 16347 C 1482.69 -6.6456 0.625782 0
M  V30 16348 H 1481.96 -0.666549 -0.323718 0
M  V30 16349 H 1484.6 -1.90916 -0.149432 0
M  V30 16350 H 1482.91 -3.00393 -2.51538 0
M  V30 16351 H 1484.61 -3.30708 -2.2679 0
M  V30 16352 H 1481.2 -4.14182 -1.10231 0
M  V30 16353 H 1485.38 -4.93509 -0.525646 0
M  V30 16354 H 1480.64 -6.10838 0.262137 0
M  V30 16355 H 1484.81 -6.91401 0.832902 0
M  V30 16356 H 1482.44 -7.50137 1.23281 0
M  V30 16357 N 1484.01 0.437135 -1.51416 0
M  V30 16358 C 1485.24 1.20898 -1.67903 0
M  V30 16359 C 1485.66 1.85009 -0.376458 0
M  V30 16360 O 1485.01 1.7072 0.645051 0
M  V30 16361 C 1485.06 2.29286 -2.79482 0
M  V30 16362 O 1484.78 1.67798 -4.04692 0
M  V30 16363 C 1486.29 3.19561 -3.07238 0
M  V30 16364 H 1483.51 0.364381 -0.563442 0
M  V30 16365 H 1486.05 0.517931 -1.97833 0
M  V30 16366 H 1484.2 2.94107 -2.5215 0
M  V30 16367 H 1484.62 2.39433 -4.6666 0
M  V30 16368 H 1486.09 3.91748 -3.88893 0
M  V30 16369 H 1486.57 3.80327 -2.19654 0
M  V30 16370 H 1487.18 2.60441 -3.3623 0
M  V30 16371 N 1485.49 1.41566 0.692592 0
M  V30 16372 C 1486.72 1.44445 1.48132 0
M  V30 16373 C 1487.13 0.0505867 1.88732 0
M  V30 16374 O 1486.49 -0.930779 1.5698 0
M  V30 16375 C 1486.54 2.35582 2.74196 0
M  V30 16376 O 1486.26 3.69545 2.35305 0
M  V30 16377 C 1487.76 2.47296 3.67912 0
M  V30 16378 H 1484.98 0.491877 0.456396 0
M  V30 16379 H 1487.53 1.85884 0.852499 0
M  V30 16380 H 1485.68 1.97445 3.33308 0
M  V30 16381 H 1486.1 4.1818 3.16584 0
M  V30 16382 H 1487.57 3.15225 4.53141 0
M  V30 16383 H 1488.05 1.50517 4.12603 0
M  V30 16384 H 1488.65 2.86082 3.14702 0
M  V30 16385 N 1486.97 -0.927146 1.27443 0
M  V30 16386 C 1487.92 -2.04917 1.10053 0
M  V30 16387 C 1488.91 -1.69384 0.0234668 0
M  V30 16388 O 1490.12 -1.79085 0.181228 0
M  V30 16389 H 1486.49 -0.671189 0.33913 0
M  V30 16390 H 1488.46 -2.16732 2.05109 0
M  V30 16391 C 1487.21 -3.39178 0.765072 0
M  V30 16392 H 1486.53 -3.67006 1.58577 0
M  V30 16393 H 1487.97 -4.18458 0.683266 0
M  V30 16394 C 1486.43 -3.32696 -0.530578 0
M  V30 16395 O 1486.96 -3.69967 -1.56484 0
M  V30 16396 N 1485.17 -2.85793 -0.526396 0
M  V30 16397 H 1484.72 -2.55658 0.315675 0
M  V30 16398 H 1484.67 -2.81838 -1.39337 0
M  V30 16399 N 1488.45 -1.09474 -1.13372 0
M  V30 16400 C 1489.38 -0.756441 -2.20908 0
M  V30 16401 C 1490.36 0.266113 -1.68006 0
M  V30 16402 O 1491.54 0.134067 -1.93737 0
M  V30 16403 C 1488.67 -0.176733 -3.4685 0
M  V30 16404 C 1487.63 -1.12886 -4.12845 0
M  V30 16405 C 1486.95 -0.410831 -5.33119 0
M  V30 16406 C 1488.25 -2.47148 -4.60125 0
M  V30 16407 H 1489.95 -1.65555 -2.49463 0
M  V30 16408 H 1487.49 -0.797458 -1.19902 0
M  V30 16409 H 1489.45 0.0720151 -4.21338 0
M  V30 16410 H 1488.17 0.757576 -3.17692 0
M  V30 16411 H 1486.83 -1.36289 -3.40325 0
M  V30 16412 H 1486.48 0.527632 -5.00225 0
M  V30 16413 H 1486.18 -1.04567 -5.78221 0
M  V30 16414 H 1487.7 -0.170394 -6.10362 0
M  V30 16415 H 1489.11 -2.27949 -5.26034 0
M  V30 16416 H 1487.51 -3.06425 -5.15969 0
M  V30 16417 H 1488.58 -3.07874 -3.74622 0
M  V30 16418 N 1489.92 1.30607 -0.882012 0
M  V30 16419 C 1491.15 2.00418 -0.513815 0
M  V30 16420 C 1491.57 1.66135 0.896916 0
M  V30 16421 O 1490.92 0.89691 1.5894 0
M  V30 16422 C 1490.98 3.55133 -0.675503 0
M  V30 16423 O 1490.7 3.88194 -2.03069 0
M  V30 16424 C 1492.2 4.42215 -0.309906 0
M  V30 16425 H 1489.42 0.640839 -0.198913 0
M  V30 16426 H 1491.96 1.66561 -1.1865 0
M  V30 16427 H 1490.12 3.87367 -0.0502289 0
M  V30 16428 H 1490.53 4.82899 -2.04717 0
M  V30 16429 H 1492 5.49962 -0.473948 0
M  V30 16430 H 1492.48 4.32717 0.751852 0
M  V30 16431 H 1493.09 4.1542 -0.91138 0
M  V30 16432 N 1491.4 0.642663 1.43901 0
M  V30 16433 C 1492.31 -0.0562462 2.34533 0
M  V30 16434 C 1493.33 -0.823457 1.53281 0
M  V30 16435 O 1494.5 -0.773103 1.85971 0
M  V30 16436 C 1491.57 -1.01787 3.31422 0
M  V30 16437 C 1490.63 -0.248759 4.28579 0
M  V30 16438 C 1489.86 -1.16458 5.20839 0
M  V30 16439 O 1490.09 -2.40361 5.17284 0
M  V30 16440 O 1489.02 -0.642671 5.98459 0
M  V30 16441 H 1492.85 0.689476 2.9577 0
M  V30 16442 H 1490.43 0.402847 1.43866 0
M  V30 16443 H 1492.31 -1.5708 3.91029 0
M  V30 16444 H 1490.99 -1.744 2.72702 0
M  V30 16445 H 1489.9 0.347495 3.72483 0
M  V30 16446 H 1491.23 0.437589 4.90251 0
M  V30 16447 N 1492.88 -1.52852 0.383918 0
M  V30 16448 C 1493.79 -2.3002 -0.461298 0
M  V30 16449 C 1494.81 -1.36717 -1.07631 0
M  V30 16450 O 1495.98 -1.69784 -1.08329 0
M  V30 16451 C 1493.05 -3.08804 -1.57609 0
M  V30 16452 C 1492.11 -4.17806 -0.986737 0
M  V30 16453 C 1491.34 -4.92825 -2.04841 0
M  V30 16454 O 1491.57 -4.67879 -3.26259 0
M  V30 16455 O 1490.5 -5.78306 -1.66871 0
M  V30 16456 H 1494.33 -3.03239 0.167189 0
M  V30 16457 H 1491.91 -1.48667 0.147781 0
M  V30 16458 H 1493.79 -3.57943 -2.22384 0
M  V30 16459 H 1492.47 -2.38404 -2.18964 0
M  V30 16460 H 1491.37 -3.72876 -0.302396 0
M  V30 16461 H 1492.71 -4.90426 -0.417481 0
M  V30 16462 N 1494.36 -0.113586 -1.5719 0
M  V30 16463 C 1495.27 0.852428 -2.18565 0
M  V30 16464 C 1496.29 1.29668 -1.16026 0
M  V30 16465 O 1497.46 1.36079 -1.48474 0
M  V30 16466 C 1494.53 2.08675 -2.76867 0
M  V30 16467 C 1493.59 1.69493 -3.94424 0
M  V30 16468 C 1492.82 2.87042 -4.49936 0
M  V30 16469 O 1493.04 4.02311 -4.04354 0
M  V30 16470 O 1491.98 2.64439 -5.40699 0
M  V30 16471 H 1495.8 0.360144 -3.01557 0
M  V30 16472 H 1493.39 0.111744 -1.48982 0
M  V30 16473 H 1495.27 2.80976 -3.14054 0
M  V30 16474 H 1493.95 2.5692 -1.9691 0
M  V30 16475 H 1492.85 0.943161 -3.62016 0
M  V30 16476 H 1494.19 1.25995 -4.758 0
M  V30 16477 N 1495.84 1.56784 0.160173 0
M  V30 16478 C 1496.75 2.00514 1.21783 0
M  V30 16479 C 1497.76 0.918341 1.47792 0
M  V30 16480 O 1498.94 1.22683 1.59721 0
M  V30 16481 C 1496 2.36575 2.53443 0
M  V30 16482 C 1495.07 3.59138 2.35198 0
M  V30 16483 C 1494.3 3.93469 3.6058 0
M  V30 16484 O 1494.52 3.28625 4.6622 0
M  V30 16485 O 1493.46 4.86774 3.54027 0
M  V30 16486 H 1497.28 2.90774 0.876607 0
M  V30 16487 H 1494.87 1.44799 0.367897 0
M  V30 16488 H 1496.75 2.60687 3.31089 0
M  V30 16489 H 1495.42 1.49474 2.87122 0
M  V30 16490 H 1494.33 3.4023 1.55546 0
M  V30 16491 H 1495.66 4.46815 2.0644 0
M  V30 16492 N 1497.32 -0.429099 1.51646 0
M  V30 16493 C 1498.26 -1.52143 1.73554 0
M  V30 16494 C 1499.23 -1.55741 0.577416 0
M  V30 16495 O 1500.42 -1.72623 0.812768 0
M  V30 16496 C 1497.56 -2.89785 1.874 0
M  V30 16497 C 1496.67 -2.95652 3.14982 0
M  V30 16498 C 1495.81 -4.24468 3.19375 0
M  V30 16499 C 1494.84 -4.24234 4.41239 0
M  V30 16500 N 1493.98 -5.44587 4.43135 0
M  V30 16501 H 1498.82 -1.32764 2.66791 0
M  V30 16502 H 1496.36 -0.6448 1.32215 0
M  V30 16503 H 1498.32 -3.6966 1.9341 0
M  V30 16504 H 1496.95 -3.07703 0.975638 0
M  V30 16505 H 1496 -2.0839 3.18242 0
M  V30 16506 H 1497.31 -2.91342 4.04872 0
M  V30 16507 H 1496.46 -5.12722 3.24347 0
M  V30 16508 H 1495.2 -4.31446 2.27389 0
M  V30 16509 H 1494.21 -3.34371 4.36435 0
M  V30 16510 H 1495.43 -4.18913 5.34499 0
M  V30 16511 H 1493.38 -5.52271 3.54023 0
M  V30 16512 H 1493.3 -5.42191 5.26845 0
M  V30 16513 H 1494.56 -6.34851 4.5231 0
M  V30 16514 N 1498.79 -1.41931 -0.685074 0
M  V30 16515 C 1500.02 -1.45432 -1.47866 0
M  V30 16516 C 1500.44 -0.0641302 -1.87991 0
M  V30 16517 O 1499.8 0.935081 -1.55325 0
M  V30 16518 C 1499.85 -2.37801 -2.71077 0
M  V30 16519 O 1498.95 -1.84229 -3.68963 0
M  V30 16520 H 1498.29 -0.493156 -0.444627 0
M  V30 16521 H 1500.82 -1.86508 -0.841177 0
M  V30 16522 H 1500.83 -2.54033 -3.19266 0
M  V30 16523 H 1499.51 -3.38807 -2.41211 0
M  V30 16524 H 1498.09 -1.775 -3.27945 0
M  V30 16525 N 1500.27 0.920374 -1.27933 0
M  V30 16526 C 1501.22 2.02196 -1.1129 0
M  V30 16527 C 1502.19 1.66096 -0.0118871 0
M  V30 16528 O 1503.37 1.8999 -0.175586 0
M  V30 16529 C 1500.51 3.36312 -0.77383 0
M  V30 16530 C 1499.63 3.85322 -1.95322 0
M  V30 16531 C 1498.76 5.07919 -1.55537 0
M  V30 16532 C 1497.8 5.49244 -2.7018 0
M  V30 16533 N 1496.94 6.63034 -2.30933 0
M  V30 16534 H 1501.78 2.15764 -2.05548 0
M  V30 16535 H 1499.31 1.05691 -1.02312 0
M  V30 16536 H 1501.27 4.13451 -0.558024 0
M  V30 16537 H 1499.9 3.22531 0.131806 0
M  V30 16538 H 1498.95 3.04399 -2.28135 0
M  V30 16539 H 1500.27 4.11915 -2.81296 0
M  V30 16540 H 1499.42 5.92581 -1.30123 0
M  V30 16541 H 1498.16 4.8312 -0.666818 0
M  V30 16542 H 1497.16 4.63127 -2.96299 0
M  V30 16543 H 1498.39 5.76035 -3.59667 0
M  V30 16544 H 1496.34 6.39878 -1.44539 0
M  V30 16545 H 1496.25 6.89319 -3.10444 0
M  V30 16546 H 1497.52 7.51018 -2.08786 0
M  V30 16547 N 1501.75 1.10074 1.1279 0
M  V30 16548 C 1502.97 0.863106 1.88587 0
M  V30 16549 C 1503.4 -0.580595 1.78915 0
M  V30 16550 O 1502.76 -1.40859 1.14142 0
M  V30 16551 C 1502.81 1.31142 3.35908 0
M  V30 16552 O 1501.91 0.474088 4.09666 0
M  V30 16553 H 1501.25 0.312034 0.586115 0
M  V30 16554 H 1503.78 1.46659 1.42662 0
M  V30 16555 H 1503.79 1.29974 3.86744 0
M  V30 16556 H 1502.47 2.36279 3.42265 0
M  V30 16557 H 1501.04 0.550665 3.68812 0
M  V30 16558 N 1503.23 -1.30138 0.888926 0
M  V30 16559 C 1504.16 -2.3047 0.374934 0
M  V30 16560 C 1505.14 -1.61156 -0.544322 0
M  V30 16561 O 1506.32 -1.88738 -0.457337 0
M  V30 16562 C 1503.45 -3.44896 -0.407935 0
M  V30 16563 C 1502.41 -4.25935 0.419916 0
M  V30 16564 C 1501.73 -5.32452 -0.489797 0
M  V30 16565 C 1503.03 -4.9508 1.66413 0
M  V30 16566 H 1504.73 -2.73711 1.21337 0
M  V30 16567 H 1502.27 -1.31586 0.584899 0
M  V30 16568 H 1504.23 -4.14153 -0.778177 0
M  V30 16569 H 1502.95 -3.0047 -1.28005 0
M  V30 16570 H 1501.61 -3.58372 0.772348 0
M  V30 16571 H 1501.26 -4.84273 -1.35974 0
M  V30 16572 H 1500.96 -5.87569 0.0603412 0
M  V30 16573 H 1502.48 -6.04563 -0.856468 0
M  V30 16574 H 1503.9 -5.56831 1.36425 0
M  V30 16575 H 1502.29 -5.6008 2.15477 0
M  V30 16576 H 1503.36 -4.20981 2.4063 0
M  V30 16577 N 1504.71 -0.650285 -1.43559 0
M  V30 16578 C 1505.67 0.0336325 -2.29175 0
M  V30 16579 C 1506.67 0.753465 -1.42055 0
M  V30 16580 O 1507.86 0.595158 -1.63718 0
M  V30 16581 C 1504.99 1.05835 -3.24055 0
M  V30 16582 H 1506.18 -0.719643 -2.91138 0
M  V30 16583 H 1503.74 -0.411363 -1.5079 0
M  V30 16584 H 1504.47 1.84096 -2.66982 0
M  V30 16585 H 1504.26 0.545884 -3.88281 0
M  V30 16586 H 1505.75 1.53606 -3.88323 0
M  V30 16587 N 1506.18 1.52647 -0.392018 0
M  V30 16588 C 1507.13 2.26532 0.441819 0
M  V30 16589 C 1508.1 1.2825 1.05552 0
M  V30 16590 O 1509.29 1.57083 1.08303 0
M  V30 16591 C 1506.43 3.0774 1.56174 0
M  V30 16592 C 1505.54 4.20955 0.970632 0
M  V30 16593 C 1504.67 4.89553 2.06183 0
M  V30 16594 C 1503.71 5.94756 1.44676 0
M  V30 16595 N 1502.85 6.5694 2.47738 0
M  V30 16596 H 1507.69 2.97363 -0.194699 0
M  V30 16597 H 1505.23 1.46704 -0.107848 0
M  V30 16598 H 1507.18 3.53116 2.22183 0
M  V30 16599 H 1505.81 2.39112 2.16853 0
M  V30 16600 H 1504.87 3.79874 0.200067 0
M  V30 16601 H 1506.18 4.96474 0.481181 0
M  V30 16602 H 1505.33 5.38247 2.79956 0
M  V30 16603 H 1504.07 4.13564 2.58488 0
M  V30 16604 H 1503.08 5.45399 0.694288 0
M  V30 16605 H 1504.3 6.72679 0.931617 0
M  V30 16606 H 1502.25 5.8379 2.99208 0
M  V30 16607 H 1502.16 7.2808 2.03556 0
M  V30 16608 H 1503.43 7.10277 3.21133 0
M  V30 16609 N 1507.66 0.121921 1.57128 0
M  V30 16610 C 1508.59 -0.823788 2.18486 0
M  V30 16611 C 1509.57 -1.27519 1.12574 0
M  V30 16612 O 1510.76 -1.33727 1.40822 0
M  V30 16613 C 1507.89 -2.07284 2.78659 0
M  V30 16614 C 1506.84 -1.75912 3.90178 0
M  V30 16615 C 1506.17 -3.07871 4.37172 0
M  V30 16616 C 1507.47 -1.02517 5.1214 0
M  V30 16617 H 1509.16 -0.312488 2.97765 0
M  V30 16618 H 1506.71 -0.148862 1.43228 0
M  V30 16619 H 1508.66 -2.73903 3.20242 0
M  V30 16620 H 1507.39 -2.60743 1.96673 0
M  V30 16621 H 1506.04 -1.11681 3.49174 0
M  V30 16622 H 1505.69 -3.59271 3.52041 0
M  V30 16623 H 1505.39 -2.87653 5.12376 0
M  V30 16624 H 1506.92 -3.75604 4.81409 0
M  V30 16625 H 1508.33 -1.59295 5.50725 0
M  V30 16626 H 1506.73 -0.923836 5.92946 0
M  V30 16627 H 1507.8 -0.0124219 4.84898 0
M  V30 16628 N 1509.14 -1.56867 -0.151857 0
M  V30 16629 C 1510.09 -1.97899 -1.18763 0
M  V30 16630 C 1511.06 -0.845833 -1.42951 0
M  V30 16631 O 1512.24 -1.10751 -1.55367 0
M  V30 16632 C 1509.38 -2.36063 -2.5173 0
M  V30 16633 C 1508.5 -3.62647 -2.34757 0
M  V30 16634 C 1507.63 -3.89936 -3.60726 0
M  V30 16635 C 1506.67 -5.09806 -3.38769 0
M  V30 16636 N 1505.81 -5.33129 -4.56856 0
M  V30 16637 H 1510.65 -2.86187 -0.830713 0
M  V30 16638 H 1508.18 -1.41592 -0.398745 0
M  V30 16639 H 1510.14 -2.56218 -3.29254 0
M  V30 16640 H 1508.77 -1.50861 -2.85379 0
M  V30 16641 H 1507.82 -3.50297 -1.48312 0
M  V30 16642 H 1509.14 -4.50328 -2.1449 0
M  V30 16643 H 1508.29 -4.10563 -4.4668 0
M  V30 16644 H 1507.03 -3.00668 -3.83993 0
M  V30 16645 H 1506.03 -4.89057 -2.51203 0
M  V30 16646 H 1507.26 -6.00623 -3.16906 0
M  V30 16647 H 1505.2 -4.46815 -4.80305 0
M  V30 16648 H 1505.12 -6.1507 -4.39574 0
M  V30 16649 H 1506.39 -5.5825 -5.44038 0
M  V30 16650 N 1510.62 0.421051 -1.51871 0
M  V30 16651 C 1511.57 1.53277 -1.74954 0
M  V30 16652 C 1512.56 1.57792 -0.616282 0
M  V30 16653 O 1513.77 1.61342 -0.798054 0
M  V30 16654 H 1510.14 0.50953 -0.553067 0
M  V30 16655 H 1512.11 1.30988 -2.68113 0
M  V30 16656 C 1510.86 2.90772 -1.90649 0
M  V30 16657 H 1510.18 2.88035 -2.77265 0
M  V30 16658 H 1511.62 3.67882 -2.10805 0
M  V30 16659 C 1510.08 3.30161 -0.670463 0
M  V30 16660 O 1510.61 4.01352 0.167271 0
M  V30 16661 N 1508.82 2.86093 -0.509813 0
M  V30 16662 H 1508.37 2.28329 -1.19262 0
M  V30 16663 H 1508.32 3.12809 0.315918 0
M  V30 16664 N 1512.1 1.42293 0.677538 0
M  V30 16665 C 1513.04 1.45556 1.79114 0
M  V30 16666 C 1514.01 0.307826 1.63223 0
M  V30 16667 O 1515.2 0.511504 1.83816 0
M  V30 16668 C 1512.34 1.36104 3.17127 0
M  V30 16669 C 1511.45 2.60891 3.44325 0
M  V30 16670 C 1510.59 2.43601 4.72051 0
M  V30 16671 C 1509.63 3.63775 4.92274 0
M  V30 16672 N 1508.76 3.45444 6.11239 0
M  V30 16673 H 1513.6 2.40723 1.7566 0
M  V30 16674 H 1511.14 1.19517 0.857565 0
M  V30 16675 H 1513.1 1.28622 3.96878 0
M  V30 16676 H 1511.73 0.445342 3.19713 0
M  V30 16677 H 1510.78 2.78751 2.58848 0
M  V30 16678 H 1512.09 3.50229 3.55163 0
M  V30 16679 H 1511.25 2.33689 5.59888 0
M  V30 16680 H 1509.98 1.51748 4.63491 0
M  V30 16681 H 1508.99 3.74122 4.0288 0
M  V30 16682 H 1510.21 4.56605 5.02681 0
M  V30 16683 H 1508.16 2.56306 6.03857 0
M  V30 16684 H 1508.08 4.28368 6.22926 0
M  V30 16685 H 1509.35 3.39339 7.01762 0
M  V30 16686 N 1513.57 -0.913576 1.28419 0
M  V30 16687 C 1514.52 -2.00257 1.09001 0
M  V30 16688 C 1515.51 -1.60894 0.0136118 0
M  V30 16689 O 1516.7 -1.75449 0.233769 0
M  V30 16690 C 1513.83 -3.34916 0.754073 0
M  V30 16691 C 1512.92 -3.8068 1.86932 0
M  V30 16692 N 1513.31 -3.98814 3.11096 0
M  V30 16693 C 1511.6 -4.09839 1.75921 0
M  V30 16694 C 1512.31 -4.37149 3.83765 0
M  V30 16695 N 1511.28 -4.45417 3.11616 0
M  V30 16696 H 1515.08 -2.12327 2.0321 0
M  V30 16697 H 1512.6 -1.10143 1.19341 0
M  V30 16698 H 1514.59 -4.12617 0.596035 0
M  V30 16699 H 1513.25 -3.24199 -0.180246 0
M  V30 16700 H 1514.27 -3.84729 3.46705 0
M  V30 16701 H 1510.94 -4.07757 0.896679 0
M  V30 16702 H 1512.33 -4.5914 4.9055 0
M  V30 16703 N 1515.05 -1.1067 -1.12204 0
M  V30 16704 C 1515.96 -0.770221 -2.21596 0
M  V30 16705 C 1516.98 0.233297 -1.72429 0
M  V30 16706 O 1518.15 0.0714493 -2.01273 0
M  V30 16707 C 1515.22 -0.209682 -3.46065 0
M  V30 16708 C 1514.28 -1.27079 -4.1006 0
M  V30 16709 C 1513.51 -0.736899 -5.28588 0
M  V30 16710 O 1513.74 0.435838 -5.68732 0
M  V30 16711 O 1512.67 -1.49797 -5.82962 0
M  V30 16712 H 1516.5 -1.6834 -2.52776 0
M  V30 16713 H 1514.08 -0.882012 -1.20586 0
M  V30 16714 H 1515.96 0.0989516 -4.21284 0
M  V30 16715 H 1514.64 0.676316 -3.16556 0
M  V30 16716 H 1513.55 -1.63231 -3.3661 0
M  V30 16717 H 1514.88 -2.12989 -4.4373 0
M  V30 16718 N 1516.53 1.29665 -0.895815 0
M  V30 16719 C 1517.49 2.26103 -0.3755 0
M  V30 16720 C 1518.49 1.53212 0.488126 0
M  V30 16721 O 1519.68 1.71706 0.293733 0
M  V30 16722 C 1516.82 3.37732 0.46364 0
M  V30 16723 H 1518.01 2.73643 -1.22718 0
M  V30 16724 H 1515.56 1.4104 -0.673613 0
M  V30 16725 H 1516.3 2.95526 1.33546 0
M  V30 16726 H 1516.08 3.91793 -0.155123 0
M  V30 16727 H 1517.57 4.09488 0.819112 0
M  V30 16728 N 1518.01 0.657889 1.43212 0
M  V30 16729 C 1518.94 -0.0807001 2.28057 0
M  V30 16730 C 1519.92 -0.825321 1.40097 0
M  V30 16731 O 1521.1 -0.823932 1.69539 0
M  V30 16732 C 1518.23 -1.12112 3.19607 0
M  V30 16733 C 1517.28 -0.474017 4.23858 0
M  V30 16734 S 1518.11 0.75589 5.30138 0
M  V30 16735 C 1519.27 -0.28388 6.25256 0
M  V30 16736 H 1519.5 0.639012 2.90351 0
M  V30 16737 H 1517.03 0.446876 1.47792 0
M  V30 16738 H 1518.99 -1.71637 3.72895 0
M  V30 16739 H 1517.65 -1.81318 2.56481 0
M  V30 16740 H 1516.84 -1.25849 4.88035 0
M  V30 16741 H 1516.45 0.0472307 3.7397 0
M  V30 16742 H 1518.74 -1.14869 6.67691 0
M  V30 16743 H 1519.68 0.322986 7.07363 0
M  V30 16744 H 1520.09 -0.621781 5.61065 0
M  V30 16745 N 1519.49 -1.52437 0.400108 0
M  V30 16746 C 1520.74 -2.00896 -0.179909 0
M  V30 16747 C 1521.05 -1.29046 -1.46991 0
M  V30 16748 O 1522.25 -1.68274 -2.13063 0
M  V30 16749 C 1520.71 -3.57981 -0.371169 0
M  V30 16750 C 1520.32 -4.38739 0.906213 0
M  V30 16751 C 1522.06 -4.14698 -0.906965 0
M  V30 16752 C 1519.97 -5.87447 0.682637 0
M  V30 16753 H 1518.9 -0.750649 -0.071008 0
M  V30 16754 H 1521.55 -1.75854 0.524169 0
M  V30 16755 H 1519.93 -3.79315 -1.13736 0
M  V30 16756 H 1521.11 -4.29167 1.67785 0
M  V30 16757 H 1519.42 -3.93296 1.36776 0
M  V30 16758 H 1522.02 -5.2347 -1.09012 0
M  V30 16759 H 1522.36 -3.71477 -1.87911 0
M  V30 16760 H 1522.89 -3.97297 -0.200068 0
M  V30 16761 H 1519.63 -6.35011 1.62608 0
M  V30 16762 H 1519.15 -5.99779 -0.0498716 0
M  V30 16763 H 1520.83 -6.46202 0.321331 0
M  V30 16764 N 1520.96 -0.130252 -1.57061 0
M  V30 16765 C 1522.19 0.532416 -1.99932 0
M  V30 16766 C 1522.61 1.59505 -1.01013 0
M  V30 16767 O 1521.96 1.82499 -0.00463158 0
M  V30 16768 C 1522.02 1.14833 -3.42776 0
M  V30 16769 O 1521.74 0.128163 -4.37912 0
M  V30 16770 C 1523.24 1.89324 -4.00838 0
M  V30 16771 H 1520.46 0.140046 -0.656223 0
M  V30 16772 H 1523 -0.219905 -2.03314 0
M  V30 16773 H 1521.16 1.85137 -3.40298 0
M  V30 16774 H 1521.57 0.577135 -5.21315 0
M  V30 16775 H 1523.04 2.27731 -5.02835 0
M  V30 16776 H 1523.52 2.77277 -3.40608 0
M  V30 16777 H 1524.13 1.23757 -4.06896 0
M  V30 16778 N 1522.44 1.56945 0.143535 0
M  V30 16779 C 1523.72 1.74461 0.884454 0
M  V30 16780 C 1524.1 0.699201 1.99184 0
M  V30 16781 O 1523.45 -0.281267 2.26762 0
M  V30 16782 C 1523.66 3.18639 1.42373 0
M  V30 16783 C 1525.01 3.80426 1.88577 0
M  V30 16784 O 1526.03 3.2209 1.52107 0
M  V30 16785 O 1524.89 4.82913 2.55847 0
M  V30 16786 H 1521.98 0.713457 0.41822 0
M  V30 16787 H 1524.53 1.69208 0.12919 0
M  V30 16788 H 1523.3 3.86227 0.628056 0
M  V30 16789 H 1522.92 3.28332 2.2424 0
M  V30 16790 N 1523.92 -0.412991 1.52093 0
M  V30 16791 C 1524.85 -1.50986 1.78117 0
M  V30 16792 C 1525.83 -1.57925 0.631963 0
M  V30 16793 O 1527.02 -1.73261 0.877168 0
M  V30 16794 C 1524.15 -2.88846 1.92835 0
M  V30 16795 C 1523.1 -2.96759 3.08412 0
M  V30 16796 C 1522.43 -4.36837 3.08347 0
M  V30 16797 C 1523.73 -2.68599 4.47942 0
M  V30 16798 H 1525.42 -1.29459 2.69964 0
M  V30 16799 H 1522.97 -0.621348 1.29905 0
M  V30 16800 H 1524.92 -3.65563 2.09623 0
M  V30 16801 H 1523.64 -3.11658 0.976553 0
M  V30 16802 H 1522.3 -2.22487 2.91368 0
M  V30 16803 H 1521.95 -4.56652 2.10897 0
M  V30 16804 H 1521.65 -4.43056 3.85973 0
M  V30 16805 H 1523.18 -5.15493 3.2726 0
M  V30 16806 H 1524.59 -3.35039 4.65212 0
M  V30 16807 H 1522.99 -2.86199 5.27456 0
M  V30 16808 H 1524.06 -1.64058 4.56304 0
M  V30 16809 N 1525.4 -1.4265 -0.669982 0
M  V30 16810 C 1526.31 -1.48916 -1.81276 0
M  V30 16811 C 1527.33 -0.377523 -1.69855 0
M  V30 16812 O 1528.5 -0.629151 -1.91321 0
M  V30 16813 C 1525.57 -1.39376 -3.17451 0
M  V30 16814 C 1524.63 -2.61072 -3.40793 0
M  V30 16815 C 1523.86 -2.51976 -4.70472 0
M  V30 16816 O 1524.08 -1.55827 -5.48702 0
M  V30 16817 O 1523.02 -3.42193 -4.95164 0
M  V30 16818 H 1526.84 -2.45382 -1.78945 0
M  V30 16819 H 1524.43 -1.24467 -0.826342 0
M  V30 16820 H 1526.31 -1.36435 -3.98702 0
M  V30 16821 H 1524.99 -0.460376 -3.20409 0
M  V30 16822 H 1523.89 -2.69587 -2.59372 0
M  V30 16823 H 1525.23 -3.53325 -3.42669 0
M  V30 16824 N 1526.88 0.906753 -1.28902 0
M  V30 16825 C 1527.79 2.04313 -1.15296 0
M  V30 16826 C 1528.8 1.73826 -0.0778619 0
M  V30 16827 O 1529.98 1.99322 -0.288543 0
M  V30 16828 C 1527.04 3.36782 -0.823317 0
M  V30 16829 C 1526.11 3.80834 -1.98152 0
M  V30 16830 C 1525.34 5.06981 -1.66751 0
M  V30 16831 O 1525.56 5.67391 -0.58513 0
M  V30 16832 O 1524.5 5.46915 -2.51332 0
M  V30 16833 H 1528.32 2.18713 -2.10709 0
M  V30 16834 H 1525.91 1.02928 -1.08287 0
M  V30 16835 H 1527.79 4.16298 -0.653735 0
M  V30 16836 H 1526.46 3.23542 0.101097 0
M  V30 16837 H 1525.37 3.02115 -2.2063 0
M  V30 16838 H 1526.7 3.98648 -2.88688 0
M  V30 16839 N 1528.36 1.11264 1.11616 0
M  V30 16840 C 1529.77 0.846176 1.35322 0
M  V30 16841 C 1529.97 -0.530043 1.94404 0
M  V30 16842 O 1529.03 -1.28122 2.1758 0
M  V30 16843 C 1530.34 1.9528 2.28662 0
M  V30 16844 C 1531.89 1.98225 2.42231 0
M  V30 16845 C 1532.36 3.08086 3.38891 0
M  V30 16846 N 1533.85 3.07448 3.46453 0
M  V30 16847 C 1534.59 3.89094 4.21181 0
M  V30 16848 N 1534.09 4.80698 4.989 0
M  V30 16849 N 1535.88 3.77279 4.16674 0
M  V30 16850 H 1528.03 1.99958 0.716284 0
M  V30 16851 H 1530.29 0.869439 0.377862 0
M  V30 16852 H 1530 2.94381 1.92439 0
M  V30 16853 H 1529.87 1.84739 3.28864 0
M  V30 16854 H 1532.26 0.997517 2.77729 0
M  V30 16855 H 1532.34 2.12842 1.41887 0
M  V30 16856 H 1531.98 4.06784 3.0412 0
M  V30 16857 H 1531.91 2.90709 4.39085 0
M  V30 16858 H 1534.41 2.41077 2.91016 0
M  V30 16859 H 1534.72 5.39535 5.53282 0
M  V30 16860 H 1533.06 4.84721 4.98067 0
M  V30 16861 H 1536.25 3.05059 3.55044 0
M  V30 16862 H 1536.43 4.41142 4.74655 0
M  V30 16863 N 1529.83 -1.29188 0.902679 0
M  V30 16864 C 1530.76 -2.3006 0.399357 0
M  V30 16865 C 1531.74 -1.61724 -0.527199 0
M  V30 16866 O 1532.93 -1.89213 -0.437293 0
M  V30 16867 C 1530.06 -3.45309 -0.371331 0
M  V30 16868 C 1529.01 -4.25466 0.465068 0
M  V30 16869 C 1528.34 -5.32941 -0.433295 0
M  V30 16870 C 1529.64 -4.93287 1.71655 0
M  V30 16871 H 1531.33 -2.72409 1.24233 0
M  V30 16872 H 1528.88 -1.30958 0.598822 0
M  V30 16873 H 1530.83 -4.14955 -0.734207 0
M  V30 16874 H 1529.56 -3.01811 -1.24811 0
M  V30 16875 H 1528.22 -3.57532 0.810315 0
M  V30 16876 H 1527.86 -4.85688 -1.3083 0
M  V30 16877 H 1527.56 -5.87472 0.122657 0
M  V30 16878 H 1529.09 -6.05438 -0.792298 0
M  V30 16879 H 1530.5 -5.55353 1.42323 0
M  V30 16880 H 1528.9 -5.57763 2.21405 0
M  V30 16881 H 1529.97 -4.18406 2.45081 0
M  V30 16882 N 1531.31 -0.665475 -1.42861 0
M  V30 16883 C 1532.73 -0.334157 -1.56063 0
M  V30 16884 C 1532.93 1.16104 -1.64688 0
M  V30 16885 O 1531.98 1.94622 -1.60867 0
M  V30 16886 C 1533.3 -1.05628 -2.81537 0
M  V30 16887 C 1534.84 -1.03771 -2.95297 0
M  V30 16888 C 1535.32 -1.74098 -4.2362 0
M  V30 16889 N 1536.81 -1.7092 -4.30512 0
M  V30 16890 C 1537.55 -2.222 -5.28597 0
M  V30 16891 N 1537.04 -2.81821 -6.32889 0
M  V30 16892 N 1538.83 -2.12628 -5.20332 0
M  V30 16893 H 1530.99 -1.6356 -1.35506 0
M  V30 16894 H 1533.25 -0.688538 -0.651628 0
M  V30 16895 H 1532.95 -2.11141 -2.81269 0
M  V30 16896 H 1532.83 -0.615586 -3.72143 0
M  V30 16897 H 1535.22 0.00905324 -2.95099 0
M  V30 16898 H 1535.3 -1.51721 -2.05948 0
M  V30 16899 H 1534.94 -2.78737 -4.2458 0
M  V30 16900 H 1534.87 -1.23604 -5.11888 0
M  V30 16901 H 1537.36 -1.27425 -3.55769 0
M  V30 16902 H 1537.67 -3.18594 -7.04072 0
M  V30 16903 H 1536.02 -2.85887 -6.33478 0
M  V30 16904 H 1539.21 -1.65746 -4.37774 0
M  V30 16905 H 1539.38 -2.52899 -5.96612 0
M  V30 16906 N 1532.79 1.52222 -0.408187 0
M  V30 16907 C 1534.21 1.59491 -0.0590201 0
M  V30 16908 C 1534.41 1.42109 1.42854 0
M  V30 16909 O 1533.46 1.24757 2.19527 0
M  V30 16910 C 1534.77 2.9557 -0.553093 0
M  V30 16911 C 1536.32 3.08801 -0.510986 0
M  V30 16912 C 1536.8 4.47358 -0.981554 0
M  V30 16913 N 1538.29 4.53596 -0.938335 0
M  V30 16914 C 1539.02 5.59076 -1.27364 0
M  V30 16915 N 1538.52 6.72113 -1.68035 0
M  V30 16916 N 1540.31 5.49279 -1.19367 0
M  V30 16917 H 1532.46 1.61768 -1.37641 0
M  V30 16918 H 1534.73 0.760959 -0.565372 0
M  V30 16919 H 1534.43 3.13566 -1.59276 0
M  V30 16920 H 1534.31 3.77181 0.0377629 0
M  V30 16921 H 1536.69 2.90489 0.519637 0
M  V30 16922 H 1536.77 2.29098 -1.13788 0
M  V30 16923 H 1536.42 4.66413 -2.0105 0
M  V30 16924 H 1536.35 5.25556 -0.331478 0
M  V30 16925 H 1538.84 3.72453 -0.639297 0
M  V30 16926 H 1539.15 7.48586 -1.91934 0
M  V30 16927 H 1537.5 6.73396 -1.71938 0
M  V30 16928 H 1540.69 4.59853 -0.8748 0
M  V30 16929 H 1540.86 6.31378 -1.45829 0
M  V30 16930 N 1534.27 0.138579 1.5699 0
M  V30 16931 C 1535.18 -0.817548 2.19894 0
M  V30 16932 C 1536.19 -1.27806 1.18075 0
M  V30 16933 O 1537.37 -1.33699 1.5062 0
M  V30 16934 C 1534.43 -2.04244 2.80152 0
M  V30 16935 C 1533.5 -1.63197 3.97071 0
M  V30 16936 C 1532.73 -2.79847 4.54446 0
M  V30 16937 O 1532.95 -3.95827 4.10703 0
M  V30 16938 O 1531.89 -2.55804 5.44838 0
M  V30 16939 H 1535.71 -0.312123 3.02092 0
M  V30 16940 H 1533.3 -0.0880281 1.4914 0
M  V30 16941 H 1535.18 -2.75945 3.18485 0
M  V30 16942 H 1533.85 -2.53755 2.00973 0
M  V30 16943 H 1532.76 -0.885448 3.6347 0
M  V30 16944 H 1534.09 -1.1841 4.77745 0
M  V30 16945 N 1535.75 -1.57019 -0.13521 0
M  V30 16946 C 1536.66 -2.02427 -1.18578 0
M  V30 16947 C 1537.67 -0.941738 -1.46312 0
M  V30 16948 O 1538.85 -1.25208 -1.57749 0
M  V30 16949 C 1535.91 -2.40577 -2.49647 0
M  V30 16950 C 1534.97 -3.62835 -2.29455 0
M  V30 16951 C 1534.21 -3.99156 -3.54274 0
M  V30 16952 O 1534.43 -3.36001 -4.60933 0
M  V30 16953 O 1533.36 -4.92345 -3.46238 0
M  V30 16954 H 1537.19 -2.92131 -0.830237 0
M  V30 16955 H 1534.77 -1.45366 -0.344814 0
M  V30 16956 H 1536.66 -2.65922 -3.269 0
M  V30 16957 H 1535.33 -1.54023 -2.84708 0
M  V30 16958 H 1534.24 -3.42661 -1.50114 0
M  V30 16959 H 1535.57 -4.50043 -1.99305 0
M  V30 16960 N 1537.22 0.404919 -1.52309 0
M  V30 16961 C 1538.17 1.49363 -1.75953 0
M  V30 16962 C 1539.14 1.54802 -0.60212 0
M  V30 16963 O 1540.33 1.71308 -0.840128 0
M  V30 16964 C 1537.47 2.86767 -1.91987 0
M  V30 16965 C 1536.58 2.90603 -3.19646 0
M  V30 16966 C 1535.71 4.19333 -3.26088 0
M  V30 16967 C 1534.75 4.17161 -4.47932 0
M  V30 16968 N 1533.89 5.37469 -4.51743 0
M  V30 16969 H 1538.73 1.28503 -2.6887 0
M  V30 16970 H 1536.27 0.623684 -1.33224 0
M  V30 16971 H 1538.23 3.66536 -1.99267 0
M  V30 16972 H 1536.86 3.06112 -1.02447 0
M  V30 16973 H 1535.91 2.033 -3.21517 0
M  V30 16974 H 1537.22 2.84864 -4.09456 0
M  V30 16975 H 1536.37 5.07497 -3.32463 0
M  V30 16976 H 1535.11 4.27774 -2.34224 0
M  V30 16977 H 1534.12 3.27386 -4.417 0
M  V30 16978 H 1535.34 4.10356 -5.41096 0
M  V30 16979 H 1533.29 5.46569 -3.62764 0
M  V30 16980 H 1533.21 5.3374 -5.35404 0
M  V30 16981 H 1534.47 6.27575 -4.62353 0
M  V30 16982 N 1538.7 1.43003 0.662408 0
M  V30 16983 C 1539.63 1.43407 1.78793 0
M  V30 16984 C 1540.65 0.331423 1.59391 0
M  V30 16985 O 1541.84 0.595291 1.68281 0
M  V30 16986 C 1538.94 1.22239 3.16087 0
M  V30 16987 C 1538.11 2.4517 3.6223 0
M  V30 16988 C 1537.17 2.19362 4.78296 0
M  V30 16989 O 1536.19 2.92651 4.88205 0
M  V30 16990 N 1537.4 1.20449 5.67866 0
M  V30 16991 H 1540.16 2.40426 1.78928 0
M  V30 16992 H 1537.72 1.38042 0.845936 0
M  V30 16993 H 1539.71 1.02871 3.91407 0
M  V30 16994 H 1538.28 0.336983 3.10778 0
M  V30 16995 H 1537.5 2.80024 2.77453 0
M  V30 16996 H 1538.79 3.27003 3.89803 0
M  V30 16997 H 1538.19 0.598577 5.62524 0
M  V30 16998 H 1536.75 1.07066 6.42946 0
M  V30 16999 N 1540.18 -0.899904 1.29381 0
M  V30 17000 C 1541.6 -1.18067 1.07388 0
M  V30 17001 C 1541.8 -2.00739 -0.174951 0
M  V30 17002 O 1540.85 -2.36937 -0.872771 0
M  V30 17003 C 1542.17 -1.90182 2.32919 0
M  V30 17004 C 1543.71 -2.03009 2.38236 0
M  V30 17005 C 1544.19 -2.78533 3.6357 0
M  V30 17006 N 1545.68 -2.86088 3.64291 0
M  V30 17007 C 1546.41 -3.45062 4.57952 0
M  V30 17008 N 1545.91 -4.05204 5.61945 0
M  V30 17009 N 1547.7 -3.42734 4.45522 0
M  V30 17010 H 1539.85 -0.348306 2.09525 0
M  V30 17011 H 1542.12 -0.216796 0.922878 0
M  V30 17012 H 1541.82 -1.36871 3.23974 0
M  V30 17013 H 1541.7 -2.90658 2.40412 0
M  V30 17014 H 1544.08 -2.55495 1.47669 0
M  V30 17015 H 1544.17 -1.01666 2.34729 0
M  V30 17016 H 1543.81 -2.26723 4.54488 0
M  V30 17017 H 1543.74 -3.8022 3.64335 0
M  V30 17018 H 1546.23 -2.43372 2.891 0
M  V30 17019 H 1546.54 -4.48225 6.29535 0
M  V30 17020 H 1544.89 -4.03667 5.65755 0
M  V30 17021 H 1548.08 -2.94967 3.63472 0
M  V30 17022 H 1548.25 -3.884 5.187 0
M  V30 17023 N 1541.66 -1.11854 -1.11024 0
M  V30 17024 C 1542.59 -0.738635 -2.16972 0
M  V30 17025 C 1543.6 0.231814 -1.61141 0
M  V30 17026 O 1544.79 0.0140607 -1.78494 0
M  V30 17027 C 1541.89 -0.0715797 -3.38824 0
M  V30 17028 C 1541.07 -1.06995 -4.24112 0
M  V30 17029 C 1540.12 -0.431644 -5.24427 0
M  V30 17030 O 1539.15 -1.08685 -5.58727 0
M  V30 17031 N 1540.35 0.803593 -5.74911 0
M  V30 17032 H 1543.12 -1.65025 -2.50174 0
M  V30 17033 H 1540.68 -1.00933 -1.26586 0
M  V30 17034 H 1542.67 0.367274 -4.0303 0
M  V30 17035 H 1541.24 0.742686 -3.03649 0
M  V30 17036 H 1540.46 -1.68662 -3.56296 0
M  V30 17037 H 1541.75 -1.74525 -4.77931 0
M  V30 17038 H 1541.15 1.355 -5.49232 0
M  V30 17039 H 1539.7 1.18536 -6.40931 0
M  V30 17040 N 1543.14 1.28707 -0.909517 0
M  V30 17041 C 1544.05 2.31171 -0.399628 0
M  V30 17042 C 1545.06 1.6634 0.510582 0
M  V30 17043 O 1546.24 1.97432 0.397792 0
M  V30 17044 C 1543.3 3.44869 0.355852 0
M  V30 17045 C 1542.36 4.25267 -0.587065 0
M  V30 17046 C 1541.6 5.33536 0.132456 0
M  V30 17047 O 1541.82 5.54075 1.35486 0
M  V30 17048 O 1540.75 5.99561 -0.530062 0
M  V30 17049 H 1544.58 2.76785 -1.24995 0
M  V30 17050 H 1542.17 1.33323 -0.674186 0
M  V30 17051 H 1544.05 4.14068 0.782692 0
M  V30 17052 H 1542.72 3.01345 1.18207 0
M  V30 17053 H 1541.63 3.58673 -1.06322 0
M  V30 17054 H 1542.96 4.72459 -1.37998 0
M  V30 17055 N 1544.61 0.673042 1.42506 0
M  V30 17056 C 1545.54 0.00755467 2.33499 0
M  V30 17057 C 1546.53 -0.791161 1.50581 0
M  V30 17058 O 1547.71 -0.748668 1.79189 0
M  V30 17059 C 1544.84 -0.945638 3.34178 0
M  V30 17060 C 1543.79 -0.25564 4.27236 0
M  V30 17061 C 1543.12 -1.32165 5.18109 0
M  V30 17062 C 1544.42 0.864254 5.151 0
M  V30 17063 H 1546.11 0.767487 2.89396 0
M  V30 17064 H 1543.66 0.370524 1.39151 0
M  V30 17065 H 1545.61 -1.42026 3.96745 0
M  V30 17066 H 1544.34 -1.73697 2.76581 0
M  V30 17067 H 1543 0.19873 3.66061 0
M  V30 17068 H 1542.64 -2.10492 4.56839 0
M  V30 17069 H 1542.34 -0.865109 5.81197 0
M  V30 17070 H 1543.87 -1.79724 5.83551 0
M  V30 17071 H 1545.28 0.470924 5.71363 0
M  V30 17072 H 1543.68 1.24648 5.87012 0
M  V30 17073 H 1544.75 1.71378 4.53605 0
M  V30 17074 N 1546.09 -1.52004 0.416254 0
M  V30 17075 C 1547 -2.30947 -0.412403 0
M  V30 17076 C 1548.02 -1.38969 -1.04707 0
M  V30 17077 O 1549.19 -1.72044 -1.04703 0
M  V30 17078 C 1546.26 -3.12078 -1.51024 0
M  V30 17079 C 1545.32 -4.19805 -0.897892 0
M  V30 17080 C 1544.55 -4.97059 -1.94341 0
M  V30 17081 O 1544.78 -4.74695 -3.16261 0
M  V30 17082 O 1543.71 -5.81715 -1.54567 0
M  V30 17083 H 1547.54 -3.02817 0.231473 0
M  V30 17084 H 1545.12 -1.4832 0.179283 0
M  V30 17085 H 1547 -3.6258 -2.14741 0
M  V30 17086 H 1545.68 -2.42995 -2.13858 0
M  V30 17087 H 1544.59 -3.73433 -0.223236 0
M  V30 17088 H 1545.92 -4.91201 -0.31336 0
M  V30 17089 N 1547.57 -0.146903 -1.56914 0
M  V30 17090 C 1548.52 0.792821 -2.16756 0
M  V30 17091 C 1549.49 1.2442 -1.1004 0
M  V30 17092 O 1550.67 1.31674 -1.38081 0
M  V30 17093 C 1547.81 2.02659 -2.79327 0
M  V30 17094 C 1546.93 1.62102 -4.00433 0
M  V30 17095 C 1546.06 2.80658 -4.51004 0
M  V30 17096 C 1545.1 2.36474 -5.64576 0
M  V30 17097 N 1544.24 3.48038 -6.09766 0
M  V30 17098 H 1549.08 0.275708 -2.96722 0
M  V30 17099 H 1546.61 0.124374 -1.46573 0
M  V30 17100 H 1548.57 2.74986 -3.13749 0
M  V30 17101 H 1547.2 2.51781 -2.02005 0
M  V30 17102 H 1546.25 0.795407 -3.71991 0
M  V30 17103 H 1547.57 1.25652 -4.82714 0
M  V30 17104 H 1546.72 3.61175 -4.87481 0
M  V30 17105 H 1545.46 3.20353 -3.6773 0
M  V30 17106 H 1544.46 1.54397 -5.27676 0
M  V30 17107 H 1545.69 1.97865 -6.49635 0
M  V30 17108 H 1543.63 3.87354 -5.29427 0
M  V30 17109 H 1543.55 3.15602 -6.86972 0
M  V30 17110 H 1544.82 4.28912 -6.50887 0
M  V30 17111 N 1549.05 1.57088 0.126881 0
M  V30 17112 C 1550.28 1.88614 0.850444 0
M  V30 17113 C 1550.69 0.737309 1.73808 0
M  V30 17114 O 1550.05 -0.292196 1.80146 0
M  V30 17115 C 1550.1 3.19541 1.69044 0
M  V30 17116 O 1549.82 4.3 0.838555 0
M  V30 17117 C 1551.32 3.64717 2.51985 0
M  V30 17118 H 1548.54 0.624715 0.244892 0
M  V30 17119 H 1551.09 2.04184 0.113634 0
M  V30 17120 H 1549.24 3.05664 2.38009 0
M  V30 17121 H 1549.65 5.04992 1.41717 0
M  V30 17122 H 1551.13 4.5911 3.06467 0
M  V30 17123 H 1551.61 2.90986 3.28974 0
M  V30 17124 H 1552.21 3.81356 1.88276 0
M  V30 17125 N 1550.53 -0.396836 1.52522 0
M  V30 17126 C 1551.94 -0.736347 1.41598 0
M  V30 17127 C 1552.14 -1.944 0.530191 0
M  V30 17128 O 1551.2 -2.525 0.000649033 0
M  V30 17129 C 1552.51 -0.978775 2.84325 0
M  V30 17130 C 1554.06 -1.08073 2.9375 0
M  V30 17131 C 1554.53 -1.35584 4.37471 0
M  V30 17132 N 1556.03 -1.42423 4.40761 0
M  V30 17133 C 1556.76 -1.6536 5.49039 0
M  V30 17134 N 1556.26 -1.85819 6.67415 0
M  V30 17135 N 1558.05 -1.67475 5.36571 0
M  V30 17136 H 1550.2 0.397925 2.08639 0
M  V30 17137 H 1552.46 0.115803 0.9409 0
M  V30 17138 H 1552.17 -0.16362 3.51319 0
M  V30 17139 H 1552.04 -1.8956 3.26109 0
M  V30 17140 H 1554.43 -1.88646 2.26928 0
M  V30 17141 H 1554.51 -0.141996 2.55406 0
M  V30 17142 H 1554.16 -0.555238 5.04856 0
M  V30 17143 H 1554.09 -2.3073 4.73362 0
M  V30 17144 H 1556.58 -1.28352 3.55435 0
M  V30 17145 H 1556.89 -2.02806 7.45714 0
M  V30 17146 H 1555.23 -1.83059 6.70458 0
M  V30 17147 H 1558.43 -1.51038 4.43064 0
M  V30 17148 H 1558.6 -1.85011 6.21027 0
M  V30 17149 N 1552.01 -1.43353 -0.654814 0
M  V30 17150 C 1553.42 -1.26718 -0.970297 0
M  V30 17151 C 1553.62 -0.185747 -2.00642 0
M  V30 17152 O 1552.68 0.436357 -2.48701 0
M  V30 17153 C 1553.99 -2.63095 -1.45608 0
M  V30 17154 C 1555.54 -2.70613 -1.57281 0
M  V30 17155 C 1556.01 -4.07404 -2.0925 0
M  V30 17156 N 1557.5 -4.09461 -2.16555 0
M  V30 17157 C 1558.24 -5.12135 -2.57885 0
M  V30 17158 N 1557.74 -6.25185 -2.98523 0
M  V30 17159 N 1559.53 -4.9949 -2.57811 0
M  V30 17160 H 1551.68 -2.12378 0.0308331 0
M  V30 17161 H 1553.94 -0.946744 -0.0487843 0
M  V30 17162 H 1553.65 -3.43186 -0.769171 0
M  V30 17163 H 1553.52 -2.88381 -2.43138 0
M  V30 17164 H 1555.91 -1.90855 -2.25074 0
M  V30 17165 H 1555.99 -2.49094 -0.581879 0
M  V30 17166 H 1555.63 -4.87628 -1.4206 0
M  V30 17167 H 1555.56 -4.26287 -3.09172 0
M  V30 17168 H 1558.06 -3.27858 -1.87929 0
M  V30 17169 H 1558.37 -6.99362 -3.28804 0
M  V30 17170 H 1556.71 -6.28659 -2.96332 0
M  V30 17171 H 1559.9 -4.10238 -2.25438 0
M  V30 17172 H 1560.08 -5.79637 -2.89699 0
M  V30 17173 N 1553.48 0.89303 -1.29857 0
M  V30 17174 C 1554.43 1.9979 -1.15554 0
M  V30 17175 C 1555.4 1.66033 -0.0471157 0
M  V30 17176 O 1556.59 1.89575 -0.215846 0
M  V30 17177 C 1553.73 3.34595 -0.844993 0
M  V30 17178 C 1552.84 3.81093 -2.03451 0
M  V30 17179 C 1551.97 5.04506 -1.66275 0
M  V30 17180 C 1551.01 5.4339 -2.8177 0
M  V30 17181 N 1550.15 6.57987 -2.44945 0
M  V30 17182 H 1554.99 2.11355 -2.10079 0
M  V30 17183 H 1552.53 1.03497 -1.04531 0
M  V30 17184 H 1554.48 4.12175 -0.645598 0
M  V30 17185 H 1553.11 3.22738 0.0633626 0
M  V30 17186 H 1552.17 2.99491 -2.34541 0
M  V30 17187 H 1553.48 4.05855 -2.8997 0
M  V30 17188 H 1552.63 5.89688 -1.42664 0
M  V30 17189 H 1551.37 4.81597 -0.769144 0
M  V30 17190 H 1550.38 4.56738 -3.06056 0
M  V30 17191 H 1551.6 5.68276 -3.71805 0
M  V30 17192 H 1549.55 6.36669 -1.58079 0
M  V30 17193 H 1549.46 6.82579 -3.24996 0
M  V30 17194 H 1550.73 7.46421 -2.24669 0
M  V30 17195 N 1554.96 1.12442 1.10429 0
M  V30 17196 C 1555.89 0.814745 2.18824 0
M  V30 17197 C 1556.87 -0.221476 1.68652 0
M  V30 17198 O 1558.06 -0.0826537 1.94024 0
M  V30 17199 C 1555.19 0.268632 3.4626 0
M  V30 17200 C 1554.14 1.23792 4.09707 0
M  V30 17201 C 1553.47 0.552034 5.31843 0
M  V30 17202 C 1554.77 2.5926 4.53411 0
M  V30 17203 H 1556.46 1.72111 2.44986 0
M  V30 17204 H 1554.01 0.828968 1.17746 0
M  V30 17205 H 1555.96 0.0397207 4.21381 0
M  V30 17206 H 1554.68 -0.673079 3.19589 0
M  V30 17207 H 1553.34 1.45264 3.36592 0
M  V30 17208 H 1552.99 -0.394821 5.01448 0
M  V30 17209 H 1552.69 1.19861 5.75245 0
M  V30 17210 H 1554.22 0.332161 6.09696 0
M  V30 17211 H 1555.63 2.41816 5.19806 0
M  V30 17212 H 1554.03 3.19997 5.07663 0
M  V30 17213 H 1555.1 3.17699 3.66327 0
M  V30 17214 N 1556.44 -1.28223 0.91633 0
M  V30 17215 C 1557.35 -2.30956 0.411882 0
M  V30 17216 C 1558.37 -1.66609 -0.501753 0
M  V30 17217 O 1559.54 -1.97641 -0.387317 0
M  V30 17218 C 1556.61 -3.45053 -0.337558 0
M  V30 17219 C 1555.67 -4.2495 0.609609 0
M  V30 17220 C 1554.9 -5.33598 -0.104159 0
M  V30 17221 O 1555.12 -5.54786 -1.32546 0
M  V30 17222 O 1554.06 -5.99272 0.561851 0
M  V30 17223 H 1557.88 -2.76118 1.26461 0
M  V30 17224 H 1555.47 -1.32964 0.681246 0
M  V30 17225 H 1557.35 -4.14477 -0.760722 0
M  V30 17226 H 1556.03 -3.01968 -1.16607 0
M  V30 17227 H 1554.93 -3.58104 1.08222 0
M  V30 17228 H 1556.27 -4.7172 1.40502 0
M  V30 17229 N 1557.92 -0.68059 -1.42147 0
M  V30 17230 C 1559.17 -0.204857 -2.01059 0
M  V30 17231 C 1559.49 1.19475 -1.54113 0
M  V30 17232 O 1558.76 1.80334 -0.765279 0
M  V30 17233 H 1557.34 -0.0727459 -0.743449 0
M  V30 17234 H 1560 -0.878396 -1.73983 0
M  V30 17235 H 1559.09 -0.210628 -3.11388 0
M  V30 17236 N 1559.4 1.51781 -0.424309 0
M  V30 17237 C 1560.67 1.94514 0.205791 0
M  V30 17238 C 1561.05 1.36219 1.61269 0
M  V30 17239 O 1560.4 0.544019 2.21929 0
M  V30 17240 C 1560.61 3.48445 0.196749 0
M  V30 17241 C 1561.96 4.22628 0.408702 0
M  V30 17242 O 1562.98 3.55133 0.275441 0
M  V30 17243 O 1561.84 5.42344 0.672698 0
M  V30 17244 H 1558.94 0.815576 0.136983 0
M  V30 17245 H 1561.48 1.6273 -0.481349 0
M  V30 17246 H 1560.25 3.83297 -0.787342 0
M  V30 17247 H 1559.88 3.86634 0.92735 0
M  V30 17248 N 1560.87 0.155222 1.56834 0
M  V30 17249 C 1562.1 -0.503763 2.01189 0
M  V30 17250 C 1562.52 -1.57086 1.03468 0
M  V30 17251 O 1561.88 -1.81296 0.0116895 0
M  V30 17252 C 1561.93 -1.07373 3.44243 0
M  V30 17253 O 1561.03 -2.18834 3.49551 0
M  V30 17254 H 1560.37 -0.122368 0.652627 0
M  V30 17255 H 1562.9 0.254377 2.03013 0
M  V30 17256 H 1562.91 -1.40036 3.83215 0
M  V30 17257 H 1561.59 -0.292339 4.14871 0
M  V30 17258 H 1560.17 -1.87337 3.22427 0
M  V30 17259 N 1562.35 -1.57153 -0.118549 0
M  V30 17260 C 1563.58 -1.89062 -0.840429 0
M  V30 17261 C 1563.99 -0.746516 -1.73414 0
M  V30 17262 O 1563.35 0.282638 -1.80298 0
M  V30 17263 C 1563.4 -3.20433 -1.67347 0
M  V30 17264 O 1563.12 -4.30439 -0.815739 0
M  V30 17265 C 1564.62 -3.66048 -2.50047 0
M  V30 17266 H 1561.84 -0.626005 -0.241575 0
M  V30 17267 H 1564.39 -2.04241 -0.102804 0
M  V30 17268 H 1562.54 -3.06922 -2.36385 0
M  V30 17269 H 1562.96 -5.05736 -1.39037 0
M  V30 17270 H 1564.43 -4.60729 -3.04028 0
M  V30 17271 H 1564.91 -2.92727 -3.27426 0
M  V30 17272 H 1565.51 -3.82349 -1.86251 0
M  V30 17273 N 1563.83 0.388742 -1.5273 0
M  V30 17274 C 1565.11 1.14799 -1.58368 0
M  V30 17275 C 1565.49 2.07706 -0.377018 0
M  V30 17276 O 1564.83 2.1951 0.634634 0
M  V30 17277 C 1565.04 1.90745 -2.92262 0
M  V30 17278 C 1566.39 2.46098 -3.46007 0
M  V30 17279 O 1567.42 2.00901 -2.94138 0
M  V30 17280 O 1566.28 3.28658 -4.3663 0
M  V30 17281 H 1563.37 0.52529 -0.638748 0
M  V30 17282 H 1565.92 0.393874 -1.65066 0
M  V30 17283 H 1564.69 1.22806 -3.7153 0
M  V30 17284 H 1564.31 2.73118 -2.88951 0
M  V30 17285 N 1565.31 1.43698 0.647203 0
M  V30 17286 C 1566.24 1.52135 1.77136 0
M  V30 17287 C 1567.22 0.375551 1.65902 0
M  V30 17288 O 1568.4 0.593564 1.84907 0
M  V30 17289 C 1565.53 1.44974 3.15594 0
M  V30 17290 C 1564.49 2.57866 3.41598 0
M  V30 17291 C 1563.81 2.35757 4.7992 0
M  V30 17292 C 1565.11 4.00089 3.35747 0
M  V30 17293 H 1566.81 2.46227 1.70332 0
M  V30 17294 H 1564.35 1.18507 0.818046 0
M  V30 17295 H 1566.31 1.4948 3.93997 0
M  V30 17296 H 1565.03 0.473905 3.23143 0
M  V30 17297 H 1563.69 2.52722 2.65569 0
M  V30 17298 H 1563.34 1.36403 4.84152 0
M  V30 17299 H 1563.04 3.11436 4.98278 0
M  V30 17300 H 1564.56 2.42055 5.60572 0
M  V30 17301 H 1565.98 4.06687 4.04078 0
M  V30 17302 H 1564.37 4.75842 3.65642 0
M  V30 17303 H 1565.44 4.24798 2.33825 0
M  V30 17304 N 1566.79 -0.886131 1.30328 0
M  V30 17305 C 1568.01 -1.67625 1.22134 0
M  V30 17306 C 1568.44 -1.86893 -0.212712 0
M  V30 17307 O 1567.79 -1.39905 -1.1531 0
M  V30 17308 C 1567.84 -3.03068 1.95402 0
M  V30 17309 O 1566.95 -3.92022 1.28032 0
M  V30 17310 H 1566.29 -0.512246 0.422493 0
M  V30 17311 H 1568.82 -1.10602 1.72129 0
M  V30 17312 H 1568.83 -3.53119 2.04379 0
M  V30 17313 H 1567.5 -2.88363 2.99699 0
M  V30 17314 H 1566.08 -3.50461 1.27402 0
M  V30 17315 N 1568.26 -1.13026 -1.09832 0
M  V30 17316 C 1569.54 -0.800667 -1.78462 0
M  V30 17317 C 1569.92 0.708508 -1.98855 0
M  V30 17318 O 1569.27 1.64436 -1.58661 0
M  V30 17319 C 1569.48 -1.58284 -3.11042 0
M  V30 17320 C 1570.83 -1.77285 -3.85818 0
M  V30 17321 O 1571.85 -1.54848 -3.20781 0
M  V30 17322 O 1570.71 -2.14693 -5.02563 0
M  V30 17323 H 1567.8 -0.291895 -0.773774 0
M  V30 17324 H 1570.35 -1.23464 -1.16425 0
M  V30 17325 H 1569.12 -2.60867 -2.91657 0
M  V30 17326 H 1568.75 -1.14353 -3.80801 0
M  V30 17327 N 1569.74 1.27735 -0.923117 0
M  V30 17328 C 1570.67 2.26095 -0.375982 0
M  V30 17329 C 1571.69 1.55227 0.490763 0
M  V30 17330 O 1572.88 1.7589 0.304127 0
M  V30 17331 C 1569.98 3.35479 0.480342 0
M  V30 17332 C 1569.15 4.35866 -0.36605 0
M  V30 17333 C 1568.21 5.24466 0.42688 0
M  V30 17334 O 1567.23 5.68964 -0.163825 0
M  V30 17335 N 1568.44 5.54192 1.72777 0
M  V30 17336 H 1571.2 2.73679 -1.22147 0
M  V30 17337 H 1568.76 1.41314 -0.790056 0
M  V30 17338 H 1570.75 3.91693 1.01776 0
M  V30 17339 H 1569.32 2.87531 1.22657 0
M  V30 17340 H 1568.54 3.7898 -1.08479 0
M  V30 17341 H 1569.83 4.9995 -0.944849 0
M  V30 17342 H 1569.23 5.19888 2.23008 0
M  V30 17343 H 1567.79 6.13125 2.21181 0
M  V30 17344 N 1571.22 0.688118 1.41784 0
M  V30 17345 C 1572.47 0.213085 2.00571 0
M  V30 17346 C 1572.78 -1.19176 1.55101 0
M  V30 17347 O 1573.99 -1.76387 2.06397 0
M  V30 17348 C 1572.44 0.330075 3.58383 0
M  V30 17349 C 1572.05 1.73981 4.12837 0
M  V30 17350 C 1573.8 -0.0855651 4.24414 0
M  V30 17351 C 1571.7 1.80886 5.63058 0
M  V30 17352 H 1570.63 0.075906 0.750169 0
M  V30 17353 H 1573.28 0.855236 1.62351 0
M  V30 17354 H 1571.67 -0.380199 3.94171 0
M  V30 17355 H 1572.84 2.47825 3.88484 0
M  V30 17356 H 1571.16 2.10447 3.59306 0
M  V30 17357 H 1573.75 -0.0543142 5.34672 0
M  V30 17358 H 1574.1 -1.12307 4.00865 0
M  V30 17359 H 1574.63 0.574169 3.93635 0
M  V30 17360 H 1571.37 2.82663 5.91424 0
M  V30 17361 H 1570.89 1.11417 5.89361 0
M  V30 17362 H 1572.57 1.56835 6.27704 0
M  V30 17363 N 1572.7 -1.51554 0.432352 0
M  V30 17364 C 1573.66 -2.26195 -0.369912 0
M  V30 17365 C 1574.66 -1.29446 -0.953961 0
M  V30 17366 O 1575.85 -1.53199 -0.829193 0
M  V30 17367 C 1572.98 -3.04993 -1.52289 0
M  V30 17368 H 1574.18 -2.98551 0.284173 0
M  V30 17369 H 1571.73 -1.55197 0.1854 0
M  V30 17370 H 1572.46 -2.37043 -2.21317 0
M  V30 17371 H 1572.25 -3.76051 -1.11032 0
M  V30 17372 H 1573.74 -3.61547 -2.08982 0
M  V30 17373 N 1574.18 -0.163538 -1.56749 0
M  V30 17374 C 1575.09 0.782461 -2.21167 0
M  V30 17375 C 1576.1 1.25911 -1.20093 0
M  V30 17376 O 1577.28 1.31286 -1.52728 0
M  V30 17377 C 1574.34 1.99761 -2.83366 0
M  V30 17378 C 1573.4 1.56859 -3.99617 0
M  V30 17379 C 1572.64 2.72582 -4.58841 0
M  V30 17380 O 1572.86 3.89243 -4.16949 0
M  V30 17381 O 1571.79 2.47104 -5.48838 0
M  V30 17382 H 1575.62 0.264023 -3.0255 0
M  V30 17383 H 1573.21 0.06429 -1.49262 0
M  V30 17384 H 1575.09 2.70843 -3.22835 0
M  V30 17385 H 1573.76 2.50526 -2.04984 0
M  V30 17386 H 1572.67 0.827511 -3.64833 0
M  V30 17387 H 1574 1.10794 -4.79568 0
M  V30 17388 N 1575.65 1.57214 0.110213 0
M  V30 17389 C 1576.58 2.04015 1.13579 0
M  V30 17390 C 1577.57 0.926215 1.42672 0
M  V30 17391 O 1578.75 1.19651 1.52962 0
M  V30 17392 C 1575.88 2.45187 2.45969 0
M  V30 17393 C 1574.83 3.60105 2.31319 0
M  V30 17394 C 1574.16 3.87205 3.68749 0
M  V30 17395 C 1575.46 4.91526 1.76635 0
M  V30 17396 H 1577.15 2.89944 0.746496 0
M  V30 17397 H 1574.7 1.39488 0.357642 0
M  V30 17398 H 1576.65 2.76534 3.17973 0
M  V30 17399 H 1575.38 1.56238 2.86805 0
M  V30 17400 H 1574.04 3.28981 1.61762 0
M  V30 17401 H 1573.68 2.95448 4.07087 0
M  V30 17402 H 1573.38 4.64563 3.59798 0
M  V30 17403 H 1574.91 4.21013 4.42245 0
M  V30 17404 H 1576.32 5.21351 2.38465 0
M  V30 17405 H 1574.72 5.72944 1.78482 0
M  V30 17406 H 1575.79 4.79456 0.724573 0
M  V30 17407 N 1577.13 -0.380637 1.52934 0
M  V30 17408 C 1578.06 -1.48518 1.74571 0
M  V30 17409 C 1579.08 -1.50272 0.626263 0
M  V30 17410 O 1580.27 -1.54023 0.902167 0
M  V30 17411 C 1577.37 -2.87339 1.79693 0
M  V30 17412 C 1576.54 -3.09454 3.09123 0
M  V30 17413 C 1575.6 -4.28305 3.05682 0
M  V30 17414 O 1574.62 -4.24205 3.79524 0
M  V30 17415 N 1575.83 -5.34932 2.2545 0
M  V30 17416 H 1578.59 -1.30341 2.69873 0
M  V30 17417 H 1576.15 -0.57023 1.51526 0
M  V30 17418 H 1578.14 -3.64961 1.74887 0
M  V30 17419 H 1576.71 -2.98835 0.917414 0
M  V30 17420 H 1575.93 -2.19623 3.27352 0
M  V30 17421 H 1577.22 -3.21089 3.94689 0
M  V30 17422 H 1576.62 -5.41121 1.64939 0
M  V30 17423 H 1575.18 -6.11189 2.26476 0
M  V30 17424 N 1578.61 -1.44039 -0.639573 0
M  V30 17425 C 1579.57 -1.49907 -1.7338 0
M  V30 17426 C 1580.57 -0.382101 -1.56194 0
M  V30 17427 O 1581.76 -0.644396 -1.61843 0
M  V30 17428 C 1578.9 -1.36486 -3.12385 0
M  V30 17429 H 1580.09 -2.4737 -1.69553 0
M  V30 17430 H 1577.64 -1.31006 -0.852474 0
M  V30 17431 H 1578.38 -0.400845 -3.21813 0
M  V30 17432 H 1578.16 -2.17471 -3.26265 0
M  V30 17433 H 1579.65 -1.43555 -3.9215 0
M  V30 17434 N 1580.09 0.879207 -1.30796 0
M  V30 17435 C 1581.02 1.99134 -1.13482 0
M  V30 17436 C 1582.03 1.6262 -0.0764492 0
M  V30 17437 O 1583.22 1.75553 -0.323038 0
M  V30 17438 C 1580.32 3.31386 -0.709706 0
M  V30 17439 C 1579.5 3.963 -1.85108 0
M  V30 17440 C 1578.55 5.06858 -1.41356 0
M  V30 17441 O 1577.58 5.28178 -2.12172 0
M  V30 17442 N 1578.78 5.79746 -0.295789 0
M  V30 17443 H 1581.55 2.14536 -2.09271 0
M  V30 17444 H 1579.11 1.05264 -1.23009 0
M  V30 17445 H 1581.1 4.02719 -0.399903 0
M  V30 17446 H 1579.67 3.12209 0.156309 0
M  V30 17447 H 1578.89 3.18065 -2.3287 0
M  V30 17448 H 1580.18 4.36408 -2.61582 0
M  V30 17449 H 1579.58 5.64935 0.294166 0
M  V30 17450 H 1578.13 6.51784 -0.0454707 0
M  V30 17451 N 1581.57 1.13606 1.09231 0
M  V30 17452 C 1582.82 0.893694 1.8082 0
M  V30 17453 C 1583.13 -0.581713 1.8675 0
M  V30 17454 O 1584.34 -0.941079 2.54668 0
M  V30 17455 C 1582.79 1.54932 3.24845 0
M  V30 17456 C 1582.4 3.0604 3.27175 0
M  V30 17457 C 1584.14 1.38773 4.01176 0
M  V30 17458 C 1582.05 3.64478 4.65735 0
M  V30 17459 H 1580.98 0.330699 0.677609 0
M  V30 17460 H 1583.63 1.36401 1.22748 0
M  V30 17461 H 1582.01 1.00668 3.82991 0
M  V30 17462 H 1583.19 3.66901 2.78783 0
M  V30 17463 H 1581.5 3.21739 2.64335 0
M  V30 17464 H 1584.1 1.79843 5.03548 0
M  V30 17465 H 1584.44 0.33282 4.14967 0
M  V30 17466 H 1584.98 1.90028 3.49477 0
M  V30 17467 H 1581.71 4.69785 4.57146 0
M  V30 17468 H 1581.23 3.08396 5.14444 0
M  V30 17469 H 1582.91 3.64272 5.3471 0
M  V30 17470 N 1583.05 -1.27244 0.929878 0
M  V30 17471 C 1584.01 -2.25028 0.435315 0
M  V30 17472 C 1585.01 -1.54453 -0.447332 0
M  V30 17473 O 1586.2 -1.72424 -0.248105 0
M  V30 17474 C 1583.33 -3.38843 -0.373933 0
M  V30 17475 H 1584.52 -2.70293 1.2993 0
M  V30 17476 H 1582.08 -1.39204 0.710771 0
M  V30 17477 H 1582.81 -2.98963 -1.25664 0
M  V30 17478 H 1582.6 -3.91244 0.258946 0
M  V30 17479 H 1584.09 -4.11516 -0.710255 0
M  V30 17480 N 1584.52 -0.695628 -1.41417 0
M  V30 17481 C 1585.43 -0.0308378 -2.3458 0
M  V30 17482 C 1586.45 0.766 -1.56232 0
M  V30 17483 O 1587.63 0.703548 -1.88712 0
M  V30 17484 C 1584.69 0.894162 -3.34971 0
M  V30 17485 C 1583.75 0.0895231 -4.29207 0
M  V30 17486 C 1582.98 0.970467 -5.24802 0
M  V30 17487 O 1583.21 2.20997 -5.25848 0
M  V30 17488 O 1582.14 0.420114 -6.00432 0
M  V30 17489 H 1585.97 -0.798775 -2.93007 0
M  V30 17490 H 1583.55 -0.455964 -1.42272 0
M  V30 17491 H 1585.43 1.42458 -3.9659 0
M  V30 17492 H 1584.11 1.64159 -2.78987 0
M  V30 17493 H 1583.02 -0.4855 -3.70936 0
M  V30 17494 H 1584.35 -0.619241 -4.88289 0
M  V30 17495 N 1586 1.51322 -0.440383 0
M  V30 17496 C 1586.93 2.30708 0.360013 0
M  V30 17497 C 1587.91 1.36254 1.01828 0
M  V30 17498 O 1589.1 1.65174 1.02134 0
M  V30 17499 C 1586.23 3.15132 1.45977 0
M  V30 17500 C 1585.18 4.17889 0.924825 0
M  V30 17501 C 1584.51 4.90853 2.12056 0
M  V30 17502 C 1585.81 5.22282 -0.0428362 0
M  V30 17503 H 1587.5 2.97868 -0.30248 0
M  V30 17504 H 1585.05 1.43249 -0.146914 0
M  V30 17505 H 1587 3.69449 2.02695 0
M  V30 17506 H 1585.72 2.45798 2.1506 0
M  V30 17507 H 1584.38 3.64627 0.379842 0
M  V30 17508 H 1584.03 4.1802 2.79765 0
M  V30 17509 H 1583.73 5.60339 1.769 0
M  V30 17510 H 1585.26 5.47995 2.69322 0
M  V30 17511 H 1586.67 5.71654 0.434137 0
M  V30 17512 H 1585.07 5.99314 -0.307126 0
M  V30 17513 H 1586.14 4.74923 -0.978557 0
M  V30 17514 N 1587.48 0.171848 1.5666 0
M  V30 17515 C 1588.43 -0.758237 2.17989 0
M  V30 17516 C 1589.4 -1.22654 1.12006 0
M  V30 17517 O 1590.58 -1.29461 1.40159 0
M  V30 17518 C 1587.72 -1.98189 2.82516 0
M  V30 17519 C 1586.83 -1.55711 4.02962 0
M  V30 17520 C 1585.97 -2.73447 4.55412 0
M  V30 17521 C 1585.01 -2.27462 5.68267 0
M  V30 17522 N 1584.15 -3.38293 6.15225 0
M  V30 17523 H 1588.99 -0.228467 2.97123 0
M  V30 17524 H 1586.52 -0.10104 1.46753 0
M  V30 17525 H 1588.48 -2.6996 3.18084 0
M  V30 17526 H 1587.11 -2.48536 2.05985 0
M  V30 17527 H 1586.16 -0.736126 3.7321 0
M  V30 17528 H 1587.47 -1.17957 4.84652 0
M  V30 17529 H 1586.63 -3.53374 4.93165 0
M  V30 17530 H 1585.37 -3.14462 3.7278 0
M  V30 17531 H 1584.37 -1.45982 5.30065 0
M  V30 17532 H 1585.6 -1.87505 6.52701 0
M  V30 17533 H 1583.54 -3.78882 5.35522 0
M  V30 17534 H 1583.46 -3.04633 6.91907 0
M  V30 17535 H 1584.73 -4.18503 6.57629 0
M  V30 17536 N 1588.96 -1.5727 -0.101874 0
M  V30 17537 C 1589.89 -1.96813 -1.15498 0
M  V30 17538 C 1590.87 -0.840319 -1.39203 0
M  V30 17539 O 1592.05 -1.10002 -1.53075 0
M  V30 17540 C 1589.18 -2.27908 -2.5055 0
M  V30 17541 C 1588.23 -3.50388 -2.43168 0
M  V30 17542 S 1589.06 -5.02354 -1.85475 0
M  V30 17543 C 1590.21 -5.36619 -3.22166 0
M  V30 17544 H 1590.45 -2.8583 -0.81785 0
M  V30 17545 H 1587.98 -1.5127 -0.309296 0
M  V30 17546 H 1589.94 -2.465 -3.2825 0
M  V30 17547 H 1588.6 -1.39475 -2.81435 0
M  V30 17548 H 1587.79 -3.69565 -3.42692 0
M  V30 17549 H 1587.39 -3.31271 -1.73596 0
M  V30 17550 H 1589.69 -5.32849 -4.18423 0
M  V30 17551 H 1590.63 -6.37703 -3.07799 0
M  V30 17552 H 1591.04 -4.64082 -3.21385 0
M  V30 17553 N 1590.44 0.372521 -1.53134 0
M  V30 17554 C 1591.37 1.4759 -1.75357 0
M  V30 17555 C 1592.38 1.49938 -0.634223 0
M  V30 17556 O 1593.57 1.53543 -0.910322 0
M  V30 17557 C 1590.67 2.86382 -1.81214 0
M  V30 17558 C 1589.84 3.0781 -3.1076 0
M  V30 17559 C 1588.9 4.26677 -3.07949 0
M  V30 17560 O 1587.93 4.22186 -3.81769 0
M  V30 17561 N 1589.13 5.33729 -2.28283 0
M  V30 17562 H 1591.89 1.28908 -2.7056 0
M  V30 17563 H 1589.46 0.562186 -1.51826 0
M  V30 17564 H 1591.45 3.64029 -1.7682 0
M  V30 17565 H 1590.02 2.98344 -0.933249 0
M  V30 17566 H 1589.24 2.17884 -3.28512 0
M  V30 17567 H 1590.53 3.18991 -3.96386 0
M  V30 17568 H 1589.92 5.40238 -1.67806 0
M  V30 17569 H 1588.48 6.09979 -2.29714 0
M  V30 17570 N 1591.91 1.44376 0.631925 0
M  V30 17571 C 1592.84 1.54005 1.75512 0
M  V30 17572 C 1593.82 0.393126 1.65495 0
M  V30 17573 O 1595.01 0.613143 1.84267 0
M  V30 17574 C 1592.14 1.48313 3.14039 0
M  V30 17575 C 1591.09 2.61474 3.38844 0
M  V30 17576 C 1590.42 2.40834 4.77392 0
M  V30 17577 C 1591.72 4.03627 3.31485 0
M  V30 17578 H 1593.41 2.48019 1.6771 0
M  V30 17579 H 1590.96 1.19368 0.80543 0
M  V30 17580 H 1592.91 1.5365 3.9239 0
M  V30 17581 H 1591.64 0.508152 3.22623 0
M  V30 17582 H 1590.3 2.55525 2.62874 0
M  V30 17583 H 1589.94 1.4153 4.82678 0
M  V30 17584 H 1589.64 3.16703 4.94947 0
M  V30 17585 H 1591.17 2.47988 5.57974 0
M  V30 17586 H 1592.58 4.1095 3.99741 0
M  V30 17587 H 1590.98 4.79694 3.60574 0
M  V30 17588 H 1592.05 4.27255 2.29307 0
M  V30 17589 N 1593.39 -0.872258 1.31261 0
M  V30 17590 C 1594.35 -1.96081 1.1868 0
M  V30 17591 C 1595.35 -1.60392 0.11452 0
M  V30 17592 O 1596.54 -1.70363 0.363613 0
M  V30 17593 C 1593.68 -3.30862 0.821183 0
M  V30 17594 H 1594.87 -2.08667 2.15402 0
M  V30 17595 H 1592.42 -1.06026 1.14839 0
M  V30 17596 H 1593.16 -3.23976 -0.14498 0
M  V30 17597 H 1592.94 -3.58137 1.59625 0
M  V30 17598 H 1594.43 -4.10682 0.756991 0
M  V30 17599 N 1594.87 -1.14184 -1.08627 0
M  V30 17600 C 1595.82 -0.826718 -2.15486 0
M  V30 17601 C 1596.79 0.214769 -1.64706 0
M  V30 17602 O 1597.97 0.0851909 -1.9061 0
M  V30 17603 C 1595.11 -0.307888 -3.43724 0
M  V30 17604 C 1594.22 -1.40941 -4.08362 0
M  V30 17605 C 1593.36 -0.848059 -5.24387 0
M  V30 17606 C 1592.4 -1.92741 -5.80962 0
M  V30 17607 N 1591.54 -1.3834 -6.88336 0
M  V30 17608 H 1596.38 -1.74198 -2.41783 0
M  V30 17609 H 1593.91 -0.869406 -1.18658 0
M  V30 17610 H 1595.87 0.0111149 -4.17199 0
M  V30 17611 H 1594.5 0.570488 -3.17719 0
M  V30 17612 H 1593.55 -1.84485 -3.3267 0
M  V30 17613 H 1594.86 -2.22485 -4.46433 0
M  V30 17614 H 1594.02 -0.480826 -6.04792 0
M  V30 17615 H 1592.76 -0.00163783 -4.877 0
M  V30 17616 H 1591.76 -2.30362 -4.99213 0
M  V30 17617 H 1592.99 -2.77738 -6.19708 0
M  V30 17618 H 1590.93 -0.559124 -6.53613 0
M  V30 17619 H 1590.85 -2.13524 -7.2522 0
M  V30 17620 H 1592.12 -1.044 -7.72477 0
M  V30 17621 N 1596.35 1.26749 -0.936613 0
M  V30 17622 C 1597.3 2.26542 -0.441307 0
M  V30 17623 C 1598.27 1.58503 0.496581 0
M  V30 17624 O 1599.45 1.86259 0.41379 0
M  V30 17625 C 1596.59 3.43866 0.291633 0
M  V30 17626 C 1595.7 4.26592 -0.681397 0
M  V30 17627 C 1594.84 5.31151 0.0722826 0
M  V30 17628 C 1593.88 6.05553 -0.892869 0
M  V30 17629 N 1593.01 7.01891 -0.17124 0
M  V30 17630 H 1597.85 2.68282 -1.29725 0
M  V30 17631 H 1595.39 1.31914 -0.650928 0
M  V30 17632 H 1597.35 4.10711 0.732984 0
M  V30 17633 H 1595.98 3.03051 1.11175 0
M  V30 17634 H 1595.03 3.59579 -1.24126 0
M  V30 17635 H 1596.34 4.78201 -1.41864 0
M  V30 17636 H 1595.5 6.03987 0.57313 0
M  V30 17637 H 1594.24 4.80369 0.842439 0
M  V30 17638 H 1593.24 5.31548 -1.40488 0
M  V30 17639 H 1594.47 6.58424 -1.66296 0
M  V30 17640 H 1592.41 6.53426 0.580507 0
M  V30 17641 H 1592.33 7.5123 -0.847897 0
M  V30 17642 H 1593.6 7.78889 0.308662 0
M  V30 17643 N 1597.83 0.703118 1.41046 0
M  V30 17644 C 1598.74 0.0432777 2.3456 0
M  V30 17645 C 1599.75 -0.757704 1.56636 0
M  V30 17646 O 1600.93 -0.693531 1.89082 0
M  V30 17647 C 1597.99 -0.876385 3.35441 0
M  V30 17648 C 1597.05 -0.06676 4.29248 0
M  V30 17649 C 1596.29 -0.942622 5.2531 0
M  V30 17650 O 1596.51 -2.18205 5.27013 0
M  V30 17651 O 1595.44 -0.388266 6.00646 0
M  V30 17652 H 1599.27 0.814302 2.9258 0
M  V30 17653 H 1596.86 0.463503 1.42028 0
M  V30 17654 H 1598.74 -1.40353 3.9734 0
M  V30 17655 H 1597.41 -1.62677 2.79853 0
M  V30 17656 H 1596.32 0.505165 3.70674 0
M  V30 17657 H 1597.65 0.645128 4.87954 0
M  V30 17658 N 1599.3 -1.51086 0.448402 0
M  V30 17659 C 1600.21 -2.3177 -0.363323 0
M  V30 17660 C 1601.23 -1.41159 -1.01736 0
M  V30 17661 O 1602.41 -1.74226 -1.01031 0
M  V30 17662 C 1599.47 -3.15211 -1.4437 0
M  V30 17663 C 1598.53 -4.21615 -0.808643 0
M  V30 17664 C 1597.77 -5.01069 -1.83754 0
M  V30 17665 O 1597.99 -4.81296 -3.06121 0
M  V30 17666 O 1596.92 -5.84863 -1.42193 0
M  V30 17667 H 1600.75 -3.02257 0.295653 0
M  V30 17668 H 1598.33 -1.47907 0.210703 0
M  V30 17669 H 1600.22 -3.67053 -2.07002 0
M  V30 17670 H 1598.89 -2.47476 -2.08656 0
M  V30 17671 H 1597.8 -3.73823 -0.143975 0
M  V30 17672 H 1599.13 -4.91756 -0.209098 0
M  V30 17673 N 1600.78 -0.180154 -1.56567 0
M  V30 17674 C 1601.69 0.758959 -2.21984 0
M  V30 17675 C 1602.71 1.24631 -1.21422 0
M  V30 17676 O 1603.88 1.29659 -1.54112 0
M  V30 17677 C 1600.95 1.96744 -2.85469 0
M  V30 17678 C 1600.01 1.52612 -4.01258 0
M  V30 17679 C 1599.24 2.677 -4.61706 0
M  V30 17680 O 1599.47 3.84799 -4.21054 0
M  V30 17681 O 1598.4 2.41269 -5.51428 0
M  V30 17682 H 1602.23 0.231919 -3.02813 0
M  V30 17683 H 1599.81 0.0484552 -1.49321 0
M  V30 17684 H 1601.69 2.67404 -3.25689 0
M  V30 17685 H 1600.37 2.48337 -2.0763 0
M  V30 17686 H 1599.28 0.78877 -3.6569 0
M  V30 17687 H 1600.61 1.05701 -4.80716 0
M  V30 17688 N 1602.26 1.57322 0.0935319 0
M  V30 17689 C 1603.19 2.05208 1.11409 0
M  V30 17690 C 1604.17 0.941295 1.41681 0
M  V30 17691 O 1605.36 1.21266 1.51684 0
M  V30 17692 C 1602.49 2.47782 2.43354 0
M  V30 17693 C 1601.44 3.62538 2.27486 0
M  V30 17694 C 1600.77 3.91095 3.64622 0
M  V30 17695 C 1602.07 4.93371 1.71412 0
M  V30 17696 H 1603.76 2.9072 0.715702 0
M  V30 17697 H 1601.31 1.3986 0.342827 0
M  V30 17698 H 1603.26 2.79891 3.15022 0
M  V30 17699 H 1601.98 1.59272 2.85132 0
M  V30 17700 H 1600.64 3.30679 1.58263 0
M  V30 17701 H 1600.29 2.99749 4.0393 0
M  V30 17702 H 1599.99 4.68353 3.5485 0
M  V30 17703 H 1601.51 4.25679 4.37755 0
M  V30 17704 H 1602.93 5.23851 2.32922 0
M  V30 17705 H 1601.33 5.74804 1.72395 0
M  V30 17706 H 1602.4 4.80197 0.67368 0
M  V30 17707 N 1603.74 -0.364395 1.53329 0
M  V30 17708 C 1604.67 -1.46658 1.76137 0
M  V30 17709 C 1605.68 -1.496 0.642166 0
M  V30 17710 O 1606.87 -1.53058 0.918452 0
M  V30 17711 C 1603.97 -2.85417 1.8273 0
M  V30 17712 C 1603.15 -3.06158 3.12388 0
M  V30 17713 C 1602.2 -4.25038 3.10208 0
M  V30 17714 O 1601.23 -4.20156 3.84002 0
M  V30 17715 N 1602.43 -5.32511 2.31111 0
M  V30 17716 H 1605.2 -1.27471 2.7124 0
M  V30 17717 H 1602.76 -0.554127 1.52122 0
M  V30 17718 H 1604.75 -3.63086 1.78748 0
M  V30 17719 H 1603.32 -2.97845 0.949058 0
M  V30 17720 H 1602.54 -2.16139 3.29663 0
M  V30 17721 H 1603.83 -3.16885 3.98072 0
M  V30 17722 H 1603.23 -5.39341 1.70669 0
M  V30 17723 H 1601.78 -6.08752 2.32946 0
M  V30 17724 N 1605.22 -1.44709 -0.62426 0
M  V30 17725 C 1606.18 -1.51738 -1.7178 0
M  V30 17726 C 1607.18 -0.398646 -1.5578 0
M  V30 17727 O 1608.37 -0.661525 -1.61151 0
M  V30 17728 C 1605.5 -1.39792 -3.1092 0
M  V30 17729 H 1606.69 -2.49154 -1.6692 0
M  V30 17730 H 1604.25 -1.31903 -0.838531 0
M  V30 17731 H 1604.98 -0.434955 -3.2137 0
M  V30 17732 H 1604.77 -2.20919 -3.2394 0
M  V30 17733 H 1606.26 -1.47706 -3.90606 0
M  V30 17734 N 1606.69 0.865285 -1.31722 0
M  V30 17735 C 1607.66 1.95449 -1.19718 0
M  V30 17736 C 1608.66 1.60329 -0.123025 0
M  V30 17737 O 1609.85 1.70168 -0.372643 0
M  V30 17738 C 1606.98 3.30421 -0.838718 0
M  V30 17739 H 1608.17 2.07522 -2.16506 0
M  V30 17740 H 1605.73 1.05416 -1.154 0
M  V30 17741 H 1606.46 3.24048 0.127797 0
M  V30 17742 H 1606.25 3.57286 -1.61522 0
M  V30 17743 H 1607.74 4.10274 -0.77876 0
M  V30 17744 N 1608.17 1.14759 1.0802 0
M  V30 17745 C 1609.1 0.860977 2.17047 0
M  V30 17746 C 1610.08 -0.185652 1.69084 0
M  V30 17747 O 1611.27 -0.0414797 1.94156 0
M  V30 17748 C 1608.4 0.342018 3.45612 0
M  V30 17749 C 1607.35 1.32455 4.06989 0
M  V30 17750 C 1606.68 0.664721 5.30552 0
M  V30 17751 C 1607.98 2.68819 4.4781 0
M  V30 17752 H 1609.67 1.77269 2.4128 0
M  V30 17753 H 1607.22 0.853757 1.15961 0
M  V30 17754 H 1609.17 0.129093 4.21202 0
M  V30 17755 H 1607.9 -0.605138 3.20945 0
M  V30 17756 H 1606.55 1.52371 3.33435 0
M  V30 17757 H 1606.2 -0.288367 5.02173 0
M  V30 17758 H 1605.9 1.32036 5.72573 0
M  V30 17759 H 1607.43 0.461412 6.08854 0
M  V30 17760 H 1608.84 2.52787 5.14559 0
M  V30 17761 H 1607.24 3.30694 5.00761 0
M  V30 17762 H 1608.31 3.25398 3.59506 0
M  V30 17763 N 1609.65 -1.26251 0.943322 0
M  V30 17764 C 1610.61 -2.24554 0.459158 0
M  V30 17765 C 1611.61 -1.54918 -0.430926 0
M  V30 17766 O 1612.8 -1.72678 -0.229803 0
M  V30 17767 C 1609.94 -3.39221 -0.337973 0
M  V30 17768 H 1611.13 -2.689 1.32789 0
M  V30 17769 H 1608.68 -1.38442 0.725495 0
M  V30 17770 H 1609.42 -3.00279 -1.22486 0
M  V30 17771 H 1609.2 -3.90947 0.300428 0
M  V30 17772 H 1610.69 -4.12246 -0.666568 0
M  V30 17773 N 1611.13 -0.710588 -1.40671 0
M  V30 17774 C 1612.55 -0.383638 -1.54921 0
M  V30 17775 C 1612.75 1.10805 -1.68299 0
M  V30 17776 O 1611.8 1.89406 -1.66978 0
M  V30 17777 C 1613.11 -1.14532 -2.78034 0
M  V30 17778 C 1614.66 -1.13113 -2.91847 0
M  V30 17779 C 1615.14 -1.87487 -4.17867 0
M  V30 17780 N 1616.63 -1.8453 -4.24856 0
M  V30 17781 C 1617.36 -2.38904 -5.2126 0
M  V30 17782 N 1616.86 -3.01813 -6.23603 0
M  V30 17783 N 1618.65 -2.29075 -5.13304 0
M  V30 17784 H 1610.8 -1.67789 -1.30233 0
M  V30 17785 H 1613.07 -0.70892 -0.629393 0
M  V30 17786 H 1612.77 -2.19983 -2.74409 0
M  V30 17787 H 1612.65 -0.733669 -3.69996 0
M  V30 17788 H 1615.03 -0.0848347 -2.94978 0
M  V30 17789 H 1615.11 -1.58196 -2.01017 0
M  V30 17790 H 1614.76 -2.92104 -4.15497 0
M  V30 17791 H 1614.69 -1.39827 -5.07697 0
M  V30 17792 H 1617.18 -1.38679 -3.51535 0
M  V30 17793 H 1617.49 -3.40832 -6.9358 0
M  V30 17794 H 1615.84 -3.05896 -6.24062 0
M  V30 17795 H 1619.03 -1.79589 -4.32279 0
M  V30 17796 H 1619.2 -2.71752 -5.88264 0
M  V30 17797 N 1612.61 1.50847 -0.456408 0
M  V30 17798 C 1613.85 2.02534 0.103772 0
M  V30 17799 C 1614.19 1.33874 1.40682 0
M  V30 17800 O 1613.46 0.459695 1.8899 0
M  V30 17801 C 1613.74 3.58825 0.302817 0
M  V30 17802 C 1613.6 4.38077 -1.02022 0
M  V30 17803 C 1614.92 4.27044 1.06404 0
M  V30 17804 H 1612.04 0.736108 0.0362398 0
M  V30 17805 H 1614.68 1.80306 -0.599134 0
M  V30 17806 H 1612.83 3.77895 0.901542 0
M  V30 17807 H 1614.5 4.30613 -1.6544 0
M  V30 17808 H 1612.74 4.02401 -1.62036 0
M  V30 17809 H 1613.41 5.45652 -0.834766 0
M  V30 17810 H 1615.89 4.12359 0.556698 0
M  V30 17811 H 1614.77 5.3624 1.17209 0
M  V30 17812 H 1615.03 3.89204 2.09697 0
M  V30 17813 N 1614.09 0.188454 1.56469 0
M  V30 17814 C 1615 -0.747176 2.22384 0
M  V30 17815 C 1616.01 -1.23985 1.22081 0
M  V30 17816 O 1617.19 -1.2884 1.54797 0
M  V30 17817 C 1614.25 -1.95228 2.86508 0
M  V30 17818 C 1613.31 -1.50482 4.02062 0
M  V30 17819 C 1612.55 -2.65248 4.63119 0
M  V30 17820 O 1612.77 -3.8256 4.23088 0
M  V30 17821 O 1611.7 -2.38341 5.527 0
M  V30 17822 H 1615.53 -0.215857 3.02932 0
M  V30 17823 H 1613.11 -0.0405356 1.49345 0
M  V30 17824 H 1615 -2.65673 3.27103 0
M  V30 17825 H 1613.67 -2.47233 2.08944 0
M  V30 17826 H 1612.58 -0.769365 3.66103 0
M  V30 17827 H 1613.91 -1.03151 4.8127 0
M  V30 17828 N 1615.56 -1.5737 -0.0851874 0
M  V30 17829 C 1616.47 -2.06097 -1.12078 0
M  V30 17830 C 1617.49 -0.987809 -1.43242 0
M  V30 17831 O 1618.67 -1.30163 -1.53686 0
M  V30 17832 C 1615.73 -2.48397 -2.41867 0
M  V30 17833 C 1614.79 -3.69951 -2.17795 0
M  V30 17834 C 1614.02 -4.10225 -3.41396 0
M  V30 17835 O 1614.25 -3.50495 -4.5001 0
M  V30 17836 O 1613.18 -5.03111 -3.30399 0
M  V30 17837 H 1617.01 -2.94625 -0.736877 0
M  V30 17838 H 1614.59 -1.4639 -0.298392 0
M  V30 17839 H 1616.47 -2.76187 -3.18274 0
M  V30 17840 H 1615.15 -1.63003 -2.79664 0
M  V30 17841 H 1614.06 -3.47263 -1.39136 0
M  V30 17842 H 1615.39 -4.56156 -1.84886 0
M  V30 17843 N 1617.04 0.356258 -1.53521 0
M  V30 17844 C 1617.95 1.46055 -1.83589 0
M  V30 17845 C 1618.97 1.58176 -0.724997 0
M  V30 17846 O 1620.14 1.73894 -1.01601 0
M  V30 17847 C 1617.21 2.81207 -2.0279 0
M  V30 17848 C 1616.27 2.78535 -3.26675 0
M  V30 17849 C 1615.5 4.07241 -3.4495 0
M  V30 17850 O 1615.73 5.03879 -2.67324 0
M  V30 17851 O 1614.66 4.12485 -4.38337 0
M  V30 17852 H 1618.49 1.23566 -2.77426 0
M  V30 17853 H 1616.07 0.547243 -1.39017 0
M  V30 17854 H 1617.95 3.61271 -2.16936 0
M  V30 17855 H 1616.63 3.03654 -1.12143 0
M  V30 17856 H 1615.53 1.97137 -3.17943 0
M  V30 17857 H 1616.87 2.61042 -4.17274 0
M  V30 17858 N 1618.52 1.45038 0.616577 0
M  V30 17859 C 1619.48 1.52647 1.70973 0
M  V30 17860 C 1620.48 0.406902 1.55567 0
M  V30 17861 O 1621.67 0.670062 1.60797 0
M  V30 17862 C 1618.8 1.41438 3.10174 0
M  V30 17863 H 1620 2.50036 1.65596 0
M  V30 17864 H 1617.55 1.32346 0.831524 0
M  V30 17865 H 1618.29 0.451991 3.21135 0
M  V30 17866 H 1618.07 2.22634 3.22764 0
M  V30 17867 H 1619.56 1.49776 3.89817 0
M  V30 17868 N 1620 -0.858287 1.32179 0
M  V30 17869 C 1620.96 -1.94811 1.20753 0
M  V30 17870 C 1621.96 -1.60261 0.131526 0
M  V30 17871 O 1623.15 -1.69968 0.381662 0
M  V30 17872 C 1620.28 -3.29972 0.856229 0
M  V30 17873 H 1621.48 -2.06371 2.17603 0
M  V30 17874 H 1619.03 -1.04802 1.15958 0
M  V30 17875 H 1619.76 -3.24111 -0.11061 0
M  V30 17876 H 1619.55 -3.56424 1.63414 0
M  V30 17877 H 1621.04 -4.09856 0.800507 0
M  V30 17878 N 1621.48 -1.1533 -1.07409 0
M  V30 17879 C 1622.41 -0.807289 -2.14512 0
M  V30 17880 C 1623.42 0.18043 -1.61797 0
M  V30 17881 O 1624.61 -0.042733 -1.78449 0
M  V30 17882 C 1621.71 -0.179338 -3.38425 0
M  V30 17883 C 1620.88 -1.20433 -4.20493 0
M  V30 17884 C 1619.94 -0.598268 -5.22788 0
M  V30 17885 O 1618.97 -1.26405 -5.54987 0
M  V30 17886 N 1620.17 0.620283 -5.77177 0
M  V30 17887 H 1622.93 -1.729 -2.44797 0
M  V30 17888 H 1620.5 -1.0491 -1.23311 0
M  V30 17889 H 1622.49 0.238867 -4.03994 0
M  V30 17890 H 1621.06 0.645706 -3.05858 0
M  V30 17891 H 1620.28 -1.79912 -3.5075 0
M  V30 17892 H 1621.57 -1.89642 -4.72137 0
M  V30 17893 H 1620.96 1.17958 -5.53265 0
M  V30 17894 H 1619.52 0.980853 -6.44378 0
M  V30 17895 N 1622.95 1.25748 -0.950004 0
M  V30 17896 C 1623.9 2.26061 -0.46531 0
M  V30 17897 C 1624.87 1.59021 0.479742 0
M  V30 17898 O 1626.06 1.86687 0.394011 0
M  V30 17899 C 1623.2 3.44156 0.255146 0
M  V30 17900 C 1622.31 4.25846 -0.726604 0
M  V30 17901 C 1621.44 5.31198 0.0159429 0
M  V30 17902 C 1620.48 6.04572 -0.957046 0
M  V30 17903 N 1619.62 7.0167 -0.245676 0
M  V30 17904 H 1624.46 2.66891 -1.32563 0
M  V30 17905 H 1622 1.31216 -0.664882 0
M  V30 17906 H 1623.95 4.11465 0.689381 0
M  V30 17907 H 1622.58 3.04213 1.07954 0
M  V30 17908 H 1621.64 3.58242 -1.27933 0
M  V30 17909 H 1622.95 4.76669 -1.46928 0
M  V30 17910 H 1622.1 6.04561 0.509037 0
M  V30 17911 H 1620.84 4.81235 0.791442 0
M  V30 17912 H 1619.85 5.30028 -1.46118 0
M  V30 17913 H 1621.07 6.56624 -1.7327 0
M  V30 17914 H 1619.02 6.54005 0.51117 0
M  V30 17915 H 1618.93 7.50289 -0.927527 0
M  V30 17916 H 1620.2 7.79172 0.226034 0
M  V30 17917 N 1624.43 0.718038 1.40292 0
M  V30 17918 C 1625.38 0.0559466 2.32533 0
M  V30 17919 C 1626.37 -0.744365 1.5217 0
M  V30 17920 O 1627.58 -0.647458 1.67952 0
M  V30 17921 H 1623.95 -0.000710627 0.752 0
M  V30 17922 H 1625.93 0.850579 2.8602 0
M  V30 17923 C 1624.67 -0.849927 3.37152 0
M  V30 17924 H 1624 -0.243507 3.99058 0
M  V30 17925 H 1625.44 -1.28111 4.04183 0
M  V30 17926 C 1623.9 -1.9765 2.7283 0
M  V30 17927 O 1624.43 -3.06757 2.59351 0
M  V30 17928 N 1622.63 -1.76086 2.31176 0
M  V30 17929 H 1622.18 -0.873485 2.42339 0
M  V30 17930 H 1622.14 -2.51643 1.88477 0
M  V30 17931 N 1625.91 -1.50602 0.464402 0
M  V30 17932 C 1626.84 -2.25029 -0.379075 0
M  V30 17933 C 1627.82 -1.28064 -1.00192 0
M  V30 17934 O 1629.01 -1.5727 -1.03915 0
M  V30 17935 C 1626.13 -3.02144 -1.53057 0
M  V30 17936 C 1625.18 -4.13981 -1.02576 0
M  V30 17937 S 1626.01 -5.35473 0.0541453 0
M  V30 17938 C 1627.17 -6.16133 -1.10138 0
M  V30 17939 H 1627.4 -2.96224 0.252731 0
M  V30 17940 H 1624.93 -1.52376 0.249205 0
M  V30 17941 H 1626.89 -3.47167 -2.19056 0
M  V30 17942 H 1625.55 -2.30489 -2.13387 0
M  V30 17943 H 1624.75 -4.67316 -1.88763 0
M  V30 17944 H 1624.35 -3.7136 -0.443597 0
M  V30 17945 H 1626.64 -6.46861 -2.01437 0
M  V30 17946 H 1627.58 -7.0549 -0.60743 0
M  V30 17947 H 1627.99 -5.48066 -1.35218 0
M  V30 17948 N 1627.39 -0.19675 -1.56367 0
M  V30 17949 C 1628.35 0.709734 -2.17934 0
M  V30 17950 C 1629.35 1.13979 -1.13426 0
M  V30 17951 O 1630.54 1.05261 -1.38801 0
M  V30 17952 C 1627.67 1.96917 -2.78274 0
M  V30 17953 H 1628.87 0.173342 -2.99399 0
M  V30 17954 H 1626.42 0.0528698 -1.56211 0
M  V30 17955 H 1627.15 2.54804 -2.00613 0
M  V30 17956 H 1626.94 1.66951 -3.54781 0
M  V30 17957 H 1628.43 2.61554 -3.25545 0
M  V30 17958 N 1628.87 1.57413 0.0768405 0
M  V30 17959 C 1629.8 2.06378 1.09226 0
M  V30 17960 C 1630.78 0.956269 1.40675 0
M  V30 17961 O 1631.96 1.22868 1.5039 0
M  V30 17962 C 1629.09 2.50349 2.40712 0
M  V30 17963 C 1628.05 3.64931 2.23628 0
M  V30 17964 C 1627.37 3.9494 3.60453 0
M  V30 17965 C 1628.67 4.95162 1.66169 0
M  V30 17966 H 1630.37 2.91463 0.684827 0
M  V30 17967 H 1627.91 1.40215 0.327974 0
M  V30 17968 H 1629.87 2.83216 3.12036 0
M  V30 17969 H 1628.59 1.62287 2.83426 0
M  V30 17970 H 1627.25 3.32339 1.54747 0
M  V30 17971 H 1626.9 3.04016 4.00728 0
M  V30 17972 H 1626.6 4.72091 3.49863 0
M  V30 17973 H 1628.12 4.30299 4.33215 0
M  V30 17974 H 1629.53 5.26292 2.27353 0
M  V30 17975 H 1627.93 5.76601 1.66289 0
M  V30 17976 H 1629 4.80885 0.62271 0
M  V30 17977 N 1630.34 -0.348112 1.53707 0
M  V30 17978 C 1631.29 -1.42729 1.81375 0
M  V30 17979 C 1632.26 -1.52461 0.659159 0
M  V30 17980 O 1633.45 -1.68072 0.903129 0
M  V30 17981 C 1630.59 -2.79443 2.02498 0
M  V30 17982 C 1629.7 -2.7854 3.30211 0
M  V30 17983 C 1628.83 -4.06942 3.41426 0
M  V30 17984 C 1627.87 -4.00248 4.63106 0
M  V30 17985 N 1627.01 -5.20332 4.7138 0
M  V30 17986 H 1631.85 -1.18436 2.73454 0
M  V30 17987 H 1629.39 -0.573809 1.35447 0
M  V30 17988 H 1631.35 -3.58888 2.12733 0
M  V30 17989 H 1629.98 -3.02099 1.13737 0
M  V30 17990 H 1629.03 -1.91227 3.28841 0
M  V30 17991 H 1630.34 -2.69471 4.19746 0
M  V30 17992 H 1629.49 -4.94808 3.51069 0
M  V30 17993 H 1628.23 -4.18786 2.49939 0
M  V30 17994 H 1627.24 -3.10767 4.53546 0
M  V30 17995 H 1628.46 -3.89991 5.55953 0
M  V30 17996 H 1626.41 -5.32729 3.828 0
M  V30 17997 H 1626.33 -5.13502 5.54844 0
M  V30 17998 H 1627.59 -6.09982 4.85326 0
M  V30 17999 N 1631.82 -1.45363 -0.608876 0
M  V30 18000 C 1632.77 -1.53936 -1.71966 0
M  V30 18001 C 1633.74 -0.385352 -1.61568 0
M  V30 18002 O 1634.92 -0.598622 -1.81166 0
M  V30 18003 C 1632.06 -1.51079 -3.10272 0
M  V30 18004 C 1631.18 -2.77022 -3.31486 0
M  V30 18005 C 1630.31 -2.65846 -4.59891 0
M  V30 18006 C 1629.35 -3.86848 -4.74357 0
M  V30 18007 N 1628.49 -3.74214 -5.94061 0
M  V30 18008 H 1633.33 -2.4883 -1.63974 0
M  V30 18009 H 1630.87 -1.23472 -0.799565 0
M  V30 18010 H 1632.82 -1.47411 -3.90289 0
M  V30 18011 H 1631.45 -0.597374 -3.17224 0
M  V30 18012 H 1630.51 -2.90783 -2.45253 0
M  V30 18013 H 1631.82 -3.66776 -3.38049 0
M  V30 18014 H 1630.97 -2.60136 -5.48101 0
M  V30 18015 H 1629.71 -1.73689 -4.55723 0
M  V30 18016 H 1628.72 -3.92918 -3.84572 0
M  V30 18017 H 1629.94 -4.80069 -4.80324 0
M  V30 18018 H 1627.89 -2.84825 -5.9094 0
M  V30 18019 H 1627.8 -4.57601 -6.01779 0
M  V30 18020 H 1629.07 -3.72434 -6.84772 0
M  V30 18021 N 1633.3 0.851265 -1.32632 0
M  V30 18022 C 1634.55 1.60057 -1.22738 0
M  V30 18023 C 1634.86 1.94485 0.208525 0
M  V30 18024 O 1636.07 2.68083 0.429361 0
M  V30 18025 C 1634.52 2.88634 -2.14985 0
M  V30 18026 C 1634.13 2.61617 -3.63676 0
M  V30 18027 C 1635.88 3.6665 -2.13935 0
M  V30 18028 C 1633.78 3.86215 -4.47875 0
M  V30 18029 H 1632.71 0.600617 -0.455824 0
M  V30 18030 H 1635.36 0.939671 -1.57615 0
M  V30 18031 H 1633.75 3.56199 -1.73027 0
M  V30 18032 H 1634.92 2.02342 -4.13998 0
M  V30 18033 H 1633.24 1.96926 -3.66891 0
M  V30 18034 H 1635.83 4.59114 -2.74078 0
M  V30 18035 H 1636.18 4.00636 -1.13121 0
M  V30 18036 H 1636.71 3.05993 -2.54192 0
M  V30 18037 H 1633.45 3.57367 -5.49517 0
M  V30 18038 H 1632.97 4.44874 -4.02302 0
M  V30 18039 H 1634.65 4.5392 -4.61049 0
M  V30 18040 N 1634.78 1.15898 1.06796 0
M  V30 18041 C 1636.19 0.902809 1.31611 0
M  V30 18042 C 1636.39 -0.447112 1.96477 0
M  V30 18043 O 1635.45 -1.18778 2.22818 0
M  V30 18044 C 1636.76 2.04803 2.20173 0
M  V30 18045 C 1638.31 2.08321 2.33605 0
M  V30 18046 C 1638.79 3.22182 3.25519 0
M  V30 18047 N 1640.28 3.21866 3.33101 0
M  V30 18048 C 1641.01 4.06608 4.04299 0
M  V30 18049 N 1640.51 5.01426 4.78063 0
M  V30 18050 N 1642.3 3.94612 4.00297 0
M  V30 18051 H 1634.45 2.02816 0.630831 0
M  V30 18052 H 1636.72 0.884683 0.340646 0
M  V30 18053 H 1636.42 3.02278 1.7978 0
M  V30 18054 H 1636.3 1.98521 3.20732 0
M  V30 18055 H 1638.68 1.11441 2.73249 0
M  V30 18056 H 1638.76 2.18668 1.32732 0
M  V30 18057 H 1638.41 4.19317 2.86594 0
M  V30 18058 H 1638.34 3.0907 4.2636 0
M  V30 18059 H 1640.83 2.53203 2.80529 0
M  V30 18060 H 1641.14 5.62517 5.29901 0
M  V30 18061 H 1639.49 5.0541 4.7706 0
M  V30 18062 H 1642.68 3.19843 3.41786 0
M  V30 18063 H 1642.85 4.60877 4.55518 0
M  V30 18064 N 1636.26 -1.25243 0.956659 0
M  V30 18065 C 1637.17 -2.29529 0.48515 0
M  V30 18066 C 1638.18 -1.68121 -0.448494 0
M  V30 18067 O 1639.36 -1.98773 -0.324243 0
M  V30 18068 C 1636.42 -3.45952 -0.227611 0
M  V30 18069 C 1635.48 -4.22795 0.744495 0
M  V30 18070 C 1634.72 -5.3366 0.0656539 0
M  V30 18071 O 1634.94 -5.58722 -1.14829 0
M  V30 18072 O 1633.87 -5.97181 0.75222 0
M  V30 18073 H 1637.7 -2.71955 1.35181 0
M  V30 18074 H 1635.29 -1.30729 0.723203 0
M  V30 18075 H 1637.17 -4.16687 -0.628474 0
M  V30 18076 H 1635.84 -3.05524 -1.06942 0
M  V30 18077 H 1634.75 -3.5448 1.1956 0
M  V30 18078 H 1636.08 -4.67012 1.55438 0
M  V30 18079 N 1637.73 -0.725468 -1.3991 0
M  V30 18080 C 1638.66 -0.094211 -2.3331 0
M  V30 18081 C 1639.65 0.734728 -1.53414 0
M  V30 18082 O 1640.83 0.681647 -1.81844 0
M  V30 18083 C 1637.96 0.820958 -3.37457 0
M  V30 18084 C 1636.91 0.0968983 -4.2789 0
M  V30 18085 C 1636.24 1.12845 -5.22657 0
M  V30 18086 C 1637.54 -1.05483 -5.11537 0
M  V30 18087 H 1639.23 -0.874365 -2.86348 0
M  V30 18088 H 1636.78 -0.421913 -1.3768 0
M  V30 18089 H 1638.73 1.27203 -4.01743 0
M  V30 18090 H 1637.46 1.63312 -2.82837 0
M  V30 18091 H 1636.12 -0.334454 -3.65071 0
M  V30 18092 H 1635.76 1.93392 -4.64337 0
M  V30 18093 H 1635.46 0.648805 -5.84007 0
M  V30 18094 H 1636.99 1.57942 -5.89819 0
M  V30 18095 H 1638.4 -0.682657 -5.69221 0
M  V30 18096 H 1636.8 -1.46349 -5.81981 0
M  V30 18097 H 1637.87 -1.88095 -4.46932 0
M  V30 18098 N 1639.21 1.50354 -0.472382 0
M  V30 18099 C 1640.12 2.32318 0.326405 0
M  V30 18100 C 1641.14 1.4276 0.994771 0
M  V30 18101 O 1642.31 1.75811 0.98246 0
M  V30 18102 C 1639.38 3.17468 1.39337 0
M  V30 18103 C 1638.44 4.22848 0.741465 0
M  V30 18104 C 1637.67 5.03929 1.75759 0
M  V30 18105 O 1637.9 4.86105 2.98425 0
M  V30 18106 O 1636.83 5.87051 1.32871 0
M  V30 18107 H 1640.66 3.01749 -0.343702 0
M  V30 18108 H 1638.24 1.47553 -0.234207 0
M  V30 18109 H 1640.12 3.703 2.01136 0
M  V30 18110 H 1638.8 2.50764 2.04692 0
M  V30 18111 H 1637.71 3.74005 0.0844848 0
M  V30 18112 H 1639.04 4.92026 0.130838 0
M  V30 18113 N 1640.69 0.205039 1.56261 0
M  V30 18114 C 1641.92 -0.439502 2.0269 0
M  V30 18115 C 1642.34 -1.53715 1.08413 0
M  V30 18116 O 1641.7 -1.81167 0.0693616 0
M  V30 18117 C 1641.75 -0.963672 3.47485 0
M  V30 18118 O 1640.85 -2.07602 3.56336 0
M  V30 18119 H 1640.19 -0.101543 0.65619 0
M  V30 18120 H 1642.72 0.318835 2.021 0
M  V30 18121 H 1642.73 -1.27773 3.87476 0
M  V30 18122 H 1641.41 -0.160203 4.15591 0
M  V30 18123 H 1639.98 -1.76985 3.28224 0
M  V30 18124 N 1642.17 -1.57451 -0.0684915 0
M  V30 18125 C 1643.1 -2.00648 -1.10783 0
M  V30 18126 C 1644.11 -0.912944 -1.34793 0
M  V30 18127 O 1645.3 -1.19079 -1.32975 0
M  V30 18128 C 1642.4 -2.33309 -2.45805 0
M  V30 18129 C 1641.58 -3.64551 -2.41704 0
M  V30 18130 C 1640.64 -3.84845 -3.5886 0
M  V30 18131 O 1639.66 -4.56392 -3.40139 0
M  V30 18132 N 1640.86 -3.27451 -4.79329 0
M  V30 18133 H 1643.63 -2.90422 -0.739938 0
M  V30 18134 H 1641.19 -1.59846 -0.257093 0
M  V30 18135 H 1643.18 -2.44056 -3.22829 0
M  V30 18136 H 1641.75 -1.49408 -2.74583 0
M  V30 18137 H 1640.97 -3.64528 -1.50043 0
M  V30 18138 H 1642.26 -4.50721 -2.36068 0
M  V30 18139 H 1641.66 -2.69384 -4.97442 0
M  V30 18140 H 1640.21 -3.43641 -5.53854 0
M  V30 18141 N 1643.65 0.339955 -1.5389 0
M  V30 18142 C 1644.9 1.07723 -1.70524 0
M  V30 18143 C 1645.21 1.89693 -0.477058 0
M  V30 18144 O 1646.42 2.66387 -0.524424 0
M  V30 18145 C 1644.87 1.96455 -3.01551 0
M  V30 18146 C 1644.48 1.19675 -4.3172 0
M  V30 18147 C 1646.22 2.70019 -3.27552 0
M  V30 18148 C 1644.13 2.07458 -5.53819 0
M  V30 18149 H 1643.06 0.405877 -0.635437 0
M  V30 18150 H 1645.71 0.336489 -1.80388 0
M  V30 18151 H 1644.09 2.74364 -2.85553 0
M  V30 18152 H 1645.27 0.466526 -4.58432 0
M  V30 18153 H 1643.58 0.578651 -4.1236 0
M  V30 18154 H 1646.18 3.35973 -4.15964 0
M  V30 18155 H 1646.52 3.36779 -2.44716 0
M  V30 18156 H 1647.06 1.99182 -3.44342 0
M  V30 18157 H 1643.79 1.45234 -6.39208 0
M  V30 18158 H 1643.31 2.7826 -5.31349 0
M  V30 18159 H 1644.99 2.66428 -5.89598 0
M  V30 18160 N 1645.13 1.45684 0.601159 0
M  V30 18161 C 1646.35 1.53806 1.39135 0
M  V30 18162 C 1646.78 0.173625 1.87297 0
M  V30 18163 O 1646.13 -0.842931 1.60513 0
M  V30 18164 C 1646.18 2.53201 2.56752 0
M  V30 18165 O 1645.29 2.05427 3.57594 0
M  V30 18166 H 1644.63 0.51824 0.415118 0
M  V30 18167 H 1647.16 1.91095 0.731006 0
M  V30 18168 H 1647.17 2.72215 3.03912 0
M  V30 18169 H 1645.84 3.52294 2.21047 0
M  V30 18170 H 1644.42 1.96318 3.17039 0
M  V30 18171 N 1646.6 -0.84422 1.33082 0
M  V30 18172 C 1647.51 -1.9858 1.24913 0
M  V30 18173 C 1648.53 -1.73256 0.160708 0
M  V30 18174 O 1649.71 -1.97719 0.383313 0
M  V30 18175 C 1646.77 -3.32471 0.983063 0
M  V30 18176 C 1645.83 -3.70946 2.16096 0
M  V30 18177 C 1645.06 -4.98448 1.90749 0
M  V30 18178 O 1645.29 -5.63953 0.855173 0
M  V30 18179 O 1644.22 -5.34301 2.7714 0
M  V30 18180 H 1648.05 -2.0841 2.20905 0
M  V30 18181 H 1645.63 -0.976447 1.13075 0
M  V30 18182 H 1647.51 -4.12705 0.851612 0
M  V30 18183 H 1646.19 -3.23656 0.053384 0
M  V30 18184 H 1645.1 -2.91244 2.34793 0
M  V30 18185 H 1646.43 -3.8442 3.07379 0
M  V30 18186 N 1648.08 -1.16463 -1.0618 0
M  V30 18187 C 1649.01 -0.895399 -2.1565 0
M  V30 18188 C 1649.99 0.158729 -1.69358 0
M  V30 18189 O 1651.18 0.010586 -1.94197 0
M  V30 18190 C 1648.31 -0.396959 -3.45024 0
M  V30 18191 C 1647.26 -1.38913 -4.0483 0
M  V30 18192 C 1646.59 -0.749043 -5.29427 0
M  V30 18193 C 1647.89 -2.7591 -4.43476 0
M  V30 18194 H 1649.58 -1.81085 -2.38429 0
M  V30 18195 H 1647.13 -0.872098 -1.14588 0
M  V30 18196 H 1649.08 -0.196086 -4.20944 0
M  V30 18197 H 1647.8 0.554002 -3.21867 0
M  V30 18198 H 1646.46 -1.57657 -3.30968 0
M  V30 18199 H 1646.11 0.208439 -5.02568 0
M  V30 18200 H 1645.81 -1.41128 -5.704 0
M  V30 18201 H 1647.34 -0.558217 -6.08043 0
M  V30 18202 H 1648.75 -2.60942 -5.10473 0
M  V30 18203 H 1647.15 -3.38618 -4.95437 0
M  V30 18204 H 1648.22 -3.31076 -3.54284 0
M  V30 18205 N 1649.56 1.24734 -0.963288 0
M  V30 18206 C 1650.49 2.24785 -0.447722 0
M  V30 18207 C 1651.5 1.5671 0.44113 0
M  V30 18208 O 1652.69 1.76769 0.248015 0
M  V30 18209 C 1649.79 3.36837 0.373368 0
M  V30 18210 C 1648.97 4.3448 -0.504532 0
M  V30 18211 C 1648.03 5.25558 0.25981 0
M  V30 18212 O 1647.05 5.68155 -0.344754 0
M  V30 18213 N 1648.25 5.59408 1.55058 0
M  V30 18214 H 1651.02 2.69654 -1.30792 0
M  V30 18215 H 1648.58 1.38729 -0.834614 0
M  V30 18216 H 1650.57 3.94733 0.892631 0
M  V30 18217 H 1649.14 2.91288 1.13447 0
M  V30 18218 H 1648.36 3.75337 -1.20481 0
M  V30 18219 H 1649.65 4.96691 -1.10343 0
M  V30 18220 H 1649.05 5.2672 2.06355 0
M  V30 18221 H 1647.6 6.19851 2.01563 0
M  V30 18222 N 1651.04 0.732878 1.39523 0
M  V30 18223 C 1651.95 0.0930216 2.34416 0
M  V30 18224 C 1652.96 -0.724309 1.58208 0
M  V30 18225 O 1654.14 -0.653267 1.90511 0
M  V30 18226 C 1651.2 -0.805036 3.37224 0
M  V30 18227 C 1650.27 0.0243049 4.29293 0
M  V30 18228 C 1649.5 -0.830984 5.27191 0
M  V30 18229 O 1649.72 -2.06977 5.31523 0
M  V30 18230 O 1648.66 -0.260772 6.01335 0
M  V30 18231 H 1652.48 0.876179 2.90786 0
M  V30 18232 H 1650.07 0.493525 1.41013 0
M  V30 18233 H 1651.95 -1.31894 4.00228 0
M  V30 18234 H 1650.62 -1.56704 2.83241 0
M  V30 18235 H 1649.53 0.583677 3.69519 0
M  V30 18236 H 1650.86 0.748485 4.86476 0
M  V30 18237 N 1652.52 -1.50101 0.480349 0
M  V30 18238 C 1653.79 -1.95144 -0.133456 0
M  V30 18239 C 1654.17 -1.4211 -1.56102 0
M  V30 18240 O 1653.52 -0.626012 -2.19757 0
M  V30 18241 C 1653.73 -3.48935 -0.0672904 0
M  V30 18242 C 1655.08 -4.23854 -0.251564 0
M  V30 18243 O 1656.1 -3.55911 -0.143446 0
M  V30 18244 O 1654.96 -5.44467 -0.470947 0
M  V30 18245 H 1652.06 -0.820098 -0.106619 0
M  V30 18246 H 1654.6 -1.60832 0.541413 0
M  V30 18247 H 1653.37 -3.80111 0.929058 0
M  V30 18248 H 1653 -3.8981 -0.783214 0
M  V30 18249 N 1653.99 -0.213323 -1.5615 0
M  V30 18250 C 1654.92 0.695003 -2.22917 0
M  V30 18251 C 1655.9 1.20738 -1.19818 0
M  V30 18252 O 1657.09 1.25289 -1.48379 0
M  V30 18253 C 1654.22 1.90685 -2.9027 0
M  V30 18254 C 1653.17 1.52865 -3.9977 0
M  V30 18255 C 1652.5 2.81859 -4.54378 0
M  V30 18256 C 1653.8 0.724829 -5.17246 0
M  V30 18257 H 1655.49 0.138351 -2.9908 0
M  V30 18258 H 1653.04 0.0651029 -1.43853 0
M  V30 18259 H 1654.99 2.54766 -3.35667 0
M  V30 18260 H 1653.72 2.48833 -2.11541 0
M  V30 18261 H 1652.38 0.911336 -3.55092 0
M  V30 18262 H 1652.02 3.38135 -3.72389 0
M  V30 18263 H 1651.72 2.57291 -5.28275 0
M  V30 18264 H 1653.25 3.46897 -5.02489 0
M  V30 18265 H 1654.66 1.26915 -5.59076 0
M  V30 18266 H 1653.06 0.57656 -5.97324 0
M  V30 18267 H 1654.13 -0.270309 -4.84146 0
M  V30 18268 N 1655.47 1.57485 0.0601405 0
M  V30 18269 C 1656.38 2.07853 1.08785 0
M  V30 18270 C 1657.4 1.01047 1.41653 0
M  V30 18271 O 1658.57 1.32592 1.51596 0
M  V30 18272 C 1655.64 2.52214 2.37885 0
M  V30 18273 C 1654.7 3.73369 2.11882 0
M  V30 18274 C 1653.93 4.15604 3.34827 0
M  V30 18275 O 1654.16 3.5761 4.44377 0
M  V30 18276 O 1653.09 5.08303 3.22353 0
M  V30 18277 H 1656.92 2.9576 0.689912 0
M  V30 18278 H 1654.5 1.46846 0.275065 0
M  V30 18279 H 1656.38 2.81216 3.1384 0
M  V30 18280 H 1655.06 1.67432 2.77035 0
M  V30 18281 H 1653.97 3.49433 1.33594 0
M  V30 18282 H 1655.3 4.59039 1.77606 0
M  V30 18283 N 1656.95 -0.331789 1.54068 0
M  V30 18284 C 1658.18 -1.09484 1.76148 0
M  V30 18285 C 1658.6 -1.81201 0.504772 0
M  V30 18286 O 1657.96 -1.7297 -0.54325 0
M  V30 18287 C 1658.01 -2.07495 2.94921 0
M  V30 18288 O 1657.11 -3.15239 2.65891 0
M  V30 18289 H 1656.45 -0.316071 0.583948 0
M  V30 18290 H 1658.98 -0.378593 2.01067 0
M  V30 18291 H 1658.99 -2.5051 3.22038 0
M  V30 18292 H 1657.67 -1.54696 3.8606 0
M  V30 18293 H 1656.24 -2.76958 2.49697 0
M  V30 18294 N 1658.43 -1.46001 -0.593424 0
M  V30 18295 C 1659.34 -1.58316 -1.73128 0
M  V30 18296 C 1660.35 -0.467029 -1.67615 0
M  V30 18297 O 1661.53 -0.729682 -1.87717 0
M  V30 18298 C 1658.6 -1.56007 -3.09617 0
M  V30 18299 C 1657.66 -2.78769 -3.26475 0
M  V30 18300 C 1656.89 -2.76561 -4.56453 0
M  V30 18301 O 1657.11 -1.84694 -5.39671 0
M  V30 18302 O 1656.05 -3.67959 -4.76329 0
M  V30 18303 H 1659.87 -2.54522 -1.65686 0
M  V30 18304 H 1657.46 -1.28672 -0.759204 0
M  V30 18305 H 1659.34 -1.57377 -3.9091 0
M  V30 18306 H 1658.01 -0.629571 -3.17519 0
M  V30 18307 H 1656.92 -2.82956 -2.44717 0
M  V30 18308 H 1658.25 -3.70992 -3.23459 0
M  V30 18309 N 1659.91 0.83715 -1.33527 0
M  V30 18310 C 1661.32 1.12809 -1.12899 0
M  V30 18311 C 1661.52 2.01345 0.0789761 0
M  V30 18312 O 1660.58 2.40831 0.758732 0
M  V30 18313 C 1661.89 1.78852 -2.41728 0
M  V30 18314 C 1663.44 1.91411 -2.47651 0
M  V30 18315 C 1663.91 2.6087 -3.76445 0
M  V30 18316 N 1665.41 2.68381 -3.77526 0
M  V30 18317 C 1666.14 3.22819 -4.73894 0
M  V30 18318 N 1665.64 3.77931 -5.80638 0
M  V30 18319 N 1667.43 3.21087 -4.61367 0
M  V30 18320 H 1659.58 0.247942 -2.10948 0
M  V30 18321 H 1661.84 0.172518 -0.93217 0
M  V30 18322 H 1661.55 1.21258 -3.30135 0
M  V30 18323 H 1661.42 2.78856 -2.54006 0
M  V30 18324 H 1663.81 2.48159 -1.59691 0
M  V30 18325 H 1663.89 0.903512 -2.39312 0
M  V30 18326 H 1663.54 2.0478 -4.64787 0
M  V30 18327 H 1663.47 3.62404 -3.82061 0
M  V30 18328 H 1665.96 2.29301 -3.00382 0
M  V30 18329 H 1666.27 4.17678 -6.50204 0
M  V30 18330 H 1664.61 3.76214 -5.8437 0
M  V30 18331 H 1667.81 2.7729 -3.77131 0
M  V30 18332 H 1667.98 3.6321 -5.3664 0
M  V30 18333 N 1661.38 1.17024 1.05561 0
M  V30 18334 C 1662.35 0.885897 2.11387 0
M  V30 18335 C 1663.35 -0.122327 1.60334 0
M  V30 18336 O 1664.54 0.109416 1.73856 0
M  V30 18337 C 1661.67 0.32626 3.39335 0
M  V30 18338 H 1662.86 1.82414 2.38045 0
M  V30 18339 H 1660.42 0.980191 1.21745 0
M  V30 18340 H 1661.15 -0.619308 3.18332 0
M  V30 18341 H 1660.94 1.05285 3.777 0
M  V30 18342 H 1662.43 0.145513 4.17346 0
M  V30 18343 N 1662.86 -1.24221 0.969889 0
M  V30 18344 C 1664.09 -1.96943 0.650262 0
M  V30 18345 C 1664.51 -1.71437 -0.774018 0
M  V30 18346 O 1663.87 -0.979428 -1.52568 0
M  V30 18347 C 1663.92 -3.48303 0.933682 0
M  V30 18348 O 1663.02 -4.12395 0.0202425 0
M  V30 18349 H 1662.36 -0.616902 0.245618 0
M  V30 18350 H 1664.89 -1.57939 1.30063 0
M  V30 18351 H 1664.9 -3.98701 0.866106 0
M  V30 18352 H 1663.58 -3.66194 1.97166 0
M  V30 18353 H 1662.16 -3.72632 0.141327 0
M  V30 18354 N 1664.34 -0.740267 -1.39132 0
M  V30 18355 C 1665.76 -0.416412 -1.54072 0
M  V30 18356 C 1665.96 1.07211 -1.70611 0
M  V30 18357 O 1665.01 1.85822 -1.70958 0
M  V30 18358 C 1666.33 -1.20403 -2.75542 0
M  V30 18359 C 1667.87 -1.19278 -2.89382 0
M  V30 18360 C 1668.35 -1.96308 -4.13796 0
M  V30 18361 N 1669.84 -1.93501 -4.20846 0
M  V30 18362 C 1670.57 -2.49907 -5.16075 0
M  V30 18363 N 1670.07 -3.14973 -6.17061 0
M  V30 18364 N 1671.86 -2.39911 -5.0833 0
M  V30 18365 H 1664.01 -1.70513 -1.26645 0
M  V30 18366 H 1666.28 -0.722111 -0.614214 0
M  V30 18367 H 1665.98 -2.25754 -2.69681 0
M  V30 18368 H 1665.86 -0.811986 -3.68357 0
M  V30 18369 H 1668.24 -0.147385 -2.94732 0
M  V30 18370 H 1668.33 -1.62424 -1.97616 0
M  V30 18371 H 1667.97 -3.00851 -4.09208 0
M  V30 18372 H 1667.9 -1.50565 -5.04617 0
M  V30 18373 H 1670.39 -1.46104 -3.48514 0
M  V30 18374 H 1670.7 -3.55467 -6.86195 0
M  V30 18375 H 1669.05 -3.19064 -6.17433 0
M  V30 18376 H 1672.24 -1.88718 -4.28373 0
M  V30 18377 H 1672.41 -2.84169 -5.82368 0
M  V30 18378 N 1665.82 1.49844 -0.488302 0
M  V30 18379 C 1666.77 2.30515 0.310703 0
M  V30 18380 C 1667.76 1.38559 0.974569 0
M  V30 18381 O 1668.97 1.5567 0.903708 0
M  V30 18382 H 1665.34 0.742517 0.119049 0
M  V30 18383 H 1667.31 2.95842 -0.389849 0
M  V30 18384 C 1666.06 3.19575 1.36994 0
M  V30 18385 H 1665.38 3.90253 0.868497 0
M  V30 18386 H 1666.82 3.78984 1.90123 0
M  V30 18387 C 1665.28 2.38324 2.38124 0
M  V30 18388 O 1665.81 2.07842 3.43751 0
M  V30 18389 N 1664.02 2.00583 2.10273 0
M  V30 18390 H 1663.57 2.25572 1.24399 0
M  V30 18391 H 1663.52 1.46525 2.78169 0
M  V30 18392 N 1667.3 0.221601 1.56034 0
M  V30 18393 C 1668.24 -0.688502 2.20291 0
M  V30 18394 C 1669.21 -1.19028 1.15851 0
M  V30 18395 O 1670.4 -1.24936 1.44206 0
M  V30 18396 C 1667.54 -1.89101 2.88678 0
M  V30 18397 C 1666.65 -1.42812 4.07711 0
M  V30 18398 C 1665.79 -2.5882 4.63881 0
M  V30 18399 C 1664.83 -2.09268 5.75216 0
M  V30 18400 N 1663.96 -3.18549 6.25676 0
M  V30 18401 H 1668.8 -0.133824 2.97699 0
M  V30 18402 H 1666.34 -0.0543007 1.47 0
M  V30 18403 H 1668.3 -2.59704 3.26512 0
M  V30 18404 H 1666.93 -2.41857 2.13788 0
M  V30 18405 H 1665.98 -0.617019 3.75363 0
M  V30 18406 H 1667.29 -1.02478 4.8816 0
M  V30 18407 H 1666.45 -3.37505 5.04158 0
M  V30 18408 H 1665.18 -3.02443 3.82596 0
M  V30 18409 H 1664.19 -1.29045 5.34441 0
M  V30 18410 H 1665.41 -1.66645 6.58336 0
M  V30 18411 H 1663.36 -3.61653 5.47305 0
M  V30 18412 H 1663.28 -2.82466 7.01248 0
M  V30 18413 H 1664.55 -3.97369 6.7061 0
M  V30 18414 N 1668.77 -1.57515 -0.0517878 0
M  V30 18415 C 1669.74 -2.04049 -1.04387 0
M  V30 18416 C 1670.74 -0.940745 -1.30409 0
M  V30 18417 O 1671.93 -1.20505 -1.25794 0
M  V30 18418 C 1669.06 -2.43816 -2.38257 0
M  V30 18419 H 1670.25 -2.9294 -0.642367 0
M  V30 18420 H 1667.81 -1.53432 -0.29805 0
M  V30 18421 H 1668.54 -1.58013 -2.832 0
M  V30 18422 H 1668.33 -3.24086 -2.20705 0
M  V30 18423 H 1669.82 -2.80325 -3.09528 0
M  V30 18424 N 1670.25 0.323614 -1.54242 0
M  V30 18425 C 1671.16 1.42128 -1.86646 0
M  V30 18426 C 1672.18 1.56603 -0.758385 0
M  V30 18427 O 1673.36 1.717 -1.05267 0
M  V30 18428 C 1670.42 2.76842 -2.08709 0
M  V30 18429 C 1669.48 2.71543 -3.3251 0
M  V30 18430 C 1668.71 3.99833 -3.5351 0
M  V30 18431 O 1668.94 4.98095 -2.77952 0
M  V30 18432 O 1667.87 4.03095 -4.46988 0
M  V30 18433 H 1671.7 1.17653 -2.79985 0
M  V30 18434 H 1669.28 0.517632 -1.40146 0
M  V30 18435 H 1671.16 3.56588 -2.24551 0
M  V30 18436 H 1669.84 3.01207 -1.18558 0
M  V30 18437 H 1668.75 1.90348 -3.22053 0
M  V30 18438 H 1670.08 2.52133 -4.22717 0
M  V30 18439 N 1671.73 1.46313 0.585673 0
M  V30 18440 C 1672.68 1.56653 1.69495 0
M  V30 18441 C 1673.65 0.411007 1.60935 0
M  V30 18442 O 1674.83 0.627369 1.80191 0
M  V30 18443 C 1671.97 1.55996 3.0783 0
M  V30 18444 C 1671.09 2.82261 3.27036 0
M  V30 18445 C 1670.22 2.73129 4.55603 0
M  V30 18446 C 1669.26 3.94346 4.68143 0
M  V30 18447 N 1668.4 3.83617 5.88032 0
M  V30 18448 H 1673.24 2.51407 1.59995 0
M  V30 18449 H 1670.77 1.24729 0.779821 0
M  V30 18450 H 1672.73 1.53602 3.87895 0
M  V30 18451 H 1671.36 0.647766 3.16234 0
M  V30 18452 H 1670.41 2.94648 2.40596 0
M  V30 18453 H 1671.73 3.72107 3.32171 0
M  V30 18454 H 1670.88 2.68823 5.43893 0
M  V30 18455 H 1669.62 1.80917 4.52902 0
M  V30 18456 H 1668.62 3.98987 3.78272 0
M  V30 18457 H 1669.85 4.8765 4.72625 0
M  V30 18458 H 1667.8 2.9419 5.86334 0
M  V30 18459 H 1667.71 4.67117 5.94422 0
M  V30 18460 H 1668.98 3.83281 6.7876 0
M  V30 18461 N 1673.21 -0.830057 1.33969 0
M  V30 18462 C 1674.14 -1.94785 1.20795 0
M  V30 18463 C 1675.15 -1.62225 0.136752 0
M  V30 18464 O 1676.34 -1.74233 0.38797 0
M  V30 18465 C 1673.44 -3.28523 0.832209 0
M  V30 18466 C 1672.62 -3.89157 1.99689 0
M  V30 18467 C 1671.68 -5.01262 1.6007 0
M  V30 18468 O 1670.7 -5.19939 2.31629 0
M  V30 18469 N 1671.9 -5.78249 0.510754 0
M  V30 18470 H 1674.67 -2.06621 2.17089 0
M  V30 18471 H 1672.23 -1.00626 1.26831 0
M  V30 18472 H 1674.22 -4.00958 0.549094 0
M  V30 18473 H 1672.79 -3.12574 -0.0403271 0
M  V30 18474 H 1672.01 -3.09203 2.44514 0
M  V30 18475 H 1673.3 -4.26399 2.77599 0
M  V30 18476 H 1672.7 -5.65637 -0.0842912 0
M  V30 18477 H 1671.25 -6.51166 0.287345 0
M  V30 18478 N 1674.69 -1.17582 -1.04939 0
M  V30 18479 C 1675.63 -0.894855 -2.12746 0
M  V30 18480 C 1676.6 0.162261 -1.65306 0
M  V30 18481 O 1677.79 0.0245068 -1.90784 0
M  V30 18482 C 1674.93 -0.417085 -3.4257 0
M  V30 18483 C 1674.04 -1.53861 -4.03672 0
M  V30 18484 C 1673.18 -1.01446 -5.21423 0
M  V30 18485 C 1672.22 -2.11127 -5.74536 0
M  V30 18486 N 1671.35 -1.60169 -6.83586 0
M  V30 18487 H 1676.19 -1.81802 -2.36118 0
M  V30 18488 H 1673.73 -0.906716 -1.15832 0
M  V30 18489 H 1675.69 -0.121619 -4.17023 0
M  V30 18490 H 1674.32 0.469119 -3.19373 0
M  V30 18491 H 1673.37 -1.94975 -3.26633 0
M  V30 18492 H 1674.68 -2.36575 -4.39128 0
M  V30 18493 H 1673.84 -0.672992 -6.02956 0
M  V30 18494 H 1672.58 -0.156795 -4.87448 0
M  V30 18495 H 1671.58 -2.46128 -4.91631 0
M  V30 18496 H 1672.81 -2.97313 -6.10559 0
M  V30 18497 H 1670.75 -0.766783 -6.51503 0
M  V30 18498 H 1670.67 -2.36488 -7.18059 0
M  V30 18499 H 1671.94 -1.28923 -7.68765 0
M  V30 18500 N 1676.17 1.23705 -0.976463 0
M  V30 18501 C 1677.58 1.44179 -0.684434 0
M  V30 18502 C 1677.78 1.86992 0.75075 0
M  V30 18503 O 1676.84 2.01349 1.52365 0
M  V30 18504 C 1678.15 2.49661 -1.676 0
M  V30 18505 C 1679.7 2.63479 -1.68961 0
M  V30 18506 C 1680.17 3.72167 -2.66938 0
M  V30 18507 N 1681.66 3.79605 -2.65433 0
M  V30 18508 C 1682.4 4.63251 -3.37914 0
M  V30 18509 N 1681.9 5.51018 -4.19941 0
M  V30 18510 N 1683.69 4.57412 -3.26697 0
M  V30 18511 H 1675.84 0.942155 -1.90361 0
M  V30 18512 H 1678.1 0.475629 -0.820049 0
M  V30 18513 H 1677.81 2.25111 -2.70218 0
M  V30 18514 H 1677.68 3.47978 -1.45571 0
M  V30 18515 H 1680.07 2.87382 -0.670497 0
M  V30 18516 H 1680.15 1.65491 -1.95055 0
M  V30 18517 H 1679.79 3.49013 -3.68988 0
M  V30 18518 H 1679.72 4.69688 -2.3812 0
M  V30 18519 H 1682.22 3.16882 -2.05899 0
M  V30 18520 H 1682.53 6.11825 -4.72113 0
M  V30 18521 H 1680.87 5.50655 -4.24033 0
M  V30 18522 H 1684.06 3.87863 -2.62069 0
M  V30 18523 H 1684.24 5.22373 -3.83446 0
M  V30 18524 N 1677.64 0.747635 1.38738 0
M  V30 18525 C 1678.92 0.226908 1.94279 0
M  V30 18526 C 1679.3 -1.27373 1.68343 0
M  V30 18527 O 1678.65 -2.04538 1.01865 0
M  V30 18528 C 1678.86 0.574164 3.44245 0
M  V30 18529 C 1680.21 0.530498 4.21273 0
M  V30 18530 O 1681.23 0.512102 3.525 0
M  V30 18531 O 1680.09 0.536171 5.43863 0
M  V30 18532 H 1677.18 0.0456834 0.825737 0
M  V30 18533 H 1679.73 0.827353 1.48165 0
M  V30 18534 H 1678.5 1.6108 3.56607 0
M  V30 18535 H 1678.12 -0.0545964 3.97563 0
M  V30 18536 N 1679.12 -1.49583 0.496242 0
M  V30 18537 C 1680.05 -2.31885 -0.274139 0
M  V30 18538 C 1681.03 -1.39939 -0.96701 0
M  V30 18539 O 1682.22 -1.6885 -0.959333 0
M  V30 18540 C 1679.35 -3.20332 -1.34181 0
M  V30 18541 C 1678.3 -4.21033 -0.769091 0
M  V30 18542 C 1677.63 -4.98385 -1.93693 0
M  V30 18543 C 1678.93 -5.21764 0.236648 0
M  V30 18544 H 1680.62 -2.9654 0.412824 0
M  V30 18545 H 1678.17 -1.42605 0.199979 0
M  V30 18546 H 1680.12 -3.76718 -1.88843 0
M  V30 18547 H 1678.84 -2.53611 -2.05789 0
M  V30 18548 H 1677.5 -3.65785 -0.244252 0
M  V30 18549 H 1677.15 -4.28115 -2.64058 0
M  V30 18550 H 1676.85 -5.66519 -1.55981 0
M  V30 18551 H 1678.38 -5.57613 -2.48798 0
M  V30 18552 H 1679.79 -5.72871 -0.221672 0
M  V30 18553 H 1678.19 -5.97761 0.529346 0
M  V30 18554 H 1679.26 -4.70964 1.15415 0
M  V30 18555 N 1680.6 -0.229873 -1.55915 0
M  V30 18556 C 1681.85 0.398775 -1.98127 0
M  V30 18557 C 1682.17 1.597 -1.11897 0
M  V30 18558 O 1681.44 1.94898 -0.197868 0
M  V30 18559 H 1680.02 0.150323 -0.731719 0
M  V30 18560 H 1682.68 -0.324704 -1.92176 0
M  V30 18561 H 1681.78 0.719475 -3.03694 0
M  V30 18562 N 1682.08 1.5754 0.0434337 0
M  V30 18563 C 1682.99 2.08996 1.06574 0
M  V30 18564 C 1684 1.02544 1.40573 0
M  V30 18565 O 1685.18 1.34192 1.50181 0
M  V30 18566 C 1682.24 2.54723 2.35196 0
M  V30 18567 C 1681.31 3.75595 2.0791 0
M  V30 18568 C 1680.54 4.19132 3.304 0
M  V30 18569 O 1680.76 3.62303 4.40559 0
M  V30 18570 O 1679.7 5.11694 3.16944 0
M  V30 18571 H 1683.52 2.96475 0.658503 0
M  V30 18572 H 1681.11 1.47129 0.259475 0
M  V30 18573 H 1682.99 2.84529 3.1084 0
M  V30 18574 H 1681.66 1.70361 2.75243 0
M  V30 18575 H 1680.57 3.5083 1.2988 0
M  V30 18576 H 1681.9 4.60897 1.72727 0
M  V30 18577 N 1683.56 -0.31543 1.54411 0
M  V30 18578 C 1684.47 -1.41136 1.87397 0
M  V30 18579 C 1685.48 -1.56199 0.76668 0
M  V30 18580 O 1686.66 -1.71139 1.06176 0
M  V30 18581 C 1683.72 -2.75731 2.10174 0
M  V30 18582 C 1682.78 -2.69776 3.33945 0
M  V30 18583 C 1682.02 -3.97952 3.55626 0
M  V30 18584 O 1682.24 -4.96614 2.80589 0
M  V30 18585 O 1681.17 -4.00719 4.49119 0
M  V30 18586 H 1685 -1.16167 2.80605 0
M  V30 18587 H 1682.58 -0.510193 1.40419 0
M  V30 18588 H 1684.47 -3.55392 2.26439 0
M  V30 18589 H 1683.14 -3.00574 1.20154 0
M  V30 18590 H 1682.05 -1.88638 3.23058 0
M  V30 18591 H 1683.38 -2.49887 4.24049 0
M  V30 18592 N 1685.03 -1.46622 -0.577906 0
M  V30 18593 C 1685.96 -1.60413 -1.69676 0
M  V30 18594 C 1686.95 -0.454277 -1.63922 0
M  V30 18595 O 1688.13 -0.68111 -1.81864 0
M  V30 18596 C 1685.26 -1.59866 -3.08318 0
M  V30 18597 C 1684.21 -2.7387 -3.28906 0
M  V30 18598 C 1683.54 -2.58386 -4.68125 0
M  V30 18599 C 1684.84 -4.15652 -3.16276 0
M  V30 18600 H 1686.53 -2.54073 -1.5839 0
M  V30 18601 H 1684.08 -1.22275 -0.760572 0
M  V30 18602 H 1686.03 -1.68108 -3.86417 0
M  V30 18603 H 1684.76 -0.627541 -3.20514 0
M  V30 18604 H 1683.42 -2.65105 -2.53209 0
M  V30 18605 H 1683.06 -1.59347 -4.77093 0
M  V30 18606 H 1682.76 -3.34855 -4.82852 0
M  V30 18607 H 1684.29 -2.68525 -5.48385 0
M  V30 18608 H 1685.7 -4.25503 -3.84214 0
M  V30 18609 H 1684.1 -4.92746 -3.42523 0
M  V30 18610 H 1685.17 -4.35471 -2.13291 0
M  V30 18611 N 1686.51 0.822941 -1.34408 0
M  V30 18612 C 1687.42 1.96567 -1.28056 0
M  V30 18613 C 1688.44 1.72979 -0.188251 0
M  V30 18614 O 1689.61 1.97084 -0.41472 0
M  V30 18615 C 1686.68 3.30865 -1.03583 0
M  V30 18616 C 1685.74 3.67461 -2.2197 0
M  V30 18617 C 1684.97 4.9535 -1.98655 0
M  V30 18618 O 1685.2 5.62521 -0.944785 0
M  V30 18619 O 1684.13 5.29824 -2.85605 0
M  V30 18620 H 1687.96 2.0487 -2.24192 0
M  V30 18621 H 1685.54 0.958334 -1.14614 0
M  V30 18622 H 1687.42 4.11298 -0.917162 0
M  V30 18623 H 1686.1 3.2353 -0.104868 0
M  V30 18624 H 1685.01 2.87472 -2.39396 0
M  V30 18625 H 1686.34 3.79481 -3.13456 0
M  V30 18626 N 1687.99 1.18137 1.04314 0
M  V30 18627 C 1688.95 0.908268 2.10436 0
M  V30 18628 C 1689.95 -0.105315 1.60455 0
M  V30 18629 O 1691.14 0.12785 1.7373 0
M  V30 18630 C 1688.28 0.362233 3.3897 0
M  V30 18631 H 1689.47 1.84928 2.36096 0
M  V30 18632 H 1687.02 0.993048 1.20699 0
M  V30 18633 H 1687.76 -0.58551 3.18971 0
M  V30 18634 H 1687.54 1.09285 3.76562 0
M  V30 18635 H 1689.03 0.18977 4.17169 0
M  V30 18636 N 1689.47 -1.23186 0.98301 0
M  V30 18637 C 1690.4 -2.27054 0.544858 0
M  V30 18638 C 1691.38 -1.64749 -0.423281 0
M  V30 18639 O 1692.56 -1.91611 -0.316075 0
M  V30 18640 C 1689.69 -3.46972 -0.150976 0
M  V30 18641 C 1688.65 -4.21647 0.734707 0
M  V30 18642 C 1687.97 -5.34618 -0.0934874 0
M  V30 18643 C 1689.27 -4.81372 2.02679 0
M  V30 18644 H 1690.97 -2.63957 1.41305 0
M  V30 18645 H 1688.51 -1.26885 0.680895 0
M  V30 18646 H 1690.47 -4.18784 -0.468825 0
M  V30 18647 H 1689.19 -3.09137 -1.05364 0
M  V30 18648 H 1687.85 -3.51655 1.03605 0
M  V30 18649 H 1687.5 -4.93025 -0.996768 0
M  V30 18650 H 1687.2 -5.85503 0.496019 0
M  V30 18651 H 1688.72 -6.09251 -0.405658 0
M  V30 18652 H 1690.14 -5.45178 1.77353 0
M  V30 18653 H 1688.53 -5.42554 2.56429 0
M  V30 18654 H 1689.6 -4.01972 2.71194 0
M  V30 18655 N 1690.95 -0.754982 -1.38339 0
M  V30 18656 C 1691.89 -0.128193 -2.30444 0
M  V30 18657 C 1692.86 0.70813 -1.50249 0
M  V30 18658 O 1694.05 0.663969 -1.78875 0
M  V30 18659 C 1691.19 0.757921 -3.36674 0
M  V30 18660 C 1690.3 -0.093181 -4.31899 0
M  V30 18661 C 1689.44 0.796067 -5.25201 0
M  V30 18662 C 1688.48 -0.0585854 -6.12072 0
M  V30 18663 N 1687.61 0.7877 -6.97667 0
M  V30 18664 H 1692.45 -0.919204 -2.83469 0
M  V30 18665 H 1689.99 -0.464921 -1.3956 0
M  V30 18666 H 1691.95 1.28632 -3.96875 0
M  V30 18667 H 1690.58 1.5147 -2.85055 0
M  V30 18668 H 1689.63 -0.73922 -3.73148 0
M  V30 18669 H 1690.94 -0.753146 -4.93081 0
M  V30 18670 H 1690.1 1.39158 -5.90525 0
M  V30 18671 H 1688.83 1.48976 -4.64389 0
M  V30 18672 H 1687.84 -0.666754 -5.45742 0
M  V30 18673 H 1689.06 -0.749361 -6.74953 0
M  V30 18674 H 1687.01 1.46632 -6.39402 0
M  V30 18675 H 1686.93 0.184662 -7.55774 0
M  V30 18676 H 1688.2 1.36814 -7.674 0
M  V30 18677 N 1692.42 1.49318 -0.504168 0
M  V30 18678 C 1693.65 2.06869 0.0359415 0
M  V30 18679 C 1694.07 1.3641 1.30529 0
M  V30 18680 O 1693.42 0.443416 1.77031 0
M  V30 18681 C 1693.48 3.60333 0.290233 0
M  V30 18682 O 1693.2 4.28141 -0.928801 0
M  V30 18683 C 1694.7 4.34606 0.873628 0
M  V30 18684 H 1691.92 0.670643 -0.0218893 0
M  V30 18685 H 1694.46 1.92058 -0.702432 0
M  V30 18686 H 1692.62 3.74836 0.978594 0
M  V30 18687 H 1693.03 5.19894 -0.693595 0
M  V30 18688 H 1694.5 5.42846 1.00112 0
M  V30 18689 H 1694.98 3.97297 1.87221 0
M  V30 18690 H 1695.59 4.24717 0.222638 0
M  V30 18691 N 1693.9 0.238138 1.5579 0
M  V30 18692 C 1694.81 -0.676049 2.24648 0
M  V30 18693 C 1695.83 -1.20038 1.25964 0
M  V30 18694 O 1697 -1.2385 1.58818 0
M  V30 18695 C 1694.07 -1.86014 2.92574 0
M  V30 18696 C 1693.13 -1.37615 4.06646 0
M  V30 18697 C 1692.36 -2.5038 4.71323 0
M  V30 18698 O 1692.59 -3.68906 4.35045 0
M  V30 18699 O 1691.52 -2.20636 5.60003 0
M  V30 18700 H 1695.35 -0.119372 3.03465 0
M  V30 18701 H 1692.93 0.00699789 1.49398 0
M  V30 18702 H 1694.81 -2.55132 3.35389 0
M  V30 18703 H 1693.49 -2.4046 2.16704 0
M  V30 18704 H 1692.4 -0.652503 3.68366 0
M  V30 18705 H 1693.73 -0.877871 4.84308 0
M  V30 18706 N 1695.38 -1.57561 -0.0350783 0
M  V30 18707 C 1696.31 -2.09201 -1.03716 0
M  V30 18708 C 1697.29 -0.993231 -1.3809 0
M  V30 18709 O 1698.48 -1.26812 -1.47079 0
M  V30 18710 C 1695.61 -2.56643 -2.3399 0
M  V30 18711 C 1694.56 -3.70731 -2.13874 0
M  V30 18712 C 1693.89 -4.04358 -3.49855 0
M  V30 18713 C 1695.19 -4.99393 -1.52982 0
M  V30 18714 H 1696.88 -2.93176 -0.60731 0
M  V30 18715 H 1694.43 -1.41036 -0.290683 0
M  V30 18716 H 1696.38 -2.9139 -3.04417 0
M  V30 18717 H 1695.1 -1.69744 -2.79024 0
M  V30 18718 H 1693.76 -3.36325 -1.45881 0
M  V30 18719 H 1693.41 -3.14534 -3.92527 0
M  V30 18720 H 1693.11 -4.81201 -3.37223 0
M  V30 18721 H 1694.63 -4.41633 -4.21654 0
M  V30 18722 H 1696.05 -5.32135 -2.13319 0
M  V30 18723 H 1694.45 -5.80807 -1.50943 0
M  V30 18724 H 1695.52 -4.82367 -0.494993 0
M  V30 18725 N 1696.86 0.307236 -1.54576 0
M  V30 18726 C 1697.77 1.4014 -1.88143 0
M  V30 18727 C 1698.78 1.5579 -0.774952 0
M  V30 18728 O 1699.96 1.70574 -1.07082 0
M  V30 18729 C 1697.03 2.74613 -2.11633 0
M  V30 18730 C 1696.09 2.68001 -3.35371 0
M  V30 18731 C 1695.32 3.96061 -3.57731 0
M  V30 18732 O 1695.54 4.95119 -2.83219 0
M  V30 18733 O 1694.48 3.98331 -4.51238 0
M  V30 18734 H 1698.3 1.14677 -2.81217 0
M  V30 18735 H 1695.89 0.502739 -1.40687 0
M  V30 18736 H 1697.77 3.54186 -2.2832 0
M  V30 18737 H 1696.44 2.99933 -1.21746 0
M  V30 18738 H 1695.35 1.86922 -3.24054 0
M  V30 18739 H 1696.68 2.47635 -4.25368 0
M  V30 18740 N 1698.34 1.46926 0.570122 0
M  V30 18741 C 1699.61 1.43365 1.33063 0
M  V30 18742 C 1699.99 0.123738 2.10737 0
M  V30 18743 O 1699.34 -0.894766 2.10253 0
M  V30 18744 C 1699.55 2.67122 2.24604 0
M  V30 18745 C 1700.9 3.13798 2.86035 0
M  V30 18746 O 1701.92 2.67759 2.34912 0
M  V30 18747 O 1700.78 3.93801 3.78923 0
M  V30 18748 H 1697.88 0.570726 0.598499 0
M  V30 18749 H 1700.42 1.5911 0.590095 0
M  V30 18750 H 1699.19 3.54005 1.66722 0
M  V30 18751 H 1698.82 2.53899 3.05976 0
M  V30 18752 N 1699.82 -0.815801 1.34842 0
M  V30 18753 C 1701.04 -1.60397 1.30693 0
M  V30 18754 C 1701.46 -1.88434 -0.117536 0
M  V30 18755 O 1700.82 -1.48076 -1.06676 0
M  V30 18756 C 1700.87 -2.94069 2.10252 0
M  V30 18757 O 1700.59 -2.67251 3.47143 0
M  V30 18758 C 1702.09 -3.88456 2.13581 0
M  V30 18759 H 1699.31 -0.49835 0.449319 0
M  V30 18760 H 1701.85 -1.01451 1.77561 0
M  V30 18761 H 1700.01 -3.49554 1.67006 0
M  V30 18762 H 1700.42 -3.52536 3.88354 0
M  V30 18763 H 1701.9 -4.79391 2.73658 0
M  V30 18764 H 1702.37 -4.24359 1.13209 0
M  V30 18765 H 1702.98 -3.38907 2.56947 0
M  V30 18766 N 1701.29 -1.18689 -1.03686 0
M  V30 18767 C 1702.22 -0.94094 -2.13702 0
M  V30 18768 C 1703.2 0.12277 -1.69656 0
M  V30 18769 O 1704.39 -0.0306085 -1.94176 0
M  V30 18770 C 1701.52 -0.470054 -3.44104 0
M  V30 18771 C 1700.47 -1.47468 -4.01792 0
M  V30 18772 C 1699.8 -0.861174 -5.2772 0
M  V30 18773 C 1701.1 -2.85254 -4.37524 0
M  V30 18774 H 1702.79 -1.86102 -2.34534 0
M  V30 18775 H 1700.34 -0.896207 -1.12713 0
M  V30 18776 H 1702.29 -0.28533 -4.20433 0
M  V30 18777 H 1701.02 0.485604 -3.2297 0
M  V30 18778 H 1699.68 -1.64641 -3.2755 0
M  V30 18779 H 1699.32 0.10179 -5.02897 0
M  V30 18780 H 1699.02 -1.53196 -5.67278 0
M  V30 18781 H 1700.55 -0.687066 -6.06722 0
M  V30 18782 H 1701.96 -2.71711 -5.04823 0
M  V30 18783 H 1700.36 -3.49051 -4.88143 0
M  V30 18784 H 1701.43 -3.38516 -3.47181 0
M  V30 18785 N 1702.77 1.22662 -0.989529 0
M  V30 18786 C 1704.05 1.86816 -0.579566 0
M  V30 18787 C 1704.43 1.88858 0.943188 0
M  V30 18788 O 1703.78 1.37668 1.82372 0
M  V30 18789 C 1703.99 3.27863 -1.19612 0
M  V30 18790 C 1705.33 4.04384 -1.29454 0
M  V30 18791 O 1706.36 3.37116 -1.15026 0
M  V30 18792 O 1705.22 5.24789 -1.52508 0
M  V30 18793 H 1702.31 0.803332 -0.196434 0
M  V30 18794 H 1704.86 1.30467 -1.08519 0
M  V30 18795 H 1703.63 3.20993 -2.23784 0
M  V30 18796 H 1703.25 3.91813 -0.675875 0
M  V30 18797 N 1704.25 0.762308 1.37937 0
M  V30 18798 C 1705.47 0.332217 2.04722 0
M  V30 18799 C 1705.9 -1.03417 1.57119 0
M  V30 18800 O 1705.26 -1.6608 0.727117 0
M  V30 18801 C 1705.31 0.373899 3.58656 0
M  V30 18802 O 1704.41 -0.629024 4.07575 0
M  V30 18803 H 1703.75 0.145471 0.647869 0
M  V30 18804 H 1706.28 1.03586 1.7644 0
M  V30 18805 H 1706.29 0.22785 4.07363 0
M  V30 18806 H 1704.97 1.37079 3.92661 0
M  V30 18807 H 1703.54 -0.446871 3.70213 0
M  V30 18808 N 1705.73 -1.49049 0.51208 0
M  V30 18809 C 1706.96 -2.06885 -0.0249703 0
M  V30 18810 C 1707.37 -1.371 -1.29804 0
M  V30 18811 O 1706.73 -0.452798 -1.76794 0
M  V30 18812 C 1706.78 -3.60482 -0.27112 0
M  V30 18813 O 1706.5 -4.27643 0.951493 0
M  V30 18814 C 1708 -4.35063 -0.850568 0
M  V30 18815 H 1705.22 -0.670517 0.0254456 0
M  V30 18816 H 1707.76 -1.91682 0.712607 0
M  V30 18817 H 1705.92 -3.7535 -0.958702 0
M  V30 18818 H 1706.33 -5.19519 0.721156 0
M  V30 18819 H 1707.81 -5.43369 -0.972322 0
M  V30 18820 H 1708.28 -3.98285 -1.85111 0
M  V30 18821 H 1708.89 -4.24829 -0.200111 0
M  V30 18822 N 1707.21 -0.246397 -1.55662 0
M  V30 18823 C 1708.17 0.640041 -2.20082 0
M  V30 18824 C 1709.17 1.10313 -1.16994 0
M  V30 18825 O 1710.36 1.00792 -1.42079 0
M  V30 18826 C 1707.49 1.87964 -2.84398 0
M  V30 18827 H 1708.68 0.0780034 -2.99799 0
M  V30 18828 H 1706.24 0.00314588 -1.563 0
M  V30 18829 H 1706.97 2.48292 -2.08618 0
M  V30 18830 H 1706.76 1.5558 -3.59913 0
M  V30 18831 H 1708.25 2.51065 -3.33701 0
M  V30 18832 N 1708.68 1.57577 0.026722 0
M  V30 18833 C 1709.65 2.05684 1.01127 0
M  V30 18834 C 1710.65 0.961373 1.28896 0
M  V30 18835 O 1711.84 1.22491 1.23861 0
M  V30 18836 C 1708.97 2.47576 2.34348 0
M  V30 18837 H 1710.16 2.93925 0.595681 0
M  V30 18838 H 1707.71 1.53887 0.273603 0
M  V30 18839 H 1708.45 1.62498 2.80651 0
M  V30 18840 H 1708.23 3.27556 2.15521 0
M  V30 18841 H 1709.72 2.85214 3.05029 0
M  V30 18842 N 1710.16 -0.299034 1.54737 0
M  V30 18843 C 1711.09 -1.39055 1.82199 0
M  V30 18844 C 1712.11 -1.46741 0.705038 0
M  V30 18845 O 1713.3 -1.49025 0.982543 0
M  V30 18846 C 1710.4 -2.7741 1.94671 0
M  V30 18847 C 1709.57 -2.92633 3.25092 0
M  V30 18848 C 1708.63 -4.11499 3.27956 0
M  V30 18849 O 1707.65 -4.03491 4.01477 0
M  V30 18850 N 1708.86 -5.2223 2.53488 0
M  V30 18851 H 1711.62 -1.15852 2.76402 0
M  V30 18852 H 1709.18 -0.489108 1.54335 0
M  V30 18853 H 1711.17 -3.55178 1.93987 0
M  V30 18854 H 1709.74 -2.93552 1.07453 0
M  V30 18855 H 1708.96 -2.01962 3.38534 0
M  V30 18856 H 1710.25 -2.99716 4.11154 0
M  V30 18857 H 1709.65 -5.31617 1.93391 0
M  V30 18858 H 1708.21 -5.98325 2.58555 0
M  V30 18859 N 1711.64 -1.47227 -0.562322 0
M  V30 18860 C 1712.57 -1.55383 -1.6849 0
M  V30 18861 C 1713.58 -0.440437 -1.56729 0
M  V30 18862 O 1714.77 -0.709803 -1.63781 0
M  V30 18863 C 1711.87 -1.43723 -3.06915 0
M  V30 18864 C 1711.05 -2.69541 -3.4448 0
M  V30 18865 C 1710.11 -2.5179 -4.62048 0
M  V30 18866 O 1709.13 -3.25587 -4.66885 0
M  V30 18867 N 1710.33 -1.59282 -5.5822 0
M  V30 18868 H 1713.1 -2.52181 -1.61941 0
M  V30 18869 H 1710.66 -1.43541 -0.748832 0
M  V30 18870 H 1712.65 -1.2959 -3.83391 0
M  V30 18871 H 1711.22 -0.550272 -3.07719 0
M  V30 18872 H 1710.44 -2.98472 -2.57504 0
M  V30 18873 H 1711.73 -3.53079 -3.66351 0
M  V30 18874 H 1711.13 -0.984666 -5.57064 0
M  V30 18875 H 1709.68 -1.51103 -6.34043 0
M  V30 18876 N 1713.12 0.808639 -1.35273 0
M  V30 18877 C 1714.03 1.95198 -1.30134 0
M  V30 18878 C 1715.04 1.72769 -0.206587 0
M  V30 18879 O 1716.22 1.96633 -0.4356 0
M  V30 18880 C 1713.28 3.29747 -1.07087 0
M  V30 18881 C 1712.35 3.65086 -2.25855 0
M  V30 18882 C 1711.58 4.93215 -2.03898 0
M  V30 18883 O 1711.8 5.61487 -1.00439 0
M  V30 18884 O 1710.74 5.26765 -2.91208 0
M  V30 18885 H 1714.56 2.0248 -2.26353 0
M  V30 18886 H 1712.15 0.946124 -1.15624 0
M  V30 18887 H 1714.03 4.10302 -0.960734 0
M  V30 18888 H 1712.7 3.23401 -0.139177 0
M  V30 18889 H 1711.61 2.84917 -2.42432 0
M  V30 18890 H 1712.94 3.76135 -3.17464 0
M  V30 18891 N 1714.6 1.19237 1.03055 0
M  V30 18892 C 1715.53 0.95226 2.132 0
M  V30 18893 C 1716.51 -0.113771 1.69719 0
M  V30 18894 O 1717.69 0.0409057 1.94157 0
M  V30 18895 C 1714.82 0.488296 3.4385 0
M  V30 18896 C 1713.78 1.49597 4.01005 0
M  V30 18897 C 1713.1 0.889148 5.27255 0
M  V30 18898 C 1714.4 2.87571 4.36005 0
M  V30 18899 H 1716.1 1.87343 2.33544 0
M  V30 18900 H 1713.64 0.902172 1.12236 0
M  V30 18901 H 1715.6 0.307623 4.20276 0
M  V30 18902 H 1714.32 -0.468469 3.23223 0
M  V30 18903 H 1712.98 1.66376 3.26672 0
M  V30 18904 H 1712.63 -0.0751191 5.02944 0
M  V30 18905 H 1712.33 1.56202 5.66458 0
M  V30 18906 H 1713.85 0.719233 6.06349 0
M  V30 18907 H 1715.26 2.74384 5.03375 0
M  V30 18908 H 1713.66 3.51635 4.86285 0
M  V30 18909 H 1714.73 3.40353 3.45381 0
M  V30 18910 N 1716.07 -1.22136 0.99602 0
M  V30 18911 C 1717.49 -1.43072 0.707285 0
M  V30 18912 C 1717.69 -1.88163 -0.720906 0
M  V30 18913 O 1716.75 -2.03747 -1.49142 0
M  V30 18914 C 1718.06 -2.46963 1.71551 0
M  V30 18915 C 1719.61 -2.60758 1.73131 0
M  V30 18916 C 1720.08 -3.67873 2.72825 0
M  V30 18917 N 1721.57 -3.75334 2.71438 0
M  V30 18918 C 1722.31 -4.57817 3.45241 0
M  V30 18919 N 1721.8 -5.44268 4.28654 0
M  V30 18920 N 1723.6 -4.52157 3.33932 0
M  V30 18921 H 1715.75 -0.911751 1.91836 0
M  V30 18922 H 1718.01 -0.462523 0.827512 0
M  V30 18923 H 1717.72 -2.20784 2.73765 0
M  V30 18924 H 1717.59 -3.45618 1.51089 0
M  V30 18925 H 1719.98 -2.86279 0.716132 0
M  V30 18926 H 1720.06 -1.62367 1.97663 0
M  V30 18927 H 1719.7 -3.43098 3.74494 0
M  V30 18928 H 1719.63 -4.6584 2.45562 0
M  V30 18929 H 1722.12 -3.13566 2.10915 0
M  V30 18930 H 1722.44 -6.04236 4.81786 0
M  V30 18931 H 1720.78 -5.43839 4.3274 0
M  V30 18932 H 1723.97 -3.83645 2.68206 0
M  V30 18933 H 1724.15 -5.16207 3.91707 0
M  V30 18934 N 1717.55 -0.769612 -1.37531 0
M  V30 18935 C 1718.78 -0.343069 -2.04543 0
M  V30 18936 C 1719.2 1.02583 -1.57665 0
M  V30 18937 O 1718.56 1.65692 -0.735915 0
M  V30 18938 C 1718.61 -0.392914 -3.58453 0
M  V30 18939 O 1717.71 0.607401 -4.07902 0
M  V30 18940 H 1717.05 -0.148905 -0.647088 0
M  V30 18941 H 1719.58 -1.04521 -1.75888 0
M  V30 18942 H 1719.59 -0.24945 -4.07237 0
M  V30 18943 H 1718.27 -1.39159 -3.91928 0
M  V30 18944 H 1716.85 0.427231 -3.70445 0
M  V30 18945 N 1719.03 1.48775 -0.519977 0
M  V30 18946 C 1719.98 2.29461 0.248242 0
M  V30 18947 C 1720.95 1.36734 0.943027 0
M  V30 18948 O 1722.13 1.65697 0.946003 0
M  V30 18949 C 1719.27 3.19868 1.29531 0
M  V30 18950 C 1718.39 4.27666 0.610379 0
M  V30 18951 C 1717.52 5.05266 1.63951 0
M  V30 18952 C 1716.56 6.04878 0.937496 0
M  V30 18953 N 1715.7 6.75573 1.91171 0
M  V30 18954 H 1720.54 2.94643 -0.446016 0
M  V30 18955 H 1718.07 1.45262 -0.231792 0
M  V30 18956 H 1720.03 3.70675 1.91456 0
M  V30 18957 H 1718.66 2.5663 1.95808 0
M  V30 18958 H 1717.71 3.80202 -0.122598 0
M  V30 18959 H 1719.03 4.98765 0.0586864 0
M  V30 18960 H 1718.18 5.60037 2.33332 0
M  V30 18961 H 1716.92 4.33983 2.22509 0
M  V30 18962 H 1715.92 5.49321 0.229562 0
M  V30 18963 H 1717.15 6.78155 0.358166 0
M  V30 18964 H 1715.09 6.07048 2.48655 0
M  V30 18965 H 1715.01 7.42712 1.41118 0
M  V30 18966 H 1716.28 7.34938 2.59781 0
M  V30 18967 N 1720.51 0.254649 1.55529 0
M  V30 18968 C 1721.92 -0.100019 1.59286 0
M  V30 18969 C 1722.12 -1.56289 1.27185 0
M  V30 18970 O 1721.18 -2.30854 1.02287 0
M  V30 18971 C 1722.49 0.256158 2.99607 0
M  V30 18972 C 1724.04 0.201091 3.12353 0
M  V30 18973 C 1724.52 0.531411 4.54907 0
M  V30 18974 N 1726.01 0.482199 4.60683 0
M  V30 18975 C 1726.74 0.710848 5.68977 0
M  V30 18976 N 1726.24 1.00304 6.85501 0
M  V30 18977 N 1728.03 0.641029 5.58433 0
M  V30 18978 H 1720.18 1.20856 1.74664 0
M  V30 18979 H 1722.45 0.486824 0.813453 0
M  V30 18980 H 1722.15 1.27275 3.27863 0
M  V30 18981 H 1722.03 -0.412994 3.74932 0
M  V30 18982 H 1724.41 -0.806189 2.83874 0
M  V30 18983 H 1724.49 0.904206 2.39286 0
M  V30 18984 H 1724.14 1.53628 4.84108 0
M  V30 18985 H 1724.07 -0.193269 5.26245 0
M  V30 18986 H 1726.56 0.265409 3.76967 0
M  V30 18987 H 1726.87 1.16472 7.63973 0
M  V30 18988 H 1725.22 1.04059 6.87166 0
M  V30 18989 H 1728.41 0.412751 4.66277 0
M  V30 18990 H 1728.58 0.822617 6.42757 0
M  V30 18991 N 1721.99 -1.57589 -0.0183649 0
M  V30 18992 C 1722.9 -2.10665 -1.03235 0
M  V30 18993 C 1723.91 -1.04767 -1.38924 0
M  V30 18994 O 1725.09 -1.36565 -1.48027 0
M  V30 18995 C 1722.15 -2.58432 -2.31114 0
M  V30 18996 C 1721.21 -3.78856 -2.01908 0
M  V30 18997 C 1720.45 -4.24335 -3.2369 0
M  V30 18998 O 1720.67 -3.69266 -4.3474 0
M  V30 18999 O 1719.6 -5.16671 -3.08763 0
M  V30 19000 H 1723.43 -2.97485 -0.611254 0
M  V30 19001 H 1721.02 -1.47524 -0.236035 0
M  V30 19002 H 1722.9 -2.89438 -3.06274 0
M  V30 19003 H 1721.57 -1.74718 -2.72498 0
M  V30 19004 H 1720.48 -3.52852 -1.24282 0
M  V30 19005 H 1721.81 -4.63587 -1.65373 0
M  V30 19006 N 1723.46 0.290824 -1.54893 0
M  V30 19007 C 1724.4 1.38087 -1.82933 0
M  V30 19008 C 1725.41 1.46365 -0.712811 0
M  V30 19009 O 1726.6 1.48501 -0.990432 0
M  V30 19010 C 1723.7 2.76374 -1.9614 0
M  V30 19011 C 1722.87 2.90905 -3.26639 0
M  V30 19012 C 1721.93 4.09754 -3.30134 0
M  V30 19013 O 1720.96 4.01356 -4.03611 0
M  V30 19014 N 1722.16 5.20878 -2.56254 0
M  V30 19015 H 1724.92 1.14385 -2.77013 0
M  V30 19016 H 1722.48 0.480916 -1.54592 0
M  V30 19017 H 1724.48 3.54144 -1.95868 0
M  V30 19018 H 1723.05 2.92978 -1.09008 0
M  V30 19019 H 1722.27 2.00164 -3.396 0
M  V30 19020 H 1723.55 2.97531 -4.12738 0
M  V30 19021 H 1722.95 5.30584 -1.96207 0
M  V30 19022 H 1721.51 5.96945 -2.61725 0
M  V30 19023 N 1724.94 1.47523 0.554506 0
M  V30 19024 C 1725.85 1.62851 1.68869 0
M  V30 19025 C 1726.87 0.511305 1.66318 0
M  V30 19026 O 1728.04 0.779195 1.85716 0
M  V30 19027 C 1725.11 1.64161 3.05372 0
M  V30 19028 C 1724.17 2.87327 3.1897 0
M  V30 19029 C 1723.4 2.88566 4.48961 0
M  V30 19030 O 1723.63 1.98937 5.34584 0
M  V30 19031 O 1722.56 3.80459 4.66406 0
M  V30 19032 H 1726.39 2.58826 1.5888 0
M  V30 19033 H 1723.97 1.3064 0.724822 0
M  V30 19034 H 1725.85 1.67686 3.866 0
M  V30 19035 H 1724.53 0.713534 3.15738 0
M  V30 19036 H 1723.44 2.89345 2.37129 0
M  V30 19037 H 1724.77 3.79438 3.13509 0
M  V30 19038 N 1726.42 -0.801453 1.357 0
M  V30 19039 C 1727.67 -1.5611 1.29451 0
M  V30 19040 C 1728 -1.93768 -0.129412 0
M  V30 19041 O 1727.27 -1.6176 -1.08 0
M  V30 19042 C 1727.56 -2.84628 2.20588 0
M  V30 19043 C 1727.41 -2.53413 3.71621 0
M  V30 19044 C 1728.73 -3.86369 2.10729 0
M  V30 19045 H 1725.85 -0.56638 0.471575 0
M  V30 19046 H 1728.49 -0.921701 1.66147 0
M  V30 19047 H 1726.64 -3.39192 1.89424 0
M  V30 19048 H 1728.31 -2.04993 4.1325 0
M  V30 19049 H 1726.56 -1.86531 3.91649 0
M  V30 19050 H 1727.23 -3.45152 4.30783 0
M  V30 19051 H 1729.7 -3.41219 2.38136 0
M  V30 19052 H 1728.58 -4.74062 2.76688 0
M  V30 19053 H 1728.84 -4.28431 1.09083 0
M  V30 19054 N 1727.9 -1.19782 -1.02421 0
M  V30 19055 C 1728.85 -0.936475 -2.12915 0
M  V30 19056 C 1729.84 0.10941 -1.69046 0
M  V30 19057 O 1731.05 -0.04026 -1.79955 0
M  V30 19058 H 1727.42 -0.285462 -0.695712 0
M  V30 19059 H 1729.39 -1.87485 -2.32146 0
M  V30 19060 C 1728.14 -0.496786 -3.44133 0
M  V30 19061 H 1727.46 -1.29314 -3.78309 0
M  V30 19062 H 1728.9 -0.353073 -4.22527 0
M  V30 19063 C 1727.36 0.789792 -3.27512 0
M  V30 19064 O 1727.89 1.85009 -3.56559 0
M  V30 19065 N 1726.1 0.748849 -2.80786 0
M  V30 19066 H 1725.65 -0.114256 -2.57346 0
M  V30 19067 H 1725.6 1.61005 -2.70046 0
M  V30 19068 N 1729.38 1.21606 -1.00248 0
M  V30 19069 C 1730.63 1.89922 -0.679152 0
M  V30 19070 C 1730.94 1.78793 0.793246 0
M  V30 19071 O 1732.15 2.42113 1.22856 0
M  V30 19072 C 1730.6 3.40548 -1.16427 0
M  V30 19073 C 1730.21 3.60293 -2.66257 0
M  V30 19074 C 1731.95 4.14506 -0.915714 0
M  V30 19075 C 1729.86 5.04669 -3.08323 0
M  V30 19076 H 1728.79 0.711232 -0.250329 0
M  V30 19077 H 1731.44 1.37663 -1.21331 0
M  V30 19078 H 1729.82 3.92046 -0.558177 0
M  V30 19079 H 1731 3.19245 -3.32294 0
M  V30 19080 H 1729.31 2.99683 -2.891 0
M  V30 19081 H 1731.91 5.20932 -1.20558 0
M  V30 19082 H 1732.25 4.16037 0.148068 0
M  V30 19083 H 1732.79 3.69064 -1.48448 0
M  V30 19084 H 1729.52 5.08284 -4.13917 0
M  V30 19085 H 1729.04 5.46583 -2.46996 0
M  V30 19086 H 1730.72 5.7316 -3.00162 0
M  V30 19087 N 1730.86 0.776895 1.37121 0
M  V30 19088 C 1731.79 0.180738 2.32799 0
M  V30 19089 C 1732.77 -0.677284 1.56035 0
M  V30 19090 O 1733.95 -0.613687 1.84249 0
M  V30 19091 C 1731.08 -0.695148 3.40272 0
M  V30 19092 C 1730.04 0.0619772 4.27955 0
M  V30 19093 C 1729.36 -0.933688 5.26485 0
M  V30 19094 C 1730.66 1.24396 5.0727 0
M  V30 19095 H 1732.36 0.980039 2.82906 0
M  V30 19096 H 1729.9 0.472722 1.3602 0
M  V30 19097 H 1731.85 -1.12205 4.06187 0
M  V30 19098 H 1730.58 -1.52702 2.88703 0
M  V30 19099 H 1729.24 0.469717 3.63578 0
M  V30 19100 H 1728.89 -1.76025 4.71194 0
M  V30 19101 H 1728.59 -0.431608 5.86013 0
M  V30 19102 H 1730.11 -1.35942 5.95275 0
M  V30 19103 H 1731.52 0.89345 5.66295 0
M  V30 19104 H 1729.92 1.67848 5.76149 0
M  V30 19105 H 1730.99 2.04553 4.39643 0
M  V30 19106 N 1732.33 -1.48497 0.527859 0
M  V30 19107 C 1733.28 -2.2959 -0.23607 0
M  V30 19108 C 1734.25 -1.37232 -0.935762 0
M  V30 19109 O 1735.44 -1.66196 -0.937202 0
M  V30 19110 C 1732.58 -3.20551 -1.27832 0
M  V30 19111 C 1731.69 -4.27984 -0.58769 0
M  V30 19112 C 1730.82 -5.06128 -1.61269 0
M  V30 19113 C 1729.86 -6.05367 -0.905404 0
M  V30 19114 N 1729 -6.76577 -1.87585 0
M  V30 19115 H 1733.84 -2.94403 0.461635 0
M  V30 19116 H 1731.38 -1.45137 0.239493 0
M  V30 19117 H 1733.33 -3.71686 -1.89488 0
M  V30 19118 H 1731.96 -2.57665 -1.94444 0
M  V30 19119 H 1731.02 -3.80132 0.142759 0
M  V30 19120 H 1732.33 -4.9879 -0.0322348 0
M  V30 19121 H 1731.48 -5.61266 -2.30359 0
M  V30 19122 H 1730.22 -4.35157 -2.20204 0
M  V30 19123 H 1729.23 -5.49435 -0.200426 0
M  V30 19124 H 1730.45 -6.78335 -0.322197 0
M  V30 19125 H 1728.4 -6.08358 -2.45432 0
M  V30 19126 H 1728.31 -7.4345 -1.37178 0
M  V30 19127 H 1729.58 -7.36305 -2.5588 0
M  V30 19128 N 1733.81 -0.262893 -1.55392 0
M  V30 19129 C 1734.76 0.629853 -2.22039 0
M  V30 19130 C 1735.73 1.15915 -1.18966 0
M  V30 19131 O 1736.91 1.21069 -1.47468 0
M  V30 19132 C 1734.05 1.8138 -2.9359 0
M  V30 19133 C 1733.17 1.31952 -4.11355 0
M  V30 19134 C 1732.3 2.4643 -4.7058 0
M  V30 19135 C 1731.34 1.93944 -5.80562 0
M  V30 19136 N 1730.48 3.01848 -6.33902 0
M  V30 19137 H 1735.32 0.0548473 -2.9795 0
M  V30 19138 H 1732.85 0.0153072 -1.47092 0
M  V30 19139 H 1734.81 2.50955 -3.33283 0
M  V30 19140 H 1733.44 2.36103 -2.20125 0
M  V30 19141 H 1732.49 0.517281 -3.76866 0
M  V30 19142 H 1733.81 0.894993 -4.90705 0
M  V30 19143 H 1732.96 3.2402 -5.12929 0
M  V30 19144 H 1731.7 2.92193 -3.9048 0
M  V30 19145 H 1730.7 1.1483 -5.37675 0
M  V30 19146 H 1731.93 1.49132 -6.62523 0
M  V30 19147 H 1729.88 3.47015 -5.56701 0
M  V30 19148 H 1729.79 2.63775 -7.08491 0
M  V30 19149 H 1731.06 3.79449 -6.8091 0
M  V30 19150 N 1735.29 1.57597 0.0100073 0
M  V30 19151 C 1736.52 1.94402 0.708192 0
M  V30 19152 C 1736.93 0.864205 1.6786 0
M  V30 19153 O 1736.29 -0.157763 1.81817 0
M  V30 19154 C 1736.34 3.312 1.44876 0
M  V30 19155 O 1736.06 4.35035 0.517281 0
M  V30 19156 C 1737.56 3.82404 2.24237 0
M  V30 19157 H 1734.78 0.64116 0.197877 0
M  V30 19158 H 1737.33 2.04464 -0.0381373 0
M  V30 19159 H 1735.48 3.22476 2.1468 0
M  V30 19160 H 1735.9 5.14113 1.03868 0
M  V30 19161 H 1737.37 4.80578 2.71567 0
M  V30 19162 H 1737.85 3.14587 3.06483 0
M  V30 19163 H 1738.45 3.94271 1.59469 0
M  V30 19164 N 1736.77 -0.282606 1.55045 0
M  V30 19165 C 1737.7 -1.35347 1.90272 0
M  V30 19166 C 1738.68 -1.52001 0.763532 0
M  V30 19167 O 1739.86 -1.65204 1.02085 0
M  V30 19168 C 1736.99 -2.71464 2.16621 0
M  V30 19169 C 1735.95 -2.69554 3.32453 0
M  V30 19170 C 1735.27 -4.09132 3.4426 0
M  V30 19171 C 1736.57 -2.29669 4.69094 0
M  V30 19172 H 1738.27 -1.06113 2.79965 0
M  V30 19173 H 1735.81 -0.509018 1.34703 0
M  V30 19174 H 1737.77 -3.46482 2.39851 0
M  V30 19175 H 1736.49 -3.02261 1.23717 0
M  V30 19176 H 1735.15 -1.96993 3.09175 0
M  V30 19177 H 1734.8 -4.37136 2.4884 0
M  V30 19178 H 1734.5 -4.08751 4.22133 0
M  V30 19179 H 1736.02 -4.85903 3.69771 0
M  V30 19180 H 1737.44 -2.94407 4.91932 0
M  V30 19181 H 1735.83 -2.40467 5.49814 0
M  V30 19182 H 1736.9 -1.24796 4.68566 0
M  V30 19183 N 1738.25 -1.47815 -0.546675 0
M  V30 19184 C 1739.16 -1.63744 -1.68003 0
M  V30 19185 C 1740.17 -0.520118 -1.66044 0
M  V30 19186 O 1741.35 -0.789033 -1.853 0
M  V30 19187 C 1738.41 -1.65778 -3.04497 0
M  V30 19188 C 1737.47 -2.89015 -3.17441 0
M  V30 19189 C 1736.71 -2.90943 -4.47424 0
M  V30 19190 O 1736.93 -2.01769 -5.33522 0
M  V30 19191 O 1735.86 -3.82927 -4.64382 0
M  V30 19192 H 1739.69 -2.59665 -1.57505 0
M  V30 19193 H 1737.27 -1.31022 -0.717883 0
M  V30 19194 H 1739.16 -1.69734 -3.85705 0
M  V30 19195 H 1737.83 -0.730268 -3.15355 0
M  V30 19196 H 1736.74 -2.90599 -2.35591 0
M  V30 19197 H 1738.07 -3.81095 -3.11492 0
M  V30 19198 N 1739.72 0.794246 -1.36123 0
M  V30 19199 C 1740.63 1.93807 -1.32197 0
M  V30 19200 C 1741.65 1.7254 -0.2249 0
M  V30 19201 O 1742.83 1.9616 -0.456431 0
M  V30 19202 C 1739.89 3.28593 -1.10578 0
M  V30 19203 C 1738.95 3.6267 -2.29715 0
M  V30 19204 C 1738.18 4.91025 -2.09118 0
M  V30 19205 O 1738.41 5.6039 -1.06389 0
M  V30 19206 O 1737.34 5.23647 -2.96779 0
M  V30 19207 H 1741.17 2.00068 -2.28487 0
M  V30 19208 H 1738.75 0.933808 -1.16621 0
M  V30 19209 H 1740.63 4.0926 -1.0042 0
M  V30 19210 H 1739.31 3.23235 -0.17347 0
M  V30 19211 H 1738.22 2.82329 -2.4544 0
M  V30 19212 H 1739.55 3.72747 -3.21435 0
M  V30 19213 N 1741.2 1.20323 1.01785 0
M  V30 19214 C 1742.11 0.966603 2.13761 0
M  V30 19215 C 1743.13 -0.0771059 1.73829 0
M  V30 19216 O 1744.3 0.110054 2.01099 0
M  V30 19217 C 1741.37 0.520405 3.42772 0
M  V30 19218 C 1740.43 1.63482 3.96954 0
M  V30 19219 C 1739.66 1.20981 5.19807 0
M  V30 19220 O 1739.89 0.0779814 5.70347 0
M  V30 19221 O 1738.82 2.01674 5.67108 0
M  V30 19222 H 1742.65 1.90414 2.36593 0
M  V30 19223 H 1740.23 0.986997 1.12155 0
M  V30 19224 H 1742.11 0.280747 4.20464 0
M  V30 19225 H 1740.79 -0.388563 3.21359 0
M  V30 19226 H 1739.69 1.92874 3.20547 0
M  V30 19227 H 1741.03 2.52074 4.22752 0
M  V30 19228 N 1742.68 -1.21073 1.00892 0
M  V30 19229 C 1743.64 -2.21804 0.577543 0
M  V30 19230 C 1744.64 -1.56985 -0.348201 0
M  V30 19231 O 1745.83 -1.73653 -0.137947 0
M  V30 19232 C 1742.96 -3.40535 -0.157685 0
M  V30 19233 H 1744.16 -2.61483 1.46856 0
M  V30 19234 H 1741.71 -1.34402 0.79786 0
M  V30 19235 H 1742.45 -3.0635 -1.06397 0
M  V30 19236 H 1742.23 -3.88805 0.507238 0
M  V30 19237 H 1743.72 -4.152 -0.447109 0
M  V30 19238 N 1744.16 -0.784156 -1.36707 0
M  V30 19239 C 1745.11 -0.177044 -2.3012 0
M  V30 19240 C 1746.08 0.6761 -1.51717 0
M  V30 19241 O 1747.26 0.625878 -1.80243 0
M  V30 19242 C 1744.4 0.686337 -3.38206 0
M  V30 19243 C 1743.51 -0.184772 -4.31605 0
M  V30 19244 C 1742.65 0.684485 -5.26772 0
M  V30 19245 C 1741.69 -0.188402 -6.1181 0
M  V30 19246 N 1740.82 0.639537 -6.99181 0
M  V30 19247 H 1745.66 -0.979125 -2.81455 0
M  V30 19248 H 1743.2 -0.494419 -1.38542 0
M  V30 19249 H 1745.16 1.20185 -3.99514 0
M  V30 19250 H 1743.79 1.4539 -2.88204 0
M  V30 19251 H 1742.84 -0.818204 -3.71496 0
M  V30 19252 H 1744.15 -0.857567 -4.91373 0
M  V30 19253 H 1743.31 1.26601 -5.93344 0
M  V30 19254 H 1742.05 1.39092 -4.67445 0
M  V30 19255 H 1741.05 -0.782364 -5.44205 0
M  V30 19256 H 1742.28 -0.89236 -6.73212 0
M  V30 19257 H 1740.22 1.33036 -6.42369 0
M  V30 19258 H 1740.14 0.0243097 -7.55996 0
M  V30 19259 H 1741.41 1.20505 -7.70129 0
M  V30 19260 N 1745.64 1.48215 -0.535727 0
M  V30 19261 C 1746.86 2.06898 -0.0079465 0
M  V30 19262 C 1747.28 1.39148 1.27606 0
M  V30 19263 O 1746.64 0.480867 1.76051 0
M  V30 19264 C 1746.69 3.60868 0.213736 0
M  V30 19265 O 1746.41 4.26075 -1.01941 0
M  V30 19266 C 1747.91 4.36362 0.781245 0
M  V30 19267 H 1745.13 0.670028 -0.0361097 0
M  V30 19268 H 1747.67 1.90524 -0.743012 0
M  V30 19269 H 1745.83 3.76828 0.898866 0
M  V30 19270 H 1746.24 5.18306 -0.803716 0
M  V30 19271 H 1747.72 5.44847 0.885753 0
M  V30 19272 H 1748.19 4.01179 1.78751 0
M  V30 19273 H 1748.8 4.25094 0.132499 0
M  V30 19274 N 1747.11 0.27113 1.5525 0
M  V30 19275 C 1748.06 -0.632507 2.19051 0
M  V30 19276 C 1749.05 -1.12135 1.15388 0
M  V30 19277 O 1750.24 -1.06709 1.41217 0
M  V30 19278 C 1747.37 -1.81804 2.91208 0
M  V30 19279 C 1746.46 -1.34656 4.02155 0
M  V30 19280 N 1746.85 -0.590954 5.02336 0
M  V30 19281 C 1745.14 -1.62985 4.15153 0
M  V30 19282 C 1745.85 -0.343602 5.80684 0
M  V30 19283 N 1744.82 -0.914869 5.35846 0
M  V30 19284 H 1748.62 -0.0473244 2.93862 0
M  V30 19285 H 1746.14 0.0745107 1.62229 0
M  V30 19286 H 1748.13 -2.47666 3.35361 0
M  V30 19287 H 1746.79 -2.40721 2.17907 0
M  V30 19288 H 1747.81 -0.238682 5.1735 0
M  V30 19289 H 1744.48 -2.22867 3.53039 0
M  V30 19290 H 1745.87 0.261284 6.71392 0
M  V30 19291 N 1748.59 -1.576 -0.00164943 0
M  V30 19292 C 1749.5 -2.11748 -1.00995 0
M  V30 19293 C 1750.52 -1.06235 -1.37805 0
M  V30 19294 O 1751.69 -1.38127 -1.4657 0
M  V30 19295 C 1748.76 -2.60869 -2.2836 0
M  V30 19296 C 1747.82 -3.80976 -1.97879 0
M  V30 19297 C 1747.05 -4.27745 -3.19171 0
M  V30 19298 O 1747.28 -3.73856 -4.30799 0
M  V30 19299 O 1746.21 -5.19917 -3.03265 0
M  V30 19300 H 1750.04 -2.98117 -0.579667 0
M  V30 19301 H 1747.62 -1.47766 -0.220375 0
M  V30 19302 H 1749.5 -2.9267 -3.03187 0
M  V30 19303 H 1748.18 -1.77598 -2.7063 0
M  V30 19304 H 1747.09 -3.54151 -1.20533 0
M  V30 19305 H 1748.42 -4.65315 -1.60447 0
M  V30 19306 N 1750.07 0.274379 -1.55193 0
M  V30 19307 C 1751.03 1.32237 -1.87206 0
M  V30 19308 C 1752.03 1.4242 -0.74654 0
M  V30 19309 O 1753.22 1.41595 -1.01472 0
M  V30 19310 C 1750.36 2.7039 -2.0761 0
M  V30 19311 H 1751.55 1.05083 -2.80887 0
M  V30 19312 H 1749.1 0.512375 -1.47663 0
M  V30 19313 H 1749.84 3.02727 -1.16306 0
M  V30 19314 H 1749.62 2.64385 -2.89556 0
M  V30 19315 H 1751.11 3.46114 -2.33655 0
M  V30 19316 N 1751.55 1.48103 0.538828 0
M  V30 19317 C 1752.48 1.58044 1.65996 0
M  V30 19318 C 1753.49 0.465316 1.56009 0
M  V30 19319 O 1754.68 0.735769 1.62631 0
M  V30 19320 C 1751.78 1.48587 3.0459 0
M  V30 19321 C 1750.96 2.74987 3.40148 0
M  V30 19322 C 1750.01 2.59109 4.57984 0
M  V30 19323 O 1749.04 3.32974 4.61646 0
M  V30 19324 N 1750.24 1.68143 5.55615 0
M  V30 19325 H 1753.01 2.54726 1.57908 0
M  V30 19326 H 1750.57 1.44715 0.725901 0
M  V30 19327 H 1752.56 1.35673 3.81281 0
M  V30 19328 H 1751.13 0.599157 3.06804 0
M  V30 19329 H 1750.35 3.02531 2.52723 0
M  V30 19330 H 1751.64 3.58862 3.60687 0
M  V30 19331 H 1751.04 1.07317 5.55427 0
M  V30 19332 H 1749.59 1.61171 6.31559 0
M  V30 19333 N 1753.03 -0.787016 1.36542 0
M  V30 19334 C 1754.28 -1.54019 1.30234 0
M  V30 19335 C 1754.59 -1.95259 -0.115496 0
M  V30 19336 O 1755.79 -2.69827 -0.300966 0
M  V30 19337 C 1754.25 -2.78048 2.28512 0
M  V30 19338 C 1753.86 -2.43968 3.75744 0
M  V30 19339 C 1755.6 -3.56025 2.31185 0
M  V30 19340 C 1753.51 -3.64406 4.65792 0
M  V30 19341 H 1752.44 -0.578185 0.483961 0
M  V30 19342 H 1755.09 -0.8634 1.61919 0
M  V30 19343 H 1753.47 -3.47538 1.89824 0
M  V30 19344 H 1754.65 -1.82359 4.23181 0
M  V30 19345 H 1752.96 -1.79197 3.75869 0
M  V30 19346 H 1755.56 -4.45514 2.9567 0
M  V30 19347 H 1755.9 -3.94783 1.32107 0
M  V30 19348 H 1756.43 -2.93516 2.68502 0
M  V30 19349 H 1753.17 -3.30742 5.65942 0
M  V30 19350 H 1752.69 -4.25173 4.2307 0
M  V30 19351 H 1754.37 -4.31406 4.82181 0
M  V30 19352 N 1754.5 -1.20861 -1.01145 0
M  V30 19353 C 1755.44 -0.919862 -2.09931 0
M  V30 19354 C 1756.45 0.0944116 -1.62526 0
M  V30 19355 O 1757.64 -0.137265 -1.77971 0
M  V30 19356 C 1754.74 -0.358478 -3.36999 0
M  V30 19357 C 1753.91 -1.42553 -4.13518 0
M  V30 19358 C 1752.97 -0.874546 -5.18882 0
M  V30 19359 O 1752 -1.55646 -5.47506 0
M  V30 19360 N 1753.2 0.313462 -5.79653 0
M  V30 19361 H 1755.96 -1.85633 -2.35288 0
M  V30 19362 H 1753.52 -1.11299 -1.17577 0
M  V30 19363 H 1755.52 0.0243829 -4.04693 0
M  V30 19364 H 1754.09 0.482669 -3.08851 0
M  V30 19365 H 1753.31 -1.98251 -3.4072 0
M  V30 19366 H 1754.59 -2.14402 -4.61421 0
M  V30 19367 H 1753.99 0.884644 -5.5874 0
M  V30 19368 H 1752.55 0.637904 -6.48671 0
M  V30 19369 N 1755.98 1.20536 -1.01532 0
M  V30 19370 C 1756.89 2.26953 -0.594109 0
M  V30 19371 C 1757.91 1.70069 0.367771 0
M  V30 19372 O 1759.08 2.00093 0.229036 0
M  V30 19373 C 1756.15 3.46644 0.0622939 0
M  V30 19374 C 1755.21 4.18762 -0.945368 0
M  V30 19375 C 1754.44 5.32739 -0.320195 0
M  V30 19376 O 1754.67 5.63565 0.880407 0
M  V30 19377 O 1753.6 5.92912 -1.03629 0
M  V30 19378 H 1757.43 2.65196 -1.48003 0
M  V30 19379 H 1755.01 1.2713 -0.784752 0
M  V30 19380 H 1756.89 4.19211 0.428952 0
M  V30 19381 H 1755.57 3.10279 0.922428 0
M  V30 19382 H 1754.48 3.48372 -1.36337 0
M  V30 19383 H 1755.81 4.59064 -1.77543 0
M  V30 19384 N 1757.46 0.791395 1.36289 0
M  V30 19385 C 1758.39 0.137038 2.27788 0
M  V30 19386 C 1759.37 -0.688032 1.47326 0
M  V30 19387 O 1760.56 -0.658587 1.76621 0
M  V30 19388 C 1757.68 -0.811389 3.28838 0
M  V30 19389 C 1756.73 -0.0678631 4.26446 0
M  V30 19390 S 1757.56 1.25774 5.2052 0
M  V30 19391 C 1758.72 0.313368 6.25115 0
M  V30 19392 H 1758.95 0.912848 2.82939 0
M  V30 19393 H 1756.48 0.585708 1.42859 0
M  V30 19394 H 1758.44 -1.35313 3.87557 0
M  V30 19395 H 1757.1 -1.56046 2.72596 0
M  V30 19396 H 1756.3 -0.787597 4.97808 0
M  V30 19397 H 1755.9 0.403461 3.71817 0
M  V30 19398 H 1758.19 -0.507056 6.756 0
M  V30 19399 H 1759.13 0.995731 7.01064 0
M  V30 19400 H 1759.54 -0.0841768 5.64437 0
M  V30 19401 N 1758.94 -1.47929 0.54358 0
M  V30 19402 C 1760.36 -1.58312 0.202376 0
M  V30 19403 C 1760.56 -1.54394 -1.29479 0
M  V30 19404 O 1759.61 -1.44015 -2.07403 0
M  V30 19405 C 1760.92 -2.89389 0.816958 0
M  V30 19406 C 1762.47 -3.02946 0.786935 0
M  V30 19407 C 1762.95 -4.36704 1.38034 0
M  V30 19408 N 1764.44 -4.43306 1.34291 0
M  V30 19409 C 1765.17 -5.45339 1.77182 0
M  V30 19410 N 1764.67 -6.54255 2.27866 0
M  V30 19411 N 1766.46 -5.36302 1.68336 0
M  V30 19412 H 1758.61 -1.48719 1.51646 0
M  V30 19413 H 1760.88 -0.706966 0.631587 0
M  V30 19414 H 1760.58 -2.97953 1.86861 0
M  V30 19415 H 1760.46 -3.75989 0.30198 0
M  V30 19416 H 1762.84 -2.93988 -0.25599 0
M  V30 19417 H 1762.92 -2.17923 1.33953 0
M  V30 19418 H 1762.57 -4.46418 2.42226 0
M  V30 19419 H 1762.5 -5.20437 0.803308 0
M  V30 19420 H 1764.99 -3.65185 0.972033 0
M  V30 19421 H 1765.3 -7.28265 2.58552 0
M  V30 19422 H 1763.65 -6.55181 2.31868 0
M  V30 19423 H 1766.84 -4.50109 1.28527 0
M  V30 19424 H 1767.01 -6.15684 2.02082 0
M  V30 19425 N 1760.42 -0.27936 -1.55104 0
M  V30 19426 C 1761.35 0.639572 -2.20096 0
M  V30 19427 C 1762.36 1.11423 -1.18696 0
M  V30 19428 O 1763.55 1.0354 -1.45402 0
M  V30 19429 C 1760.65 1.88494 -2.81644 0
M  V30 19430 C 1759.82 1.55639 -4.08773 0
M  V30 19431 C 1758.88 2.65466 -4.54328 0
M  V30 19432 O 1757.91 2.31473 -5.20008 0
M  V30 19433 N 1759.11 3.95606 -4.24825 0
M  V30 19434 H 1761.88 0.0833048 -2.99584 0
M  V30 19435 H 1759.44 -0.100637 -1.61587 0
M  V30 19436 H 1761.43 2.61272 -3.09062 0
M  V30 19437 H 1760 2.35015 -2.06123 0
M  V30 19438 H 1759.22 0.662253 -3.88597 0
M  V30 19439 H 1760.51 1.31196 -4.91594 0
M  V30 19440 H 1759.91 4.26043 -3.72161 0
M  V30 19441 H 1758.46 4.64748 -4.57004 0
M  V30 19442 N 1761.9 1.57599 -0.0067085 0
M  V30 19443 C 1762.84 2.08842 0.982532 0
M  V30 19444 C 1763.81 0.985339 1.33717 0
M  V30 19445 O 1765 1.25818 1.43438 0
M  V30 19446 C 1762.14 2.60188 2.26708 0
M  V30 19447 C 1761.25 3.84422 1.97087 0
M  V30 19448 C 1760.39 4.24244 3.19672 0
M  V30 19449 C 1759.42 5.41297 2.85769 0
M  V30 19450 N 1758.56 5.76381 4.00911 0
M  V30 19451 H 1763.4 2.93092 0.538618 0
M  V30 19452 H 1760.94 1.44885 0.254293 0
M  V30 19453 H 1762.9 2.88038 3.01811 0
M  V30 19454 H 1761.53 1.78802 2.68756 0
M  V30 19455 H 1760.58 3.63439 1.12323 0
M  V30 19456 H 1761.89 4.6962 1.68102 0
M  V30 19457 H 1761.04 4.53413 4.03115 0
M  V30 19458 H 1759.78 3.37769 3.518 0
M  V30 19459 H 1758.79 5.11846 2.00734 0
M  V30 19460 H 1760.01 6.29454 2.54881 0
M  V30 19461 H 1757.96 4.92863 4.32923 0
M  V30 19462 H 1757.88 6.56168 3.75473 0
M  V30 19463 H 1759.14 6.10144 4.85123 0
M  V30 19464 N 1763.37 -0.266145 1.55336 0
M  V30 19465 C 1764.32 -1.33159 1.85075 0
M  V30 19466 C 1765.31 -1.44381 0.710142 0
M  V30 19467 O 1766.5 -1.47946 0.971644 0
M  V30 19468 C 1763.63 -2.69063 2.13214 0
M  V30 19469 C 1762.71 -2.61924 3.33552 0
M  V30 19470 N 1763.11 -2.24407 4.53294 0
M  V30 19471 C 1761.4 -2.92973 3.36278 0
M  V30 19472 C 1762.1 -2.27428 5.35398 0
M  V30 19473 N 1761.08 -2.66173 4.73976 0
M  V30 19474 H 1764.88 -1.03172 2.75196 0
M  V30 19475 H 1762.4 -0.474782 1.55305 0
M  V30 19476 H 1764.39 -3.45929 2.32677 0
M  V30 19477 H 1763.05 -2.99933 1.2438 0
M  V30 19478 H 1764.06 -1.9627 4.79269 0
M  V30 19479 H 1760.74 -3.2851 2.57658 0
M  V30 19480 H 1762.13 -2.00925 6.41154 0
M  V30 19481 N 1764.85 -1.48386 -0.530967 0
M  V30 19482 C 1766.08 -1.60269 -1.31638 0
M  V30 19483 C 1766.5 -0.262789 -1.86255 0
M  V30 19484 O 1765.86 0.765389 -1.64352 0
M  V30 19485 C 1765.91 -2.65163 -2.44379 0
M  V30 19486 O 1765.01 -2.22254 -3.47386 0
M  V30 19487 H 1764.35 -0.537456 -0.38992 0
M  V30 19488 H 1766.88 -1.94366 -0.639 0
M  V30 19489 H 1766.89 -2.86405 -2.90579 0
M  V30 19490 H 1765.57 -3.62439 -2.03987 0
M  V30 19491 H 1764.14 -2.11221 -3.07311 0
M  V30 19492 N 1766.33 0.779763 -1.36958 0
M  V30 19493 C 1767.26 1.90168 -1.27941 0
M  V30 19494 C 1768.27 1.61605 -0.196866 0
M  V30 19495 O 1769.46 1.72673 -0.452368 0
M  V30 19496 C 1766.56 3.25208 -0.953565 0
M  V30 19497 C 1765.74 3.81477 -2.13995 0
M  V30 19498 C 1764.8 4.94976 -1.78564 0
M  V30 19499 O 1763.82 5.10984 -2.50767 0
M  V30 19500 N 1765.02 5.75955 -0.725015 0
M  V30 19501 H 1767.79 1.98422 -2.24608 0
M  V30 19502 H 1765.35 0.958495 -1.30478 0
M  V30 19503 H 1767.34 3.98643 -0.697529 0
M  V30 19504 H 1765.91 3.12508 -0.0757105 0
M  V30 19505 H 1765.13 2.99915 -2.55822 0
M  V30 19506 H 1766.42 4.15803 -2.93233 0
M  V30 19507 H 1765.82 5.6556 -0.125699 0
M  V30 19508 H 1764.37 6.49651 -0.528823 0
M  V30 19509 N 1767.81 1.21396 1.00503 0
M  V30 19510 C 1768.77 0.974756 2.07439 0
M  V30 19511 C 1769.77 -0.0542142 1.60709 0
M  V30 19512 O 1770.96 0.183056 1.73236 0
M  V30 19513 C 1768.09 0.46989 3.37646 0
M  V30 19514 H 1769.29 1.92346 2.30094 0
M  V30 19515 H 1766.84 1.03095 1.17479 0
M  V30 19516 H 1767.57 -0.483735 3.20672 0
M  V30 19517 H 1767.36 1.2121 3.72895 0
M  V30 19518 H 1768.85 0.322393 4.16354 0
M  V30 19519 N 1769.29 -1.19996 1.0217 0
M  V30 19520 C 1770.53 -1.89776 0.715047 0
M  V30 19521 C 1770.86 -1.78971 -0.753862 0
M  V30 19522 O 1770.14 -1.17729 -1.54823 0
M  V30 19523 C 1770.42 -3.4098 1.15779 0
M  V30 19524 C 1770.28 -3.60693 2.68739 0
M  V30 19525 C 1771.59 -4.33953 0.733008 0
M  V30 19526 H 1768.71 -0.689148 0.261236 0
M  V30 19527 H 1771.36 -1.41287 1.27035 0
M  V30 19528 H 1769.51 -3.82407 0.68534 0
M  V30 19529 H 1771.18 -3.28484 3.23876 0
M  V30 19530 H 1769.42 -3.0399 3.09472 0
M  V30 19531 H 1770.09 -4.66704 2.94773 0
M  V30 19532 H 1772.57 -4.002 1.13925 0
M  V30 19533 H 1771.44 -5.38355 1.07077 0
M  V30 19534 H 1771.7 -4.4059 -0.365047 0
M  V30 19535 N 1770.76 -0.798611 -1.35867 0
M  V30 19536 C 1771.67 -0.204758 -2.33705 0
M  V30 19537 C 1772.69 0.648001 -1.61484 0
M  V30 19538 O 1773.87 0.561628 -1.93411 0
M  V30 19539 C 1770.93 0.643225 -3.40681 0
M  V30 19540 C 1769.99 -0.229099 -4.28688 0
M  V30 19541 C 1769.22 0.578508 -5.30555 0
M  V30 19542 O 1769.45 1.81382 -5.40793 0
M  V30 19543 O 1768.38 -0.0264291 -6.01894 0
M  V30 19544 H 1772.21 -1.01392 -2.86275 0
M  V30 19545 H 1769.79 -0.560242 -1.38498 0
M  V30 19546 H 1771.67 1.12648 -4.06065 0
M  V30 19547 H 1770.35 1.43012 -2.90395 0
M  V30 19548 H 1769.26 -0.759314 -3.66313 0
M  V30 19549 H 1770.59 -0.979736 -4.82351 0
M  V30 19550 N 1772.24 1.47639 -0.551417 0
M  V30 19551 C 1773.15 2.33722 0.202799 0
M  V30 19552 C 1774.17 1.47832 0.917699 0
M  V30 19553 O 1775.34 1.80772 0.887885 0
M  V30 19554 C 1772.41 3.24408 1.22313 0
M  V30 19555 C 1771.47 4.26184 0.51628 0
M  V30 19556 C 1770.7 5.12537 1.488 0
M  V30 19557 O 1770.93 5.01241 2.72238 0
M  V30 19558 O 1769.86 5.93269 1.01566 0
M  V30 19559 H 1773.69 2.99503 -0.50317 0
M  V30 19560 H 1771.27 1.46104 -0.312093 0
M  V30 19561 H 1773.15 3.80441 1.81225 0
M  V30 19562 H 1771.83 2.61262 1.91112 0
M  V30 19563 H 1770.73 3.73927 -0.113886 0
M  V30 19564 H 1772.07 4.92028 -0.130158 0
M  V30 19565 N 1773.72 0.287581 1.54954 0
M  V30 19566 C 1774.65 -0.587855 2.25979 0
M  V30 19567 C 1775.63 -1.14884 1.25442 0
M  V30 19568 O 1776.82 -1.18067 1.54188 0
M  V30 19569 C 1773.95 -1.76618 2.99037 0
M  V30 19570 C 1772.9 -1.33617 4.06609 0
M  V30 19571 C 1772.23 -2.59859 4.67309 0
M  V30 19572 C 1773.53 -0.477219 5.20115 0
M  V30 19573 H 1775.22 0.00450183 2.994 0
M  V30 19574 H 1772.77 0.00360521 1.44 0
M  V30 19575 H 1774.72 -2.38461 3.4744 0
M  V30 19576 H 1773.44 -2.38457 2.23172 0
M  V30 19577 H 1772.1 -0.74088 3.59036 0
M  V30 19578 H 1771.75 -3.19983 3.88098 0
M  V30 19579 H 1771.45 -2.31793 5.3995 0
M  V30 19580 H 1772.97 -3.22528 5.18467 0
M  V30 19581 H 1774.39 -1.00096 5.64494 0
M  V30 19582 H 1772.79 -0.290913 5.99394 0
M  V30 19583 H 1773.86 0.500993 4.82305 0
M  V30 19584 N 1775.2 -1.57593 0.0150662 0
M  V30 19585 C 1776.16 -2.08293 -0.956385 0
M  V30 19586 C 1777.16 -0.99521 -1.26302 0
M  V30 19587 O 1778.35 -1.25732 -1.2057 0
M  V30 19588 C 1775.48 -2.53702 -2.27701 0
M  V30 19589 H 1776.68 -2.95401 -0.517543 0
M  V30 19590 H 1774.23 -1.54558 -0.232706 0
M  V30 19591 H 1774.96 -1.69882 -2.76244 0
M  V30 19592 H 1774.75 -3.33155 -2.06761 0
M  V30 19593 H 1776.24 -2.93201 -2.9736 0
M  V30 19594 N 1776.68 0.257904 -1.55475 0
M  V30 19595 C 1777.59 1.34084 -1.92506 0
M  V30 19596 C 1778.6 1.53246 -0.824123 0
M  V30 19597 O 1779.78 1.67081 -1.12455 0
M  V30 19598 C 1776.84 2.67741 -2.20263 0
M  V30 19599 C 1775.9 2.57196 -3.43728 0
M  V30 19600 C 1775.14 3.84479 -3.7015 0
M  V30 19601 O 1775.36 4.85858 -2.98827 0
M  V30 19602 O 1774.29 3.83774 -4.63682 0
M  V30 19603 H 1778.12 1.05672 -2.84723 0
M  V30 19604 H 1775.71 0.457726 -1.42215 0
M  V30 19605 H 1777.59 3.46743 -2.39473 0
M  V30 19606 H 1776.26 2.95907 -1.31227 0
M  V30 19607 H 1775.17 1.76518 -3.29837 0
M  V30 19608 H 1776.5 2.33977 -4.33031 0
M  V30 19609 N 1778.15 1.48666 0.52309 0
M  V30 19610 C 1779.09 1.59796 1.64311 0
M  V30 19611 C 1780.1 0.481836 1.55506 0
M  V30 19612 O 1781.29 0.752977 1.61841 0
M  V30 19613 C 1778.39 1.5181 3.02997 0
M  V30 19614 C 1777.56 2.7858 3.37212 0
M  V30 19615 C 1776.62 2.63952 4.5521 0
M  V30 19616 O 1775.65 3.37851 4.58088 0
M  V30 19617 N 1776.85 1.74026 5.53801 0
M  V30 19618 H 1779.61 2.56386 1.55197 0
M  V30 19619 H 1777.17 1.45476 0.710511 0
M  V30 19620 H 1779.17 1.39709 3.7982 0
M  V30 19621 H 1777.74 0.631664 3.06152 0
M  V30 19622 H 1776.96 3.05194 2.495 0
M  V30 19623 H 1778.24 3.62668 3.56861 0
M  V30 19624 H 1777.64 1.13202 5.54258 0
M  V30 19625 H 1776.2 1.6786 6.29814 0
M  V30 19626 N 1779.63 -0.772489 1.37369 0
M  V30 19627 C 1780.56 -1.89969 1.35772 0
M  V30 19628 C 1781.54 -1.68586 0.226452 0
M  V30 19629 O 1782.73 -1.89454 0.426692 0
M  V30 19630 C 1779.86 -3.27242 1.16319 0
M  V30 19631 C 1778.81 -3.63187 2.2645 0
M  V30 19632 C 1778.14 -4.98992 1.92121 0
M  V30 19633 C 1779.44 -3.70013 3.6863 0
M  V30 19634 H 1781.13 -1.91564 2.30095 0
M  V30 19635 H 1778.68 -0.920241 1.10759 0
M  V30 19636 H 1780.63 -4.05734 1.13832 0
M  V30 19637 H 1779.36 -3.26078 0.184513 0
M  V30 19638 H 1778.01 -2.87001 2.28091 0
M  V30 19639 H 1777.66 -4.94368 0.927848 0
M  V30 19640 H 1777.36 -5.24012 2.65867 0
M  V30 19641 H 1778.89 -5.79886 1.91219 0
M  V30 19642 H 1780.3 -4.38659 3.69122 0
M  V30 19643 H 1778.7 -4.06529 4.41423 0
M  V30 19644 H 1779.77 -2.70694 4.02309 0
M  V30 19645 N 1781.11 -1.21927 -0.998575 0
M  V30 19646 C 1782.02 -1.00049 -2.12197 0
M  V30 19647 C 1783.04 0.0494414 -1.7393 0
M  V30 19648 O 1784.21 -0.142033 -2.00899 0
M  V30 19649 C 1781.28 -0.574871 -3.41901 0
M  V30 19650 C 1780.34 -1.69776 -3.94303 0
M  V30 19651 C 1779.57 -1.29236 -5.17816 0
M  V30 19652 O 1779.79 -0.168709 -5.7015 0
M  V30 19653 O 1778.73 -2.10671 -5.63827 0
M  V30 19654 H 1782.55 -1.94154 -2.33534 0
M  V30 19655 H 1780.14 -1.00472 -1.10571 0
M  V30 19656 H 1782.02 -0.347603 -4.19964 0
M  V30 19657 H 1780.7 0.337389 -3.21937 0
M  V30 19658 H 1779.6 -1.9795 -3.17438 0
M  V30 19659 H 1780.94 -2.58768 -4.18688 0
M  V30 19660 N 1782.59 1.19452 -1.02805 0
M  V30 19661 C 1783.52 2.22095 -0.566246 0
M  V30 19662 C 1784.53 1.58828 0.357442 0
M  V30 19663 O 1785.72 1.77835 0.153965 0
M  V30 19664 C 1782.82 3.38343 0.194294 0
M  V30 19665 C 1782 4.31195 -0.734131 0
M  V30 19666 C 1781.05 5.26197 -0.0191426 0
M  V30 19667 O 1780.08 5.65529 -0.645436 0
M  V30 19668 N 1781.28 5.66841 1.25187 0
M  V30 19669 H 1784.05 2.62342 -1.44902 0
M  V30 19670 H 1781.61 1.3411 -0.906978 0
M  V30 19671 H 1783.6 3.9891 0.682136 0
M  V30 19672 H 1782.17 2.96892 0.978474 0
M  V30 19673 H 1781.39 3.68423 -1.40208 0
M  V30 19674 H 1782.68 4.90144 -1.36516 0
M  V30 19675 H 1782.08 5.36918 1.78145 0
M  V30 19676 H 1780.63 6.29664 1.68423 0
M  V30 19677 N 1784.07 0.805805 1.35442 0
M  V30 19678 C 1785.29 0.398252 2.03031 0
M  V30 19679 C 1785.71 -0.990542 1.60729 0
M  V30 19680 O 1785.07 -1.63813 0.804461 0
M  V30 19681 C 1785.12 0.471116 3.58417 0
M  V30 19682 O 1784.84 1.80516 3.99181 0
M  V30 19683 C 1786.34 0.056272 4.43264 0
M  V30 19684 H 1783.56 0.161905 0.651174 0
M  V30 19685 H 1786.1 1.08921 1.73079 0
M  V30 19686 H 1784.26 -0.171584 3.8702 0
M  V30 19687 H 1784.67 1.76739 4.93825 0
M  V30 19688 H 1786.15 0.15837 5.51773 0
M  V30 19689 H 1786.62 -0.998308 4.27704 0
M  V30 19690 H 1787.23 0.672097 4.19956 0
M  V30 19691 N 1785.54 -1.47344 0.559239 0
M  V30 19692 C 1786.49 -2.30039 -0.187317 0
M  V30 19693 C 1787.46 -1.39186 -0.906443 0
M  V30 19694 O 1788.65 -1.68147 -0.901739 0
M  V30 19695 C 1785.79 -3.2319 -1.21004 0
M  V30 19696 C 1784.9 -4.29134 -0.496776 0
M  V30 19697 C 1784.03 -5.09435 -1.50497 0
M  V30 19698 C 1783.07 -6.07151 -0.776794 0
M  V30 19699 N 1782.21 -6.80404 -1.73192 0
M  V30 19700 H 1787.05 -2.93357 0.523978 0
M  V30 19701 H 1784.59 -1.44597 0.270225 0
M  V30 19702 H 1786.55 -3.75621 -1.81561 0
M  V30 19703 H 1785.18 -2.61732 -1.88935 0
M  V30 19704 H 1784.23 -3.79744 0.223359 0
M  V30 19705 H 1785.54 -4.98746 0.0735731 0
M  V30 19706 H 1784.69 -5.66026 -2.18402 0
M  V30 19707 H 1783.43 -4.3973 -2.10924 0
M  V30 19708 H 1782.44 -5.49736 -0.0838382 0
M  V30 19709 H 1783.66 -6.78866 -0.178239 0
M  V30 19710 H 1781.61 -6.13427 -2.32472 0
M  V30 19711 H 1781.53 -7.46193 -1.21377 0
M  V30 19712 H 1782.79 -7.41567 -2.40204 0
M  V30 19713 N 1787.02 -0.295795 -1.54799 0
M  V30 19714 C 1788.44 0.0577516 -1.59495 0
M  V30 19715 C 1788.64 1.52862 -1.31284 0
M  V30 19716 O 1787.69 2.28061 -1.08372 0
M  V30 19717 C 1789.01 -0.335503 -2.98822 0
M  V30 19718 C 1790.56 -0.283835 -3.1171 0
M  V30 19719 C 1791.03 -0.651835 -4.53338 0
M  V30 19720 N 1792.52 -0.604171 -4.59243 0
M  V30 19721 C 1793.26 -0.861453 -5.66892 0
M  V30 19722 N 1792.75 -1.18443 -6.826 0
M  V30 19723 N 1794.55 -0.788863 -5.56537 0
M  V30 19724 H 1786.7 -1.25444 -1.71399 0
M  V30 19725 H 1788.96 -0.50822 -0.80026 0
M  V30 19726 H 1788.67 -1.35923 -3.24373 0
M  V30 19727 H 1788.54 0.313443 -3.75895 0
M  V30 19728 H 1790.93 0.730641 -2.85912 0
M  V30 19729 H 1791.01 -0.967331 -2.36804 0
M  V30 19730 H 1790.65 -1.66409 -4.79865 0
M  V30 19731 H 1790.58 0.053676 -5.26573 0
M  V30 19732 H 1793.07 -0.365262 -3.76131 0
M  V30 19733 H 1793.39 -1.36686 -7.60616 0
M  V30 19734 H 1791.73 -1.22242 -6.84165 0
M  V30 19735 H 1794.92 -0.536231 -4.65018 0
M  V30 19736 H 1795.09 -0.992744 -6.4035 0
M  V30 19737 N 1788.5 1.57583 -0.0234236 0
M  V30 19738 C 1789.75 1.91848 0.657422 0
M  V30 19739 C 1790.08 0.899633 1.72105 0
M  V30 19740 O 1789.36 -0.0784409 1.94342 0
M  V30 19741 C 1789.64 3.36617 1.2791 0
M  V30 19742 C 1789.49 4.49235 0.225421 0
M  V30 19743 C 1790.81 3.81239 2.19874 0
M  V30 19744 H 1787.93 0.697677 0.23752 0
M  V30 19745 H 1790.57 1.89834 -0.0795169 0
M  V30 19746 H 1788.72 3.38465 1.90719 0
M  V30 19747 H 1790.39 4.59521 -0.404792 0
M  V30 19748 H 1788.64 4.31462 -0.449749 0
M  V30 19749 H 1789.31 5.47545 0.699906 0
M  V30 19750 H 1791.78 3.81092 1.67058 0
M  V30 19751 H 1790.66 4.8324 2.60328 0
M  V30 19752 H 1790.92 3.16421 3.08755 0
M  V30 19753 N 1789.98 -0.249655 1.5561 0
M  V30 19754 C 1790.93 -1.30906 1.90085 0
M  V30 19755 C 1791.9 -1.4796 0.754784 0
M  V30 19756 O 1793.08 -1.61988 1.00819 0
M  V30 19757 C 1790.22 -2.66 2.19859 0
M  V30 19758 C 1789.33 -2.56976 3.47257 0
M  V30 19759 C 1788.47 -3.84404 3.66615 0
M  V30 19760 C 1787.51 -3.69986 4.87623 0
M  V30 19761 N 1786.65 -4.89301 5.03517 0
M  V30 19762 H 1791.49 -1.00805 2.80432 0
M  V30 19763 H 1789.02 -0.486509 1.38822 0
M  V30 19764 H 1790.98 -3.44632 2.35126 0
M  V30 19765 H 1789.61 -2.94254 1.32719 0
M  V30 19766 H 1788.66 -1.69927 3.40337 0
M  V30 19767 H 1789.97 -2.42231 4.36034 0
M  V30 19768 H 1789.13 -4.7148 3.81826 0
M  V30 19769 H 1787.87 -4.02043 2.76066 0
M  V30 19770 H 1786.87 -2.81294 4.72391 0
M  V30 19771 H 1788.1 -3.53845 5.7963 0
M  V30 19772 H 1786.04 -5.07306 4.15905 0
M  V30 19773 H 1785.96 -4.77176 5.86378 0
M  V30 19774 H 1787.23 -5.77883 5.23137 0
M  V30 19775 N 1791.46 -1.48941 -0.515198 0
M  V30 19776 C 1792.42 -1.64062 -1.60051 0
M  V30 19777 C 1793.42 -0.513101 -1.52394 0
M  V30 19778 O 1794.61 -0.77924 -1.558 0
M  V30 19779 C 1791.74 -1.6247 -2.99694 0
M  V30 19780 H 1792.94 -2.60849 -1.47978 0
M  V30 19781 H 1790.49 -1.37759 -0.738378 0
M  V30 19782 H 1791.22 -0.672141 -3.17258 0
M  V30 19783 H 1791.01 -2.4434 -3.0666 0
M  V30 19784 H 1792.5 -1.76273 -3.78573 0
M  V30 19785 N 1792.94 0.765193 -1.37777 0
M  V30 19786 C 1793.88 1.90005 -1.34168 0
M  V30 19787 C 1794.88 1.6784 -0.229387 0
M  V30 19788 O 1796.08 1.7555 -0.39778 0
M  V30 19789 H 1792.46 0.624939 -0.418276 0
M  V30 19790 H 1794.43 1.90165 -2.29956 0
M  V30 19791 C 1793.18 3.27349 -1.17208 0
M  V30 19792 H 1792.5 3.44985 -2.02053 0
M  V30 19793 H 1793.94 4.07036 -1.18734 0
M  V30 19794 C 1792.4 3.3668 0.121835 0
M  V30 19795 O 1792.93 3.86258 1.10306 0
M  V30 19796 N 1791.14 2.90074 0.174753 0
M  V30 19797 H 1790.68 2.49918 -0.624397 0
M  V30 19798 H 1790.64 2.96697 1.0401 0
M  V30 19799 N 1794.41 1.22455 0.992094 0
M  V30 19800 C 1795.34 1.01961 2.10063 0
M  V30 19801 C 1796.32 -0.0597186 1.69995 0
M  V30 19802 O 1797.51 0.102655 1.93928 0
M  V30 19803 C 1794.64 0.597442 3.42123 0
M  V30 19804 C 1793.59 1.62279 3.96042 0
M  V30 19805 C 1792.92 1.05644 5.2416 0
M  V30 19806 C 1794.22 3.01296 4.26635 0
M  V30 19807 H 1795.91 1.94678 2.27466 0
M  V30 19808 H 1793.46 0.937422 1.09309 0
M  V30 19809 H 1795.41 0.441175 4.19084 0
M  V30 19810 H 1794.14 -0.365401 3.24549 0
M  V30 19811 H 1792.8 1.76685 3.21213 0
M  V30 19812 H 1792.44 0.0849267 5.02928 0
M  V30 19813 H 1792.14 1.74144 5.61202 0
M  V30 19814 H 1793.67 0.911774 6.03754 0
M  V30 19815 H 1795.08 2.9026 4.94391 0
M  V30 19816 H 1793.48 3.66928 4.74852 0
M  V30 19817 H 1794.55 3.51168 3.34378 0
M  V30 19818 N 1795.89 -1.18905 1.03437 0
M  V30 19819 C 1796.8 -2.25979 0.63014 0
M  V30 19820 C 1797.82 -1.70633 -0.340668 0
M  V30 19821 O 1798.99 -2.00432 -0.197174 0
M  V30 19822 C 1796.06 -3.46699 -0.00713795 0
M  V30 19823 C 1795.12 -4.17205 1.01187 0
M  V30 19824 C 1794.35 -5.32162 0.404909 0
M  V30 19825 O 1794.58 -5.64894 -0.790638 0
M  V30 19826 O 1793.51 -5.91188 1.13048 0
M  V30 19827 H 1797.34 -2.62808 1.52203 0
M  V30 19828 H 1794.92 -1.25865 0.804878 0
M  V30 19829 H 1796.8 -4.1984 -0.362204 0
M  V30 19830 H 1795.48 -3.11707 -0.872948 0
M  V30 19831 H 1794.38 -3.46159 1.41862 0
M  V30 19832 H 1795.72 -4.56181 1.84823 0
M  V30 19833 N 1797.37 -0.812977 -1.35013 0
M  V30 19834 C 1798.32 -0.225816 -2.29693 0
M  V30 19835 C 1799.29 0.643767 -1.53117 0
M  V30 19836 O 1800.47 0.587505 -1.8153 0
M  V30 19837 C 1797.61 0.614444 -3.39586 0
M  V30 19838 C 1796.72 -0.276281 -4.31116 0
M  V30 19839 C 1795.86 0.572595 -5.28105 0
M  V30 19840 C 1794.9 -0.318133 -6.11273 0
M  V30 19841 N 1794.04 0.491086 -7.0038 0
M  V30 19842 H 1798.88 -1.03861 -2.79315 0
M  V30 19843 H 1796.41 -0.523695 -1.37462 0
M  V30 19844 H 1798.37 1.11683 -4.01973 0
M  V30 19845 H 1797 1.39244 -2.91223 0
M  V30 19846 H 1796.05 -0.89682 -3.69677 0
M  V30 19847 H 1797.36 -0.961601 -4.89443 0
M  V30 19848 H 1796.52 1.13986 -5.95896 0
M  V30 19849 H 1795.26 1.29146 -4.7029 0
M  V30 19850 H 1794.26 -0.897622 -5.42423 0
M  V30 19851 H 1795.49 -1.03496 -6.71167 0
M  V30 19852 H 1793.43 1.19381 -6.45046 0
M  V30 19853 H 1793.35 -0.136054 -7.55878 0
M  V30 19854 H 1794.62 1.04143 -7.72512 0
M  V30 19855 N 1798.85 1.47045 -0.567045 0
M  V30 19856 C 1799.81 2.28607 0.164758 0
M  V30 19857 C 1800.81 1.37509 0.833542 0
M  V30 19858 O 1802 1.60043 0.687895 0
M  V30 19859 C 1799.13 3.17466 1.24211 0
M  V30 19860 H 1800.33 2.9478 -0.551814 0
M  V30 19861 H 1797.88 1.52897 -0.324376 0
M  V30 19862 H 1798.61 2.56006 1.99076 0
M  V30 19863 H 1798.4 3.8452 0.767243 0
M  V30 19864 H 1799.89 3.78894 1.75582 0
M  V30 19865 N 1800.33 0.304 1.5464 0
M  V30 19866 C 1801.27 -0.570762 2.23631 0
M  V30 19867 C 1802.24 -1.1272 1.21998 0
M  V30 19868 O 1803.43 -1.17117 1.50626 0
M  V30 19869 C 1800.57 -1.73533 2.98296 0
M  V30 19870 C 1799.68 -1.21 4.14708 0
M  V30 19871 C 1798.82 -2.33867 4.76948 0
M  V30 19872 C 1797.85 -1.78483 5.855 0
M  V30 19873 N 1796.99 -2.84935 6.41682 0
M  V30 19874 H 1801.83 0.024168 2.9799 0
M  V30 19875 H 1799.37 0.023697 1.47081 0
M  V30 19876 H 1801.33 -2.42031 3.39819 0
M  V30 19877 H 1799.96 -2.30184 2.26308 0
M  V30 19878 H 1799.01 -0.41718 3.78105 0
M  V30 19879 H 1800.32 -0.764576 4.92905 0
M  V30 19880 H 1799.47 -3.10306 5.21339 0
M  V30 19881 H 1798.21 -2.81737 3.9809 0
M  V30 19882 H 1797.22 -1.00534 5.4053 0
M  V30 19883 H 1798.44 -1.31513 6.66244 0
M  V30 19884 H 1796.39 -3.32133 5.65706 0
M  V30 19885 H 1796.31 -2.44898 7.15235 0
M  V30 19886 H 1797.57 -3.61263 6.90731 0
M  V30 19887 N 1801.8 -1.57568 0.0317802 0
M  V30 19888 C 1802.74 -2.07288 -0.977981 0
M  V30 19889 C 1803.75 -0.99682 -1.28714 0
M  V30 19890 O 1804.94 -1.27295 -1.25133 0
M  V30 19891 C 1802.04 -2.48469 -2.3047 0
M  V30 19892 C 1801.21 -3.79185 -2.18031 0
M  V30 19893 C 1800.27 -4.06888 -3.33659 0
M  V30 19894 O 1799.3 -4.771 -3.10426 0
M  V30 19895 N 1800.5 -3.57271 -4.57534 0
M  V30 19896 H 1803.26 -2.9454 -0.553743 0
M  V30 19897 H 1800.82 -1.61157 -0.154917 0
M  V30 19898 H 1802.82 -2.64092 -3.06655 0
M  V30 19899 H 1801.39 -1.66568 -2.64526 0
M  V30 19900 H 1800.61 -3.73333 -1.26556 0
M  V30 19901 H 1801.89 -4.64821 -2.06926 0
M  V30 19902 H 1801.29 -3.00474 -4.79303 0
M  V30 19903 H 1799.85 -3.78168 -5.30878 0
M  V30 19904 N 1803.28 0.241399 -1.5574 0
M  V30 19905 C 1804.51 0.986075 -1.81891 0
M  V30 19906 C 1804.93 1.78734 -0.608254 0
M  V30 19907 O 1804.28 1.77527 0.423129 0
M  V30 19908 C 1804.33 1.91956 -3.06325 0
M  V30 19909 O 1804.05 1.15071 -4.22718 0
M  V30 19910 C 1805.56 2.77977 -3.45317 0
M  V30 19911 H 1802.78 0.289913 -0.605137 0
M  V30 19912 H 1805.32 0.262622 -2.02807 0
M  V30 19913 H 1803.47 2.59721 -2.87443 0
M  V30 19914 H 1803.89 1.78261 -4.93278 0
M  V30 19915 H 1805.36 3.39215 -4.35474 0
M  V30 19916 H 1805.84 3.49369 -2.66154 0
M  V30 19917 H 1806.45 2.15655 -3.66569 0
M  V30 19918 N 1804.76 1.49212 0.507292 0
M  V30 19919 C 1805.69 1.68326 1.61829 0
M  V30 19920 C 1806.67 0.531969 1.61568 0
M  V30 19921 O 1807.86 0.767104 1.78407 0
M  V30 19922 C 1804.99 1.74394 3.0034 0
M  V30 19923 C 1803.94 2.89251 3.15465 0
M  V30 19924 C 1803.27 2.80426 4.55264 0
M  V30 19925 C 1804.57 4.30269 2.96085 0
M  V30 19926 H 1806.26 2.6134 1.46087 0
M  V30 19927 H 1803.81 1.25765 0.701367 0
M  V30 19928 H 1805.76 1.86353 3.77956 0
M  V30 19929 H 1804.48 0.779748 3.17155 0
M  V30 19930 H 1803.14 2.76884 2.40272 0
M  V30 19931 H 1802.79 1.81928 4.68947 0
M  V30 19932 H 1802.49 3.57511 4.66326 0
M  V30 19933 H 1804.01 2.94384 5.34949 0
M  V30 19934 H 1805.43 4.4335 3.63475 0
M  V30 19935 H 1803.83 5.08527 3.18623 0
M  V30 19936 H 1804.9 4.45151 1.92272 0
M  V30 19937 N 1806.24 -0.757876 1.38181 0
M  V30 19938 C 1807.15 -1.90234 1.37289 0
M  V30 19939 C 1808.16 -1.71883 0.270567 0
M  V30 19940 O 1809.34 -1.94881 0.508279 0
M  V30 19941 C 1806.41 -3.25546 1.19251 0
M  V30 19942 C 1805.47 -3.56452 2.39249 0
M  V30 19943 C 1804.7 -4.85308 2.22063 0
M  V30 19944 O 1804.92 -5.57373 1.2121 0
M  V30 19945 O 1803.86 -5.15594 3.10558 0
M  V30 19946 H 1807.68 -1.9394 2.33711 0
M  V30 19947 H 1805.27 -0.902559 1.19056 0
M  V30 19948 H 1807.15 -4.06454 1.11235 0
M  V30 19949 H 1805.82 -3.22661 0.259109 0
M  V30 19950 H 1804.73 -2.75723 2.52839 0
M  V30 19951 H 1806.06 -3.64094 3.31205 0
M  V30 19952 N 1807.72 -1.22979 -0.985586 0
M  V30 19953 C 1808.66 -1.00374 -2.09828 0
M  V30 19954 C 1809.66 0.0555734 -1.69309 0
M  V30 19955 O 1810.86 -0.0974909 -1.79736 0
M  V30 19956 H 1807.24 -0.307451 -0.686278 0
M  V30 19957 H 1809.21 -1.94776 -2.26064 0
M  V30 19958 C 1807.96 -0.606018 -3.42378 0
M  V30 19959 H 1807.28 -1.41284 -3.74004 0
M  V30 19960 H 1808.72 -0.487318 -4.2119 0
M  V30 19961 C 1807.18 0.685197 -3.29859 0
M  V30 19962 O 1807.71 1.73572 -3.62265 0
M  V30 19963 N 1805.92 0.65914 -2.83026 0
M  V30 19964 H 1805.46 -0.196071 -2.56853 0
M  V30 19965 H 1805.42 1.52332 -2.75031 0
M  V30 19966 N 1809.19 1.18355 -1.04066 0
M  V30 19967 C 1810.1 2.25641 -0.642115 0
M  V30 19968 C 1811.12 1.70811 0.331614 0
M  V30 19969 O 1812.3 2.00534 0.186542 0
M  V30 19970 C 1809.36 3.46698 -0.0112485 0
M  V30 19971 C 1808.42 4.16662 -1.03398 0
M  V30 19972 C 1807.66 5.3194 -0.433125 0
M  V30 19973 O 1807.88 5.65305 0.760669 0
M  V30 19974 O 1806.81 5.90581 -1.16182 0
M  V30 19975 H 1810.64 2.61997 -1.53595 0
M  V30 19976 H 1808.22 1.25437 -0.811542 0
M  V30 19977 H 1810.11 4.20027 0.339934 0
M  V30 19978 H 1808.78 3.12166 0.856405 0
M  V30 19979 H 1807.69 3.45402 -1.43696 0
M  V30 19980 H 1809.02 4.55194 -1.8724 0
M  V30 19981 N 1810.67 0.820125 1.3458 0
M  V30 19982 C 1812.09 0.505533 1.51382 0
M  V30 19983 C 1812.29 -0.970812 1.76571 0
M  V30 19984 O 1811.34 -1.75538 1.81501 0
M  V30 19985 C 1812.66 1.36264 2.68054 0
M  V30 19986 C 1814.21 1.35947 2.81935 0
M  V30 19987 C 1814.68 2.201 4.01647 0
M  V30 19988 N 1816.17 2.17708 4.08849 0
M  V30 19989 C 1816.91 2.79571 5.00627 0
M  V30 19990 N 1816.4 3.50413 5.97647 0
M  V30 19991 N 1818.2 2.6914 4.93477 0
M  V30 19992 H 1810.35 1.77607 1.16488 0
M  V30 19993 H 1812.61 0.756693 0.571068 0
M  V30 19994 H 1812.32 2.41093 2.56061 0
M  V30 19995 H 1812.19 1.02537 3.62996 0
M  V30 19996 H 1814.58 0.318971 2.93371 0
M  V30 19997 H 1814.66 1.7367 1.8781 0
M  V30 19998 H 1814.3 3.24198 3.90971 0
M  V30 19999 H 1814.23 1.79729 4.9498 0
M  V30 20000 H 1816.72 1.66175 3.39403 0
M  V30 20001 H 1817.04 3.9487 6.64303 0
M  V30 20002 H 1815.38 3.54519 5.9778 0
M  V30 20003 H 1818.57 2.13372 4.16641 0
M  V30 20004 H 1818.74 3.17639 5.64809 0
M  V30 20005 N 1812.15 -1.46743 0.574835 0
M  V30 20006 C 1813.4 -2.02019 0.057302 0
M  V30 20007 C 1813.72 -1.44965 -1.30423 0
M  V30 20008 O 1812.99 -0.631377 -1.85447 0
M  V30 20009 H 1811.57 -0.746778 0.018193 0
M  V30 20010 H 1814.23 -1.7994 0.748834 0
M  V30 20011 H 1813.33 -3.12095 -0.0176114 0
M  V30 20012 N 1813.63 -0.312197 -1.54477 0
M  V30 20013 C 1814.54 0.568096 -2.27618 0
M  V30 20014 C 1815.55 1.13892 -1.31547 0
M  V30 20015 O 1816.73 1.16131 -1.64546 0
M  V30 20016 C 1813.8 1.71843 -3.01116 0
M  V30 20017 C 1812.86 1.18056 -4.12748 0
M  V30 20018 C 1812.09 2.27607 -4.82733 0
M  V30 20019 O 1812.31 3.4773 -4.52151 0
M  V30 20020 O 1811.25 1.93667 -5.69892 0
M  V30 20021 H 1815.07 -0.0255513 -3.03689 0
M  V30 20022 H 1812.66 -0.0782698 -1.49195 0
M  V30 20023 H 1814.54 2.38839 -3.4718 0
M  V30 20024 H 1813.21 2.29847 -2.2793 0
M  V30 20025 H 1812.12 0.476007 -3.71059 0
M  V30 20026 H 1813.45 0.645802 -4.87945 0
M  V30 20027 N 1815.11 1.57549 -0.040136 0
M  V30 20028 C 1816.04 2.13912 0.936168 0
M  V30 20029 C 1817.02 1.05798 1.33194 0
M  V30 20030 O 1818.2 1.33685 1.40861 0
M  V30 20031 C 1815.33 2.67515 2.21479 0
M  V30 20032 C 1814.29 3.80513 1.95943 0
M  V30 20033 C 1813.61 4.20589 3.30165 0
M  V30 20034 C 1814.91 5.06124 1.28981 0
M  V30 20035 H 1816.61 2.9574 0.46674 0
M  V30 20036 H 1814.15 1.42262 0.223062 0
M  V30 20037 H 1816.11 3.05582 2.90168 0
M  V30 20038 H 1814.83 1.82864 2.70608 0
M  V30 20039 H 1813.49 3.42902 1.29669 0
M  V30 20040 H 1813.14 3.32904 3.77073 0
M  V30 20041 H 1812.84 4.96742 3.13881 0
M  V30 20042 H 1814.36 4.61248 4.00103 0
M  V30 20043 H 1815.77 5.41707 1.87687 0
M  V30 20044 H 1814.17 5.87347 1.2306 0
M  V30 20045 H 1815.24 4.84179 0.264286 0
M  V30 20046 N 1816.58 -0.233136 1.55866 0
M  V30 20047 C 1817.55 -1.27227 1.90646 0
M  V30 20048 C 1818.55 -1.4039 0.784038 0
M  V30 20049 O 1819.74 -1.38854 1.05191 0
M  V30 20050 C 1816.87 -2.64791 2.14706 0
M  V30 20051 H 1818.06 -0.975986 2.83575 0
M  V30 20052 H 1815.62 -0.473045 1.4897 0
M  V30 20053 H 1816.35 -2.99537 1.24291 0
M  V30 20054 H 1816.14 -2.56615 2.96464 0
M  V30 20055 H 1817.63 -3.39797 2.4275 0
M  V30 20056 N 1818.06 -1.49479 -0.499372 0
M  V30 20057 C 1819.01 -1.66756 -1.62158 0
M  V30 20058 C 1820.01 -0.533485 -1.6078 0
M  V30 20059 O 1821.21 -0.713167 -1.65269 0
M  V30 20060 H 1817.59 -0.525853 -0.537571 0
M  V30 20061 H 1819.56 -2.60947 -1.44738 0
M  V30 20062 C 1818.31 -1.75287 -3.00283 0
M  V30 20063 H 1817.63 -2.61928 -3.02049 0
M  V30 20064 H 1819.07 -1.91411 -3.78336 0
M  V30 20065 C 1817.53 -0.498056 -3.33198 0
M  V30 20066 O 1818.06 0.375528 -3.99941 0
M  V30 20067 N 1816.26 -0.360513 -2.88355 0
M  V30 20068 H 1815.81 -1.0724 -2.34216 0
M  V30 20069 H 1815.77 0.477981 -3.10745 0
M  V30 20070 N 1819.54 0.750537 -1.38581 0
M  V30 20071 C 1820.45 1.89503 -1.38296 0
M  V30 20072 C 1821.47 1.71738 -0.279678 0
M  V30 20073 O 1822.64 1.94608 -0.518607 0
M  V30 20074 C 1819.71 3.24909 -1.20976 0
M  V30 20075 C 1818.77 3.55178 -2.41136 0
M  V30 20076 C 1818 4.84124 -2.24633 0
M  V30 20077 O 1818.23 5.56722 -1.24164 0
M  V30 20078 O 1817.16 5.1394 -3.13288 0
M  V30 20079 H 1820.99 1.92698 -2.34737 0
M  V30 20080 H 1818.57 0.896233 -1.19533 0
M  V30 20081 H 1820.45 4.05858 -1.13389 0
M  V30 20082 H 1819.13 3.22519 -0.276217 0
M  V30 20083 H 1818.03 2.74378 -2.54298 0
M  V30 20084 H 1819.37 3.62332 -3.33131 0
M  V30 20085 N 1821.02 1.235 0.979051 0
M  V30 20086 C 1822.27 1.06949 1.72307 0
M  V30 20087 C 1822.6 -0.392491 1.90192 0
M  V30 20088 O 1821.87 -1.29054 1.45518 0
M  V30 20089 C 1822.16 1.79705 3.12055 0
M  V30 20090 C 1822.01 3.33583 3.01732 0
M  V30 20091 C 1823.33 1.56062 4.11501 0
M  V30 20092 H 1820.45 0.389917 0.625407 0
M  V30 20093 H 1823.09 1.52022 1.1397 0
M  V30 20094 H 1821.24 1.4139 3.61858 0
M  V30 20095 H 1822.91 3.81428 2.59443 0
M  V30 20096 H 1821.15 3.62547 2.38206 0
M  V30 20097 H 1821.83 3.79681 4.00683 0
M  V30 20098 H 1824.3 1.8937 3.70511 0
M  V30 20099 H 1823.18 2.09442 5.07371 0
M  V30 20100 H 1823.44 0.496276 4.39306 0
M  V30 20101 N 1822.5 -1.17802 1.04693 0
M  V30 20102 C 1823.44 -2.21648 0.643478 0
M  V30 20103 C 1824.41 -1.6233 -0.351858 0
M  V30 20104 O 1825.6 -1.89228 -0.244414 0
M  V30 20105 C 1822.74 -3.45095 0.019145 0
M  V30 20106 C 1821.85 -4.18725 1.06271 0
M  V30 20107 C 1820.99 -5.29644 0.406224 0
M  V30 20108 C 1820.03 -5.95055 1.43444 0
M  V30 20109 N 1819.16 -6.97499 0.802482 0
M  V30 20110 H 1824 -2.55513 1.53352 0
M  V30 20111 H 1821.54 -1.25518 0.767051 0
M  V30 20112 H 1823.5 -4.15642 -0.36023 0
M  V30 20113 H 1822.13 -3.1183 -0.834386 0
M  V30 20114 H 1821.18 -3.46943 1.55996 0
M  V30 20115 H 1822.49 -4.63486 1.84342 0
M  V30 20116 H 1821.65 -6.06694 -0.027012 0
M  V30 20117 H 1820.39 -4.86003 -0.406525 0
M  V30 20118 H 1819.39 -5.1674 1.87775 0
M  V30 20119 H 1820.62 -6.40778 2.249 0
M  V30 20120 H 1818.56 -6.55999 0.010153 0
M  V30 20121 H 1818.48 -7.40545 1.52081 0
M  V30 20122 H 1819.75 -7.78504 0.393852 0
M  V30 20123 N 1823.98 -0.827251 -1.34143 0
M  V30 20124 C 1825.22 -0.418003 -1.98445 0
M  V30 20125 C 1825.55 1.01737 -1.65418 0
M  V30 20126 O 1824.83 1.70932 -0.928042 0
M  V30 20127 C 1825.11 -0.625559 -3.54625 0
M  V30 20128 C 1824.97 -2.10736 -3.97379 0
M  V30 20129 C 1826.28 -0.0642701 -4.40053 0
M  V30 20130 H 1823.4 -0.15335 -0.72087 0
M  V30 20131 H 1826.05 -1.04062 -1.58969 0
M  V30 20132 H 1824.2 -0.095577 -3.88382 0
M  V30 20133 H 1825.87 -2.70131 -3.73934 0
M  V30 20134 H 1824.11 -2.59621 -3.47533 0
M  V30 20135 H 1824.78 -2.20338 -5.06118 0
M  V30 20136 H 1827.26 -0.517137 -4.12874 0
M  V30 20137 H 1826.13 -0.239267 -5.48378 0
M  V30 20138 H 1826.39 1.0311 -4.29908 0
M  V30 20139 N 1825.45 1.46436 -0.582609 0
M  V30 20140 C 1826.38 2.33089 0.138477 0
M  V30 20141 C 1827.36 1.45339 0.883777 0
M  V30 20142 O 1828.55 1.74156 0.859257 0
M  V30 20143 C 1825.68 3.27611 1.15276 0
M  V30 20144 C 1824.63 4.24801 0.522308 0
M  V30 20145 C 1823.96 5.0883 1.64306 0
M  V30 20146 C 1825.26 5.19496 -0.540449 0
M  V30 20147 H 1826.95 2.93629 -0.585013 0
M  V30 20148 H 1824.5 1.41196 -0.282781 0
M  V30 20149 H 1826.45 3.87087 1.66558 0
M  V30 20150 H 1825.18 2.65177 1.90653 0
M  V30 20151 H 1823.84 3.66587 0.0305728 0
M  V30 20152 H 1823.48 4.42782 2.38649 0
M  V30 20153 H 1823.18 5.74649 1.22686 0
M  V30 20154 H 1824.71 5.7117 2.15864 0
M  V30 20155 H 1826.12 5.73189 -0.112706 0
M  V30 20156 H 1824.52 5.93658 -0.876957 0
M  V30 20157 H 1825.59 4.63434 -1.42677 0
M  V30 20158 N 1826.93 0.320385 1.54309 0
M  V30 20159 C 1827.86 -0.539789 2.27175 0
M  V30 20160 C 1828.84 -1.12198 1.2785 0
M  V30 20161 O 1830.03 -1.1477 1.56657 0
M  V30 20162 C 1827.16 -1.70236 3.02716 0
M  V30 20163 C 1826.11 -1.24962 4.09351 0
M  V30 20164 C 1825.44 -2.49888 4.72715 0
M  V30 20165 C 1826.74 -0.366788 5.21011 0
M  V30 20166 H 1828.43 0.0680079 2.99323 0
M  V30 20167 H 1825.98 0.0341488 1.4396 0
M  V30 20168 H 1827.93 -2.31037 3.5242 0
M  V30 20169 H 1826.65 -2.33669 2.2818 0
M  V30 20170 H 1825.31 -0.664556 3.60526 0
M  V30 20171 H 1824.96 -3.11679 3.94798 0
M  V30 20172 H 1824.66 -2.20288 5.44745 0
M  V30 20173 H 1826.19 -3.11458 5.25192 0
M  V30 20174 H 1827.6 -0.881001 5.6649 0
M  V30 20175 H 1826 -0.163707 5.99877 0
M  V30 20176 H 1827.07 0.603185 4.81134 0
M  V30 20177 N 1828.41 -1.57525 0.0484906 0
M  V30 20178 C 1829.34 -2.08313 -0.955941 0
M  V30 20179 C 1830.35 -1.01042 -1.2765 0
M  V30 20180 O 1831.54 -1.28615 -1.23776 0
M  V30 20181 C 1828.64 -2.509 -2.27821 0
M  V30 20182 C 1827.82 -3.81476 -2.13997 0
M  V30 20183 C 1826.88 -4.10404 -3.29325 0
M  V30 20184 O 1825.9 -4.80366 -3.05348 0
M  V30 20185 N 1827.1 -3.62104 -4.53719 0
M  V30 20186 H 1829.87 -2.95111 -0.522472 0
M  V30 20187 H 1827.43 -1.61312 -0.137816 0
M  V30 20188 H 1829.42 -2.6733 -3.03837 0
M  V30 20189 H 1827.99 -1.69365 -2.62744 0
M  V30 20190 H 1827.21 -3.74654 -1.22589 0
M  V30 20191 H 1828.5 -4.6699 -2.01985 0
M  V30 20192 H 1827.9 -3.05541 -4.7609 0
M  V30 20193 H 1826.45 -3.83778 -5.26838 0
M  V30 20194 N 1829.89 0.224867 -1.55988 0
M  V30 20195 C 1831.14 0.947871 -1.78493 0
M  V30 20196 C 1831.46 1.85001 -0.616413 0
M  V30 20197 O 1830.73 1.92435 0.366847 0
M  V30 20198 H 1829.31 0.352987 -0.658338 0
M  V30 20199 H 1831.97 0.237519 -1.93447 0
M  V30 20200 H 1831.06 1.55664 -2.70509 0
M  V30 20201 N 1831.37 1.49742 0.491438 0
M  V30 20202 C 1832.31 1.67115 1.59189 0
M  V30 20203 C 1833.28 0.512523 1.57995 0
M  V30 20204 O 1834.47 0.740693 1.75836 0
M  V30 20205 C 1831.61 1.75258 2.97286 0
M  V30 20206 C 1830.72 3.02488 3.08424 0
M  V30 20207 C 1829.86 3.0155 4.37311 0
M  V30 20208 C 1828.89 4.2332 4.42116 0
M  V30 20209 N 1828.03 4.20238 5.62445 0
M  V30 20210 H 1832.87 2.61073 1.43683 0
M  V30 20211 H 1830.41 1.29435 0.69892 0
M  V30 20212 H 1832.37 1.77959 3.77341 0
M  V30 20213 H 1831 0.847568 3.11474 0
M  V30 20214 H 1830.05 3.09353 2.21371 0
M  V30 20215 H 1831.36 3.92479 3.07834 0
M  V30 20216 H 1830.51 3.02868 5.25695 0
M  V30 20217 H 1829.25 2.09354 4.4048 0
M  V30 20218 H 1828.26 4.22236 3.52132 0
M  V30 20219 H 1829.48 5.1672 4.40656 0
M  V30 20220 H 1827.43 3.30884 5.66438 0
M  V30 20221 H 1827.35 5.03974 5.63512 0
M  V30 20222 H 1828.61 4.25672 6.53011 0
M  V30 20223 N 1832.84 -0.743177 1.38977 0
M  V30 20224 C 1834.09 -1.49959 1.35486 0
M  V30 20225 C 1834.41 -1.94933 -0.0512044 0
M  V30 20226 O 1833.68 -1.684 -1.0009 0
M  V30 20227 H 1832.26 -0.556277 0.498562 0
M  V30 20228 H 1834.93 -0.882776 1.73762 0
M  V30 20229 H 1834.02 -2.38559 2.01237 0
M  V30 20230 N 1834.32 -1.24018 -0.972487 0
M  V30 20231 C 1835.6 -0.985099 -1.68983 0
M  V30 20232 C 1835.98 0.494006 -2.05238 0
M  V30 20233 O 1835.33 1.46715 -1.75177 0
M  V30 20234 C 1835.54 -1.90324 -2.92537 0
M  V30 20235 C 1836.89 -2.17134 -3.64881 0
M  V30 20236 O 1837.91 -1.87938 -3.02585 0
M  V30 20237 O 1836.77 -2.66691 -4.7701 0
M  V30 20238 H 1833.86 -0.372172 -0.738524 0
M  V30 20239 H 1836.41 -1.35095 -1.027 0
M  V30 20240 H 1835.18 -2.90278 -2.62401 0
M  V30 20241 H 1834.8 -1.54025 -3.66554 0
M  V30 20242 N 1835.8 1.17245 -1.05316 0
M  V30 20243 C 1837.03 1.91995 -0.784387 0
M  V30 20244 C 1837.45 1.76362 0.65408 0
M  V30 20245 O 1836.81 1.0822 1.45458 0
M  V30 20246 C 1836.86 3.41043 -1.1714 0
M  V30 20247 O 1835.96 4.11276 -0.304285 0
M  V30 20248 H 1835.3 0.598516 -0.287532 0
M  V30 20249 H 1837.83 1.48604 -1.40634 0
M  V30 20250 H 1837.84 3.91788 -1.13871 0
M  V30 20251 H 1836.52 3.51742 -2.21924 0
M  V30 20252 H 1835.09 3.70773 -0.39769 0
M  V30 20253 N 1837.28 0.834353 1.33702 0
M  V30 20254 C 1838.19 0.266649 2.3308 0
M  V30 20255 C 1839.2 -0.604958 1.63145 0
M  V30 20256 O 1840.38 -0.510151 1.94832 0
M  V30 20257 C 1837.45 -0.552673 3.42267 0
M  V30 20258 C 1836.51 0.342677 4.2793 0
M  V30 20259 C 1835.74 -0.437637 5.31903 0
M  V30 20260 O 1835.96 -1.6698 5.45412 0
M  V30 20261 O 1834.9 0.186001 6.01613 0
M  V30 20262 H 1838.72 1.08946 2.83486 0
M  V30 20263 H 1836.31 0.596765 1.36964 0
M  V30 20264 H 1838.19 -1.01842 4.08908 0
M  V30 20265 H 1836.86 -1.35263 2.94085 0
M  V30 20266 H 1835.77 0.856168 3.64171 0
M  V30 20267 H 1837.1 1.10728 4.79583 0
M  V30 20268 N 1838.76 -1.46125 0.590367 0
M  V30 20269 C 1839.71 -2.27441 -0.159552 0
M  V30 20270 C 1840.69 -1.3632 -0.854728 0
M  V30 20271 O 1841.88 -1.60439 -0.74756 0
M  V30 20272 C 1839.01 -3.22834 -1.16761 0
M  V30 20273 C 1838.1 -4.21441 -0.474153 0
M  V30 20274 N 1838.49 -5.03569 0.474569 0
M  V30 20275 C 1836.79 -4.40086 -0.723925 0
M  V30 20276 C 1837.49 -5.74996 0.880574 0
M  V30 20277 N 1836.46 -5.43121 0.228047 0
M  V30 20278 H 1840.27 -2.88332 0.569375 0
M  V30 20279 H 1837.78 -1.57068 0.412732 0
M  V30 20280 H 1839.78 -3.79806 -1.7191 0
M  V30 20281 H 1838.44 -2.63503 -1.89727 0
M  V30 20282 H 1839.45 -5.10869 0.850477 0
M  V30 20283 H 1836.12 -3.91896 -1.43958 0
M  V30 20284 H 1837.51 -6.51018 1.66207 0
M  V30 20285 N 1840.23 -0.328564 -1.54137 0
M  V30 20286 C 1841.18 0.535112 -2.24511 0
M  V30 20287 C 1842.15 1.10765 -1.23776 0
M  V30 20288 O 1843.34 1.14706 -1.52471 0
M  V30 20289 C 1840.48 1.68765 -3.01019 0
M  V30 20290 C 1839.59 1.14387 -4.16581 0
M  V30 20291 C 1838.72 2.26249 -4.80609 0
M  V30 20292 C 1837.76 1.69146 -5.88265 0
M  V30 20293 N 1836.9 2.74691 -6.46134 0
M  V30 20294 H 1841.74 -0.0715726 -2.97914 0
M  V30 20295 H 1839.28 -0.0470933 -1.47025 0
M  V30 20296 H 1841.24 2.36594 -3.43626 0
M  V30 20297 H 1839.87 2.26555 -2.29941 0
M  V30 20298 H 1838.92 0.356974 -3.78721 0
M  V30 20299 H 1840.23 0.686063 -4.94059 0
M  V30 20300 H 1839.38 3.01973 -5.2621 0
M  V30 20301 H 1838.12 2.75368 -4.02522 0
M  V30 20302 H 1837.13 0.919217 -5.42061 0
M  V30 20303 H 1838.35 1.20897 -6.68252 0
M  V30 20304 H 1836.3 3.23091 -5.70918 0
M  V30 20305 H 1836.22 2.33488 -7.19041 0
M  V30 20306 H 1837.48 3.50228 -6.96391 0
M  V30 20307 N 1841.71 1.57497 -0.0568439 0
M  V30 20308 C 1843.13 1.5676 0.299732 0
M  V30 20309 C 1843.33 1.065 1.71056 0
M  V30 20310 O 1842.38 0.72414 2.41893 0
M  V30 20311 C 1843.7 3.00448 0.123023 0
M  V30 20312 C 1845.25 3.124 0.193697 0
M  V30 20313 C 1845.72 4.57977 0.0454499 0
M  V30 20314 N 1847.21 4.63089 0.101543 0
M  V30 20315 C 1847.95 5.73399 0.0110306 0
M  V30 20316 N 1847.44 6.92674 -0.132152 0
M  V30 20317 N 1849.24 5.6206 0.0670216 0
M  V30 20318 H 1841.39 1.88488 -0.979078 0
M  V30 20319 H 1843.65 0.868264 -0.380554 0
M  V30 20320 H 1843.36 3.41276 -0.849919 0
M  V30 20321 H 1843.23 3.66751 0.881672 0
M  V30 20322 H 1845.62 2.71468 1.15712 0
M  V30 20323 H 1845.7 2.48765 -0.595802 0
M  V30 20324 H 1845.34 4.99596 -0.914669 0
M  V30 20325 H 1845.27 5.19626 0.854166 0
M  V30 20326 H 1847.76 3.77309 0.211226 0
M  V30 20327 H 1848.08 7.72557 -0.193769 0
M  V30 20328 H 1846.42 6.94799 -0.167314 0
M  V30 20329 H 1849.61 4.67763 0.177478 0
M  V30 20330 H 1849.78 6.48 -0.00697432 0
M  V30 20331 N 1843.19 -0.216591 1.56105 0
M  V30 20332 C 1844.14 -1.26844 1.92819 0
M  V30 20333 C 1845.11 -1.46326 0.785999 0
M  V30 20334 O 1846.29 -1.59813 1.04232 0
M  V30 20335 C 1843.43 -2.61276 2.25452 0
M  V30 20336 C 1842.55 -2.49552 3.5263 0
M  V30 20337 C 1841.68 -3.76541 3.74686 0
M  V30 20338 C 1840.72 -3.5956 4.95362 0
M  V30 20339 N 1839.86 -4.7851 5.13782 0
M  V30 20340 H 1844.7 -0.948341 2.82508 0
M  V30 20341 H 1842.23 -0.456953 1.39823 0
M  V30 20342 H 1844.19 -3.39567 2.42384 0
M  V30 20343 H 1842.82 -2.91373 1.38931 0
M  V30 20344 H 1841.87 -1.6267 3.43864 0
M  V30 20345 H 1843.19 -2.32927 4.41074 0
M  V30 20346 H 1842.34 -4.63275 3.91741 0
M  V30 20347 H 1841.08 -3.96097 2.84532 0
M  V30 20348 H 1840.08 -2.71211 4.78252 0
M  V30 20349 H 1841.31 -3.41471 5.87005 0
M  V30 20350 H 1839.25 -4.9837 4.26572 0
M  V30 20351 H 1839.17 -4.64631 5.96368 0
M  V30 20352 H 1840.44 -5.66656 5.35277 0
M  V30 20353 N 1844.67 -1.5 -0.48349 0
M  V30 20354 C 1845.62 -1.67957 -1.58301 0
M  V30 20355 C 1846.59 -0.520895 -1.57721 0
M  V30 20356 O 1847.77 -0.750008 -1.75441 0
M  V30 20357 C 1844.91 -1.76832 -2.96352 0
M  V30 20358 C 1844.02 -3.04119 -3.06815 0
M  V30 20359 C 1843.16 -3.03865 -4.35706 0
M  V30 20360 C 1842.2 -4.25658 -4.39865 0
M  V30 20361 N 1841.33 -4.23214 -5.60209 0
M  V30 20362 H 1846.17 -2.61832 -1.42296 0
M  V30 20363 H 1843.71 -1.29804 -0.692045 0
M  V30 20364 H 1845.67 -1.79958 -3.76392 0
M  V30 20365 H 1844.3 -0.864074 -3.1102 0
M  V30 20366 H 1843.35 -3.10523 -2.19727 0
M  V30 20367 H 1844.66 -3.94106 -3.05748 0
M  V30 20368 H 1843.82 -3.05652 -5.24082 0
M  V30 20369 H 1842.56 -2.11687 -4.39363 0
M  V30 20370 H 1841.56 -4.24097 -3.49888 0
M  V30 20371 H 1842.79 -5.19049 -4.37909 0
M  V30 20372 H 1840.73 -3.33883 -5.64675 0
M  V30 20373 H 1840.65 -5.06956 -5.60832 0
M  V30 20374 H 1841.92 -4.29129 -6.50744 0
M  V30 20375 N 1846.15 0.735796 -1.39369 0
M  V30 20376 C 1847.39 1.49756 -1.36752 0
M  V30 20377 C 1847.73 1.94165 0.036815 0
M  V30 20378 O 1847 1.66728 1.00159 0
M  V30 20379 C 1847.28 2.73779 -2.33916 0
M  V30 20380 C 1847.14 2.35394 -3.83288 0
M  V30 20381 C 1848.46 3.75875 -2.28924 0
M  V30 20382 H 1845.57 0.543236 -0.49806 0
M  V30 20383 H 1848.22 0.841381 -1.70355 0
M  V30 20384 H 1846.37 3.29768 -2.05391 0
M  V30 20385 H 1848.04 1.85043 -4.2256 0
M  V30 20386 H 1846.28 1.67632 -4.00102 0
M  V30 20387 H 1846.95 3.24206 -4.4676 0
M  V30 20388 H 1849.43 3.29469 -2.54144 0
M  V30 20389 H 1848.3 4.60321 -2.98991 0
M  V30 20390 H 1848.57 4.22739 -1.29399 0
M  V30 20391 N 1847.63 1.24532 0.965897 0
M  V30 20392 C 1848.54 1.0564 2.09469 0
M  V30 20393 C 1849.55 -0.00330962 1.74 0
M  V30 20394 O 1850.73 0.195248 2.00451 0
M  V30 20395 C 1847.79 0.665318 3.40256 0
M  V30 20396 C 1846.85 1.80171 3.89663 0
M  V30 20397 C 1846.09 1.42919 5.14208 0
M  V30 20398 O 1846.31 0.319815 5.69503 0
M  V30 20399 O 1845.24 2.25546 5.58044 0
M  V30 20400 H 1849.07 2.00277 2.28304 0
M  V30 20401 H 1846.65 1.03368 1.07868 0
M  V30 20402 H 1848.54 0.458827 4.18895 0
M  V30 20403 H 1847.21 -0.251914 3.22718 0
M  V30 20404 H 1846.12 2.06296 3.12078 0
M  V30 20405 H 1847.45 2.69778 4.11681 0
M  V30 20406 N 1849.1 -1.16685 1.05936 0
M  V30 20407 C 1850.07 -2.19155 0.671098 0
M  V30 20408 C 1851.07 -1.5832 -0.281305 0
M  V30 20409 O 1852.26 -1.74082 -0.0641708 0
M  V30 20410 C 1849.39 -3.40897 -0.0131101 0
M  V30 20411 H 1850.58 -2.55019 1.57815 0
M  V30 20412 H 1848.13 -1.30897 0.854147 0
M  V30 20413 H 1848.87 -3.10587 -0.933077 0
M  V30 20414 H 1848.65 -3.86304 0.671687 0
M  V30 20415 H 1850.14 -4.16722 -0.270606 0
M  V30 20416 N 1850.58 -0.841432 -1.33258 0
M  V30 20417 C 1851.51 -0.233859 -2.28004 0
M  V30 20418 C 1852.53 0.586872 -1.51854 0
M  V30 20419 O 1853.72 0.413523 -1.73644 0
M  V30 20420 C 1850.82 0.68919 -3.31818 0
M  V30 20421 C 1849.99 -0.0927681 -4.37302 0
M  V30 20422 C 1849.05 0.754015 -5.2077 0
M  V30 20423 O 1848.07 0.192293 -5.68875 0
M  V30 20424 N 1849.28 2.07095 -5.42302 0
M  V30 20425 H 1852.04 -1.04794 -2.80782 0
M  V30 20426 H 1849.6 -0.70014 -1.45978 0
M  V30 20427 H 1851.59 1.26071 -3.84562 0
M  V30 20428 H 1850.16 1.40397 -2.79298 0
M  V30 20429 H 1849.38 -0.845677 -3.85022 0
M  V30 20430 H 1850.67 -0.63036 -5.0488 0
M  V30 20431 H 1850.07 2.55082 -5.04925 0
M  V30 20432 H 1848.63 2.5909 -5.98093 0
M  V30 20433 N 1852.06 1.4581 -0.598108 0
M  V30 20434 C 1852.99 2.33223 0.113747 0
M  V30 20435 C 1853.97 1.46268 0.868312 0
M  V30 20436 O 1855.16 1.75058 0.840737 0
M  V30 20437 C 1852.29 3.28815 1.11795 0
M  V30 20438 C 1851.24 4.25331 0.477223 0
M  V30 20439 C 1850.57 5.10544 1.589 0
M  V30 20440 C 1851.87 5.18894 -0.595518 0
M  V30 20441 H 1853.56 2.92992 -0.616123 0
M  V30 20442 H 1851.11 1.40888 -0.297741 0
M  V30 20443 H 1853.06 3.88832 1.62443 0
M  V30 20444 H 1851.78 2.67185 1.87829 0
M  V30 20445 H 1850.44 3.66599 -0.00831044 0
M  V30 20446 H 1850.09 4.45288 2.33939 0
M  V30 20447 H 1849.79 5.75918 1.16584 0
M  V30 20448 H 1851.31 5.73427 2.09794 0
M  V30 20449 H 1852.73 5.73037 -0.173494 0
M  V30 20450 H 1851.12 5.92694 -0.939873 0
M  V30 20451 H 1852.19 4.61895 -1.47584 0
M  V30 20452 N 1853.54 0.336733 1.53961 0
M  V30 20453 C 1854.47 -0.557444 2.22318 0
M  V30 20454 C 1855.48 -1.0694 1.2275 0
M  V30 20455 O 1856.67 -0.980725 1.49144 0
M  V30 20456 C 1853.77 -1.77911 2.88445 0
M  V30 20457 C 1852.94 -1.4036 4.14268 0
M  V30 20458 C 1852 -2.48421 4.63868 0
M  V30 20459 O 1851.03 -2.12014 5.28241 0
M  V30 20460 N 1852.23 -3.79567 4.39215 0
M  V30 20461 H 1855 0.0279413 2.99687 0
M  V30 20462 H 1852.56 0.16054 1.61102 0
M  V30 20463 H 1854.55 -2.49621 3.18546 0
M  V30 20464 H 1853.12 -2.27203 2.14703 0
M  V30 20465 H 1852.34 -0.517571 3.90787 0
M  V30 20466 H 1853.63 -1.1286 4.96125 0
M  V30 20467 H 1853.03 -4.11937 3.87717 0
M  V30 20468 H 1851.58 -4.47466 4.73938 0
M  V30 20469 N 1855.02 -1.57465 0.0651956 0
M  V30 20470 C 1855.93 -2.15841 -0.919235 0
M  V30 20471 C 1856.94 -1.11984 -1.33175 0
M  V30 20472 O 1858.12 -1.44219 -1.4058 0
M  V30 20473 C 1855.18 -2.7032 -2.1709 0
M  V30 20474 C 1854.24 -3.89026 -1.81542 0
M  V30 20475 C 1853.48 -4.40897 -3.00742 0
M  V30 20476 O 1853.7 -3.91792 -4.14555 0
M  V30 20477 O 1852.63 -5.32312 -2.80941 0
M  V30 20478 H 1856.46 -3.00307 -0.452704 0
M  V30 20479 H 1854.04 -1.48567 -0.157504 0
M  V30 20480 H 1855.93 -3.05266 -2.90501 0
M  V30 20481 H 1854.6 -1.88917 -2.62854 0
M  V30 20482 H 1853.51 -3.58944 -1.05404 0
M  V30 20483 H 1854.84 -4.71701 -1.40567 0
M  V30 20484 N 1856.49 0.20831 -1.56217 0
M  V30 20485 C 1857.42 1.26115 -1.96513 0
M  V30 20486 C 1858.4 1.48185 -0.835183 0
M  V30 20487 O 1859.59 1.60145 -1.09851 0
M  V30 20488 C 1856.72 2.6082 -2.29326 0
M  V30 20489 C 1855.67 2.53385 -3.44935 0
M  V30 20490 C 1855 3.92241 -3.63388 0
M  V30 20491 C 1856.3 2.07026 -4.79518 0
M  V30 20492 H 1857.99 0.92635 -2.84709 0
M  V30 20493 H 1855.54 0.444169 -1.36979 0
M  V30 20494 H 1857.49 3.34644 -2.56109 0
M  V30 20495 H 1856.22 2.96014 -1.37997 0
M  V30 20496 H 1854.88 1.82018 -3.18222 0
M  V30 20497 H 1854.52 4.24766 -2.69413 0
M  V30 20498 H 1854.22 3.88145 -4.41154 0
M  V30 20499 H 1855.75 4.67707 -3.92533 0
M  V30 20500 H 1857.16 2.70601 -5.05419 0
M  V30 20501 H 1855.56 2.13961 -5.60661 0
M  V30 20502 H 1856.63 1.02298 -4.73986 0
M  V30 20503 N 1857.97 1.50255 0.475528 0
M  V30 20504 C 1858.9 1.64942 1.59144 0
M  V30 20505 C 1859.92 0.531065 1.53895 0
M  V30 20506 O 1861.11 0.804084 1.59364 0
M  V30 20507 C 1858.21 1.61372 2.98014 0
M  V30 20508 C 1857.38 2.89167 3.28179 0
M  V30 20509 C 1856.44 2.783 4.46582 0
M  V30 20510 O 1855.46 3.52254 4.47108 0
M  V30 20511 N 1856.67 1.91557 5.47984 0
M  V30 20512 H 1859.43 2.61194 1.46962 0
M  V30 20513 H 1856.99 1.47663 0.663869 0
M  V30 20514 H 1858.98 1.51722 3.75183 0
M  V30 20515 H 1857.55 0.728744 3.03987 0
M  V30 20516 H 1856.77 3.12977 2.39664 0
M  V30 20517 H 1858.06 3.73838 3.45142 0
M  V30 20518 H 1857.46 1.30778 5.50376 0
M  V30 20519 H 1856.02 1.87813 6.24155 0
M  V30 20520 N 1859.45 -0.728395 1.39758 0
M  V30 20521 C 1860.7 -1.49028 1.37544 0
M  V30 20522 C 1861.03 -1.94182 -0.0265175 0
M  V30 20523 O 1860.3 -1.67257 -0.992737 0
M  V30 20524 C 1860.59 -2.72535 2.35365 0
M  V30 20525 C 1860.44 -2.33358 3.84531 0
M  V30 20526 C 1861.76 -3.74656 2.30914 0
M  V30 20527 H 1858.88 -0.540587 0.500934 0
M  V30 20528 H 1861.52 -0.832335 1.70799 0
M  V30 20529 H 1859.67 -3.28674 2.07137 0
M  V30 20530 H 1861.34 -1.828 4.23535 0
M  V30 20531 H 1859.58 -1.65508 4.00986 0
M  V30 20532 H 1860.26 -3.21832 4.48473 0
M  V30 20533 H 1862.73 -3.28117 2.55888 0
M  V30 20534 H 1861.61 -4.58729 3.01428 0
M  V30 20535 H 1861.87 -4.22047 1.31639 0
M  V30 20536 N 1860.93 -1.25042 -0.959279 0
M  V30 20537 C 1861.87 -1.0502 -2.05522 0
M  V30 20538 C 1862.84 0.039194 -1.66054 0
M  V30 20539 O 1864.03 -0.11708 -1.9044 0
M  V30 20540 C 1861.17 -0.670047 -3.38533 0
M  V30 20541 C 1860.28 -1.83381 -3.91146 0
M  V30 20542 C 1859.42 -1.39844 -5.12462 0
M  V30 20543 C 1858.46 -2.53163 -5.57293 0
M  V30 20544 N 1857.59 -2.10435 -6.69822 0
M  V30 20545 H 1862.43 -1.98816 -2.21982 0
M  V30 20546 H 1859.97 -0.990139 -1.08787 0
M  V30 20547 H 1861.93 -0.430621 -4.14972 0
M  V30 20548 H 1860.56 0.230924 -3.21973 0
M  V30 20549 H 1859.61 -2.18667 -3.1127 0
M  V30 20550 H 1860.92 -2.68497 -4.2037 0
M  V30 20551 H 1860.08 -1.1184 -5.96303 0
M  V30 20552 H 1858.82 -0.51794 -4.84942 0
M  V30 20553 H 1857.82 -2.81918 -4.7202 0
M  V30 20554 H 1859.05 -3.41784 -5.86822 0
M  V30 20555 H 1856.99 -1.24794 -6.44021 0
M  V30 20556 H 1856.91 -2.89101 -6.98539 0
M  V30 20557 H 1858.18 -1.85593 -7.57084 0
M  V30 20558 N 1862.41 1.16121 -1.06553 0
M  V30 20559 C 1863.65 1.86715 -0.783827 0
M  V30 20560 C 1863.98 1.81857 0.689799 0
M  V30 20561 O 1863.24 1.23093 1.5214 0
M  V30 20562 C 1863.54 3.35676 -1.22705 0
M  V30 20563 C 1863.2 3.60732 -2.70524 0
M  V30 20564 C 1861.86 3.67279 -3.10901 0
M  V30 20565 C 1864.22 3.71093 -3.65977 0
M  V30 20566 C 1861.54 3.81691 -4.45566 0
M  V30 20567 C 1863.9 3.87027 -5.00393 0
M  V30 20568 C 1862.56 3.91817 -5.40403 0
M  V30 20569 H 1861.83 0.683238 -0.286823 0
M  V30 20570 H 1864.48 1.37285 -1.3351 0
M  V30 20571 H 1862.78 3.87255 -0.595017 0
M  V30 20572 H 1864.48 3.88686 -0.986096 0
M  V30 20573 H 1861.07 3.5627 -2.38263 0
M  V30 20574 H 1865.25 3.65343 -3.35914 0
M  V30 20575 H 1860.51 3.83654 -4.76046 0
M  V30 20576 H 1864.68 3.93986 -5.74237 0
M  V30 20577 H 1862.31 4.02737 -6.44753 0
M  V30 20578 N 1863.88 0.848487 1.3281 0
M  V30 20579 C 1864.83 0.277328 2.30941 0
M  V30 20580 C 1865.83 -0.595938 1.58572 0
M  V30 20581 O 1867.03 -0.484428 1.73359 0
M  V30 20582 H 1863.41 0.0709686 0.748644 0
M  V30 20583 H 1865.38 1.11932 2.76611 0
M  V30 20584 C 1864.13 -0.524705 3.43718 0
M  V30 20585 H 1863.45 0.137959 3.99562 0
M  V30 20586 H 1864.89 -0.890032 4.14553 0
M  V30 20587 C 1863.35 -1.70746 2.90426 0
M  V30 20588 O 1863.88 -2.80641 2.87408 0
M  V30 20589 N 1862.09 -1.5325 2.46907 0
M  V30 20590 H 1861.63 -0.638526 2.49561 0
M  V30 20591 H 1861.59 -2.32532 2.11603 0
M  V30 20592 N 1865.36 -1.4549 0.605832 0
M  V30 20593 C 1866.27 -2.34313 -0.115915 0
M  V30 20594 C 1867.29 -1.51136 -0.862199 0
M  V30 20595 O 1868.46 -1.83943 -0.820181 0
M  V30 20596 C 1865.53 -3.28724 -1.10188 0
M  V30 20597 C 1864.59 -4.27807 -0.357749 0
M  V30 20598 C 1863.82 -5.17707 -1.29675 0
M  V30 20599 O 1864.05 -5.10999 -2.53448 0
M  V30 20600 O 1862.98 -5.9663 -0.794767 0
M  V30 20601 H 1866.81 -2.97429 0.613981 0
M  V30 20602 H 1864.39 -1.44845 0.366103 0
M  V30 20603 H 1866.27 -3.86905 -1.6698 0
M  V30 20604 H 1864.95 -2.68175 -1.81284 0
M  V30 20605 H 1863.86 -3.73246 0.252588 0
M  V30 20606 H 1865.19 -4.91206 0.312682 0
M  V30 20607 N 1866.84 -0.344893 -1.5378 0
M  V30 20608 C 1868.09 0.250711 -2.00539 0
M  V30 20609 C 1868.41 1.5096 -1.23435 0
M  V30 20610 O 1867.68 1.92893 -0.341893 0
M  V30 20611 H 1866.26 0.0956318 -0.740853 0
M  V30 20612 H 1868.92 -0.466361 -1.89238 0
M  V30 20613 H 1868.02 0.49222 -3.08194 0
M  V30 20614 N 1868.32 1.57428 -0.0735454 0
M  V30 20615 C 1869.23 2.16325 0.907775 0
M  V30 20616 C 1870.24 1.12689 1.32579 0
M  V30 20617 O 1871.42 1.44963 1.39813 0
M  V30 20618 C 1868.49 2.71467 2.15654 0
M  V30 20619 C 1867.55 3.89983 1.79476 0
M  V30 20620 C 1866.78 4.42486 2.98399 0
M  V30 20621 O 1867 3.93985 4.12471 0
M  V30 20622 O 1865.94 5.33794 2.78114 0
M  V30 20623 H 1869.76 3.00543 0.436771 0
M  V30 20624 H 1867.35 1.48649 0.149623 0
M  V30 20625 H 1869.23 3.06802 2.88878 0
M  V30 20626 H 1867.9 1.90308 2.61848 0
M  V30 20627 H 1866.81 3.59498 1.03499 0
M  V30 20628 H 1868.14 4.7244 1.38063 0
M  V30 20629 N 1869.8 -0.200022 1.56326 0
M  V30 20630 C 1871.21 -0.550653 1.498 0
M  V30 20631 C 1871.41 -1.86097 0.772664 0
M  V30 20632 O 1870.47 -2.50449 0.321155 0
M  V30 20633 C 1871.78 -0.60995 2.94449 0
M  V30 20634 C 1873.33 -0.699119 3.05092 0
M  V30 20635 C 1873.8 -0.78957 4.51143 0
M  V30 20636 N 1875.3 -0.853228 4.55274 0
M  V30 20637 C 1876.03 -0.943298 5.65588 0
M  V30 20638 N 1875.53 -0.995976 6.85603 0
M  V30 20639 N 1877.32 -0.980106 5.53489 0
M  V30 20640 H 1869.47 0.659543 2.019 0
M  V30 20641 H 1871.73 0.234299 0.91859 0
M  V30 20642 H 1871.44 0.283651 3.50554 0
M  V30 20643 H 1871.31 -1.46632 3.47533 0
M  V30 20644 H 1873.7 -1.58315 2.49039 0
M  V30 20645 H 1873.78 0.183351 2.55142 0
M  V30 20646 H 1873.43 0.0900924 5.0782 0
M  V30 20647 H 1873.36 -1.68777 4.9882 0
M  V30 20648 H 1875.85 -0.821964 3.68853 0
M  V30 20649 H 1876.16 -1.06508 7.65425 0
M  V30 20650 H 1874.5 -0.964738 6.88272 0
M  V30 20651 H 1877.7 -0.935755 4.58652 0
M  V30 20652 H 1877.87 -1.04684 6.39488 0
M  V30 20653 N 1871.27 -1.50505 -0.467553 0
M  V30 20654 C 1872.52 -1.6191 -1.22118 0
M  V30 20655 C 1872.85 -0.320112 -1.91544 0
M  V30 20656 O 1872.13 0.678631 -1.82277 0
M  V30 20657 C 1872.41 -2.80184 -2.26206 0
M  V30 20658 C 1872.26 -4.19975 -1.61062 0
M  V30 20659 C 1873.58 -2.94011 -3.27484 0
M  V30 20660 H 1870.7 -0.589289 -0.442615 0
M  V30 20661 H 1873.34 -1.82902 -0.514484 0
M  V30 20662 H 1871.49 -2.62417 -2.86478 0
M  V30 20663 H 1873.17 -4.4934 -1.04359 0
M  V30 20664 H 1871.41 -4.24069 -0.91365 0
M  V30 20665 H 1872.08 -4.98667 -2.36718 0
M  V30 20666 H 1874.56 -3.10288 -2.77238 0
M  V30 20667 H 1873.43 -3.78384 -3.97639 0
M  V30 20668 H 1873.69 -2.04777 -3.91815 0
M  V30 20669 N 1872.75 0.720973 -1.40142 0
M  V30 20670 C 1874.17 1.02835 -1.22054 0
M  V30 20671 C 1874.37 2.0129 -0.091949 0
M  V30 20672 O 1873.42 2.46395 0.551897 0
M  V30 20673 C 1874.74 1.57722 -2.56016 0
M  V30 20674 C 1876.29 1.69734 -2.62982 0
M  V30 20675 C 1876.76 2.28027 -3.972 0
M  V30 20676 N 1878.25 2.3542 -3.98913 0
M  V30 20677 C 1878.99 2.81495 -4.99548 0
M  V30 20678 N 1878.48 3.27362 -6.10578 0
M  V30 20679 N 1880.28 2.80831 -4.86919 0
M  V30 20680 H 1872.43 0.068271 -2.1229 0
M  V30 20681 H 1874.69 0.0928952 -0.943438 0
M  V30 20682 H 1874.4 0.928424 -3.39224 0
M  V30 20683 H 1874.27 2.56326 -2.76725 0
M  V30 20684 H 1876.66 2.33732 -1.80148 0
M  V30 20685 H 1876.74 0.697443 -2.46108 0
M  V30 20686 H 1876.38 1.64653 -4.80471 0
M  V30 20687 H 1876.31 3.28721 -4.114 0
M  V30 20688 H 1878.8 2.03019 -3.18735 0
M  V30 20689 H 1879.12 3.61071 -6.83263 0
M  V30 20690 H 1877.46 3.25335 -6.14152 0
M  V30 20691 H 1880.65 2.4433 -3.99275 0
M  V30 20692 H 1880.82 3.16423 -5.65492 0
M  V30 20693 N 1874.23 1.25549 0.952634 0
M  V30 20694 C 1875.46 1.13162 1.73211 0
M  V30 20695 C 1875.87 -0.314383 1.86164 0
M  V30 20696 O 1875.23 -1.21608 1.3608 0
M  V30 20697 C 1875.28 1.78273 3.14485 0
M  V30 20698 O 1875 3.17221 3.02163 0
M  V30 20699 C 1876.5 1.71691 4.08702 0
M  V30 20700 H 1873.72 0.394613 0.542698 0
M  V30 20701 H 1876.27 1.65951 1.19502 0
M  V30 20702 H 1874.42 1.2945 3.65132 0
M  V30 20703 H 1874.84 3.49266 3.91297 0
M  V30 20704 H 1876.31 2.21906 5.05432 0
M  V30 20705 H 1876.79 0.681094 4.33887 0
M  V30 20706 H 1877.39 2.20012 3.63971 0
M  V30 20707 N 1875.71 -1.15554 1.07168 0
M  V30 20708 C 1876.62 -2.2386 0.701714 0
M  V30 20709 C 1877.63 -1.7163 -0.28621 0
M  V30 20710 O 1878.81 -2.00958 -0.133308 0
M  V30 20711 C 1875.88 -3.46546 0.103165 0
M  V30 20712 C 1874.94 -4.13774 1.14409 0
M  V30 20713 C 1874.17 -5.30604 0.574007 0
M  V30 20714 O 1874.39 -5.67123 -0.610521 0
M  V30 20715 O 1873.33 -5.87293 1.31799 0
M  V30 20716 H 1877.15 -2.57833 1.60487 0
M  V30 20717 H 1874.74 -1.23241 0.844514 0
M  V30 20718 H 1876.62 -4.2078 -0.228452 0
M  V30 20719 H 1875.29 -3.14327 -0.773339 0
M  V30 20720 H 1874.2 -3.4147 1.52803 0
M  V30 20721 H 1875.53 -4.5007 1.99243 0
M  V30 20722 N 1877.19 -0.855519 -1.32358 0
M  V30 20723 C 1878.12 -0.316159 -2.3135 0
M  V30 20724 C 1879.1 0.585159 -1.59718 0
M  V30 20725 O 1880.28 0.505221 -1.87513 0
M  V30 20726 C 1877.41 0.495577 -3.43746 0
M  V30 20727 C 1876.37 -0.311382 -4.26866 0
M  V30 20728 C 1875.69 0.625144 -5.31033 0
M  V30 20729 C 1876.99 -1.5376 -4.99154 0
M  V30 20730 H 1878.69 -1.14331 -2.7671 0
M  V30 20731 H 1876.23 -0.551221 -1.33032 0
M  V30 20732 H 1878.19 0.883325 -4.12038 0
M  V30 20733 H 1876.91 1.3561 -2.97115 0
M  V30 20734 H 1875.57 -0.680895 -3.60221 0
M  V30 20735 H 1875.22 1.48254 -4.80656 0
M  V30 20736 H 1874.92 0.0892112 -5.87532 0
M  V30 20737 H 1876.44 1.01005 -6.02188 0
M  V30 20738 H 1877.86 -1.2221 -5.60123 0
M  V30 20739 H 1876.25 -2.01153 -5.65382 0
M  V30 20740 H 1877.32 -2.29838 -4.26969 0
M  V30 20741 N 1878.67 1.45167 -0.61354 0
M  V30 20742 C 1879.63 2.29016 0.0919454 0
M  V30 20743 C 1880.63 1.40091 0.789373 0
M  V30 20744 O 1881.82 1.6215 0.636631 0
M  V30 20745 C 1878.95 3.21257 1.14048 0
M  V30 20746 H 1880.14 2.92875 -0.645317 0
M  V30 20747 H 1877.7 1.51788 -0.372855 0
M  V30 20748 H 1878.43 2.6221 1.90831 0
M  V30 20749 H 1878.22 3.86766 0.644523 0
M  V30 20750 H 1879.71 3.84288 1.63439 0
M  V30 20751 N 1880.14 0.353044 1.53595 0
M  V30 20752 C 1881.42 -0.296304 1.93343 0
M  V30 20753 C 1881.8 -1.67448 1.28548 0
M  V30 20754 O 1881.15 -2.24226 0.4399 0
M  V30 20755 C 1881.36 -0.359079 3.47148 0
M  V30 20756 C 1882.71 -0.605406 4.20262 0
M  V30 20757 O 1883.73 -0.440805 3.53462 0
M  V30 20758 O 1882.59 -0.92496 5.38616 0
M  V30 20759 H 1879.68 -0.174879 0.808298 0
M  V30 20760 H 1882.23 0.404914 1.64798 0
M  V30 20761 H 1881 0.607684 3.86553 0
M  V30 20762 H 1880.62 -1.1067 3.81887 0
M  V30 20763 N 1881.62 -1.57387 0.0818932 0
M  V30 20764 C 1882.57 -2.13292 -0.881772 0
M  V30 20765 C 1883.54 -1.04801 -1.28864 0
M  V30 20766 O 1884.72 -1.32519 -1.37272 0
M  V30 20767 C 1881.86 -2.70708 -2.14035 0
M  V30 20768 C 1880.98 -3.93388 -1.78522 0
M  V30 20769 C 1880.11 -4.39013 -2.99067 0
M  V30 20770 C 1879.15 -5.54315 -2.59617 0
M  V30 20771 N 1878.29 -5.94853 -3.72954 0
M  V30 20772 H 1883.13 -2.95328 -0.398167 0
M  V30 20773 H 1880.66 -1.45934 -0.184876 0
M  V30 20774 H 1882.62 -3.0211 -2.87724 0
M  V30 20775 H 1881.25 -1.91421 -2.59919 0
M  V30 20776 H 1880.3 -3.68384 -0.948546 0
M  V30 20777 H 1881.62 -4.77106 -1.45505 0
M  V30 20778 H 1880.77 -4.72129 -3.81023 0
M  V30 20779 H 1879.51 -3.54169 -3.35284 0
M  V30 20780 H 1878.51 -5.2084 -1.76084 0
M  V30 20781 H 1879.74 -6.40898 -2.24558 0
M  V30 20782 H 1877.69 -5.12957 -4.08915 0
M  V30 20783 H 1877.6 -6.73335 -3.43739 0
M  V30 20784 H 1878.87 -6.32595 -4.5546 0
M  V30 20785 N 1883.1 0.191729 -1.56429 0
M  V30 20786 C 1884.35 0.912948 -1.81089 0
M  V30 20787 C 1884.68 1.82767 -0.656483 0
M  V30 20788 O 1883.95 1.91456 0.342779 0
M  V30 20789 C 1884.24 1.72628 -3.16025 0
M  V30 20790 C 1884.09 0.836045 -4.41962 0
M  V30 20791 C 1885.41 2.69818 -3.47687 0
M  V30 20792 H 1882.53 0.33046 -0.658761 0
M  V30 20793 H 1885.17 0.180148 -1.89144 0
M  V30 20794 H 1883.32 2.35102 -3.09289 0
M  V30 20795 H 1884.99 0.225751 -4.60747 0
M  V30 20796 H 1883.23 0.142944 -4.33564 0
M  V30 20797 H 1883.91 1.44019 -5.32881 0
M  V30 20798 H 1886.38 2.17475 -3.54745 0
M  V30 20799 H 1885.26 3.23806 -4.43216 0
M  V30 20800 H 1885.52 3.49028 -2.71352 0
M  V30 20801 N 1884.58 1.50751 0.459565 0
M  V30 20802 C 1885.81 1.66089 1.23377 0
M  V30 20803 C 1886.22 0.348952 1.85547 0
M  V30 20804 O 1885.58 -0.670323 1.69744 0
M  V30 20805 C 1885.63 2.76047 2.3341 0
M  V30 20806 O 1885.35 4.02156 1.73787 0
M  V30 20807 C 1886.85 3.02461 3.24087 0
M  V30 20808 H 1884.07 0.557971 0.372705 0
M  V30 20809 H 1886.61 1.97042 0.547242 0
M  V30 20810 H 1884.77 2.47756 2.97818 0
M  V30 20811 H 1885.18 4.63055 2.46335 0
M  V30 20812 H 1886.66 3.83034 3.97478 0
M  V30 20813 H 1887.13 2.13984 3.83546 0
M  V30 20814 H 1887.74 3.32326 2.65404 0
M  V30 20815 N 1886.06 -0.713531 1.40522 0
M  V30 20816 C 1887 -1.82761 1.40951 0
M  V30 20817 C 1887.97 -1.63953 0.266188 0
M  V30 20818 O 1889.16 -1.85058 0.464558 0
M  V30 20819 C 1886.3 -3.20488 1.27989 0
M  V30 20820 C 1885.41 -3.50853 2.52044 0
M  V30 20821 C 1884.55 -4.78097 2.31509 0
M  V30 20822 C 1883.58 -5.01373 3.51129 0
M  V30 20823 N 1882.72 -6.19832 3.29777 0
M  V30 20824 H 1887.56 -1.81729 2.36175 0
M  V30 20825 H 1885.1 -0.887703 1.17296 0
M  V30 20826 H 1887.06 -4.00023 1.1848 0
M  V30 20827 H 1885.69 -3.20743 0.363832 0
M  V30 20828 H 1884.74 -2.65858 2.72073 0
M  V30 20829 H 1886.05 -3.63961 3.41077 0
M  V30 20830 H 1885.2 -5.65654 2.19365 0
M  V30 20831 H 1883.94 -4.67203 1.39903 0
M  V30 20832 H 1882.95 -4.12271 3.63748 0
M  V30 20833 H 1884.17 -5.14139 4.43664 0
M  V30 20834 H 1882.12 -6.10184 2.40855 0
M  V30 20835 H 1882.04 -6.33626 4.12376 0
M  V30 20836 H 1883.3 -7.1017 3.2137 0
M  V30 20837 N 1887.53 -1.26053 -0.945962 0
M  V30 20838 C 1888.46 -1.09687 -2.06134 0
M  V30 20839 C 1889.44 -0.00341513 -1.701 0
M  V30 20840 O 1890.63 -0.174559 -1.93414 0
M  V30 20841 C 1887.76 -0.724007 -3.3967 0
M  V30 20842 C 1886.71 -1.76866 -3.89747 0
M  V30 20843 C 1886.04 -1.25025 -5.19878 0
M  V30 20844 C 1887.34 -3.16923 -4.15159 0
M  V30 20845 H 1889.03 -2.02986 -2.20084 0
M  V30 20846 H 1886.58 -0.977346 -1.05754 0
M  V30 20847 H 1888.53 -0.596411 -4.17158 0
M  V30 20848 H 1887.26 0.244695 -3.25682 0
M  V30 20849 H 1885.92 -1.88485 -3.14435 0
M  V30 20850 H 1885.56 -0.271527 -5.02267 0
M  V30 20851 H 1885.26 -1.94853 -5.54352 0
M  V30 20852 H 1886.79 -1.13523 -5.99954 0
M  V30 20853 H 1888.2 -3.08409 -4.83277 0
M  V30 20854 H 1886.6 -3.84299 -4.60906 0
M  V30 20855 H 1887.67 -3.63337 -3.21114 0
M  V30 20856 N 1889.01 1.14984 -1.07779 0
M  V30 20857 C 1889.94 2.19494 -0.659934 0
M  V30 20858 C 1890.96 1.60201 0.289756 0
M  V30 20859 O 1892.15 1.78328 0.0784004 0
M  V30 20860 C 1889.25 3.38862 0.0506161 0
M  V30 20861 C 1888.42 4.27693 -0.916355 0
M  V30 20862 C 1887.48 5.25642 -0.242303 0
M  V30 20863 O 1886.5 5.62282 -0.884715 0
M  V30 20864 N 1887.71 5.7164 1.01033 0
M  V30 20865 H 1890.47 2.5596 -1.55899 0
M  V30 20866 H 1888.03 1.30143 -0.963043 0
M  V30 20867 H 1890.02 4.01444 0.512331 0
M  V30 20868 H 1888.59 3.00775 0.851671 0
M  V30 20869 H 1887.81 3.62145 -1.55708 0
M  V30 20870 H 1889.1 4.83913 -1.57182 0
M  V30 20871 H 1888.5 5.43991 1.55212 0
M  V30 20872 H 1887.06 6.36241 1.41565 0
M  V30 20873 N 1890.49 0.862526 1.31902 0
M  V30 20874 C 1891.74 0.470471 1.97267 0
M  V30 20875 C 1892.07 -0.973153 1.68058 0
M  V30 20876 O 1891.34 -1.68411 0.973035 0
M  V30 20877 C 1891.63 0.719362 3.52842 0
M  V30 20878 C 1891.48 2.21198 3.91652 0
M  V30 20879 C 1892.8 0.18092 4.39728 0
M  V30 20880 H 1889.92 0.172408 0.71655 0
M  V30 20881 H 1892.56 1.0824 1.56154 0
M  V30 20882 H 1890.71 0.198516 3.87992 0
M  V30 20883 H 1892.38 2.79951 3.66641 0
M  V30 20884 H 1890.62 2.68744 3.40528 0
M  V30 20885 H 1891.3 2.33679 5.00098 0
M  V30 20886 H 1893.77 0.626421 4.11358 0
M  V30 20887 H 1892.65 0.384575 5.47551 0
M  V30 20888 H 1892.91 -0.916756 4.3249 0
M  V30 20889 N 1891.97 -1.4484 0.62123 0
M  V30 20890 C 1892.88 -2.34423 -0.0910566 0
M  V30 20891 C 1893.89 -1.52042 -0.846121 0
M  V30 20892 O 1895.07 -1.84802 -0.800625 0
M  V30 20893 C 1892.14 -3.29874 -1.06696 0
M  V30 20894 C 1891.2 -4.28162 -0.312354 0
M  V30 20895 C 1890.43 -5.19053 -1.24177 0
M  V30 20896 O 1890.65 -5.13659 -2.48014 0
M  V30 20897 O 1889.59 -5.97439 -0.731442 0
M  V30 20898 H 1893.41 -2.96761 0.645493 0
M  V30 20899 H 1891 -1.44448 0.381445 0
M  V30 20900 H 1892.88 -3.88654 -1.62867 0
M  V30 20901 H 1891.55 -2.70083 -1.78429 0
M  V30 20902 H 1890.46 -3.72957 0.292161 0
M  V30 20903 H 1891.79 -4.90847 0.364763 0
M  V30 20904 N 1893.45 -0.361184 -1.53405 0
M  V30 20905 C 1894.38 0.479368 -2.28526 0
M  V30 20906 C 1895.36 1.08768 -1.3078 0
M  V30 20907 O 1896.54 1.10576 -1.59645 0
M  V30 20908 C 1893.67 1.6215 -3.07123 0
M  V30 20909 C 1892.63 1.14065 -4.12521 0
M  V30 20910 C 1891.95 2.37267 -4.79175 0
M  V30 20911 C 1893.25 0.228522 -5.218 0
M  V30 20912 H 1894.95 -0.147344 -2.99037 0
M  V30 20913 H 1892.49 -0.0723051 -1.43818 0
M  V30 20914 H 1894.45 2.21612 -3.58422 0
M  V30 20915 H 1893.17 2.27538 -2.34295 0
M  V30 20916 H 1891.83 0.568735 -3.62162 0
M  V30 20917 H 1891.48 3.01102 -4.02923 0
M  V30 20918 H 1891.18 2.05768 -5.50394 0
M  V30 20919 H 1892.7 2.97424 -5.33265 0
M  V30 20920 H 1894.11 0.730497 -5.68627 0
M  V30 20921 H 1892.51 0.00460259 -6.001 0
M  V30 20922 H 1893.58 -0.730537 -4.79365 0
M  V30 20923 N 1894.92 1.57341 -0.0902386 0
M  V30 20924 C 1896.2 1.85627 0.616611 0
M  V30 20925 C 1896.58 0.986193 1.86648 0
M  V30 20926 O 1895.93 0.0573148 2.28428 0
M  V30 20927 C 1896.14 3.36196 0.936645 0
M  V30 20928 C 1897.49 4.04139 1.30219 0
M  V30 20929 O 1898.51 3.41049 1.02781 0
M  V30 20930 O 1897.37 5.1545 1.81586 0
M  V30 20931 H 1894.46 0.76748 0.308065 0
M  V30 20932 H 1897.01 1.69257 -0.122568 0
M  V30 20933 H 1895.78 3.91268 0.0497354 0
M  V30 20934 H 1895.41 3.57895 1.73197 0
M  V30 20935 N 1896.4 -0.183431 1.56529 0
M  V30 20936 C 1897.35 -1.24666 1.9637 0
M  V30 20937 C 1898.34 -1.46489 0.850728 0
M  V30 20938 O 1899.55 -1.47212 1.03579 0
M  V30 20939 H 1895.93 -0.418792 0.624594 0
M  V30 20940 H 1897.9 -0.883697 2.85015 0
M  V30 20941 C 1896.65 -2.58135 2.32942 0
M  V30 20942 H 1895.97 -2.42162 3.18116 0
M  V30 20943 H 1897.41 -3.31247 2.64672 0
M  V30 20944 C 1895.87 -3.15993 1.16832 0
M  V30 20945 O 1896.4 -3.99177 0.449531 0
M  V30 20946 N 1894.6 -2.74907 0.942059 0
M  V30 20947 H 1894.15 -2.07365 1.52832 0
M  V30 20948 H 1894.11 -3.13956 0.167 0
M  V30 20949 N 1897.88 -1.50992 -0.451564 0
M  V30 20950 C 1899.13 -1.63197 -1.20394 0
M  V30 20951 C 1899.46 -0.340409 -1.91193 0
M  V30 20952 O 1898.73 0.65926 -1.82986 0
M  V30 20953 C 1899.02 -2.82567 -2.23221 0
M  V30 20954 C 1898.87 -4.2166 -1.56598 0
M  V30 20955 C 1900.19 -2.97468 -3.24347 0
M  V30 20956 H 1897.31 -0.59395 -0.43634 0
M  V30 20957 H 1899.95 -1.83437 -0.495056 0
M  V30 20958 H 1898.1 -2.65441 -2.83678 0
M  V30 20959 H 1899.77 -4.50422 -0.995877 0
M  V30 20960 H 1898.02 -4.25015 -0.86862 0
M  V30 20961 H 1898.69 -5.0115 -2.31415 0
M  V30 20962 H 1901.16 -3.13211 -2.73931 0
M  V30 20963 H 1900.04 -3.82581 -3.93603 0
M  V30 20964 H 1900.3 -2.08921 -3.89621 0
M  V30 20965 N 1899.36 0.706069 -1.40899 0
M  V30 20966 C 1900.59 1.49504 -1.43025 0
M  V30 20967 C 1901 1.88772 -0.0325752 0
M  V30 20968 O 1900.36 1.56085 0.945716 0
M  V30 20969 C 1900.41 2.76431 -2.32955 0
M  V30 20970 O 1900.13 2.38821 -3.67282 0
M  V30 20971 C 1901.63 3.70255 -2.43774 0
M  V30 20972 H 1898.85 0.461069 -0.4875 0
M  V30 20973 H 1901.4 0.870198 -1.85062 0
M  V30 20974 H 1899.55 3.35177 -1.94255 0
M  V30 20975 H 1899.96 3.2056 -4.1514 0
M  V30 20976 H 1901.44 4.56129 -3.10887 0
M  V30 20977 H 1901.92 4.14021 -1.46573 0
M  V30 20978 H 1902.52 3.17417 -2.83066 0
M  V30 20979 N 1900.84 1.26553 0.939264 0
M  V30 20980 C 1902.08 1.11989 1.68235 0
M  V30 20981 C 1902.41 -0.336993 1.92066 0
M  V30 20982 O 1901.68 -1.23742 1.51871 0
M  V30 20983 H 1900.26 0.41144 0.623479 0
M  V30 20984 H 1902.92 1.58909 1.12845 0
M  V30 20985 H 1902.01 1.64011 2.65531 0
M  V30 20986 N 1902.31 -1.14411 1.08387 0
M  V30 20987 C 1903.24 -2.21619 0.735327 0
M  V30 20988 C 1904.23 -1.67744 -0.282132 0
M  V30 20989 O 1905.41 -1.936 -0.152547 0
M  V30 20990 C 1902.54 -3.47003 0.143628 0
M  V30 20991 C 1901.49 -4.13903 1.08941 0
M  V30 20992 C 1900.82 -5.33487 0.359941 0
M  V30 20993 C 1902.12 -4.62463 2.42746 0
M  V30 20994 H 1903.81 -2.51031 1.63168 0
M  V30 20995 H 1901.36 -1.20658 0.785981 0
M  V30 20996 H 1903.31 -4.21251 -0.112217 0
M  V30 20997 H 1902.04 -3.16955 -0.787856 0
M  V30 20998 H 1900.7 -3.4161 1.33035 0
M  V30 20999 H 1900.34 -4.99699 -0.57534 0
M  V30 21000 H 1900.04 -5.79192 0.990451 0
M  V30 21001 H 1901.57 -6.10497 0.112145 0
M  V30 21002 H 1902.98 -5.28185 2.22919 0
M  V30 21003 H 1901.38 -5.18869 3.01488 0
M  V30 21004 H 1902.45 -3.77542 3.04286 0
M  V30 21005 N 1903.79 -0.869509 -1.31443 0
M  V30 21006 C 1904.72 -0.340679 -2.31001 0
M  V30 21007 C 1905.7 0.568186 -1.6033 0
M  V30 21008 O 1906.89 0.485305 -1.88038 0
M  V30 21009 C 1904.02 0.45909 -3.44252 0
M  V30 21010 C 1902.97 -0.356639 -4.26512 0
M  V30 21011 C 1902.3 0.568786 -5.31666 0
M  V30 21012 C 1903.6 -1.59045 -4.97496 0
M  V30 21013 H 1905.29 -1.1726 -2.75482 0
M  V30 21014 H 1902.84 -0.5653 -1.3244 0
M  V30 21015 H 1904.79 0.839573 -4.12952 0
M  V30 21016 H 1903.52 1.32451 -2.98537 0
M  V30 21017 H 1902.17 -0.719063 -3.59479 0
M  V30 21018 H 1901.82 1.43148 -4.82201 0
M  V30 21019 H 1901.52 0.0268906 -5.87594 0
M  V30 21020 H 1903.05 0.946122 -6.03225 0
M  V30 21021 H 1904.46 -1.28144 -5.58795 0
M  V30 21022 H 1902.86 -2.07139 -5.63217 0
M  V30 21023 H 1903.93 -2.34354 -4.24507 0
M  V30 21024 N 1905.27 1.44508 -0.628902 0
M  V30 21025 C 1906.5 2.06942 -0.137778 0
M  V30 21026 C 1906.92 1.46672 1.17766 0
M  V30 21027 O 1906.28 0.567342 1.72194 0
M  V30 21028 C 1906.33 3.60584 -0.0341843 0
M  V30 21029 O 1905.43 3.99831 1.01038 0
M  V30 21030 H 1904.77 0.658696 -0.083759 0
M  V30 21031 H 1907.3 1.85418 -0.864951 0
M  V30 21032 H 1907.31 4.07697 0.157123 0
M  V30 21033 H 1905.99 4.03833 -0.994583 0
M  V30 21034 H 1904.56 3.64353 0.793824 0
M  V30 21035 N 1906.75 0.369315 1.53212 0
M  V30 21036 C 1907.68 -0.510161 2.2345 0
M  V30 21037 C 1908.69 -1.04313 1.24991 0
M  V30 21038 O 1909.88 -0.948869 1.51191 0
M  V30 21039 C 1906.98 -1.71753 2.92154 0
M  V30 21040 C 1906.16 -1.31542 4.17152 0
M  V30 21041 C 1905.22 -2.38526 4.69033 0
M  V30 21042 O 1904.24 -2.00761 5.32619 0
M  V30 21043 N 1905.44 -3.70165 4.47167 0
M  V30 21044 H 1908.21 0.0915031 2.9956 0
M  V30 21045 H 1905.77 0.194676 1.60725 0
M  V30 21046 H 1907.76 -2.42808 3.23769 0
M  V30 21047 H 1906.33 -2.22598 2.19474 0
M  V30 21048 H 1905.55 -0.434563 3.91797 0
M  V30 21049 H 1906.84 -1.02311 4.98407 0
M  V30 21050 H 1906.24 -4.0362 3.96368 0
M  V30 21051 H 1904.79 -4.37313 4.83323 0
M  V30 21052 N 1908.23 -1.57291 0.0985816 0
M  V30 21053 C 1909.45 -1.99242 -0.575966 0
M  V30 21054 C 1909.88 -0.977378 -1.60714 0
M  V30 21055 O 1909.24 0.053677 -1.81221 0
M  V30 21056 C 1909.28 -3.40148 -1.19714 0
M  V30 21057 O 1908.39 -3.41434 -2.31293 0
M  V30 21058 H 1907.73 -0.647791 -0.145816 0
M  V30 21059 H 1910.26 -2.03798 0.181023 0
M  V30 21060 H 1910.27 -3.77918 -1.5376 0
M  V30 21061 H 1908.94 -4.13548 -0.441714 0
M  V30 21062 H 1907.52 -3.15464 -1.98839 0
M  V30 21063 N 1909.71 0.175127 -1.56624 0
M  V30 21064 C 1910.98 0.919424 -1.72644 0
M  V30 21065 C 1911.36 2.00553 -0.658929 0
M  V30 21066 O 1910.71 2.2615 0.326897 0
M  V30 21067 C 1910.92 1.48764 -3.15706 0
M  V30 21068 C 1912.27 1.96204 -3.76549 0
M  V30 21069 O 1913.29 1.58565 -3.1896 0
M  V30 21070 O 1912.15 2.65525 -4.7766 0
M  V30 21071 H 1909.25 0.43251 -0.704886 0
M  V30 21072 H 1911.79 0.163255 -1.68913 0
M  V30 21073 H 1910.56 0.705743 -3.84883 0
M  V30 21074 H 1910.19 2.3081 -3.23748 0
M  V30 21075 N 1911.18 1.5123 0.44355 0
M  V30 21076 C 1912.41 1.67671 1.2207 0
M  V30 21077 C 1912.83 0.370934 1.84406 0
M  V30 21078 O 1912.19 -0.668265 1.68535 0
M  V30 21079 C 1912.24 2.7896 2.28503 0
M  V30 21080 O 1911.34 2.4213 3.33837 0
M  V30 21081 H 1910.68 0.559275 0.357921 0
M  V30 21082 H 1913.21 1.9776 0.524592 0
M  V30 21083 H 1913.22 3.0286 2.73386 0
M  V30 21084 H 1911.9 3.73716 1.82509 0
M  V30 21085 H 1910.48 2.28779 2.94473 0
M  V30 21086 N 1912.66 -0.698586 1.41271 0
M  V30 21087 C 1913.61 -1.81256 1.42881 0
M  V30 21088 C 1914.58 -1.63662 0.283562 0
M  V30 21089 O 1915.76 -1.84555 0.48416 0
M  V30 21090 C 1912.9 -3.19113 1.31381 0
M  V30 21091 C 1912.02 -3.4816 2.55751 0
M  V30 21092 C 1911.15 -4.75615 2.36566 0
M  V30 21093 C 1910.19 -4.9762 3.56427 0
M  V30 21094 N 1909.33 -6.16299 3.36332 0
M  V30 21095 H 1914.17 -1.79214 2.38089 0
M  V30 21096 H 1911.7 -0.875213 1.1823 0
M  V30 21097 H 1913.66 -3.98744 1.22716 0
M  V30 21098 H 1912.29 -3.20339 0.397831 0
M  V30 21099 H 1911.34 -2.62957 2.74878 0
M  V30 21100 H 1912.66 -3.60323 3.44918 0
M  V30 21101 H 1911.81 -5.63295 2.25352 0
M  V30 21102 H 1910.55 -4.65693 1.44851 0
M  V30 21103 H 1909.55 -4.0839 3.681 0
M  V30 21104 H 1910.78 -5.09404 4.49093 0
M  V30 21105 H 1908.73 -6.07595 2.47314 0
M  V30 21106 H 1908.64 -6.29216 4.19074 0
M  V30 21107 H 1909.91 -7.06722 3.28884 0
M  V30 21108 N 1914.14 -1.27049 -0.93254 0
M  V30 21109 C 1915.36 -1.16011 -1.71919 0
M  V30 21110 C 1915.79 0.279951 -1.86005 0
M  V30 21111 O 1915.15 1.20279 -1.35657 0
M  V30 21112 C 1915.2 -1.84349 -3.09916 0
M  V30 21113 O 1914.3 -1.13816 -3.96383 0
M  V30 21114 H 1913.64 -0.403752 -0.527144 0
M  V30 21115 H 1916.17 -1.6803 -1.16736 0
M  V30 21116 H 1916.18 -1.91516 -3.60258 0
M  V30 21117 H 1914.86 -2.89109 -2.9898 0
M  V30 21118 H 1913.43 -1.14684 -3.54827 0
M  V30 21119 N 1915.62 1.13835 -1.08993 0
M  V30 21120 C 1916.84 1.89402 -0.845071 0
M  V30 21121 C 1917.27 1.78353 0.597641 0
M  V30 21122 O 1916.63 1.12793 1.41942 0
M  V30 21123 C 1916.67 3.37144 -1.27931 0
M  V30 21124 O 1915.78 4.101 -0.434975 0
M  V30 21125 H 1915.12 0.589066 -0.306427 0
M  V30 21126 H 1917.65 1.44055 -1.45291 0
M  V30 21127 H 1917.66 3.87967 -1.26277 0
M  V30 21128 H 1916.33 3.44504 -2.33002 0
M  V30 21129 H 1914.91 3.6932 -0.515447 0
M  V30 21130 N 1917.1 0.876467 1.3098 0
M  V30 21131 C 1918.04 0.335149 2.28354 0
M  V30 21132 C 1919.01 -0.569979 1.56014 0
M  V30 21133 O 1920.2 -0.500226 1.84126 0
M  V30 21134 C 1917.34 -0.451723 3.42131 0
M  V30 21135 C 1916.45 0.481657 4.29306 0
M  V30 21136 C 1915.59 -0.319977 5.30235 0
M  V30 21137 C 1914.62 0.609417 6.09059 0
M  V30 21138 N 1913.76 -0.156366 7.01926 0
M  V30 21139 H 1918.6 1.17069 2.74042 0
M  V30 21140 H 1916.14 0.588683 1.34807 0
M  V30 21141 H 1918.1 -0.923775 4.06844 0
M  V30 21142 H 1916.73 -1.25191 2.97535 0
M  V30 21143 H 1915.78 1.07218 3.64977 0
M  V30 21144 H 1917.09 1.19403 4.84298 0
M  V30 21145 H 1916.24 -0.854256 6.00656 0
M  V30 21146 H 1914.98 -1.06561 4.75916 0
M  V30 21147 H 1913.99 1.1554 5.37523 0
M  V30 21148 H 1915.21 1.354 6.65465 0
M  V30 21149 H 1913.16 -0.884688 6.50007 0
M  V30 21150 H 1913.08 0.496538 7.54368 0
M  V30 21151 H 1914.34 -0.671665 7.76601 0
M  V30 21152 N 1918.57 -1.44173 0.636557 0
M  V30 21153 C 1919.5 -2.33442 -0.0518719 0
M  V30 21154 C 1920.48 -1.48519 -0.829226 0
M  V30 21155 O 1921.67 -1.77225 -0.794028 0
M  V30 21156 C 1918.8 -3.31663 -1.03038 0
M  V30 21157 C 1917.75 -4.26447 -0.364286 0
M  V30 21158 C 1917.08 -5.14577 -1.45308 0
M  V30 21159 C 1918.38 -5.17133 0.732884 0
M  V30 21160 H 1920.07 -2.91255 0.693589 0
M  V30 21161 H 1917.62 -1.40049 0.33499 0
M  V30 21162 H 1919.57 -3.93002 -1.52077 0
M  V30 21163 H 1918.3 -2.72071 -1.80679 0
M  V30 21164 H 1916.96 -3.66448 0.105505 0
M  V30 21165 H 1916.6 -4.51334 -2.22051 0
M  V30 21166 H 1916.3 -5.78807 -1.01274 0
M  V30 21167 H 1917.83 -5.78788 -1.94517 0
M  V30 21168 H 1919.24 -5.72376 0.325363 0
M  V30 21169 H 1917.64 -5.89994 1.09669 0
M  V30 21170 H 1918.71 -4.5782 1.59779 0
M  V30 21171 N 1920.05 -0.377435 -1.53014 0
M  V30 21172 C 1921.28 0.208944 -2.05842 0
M  V30 21173 C 1921.69 1.41487 -1.25007 0
M  V30 21174 O 1921.05 1.80121 -0.293703 0
M  V30 21175 C 1921.1 0.590778 -3.5664 0
M  V30 21176 O 1920.82 -0.56723 -4.34412 0
M  V30 21177 C 1922.32 1.23429 -4.2577 0
M  V30 21178 H 1919.54 0.0343137 -0.670122 0
M  V30 21179 H 1922.09 -0.539234 -1.97263 0
M  V30 21180 H 1920.24 1.28886 -3.65331 0
M  V30 21181 H 1920.66 -0.256062 -5.23875 0
M  V30 21182 H 1922.13 1.45192 -5.32563 0
M  V30 21183 H 1922.61 2.19814 -3.80235 0
M  V30 21184 H 1923.21 0.577303 -4.21364 0
M  V30 21185 N 1921.53 1.57237 -0.106922 0
M  V30 21186 C 1922.48 2.14668 0.847728 0
M  V30 21187 C 1923.45 1.06838 1.2718 0
M  V30 21188 O 1924.63 1.34686 1.35146 0
M  V30 21189 C 1921.77 2.74079 2.09702 0
M  V30 21190 C 1920.89 3.96178 1.7224 0
M  V30 21191 C 1920.02 4.43715 2.92045 0
M  V30 21192 C 1919.06 5.58375 2.50766 0
M  V30 21193 N 1918.2 6.00711 3.63443 0
M  V30 21194 H 1923.04 2.95924 0.351133 0
M  V30 21195 H 1920.57 1.46209 0.161636 0
M  V30 21196 H 1922.53 3.06649 2.82882 0
M  V30 21197 H 1921.16 1.95532 2.56841 0
M  V30 21198 H 1920.21 3.69846 0.889819 0
M  V30 21199 H 1921.53 4.7936 1.37896 0
M  V30 21200 H 1920.68 4.78131 3.73464 0
M  V30 21201 H 1919.42 3.59458 3.29607 0
M  V30 21202 H 1918.42 5.23576 1.67776 0
M  V30 21203 H 1919.65 6.4439 2.14334 0
M  V30 21204 H 1917.59 5.19397 4.00702 0
M  V30 21205 H 1917.51 6.78718 3.32983 0
M  V30 21206 H 1918.78 6.39761 4.45338 0
M  V30 21207 N 1923.01 -0.166818 1.56715 0
M  V30 21208 C 1924.29 -0.910255 1.73129 0
M  V30 21209 C 1924.67 -2.002 0.669555 0
M  V30 21210 O 1924.01 -2.2632 -0.314899 0
M  V30 21211 C 1924.22 -1.47087 3.16491 0
M  V30 21212 C 1925.57 -1.94204 3.77584 0
M  V30 21213 O 1926.6 -1.56872 3.19796 0
M  V30 21214 O 1925.45 -2.62988 4.79061 0
M  V30 21215 H 1922.55 -0.428766 0.70717 0
M  V30 21216 H 1925.09 -0.154295 1.68997 0
M  V30 21217 H 1923.87 -0.685322 3.85252 0
M  V30 21218 H 1923.49 -2.29089 3.24967 0
M  V30 21219 N 1924.49 -1.51463 -0.435524 0
M  V30 21220 C 1925.73 -1.64221 -1.18481 0
M  V30 21221 C 1926.06 -0.359315 -1.91152 0
M  V30 21222 O 1925.32 0.656683 -1.84353 0
M  V30 21223 C 1925.62 -2.79695 -2.22498 0
M  V30 21224 C 1925.28 -4.18903 -1.66826 0
M  V30 21225 C 1923.94 -4.56773 -1.51366 0
M  V30 21226 C 1926.3 -5.05763 -1.2591 0
M  V30 21227 C 1923.62 -5.79207 -0.93467 0
M  V30 21228 C 1925.98 -6.28777 -0.694404 0
M  V30 21229 C 1924.64 -6.65419 -0.52672 0
M  V30 21230 H 1923.91 -0.600927 -0.433552 0
M  V30 21231 H 1926.56 -1.855 -0.475618 0
M  V30 21232 H 1924.86 -2.52646 -2.99462 0
M  V30 21233 H 1926.56 -2.86766 -2.80297 0
M  V30 21234 H 1923.15 -3.89046 -1.79835 0
M  V30 21235 H 1927.33 -4.7711 -1.36674 0
M  V30 21236 H 1922.59 -6.06242 -0.792531 0
M  V30 21237 H 1926.76 -6.95422 -0.36886 0
M  V30 21238 H 1924.39 -7.60162 -0.0759538 0
M  V30 21239 N 1925.96 0.691085 -1.4164 0
M  V30 21240 C 1927.19 1.48481 -1.44804 0
M  V30 21241 C 1927.61 1.88016 -0.0561606 0
M  V30 21242 O 1926.97 1.54927 0.941657 0
M  V30 21243 C 1927.02 2.72083 -2.3665 0
M  V30 21244 O 1926.12 3.6974 -1.82663 0
M  V30 21245 H 1925.47 0.446714 -0.491267 0
M  V30 21246 H 1928 0.849076 -1.8615 0
M  V30 21247 H 1928.01 3.2034 -2.52678 0
M  V30 21248 H 1926.68 2.42645 -3.37781 0
M  V30 21249 H 1925.26 3.28695 -1.76108 0
M  V30 21250 N 1927.44 1.27542 0.925789 0
M  V30 21251 C 1928.41 1.10471 2.0082 0
M  V30 21252 C 1929.41 0.0481002 1.60728 0
M  V30 21253 O 1930.6 0.292857 1.71721 0
M  V30 21254 C 1927.73 0.683669 3.33974 0
M  V30 21255 H 1928.92 2.0659 2.17395 0
M  V30 21256 H 1926.47 1.10357 1.10684 0
M  V30 21257 H 1927.21 -0.278821 3.23099 0
M  V30 21258 H 1926.99 1.44679 3.64431 0
M  V30 21259 H 1928.48 0.586526 4.13461 0
M  V30 21260 N 1928.92 -1.13255 1.09595 0
M  V30 21261 C 1929.85 -2.20827 0.758791 0
M  V30 21262 C 1930.83 -1.68034 -0.264325 0
M  V30 21263 O 1932.02 -1.93751 -0.132005 0
M  V30 21264 C 1929.15 -3.46831 0.180424 0
M  V30 21265 C 1928.1 -4.12724 1.13325 0
M  V30 21266 C 1927.43 -5.33075 0.416504 0
M  V30 21267 C 1928.73 -4.59862 2.47637 0
M  V30 21268 H 1930.42 -2.49287 1.65821 0
M  V30 21269 H 1927.97 -1.19818 0.798734 0
M  V30 21270 H 1929.92 -4.21346 -0.0675313 0
M  V30 21271 H 1928.64 -3.17773 -0.754194 0
M  V30 21272 H 1927.3 -3.40179 1.36651 0
M  V30 21273 H 1926.95 -5.00281 -0.522308 0
M  V30 21274 H 1926.65 -5.78109 1.05183 0
M  V30 21275 H 1928.17 -6.10344 0.17689 0
M  V30 21276 H 1929.59 -5.25791 2.28509 0
M  V30 21277 H 1927.99 -5.15642 3.06974 0
M  V30 21278 H 1929.06 -3.74294 3.08273 0
M  V30 21279 N 1930.4 -0.883401 -1.30514 0
M  V30 21280 C 1931.31 -0.352971 -2.31929 0
M  V30 21281 C 1932.32 0.543992 -1.65278 0
M  V30 21282 O 1933.5 0.437489 -1.96591 0
M  V30 21283 C 1930.57 0.425263 -3.44082 0
M  V30 21284 C 1929.63 -0.501265 -4.26363 0
M  V30 21285 C 1928.86 0.239923 -5.3316 0
M  V30 21286 O 1929.08 1.46622 -5.51233 0
M  V30 21287 O 1928.02 -0.409158 -6.00508 0
M  V30 21288 H 1931.84 -1.19393 -2.79247 0
M  V30 21289 H 1929.43 -0.647187 -1.34655 0
M  V30 21290 H 1931.31 0.865957 -4.12407 0
M  V30 21291 H 1929.98 1.24255 -2.98902 0
M  V30 21292 H 1928.89 -0.990738 -3.60743 0
M  V30 21293 H 1930.22 -1.28451 -4.75143 0
M  V30 21294 N 1931.88 1.43833 -0.644194 0
M  V30 21295 C 1933.1 2.06784 -0.159719 0
M  V30 21296 C 1933.53 1.47913 1.16204 0
M  V30 21297 O 1932.88 0.585574 1.71583 0
M  V30 21298 C 1932.93 3.60527 -0.0724271 0
M  V30 21299 O 1932.04 4.0088 0.967917 0
M  V30 21300 H 1931.38 0.657771 -0.0907406 0
M  V30 21301 H 1933.91 1.8449 -0.884568 0
M  V30 21302 H 1933.92 4.07841 0.113872 0
M  V30 21303 H 1932.59 4.02755 -1.03736 0
M  V30 21304 H 1931.17 3.65174 0.755135 0
M  V30 21305 N 1933.35 0.385544 1.52811 0
M  V30 21306 C 1934.29 -0.486433 2.23979 0
M  V30 21307 C 1935.3 -1.02981 1.2609 0
M  V30 21308 O 1936.49 -0.932779 1.52189 0
M  V30 21309 C 1933.59 -1.68645 2.93959 0
M  V30 21310 C 1932.76 -1.2711 4.18523 0
M  V30 21311 C 1931.82 -2.33538 4.71536 0
M  V30 21312 O 1930.85 -1.95101 5.34719 0
M  V30 21313 N 1932.05 -3.65401 4.51068 0
M  V30 21314 H 1934.81 0.12327 2.99446 0
M  V30 21315 H 1932.37 0.211712 1.6051 0
M  V30 21316 H 1934.37 -2.3936 3.26326 0
M  V30 21317 H 1932.94 -2.20257 2.21823 0
M  V30 21318 H 1932.16 -0.392983 3.92236 0
M  V30 21319 H 1933.44 -0.970192 4.99464 0
M  V30 21320 H 1932.84 -3.99393 4.00626 0
M  V30 21321 H 1931.4 -4.32162 4.87934 0
M  V30 21322 N 1934.83 -1.57178 0.115259 0
M  V30 21323 C 1935.76 -2.18134 -0.833042 0
M  V30 21324 C 1936.74 -1.12033 -1.27995 0
M  V30 21325 O 1937.93 -1.40254 -1.34323 0
M  V30 21326 C 1935.06 -2.77778 -2.08463 0
M  V30 21327 C 1934.01 -3.89429 -1.77565 0
M  V30 21328 C 1933.34 -4.35863 -3.09722 0
M  V30 21329 C 1934.64 -5.11701 -1.04687 0
M  V30 21330 H 1936.33 -2.9763 -0.325107 0
M  V30 21331 H 1933.88 -1.43164 -0.154933 0
M  V30 21332 H 1935.83 -3.19079 -2.75258 0
M  V30 21333 H 1934.56 -1.95566 -2.61575 0
M  V30 21334 H 1933.21 -3.48698 -1.13161 0
M  V30 21335 H 1932.86 -3.50515 -3.6076 0
M  V30 21336 H 1932.56 -5.11152 -2.89823 0
M  V30 21337 H 1934.09 -4.79812 -3.77641 0
M  V30 21338 H 1935.5 -5.50045 -1.61628 0
M  V30 21339 H 1933.9 -5.92549 -0.948964 0
M  V30 21340 H 1934.97 -4.84889 -0.032977 0
M  V30 21341 N 1936.31 0.158505 -1.56801 0
M  V30 21342 C 1937.24 1.22086 -1.93978 0
M  V30 21343 C 1938.26 1.39798 -0.834291 0
M  V30 21344 O 1939.45 1.39573 -1.11272 0
M  V30 21345 C 1936.55 2.58757 -2.18857 0
M  V30 21346 C 1935.72 2.62175 -3.50118 0
M  V30 21347 C 1934.78 3.80301 -3.63673 0
M  V30 21348 O 1933.8 3.65706 -4.36174 0
M  V30 21349 N 1935.01 4.97286 -2.99477 0
M  V30 21350 H 1937.77 0.904964 -2.8571 0
M  V30 21351 H 1935.33 0.348168 -1.58112 0
M  V30 21352 H 1937.32 3.3627 -2.25177 0
M  V30 21353 H 1935.89 2.82685 -1.33446 0
M  V30 21354 H 1935.11 1.70662 -3.55342 0
M  V30 21355 H 1936.4 2.61481 -4.36469 0
M  V30 21356 H 1935.8 5.12046 -2.40469 0
M  V30 21357 H 1934.36 5.72616 -3.11375 0
M  V30 21358 N 1937.79 1.51692 0.427485 0
M  V30 21359 C 1939.07 1.55395 1.18793 0
M  V30 21360 C 1939.45 0.324036 2.08598 0
M  V30 21361 O 1938.79 -0.690292 2.17824 0
M  V30 21362 C 1939 2.87313 1.98121 0
M  V30 21363 C 1940.35 3.39632 2.54824 0
M  V30 21364 O 1941.38 2.8893 2.08322 0
M  V30 21365 O 1940.24 4.28125 3.39664 0
M  V30 21366 H 1937.33 0.625173 0.541376 0
M  V30 21367 H 1939.88 1.6401 0.435754 0
M  V30 21368 H 1938.65 3.68284 1.32222 0
M  V30 21369 H 1938.27 2.81907 2.80383 0
M  V30 21370 N 1939.27 -0.683564 1.42004 0
M  V30 21371 C 1940.5 -1.4721 1.45386 0
M  V30 21372 C 1940.91 -1.88696 0.062603 0
M  V30 21373 O 1940.27 -1.5757 -0.920764 0
M  V30 21374 C 1940.32 -2.7269 2.37323 0
M  V30 21375 O 1940.04 -2.32947 3.71035 0
M  V30 21376 C 1941.54 -3.6633 2.49634 0
M  V30 21377 H 1938.76 -0.453255 0.494773 0
M  V30 21378 H 1941.3 -0.840646 1.86423 0
M  V30 21379 H 1939.46 -3.32044 1.99563 0
M  V30 21380 H 1939.87 -3.13915 4.20188 0
M  V30 21381 H 1941.35 -4.51125 3.18104 0
M  V30 21382 H 1941.82 -4.11636 1.53141 0
M  V30 21383 H 1942.43 -3.12874 2.8808 0
M  V30 21384 N 1940.75 -1.28031 -0.919012 0
M  V30 21385 C 1941.68 -1.07305 -2.0253 0
M  V30 21386 C 1942.69 -0.0264063 -1.62779 0
M  V30 21387 O 1943.88 -0.268902 -1.76463 0
M  V30 21388 C 1940.98 -0.607467 -3.33411 0
M  V30 21389 C 1940.15 -1.72834 -4.01805 0
M  V30 21390 C 1939.21 -1.25703 -5.10965 0
M  V30 21391 O 1938.24 -1.9583 -5.34452 0
M  V30 21392 N 1939.44 -0.117374 -5.80381 0
M  V30 21393 H 1942.2 -2.02575 -2.2087 0
M  V30 21394 H 1939.77 -1.19713 -1.08997 0
M  V30 21395 H 1941.76 -0.275875 -4.03759 0
M  V30 21396 H 1940.33 0.252241 -3.11581 0
M  V30 21397 H 1939.55 -2.22979 -3.25075 0
M  V30 21398 H 1940.84 -2.48038 -4.44246 0
M  V30 21399 H 1940.23 0.467747 -5.63763 0
M  V30 21400 H 1938.79 0.154978 -6.51616 0
M  V30 21401 N 1942.22 1.12672 -1.10194 0
M  V30 21402 C 1943.13 2.2192 -0.76082 0
M  V30 21403 C 1944.15 1.72328 0.240604 0
M  V30 21404 O 1945.33 2.01241 0.0799808 0
M  V30 21405 C 1942.39 3.46151 -0.19501 0
M  V30 21406 C 1941.45 4.10595 -1.25339 0
M  V30 21407 C 1940.68 5.28896 -0.714485 0
M  V30 21408 O 1940.91 5.68543 0.459943 0
M  V30 21409 O 1939.84 5.83592 -1.47324 0
M  V30 21410 H 1943.67 2.53487 -1.67266 0
M  V30 21411 H 1941.25 1.20959 -0.876892 0
M  V30 21412 H 1943.13 4.21238 0.116809 0
M  V30 21413 H 1941.81 3.16266 0.689729 0
M  V30 21414 H 1940.72 3.37299 -1.61803 0
M  V30 21415 H 1942.05 4.44629 -2.11106 0
M  V30 21416 N 1943.7 0.89031 1.30043 0
M  V30 21417 C 1944.63 0.377386 2.3043 0
M  V30 21418 C 1945.61 -0.542607 1.61213 0
M  V30 21419 O 1946.8 -0.455328 1.88787 0
M  V30 21420 C 1943.93 -0.404264 3.44939 0
M  V30 21421 C 1942.88 0.424448 4.2589 0
M  V30 21422 C 1942.21 -0.48413 5.32504 0
M  V30 21423 C 1943.51 1.6694 4.94902 0
M  V30 21424 H 1945.2 1.21628 2.73582 0
M  V30 21425 H 1942.75 0.586299 1.31524 0
M  V30 21426 H 1944.7 -0.773769 4.14235 0
M  V30 21427 H 1943.42 -1.27685 3.00606 0
M  V30 21428 H 1942.08 0.776162 3.58289 0
M  V30 21429 H 1941.73 -1.35458 4.84417 0
M  V30 21430 H 1941.43 0.0665939 5.87562 0
M  V30 21431 H 1942.96 -0.850034 6.04654 0
M  V30 21432 H 1944.37 1.37017 5.56686 0
M  V30 21433 H 1942.77 2.16073 5.59851 0
M  V30 21434 H 1943.84 2.41077 4.20725 0
M  V30 21435 N 1945.18 -1.43489 0.651812 0
M  V30 21436 C 1946.11 -2.33484 -0.0271093 0
M  V30 21437 C 1947.09 -1.4939 -0.813427 0
M  V30 21438 O 1948.28 -1.78058 -0.775186 0
M  V30 21439 C 1945.41 -3.32737 -0.995143 0
M  V30 21440 C 1944.36 -4.26809 -0.319036 0
M  V30 21441 C 1943.69 -5.1609 -1.39842 0
M  V30 21442 C 1944.99 -5.16326 0.787692 0
M  V30 21443 H 1946.68 -2.90503 0.724441 0
M  V30 21444 H 1944.23 -1.39686 0.349826 0
M  V30 21445 H 1946.18 -3.94593 -1.479 0
M  V30 21446 H 1944.9 -2.73972 -1.77784 0
M  V30 21447 H 1943.56 -3.66316 0.144366 0
M  V30 21448 H 1943.21 -4.53664 -2.17251 0
M  V30 21449 H 1942.91 -5.79848 -0.951292 0
M  V30 21450 H 1944.43 -5.80819 -1.88367 0
M  V30 21451 H 1945.85 -5.71999 0.386053 0
M  V30 21452 H 1944.24 -5.88798 1.1592 0
M  V30 21453 H 1945.31 -4.56099 1.64626 0
M  V30 21454 N 1946.66 -0.393643 -1.52605 0
M  V30 21455 C 1947.59 0.474548 -2.24234 0
M  V30 21456 C 1948.6 1.02311 -1.26634 0
M  V30 21457 O 1949.79 0.924695 -1.52681 0
M  V30 21458 C 1946.89 1.67083 -2.9485 0
M  V30 21459 C 1946.06 1.24889 -4.19192 0
M  V30 21460 C 1945.12 2.31034 -4.72768 0
M  V30 21461 O 1944.15 1.92263 -5.35746 0
M  V30 21462 N 1945.35 3.63004 -4.52999 0
M  V30 21463 H 1948.12 -0.139149 -2.99377 0
M  V30 21464 H 1945.68 -0.220221 -1.60395 0
M  V30 21465 H 1947.67 2.37626 -3.27591 0
M  V30 21466 H 1946.24 2.19078 -2.22988 0
M  V30 21467 H 1945.46 0.372176 -3.92439 0
M  V30 21468 H 1946.75 0.94369 -4.99972 0
M  V30 21469 H 1946.15 3.97263 -4.02739 0
M  V30 21470 H 1944.7 4.29568 -4.90219 0
M  V30 21471 N 1948.14 1.57115 -0.123593 0
M  V30 21472 C 1949.05 2.19104 0.838493 0
M  V30 21473 C 1950.06 1.1685 1.28927 0
M  V30 21474 O 1951.24 1.49337 1.35131 0
M  V30 21475 C 1948.3 2.78191 2.06908 0
M  V30 21476 C 1947.36 3.95495 1.66979 0
M  V30 21477 C 1946.6 4.51755 2.84171 0
M  V30 21478 O 1946.82 4.06908 3.99728 0
M  V30 21479 O 1945.75 5.42372 2.60991 0
M  V30 21480 H 1949.58 3.0178 0.340935 0
M  V30 21481 H 1947.16 1.4905 0.102255 0
M  V30 21482 H 1949.05 3.15837 2.78971 0
M  V30 21483 H 1947.72 1.98542 2.55661 0
M  V30 21484 H 1946.63 3.62609 0.920091 0
M  V30 21485 H 1947.96 4.76593 1.22963 0
M  V30 21486 N 1949.61 -0.150187 1.56883 0
M  V30 21487 C 1950.52 -1.20504 2.01286 0
M  V30 21488 C 1951.54 -1.47204 0.927733 0
M  V30 21489 O 1952.72 -1.58937 1.23697 0
M  V30 21490 C 1949.78 -2.51932 2.38184 0
M  V30 21491 C 1948.84 -2.32906 3.60629 0
M  V30 21492 C 1948.07 -3.58067 3.95757 0
M  V30 21493 O 1948.3 -4.64119 3.31587 0
M  V30 21494 O 1947.23 -3.5092 4.89018 0
M  V30 21495 H 1951.06 -0.858075 2.91326 0
M  V30 21496 H 1948.64 -0.358669 1.45031 0
M  V30 21497 H 1950.52 -3.29423 2.6279 0
M  V30 21498 H 1949.2 -2.86165 1.513 0
M  V30 21499 H 1948.11 -1.53377 3.41213 0
M  V30 21500 H 1949.44 -2.0359 4.4812 0
M  V30 21501 N 1951.09 -1.51916 -0.419434 0
M  V30 21502 C 1952.04 -1.75117 -1.5309 0
M  V30 21503 C 1953.03 -0.617961 -1.57726 0
M  V30 21504 O 1954.24 -0.79977 -1.61257 0
M  V30 21505 H 1950.62 -0.553609 -0.508941 0
M  V30 21506 H 1952.59 -2.68253 -1.30702 0
M  V30 21507 C 1951.34 -1.90958 -2.90569 0
M  V30 21508 H 1950.66 -2.77571 -2.8774 0
M  V30 21509 H 1952.1 -2.11196 -3.67658 0
M  V30 21510 C 1950.56 -0.673977 -3.3009 0
M  V30 21511 O 1951.09 0.163 -4.01369 0
M  V30 21512 N 1949.29 -0.512857 -2.86039 0
M  V30 21513 H 1948.84 -1.19505 -2.28202 0
M  V30 21514 H 1948.8 0.312589 -3.12842 0
M  V30 21515 N 1952.57 0.676023 -1.42365 0
M  V30 21516 C 1953.99 0.989001 -1.25263 0
M  V30 21517 C 1954.19 2.00896 -0.155941 0
M  V30 21518 O 1953.24 2.48026 0.473229 0
M  V30 21519 C 1954.56 1.49498 -2.60904 0
M  V30 21520 C 1956.1 1.61281 -2.68249 0
M  V30 21521 C 1956.58 2.15275 -4.04253 0
M  V30 21522 N 1958.07 2.2261 -4.06201 0
M  V30 21523 C 1958.8 2.6546 -5.08251 0
M  V30 21524 N 1958.3 3.07771 -6.20684 0
M  V30 21525 N 1960.09 2.65198 -4.95607 0
M  V30 21526 H 1952.24 0.000697929 -2.124 0
M  V30 21527 H 1954.51 0.0628334 -0.945915 0
M  V30 21528 H 1954.21 0.820033 -3.42006 0
M  V30 21529 H 1954.09 2.47392 -2.8474 0
M  V30 21530 H 1956.47 2.27882 -1.87493 0
M  V30 21531 H 1956.56 0.618793 -2.48203 0
M  V30 21532 H 1956.2 1.49284 -4.85466 0
M  V30 21533 H 1956.13 3.15466 -4.2165 0
M  V30 21534 H 1958.62 1.92776 -3.25032 0
M  V30 21535 H 1958.93 3.3915 -6.94404 0
M  V30 21536 H 1957.28 3.05631 -6.24191 0
M  V30 21537 H 1960.47 2.31504 -4.06846 0
M  V30 21538 H 1960.64 2.98272 -5.75272 0
M  V30 21539 N 1954.05 1.28517 0.912209 0
M  V30 21540 C 1954.98 1.08378 2.01958 0
M  V30 21541 C 1955.99 0.0350385 1.62762 0
M  V30 21542 O 1957.18 0.278256 1.76318 0
M  V30 21543 C 1954.28 0.62514 3.33084 0
M  V30 21544 C 1953.46 1.74963 4.00882 0
M  V30 21545 C 1952.51 1.28411 5.10291 0
M  V30 21546 O 1951.54 1.98662 5.33406 0
M  V30 21547 N 1952.74 0.148151 5.80311 0
M  V30 21548 H 1955.51 2.03744 2.19792 0
M  V30 21549 H 1953.07 1.2029 1.0836 0
M  V30 21550 H 1955.06 0.297284 4.03607 0
M  V30 21551 H 1953.63 -0.235714 3.1171 0
M  V30 21552 H 1952.85 2.247 3.23888 0
M  V30 21553 H 1954.14 2.50391 4.42924 0
M  V30 21554 H 1953.54 -0.437843 5.64003 0
M  V30 21555 H 1952.09 -0.120419 6.51689 0
M  V30 21556 N 1955.53 -1.12086 1.1079 0
M  V30 21557 C 1956.47 -2.17926 0.760064 0
M  V30 21558 C 1957.44 -1.63967 -0.265316 0
M  V30 21559 O 1958.63 -1.90258 -0.143764 0
M  V30 21560 C 1955.77 -3.44508 0.202045 0
M  V30 21561 C 1954.88 -4.12503 1.28317 0
M  V30 21562 C 1954.02 -5.26747 0.686406 0
M  V30 21563 C 1953.06 -5.86614 1.74785 0
M  V30 21564 N 1952.19 -6.92264 1.17108 0
M  V30 21565 H 1957.03 -2.47025 1.66681 0
M  V30 21566 H 1954.57 -1.21275 0.832507 0
M  V30 21567 H 1956.53 -4.16967 -0.139401 0
M  V30 21568 H 1955.16 -3.15814 -0.667918 0
M  V30 21569 H 1954.21 -3.38186 1.74168 0
M  V30 21570 H 1955.52 -4.53063 2.08651 0
M  V30 21571 H 1954.68 -6.05984 0.294621 0
M  V30 21572 H 1953.41 -4.87474 -0.148334 0
M  V30 21573 H 1952.42 -5.0606 2.14902 0
M  V30 21574 H 1953.64 -6.27956 2.5855 0
M  V30 21575 H 1951.59 -6.55023 0.35787 0
M  V30 21576 H 1951.51 -7.31443 1.91122 0
M  V30 21577 H 1952.78 -7.75322 0.805966 0
M  V30 21578 N 1957 -0.897194 -1.29569 0
M  V30 21579 C 1957.93 -0.389601 -2.30227 0
M  V30 21580 C 1958.92 0.53405 -1.61499 0
M  V30 21581 O 1960.1 0.44531 -1.89025 0
M  V30 21582 C 1957.23 0.385966 -3.45149 0
M  V30 21583 C 1956.18 -0.447028 -4.25659 0
M  V30 21584 C 1955.51 0.455883 -5.32753 0
M  V30 21585 C 1956.81 -1.69562 -4.9401 0
M  V30 21586 H 1958.5 -1.23077 -2.72933 0
M  V30 21587 H 1956.05 -0.593265 -1.31211 0
M  V30 21588 H 1958 0.751791 -4.1464 0
M  V30 21589 H 1956.73 1.26089 -3.01279 0
M  V30 21590 H 1955.39 -0.795152 -3.57873 0
M  V30 21591 H 1955.03 1.32887 -4.85129 0
M  V30 21592 H 1954.73 -0.0977528 -5.87519 0
M  V30 21593 H 1956.26 0.817956 -6.05097 0
M  V30 21594 H 1957.67 -1.39968 -5.55951 0
M  V30 21595 H 1956.07 -2.19039 -5.58697 0
M  V30 21596 H 1957.14 -2.43305 -4.19441 0
M  V30 21597 N 1958.48 1.43142 -0.659413 0
M  V30 21598 C 1959.71 2.06603 -0.181642 0
M  V30 21599 C 1960.13 1.49137 1.14629 0
M  V30 21600 O 1959.49 0.603739 1.70952 0
M  V30 21601 C 1959.54 3.6043 -0.110662 0
M  V30 21602 O 1958.64 4.01884 0.925344 0
M  V30 21603 H 1957.98 0.656771 -0.097712 0
M  V30 21604 H 1960.51 1.83541 -0.904086 0
M  V30 21605 H 1960.52 4.07939 0.0706089 0
M  V30 21606 H 1959.2 4.01632 -1.08002 0
M  V30 21607 H 1957.78 3.65954 0.716361 0
M  V30 21608 N 1959.96 0.40173 1.52394 0
M  V30 21609 C 1960.89 -0.41861 2.29717 0
M  V30 21610 C 1961.87 -1.05263 1.33618 0
M  V30 21611 O 1963.06 -1.06304 1.62521 0
M  V30 21612 C 1960.19 -1.5395 3.11314 0
M  V30 21613 C 1959.14 -1.03088 4.154 0
M  V30 21614 C 1958.47 -2.2448 4.85297 0
M  V30 21615 C 1959.77 -0.0900956 5.22222 0
M  V30 21616 H 1961.46 0.226577 2.98541 0
M  V30 21617 H 1959.01 0.110411 1.43576 0
M  V30 21618 H 1960.96 -2.12031 3.64171 0
M  V30 21619 H 1959.68 -2.21246 2.40246 0
M  V30 21620 H 1958.34 -0.472515 3.63542 0
M  V30 21621 H 1957.99 -2.90313 4.10764 0
M  V30 21622 H 1957.69 -1.91103 5.55656 0
M  V30 21623 H 1959.21 -2.83181 5.40963 0
M  V30 21624 H 1960.63 -0.579479 5.70364 0
M  V30 21625 H 1959.03 0.154505 5.99901 0
M  V30 21626 H 1960.1 0.857375 4.7726 0
M  V30 21627 N 1961.44 -1.57047 0.131923 0
M  V30 21628 C 1962.66 -2.00419 -0.533574 0
M  V30 21629 C 1963.09 -1.01125 -1.58605 0
M  V30 21630 O 1962.45 0.0152254 -1.81294 0
M  V30 21631 C 1962.49 -3.42611 -1.12472 0
M  V30 21632 O 1961.6 -3.46263 -2.23999 0
M  V30 21633 H 1960.94 -0.650739 -0.132043 0
M  V30 21634 H 1963.47 -2.03368 0.224211 0
M  V30 21635 H 1963.48 -3.81094 -1.45709 0
M  V30 21636 H 1962.15 -4.14392 -0.353895 0
M  V30 21637 H 1960.73 -3.1961 -1.92103 0
M  V30 21638 N 1962.92 0.141865 -1.5696 0
M  V30 21639 C 1964.14 0.868403 -1.87793 0
M  V30 21640 C 1964.56 1.74504 -0.720691 0
M  V30 21641 O 1963.92 1.79859 0.309372 0
M  V30 21642 C 1963.97 1.72086 -3.17913 0
M  V30 21643 O 1963.69 0.879548 -4.2918 0
M  V30 21644 C 1965.19 2.55454 -3.62296 0
M  V30 21645 H 1962.41 0.250842 -0.62235 0
M  V30 21646 H 1964.95 0.133113 -2.04066 0
M  V30 21647 H 1963.11 2.40915 -3.03379 0
M  V30 21648 H 1963.52 1.4653 -5.03616 0
M  V30 21649 H 1965 3.10834 -4.56165 0
M  V30 21650 H 1965.47 3.31735 -2.87834 0
M  V30 21651 H 1966.08 1.91906 -3.79542 0
M  V30 21652 N 1964.39 1.52136 0.411372 0
M  V30 21653 C 1965.34 1.75318 1.50107 0
M  V30 21654 C 1966.31 0.595552 1.55056 0
M  V30 21655 O 1967.5 0.832859 1.71663 0
M  V30 21656 C 1964.64 1.9077 2.87578 0
M  V30 21657 C 1963.75 3.18411 2.91956 0
M  V30 21658 C 1962.88 3.24307 4.20712 0
M  V30 21659 C 1961.92 4.4616 4.19056 0
M  V30 21660 N 1961.06 4.49461 5.39379 0
M  V30 21661 H 1965.9 2.68323 1.29642 0
M  V30 21662 H 1963.44 1.32958 0.629326 0
M  V30 21663 H 1965.4 1.97711 3.67377 0
M  V30 21664 H 1964.03 1.01148 3.06543 0
M  V30 21665 H 1963.08 3.20652 2.04661 0
M  V30 21666 H 1964.39 4.08245 2.86597 0
M  V30 21667 H 1963.54 3.30308 5.08902 0
M  V30 21668 H 1962.28 2.32408 4.28763 0
M  V30 21669 H 1961.29 4.40308 3.29255 0
M  V30 21670 H 1962.51 5.39351 4.12646 0
M  V30 21671 H 1960.46 3.60444 5.48102 0
M  V30 21672 H 1960.38 5.33136 5.36005 0
M  V30 21673 H 1961.64 4.59688 6.29529 0
M  V30 21674 N 1965.87 -0.668464 1.42721 0
M  V30 21675 C 1966.8 -1.79375 1.49489 0
M  V30 21676 C 1967.78 -1.66442 0.350881 0
M  V30 21677 O 1968.97 -1.85767 0.566049 0
M  V30 21678 C 1966.1 -3.17712 1.40273 0
M  V30 21679 C 1965.05 -3.45389 2.52766 0
M  V30 21680 C 1964.38 -4.83367 2.28606 0
M  V30 21681 C 1965.68 -3.4165 3.95061 0
M  V30 21682 H 1967.37 -1.73968 2.43671 0
M  V30 21683 H 1964.92 -0.835548 1.1728 0
M  V30 21684 H 1966.87 -3.96173 1.43614 0
M  V30 21685 H 1965.6 -3.23811 0.425882 0
M  V30 21686 H 1964.26 -2.69292 2.48752 0
M  V30 21687 H 1963.9 -4.86124 1.292 0
M  V30 21688 H 1963.6 -5.02847 3.04005 0
M  V30 21689 H 1965.13 -5.64104 2.33707 0
M  V30 21690 H 1966.54 -4.1007 4.00644 0
M  V30 21691 H 1964.94 -3.72666 4.70362 0
M  V30 21692 H 1966.01 -2.40106 4.2128 0
M  V30 21693 N 1967.35 -1.28999 -0.905381 0
M  V30 21694 C 1968.3 -1.13642 -2.00883 0
M  V30 21695 C 1969.27 -0.0312703 -1.66071 0
M  V30 21696 O 1970.45 -0.197747 -1.89773 0
M  V30 21697 C 1967.59 -0.813027 -3.35386 0
M  V30 21698 C 1966.71 -1.99806 -3.83017 0
M  V30 21699 C 1965.84 -1.61454 -5.06069 0
M  V30 21700 C 1964.88 -2.76572 -5.46054 0
M  V30 21701 N 1964.02 -2.38655 -6.60294 0
M  V30 21702 H 1968.86 -2.08052 -2.1335 0
M  V30 21703 H 1966.39 -1.03539 -1.0449 0
M  V30 21704 H 1968.35 -0.606238 -4.12772 0
M  V30 21705 H 1966.98 0.094156 -3.22663 0
M  V30 21706 H 1966.03 -2.31672 -3.01715 0
M  V30 21707 H 1967.35 -2.86084 -4.08604 0
M  V30 21708 H 1966.5 -1.3703 -5.91023 0
M  V30 21709 H 1965.24 -0.723154 -4.82309 0
M  V30 21710 H 1964.24 -3.01684 -4.59638 0
M  V30 21711 H 1965.47 -3.66365 -5.71798 0
M  V30 21712 H 1963.42 -1.51997 -6.38148 0
M  V30 21713 H 1963.33 -3.18468 -6.85649 0
M  V30 21714 H 1964.6 -2.17536 -7.48531 0
M  V30 21715 N 1968.83 1.11497 -1.11383 0
M  V30 21716 C 1969.76 2.17283 -0.729431 0
M  V30 21717 C 1970.77 1.61041 0.238642 0
M  V30 21718 O 1971.96 1.78487 0.0216271 0
M  V30 21719 C 1969.06 3.38852 -0.057216 0
M  V30 21720 C 1968.24 4.24562 -1.05196 0
M  V30 21721 C 1967.3 5.24605 -0.40941 0
M  V30 21722 O 1966.32 5.59183 -1.06315 0
M  V30 21723 N 1967.52 5.74565 0.827957 0
M  V30 21724 H 1970.29 2.50871 -1.63963 0
M  V30 21725 H 1967.85 1.27013 -1.00396 0
M  V30 21726 H 1969.84 4.02871 0.384356 0
M  V30 21727 H 1968.41 3.03332 0.755551 0
M  V30 21728 H 1967.63 3.57008 -1.6715 0
M  V30 21729 H 1968.92 4.78667 -1.72498 0
M  V30 21730 H 1968.32 5.48653 1.37827 0
M  V30 21731 H 1966.87 6.40423 1.21252 0
M  V30 21732 N 1970.31 0.904053 1.29092 0
M  V30 21733 C 1971.55 0.532992 1.95671 0
M  V30 21734 C 1971.89 -0.919194 1.71069 0
M  V30 21735 O 1971.16 -1.6523 1.02612 0
M  V30 21736 C 1971.44 0.831252 3.50374 0
M  V30 21737 C 1971.3 2.33546 3.84417 0
M  V30 21738 C 1972.62 0.320724 4.3893 0
M  V30 21739 H 1969.74 0.195117 0.710703 0
M  V30 21740 H 1972.38 1.13153 1.52632 0
M  V30 21741 H 1970.53 0.321853 3.87165 0
M  V30 21742 H 1972.2 2.91473 3.57549 0
M  V30 21743 H 1970.44 2.79442 3.31805 0
M  V30 21744 H 1971.11 2.49471 4.9241 0
M  V30 21745 H 1973.59 0.756974 4.09157 0
M  V30 21746 H 1972.47 0.55858 5.4605 0
M  V30 21747 H 1972.73 -0.778699 4.35188 0
M  V30 21748 N 1971.79 -1.4279 0.666995 0
M  V30 21749 C 1972.7 -2.34594 -0.0164305 0
M  V30 21750 C 1973.71 -1.54657 -0.797322 0
M  V30 21751 O 1974.89 -1.87256 -0.741426 0
M  V30 21752 C 1971.95 -3.33102 -0.961469 0
M  V30 21753 C 1971.01 -4.28939 -0.17598 0
M  V30 21754 C 1970.25 -5.22741 -1.076 0
M  V30 21755 O 1970.47 -5.21289 -2.31546 0
M  V30 21756 O 1969.4 -5.99464 -0.541001 0
M  V30 21757 H 1973.23 -2.94557 0.739579 0
M  V30 21758 H 1970.81 -1.43162 0.427207 0
M  V30 21759 H 1972.7 -3.93639 -1.5042 0
M  V30 21760 H 1971.37 -2.75623 -1.69746 0
M  V30 21761 H 1970.28 -3.71839 0.410667 0
M  V30 21762 H 1971.61 -4.89438 0.520737 0
M  V30 21763 N 1973.26 -0.409806 -1.52179 0
M  V30 21764 C 1974.54 0.224342 -1.94309 0
M  V30 21765 C 1974.92 1.62561 -1.34674 0
M  V30 21766 O 1974.27 2.22438 -0.522817 0
M  V30 21767 C 1974.48 0.22999 -3.48241 0
M  V30 21768 C 1975.83 0.449011 -4.22219 0
M  V30 21769 O 1976.85 0.309316 -3.54854 0
M  V30 21770 O 1975.71 0.724419 -5.41677 0
M  V30 21771 H 1972.8 0.144759 -0.814232 0
M  V30 21772 H 1975.35 -0.465799 -1.63182 0
M  V30 21773 H 1974.12 -0.750731 -3.84031 0
M  V30 21774 H 1973.74 0.964201 -3.85732 0
M  V30 21775 N 1974.74 1.56975 -0.14025 0
M  V30 21776 C 1975.65 2.19981 0.815207 0
M  V30 21777 C 1976.67 1.18211 1.2768 0
M  V30 21778 O 1977.84 1.50762 1.33539 0
M  V30 21779 C 1974.91 2.80369 2.03946 0
M  V30 21780 C 1973.97 3.97244 1.62774 0
M  V30 21781 C 1973.2 4.54744 2.79363 0
M  V30 21782 O 1973.43 4.11124 3.9539 0
M  V30 21783 O 1972.36 5.45109 2.55224 0
M  V30 21784 H 1976.19 3.02125 0.308908 0
M  V30 21785 H 1973.77 1.4915 0.0864409 0
M  V30 21786 H 1975.65 3.18778 2.75606 0
M  V30 21787 H 1974.33 2.01243 2.53541 0
M  V30 21788 H 1973.23 3.63564 0.88158 0
M  V30 21789 H 1974.57 4.7787 1.17901 0
M  V30 21790 N 1976.22 -0.133539 1.57033 0
M  V30 21791 C 1977.17 -1.16445 1.99272 0
M  V30 21792 C 1978.14 -1.41954 0.862458 0
M  V30 21793 O 1979.32 -1.54063 1.12557 0
M  V30 21794 C 1976.46 -2.48958 2.38985 0
M  V30 21795 C 1975.57 -2.30509 3.65362 0
M  V30 21796 C 1974.71 -3.56151 3.94119 0
M  V30 21797 C 1973.75 -3.32796 5.13725 0
M  V30 21798 N 1972.89 -4.50603 5.38425 0
M  V30 21799 H 1977.73 -0.797257 2.87137 0
M  V30 21800 H 1975.26 -0.382194 1.42048 0
M  V30 21801 H 1977.22 -3.26242 2.60043 0
M  V30 21802 H 1975.85 -2.83599 1.54181 0
M  V30 21803 H 1974.9 -1.44214 3.52004 0
M  V30 21804 H 1976.21 -2.0922 4.52801 0
M  V30 21805 H 1975.37 -4.41858 4.15748 0
M  V30 21806 H 1974.11 -3.80458 3.05128 0
M  V30 21807 H 1973.11 -2.45478 4.91956 0
M  V30 21808 H 1974.34 -3.09875 6.0428 0
M  V30 21809 H 1972.28 -4.75058 4.5239 0
M  V30 21810 H 1972.2 -4.32365 6.20158 0
M  V30 21811 H 1973.47 -5.37486 5.64561 0
M  V30 21812 N 1977.7 -1.52352 -0.403298 0
M  V30 21813 C 1978.65 -1.76731 -1.51224 0
M  V30 21814 C 1979.64 -0.634655 -1.57062 0
M  V30 21815 O 1980.85 -0.816829 -1.60399 0
M  V30 21816 H 1977.22 -0.558976 -0.503041 0
M  V30 21817 H 1979.19 -2.69624 -1.2785 0
M  V30 21818 C 1977.94 -1.94029 -2.88527 0
M  V30 21819 H 1977.26 -2.80607 -2.8478 0
M  V30 21820 H 1978.7 -2.15084 -3.65397 0
M  V30 21821 C 1977.16 -0.708949 -3.29356 0
M  V30 21822 O 1977.69 0.12042 -4.01519 0
M  V30 21823 N 1975.9 -0.543167 -2.85479 0
M  V30 21824 H 1975.45 -1.21919 -2.26922 0
M  V30 21825 H 1975.4 0.279391 -3.13156 0
M  V30 21826 N 1979.18 0.660885 -1.43074 0
M  V30 21827 C 1980.4 1.45376 -1.47921 0
M  V30 21828 C 1980.83 1.87855 -0.0960289 0
M  V30 21829 O 1980.18 1.5689 0.908583 0
M  V30 21830 C 1980.23 2.67002 -2.42368 0
M  V30 21831 O 1979.34 3.65783 -1.90465 0
M  V30 21832 H 1978.68 0.436193 -0.500632 0
M  V30 21833 H 1981.21 0.809399 -1.87909 0
M  V30 21834 H 1981.22 3.14909 -2.59416 0
M  V30 21835 H 1979.89 2.35426 -3.42852 0
M  V30 21836 H 1978.47 3.24885 -1.83041 0
M  V30 21837 N 1980.65 1.29477 0.898527 0
M  V30 21838 C 1981.9 1.17516 1.64913 0
M  V30 21839 C 1982.23 -0.273086 1.92573 0
M  V30 21840 O 1981.48 -1.21353 1.53531 0
M  V30 21841 C 1981.78 1.93505 3.00484 0
M  V30 21842 C 1981.45 3.43216 2.92427 0
M  V30 21843 C 1980.11 3.84044 2.89937 0
M  V30 21844 C 1982.46 4.38611 2.81548 0
M  V30 21845 C 1979.79 5.18582 2.74389 0
M  V30 21846 C 1982.14 5.73241 2.67539 0
M  V30 21847 C 1980.81 6.13326 2.63416 0
M  V30 21848 H 1980.08 0.430023 0.603458 0
M  V30 21849 H 1982.72 1.60427 1.04572 0
M  V30 21850 H 1981.03 1.43189 3.64698 0
M  V30 21851 H 1982.73 1.81654 3.57495 0
M  V30 21852 H 1979.32 3.10763 2.95168 0
M  V30 21853 H 1983.5 4.0802 2.82548 0
M  V30 21854 H 1978.76 5.48748 2.69602 0
M  V30 21855 H 1982.93 6.46808 2.58093 0
M  V30 21856 H 1980.56 7.17523 2.51126 0
M  V30 21857 N 1982.13 -1.10905 1.11972 0
M  V30 21858 C 1983.55 -1.3478 0.854776 0
M  V30 21859 C 1983.75 -1.94737 -0.517653 0
M  V30 21860 O 1982.8 -2.18391 -1.26734 0
M  V30 21861 C 1984.12 -2.27414 1.96732 0
M  V30 21862 C 1985.67 -2.40964 1.99764 0
M  V30 21863 C 1986.14 -3.36923 3.10237 0
M  V30 21864 N 1987.63 -3.44488 3.09648 0
M  V30 21865 C 1988.37 -4.18695 3.91768 0
M  V30 21866 N 1987.86 -4.95829 4.83865 0
M  V30 21867 N 1989.66 -4.14263 3.79924 0
M  V30 21868 H 1981.81 -0.703538 2.0041 0
M  V30 21869 H 1984.07 -0.372318 0.871828 0
M  V30 21870 H 1983.78 -1.90561 2.956 0
M  V30 21871 H 1983.65 -3.27681 1.86829 0
M  V30 21872 H 1986.04 -2.77089 1.01518 0
M  V30 21873 H 1986.12 -1.40529 2.13741 0
M  V30 21874 H 1985.76 -3.01524 4.08712 0
M  V30 21875 H 1985.69 -4.37225 2.93499 0
M  V30 21876 H 1988.18 -2.89475 2.42925 0
M  V30 21877 H 1988.5 -5.49836 5.43047 0
M  V30 21878 H 1986.84 -4.9497 4.87883 0
M  V30 21879 H 1990.03 -3.53095 3.07314 0
M  V30 21880 H 1990.2 -4.71837 4.44155 0
M  V30 21881 N 1983.61 -0.910886 -1.2861 0
M  V30 21882 C 1984.52 -0.402088 -2.31129 0
M  V30 21883 C 1985.54 0.508811 -1.66394 0
M  V30 21884 O 1986.71 0.395691 -1.97475 0
M  V30 21885 C 1983.78 0.352182 -3.44907 0
M  V30 21886 C 1982.84 -0.59159 -4.25204 0
M  V30 21887 C 1982.07 0.126778 -5.33549 0
M  V30 21888 O 1982.29 1.34897 -5.54219 0
M  V30 21889 O 1981.23 -0.536442 -5.99505 0
M  V30 21890 H 1985.05 -1.25289 -2.76652 0
M  V30 21891 H 1982.64 -0.675604 -1.33251 0
M  V30 21892 H 1984.52 0.778285 -4.14151 0
M  V30 21893 H 1983.2 1.17886 -3.01471 0
M  V30 21894 H 1982.1 -1.06703 -3.5856 0
M  V30 21895 H 1983.44 -1.38501 -4.72312 0
M  V30 21896 N 1985.09 1.42434 -0.674558 0
M  V30 21897 C 1986.02 2.2916 0.0428589 0
M  V30 21898 C 1987.03 1.43667 0.765749 0
M  V30 21899 O 1988.22 1.67388 0.619947 0
M  V30 21900 C 1985.32 3.21083 1.08439 0
M  V30 21901 C 1984.5 4.35228 0.435368 0
M  V30 21902 C 1983.55 5.07873 1.37665 0
M  V30 21903 O 1982.58 5.62402 0.877047 0
M  V30 21904 N 1983.78 5.13364 2.70994 0
M  V30 21905 H 1986.55 2.91372 -0.701618 0
M  V30 21906 H 1984.11 1.53357 -0.518954 0
M  V30 21907 H 1986.1 3.66548 1.71535 0
M  V30 21908 H 1984.67 2.60324 1.7306 0
M  V30 21909 H 1983.89 3.92411 -0.375103 0
M  V30 21910 H 1985.18 5.08797 -0.0167882 0
M  V30 21911 H 1984.58 4.70472 3.14122 0
M  V30 21912 H 1983.13 5.62476 3.29338 0
M  V30 21913 N 1986.57 0.417871 1.51959 0
M  V30 21914 C 1987.5 -0.394222 2.30148 0
M  V30 21915 C 1988.48 -1.0384 1.34727 0
M  V30 21916 O 1989.66 -1.04575 1.63639 0
M  V30 21917 C 1986.79 -1.50639 3.1293 0
M  V30 21918 C 1985.75 -0.986759 4.1647 0
M  V30 21919 C 1985.07 -2.1932 4.8765 0
M  V30 21920 C 1986.37 -0.0347019 5.22288 0
M  V30 21921 H 1988.07 0.258228 2.98284 0
M  V30 21922 H 1985.61 0.125633 1.43451 0
M  V30 21923 H 1987.57 -2.08157 3.664 0
M  V30 21924 H 1986.29 -2.18685 2.42579 0
M  V30 21925 H 1984.95 -0.43393 3.64023 0
M  V30 21926 H 1984.6 -2.8594 4.1382 0
M  V30 21927 H 1984.3 -1.85199 5.57652 0
M  V30 21928 H 1985.82 -2.77427 5.43936 0
M  V30 21929 H 1987.23 -0.518951 5.70946 0
M  V30 21930 H 1985.63 0.218124 5.99703 0
M  V30 21931 H 1986.7 0.907947 4.76324 0
M  V30 21932 N 1988.04 -1.56898 0.148573 0
M  V30 21933 C 1988.95 -2.2041 -0.80353 0
M  V30 21934 C 1989.97 -1.18886 -1.27052 0
M  V30 21935 O 1991.15 -1.51468 -1.32738 0
M  V30 21936 C 1988.21 -2.81447 -2.02456 0
M  V30 21937 C 1987.27 -3.98102 -1.60665 0
M  V30 21938 C 1986.51 -4.56219 -2.76948 0
M  V30 21939 O 1986.73 -4.13215 -3.93204 0
M  V30 21940 O 1985.66 -5.46455 -2.52329 0
M  V30 21941 H 1989.49 -3.02284 -0.292881 0
M  V30 21942 H 1987.07 -1.49193 -0.0785299 0
M  V30 21943 H 1988.96 -3.20235 -2.73911 0
M  V30 21944 H 1987.63 -2.02585 -2.5247 0
M  V30 21945 H 1986.54 -3.64027 -0.862287 0
M  V30 21946 H 1987.87 -4.78489 -1.15365 0
M  V30 21947 N 1989.52 0.125209 -1.57102 0
M  V30 21948 C 1990.43 1.17286 -2.03177 0
M  V30 21949 C 1991.45 1.4571 -0.951035 0
M  V30 21950 O 1992.62 1.56949 -1.2621 0
M  V30 21951 C 1989.69 2.4811 -2.42161 0
M  V30 21952 C 1988.75 2.2714 -3.64288 0
M  V30 21953 C 1987.98 3.51726 -4.01404 0
M  V30 21954 O 1988.21 4.58785 -3.38929 0
M  V30 21955 O 1987.14 3.43096 -4.94539 0
M  V30 21956 H 1990.97 0.811619 -2.92654 0
M  V30 21957 H 1988.55 0.335551 -1.45583 0
M  V30 21958 H 1990.43 3.252 -2.67998 0
M  V30 21959 H 1989.11 2.83721 -1.55833 0
M  V30 21960 H 1988.02 1.47929 -3.4361 0
M  V30 21961 H 1989.35 1.96435 -4.51303 0
M  V30 21962 N 1991 1.52564 0.395213 0
M  V30 21963 C 1991.91 1.79813 1.5068 0
M  V30 21964 C 1992.93 0.684507 1.5997 0
M  V30 21965 O 1994.1 0.971428 1.76423 0
M  V30 21966 C 1991.17 1.95567 2.86277 0
M  V30 21967 C 1990.23 3.19481 2.86759 0
M  V30 21968 C 1989.46 3.34474 4.15888 0
M  V30 21969 O 1989.68 2.54414 5.10519 0
M  V30 21970 O 1988.62 4.27698 4.23507 0
M  V30 21971 H 1992.44 2.74191 1.30586 0
M  V30 21972 H 1990.03 1.37579 0.582445 0
M  V30 21973 H 1991.91 2.07672 3.66675 0
M  V30 21974 H 1990.59 1.04378 3.0641 0
M  V30 21975 H 1989.49 3.12823 2.05164 0
M  V30 21976 H 1990.83 4.10496 2.71577 0
M  V30 21977 N 1992.48 -0.653289 1.43422 0
M  V30 21978 C 1993.39 -1.79526 1.51022 0
M  V30 21979 C 1994.4 -1.69403 0.39732 0
M  V30 21980 O 1995.58 -1.90574 0.651437 0
M  V30 21981 C 1992.65 -3.15803 1.43071 0
M  V30 21982 C 1991.71 -3.37723 2.65031 0
M  V30 21983 C 1990.94 -4.67499 2.5745 0
M  V30 21984 O 1991.16 -5.46846 1.6222 0
M  V30 21985 O 1990.1 -4.91137 3.47948 0
M  V30 21986 H 1993.92 -1.76069 2.47454 0
M  V30 21987 H 1991.51 -0.81176 1.25423 0
M  V30 21988 H 1993.39 -3.97083 1.41079 0
M  V30 21989 H 1992.06 -3.1985 0.497738 0
M  V30 21990 H 1990.97 -2.56208 2.72595 0
M  V30 21991 H 1992.3 -3.38523 3.573 0
M  V30 21992 N 1993.96 -1.29952 -0.891648 0
M  V30 21993 C 1994.87 -1.17673 -2.02954 0
M  V30 21994 C 1995.88 -0.0981428 -1.73723 0
M  V30 21995 O 1997.06 -0.311785 -1.98972 0
M  V30 21996 C 1994.12 -0.862565 -3.35799 0
M  V30 21997 C 1993.18 -2.02583 -3.78495 0
M  V30 21998 C 1992.42 -1.72656 -5.05001 0
M  V30 21999 O 1992.64 -0.651307 -5.66669 0
M  V30 22000 O 1991.57 -2.57698 -5.43944 0
M  V30 22001 H 1995.4 -2.13248 -2.16239 0
M  V30 22002 H 1992.99 -1.09481 -1.01658 0
M  V30 22003 H 1994.87 -0.702274 -4.15507 0
M  V30 22004 H 1993.54 0.0633315 -3.23638 0
M  V30 22005 H 1992.45 -2.2414 -2.99519 0
M  V30 22006 H 1993.78 -2.93321 -3.95251 0
M  V30 22007 N 1995.44 1.1031 -1.12559 0
M  V30 22008 C 1996.4 2.14869 -0.79773 0
M  V30 22009 C 1997.4 1.59691 0.188521 0
M  V30 22010 O 1998.59 1.7416 -0.037433 0
M  V30 22011 C 1995.72 3.40394 -0.185665 0
M  V30 22012 H 1996.91 2.45384 -1.72415 0
M  V30 22013 H 1994.47 1.25694 -0.929011 0
M  V30 22014 H 1995.2 3.15499 0.750409 0
M  V30 22015 H 1994.99 3.81731 -0.895771 0
M  V30 22016 H 1996.48 4.17591 0.0271848 0
M  V30 22017 N 1996.91 0.917694 1.28125 0
M  V30 22018 C 1997.86 0.407628 2.27172 0
M  V30 22019 C 1998.83 -0.520056 1.57749 0
M  V30 22020 O 2000.02 -0.441394 1.85624 0
M  V30 22021 C 1997.16 -0.342648 3.43395 0
M  V30 22022 C 1996.27 0.617993 4.27557 0
M  V30 22023 C 1995.4 -0.151124 5.30985 0
M  V30 22024 C 1994.44 0.802876 6.06812 0
M  V30 22025 N 1993.58 0.0670251 7.02068 0
M  V30 22026 H 1998.42 1.25728 2.70179 0
M  V30 22027 H 1995.96 0.631273 1.32866 0
M  V30 22028 H 1997.91 -0.793873 4.09577 0
M  V30 22029 H 1996.54 -1.15661 3.01367 0
M  V30 22030 H 1995.6 1.18775 3.61382 0
M  V30 22031 H 1996.91 1.3475 4.80254 0
M  V30 22032 H 1996.06 -0.662729 6.03069 0
M  V30 22033 H 1994.8 -0.913657 4.79065 0
M  V30 22034 H 1993.81 1.32582 5.33575 0
M  V30 22035 H 1995.03 1.56503 6.6082 0
M  V30 22036 H 1992.98 -0.677445 6.52493 0
M  V30 22037 H 1992.89 0.736283 7.52406 0
M  V30 22038 H 1994.16 -0.424255 7.78345 0
M  V30 22039 N 1998.39 -1.42074 0.682102 0
M  V30 22040 C 1999.34 -2.27995 -0.0145854 0
M  V30 22041 C 2000.33 -1.4148 -0.766303 0
M  V30 22042 O 2001.52 -1.64868 -0.644013 0
M  V30 22043 C 1998.65 -3.29606 -0.959932 0
M  V30 22044 C 1997.73 -4.23603 -0.205172 0
M  V30 22045 N 1998.12 -4.99531 0.793859 0
M  V30 22046 C 1996.42 -4.43799 -0.442582 0
M  V30 22047 C 1997.12 -5.68232 1.24447 0
M  V30 22048 N 1996.1 -5.40572 0.572991 0
M  V30 22049 H 1999.9 -2.84127 0.751591 0
M  V30 22050 H 1997.41 -1.54125 0.511785 0
M  V30 22051 H 1999.41 -3.8997 -1.47408 0
M  V30 22052 H 1998.07 -2.75035 -1.72585 0
M  V30 22053 H 1999.08 -5.04426 1.17365 0
M  V30 22054 H 1995.76 -4.00258 -1.18744 0
M  V30 22055 H 1997.15 -6.3913 2.07273 0
M  V30 22056 N 1999.87 -0.425924 -1.51735 0
M  V30 22057 C 2000.82 0.405756 -2.29034 0
M  V30 22058 C 2001.81 1.03103 -1.3441 0
M  V30 22059 O 2003.02 0.967304 -1.518 0
M  V30 22060 H 1999.39 0.149651 -0.736959 0
M  V30 22061 H 2001.36 -0.267185 -2.97201 0
M  V30 22062 C 2000.11 1.50091 -3.13637 0
M  V30 22063 H 1999.44 1.02912 -3.86328 0
M  V30 22064 H 2000.88 2.05632 -3.70799 0
M  V30 22065 C 1999.33 2.47775 -2.28274 0
M  V30 22066 O 1999.86 3.52051 -1.9345 0
M  V30 22067 N 1998.07 2.18387 -1.91717 0
M  V30 22068 H 1997.62 1.3362 -2.20235 0
M  V30 22069 H 1997.58 2.83989 -1.34897 0
M  V30 22070 N 2001.35 1.56817 -0.156891 0
M  V30 22071 C 2002.28 2.20266 0.774915 0
M  V30 22072 C 2003.26 1.15387 1.24979 0
M  V30 22073 O 2004.44 1.43766 1.30557 0
M  V30 22074 C 2001.57 2.83207 2.01025 0
M  V30 22075 C 2000.53 3.94 1.67177 0
M  V30 22076 C 1999.85 4.43921 2.98057 0
M  V30 22077 C 2001.15 5.14297 0.91083 0
M  V30 22078 H 2002.85 2.98387 0.246082 0
M  V30 22079 H 2000.39 1.43525 0.116921 0
M  V30 22080 H 2002.35 3.26264 2.66701 0
M  V30 22081 H 2001.07 2.02433 2.56298 0
M  V30 22082 H 1999.73 3.51576 1.03876 0
M  V30 22083 H 1999.38 3.59957 3.5134 0
M  V30 22084 H 1999.08 5.18657 2.76169 0
M  V30 22085 H 2000.6 4.89656 3.64787 0
M  V30 22086 H 2002.02 5.54137 1.46988 0
M  V30 22087 H 2000.41 5.94857 0.791526 0
M  V30 22088 H 2001.48 4.84806 -0.0955943 0
M  V30 22089 N 2002.83 -0.116876 1.57166 0
M  V30 22090 C 2003.74 -1.16207 2.03797 0
M  V30 22091 C 2004.75 -1.45203 0.958749 0
M  V30 22092 O 2005.93 -1.56277 1.27041 0
M  V30 22093 C 2002.99 -2.46823 2.43474 0
M  V30 22094 C 2002.05 -2.25205 3.65488 0
M  V30 22095 C 2001.29 -3.49592 4.03263 0
M  V30 22096 O 2001.51 -4.56981 3.41357 0
M  V30 22097 O 2000.44 -3.40468 4.96352 0
M  V30 22098 H 2004.27 -0.796087 2.9308 0
M  V30 22099 H 2001.85 -0.327825 1.45759 0
M  V30 22100 H 2003.74 -3.23774 2.69719 0
M  V30 22101 H 2002.41 -2.82891 1.57335 0
M  V30 22102 H 2001.32 -1.46104 3.4439 0
M  V30 22103 H 2002.65 -1.94039 4.52338 0
M  V30 22104 N 2004.3 -1.52772 -0.387116 0
M  V30 22105 C 2005.25 -1.77684 -1.47299 0
M  V30 22106 C 2006.22 -0.620145 -1.54089 0
M  V30 22107 O 2007.41 -0.860064 -1.70316 0
M  V30 22108 C 2004.55 -1.95321 -2.84506 0
M  V30 22109 C 2003.66 -3.23016 -2.86853 0
M  V30 22110 C 2002.79 -3.30959 -4.15499 0
M  V30 22111 C 2001.83 -4.5277 -4.11905 0
M  V30 22112 N 2000.97 -4.57985 -5.3216 0
M  V30 22113 H 2005.81 -2.70351 -1.25356 0
M  V30 22114 H 2003.35 -1.33943 -0.608094 0
M  V30 22115 H 2005.3 -2.03531 -3.64185 0
M  V30 22116 H 2003.93 -1.06012 -3.04895 0
M  V30 22117 H 2002.99 -3.23868 -1.99534 0
M  V30 22118 H 2004.3 -4.12753 -2.80066 0
M  V30 22119 H 2003.45 -3.38363 -5.03583 0
M  V30 22120 H 2002.19 -2.392 -4.25011 0
M  V30 22121 H 2001.2 -4.4549 -3.22209 0
M  V30 22122 H 2002.42 -5.45848 -4.04013 0
M  V30 22123 H 2000.37 -3.69118 -5.42299 0
M  V30 22124 H 2000.28 -5.41596 -5.27456 0
M  V30 22125 H 2001.55 -4.69645 -6.22136 0
M  V30 22126 N 2005.78 0.645673 -1.43767 0
M  V30 22127 C 2006.71 1.77107 -1.45484 0
M  V30 22128 C 2007.73 1.58993 -0.350002 0
M  V30 22129 O 2008.92 1.67575 -0.61489 0
M  V30 22130 C 2006.02 3.14639 -1.25919 0
M  V30 22131 C 2005.19 3.59344 -2.49381 0
M  V30 22132 C 2004.25 4.75703 -2.24929 0
M  V30 22133 O 2003.27 4.84756 -2.98329 0
M  V30 22134 N 2004.48 5.66422 -1.27068 0
M  V30 22135 H 2007.24 1.7611 -2.42498 0
M  V30 22136 H 2004.8 0.829768 -1.3902 0
M  V30 22137 H 2006.79 3.9018 -1.07432 0
M  V30 22138 H 2005.36 3.10364 -0.37323 0
M  V30 22139 H 2004.58 2.74166 -2.83243 0
M  V30 22140 H 2005.87 3.8596 -3.3153 0
M  V30 22141 H 2005.27 5.61787 -0.664185 0
M  V30 22142 H 2003.83 6.41653 -1.14562 0
M  V30 22143 N 2007.26 1.30423 0.884744 0
M  V30 22144 C 2008.51 1.18625 1.63129 0
M  V30 22145 C 2008.82 -0.257953 1.93892 0
M  V30 22146 O 2010.03 -0.497448 2.66904 0
M  V30 22147 C 2008.48 2.0757 2.94011 0
M  V30 22148 C 2008.09 3.569 2.70788 0
M  V30 22149 C 2009.84 2.04535 3.71975 0
M  V30 22150 C 2007.74 4.37901 3.97488 0
M  V30 22151 H 2006.67 0.440391 0.612023 0
M  V30 22152 H 2009.32 1.55172 0.979478 0
M  V30 22153 H 2007.71 1.63905 3.60487 0
M  V30 22154 H 2008.88 4.08715 2.12812 0
M  V30 22155 H 2007.19 3.61761 2.06199 0
M  V30 22156 H 2009.79 2.62305 4.6594 0
M  V30 22157 H 2010.13 1.02888 4.03385 0
M  V30 22158 H 2010.67 2.46322 3.12362 0
M  V30 22159 H 2007.41 5.40244 3.71236 0
M  V30 22160 H 2006.93 3.9085 4.54968 0
M  V30 22161 H 2008.61 4.49347 4.65506 0
M  V30 22162 N 2008.74 -1.09711 1.13142 0
M  V30 22163 C 2009.7 -2.14443 0.809114 0
M  V30 22164 C 2010.7 -1.59789 -0.18005 0
M  V30 22165 O 2011.89 -1.74137 0.0466686 0
M  V30 22166 C 2009.02 -3.40291 0.203714 0
M  V30 22167 H 2010.22 -2.44466 1.73713 0
M  V30 22168 H 2007.77 -1.252 0.935663 0
M  V30 22169 H 2008.5 -3.15892 -0.733667 0
M  V30 22170 H 2008.29 -3.8125 0.916003 0
M  V30 22171 H 2009.78 -4.176 -0.00503851 0
M  V30 22172 N 2010.22 -0.924476 -1.27637 0
M  V30 22173 C 2011.44 -0.579431 -1.98621 0
M  V30 22174 C 2011.86 0.84181 -1.68994 0
M  V30 22175 O 2011.22 1.55905 -0.948681 0
M  V30 22176 C 2011.27 -0.791898 -3.5272 0
M  V30 22177 O 2010.99 -2.15722 -3.81308 0
M  V30 22178 C 2012.49 -0.45513 -4.40957 0
M  V30 22179 H 2009.71 -0.219875 -0.633953 0
M  V30 22180 H 2012.25 -1.24062 -1.6257 0
M  V30 22181 H 2010.41 -0.17756 -3.86993 0
M  V30 22182 H 2010.82 -2.20483 -4.75907 0
M  V30 22183 H 2012.3 -0.654507 -5.48106 0
M  V30 22184 H 2012.77 0.609177 -4.34955 0
M  V30 22185 H 2013.38 -1.04747 -4.12199 0
M  V30 22186 N 2011.69 1.41711 -0.689627 0
M  V30 22187 C 2012.62 2.33474 -0.0348045 0
M  V30 22188 C 2013.61 1.51494 0.773533 0
M  V30 22189 O 2014.79 1.8005 0.727705 0
M  V30 22190 C 2011.92 3.35259 0.906573 0
M  V30 22191 C 2010.87 4.27505 0.205762 0
M  V30 22192 C 2010.2 5.19616 1.26109 0
M  V30 22193 C 2011.5 5.14056 -0.92431 0
M  V30 22194 H 2013.19 2.88481 -0.801208 0
M  V30 22195 H 2010.74 1.3871 -0.386738 0
M  V30 22196 H 2012.69 3.98375 1.37386 0
M  V30 22197 H 2011.42 2.78589 1.70457 0
M  V30 22198 H 2010.08 3.65804 -0.241437 0
M  V30 22199 H 2009.72 4.59264 2.05147 0
M  V30 22200 H 2009.42 5.82167 0.797221 0
M  V30 22201 H 2010.95 5.85609 1.72901 0
M  V30 22202 H 2012.36 5.70774 -0.537573 0
M  V30 22203 H 2010.76 5.85517 -1.3149 0
M  V30 22204 H 2011.83 4.51574 -1.7666 0
M  V30 22205 N 2013.17 0.433965 1.51507 0
M  V30 22206 C 2014.12 -0.397051 2.24516 0
M  V30 22207 C 2015.11 -0.992896 1.26611 0
M  V30 22208 O 2016.3 -0.911595 1.5172 0
M  V30 22209 C 2013.43 -1.49953 3.08819 0
M  V30 22210 C 2012.51 -0.913247 4.1415 0
M  V30 22211 N 2012.9 -0.0558268 5.05769 0
M  V30 22212 C 2011.2 -1.18118 4.30074 0
M  V30 22213 C 2011.9 0.27308 5.81059 0
M  V30 22214 N 2010.88 -0.342445 5.4252 0
M  V30 22215 H 2014.68 0.264043 2.92712 0
M  V30 22216 H 2012.2 0.245838 1.60528 0
M  V30 22217 H 2014.19 -2.1077 3.59696 0
M  V30 22218 H 2012.85 -2.163 2.42166 0
M  V30 22219 H 2013.86 0.310359 5.16969 0
M  V30 22220 H 2010.54 -1.84239 3.74649 0
M  V30 22221 H 2011.93 0.970595 6.64853 0
M  V30 22222 N 2014.65 -1.56732 0.165206 0
M  V30 22223 C 2015.61 -2.1646 -0.753498 0
M  V30 22224 C 2016.61 -1.11106 -1.16241 0
M  V30 22225 O 2017.8 -1.36652 -1.08037 0
M  V30 22226 C 2014.94 -2.7425 -2.02483 0
M  V30 22227 H 2016.13 -2.98989 -0.233629 0
M  V30 22228 H 2013.68 -1.56072 -0.0843317 0
M  V30 22229 H 2014.42 -1.95439 -2.58794 0
M  V30 22230 H 2014.2 -3.51345 -1.74065 0
M  V30 22231 H 2015.69 -3.20209 -2.6806 0
M  V30 22232 N 2016.13 0.10854 -1.57226 0
M  V30 22233 C 2017.06 1.15853 -1.97764 0
M  V30 22234 C 2018.07 1.37073 -0.878345 0
M  V30 22235 O 2019.26 1.35963 -1.15657 0
M  V30 22236 C 2016.36 2.51663 -2.26978 0
M  V30 22237 C 2015.54 2.50904 -3.58282 0
M  V30 22238 C 2014.59 3.68538 -3.75588 0
M  V30 22239 O 2013.62 3.51644 -4.47588 0
M  V30 22240 N 2014.82 4.87507 -3.15146 0
M  V30 22241 H 2017.59 0.81361 -2.88445 0
M  V30 22242 H 2015.15 0.29769 -1.5914 0
M  V30 22243 H 2017.14 3.28936 -2.35761 0
M  V30 22244 H 2015.71 2.78297 -1.42372 0
M  V30 22245 H 2014.93 1.59271 -3.60592 0
M  V30 22246 H 2016.22 2.47463 -4.44567 0
M  V30 22247 H 2015.62 5.04137 -2.56637 0
M  V30 22248 H 2014.17 5.6242 -3.29434 0
M  V30 22249 N 2017.61 1.52975 0.379009 0
M  V30 22250 C 2018.85 1.68755 1.12471 0
M  V30 22251 C 2019.19 0.431242 1.89351 0
M  V30 22252 O 2018.46 -0.571204 1.85923 0
M  V30 22253 C 2018.74 2.92896 2.09485 0
M  V30 22254 C 2018.6 4.28651 1.36302 0
M  V30 22255 C 2019.92 3.12604 3.09785 0
M  V30 22256 H 2017.03 0.614092 0.407504 0
M  V30 22257 H 2019.68 1.8559 0.406972 0
M  V30 22258 H 2017.83 2.78673 2.70691 0
M  V30 22259 H 2019.5 4.54661 0.779841 0
M  V30 22260 H 2017.74 4.28675 0.664851 0
M  V30 22261 H 2018.41 5.1162 2.07241 0
M  V30 22262 H 2020.89 3.25924 2.58675 0
M  V30 22263 H 2019.76 4.00924 3.74901 0
M  V30 22264 H 2020.03 2.27272 3.79209 0
M  V30 22265 N 2019.08 -0.63804 1.44107 0
M  V30 22266 C 2020.05 -1.7322 1.50092 0
M  V30 22267 C 2021.05 -1.56153 0.383763 0
M  V30 22268 O 2022.24 -1.61774 0.646118 0
M  V30 22269 C 2019.37 -3.1224 1.36818 0
M  V30 22270 H 2020.56 -1.6929 2.4755 0
M  V30 22271 H 2018.12 -0.851079 1.31097 0
M  V30 22272 H 2018.85 -3.2177 0.404269 0
M  V30 22273 H 2018.64 -3.26033 2.17818 0
M  V30 22274 H 2020.13 -3.91997 1.43972 0
M  V30 22275 N 2020.56 -1.3089 -0.877815 0
M  V30 22276 C 2021.84 -1.10773 -1.6121 0
M  V30 22277 C 2022.22 0.340404 -2.08337 0
M  V30 22278 O 2021.57 1.33316 -1.85577 0
M  V30 22279 C 2021.78 -2.11499 -2.77613 0
M  V30 22280 C 2023.13 -2.43601 -3.47769 0
M  V30 22281 O 2024.15 -2.09865 -2.87811 0
M  V30 22282 O 2023.01 -3.0134 -4.55913 0
M  V30 22283 H 2020.1 -0.425928 -0.708882 0
M  V30 22284 H 2022.65 -1.42341 -0.923964 0
M  V30 22285 H 2021.42 -3.08943 -2.40146 0
M  V30 22286 H 2021.04 -1.80791 -3.54119 0
M  V30 22287 N 2022.04 1.0911 -1.13723 0
M  V30 22288 C 2022.97 2.15129 -0.761226 0
M  V30 22289 C 2023.95 1.60603 0.254079 0
M  V30 22290 O 2025.14 1.87943 0.14482 0
M  V30 22291 C 2022.26 3.38454 -0.129002 0
M  V30 22292 C 2021.31 4.11713 -1.11332 0
M  V30 22293 S 2022.14 4.65488 -2.64729 0
M  V30 22294 C 2023.3 5.92108 -2.02876 0
M  V30 22295 H 2023.53 2.46691 -1.65924 0
M  V30 22296 H 2021.06 1.21109 -0.957709 0
M  V30 22297 H 2023.02 4.09859 0.229363 0
M  V30 22298 H 2021.68 3.05104 0.746329 0
M  V30 22299 H 2020.88 5.00186 -0.618842 0
M  V30 22300 H 2020.48 3.46186 -1.41532 0
M  V30 22301 H 2022.77 6.633 -1.37981 0
M  V30 22302 H 2023.71 6.46241 -2.89444 0
M  V30 22303 H 2024.12 5.4478 -1.479 0
M  V30 22304 N 2023.52 0.931232 1.27145 0
M  V30 22305 C 2024.47 0.4317 2.26727 0
M  V30 22306 C 2025.44 -0.503295 1.58291 0
M  V30 22307 O 2026.62 -0.421681 1.86082 0
M  V30 22308 C 2023.76 -0.306208 3.43739 0
M  V30 22309 C 2022.87 0.663307 4.26877 0
M  V30 22310 C 2022.01 -0.0947979 5.31115 0
M  V30 22311 C 2021.05 0.867191 6.05926 0
M  V30 22312 N 2020.18 0.141485 7.01957 0
M  V30 22313 H 2025.02 1.28587 2.6883 0
M  V30 22314 H 2022.56 0.64533 1.32189 0
M  V30 22315 H 2024.52 -0.750387 4.10396 0
M  V30 22316 H 2023.15 -1.12458 3.02577 0
M  V30 22317 H 2022.2 1.22601 3.60102 0
M  V30 22318 H 2023.51 1.39836 4.78798 0
M  V30 22319 H 2022.67 -0.598728 6.03738 0
M  V30 22320 H 2021.41 -0.862794 4.80007 0
M  V30 22321 H 2020.41 1.38234 5.32139 0
M  V30 22322 H 2021.64 1.63503 6.59123 0
M  V30 22323 H 2019.58 -0.608201 6.53174 0
M  V30 22324 H 2019.5 0.816044 7.51583 0
M  V30 22325 H 2020.77 -0.341677 7.78751 0
M  V30 22326 N 2025 -1.41343 0.697132 0
M  V30 22327 C 2025.94 -2.30777 0.0327941 0
M  V30 22328 C 2026.91 -1.47192 -0.769652 0
M  V30 22329 O 2028.1 -1.75976 -0.737366 0
M  V30 22330 C 2025.24 -3.33252 -0.896488 0
M  V30 22331 C 2024.35 -4.31915 -0.0854899 0
M  V30 22332 C 2023.49 -5.2146 -1.01256 0
M  V30 22333 C 2022.53 -6.11791 -0.194558 0
M  V30 22334 N 2021.66 -6.93813 -1.07551 0
M  V30 22335 H 2026.5 -2.87027 0.801203 0
M  V30 22336 H 2024.04 -1.41363 0.406815 0
M  V30 22337 H 2026 -3.91216 -1.44933 0
M  V30 22338 H 2024.63 -2.78548 -1.63128 0
M  V30 22339 H 2023.68 -3.75886 0.58429 0
M  V30 22340 H 2024.99 -4.95774 0.548612 0
M  V30 22341 H 2024.15 -5.84266 -1.63457 0
M  V30 22342 H 2022.89 -4.57832 -1.68051 0
M  V30 22343 H 2021.89 -5.48032 0.440518 0
M  V30 22344 H 2023.12 -6.77474 0.469626 0
M  V30 22345 H 2021.06 -6.32792 -1.72946 0
M  V30 22346 H 2020.98 -7.54364 -0.497018 0
M  V30 22347 H 2022.25 -7.61086 -1.68429 0
M  V30 22348 N 2026.48 -0.441993 -1.51275 0
M  V30 22349 C 2027.42 0.367101 -2.27862 0
M  V30 22350 C 2028.39 1.01278 -1.31651 0
M  V30 22351 O 2029.58 1.0308 -1.60559 0
M  V30 22352 C 2026.72 1.45971 -3.12708 0
M  V30 22353 C 2025.83 0.831707 -4.23918 0
M  V30 22354 C 2024.97 1.89976 -4.96067 0
M  V30 22355 C 2024 1.25043 -5.99192 0
M  V30 22356 N 2023.14 2.26005 -6.6473 0
M  V30 22357 H 2027.98 -0.292361 -2.96562 0
M  V30 22358 H 2025.52 -0.156023 -1.4627 0
M  V30 22359 H 2027.48 2.10453 -3.6023 0
M  V30 22360 H 2026.11 2.08874 -2.46113 0
M  V30 22361 H 2025.16 0.0750644 -3.80326 0
M  V30 22362 H 2026.47 0.317691 -4.97787 0
M  V30 22363 H 2025.62 2.62108 -5.4716 0
M  V30 22364 H 2024.36 2.44751 -4.21839 0
M  V30 22365 H 2023.37 0.514597 -5.47386 0
M  V30 22366 H 2024.59 0.709951 -6.75379 0
M  V30 22367 H 2022.54 2.79852 -5.93312 0
M  V30 22368 H 2022.46 1.79508 -7.34379 0
M  V30 22369 H 2023.72 2.97607 -7.20452 0
M  V30 22370 N 2027.95 1.56642 -0.173515 0
M  V30 22371 C 2028.89 2.13917 0.794652 0
M  V30 22372 C 2029.86 1.06986 1.22445 0
M  V30 22373 O 2031.05 1.34974 1.31583 0
M  V30 22374 C 2028.18 2.68052 2.07041 0
M  V30 22375 C 2027.22 3.87375 1.78446 0
M  V30 22376 S 2028.05 5.26975 0.951737 0
M  V30 22377 C 2029.21 5.84516 2.23811 0
M  V30 22378 H 2029.44 2.95704 0.307683 0
M  V30 22379 H 2026.98 1.54345 0.0411859 0
M  V30 22380 H 2028.93 2.99888 2.80316 0
M  V30 22381 H 2027.6 1.86347 2.52851 0
M  V30 22382 H 2026.79 4.23588 2.7311 0
M  V30 22383 H 2026.39 3.56437 1.13265 0
M  V30 22384 H 2028.68 5.97564 3.19254 0
M  V30 22385 H 2029.63 6.81555 1.92063 0
M  V30 22386 H 2030.03 5.12952 2.35671 0
M  V30 22387 N 2029.43 -0.1002 1.57281 0
M  V30 22388 C 2030.34 -1.14039 2.05018 0
M  V30 22389 C 2031.36 -1.44178 0.974096 0
M  V30 22390 O 2032.53 -1.54921 1.28691 0
M  V30 22391 C 2029.6 -2.44226 2.46078 0
M  V30 22392 C 2028.66 -2.21315 3.67856 0
M  V30 22393 C 2027.89 -3.45295 4.06948 0
M  V30 22394 O 2028.12 -4.53334 3.46185 0
M  V30 22395 O 2027.05 -3.35185 4.99935 0
M  V30 22396 H 2030.88 -0.764957 2.93908 0
M  V30 22397 H 2028.46 -0.312347 1.46098 0
M  V30 22398 H 2030.34 -3.20895 2.73138 0
M  V30 22399 H 2029.02 -2.81206 1.60327 0
M  V30 22400 H 2027.92 -1.42444 3.4592 0
M  V30 22401 H 2029.26 -1.89231 4.54371 0
M  V30 22402 N 2030.91 -1.53174 -0.370891 0
M  V30 22403 C 2032.19 -1.59697 -1.12943 0
M  V30 22404 C 2032.57 -0.401233 -2.07252 0
M  V30 22405 O 2031.91 0.608973 -2.20236 0
M  V30 22406 C 2032.12 -2.94469 -1.87321 0
M  V30 22407 C 2033.47 -3.48856 -2.42043 0
M  V30 22408 O 2034.5 -2.96463 -1.97455 0
M  V30 22409 O 2033.36 -4.40436 -3.2354 0
M  V30 22410 H 2030.45 -0.644835 -0.5178 0
M  V30 22411 H 2033 -1.65514 -0.374583 0
M  V30 22412 H 2031.77 -3.72938 -1.18462 0
M  V30 22413 H 2031.39 -2.92119 -2.69727 0
M  V30 22414 N 2032.39 0.630389 -1.44443 0
M  V30 22415 C 2033.61 1.42206 -1.50971 0
M  V30 22416 C 2034.04 1.87609 -0.135854 0
M  V30 22417 O 2033.4 1.58782 0.8751 0
M  V30 22418 C 2033.44 2.61801 -2.47977 0
M  V30 22419 O 2032.55 3.6166 -1.98181 0
M  V30 22420 H 2031.89 0.425475 -0.509771 0
M  V30 22421 H 2034.42 0.769359 -1.89584 0
M  V30 22422 H 2034.43 3.09335 -2.66037 0
M  V30 22423 H 2033.1 2.281 -3.47769 0
M  V30 22424 H 2031.68 3.2093 -1.89891 0
M  V30 22425 N 2033.87 1.31354 0.870861 0
M  V30 22426 C 2035.11 1.21167 1.62623 0
M  V30 22427 C 2035.44 -0.22989 1.92835 0
M  V30 22428 O 2034.72 -1.16257 1.55931 0
M  V30 22429 C 2035 2.05505 2.95702 0
M  V30 22430 C 2034.86 3.57955 2.72375 0
M  V30 22431 C 2036.17 1.90375 3.96794 0
M  V30 22432 H 2033.29 0.441517 0.590111 0
M  V30 22433 H 2035.94 1.61134 1.00676 0
M  V30 22434 H 2034.09 1.71549 3.48573 0
M  V30 22435 H 2035.76 4.02044 2.26183 0
M  V30 22436 H 2034 3.81431 2.06623 0
M  V30 22437 H 2034.67 4.12273 3.67063 0
M  V30 22438 H 2037.15 2.20089 3.53129 0
M  V30 22439 H 2036.02 2.51689 4.87795 0
M  V30 22440 H 2036.28 0.866804 4.33519 0
M  V30 22441 N 2035.34 -1.08505 1.143 0
M  V30 22442 C 2036.59 -1.80514 0.908791 0
M  V30 22443 C 2036.91 -1.86599 -0.566196 0
M  V30 22444 O 2036.18 -1.35837 -1.41156 0
M  V30 22445 H 2034.76 -0.668553 0.333235 0
M  V30 22446 H 2037.42 -1.31188 1.44138 0
M  V30 22447 H 2036.52 -2.83375 1.30786 0
M  V30 22448 N 2036.82 -0.937962 -1.26649 0
M  V30 22449 C 2038.06 -0.591253 -1.95662 0
M  V30 22450 C 2038.43 0.853316 -1.71996 0
M  V30 22451 O 2039.63 1.3088 -2.34785 0
M  V30 22452 C 2037.9 -0.920382 -3.45346 0
M  V30 22453 S 2039.46 -0.683733 -4.3344 0
M  V30 22454 H 2036.27 -0.217883 -0.676793 0
M  V30 22455 H 2038.88 -1.20859 -1.53666 0
M  V30 22456 H 2037.58 -1.96921 -3.6007 0
M  V30 22457 H 2037.11 -0.292641 -3.9231 0
M  V30 22458 H 2039.13 0.453606 -4.94122 0
M  V30 22459 N 2038.3 1.40971 -0.704618 0
M  V30 22460 C 2039.23 2.33424 -0.0595656 0
M  V30 22461 C 2040.21 1.52306 0.757422 0
M  V30 22462 O 2041.4 1.80812 0.708567 0
M  V30 22463 C 2038.53 3.36202 0.870964 0
M  V30 22464 C 2037.48 4.27699 0.160408 0
M  V30 22465 C 2036.81 5.20924 1.20591 0
M  V30 22466 C 2038.11 5.13047 -0.97878 0
M  V30 22467 H 2039.8 2.87615 -0.83176 0
M  V30 22468 H 2037.35 1.38292 -0.401428 0
M  V30 22469 H 2039.3 3.9981 1.33153 0
M  V30 22470 H 2038.02 2.80381 1.67493 0
M  V30 22471 H 2036.68 3.65527 -0.280222 0
M  V30 22472 H 2036.33 4.61414 2.00264 0
M  V30 22473 H 2036.03 5.8298 0.73543 0
M  V30 22474 H 2037.55 5.8741 1.6668 0
M  V30 22475 H 2038.97 5.70172 -0.598081 0
M  V30 22476 H 2037.36 5.8409 -1.37693 0
M  V30 22477 H 2038.43 4.49675 -1.8144 0
M  V30 22478 N 2039.78 0.45001 1.51039 0
M  V30 22479 C 2040.69 -0.360857 2.31808 0
M  V30 22480 C 2041.7 -1.01585 1.41267 0
M  V30 22481 O 2042.88 -1.00845 1.74334 0
M  V30 22482 C 2039.95 -1.44034 3.15365 0
M  V30 22483 C 2039.01 -0.804156 4.21701 0
M  V30 22484 C 2038.24 -1.83221 5.01264 0
M  V30 22485 O 2038.46 -3.05609 4.81622 0
M  V30 22486 O 2037.4 -1.41571 5.85014 0
M  V30 22487 H 2041.22 0.298869 3.02226 0
M  V30 22488 H 2038.81 0.212277 1.47884 0
M  V30 22489 H 2040.69 -2.06611 3.67273 0
M  V30 22490 H 2039.36 -2.08392 2.47698 0
M  V30 22491 H 2038.27 -0.139997 3.73838 0
M  V30 22492 H 2039.6 -0.203865 4.91778 0
M  V30 22493 N 2041.26 -1.56548 0.18182 0
M  V30 22494 C 2042.48 -2.01575 -0.466395 0
M  V30 22495 C 2042.9 -1.06202 -1.56098 0
M  V30 22496 O 2042.26 -0.064631 -1.82386 0
M  V30 22497 C 2042.31 -3.46366 -1.03502 0
M  V30 22498 O 2042.03 -4.38097 0.0158824 0
M  V30 22499 C 2043.53 -4.06846 -1.76042 0
M  V30 22500 H 2040.75 -0.660472 -0.118395 0
M  V30 22501 H 2043.29 -2.02481 0.286632 0
M  V30 22502 H 2041.45 -3.46201 -1.73849 0
M  V30 22503 H 2041.86 -5.22931 -0.405425 0
M  V30 22504 H 2043.34 -5.1005 -2.11076 0
M  V30 22505 H 2043.81 -3.4954 -2.65929 0
M  V30 22506 H 2044.42 -4.10745 -1.10312 0
M  V30 22507 N 2042.73 0.0918577 -1.57332 0
M  V30 22508 C 2043.7 1.09546 -2.01326 0
M  V30 22509 C 2044.7 1.32761 -0.907252 0
M  V30 22510 O 2045.89 1.2882 -1.17265 0
M  V30 22511 C 2043.02 2.44385 -2.37674 0
M  V30 22512 H 2044.21 0.71671 -2.9121 0
M  V30 22513 H 2041.77 0.337001 -1.52624 0
M  V30 22514 H 2042.5 2.8713 -1.50755 0
M  V30 22515 H 2042.29 2.28882 -3.18364 0
M  V30 22516 H 2043.78 3.16562 -2.72357 0
M  V30 22517 N 2044.21 1.53368 0.362763 0
M  V30 22518 C 2045.12 1.82969 1.46832 0
M  V30 22519 C 2046.14 0.718285 1.58482 0
M  V30 22520 O 2047.31 1.00863 1.74323 0
M  V30 22521 C 2044.38 2.01596 2.82064 0
M  V30 22522 C 2043.44 3.25491 2.79918 0
M  V30 22523 C 2042.67 3.4322 4.087 0
M  V30 22524 O 2042.9 2.65185 5.05008 0
M  V30 22525 O 2041.83 4.36585 4.1434 0
M  V30 22526 H 2045.66 2.769 1.24741 0
M  V30 22527 H 2043.24 1.38783 0.553131 0
M  V30 22528 H 2045.12 2.15403 3.62187 0
M  V30 22529 H 2043.8 1.10854 3.04127 0
M  V30 22530 H 2042.71 3.17105 1.98483 0
M  V30 22531 H 2044.04 4.16164 2.62809 0
M  V30 22532 N 2045.69 -0.62272 1.44776 0
M  V30 22533 C 2046.6 -1.76282 1.54796 0
M  V30 22534 C 2047.62 -1.68522 0.433164 0
M  V30 22535 O 2048.79 -1.89149 0.691713 0
M  V30 22536 C 2045.86 -3.12697 1.49737 0
M  V30 22537 C 2044.92 -3.32026 2.72135 0
M  V30 22538 C 2044.15 -4.61933 2.67308 0
M  V30 22539 O 2044.37 -5.43282 1.73783 0
M  V30 22540 O 2043.31 -4.83646 3.58288 0
M  V30 22541 H 2047.13 -1.70781 2.51133 0
M  V30 22542 H 2044.72 -0.784974 1.27116 0
M  V30 22543 H 2046.6 -3.94001 1.4947 0
M  V30 22544 H 2045.28 -3.18723 0.565471 0
M  V30 22545 H 2044.18 -2.50368 2.77969 0
M  V30 22546 H 2045.52 -3.30868 3.644 0
M  V30 22547 N 2047.17 -1.31814 -0.863883 0
M  V30 22548 C 2048.41 -1.22028 -1.61979 0
M  V30 22549 C 2048.75 0.219661 -1.92954 0
M  V30 22550 O 2048.02 1.15428 -1.56546 0
M  V30 22551 C 2048.31 -2.0707 -2.94608 0
M  V30 22552 C 2048.16 -3.59395 -2.70473 0
M  V30 22553 C 2049.48 -1.92477 -3.95779 0
M  V30 22554 H 2046.6 -0.444641 -0.587762 0
M  V30 22555 H 2049.24 -1.61666 -0.998202 0
M  V30 22556 H 2047.39 -1.73395 -3.47659 0
M  V30 22557 H 2049.06 -4.03237 -2.24048 0
M  V30 22558 H 2047.3 -3.82521 -2.04597 0
M  V30 22559 H 2047.97 -4.14213 -3.64871 0
M  V30 22560 H 2050.45 -2.21959 -3.51957 0
M  V30 22561 H 2049.33 -2.54272 -4.86453 0
M  V30 22562 H 2049.59 -0.889783 -4.33053 0
M  V30 22563 N 2048.65 1.07897 -1.14873 0
M  V30 22564 C 2049.59 2.14955 -0.840422 0
M  V30 22565 C 2050.56 1.64839 0.204277 0
M  V30 22566 O 2051.75 1.9066 0.0730523 0
M  V30 22567 C 2048.89 3.43521 -0.329768 0
M  V30 22568 C 2048 4.07456 -1.43538 0
M  V30 22569 C 2047.14 5.23836 -0.881432 0
M  V30 22570 C 2046.18 5.79723 -1.96437 0
M  V30 22571 N 2045.31 6.87441 -1.42721 0
M  V30 22572 H 2050.15 2.40669 -1.75734 0
M  V30 22573 H 2047.69 1.18102 -0.876944 0
M  V30 22574 H 2049.65 4.17197 -0.01545 0
M  V30 22575 H 2048.28 3.18076 0.550246 0
M  V30 22576 H 2047.33 3.31489 -1.86599 0
M  V30 22577 H 2048.64 4.45007 -2.25323 0
M  V30 22578 H 2047.8 6.04473 -0.519325 0
M  V30 22579 H 2046.53 4.87689 -0.0326916 0
M  V30 22580 H 2045.54 4.97736 -2.33536 0
M  V30 22581 H 2046.76 6.17927 -2.81678 0
M  V30 22582 H 2044.71 6.53244 -0.600731 0
M  V30 22583 H 2044.63 7.23845 -2.18137 0
M  V30 22584 H 2045.9 7.71797 -1.09317 0
M  V30 22585 N 2050.12 0.944665 1.2615 0
M  V30 22586 C 2051.54 0.647519 1.45874 0
M  V30 22587 C 2051.74 -0.798095 1.85021 0
M  V30 22588 O 2050.8 -1.57439 1.97406 0
M  V30 22589 C 2052.11 1.61192 2.53845 0
M  V30 22590 C 2053.66 1.62201 2.67694 0
M  V30 22591 C 2054.13 2.5738 3.7884 0
M  V30 22592 N 2055.62 2.55686 3.86237 0
M  V30 22593 C 2056.36 3.26015 4.71701 0
M  V30 22594 N 2055.85 4.05782 5.61527 0
M  V30 22595 N 2057.65 3.1495 4.65578 0
M  V30 22596 H 2049.8 1.87901 0.990296 0
M  V30 22597 H 2052.06 0.807679 0.496345 0
M  V30 22598 H 2051.77 2.64402 2.31915 0
M  V30 22599 H 2051.64 1.36668 3.5157 0
M  V30 22600 H 2054.03 0.597142 2.88995 0
M  V30 22601 H 2054.11 1.9078 1.70402 0
M  V30 22602 H 2053.75 3.59987 3.5829 0
M  V30 22603 H 2053.68 2.26089 4.75596 0
M  V30 22604 H 2056.17 1.97768 3.22019 0
M  V30 22605 H 2056.49 4.56389 6.23642 0
M  V30 22606 H 2054.83 4.09882 5.61268 0
M  V30 22607 H 2058.02 2.52113 3.94407 0
M  V30 22608 H 2058.2 3.70027 5.31962 0
M  V30 22609 N 2051.6 -1.40596 0.712085 0
M  V30 22610 C 2052.55 -2.30729 0.0572693 0
M  V30 22611 C 2053.52 -1.48 -0.753997 0
M  V30 22612 O 2054.7 -1.76748 -0.71866 0
M  V30 22613 C 2051.84 -3.34184 -0.861092 0
M  V30 22614 C 2050.96 -4.31982 -0.0396747 0
M  V30 22615 C 2050.09 -5.22505 -0.957193 0
M  V30 22616 C 2049.13 -6.11963 -0.129658 0
M  V30 22617 N 2048.27 -6.94915 -1.00186 0
M  V30 22618 H 2053.11 -2.86161 0.831601 0
M  V30 22619 H 2050.65 -1.40923 0.421786 0
M  V30 22620 H 2052.6 -3.92732 -1.40775 0
M  V30 22621 H 2051.23 -2.80263 -1.60164 0
M  V30 22622 H 2050.29 -3.75245 0.624125 0
M  V30 22623 H 2051.6 -4.95164 0.601165 0
M  V30 22624 H 2050.75 -5.85967 -1.57251 0
M  V30 22625 H 2049.49 -4.59589 -1.63186 0
M  V30 22626 H 2048.5 -5.47534 0.49862 0
M  V30 22627 H 2049.72 -6.76938 0.541455 0
M  V30 22628 H 2047.67 -6.34591 -1.66225 0
M  V30 22629 H 2047.58 -7.54849 -0.41698 0
M  V30 22630 H 2048.85 -7.6283 -1.60347 0
M  V30 22631 N 2053.08 -0.458013 -1.50798 0
M  V30 22632 C 2054.01 0.333063 -2.31112 0
M  V30 22633 C 2054.99 1.00231 -1.37433 0
M  V30 22634 O 2056.18 1.00199 -1.66354 0
M  V30 22635 C 2053.31 1.4229 -3.16814 0
M  V30 22636 C 2052.26 0.875993 -4.1894 0
M  V30 22637 C 2051.59 2.06313 -4.93294 0
M  V30 22638 C 2052.89 -0.103786 -5.22197 0
M  V30 22639 H 2054.58 -0.337222 -2.97495 0
M  V30 22640 H 2052.13 -0.163622 -1.43067 0
M  V30 22641 H 2054.08 1.98369 -3.7179 0
M  V30 22642 H 2052.8 2.12177 -2.48291 0
M  V30 22643 H 2051.46 0.337263 -3.65045 0
M  V30 22644 H 2051.11 2.74868 -4.21256 0
M  V30 22645 H 2050.81 1.70348 -5.62366 0
M  V30 22646 H 2052.33 2.62908 -5.511 0
M  V30 22647 H 2053.75 0.367392 -5.72122 0
M  V30 22648 H 2052.15 -0.377048 -5.98914 0
M  V30 22649 H 2053.22 -1.03392 -4.73749 0
M  V30 22650 N 2054.56 1.56449 -0.190119 0
M  V30 22651 C 2055.49 2.16074 0.764507 0
M  V30 22652 C 2056.5 1.12124 1.18034 0
M  V30 22653 O 2057.69 1.39237 1.11693 0
M  V30 22654 C 2054.79 2.70392 2.04307 0
M  V30 22655 C 2053.97 3.99194 1.78782 0
M  V30 22656 C 2053.03 4.38388 2.91037 0
M  V30 22657 O 2052.05 5.05906 2.60859 0
M  V30 22658 N 2053.25 4.01483 4.19275 0
M  V30 22659 H 2056.02 2.98616 0.254652 0
M  V30 22660 H 2053.58 1.61898 -0.00797932 0
M  V30 22661 H 2055.57 2.936 2.78534 0
M  V30 22662 H 2054.14 1.92333 2.46428 0
M  V30 22663 H 2053.36 3.84169 0.883602 0
M  V30 22664 H 2054.65 4.83279 1.5912 0
M  V30 22665 H 2054.05 3.47164 4.46647 0
M  V30 22666 H 2052.6 4.29652 4.90145 0
M  V30 22667 N 2056.04 -0.0835127 1.57379 0
M  V30 22668 C 2056.98 -1.10046 2.02875 0
M  V30 22669 C 2057.95 -1.39138 0.907183 0
M  V30 22670 O 2059.14 -1.50405 1.17401 0
M  V30 22671 C 2056.28 -2.41229 2.46784 0
M  V30 22672 C 2055.39 -2.18769 3.72511 0
M  V30 22673 C 2054.53 -3.43432 4.05251 0
M  V30 22674 C 2053.57 -3.16284 5.24052 0
M  V30 22675 N 2052.7 -4.33246 5.52488 0
M  V30 22676 H 2057.54 -0.705503 2.89528 0
M  V30 22677 H 2055.08 -0.336809 1.43192 0
M  V30 22678 H 2057.04 -3.17803 2.7029 0
M  V30 22679 H 2055.67 -2.7855 1.63125 0
M  V30 22680 H 2054.72 -1.32942 3.56414 0
M  V30 22681 H 2056.03 -1.94708 4.59228 0
M  V30 22682 H 2055.19 -4.28408 4.29595 0
M  V30 22683 H 2053.93 -3.70558 3.17078 0
M  V30 22684 H 2052.93 -2.29703 4.99516 0
M  V30 22685 H 2054.16 -2.90493 6.13833 0
M  V30 22686 H 2052.1 -4.60425 4.67274 0
M  V30 22687 H 2052.02 -4.12417 6.336 0
M  V30 22688 H 2053.29 -5.19253 5.81375 0
M  V30 22689 N 2057.52 -1.53558 -0.354624 0
M  V30 22690 C 2058.79 -1.60886 -1.11243 0
M  V30 22691 C 2059.17 -0.423192 -2.06815 0
M  V30 22692 O 2058.52 0.585579 -2.20869 0
M  V30 22693 C 2058.73 -2.96439 -1.84188 0
M  V30 22694 C 2060.08 -3.51404 -2.38329 0
M  V30 22695 O 2061.1 -2.9854 -1.94299 0
M  V30 22696 O 2059.96 -4.43843 -3.1885 0
M  V30 22697 H 2057.06 -0.650291 -0.510932 0
M  V30 22698 H 2059.6 -1.65902 -0.357007 0
M  V30 22699 H 2058.37 -3.74173 -1.145 0
M  V30 22700 H 2058 -2.94963 -2.66613 0
M  V30 22701 N 2058.99 0.615033 -1.45104 0
M  V30 22702 C 2059.92 1.73703 -1.56043 0
M  V30 22703 C 2060.9 1.65025 -0.412413 0
M  V30 22704 O 2062.09 1.83539 -0.634606 0
M  V30 22705 C 2059.22 3.12287 -1.51968 0
M  V30 22706 C 2058.17 3.35769 -2.65411 0
M  V30 22707 C 2057.5 4.74549 -2.46389 0
M  V30 22708 C 2058.8 3.26752 -4.07469 0
M  V30 22709 H 2060.49 1.64805 -2.4996 0
M  V30 22710 H 2058.04 0.791445 -1.203 0
M  V30 22711 H 2059.99 3.9057 -1.58219 0
M  V30 22712 H 2058.72 3.22008 -0.545769 0
M  V30 22713 H 2057.38 2.59874 -2.58575 0
M  V30 22714 H 2057.02 4.80994 -1.47153 0
M  V30 22715 H 2056.72 4.91217 -3.22458 0
M  V30 22716 H 2058.25 5.55041 -2.54482 0
M  V30 22717 H 2059.66 3.94918 -4.15587 0
M  V30 22718 H 2058.06 3.54952 -4.83869 0
M  V30 22719 H 2059.13 2.24305 -4.29902 0
M  V30 22720 N 2060.47 1.3227 0.85688 0
M  V30 22721 C 2061.38 1.23012 1.99763 0
M  V30 22722 C 2062.4 0.144168 1.73402 0
M  V30 22723 O 2063.57 0.364429 1.98075 0
M  V30 22724 C 2060.64 0.951293 3.33394 0
M  V30 22725 C 2059.7 2.12547 3.72991 0
M  V30 22726 C 2058.93 1.85984 5.00245 0
M  V30 22727 O 2059.16 0.801321 5.64743 0
M  V30 22728 O 2058.09 2.72029 5.36921 0
M  V30 22729 H 2061.92 2.18906 2.10509 0
M  V30 22730 H 2059.5 1.12138 0.987193 0
M  V30 22731 H 2061.38 0.812192 4.13499 0
M  V30 22732 H 2060.06 0.0224976 3.23692 0
M  V30 22733 H 2058.96 2.32003 2.93471 0
M  V30 22734 H 2060.3 3.03697 3.87336 0
M  V30 22735 N 2061.95 -1.07287 1.15444 0
M  V30 22736 C 2063.2 -1.7954 0.927885 0
M  V30 22737 C 2063.52 -1.87189 -0.546373 0
M  V30 22738 O 2062.79 -1.37326 -1.39708 0
M  V30 22739 H 2061.37 -0.664981 0.340307 0
M  V30 22740 H 2064.03 -1.29652 1.45521 0
M  V30 22741 H 2063.13 -2.81972 1.33784 0
M  V30 22742 N 2063.43 -0.951342 -1.25647 0
M  V30 22743 C 2064.36 -0.486897 -2.28367 0
M  V30 22744 C 2065.34 0.465072 -1.63619 0
M  V30 22745 O 2066.52 0.364737 -1.90744 0
M  V30 22746 C 2063.65 0.239229 -3.46475 0
M  V30 22747 C 2062.61 -0.627163 -4.2338 0
M  V30 22748 C 2061.93 0.229514 -5.34207 0
M  V30 22749 C 2063.23 -1.90362 -4.86374 0
M  V30 22750 H 2064.93 -1.34542 -2.67467 0
M  V30 22751 H 2062.47 -0.648383 -1.28577 0
M  V30 22752 H 2064.43 0.575251 -4.17455 0
M  V30 22753 H 2063.15 1.13197 -3.06356 0
M  V30 22754 H 2061.81 -0.946222 -3.54178 0
M  V30 22755 H 2061.46 1.12192 -4.90328 0
M  V30 22756 H 2061.16 -0.346852 -5.86575 0
M  V30 22757 H 2062.68 0.560578 -6.08021 0
M  V30 22758 H 2064.1 -1.63422 -5.49515 0
M  V30 22759 H 2062.49 -2.42538 -5.48904 0
M  V30 22760 H 2063.56 -2.60876 -4.08744 0
M  V30 22761 N 2064.91 1.40216 -0.719531 0
M  V30 22762 C 2066.13 2.05647 -0.269106 0
M  V30 22763 C 2066.56 1.53865 1.082 0
M  V30 22764 O 2065.91 0.675703 1.68238 0
M  V30 22765 C 2065.96 3.59636 -0.263433 0
M  V30 22766 O 2065.07 4.05448 0.754058 0
M  V30 22767 H 2064.41 0.652036 -0.12548 0
M  V30 22768 H 2066.94 1.79542 -0.981119 0
M  V30 22769 H 2066.95 4.07871 -0.102475 0
M  V30 22770 H 2065.62 3.9669 -1.24939 0
M  V30 22771 H 2064.2 3.68664 0.560502 0
M  V30 22772 N 2066.38 0.466004 1.50553 0
M  V30 22773 C 2067.32 -0.367023 2.26242 0
M  V30 22774 C 2068.33 -0.961526 1.31372 0
M  V30 22775 O 2069.52 -0.850796 1.56919 0
M  V30 22776 C 2066.62 -1.52825 3.02486 0
M  V30 22777 C 2065.79 -1.04746 4.24673 0
M  V30 22778 C 2064.85 -2.08215 4.83253 0
M  V30 22779 O 2063.88 -1.66482 5.44309 0
M  V30 22780 N 2065.08 -3.40977 4.69803 0
M  V30 22781 H 2067.84 0.281827 2.98372 0
M  V30 22782 H 2065.4 0.296497 1.59162 0
M  V30 22783 H 2067.4 -2.21726 3.38555 0
M  V30 22784 H 2065.97 -2.08189 2.33186 0
M  V30 22785 H 2065.19 -0.184515 3.93768 0
M  V30 22786 H 2066.47 -0.704072 5.03905 0
M  V30 22787 H 2065.87 -3.77596 4.21234 0
M  V30 22788 H 2064.43 -4.0569 5.10156 0
M  V30 22789 N 2067.86 -1.56346 0.198413 0
M  V30 22790 C 2069.28 -1.58822 -0.157378 0
M  V30 22791 C 2069.48 -1.21468 -1.60773 0
M  V30 22792 O 2068.53 -0.938985 -2.34391 0
M  V30 22793 C 2069.85 -3.00336 0.14798 0
M  V30 22794 C 2071.39 -3.12875 0.0883539 0
M  V30 22795 C 2071.87 -4.56527 0.367068 0
M  V30 22796 N 2073.36 -4.62122 0.315805 0
M  V30 22797 C 2074.1 -5.7117 0.505265 0
M  V30 22798 N 2073.59 -6.88671 0.755254 0
M  V30 22799 N 2075.38 -5.60381 0.439293 0
M  V30 22800 H 2067.54 -1.78908 1.1448 0
M  V30 22801 H 2069.8 -0.830475 0.457182 0
M  V30 22802 H 2069.5 -3.32238 1.15373 0
M  V30 22803 H 2069.38 -3.732 -0.547892 0
M  V30 22804 H 2071.77 -2.80783 -0.908004 0
M  V30 22805 H 2071.85 -2.4239 0.817354 0
M  V30 22806 H 2071.49 -4.89332 1.36076 0
M  V30 22807 H 2071.42 -5.25206 -0.382859 0
M  V30 22808 H 2073.91 -3.77679 0.129337 0
M  V30 22809 H 2074.22 -7.67675 0.888542 0
M  V30 22810 H 2072.57 -6.9047 0.792186 0
M  V30 22811 H 2075.76 -4.67462 0.244386 0
M  V30 22812 H 2075.93 -6.45305 0.590363 0
M  V30 22813 N 2069.34 0.0751653 -1.57421 0
M  V30 22814 C 2070.29 1.09651 -1.99901 0
M  V30 22815 C 2071.27 1.34668 -0.880538 0
M  V30 22816 O 2072.47 1.35025 -1.14444 0
M  V30 22817 C 2069.6 2.41121 -2.44367 0
M  V30 22818 C 2068.68 2.19394 -3.62942 0
M  V30 22819 N 2069.07 1.67586 -4.7723 0
M  V30 22820 C 2067.37 2.4988 -3.69426 0
M  V30 22821 C 2068.07 1.60595 -5.59092 0
M  V30 22822 N 2067.05 2.06526 -5.0284 0
M  V30 22823 H 2070.85 0.689217 -2.85704 0
M  V30 22824 H 2068.36 0.282291 -1.59928 0
M  V30 22825 H 2070.36 3.15048 -2.73039 0
M  V30 22826 H 2069.02 2.82571 -1.5995 0
M  V30 22827 H 2070.03 1.36498 -4.99588 0
M  V30 22828 H 2066.71 2.94719 -2.95714 0
M  V30 22829 H 2068.1 1.21421 -6.60838 0
M  V30 22830 N 2070.82 1.53744 0.346476 0
M  V30 22831 C 2071.73 1.84516 1.44883 0
M  V30 22832 C 2072.74 0.735054 1.57712 0
M  V30 22833 O 2073.92 1.02706 1.73244 0
M  V30 22834 C 2070.99 2.04576 2.7991 0
M  V30 22835 C 2070.05 3.28442 2.7645 0
M  V30 22836 C 2069.28 3.47536 4.05036 0
M  V30 22837 O 2069.5 2.70527 5.02167 0
M  V30 22838 O 2068.44 4.40955 4.09686 0
M  V30 22839 H 2072.26 2.78207 1.21797 0
M  V30 22840 H 2069.85 1.39362 0.53838 0
M  V30 22841 H 2071.73 2.19232 3.59882 0
M  V30 22842 H 2070.4 1.14074 3.02934 0
M  V30 22843 H 2069.31 3.19192 1.95108 0
M  V30 22844 H 2070.64 4.18928 2.5838 0
M  V30 22845 N 2072.3 -0.607329 1.45428 0
M  V30 22846 C 2073.21 -1.7463 1.56657 0
M  V30 22847 C 2074.22 -1.68053 0.451014 0
M  V30 22848 O 2075.4 -1.88405 0.711736 0
M  V30 22849 C 2072.46 -3.11092 1.53045 0
M  V30 22850 C 2071.52 -3.29121 2.75641 0
M  V30 22851 C 2070.76 -4.59072 2.72193 0
M  V30 22852 O 2070.98 -5.41408 1.79536 0
M  V30 22853 O 2069.91 -4.79819 3.63397 0
M  V30 22854 H 2073.74 -1.68108 2.5293 0
M  V30 22855 H 2071.33 -0.771447 1.27942 0
M  V30 22856 H 2073.21 -3.92394 1.5364 0
M  V30 22857 H 2071.88 -3.18105 0.599244 0
M  V30 22858 H 2070.79 -2.47406 2.80608 0
M  V30 22859 H 2072.12 -3.26984 3.67889 0
M  V30 22860 N 2073.77 -1.32722 -0.849853 0
M  V30 22861 C 2074.72 -1.2206 -1.95882 0
M  V30 22862 C 2075.69 -0.101678 -1.65788 0
M  V30 22863 O 2076.88 -0.278058 -1.88763 0
M  V30 22864 C 2074.02 -0.954544 -3.31636 0
M  V30 22865 C 2073.13 -2.15871 -3.74198 0
M  V30 22866 C 2072.26 -1.82773 -4.98766 0
M  V30 22867 C 2071.3 -2.99483 -5.33832 0
M  V30 22868 N 2070.44 -2.66445 -6.49578 0
M  V30 22869 H 2075.28 -2.16914 -2.04334 0
M  V30 22870 H 2072.82 -1.07877 -1.00004 0
M  V30 22871 H 2074.78 -0.780763 -4.09829 0
M  V30 22872 H 2073.41 -0.042781 -3.22772 0
M  V30 22873 H 2072.46 -2.4426 -2.91618 0
M  V30 22874 H 2073.77 -3.03157 -3.96102 0
M  V30 22875 H 2072.92 -1.61974 -5.84679 0
M  V30 22876 H 2071.66 -0.927067 -4.78808 0
M  V30 22877 H 2070.67 -3.20907 -4.46429 0
M  V30 22878 H 2071.89 -3.90288 -5.55745 0
M  V30 22879 H 2069.84 -1.78926 -6.31127 0
M  V30 22880 H 2069.76 -3.47262 -6.71524 0
M  V30 22881 H 2071.02 -2.49088 -7.38631 0
M  V30 22882 N 2075.25 1.06673 -1.16011 0
M  V30 22883 C 2076.5 1.79666 -0.940641 0
M  V30 22884 C 2076.83 1.86814 0.530502 0
M  V30 22885 O 2076.11 1.35692 1.39348 0
M  V30 22886 C 2076.39 3.24359 -1.56407 0
M  V30 22887 C 2076.24 3.25315 -3.10629 0
M  V30 22888 C 2077.56 4.2181 -1.25556 0
M  V30 22889 H 2074.68 0.652242 -0.343145 0
M  V30 22890 H 2077.32 1.2478 -1.43282 0
M  V30 22891 H 2075.47 3.71227 -1.14553 0
M  V30 22892 H 2077.14 2.86637 -3.61438 0
M  V30 22893 H 2075.39 2.64077 -3.4416 0
M  V30 22894 H 2076.06 4.27371 -3.49368 0
M  V30 22895 H 2078.53 3.83365 -1.61772 0
M  V30 22896 H 2077.41 5.21326 -1.71785 0
M  V30 22897 H 2077.67 4.41758 -0.173744 0
M  V30 22898 N 2076.73 0.957992 1.25141 0
M  V30 22899 C 2077.69 0.485333 2.24003 0
M  V30 22900 C 2078.69 -0.412817 1.55411 0
M  V30 22901 O 2079.88 -0.209635 1.72934 0
M  V30 22902 C 2077.02 -0.298362 3.39592 0
M  V30 22903 H 2078.21 1.35918 2.67332 0
M  V30 22904 H 2075.76 0.741602 1.37586 0
M  V30 22905 H 2076.5 -1.18973 3.01688 0
M  V30 22906 H 2076.28 0.346033 3.9057 0
M  V30 22907 H 2077.77 -0.618412 4.12996 0
M  V30 22908 N 2078.21 -1.39832 0.726957 0
M  V30 22909 C 2079.17 -2.29022 0.0903329 0
M  V30 22910 C 2080.17 -1.45921 -0.675553 0
M  V30 22911 O 2081.36 -1.66696 -0.505765 0
M  V30 22912 C 2078.49 -3.29304 -0.881584 0
M  V30 22913 H 2079.69 -2.86821 0.87601 0
M  V30 22914 H 2077.24 -1.48345 0.492294 0
M  V30 22915 H 2077.97 -2.76545 -1.69391 0
M  V30 22916 H 2077.76 -3.90665 -0.33514 0
M  V30 22917 H 2079.25 -3.96061 -1.32384 0
M  V30 22918 N 2079.69 -0.473982 -1.50304 0
M  V30 22919 C 2080.92 0.0775007 -2.06455 0
M  V30 22920 C 2081.32 1.33801 -1.33768 0
M  V30 22921 O 2080.67 1.79261 -0.401381 0
M  V30 22922 C 2080.73 0.428656 -3.56935 0
M  V30 22923 C 2080.39 -0.730244 -4.51128 0
M  V30 22924 C 2081.39 -1.6131 -4.94242 0
M  V30 22925 C 2079.08 -0.92139 -4.93777 0
M  V30 22926 C 2081.07 -2.67149 -5.78714 0
M  V30 22927 C 2078.76 -1.98299 -5.78032 0
M  V30 22928 C 2079.75 -2.85641 -6.20402 0
M  V30 22929 O 2079.44 -3.89973 -7.02977 0
M  V30 22930 H 2079.17 -0.00505561 -0.675981 0
M  V30 22931 H 2081.73 -0.662628 -1.94418 0
M  V30 22932 H 2079.96 1.22201 -3.66884 0
M  V30 22933 H 2081.65 0.915562 -3.95439 0
M  V30 22934 H 2082.41 -1.47713 -4.61959 0
M  V30 22935 H 2078.29 -0.251023 -4.60316 0
M  V30 22936 H 2081.84 -3.35352 -6.11706 0
M  V30 22937 H 2077.73 -2.11903 -6.09727 0
M  V30 22938 H 2078.5 -3.86996 -7.21232 0
M  V30 22939 N 2081.16 1.56239 -0.206702 0
M  V30 22940 C 2082.44 1.89689 0.477219 0
M  V30 22941 C 2082.82 1.12193 1.78818 0
M  V30 22942 O 2082.17 0.226599 2.27374 0
M  V30 22943 C 2082.38 3.42218 0.684683 0
M  V30 22944 C 2083.73 4.12685 0.998827 0
M  V30 22945 O 2084.75 3.47734 0.771997 0
M  V30 22946 O 2083.61 5.275 1.42851 0
M  V30 22947 H 2080.7 0.788217 0.250286 0
M  V30 22948 H 2083.25 1.67881 -0.247781 0
M  V30 22949 H 2082.02 3.90559 -0.240635 0
M  V30 22950 H 2081.65 3.69756 1.46172 0
M  V30 22951 N 2082.64 -0.0668159 1.57458 0
M  V30 22952 C 2083.59 -1.07888 2.04031 0
M  V30 22953 C 2084.56 -1.38168 0.921889 0
M  V30 22954 O 2085.74 -1.49151 1.1899 0
M  V30 22955 C 2082.88 -2.38598 2.49329 0
M  V30 22956 C 2082 -2.14805 3.7481 0
M  V30 22957 C 2081.13 -3.39114 4.0887 0
M  V30 22958 C 2080.17 -3.10708 5.27377 0
M  V30 22959 N 2079.31 -4.27361 5.57052 0
M  V30 22960 H 2084.15 -0.674755 2.9026 0
M  V30 22961 H 2081.69 -0.321602 1.43541 0
M  V30 22962 H 2083.64 -3.14919 2.73646 0
M  V30 22963 H 2082.27 -2.76804 1.6607 0
M  V30 22964 H 2081.33 -1.29154 3.57804 0
M  V30 22965 H 2082.64 -1.89826 4.61267 0
M  V30 22966 H 2081.79 -4.23827 4.34114 0
M  V30 22967 H 2080.53 -3.67174 3.2099 0
M  V30 22968 H 2079.54 -2.24392 5.01925 0
M  V30 22969 H 2080.76 -2.83966 6.16879 0
M  V30 22970 H 2078.71 -4.55443 4.72131 0
M  V30 22971 H 2078.62 -4.05673 6.37938 0
M  V30 22972 H 2079.89 -5.13057 5.8685 0
M  V30 22973 N 2084.12 -1.53926 -0.338317 0
M  V30 22974 C 2085.05 -1.85269 -1.42119 0
M  V30 22975 C 2086.03 -0.708238 -1.54654 0
M  V30 22976 O 2087.22 -0.960631 -1.68777 0
M  V30 22977 C 2084.35 -2.06693 -2.79097 0
M  V30 22978 C 2083.3 -3.22519 -2.81364 0
M  V30 22979 C 2082.63 -3.29286 -4.21277 0
M  V30 22980 C 2083.93 -4.6051 -2.46431 0
M  V30 22981 H 2085.62 -2.75957 -1.16137 0
M  V30 22982 H 2083.17 -1.32781 -0.557249 0
M  V30 22983 H 2085.12 -2.27204 -3.54903 0
M  V30 22984 H 2083.84 -1.1274 -3.06524 0
M  V30 22985 H 2082.5 -3.01872 -2.08011 0
M  V30 22986 H 2082.15 -2.32919 -4.45823 0
M  V30 22987 H 2081.85 -4.07123 -4.23704 0
M  V30 22988 H 2083.38 -3.52014 -4.98918 0
M  V30 22989 H 2084.79 -4.80999 -3.1195 0
M  V30 22990 H 2083.19 -5.40788 -2.60132 0
M  V30 22991 H 2084.26 -4.63762 -1.41607 0
M  V30 22992 N 2085.6 0.599608 -1.45748 0
M  V30 22993 C 2086.51 1.73797 -1.57581 0
M  V30 22994 C 2087.53 1.67812 -0.45992 0
M  V30 22995 O 2088.7 1.88024 -0.721718 0
M  V30 22996 C 2085.77 3.10276 -1.54693 0
M  V30 22997 C 2084.83 3.27654 -2.77383 0
M  V30 22998 C 2084.06 4.57622 -2.74623 0
M  V30 22999 O 2084.28 5.40449 -1.82404 0
M  V30 23000 O 2083.22 4.77885 -3.65937 0
M  V30 23001 H 2087.04 1.66764 -2.53818 0
M  V30 23002 H 2084.63 0.764651 -1.28349 0
M  V30 23003 H 2086.51 3.91573 -1.55719 0
M  V30 23004 H 2085.19 3.17783 -0.616105 0
M  V30 23005 H 2084.09 2.45914 -2.81917 0
M  V30 23006 H 2085.43 3.25028 -3.69618 0
M  V30 23007 N 2087.08 1.33171 0.842803 0
M  V30 23008 C 2088.02 1.23097 1.95232 0
M  V30 23009 C 2088.99 0.110469 1.65732 0
M  V30 23010 O 2090.18 0.288065 1.88613 0
M  V30 23011 C 2087.32 0.972118 3.31125 0
M  V30 23012 C 2086.43 2.17852 3.73047 0
M  V30 23013 C 2085.57 1.85415 4.9779 0
M  V30 23014 C 2084.61 3.0231 5.32236 0
M  V30 23015 N 2083.74 2.69887 6.48156 0
M  V30 23016 H 2088.58 2.17995 2.03181 0
M  V30 23017 H 2086.12 1.08406 0.994308 0
M  V30 23018 H 2088.08 0.802486 4.09409 0
M  V30 23019 H 2086.71 0.0598977 3.22744 0
M  V30 23020 H 2085.76 2.45803 2.90318 0
M  V30 23021 H 2087.07 3.05254 3.94489 0
M  V30 23022 H 2086.23 1.65073 5.83812 0
M  V30 23023 H 2084.97 0.952447 4.78309 0
M  V30 23024 H 2083.97 3.2327 4.44721 0
M  V30 23025 H 2085.2 3.93229 5.53667 0
M  V30 23026 H 2083.14 1.82271 6.30169 0
M  V30 23027 H 2083.06 3.50818 6.69673 0
M  V30 23028 H 2084.33 2.53002 7.37299 0
M  V30 23029 N 2088.56 -1.06056 1.16576 0
M  V30 23030 C 2089.78 -1.82592 0.973019 0
M  V30 23031 C 2090.2 -1.82629 -0.478773 0
M  V30 23032 O 2089.56 -1.2472 -1.33233 0
M  V30 23033 C 2089.61 -3.291 1.49585 0
M  V30 23034 O 2089.33 -3.29189 2.89078 0
M  V30 23035 C 2090.83 -4.22357 1.34647 0
M  V30 23036 H 2088.05 -0.575656 0.344763 0
M  V30 23037 H 2090.59 -1.33793 1.5466 0
M  V30 23038 H 2088.75 -3.75202 0.964496 0
M  V30 23039 H 2089.16 -4.2082 3.13066 0
M  V30 23040 H 2090.64 -5.23171 1.76056 0
M  V30 23041 H 2091.11 -4.38226 0.292348 0
M  V30 23042 H 2091.72 -3.82103 1.86755 0
M  V30 23043 N 2090.03 -0.964615 -1.24631 0
M  V30 23044 C 2090.98 -0.49166 -2.25502 0
M  V30 23045 C 2091.95 0.46115 -1.5957 0
M  V30 23046 O 2093.14 0.372197 -1.87135 0
M  V30 23047 C 2090.28 0.214964 -3.4443 0
M  V30 23048 C 2089.39 -0.776253 -4.24969 0
M  V30 23049 C 2088.52 -0.0460512 -5.3118 0
M  V30 23050 C 2087.56 -1.02754 -6.03414 0
M  V30 23051 N 2086.7 -0.327547 -7.01336 0
M  V30 23052 H 2091.54 -1.35669 -2.65326 0
M  V30 23053 H 2089.08 -0.68015 -1.30431 0
M  V30 23054 H 2091.03 0.641314 -4.12241 0
M  V30 23055 H 2089.66 1.04397 -3.05452 0
M  V30 23056 H 2088.72 -1.32105 -3.56724 0
M  V30 23057 H 2090.03 -1.52481 -4.74922 0
M  V30 23058 H 2089.18 0.438447 -6.05114 0
M  V30 23059 H 2087.92 0.735226 -4.82126 0
M  V30 23060 H 2086.93 -1.52294 -5.28286 0
M  V30 23061 H 2088.15 -1.80921 -6.54557 0
M  V30 23062 H 2086.1 0.43481 -6.54557 0
M  V30 23063 H 2086.01 -1.01503 -7.49155 0
M  V30 23064 H 2087.28 0.135085 -7.79383 0
M  V30 23065 N 2091.51 1.39445 -0.734362 0
M  V30 23066 C 2092.74 2.04826 -0.29225 0
M  V30 23067 C 2093.15 1.55366 1.0727 0
M  V30 23068 O 2092.51 0.718282 1.67771 0
M  V30 23069 C 2092.56 3.6038 -0.2843 0
M  V30 23070 O 2092.28 4.08019 -1.59536 0
M  V30 23071 C 2093.78 4.42958 0.174058 0
M  V30 23072 H 2091 0.658705 -0.127861 0
M  V30 23073 H 2093.55 1.78504 -0.997833 0
M  V30 23074 H 2091.7 3.85606 0.372391 0
M  V30 23075 H 2092.12 5.02339 -1.50849 0
M  V30 23076 H 2093.59 5.5185 0.128462 0
M  V30 23077 H 2094.07 4.21941 1.21913 0
M  V30 23078 H 2094.67 4.2288 -0.453043 0
M  V30 23079 N 2092.99 0.481946 1.5005 0
M  V30 23080 C 2094.41 0.13674 1.59013 0
M  V30 23081 C 2094.61 -1.35753 1.48908 0
M  V30 23082 O 2093.66 -2.1318 1.35316 0
M  V30 23083 C 2094.97 0.696597 2.9252 0
M  V30 23084 C 2096.52 0.660993 3.05941 0
M  V30 23085 C 2097 1.19858 4.42038 0
M  V30 23086 N 2098.49 1.15846 4.4848 0
M  V30 23087 C 2099.22 1.54481 5.52199 0
M  V30 23088 N 2098.72 2.00617 6.63117 0
M  V30 23089 N 2100.51 1.46016 5.42804 0
M  V30 23090 H 2092.66 1.45367 1.54862 0
M  V30 23091 H 2094.93 0.601814 0.732478 0
M  V30 23092 H 2094.63 1.74381 3.05425 0
M  V30 23093 H 2094.51 0.146249 3.76916 0
M  V30 23094 H 2096.89 -0.377335 2.92678 0
M  V30 23095 H 2096.97 1.24827 2.23275 0
M  V30 23096 H 2096.62 2.2356 4.56052 0
M  V30 23097 H 2096.55 0.587419 5.23313 0
M  V30 23098 H 2099.04 0.820197 3.68892 0
M  V30 23099 H 2099.35 2.28217 7.38334 0
M  V30 23100 H 2097.7 2.04578 6.64209 0
M  V30 23101 H 2100.89 1.09805 4.55039 0
M  V30 23102 H 2101.06 1.7645 6.23514 0
M  V30 23103 N 2094.47 -1.56127 0.214985 0
M  V30 23104 C 2095.4 -2.22991 -0.69263 0
M  V30 23105 C 2096.38 -1.19946 -1.20611 0
M  V30 23106 O 2097.56 -1.48512 -1.25131 0
M  V30 23107 C 2094.69 -2.90473 -1.90376 0
M  V30 23108 C 2093.65 -3.99933 -1.52439 0
M  V30 23109 C 2092.97 -4.54678 -2.81375 0
M  V30 23110 C 2094.27 -5.17323 -0.719325 0
M  V30 23111 H 2095.97 -2.99095 -0.135168 0
M  V30 23112 H 2093.51 -1.4386 -0.0635721 0
M  V30 23113 H 2095.47 -3.35938 -2.54408 0
M  V30 23114 H 2094.19 -2.11806 -2.48608 0
M  V30 23115 H 2092.85 -3.55189 -0.907557 0
M  V30 23116 H 2092.5 -3.72749 -3.37739 0
M  V30 23117 H 2092.2 -5.28549 -2.56729 0
M  V30 23118 H 2093.72 -5.02857 -3.46362 0
M  V30 23119 H 2095.14 -5.5921 -1.2632 0
M  V30 23120 H 2093.53 -5.97385 -0.570203 0
M  V30 23121 H 2094.6 -4.84117 0.275461 0
M  V30 23122 N 2095.95 0.0584645 -1.57492 0
M  V30 23123 C 2096.88 1.09503 -2.0135 0
M  V30 23124 C 2097.89 1.34209 -0.921509 0
M  V30 23125 O 2099.08 1.32214 -1.19924 0
M  V30 23126 C 2096.18 2.44314 -2.3487 0
M  V30 23127 C 2095.35 2.39378 -3.66083 0
M  V30 23128 C 2094.41 3.56403 -3.87122 0
M  V30 23129 O 2093.44 3.37227 -4.58549 0
M  V30 23130 N 2094.64 4.77234 -3.30496 0
M  V30 23131 H 2097.4 0.721431 -2.90887 0
M  V30 23132 H 2094.97 0.24691 -1.60006 0
M  V30 23133 H 2096.96 3.21269 -2.46106 0
M  V30 23134 H 2095.53 2.73626 -1.51154 0
M  V30 23135 H 2094.75 1.47718 -3.65476 0
M  V30 23136 H 2096.04 2.33194 -4.52215 0
M  V30 23137 H 2095.43 4.95717 -2.72546 0
M  V30 23138 H 2093.99 5.51655 -3.47161 0
M  V30 23139 N 2097.42 1.54103 0.330149 0
M  V30 23140 C 2098.36 1.7936 1.42698 0
M  V30 23141 C 2099.37 0.67533 1.48132 0
M  V30 23142 O 2100.56 0.952319 1.50974 0
M  V30 23143 C 2097.66 1.89043 2.81276 0
M  V30 23144 C 2096.83 3.1913 2.99123 0
M  V30 23145 C 2095.89 3.19599 4.18023 0
M  V30 23146 O 2094.92 3.93266 4.11498 0
M  V30 23147 N 2096.12 2.42915 5.27231 0
M  V30 23148 H 2098.88 2.74012 1.21398 0
M  V30 23149 H 2096.44 1.53318 0.520103 0
M  V30 23150 H 2098.44 1.86791 3.59014 0
M  V30 23151 H 2097.01 1.01517 2.95657 0
M  V30 23152 H 2096.23 3.34396 2.08742 0
M  V30 23153 H 2097.51 4.05032 3.07939 0
M  V30 23154 H 2096.91 1.82641 5.35405 0
M  V30 23155 H 2095.47 2.46448 6.03412 0
M  V30 23156 N 2098.9 -0.59187 1.46064 0
M  V30 23157 C 2099.81 -1.72959 1.585 0
M  V30 23158 C 2100.83 -1.67565 0.468813 0
M  V30 23159 O 2102 -1.87639 0.731679 0
M  V30 23160 C 2099.07 -3.09451 1.56336 0
M  V30 23161 C 2098.13 -3.26179 2.79117 0
M  V30 23162 C 2097.36 -4.56159 2.77046 0
M  V30 23163 O 2097.59 -5.39474 1.85268 0
M  V30 23164 O 2096.52 -4.75937 3.68466 0
M  V30 23165 H 2100.35 -1.65416 2.54699 0
M  V30 23166 H 2097.93 -0.757834 1.28753 0
M  V30 23167 H 2099.81 -3.90742 1.57793 0
M  V30 23168 H 2098.49 -3.17451 0.632949 0
M  V30 23169 H 2097.4 -2.44416 2.83217 0
M  V30 23170 H 2098.73 -3.23064 3.71336 0
M  V30 23171 N 2100.38 -1.33616 -0.835729 0
M  V30 23172 C 2101.31 -1.26762 -1.96096 0
M  V30 23173 C 2102.29 -0.147563 -1.69459 0
M  V30 23174 O 2103.48 -0.33785 -1.91239 0
M  V30 23175 C 2100.61 -1.00927 -3.32312 0
M  V30 23176 C 2099.56 -2.09261 -3.73355 0
M  V30 23177 C 2098.89 -1.68635 -5.07411 0
M  V30 23178 C 2100.19 -3.50968 -3.86806 0
M  V30 23179 H 2101.88 -2.20908 -2.02089 0
M  V30 23180 H 2099.43 -1.06346 -0.970907 0
M  V30 23181 H 2101.38 -0.947809 -4.10603 0
M  V30 23182 H 2100.1 -0.0322023 -3.26584 0
M  V30 23183 H 2098.76 -2.14455 -2.97329 0
M  V30 23184 H 2098.41 -0.696223 -4.98158 0
M  V30 23185 H 2098.11 -2.41134 -5.35844 0
M  V30 23186 H 2099.63 -1.63961 -5.88175 0
M  V30 23187 H 2101.05 -3.48257 -4.55401 0
M  V30 23188 H 2099.45 -4.21978 -4.26678 0
M  V30 23189 H 2100.52 -3.89244 -2.89166 0
M  V30 23190 N 2101.86 1.05436 -1.17136 0
M  V30 23191 C 2103.14 1.75275 -0.868216 0
M  V30 23192 C 2103.52 2.01415 0.632074 0
M  V30 23193 O 2102.86 1.64823 1.58258 0
M  V30 23194 C 2103.07 3.04772 -1.70044 0
M  V30 23195 C 2104.42 3.78768 -1.91885 0
M  V30 23196 O 2105.45 3.14636 -1.66982 0
M  V30 23197 O 2104.3 4.94 -2.33723 0
M  V30 23198 H 2101.4 0.762066 -0.321223 0
M  V30 23199 H 2103.94 1.11627 -1.27818 0
M  V30 23200 H 2102.72 2.81485 -2.71812 0
M  V30 23201 H 2102.34 3.76157 -1.28808 0
M  V30 23202 N 2103.34 0.971211 1.24118 0
M  V30 23203 C 2104.61 0.551769 1.87656 0
M  V30 23204 C 2104.99 -0.97112 1.87437 0
M  V30 23205 O 2104.34 -1.84396 1.34946 0
M  V30 23206 C 2104.55 1.14731 3.29602 0
M  V30 23207 C 2105.9 1.23437 4.06262 0
M  V30 23208 O 2106.92 1.10009 3.38787 0
M  V30 23209 O 2105.78 1.44701 5.26995 0
M  V30 23210 H 2102.88 0.184487 0.80616 0
M  V30 23211 H 2105.42 1.06571 1.32064 0
M  V30 23212 H 2104.19 2.18994 3.2428 0
M  V30 23213 H 2103.82 0.617636 3.92773 0
M  V30 23214 N 2104.81 -1.39054 0.741747 0
M  V30 23215 C 2105.74 -2.33184 0.121433 0
M  V30 23216 C 2106.73 -1.54261 -0.716774 0
M  V30 23217 O 2107.91 -1.82627 -0.660379 0
M  V30 23218 C 2105.04 -3.38393 -0.78152 0
M  V30 23219 C 2103.99 -4.27974 -0.046955 0
M  V30 23220 C 2103.32 -5.23938 -1.06737 0
M  V30 23221 C 2104.62 -5.10272 1.11446 0
M  V30 23222 H 2106.31 -2.85308 0.907724 0
M  V30 23223 H 2103.86 -1.37179 0.437953 0
M  V30 23224 H 2105.81 -4.032 -1.22506 0
M  V30 23225 H 2104.54 -2.84724 -1.6 0
M  V30 23226 H 2103.2 -3.64656 0.377036 0
M  V30 23227 H 2102.84 -4.66562 -1.8796 0
M  V30 23228 H 2102.54 -5.84725 -0.580605 0
M  V30 23229 H 2104.07 -5.91622 -1.51048 0
M  V30 23230 H 2105.48 -5.68386 0.749042 0
M  V30 23231 H 2103.88 -5.80234 1.53131 0
M  V30 23232 H 2104.95 -4.44706 1.93299 0
M  V30 23233 N 2106.29 -0.489897 -1.49792 0
M  V30 23234 C 2107.22 0.283966 -2.31767 0
M  V30 23235 C 2108.2 0.972934 -1.39528 0
M  V30 23236 O 2109.39 0.966482 -1.68442 0
M  V30 23237 C 2106.52 1.35538 -3.19761 0
M  V30 23238 C 2105.47 0.786932 -4.20703 0
M  V30 23239 C 2104.8 1.95803 -4.97559 0
M  V30 23240 C 2106.1 -0.214528 -5.21859 0
M  V30 23241 H 2107.79 -0.40025 -2.96713 0
M  V30 23242 H 2105.34 -0.193932 -1.42688 0
M  V30 23243 H 2107.29 1.90438 -3.75914 0
M  V30 23244 H 2106.02 2.06862 -2.52736 0
M  V30 23245 H 2104.67 0.259755 -3.65679 0
M  V30 23246 H 2104.32 2.65871 -4.26992 0
M  V30 23247 H 2104.02 1.58381 -5.65853 0
M  V30 23248 H 2105.55 2.51159 -5.56553 0
M  V30 23249 H 2106.96 0.245954 -5.72772 0
M  V30 23250 H 2105.36 -0.504002 -5.9798 0
M  V30 23251 H 2106.43 -1.13417 -4.71449 0
M  V30 23252 N 2107.77 1.56011 -0.223262 0
M  V30 23253 C 2109.02 1.98642 0.408581 0
M  V30 23254 C 2109.35 1.11082 1.59294 0
M  V30 23255 O 2108.62 0.168881 1.93765 0
M  V30 23256 C 2108.91 3.5013 0.841473 0
M  V30 23257 C 2108.76 4.48462 -0.346639 0
M  V30 23258 C 2110.08 4.06065 1.69703 0
M  V30 23259 H 2107.2 0.722183 0.147039 0
M  V30 23260 H 2109.84 1.87289 -0.319839 0
M  V30 23261 H 2107.99 3.59936 1.46214 0
M  V30 23262 H 2109.66 4.50665 -0.98481 0
M  V30 23263 H 2107.91 4.22263 -0.993788 0
M  V30 23264 H 2108.58 5.52 -0.00078187 0
M  V30 23265 H 2111.05 3.99215 1.17332 0
M  V30 23266 H 2109.93 5.12376 1.96882 0
M  V30 23267 H 2110.19 3.53054 2.66093 0
M  V30 23268 N 2109.25 -0.0501116 1.5752 0
M  V30 23269 C 2110.53 -0.779325 1.79404 0
M  V30 23270 C 2110.91 -1.94682 0.816214 0
M  V30 23271 O 2110.25 -2.28032 -0.146153 0
M  V30 23272 C 2110.46 -1.23206 3.26529 0
M  V30 23273 C 2111.81 -1.65661 3.9095 0
M  V30 23274 O 2112.84 -1.32718 3.30552 0
M  V30 23275 O 2111.69 -2.26728 4.97249 0
M  V30 23276 H 2108.79 -0.375128 0.737026 0
M  V30 23277 H 2111.33 -0.0285117 1.69676 0
M  V30 23278 H 2110.11 -0.397664 3.89274 0
M  V30 23279 H 2109.73 -2.04353 3.41065 0
M  V30 23280 N 2110.73 -1.54276 -0.321972 0
M  V30 23281 C 2111.66 -1.86766 -1.40146 0
M  V30 23282 C 2112.64 -0.724601 -1.53895 0
M  V30 23283 O 2113.82 -0.978478 -1.67748 0
M  V30 23284 C 2110.95 -2.09642 -2.76889 0
M  V30 23285 C 2109.91 -3.25485 -2.77927 0
M  V30 23286 C 2109.23 -3.33736 -4.17761 0
M  V30 23287 C 2110.53 -4.63097 -2.41533 0
M  V30 23288 H 2112.23 -2.77174 -1.13204 0
M  V30 23289 H 2109.77 -1.33364 -0.543134 0
M  V30 23290 H 2111.73 -2.30955 -3.52474 0
M  V30 23291 H 2110.45 -1.15985 -3.05311 0
M  V30 23292 H 2109.11 -3.04062 -2.04798 0
M  V30 23293 H 2108.76 -2.37634 -4.43327 0
M  V30 23294 H 2108.46 -4.11594 -4.19362 0
M  V30 23295 H 2109.98 -3.57285 -4.95156 0
M  V30 23296 H 2111.39 -4.84281 -3.06831 0
M  V30 23297 H 2109.79 -5.43516 -2.54382 0
M  V30 23298 H 2110.86 -4.65238 -1.3668 0
M  V30 23299 N 2112.2 0.584116 -1.46376 0
M  V30 23300 C 2113.48 1.34425 -1.42089 0
M  V30 23301 C 2113.86 2.10846 -0.103623 0
M  V30 23302 O 2113.21 2.09389 0.914788 0
M  V30 23303 C 2113.42 2.27143 -2.64966 0
M  V30 23304 C 2114.77 2.89016 -3.11054 0
M  V30 23305 O 2115.79 2.37457 -2.65505 0
M  V30 23306 O 2114.65 3.82664 -3.90167 0
M  V30 23307 H 2111.74 0.603918 -0.564989 0
M  V30 23308 H 2114.29 0.605251 -1.5854 0
M  V30 23309 H 2113.06 1.70093 -3.52398 0
M  V30 23310 H 2112.69 3.08385 -2.50967 0
M  V30 23311 N 2113.68 1.34058 0.828631 0
M  V30 23312 C 2114.63 1.21721 1.9279 0
M  V30 23313 C 2115.62 0.117615 1.6047 0
M  V30 23314 O 2116.81 0.346722 1.73571 0
M  V30 23315 C 2113.94 0.969045 3.29339 0
M  V30 23316 C 2113.02 2.11155 3.67797 0
M  V30 23317 N 2113.42 3.36232 3.77865 0
M  V30 23318 C 2111.71 2.02052 3.97606 0
M  V30 23319 C 2112.41 4.11227 4.11421 0
M  V30 23320 N 2111.39 3.39763 4.24337 0
M  V30 23321 H 2115.19 2.16513 1.98744 0
M  V30 23322 H 2112.71 1.26213 1.02196 0
M  V30 23323 H 2114.7 0.861579 4.079 0
M  V30 23324 H 2113.36 0.0297527 3.24686 0
M  V30 23325 H 2114.37 3.70855 3.61506 0
M  V30 23326 H 2111.05 1.15845 4.01106 0
M  V30 23327 H 2112.44 5.19211 4.26462 0
M  V30 23328 N 2115.16 -1.04814 1.17694 0
M  V30 23329 C 2116.09 -2.12661 0.854872 0
M  V30 23330 C 2117.11 -1.62159 -0.144345 0
M  V30 23331 O 2118.3 -1.78309 0.0824726 0
M  V30 23332 C 2115.4 -3.37942 0.254679 0
M  V30 23333 C 2114.57 -4.17706 1.2977 0
M  V30 23334 C 2113.63 -5.21326 0.714573 0
M  V30 23335 O 2112.65 -5.52033 1.38736 0
M  V30 23336 N 2113.86 -5.78415 -0.491561 0
M  V30 23337 H 2116.62 -2.40885 1.7831 0
M  V30 23338 H 2114.18 -1.20943 1.0763 0
M  V30 23339 H 2116.17 -4.04426 -0.148817 0
M  V30 23340 H 2114.74 -3.07221 -0.577415 0
M  V30 23341 H 2113.96 -3.46655 1.8768 0
M  V30 23342 H 2115.25 -4.67796 2.00112 0
M  V30 23343 H 2114.65 -5.55756 -1.05604 0
M  V30 23344 H 2113.21 -6.46403 -0.837072 0
M  V30 23345 N 2116.64 -0.977779 -1.23601 0
M  V30 23346 C 2118.06 -0.685968 -1.44106 0
M  V30 23347 C 2118.26 0.748759 -1.87072 0
M  V30 23348 O 2117.31 1.5215 -2.01511 0
M  V30 23349 C 2118.62 -1.67866 -2.49482 0
M  V30 23350 C 2120.17 -1.69241 -2.63299 0
M  V30 23351 C 2120.65 -2.67334 -3.71883 0
M  V30 23352 N 2122.14 -2.65836 -3.79322 0
M  V30 23353 C 2122.87 -3.38406 -4.62892 0
M  V30 23354 N 2122.37 -4.20527 -5.50571 0
M  V30 23355 N 2124.16 -3.27183 -4.57064 0
M  V30 23356 H 2116.31 -1.90461 -0.940129 0
M  V30 23357 H 2118.58 -0.820555 -0.474756 0
M  V30 23358 H 2118.28 -2.70457 -2.24824 0
M  V30 23359 H 2118.16 -1.45942 -3.47823 0
M  V30 23360 H 2120.54 -0.673554 -2.8731 0
M  V30 23361 H 2120.62 -1.95231 -1.65283 0
M  V30 23362 H 2120.27 -3.6936 -3.4862 0
M  V30 23363 H 2120.2 -2.38619 -4.69434 0
M  V30 23364 H 2122.69 -2.06236 -3.16662 0
M  V30 23365 H 2123 -4.72763 -6.11322 0
M  V30 23366 H 2121.35 -4.24619 -5.50203 0
M  V30 23367 H 2124.54 -2.62481 -3.87584 0
M  V30 23368 H 2124.71 -3.84001 -5.21965 0
M  V30 23369 N 2118.12 1.38658 -0.749111 0
M  V30 23370 C 2119.05 2.29065 -0.0786741 0
M  V30 23371 C 2120.06 1.47524 0.688517 0
M  V30 23372 O 2121.25 1.70439 0.530347 0
M  V30 23373 C 2118.35 3.2638 0.912663 0
M  V30 23374 C 2117.52 4.36924 0.204051 0
M  V30 23375 C 2116.58 5.14456 1.1055 0
M  V30 23376 O 2115.61 5.66261 0.577696 0
M  V30 23377 N 2116.81 5.27007 2.434 0
M  V30 23378 H 2119.58 2.87243 -0.855081 0
M  V30 23379 H 2117.14 1.50391 -0.599516 0
M  V30 23380 H 2119.13 3.75126 1.51864 0
M  V30 23381 H 2117.7 2.69132 1.59018 0
M  V30 23382 H 2116.92 3.89871 -0.582584 0
M  V30 23383 H 2118.21 5.07993 -0.286467 0
M  V30 23384 H 2117.61 4.86461 2.88742 0
M  V30 23385 H 2116.16 5.79143 2.99059 0
M  V30 23386 N 2119.6 0.497834 1.49531 0
M  V30 23387 C 2120.82 -0.0468921 2.07347 0
M  V30 23388 C 2121.25 -1.30349 1.35612 0
M  V30 23389 O 2120.6 -1.76559 0.411884 0
M  V30 23390 C 2120.65 -0.286776 3.59458 0
M  V30 23391 O 2119.76 -1.36212 3.89256 0
M  V30 23392 H 2119.1 0.0248202 0.663536 0
M  V30 23393 H 2121.63 0.696547 1.92378 0
M  V30 23394 H 2121.64 -0.519243 4.04682 0
M  V30 23395 H 2120.31 0.631334 4.1108 0
M  V30 23396 H 2118.89 -1.11485 3.55845 0
M  V30 23397 N 2121.07 -1.5589 0.231532 0
M  V30 23398 C 2122.04 -2.19461 -0.661012 0
M  V30 23399 C 2123.04 -1.15936 -1.11424 0
M  V30 23400 O 2124.23 -1.41111 -1.02144 0
M  V30 23401 C 2121.36 -2.82592 -1.90669 0
M  V30 23402 H 2122.55 -2.9971 -0.106607 0
M  V30 23403 H 2120.1 -1.5629 -0.0180602 0
M  V30 23404 H 2120.84 -2.06239 -2.50272 0
M  V30 23405 H 2120.62 -3.58412 -1.59007 0
M  V30 23406 H 2122.11 -3.3129 -2.54238 0
M  V30 23407 N 2122.55 0.0417572 -1.57545 0
M  V30 23408 C 2123.79 0.740092 -1.90531 0
M  V30 23409 C 2124.16 1.73194 -0.828727 0
M  V30 23410 O 2125.36 2.47759 -1.04254 0
M  V30 23411 C 2123.63 1.40329 -3.28698 0
M  V30 23412 S 2125.19 2.13254 -3.83495 0
M  V30 23413 H 2122 0.245468 -0.667283 0
M  V30 23414 H 2124.61 -0.00488991 -1.95499 0
M  V30 23415 H 2123.31 0.668013 -4.04927 0
M  V30 23416 H 2122.84 2.18709 -3.27002 0
M  V30 23417 H 2124.86 3.4022 -3.61199 0
M  V30 23418 N 2124.03 1.54445 0.313786 0
M  V30 23419 C 2124.98 1.85248 1.40663 0
M  V30 23420 C 2125.97 0.725147 1.53095 0
M  V30 23421 O 2127.18 0.908956 1.55364 0
M  V30 23422 H 2123.55 0.587354 0.469595 0
M  V30 23423 H 2125.52 2.76619 1.11913 0
M  V30 23424 C 2124.27 2.10521 2.76724 0
M  V30 23425 H 2123.6 2.96733 2.67935 0
M  V30 23426 H 2125.04 2.36022 3.52235 0
M  V30 23427 C 2123.49 0.899767 3.24663 0
M  V30 23428 O 2124.02 0.113882 4.01539 0
M  V30 23429 N 2122.23 0.708685 2.81826 0
M  V30 23430 H 2121.78 1.34941 2.19428 0
M  V30 23431 H 2121.74 -0.0963363 3.14252 0
M  V30 23432 N 2125.51 -0.576345 1.46683 0
M  V30 23433 C 2126.44 -1.69505 1.60594 0
M  V30 23434 C 2127.42 -1.63873 0.456022 0
M  V30 23435 O 2128.6 -1.81791 0.683045 0
M  V30 23436 C 2125.73 -3.08148 1.60194 0
M  V30 23437 C 2124.69 -3.28615 2.7422 0
M  V30 23438 C 2124.01 -4.6785 2.58884 0
M  V30 23439 C 2125.31 -3.15834 4.15989 0
M  V30 23440 H 2127.01 -1.58119 2.54241 0
M  V30 23441 H 2124.55 -0.759271 1.22356 0
M  V30 23442 H 2126.51 -3.86237 1.68519 0
M  V30 23443 H 2125.23 -3.20447 0.630952 0
M  V30 23444 H 2123.89 -2.52927 2.65375 0
M  V30 23445 H 2123.54 -4.76923 1.59854 0
M  V30 23446 H 2123.24 -4.82495 3.35368 0
M  V30 23447 H 2124.76 -5.48099 2.69109 0
M  V30 23448 H 2126.18 -3.83761 4.25911 0
M  V30 23449 H 2124.57 -3.41998 4.9311 0
M  V30 23450 H 2125.64 -2.12828 4.35698 0
M  V30 23451 N 2126.99 -1.34495 -0.82151 0
M  V30 23452 C 2127.9 -1.28265 -1.96431 0
M  V30 23453 C 2128.91 -0.190092 -1.72959 0
M  V30 23454 O 2130.09 -0.416817 -1.9704 0
M  V30 23455 C 2127.15 -1.03935 -3.30754 0
M  V30 23456 C 2126.21 -2.22361 -3.67225 0
M  V30 23457 C 2125.45 -1.99182 -4.95139 0
M  V30 23458 O 2125.67 -0.950771 -5.6242 0
M  V30 23459 O 2124.6 -2.86169 -5.2952 0
M  V30 23460 H 2128.43 -2.2441 -2.04631 0
M  V30 23461 H 2126.01 -1.14716 -0.957114 0
M  V30 23462 H 2127.9 -0.921538 -4.112 0
M  V30 23463 H 2126.57 -0.108311 -3.23519 0
M  V30 23464 H 2125.48 -2.39702 -2.87217 0
M  V30 23465 H 2126.81 -3.1386 -3.79147 0
M  V30 23466 N 2128.46 1.04188 -1.18248 0
M  V30 23467 C 2129.41 2.12172 -0.908383 0
M  V30 23468 C 2130.38 1.65406 0.151732 0
M  V30 23469 O 2131.57 1.90796 0.0123583 0
M  V30 23470 C 2128.71 3.42298 -0.43889 0
M  V30 23471 C 2127.82 4.02684 -1.56428 0
M  V30 23472 C 2126.95 5.20767 -1.04764 0
M  V30 23473 C 2125.99 5.7318 -2.14781 0
M  V30 23474 N 2125.13 6.82553 -1.64519 0
M  V30 23475 H 2129.97 2.34956 -1.83302 0
M  V30 23476 H 2127.51 1.15252 -0.914073 0
M  V30 23477 H 2129.47 4.16937 -0.14817 0
M  V30 23478 H 2128.1 3.19665 0.448774 0
M  V30 23479 H 2127.15 3.25384 -1.97051 0
M  V30 23480 H 2128.46 4.37613 -2.39366 0
M  V30 23481 H 2127.61 6.02515 -0.711371 0
M  V30 23482 H 2126.35 4.87338 -0.18783 0
M  V30 23483 H 2125.36 4.90054 -2.49253 0
M  V30 23484 H 2126.58 6.08653 -3.01195 0
M  V30 23485 H 2124.53 6.51002 -0.808251 0
M  V30 23486 H 2124.45 7.16539 -2.41056 0
M  V30 23487 H 2125.71 7.67928 -1.33815 0
M  V30 23488 N 2129.94 0.98432 1.23081 0
M  V30 23489 C 2130.89 0.527474 2.24692 0
M  V30 23490 C 2131.86 -0.435706 1.60284 0
M  V30 23491 O 2133.04 -0.342378 1.87703 0
M  V30 23492 C 2130.18 -0.160141 3.44728 0
M  V30 23493 C 2129.3 0.843763 4.2368 0
M  V30 23494 C 2128.43 0.130552 5.3104 0
M  V30 23495 C 2127.47 1.1234 6.01703 0
M  V30 23496 N 2126.61 0.439082 7.00726 0
M  V30 23497 H 2131.45 1.39873 2.63134 0
M  V30 23498 H 2128.99 0.700815 1.29333 0
M  V30 23499 H 2130.94 -0.575649 4.1321 0
M  V30 23500 H 2129.57 -0.995239 3.07075 0
M  V30 23501 H 2128.63 1.37764 3.54578 0
M  V30 23502 H 2129.94 1.60017 4.72436 0
M  V30 23503 H 2129.09 -0.342123 6.05735 0
M  V30 23504 H 2127.83 -0.65843 4.83235 0
M  V30 23505 H 2126.84 1.60679 5.25797 0
M  V30 23506 H 2128.06 1.91311 6.51596 0
M  V30 23507 H 2126.01 -0.33062 6.55166 0
M  V30 23508 H 2125.92 1.13408 7.47445 0
M  V30 23509 H 2127.19 -0.0110751 7.79499 0
M  V30 23510 N 2131.42 -1.38259 0.756453 0
M  V30 23511 C 2132.35 -2.2902 0.0908208 0
M  V30 23512 C 2133.37 -1.47887 -0.680684 0
M  V30 23513 O 2134.55 -1.70718 -0.521301 0
M  V30 23514 C 2131.65 -3.26859 -0.895342 0
M  V30 23515 C 2130.83 -4.37026 -0.180877 0
M  V30 23516 C 2129.89 -5.15035 -1.0782 0
M  V30 23517 O 2128.91 -5.66559 -0.547658 0
M  V30 23518 N 2130.11 -5.28291 -2.40602 0
M  V30 23519 H 2132.88 -2.86785 0.870302 0
M  V30 23520 H 2130.44 -1.50071 0.607483 0
M  V30 23521 H 2132.43 -3.75926 -1.49873 0
M  V30 23522 H 2131 -2.69972 -1.57588 0
M  V30 23523 H 2130.22 -3.89557 0.603252 0
M  V30 23524 H 2131.51 -5.07834 0.313403 0
M  V30 23525 H 2130.91 -4.87986 -2.86158 0
M  V30 23526 H 2129.47 -5.80721 -2.95984 0
M  V30 23527 N 2132.9 -0.505757 -1.49264 0
M  V30 23528 C 2133.85 0.270127 -2.29214 0
M  V30 23529 C 2134.82 0.956031 -1.35828 0
M  V30 23530 O 2136 0.961771 -1.64787 0
M  V30 23531 C 2133.14 1.32577 -3.18618 0
M  V30 23532 C 2132.25 0.65116 -4.27064 0
M  V30 23533 C 2131.39 1.68765 -5.03678 0
M  V30 23534 C 2130.43 0.995172 -6.03956 0
M  V30 23535 N 2129.56 1.97608 -6.73718 0
M  V30 23536 H 2134.4 -0.41788 -2.95056 0
M  V30 23537 H 2131.94 -0.217921 -1.45477 0
M  V30 23538 H 2133.9 1.94985 -3.68832 0
M  V30 23539 H 2132.53 1.98248 -2.5475 0
M  V30 23540 H 2131.58 -0.0863124 -3.80302 0
M  V30 23541 H 2132.89 0.106277 -4.98687 0
M  V30 23542 H 2132.05 2.38665 -5.57785 0
M  V30 23543 H 2130.79 2.2664 -4.3184 0
M  V30 23544 H 2129.79 0.281968 -5.49076 0
M  V30 23545 H 2131.02 0.422861 -6.77782 0
M  V30 23546 H 2128.96 2.54436 -6.04647 0
M  V30 23547 H 2128.88 1.48199 -7.41332 0
M  V30 23548 H 2130.15 2.66782 -7.32426 0
M  V30 23549 N 2134.38 1.55765 -0.239796 0
M  V30 23550 C 2135.32 2.2108 0.662746 0
M  V30 23551 C 2136.29 1.17233 1.17668 0
M  V30 23552 O 2137.48 1.45655 1.23245 0
M  V30 23553 C 2134.62 2.90865 1.85719 0
M  V30 23554 C 2133.73 4.0935 1.38044 0
M  V30 23555 C 2132.87 4.6687 2.53389 0
M  V30 23556 C 2131.91 5.77619 2.02541 0
M  V30 23557 N 2131.04 6.29351 3.11225 0
M  V30 23558 H 2135.88 2.97835 0.0990722 0
M  V30 23559 H 2133.42 1.47053 0.0371415 0
M  V30 23560 H 2135.38 3.2952 2.55875 0
M  V30 23561 H 2134.01 2.16596 2.39345 0
M  V30 23562 H 2133.06 3.76057 0.573171 0
M  V30 23563 H 2134.37 4.89322 0.96774 0
M  V30 23564 H 2133.53 5.08062 3.31598 0
M  V30 23565 H 2132.26 3.861 2.97957 0
M  V30 23566 H 2131.27 5.35911 1.22799 0
M  V30 23567 H 2132.49 6.60236 1.5895 0
M  V30 23568 H 2130.44 5.51488 3.55241 0
M  V30 23569 H 2130.36 7.04497 2.74263 0
M  V30 23570 H 2131.63 6.75202 3.89516 0
M  V30 23571 N 2135.85 -0.0334016 1.57565 0
M  V30 23572 C 2137.1 -0.725083 1.89074 0
M  V30 23573 C 2137.43 -1.75591 0.83654 0
M  V30 23574 O 2136.68 -1.9502 -0.163023 0
M  V30 23575 C 2136.98 -1.4351 3.27322 0
M  V30 23576 C 2136.65 -0.540657 4.47647 0
M  V30 23577 C 2135.31 -0.294289 4.80299 0
M  V30 23578 C 2137.66 0.0771583 5.21143 0
M  V30 23579 C 2134.99 0.578743 5.83839 0
M  V30 23580 C 2137.34 0.937867 6.25609 0
M  V30 23581 C 2136.01 1.19374 6.56739 0
M  V30 23582 H 2135.28 -0.265327 0.691869 0
M  V30 23583 H 2137.92 0.0149455 1.91494 0
M  V30 23584 H 2136.23 -2.24833 3.2087 0
M  V30 23585 H 2137.93 -1.97575 3.48949 0
M  V30 23586 H 2134.52 -0.742832 4.22114 0
M  V30 23587 H 2138.7 -0.100223 4.96199 0
M  V30 23588 H 2133.96 0.785335 6.06335 0
M  V30 23589 H 2138.13 1.42313 6.81704 0
M  V30 23590 H 2135.76 1.87196 7.36792 0
M  V30 23591 N 2137.33 -1.54609 -0.305591 0
M  V30 23592 C 2138.61 -1.64344 -1.06068 0
M  V30 23593 C 2138.99 -0.488774 -2.05364 0
M  V30 23594 O 2138.34 0.515015 -2.2262 0
M  V30 23595 C 2138.55 -3.02149 -1.74663 0
M  V30 23596 C 2139.9 -3.58808 -2.27029 0
M  V30 23597 O 2140.92 -3.04571 -1.84703 0
M  V30 23598 O 2139.78 -4.53762 -3.04568 0
M  V30 23599 H 2136.87 -0.666216 -0.489984 0
M  V30 23600 H 2139.42 -1.66954 -0.304046 0
M  V30 23601 H 2138.19 -3.77626 -1.02538 0
M  V30 23602 H 2137.81 -3.03296 -2.57094 0
M  V30 23603 N 2138.81 0.568558 -1.46987 0
M  V30 23604 C 2139.74 1.69147 -1.54668 0
M  V30 23605 C 2140.76 1.56914 -0.433789 0
M  V30 23606 O 2141.94 1.6408 -0.702853 0
M  V30 23607 C 2139.04 3.07522 -1.4242 0
M  V30 23608 C 2138.22 3.45619 -2.68078 0
M  V30 23609 C 2137.28 4.63111 -2.49829 0
M  V30 23610 O 2136.3 4.68261 -3.23605 0
M  V30 23611 N 2137.5 5.5889 -1.56914 0
M  V30 23612 H 2140.27 1.63008 -2.51492 0
M  V30 23613 H 2137.83 0.75491 -1.43223 0
M  V30 23614 H 2139.82 3.83937 -1.27963 0
M  V30 23615 H 2138.39 3.07949 -0.537222 0
M  V30 23616 H 2137.61 2.58767 -2.97378 0
M  V30 23617 H 2138.9 3.67844 -3.51523 0
M  V30 23618 H 2138.3 5.57477 -0.961042 0
M  V30 23619 H 2136.86 6.34678 -1.48414 0
M  V30 23620 N 2140.29 1.34929 0.814366 0
M  V30 23621 C 2141.22 1.29866 1.94055 0
M  V30 23622 C 2142.2 0.174504 1.69203 0
M  V30 23623 O 2143.38 0.368232 1.90677 0
M  V30 23624 C 2140.51 1.06201 3.30664 0
M  V30 23625 C 2139.47 2.15174 3.69978 0
M  V30 23626 C 2138.79 1.76686 5.04664 0
M  V30 23627 C 2140.09 3.57077 3.81174 0
M  V30 23628 H 2141.79 2.24095 1.98549 0
M  V30 23629 H 2139.33 1.07877 0.953865 0
M  V30 23630 H 2141.29 1.01301 4.09043 0
M  V30 23631 H 2140.01 0.0841549 3.26492 0
M  V30 23632 H 2138.67 2.19158 2.9388 0
M  V30 23633 H 2138.32 0.775388 4.96988 0
M  V30 23634 H 2138.02 2.49628 5.3194 0
M  V30 23635 H 2139.54 1.73297 5.85492 0
M  V30 23636 H 2140.96 3.55458 4.49803 0
M  V30 23637 H 2139.35 4.28713 4.19911 0
M  V30 23638 H 2140.42 3.93795 2.82937 0
M  V30 23639 N 2141.77 -1.0356 1.18799 0
M  V30 23640 C 2142.7 -2.13602 0.943213 0
M  V30 23641 C 2143.68 -1.69669 -0.120965 0
M  V30 23642 O 2144.86 -1.94173 0.0326748 0
M  V30 23643 C 2141.99 -3.44054 0.473716 0
M  V30 23644 C 2140.95 -4.01635 1.47896 0
M  V30 23645 C 2140.27 -5.27628 0.866789 0
M  V30 23646 C 2141.57 -4.3722 2.8572 0
M  V30 23647 H 2143.27 -2.34336 1.86351 0
M  V30 23648 H 2140.81 -1.12617 0.897406 0
M  V30 23649 H 2142.77 -4.20402 0.289804 0
M  V30 23650 H 2141.49 -3.23021 -0.482167 0
M  V30 23651 H 2140.15 -3.27374 1.6499 0
M  V30 23652 H 2139.8 -5.02908 -0.0964386 0
M  V30 23653 H 2139.5 -5.67115 1.53799 0
M  V30 23654 H 2141.02 -6.06649 0.693523 0
M  V30 23655 H 2142.43 -5.04533 2.72248 0
M  V30 23656 H 2140.83 -4.87771 3.49571 0
M  V30 23657 H 2141.9 -3.46821 3.38885 0
M  V30 23658 N 2143.25 -0.990834 -1.22557 0
M  V30 23659 C 2144.21 -0.544553 -2.22637 0
M  V30 23660 C 2145.21 0.371467 -1.56451 0
M  V30 23661 O 2146.4 0.163711 -1.73429 0
M  V30 23662 C 2143.53 0.20822 -3.40264 0
M  V30 23663 H 2144.72 -1.42959 -2.63634 0
M  V30 23664 H 2142.28 -0.77782 -1.35572 0
M  V30 23665 H 2143.01 1.10933 -3.04737 0
M  V30 23666 H 2142.8 -0.449464 -3.89515 0
M  V30 23667 H 2144.29 0.508696 -4.1449 0
M  V30 23668 N 2144.72 1.37856 -0.763775 0
M  V30 23669 C 2145.63 2.3415 -0.145216 0
M  V30 23670 C 2146.65 1.59782 0.688888 0
M  V30 23671 O 2147.83 1.91919 0.610668 0
M  V30 23672 C 2144.89 3.38934 0.729718 0
M  V30 23673 C 2143.95 4.29132 -0.119926 0
M  V30 23674 C 2143.18 5.28911 0.713343 0
M  V30 23675 O 2143.41 5.36002 1.95086 0
M  V30 23676 O 2142.34 6.01767 0.126758 0
M  V30 23677 H 2146.17 2.88763 -0.940736 0
M  V30 23678 H 2143.75 1.39879 -0.524814 0
M  V30 23679 H 2145.63 4.03066 1.22946 0
M  V30 23680 H 2144.31 2.86661 1.50356 0
M  V30 23681 H 2143.22 3.68127 -0.665843 0
M  V30 23682 H 2144.55 4.84688 -0.856664 0
M  V30 23683 N 2146.2 0.513665 1.48994 0
M  V30 23684 C 2147.11 -0.262214 2.3313 0
M  V30 23685 C 2148.13 -0.955024 1.45449 0
M  V30 23686 O 2149.3 -0.933603 1.78454 0
M  V30 23687 C 2146.37 -1.30529 3.2119 0
M  V30 23688 C 2145.43 -0.624574 4.24732 0
M  V30 23689 C 2144.66 -1.61795 5.08584 0
M  V30 23690 O 2144.89 -2.84907 4.9415 0
M  V30 23691 O 2143.82 -1.16631 5.90492 0
M  V30 23692 H 2147.65 0.426785 3.00686 0
M  V30 23693 H 2145.23 0.274809 1.46851 0
M  V30 23694 H 2147.11 -1.90848 3.75706 0
M  V30 23695 H 2145.79 -1.97699 2.56314 0
M  V30 23696 H 2144.69 0.0186867 3.74095 0
M  V30 23697 H 2146.03 0.00489798 4.922 0
M  V30 23698 N 2147.68 -1.55636 0.248053 0
M  V30 23699 C 2148.63 -2.21428 -0.651012 0
M  V30 23700 C 2149.6 -1.17855 -1.17045 0
M  V30 23701 O 2150.78 -1.46306 -1.22471 0
M  V30 23702 C 2147.92 -2.91846 -1.84174 0
M  V30 23703 C 2147.03 -4.10077 -1.35872 0
M  V30 23704 C 2146.17 -4.68207 -2.50909 0
M  V30 23705 C 2145.21 -5.78685 -1.99475 0
M  V30 23706 N 2144.35 -6.30993 -3.07883 0
M  V30 23707 H 2149.19 -2.97884 -0.0832758 0
M  V30 23708 H 2146.72 -1.47071 -0.0293424 0
M  V30 23709 H 2148.68 -3.30873 -2.54124 0
M  V30 23710 H 2147.31 -2.17862 -2.38193 0
M  V30 23711 H 2146.36 -3.76356 -0.553219 0
M  V30 23712 H 2147.67 -4.89829 -0.941776 0
M  V30 23713 H 2146.83 -5.09814 -3.28899 0
M  V30 23714 H 2145.57 -3.87674 -2.95905 0
M  V30 23715 H 2144.57 -5.36555 -1.19955 0
M  V30 23716 H 2145.8 -6.6107 -1.55447 0
M  V30 23717 H 2143.74 -5.53365 -3.52312 0
M  V30 23718 H 2143.66 -7.05941 -2.70523 0
M  V30 23719 H 2144.93 -6.77258 -3.8593 0
M  V30 23720 N 2149.16 0.0250451 -1.5758 0
M  V30 23721 C 2150.39 0.72671 -1.93718 0
M  V30 23722 C 2150.8 1.68677 -0.848148 0
M  V30 23723 O 2150.16 1.81658 0.175105 0
M  V30 23724 C 2150.21 1.4803 -3.29802 0
M  V30 23725 O 2149.93 0.55877 -4.34522 0
M  V30 23726 C 2151.43 2.27876 -3.80247 0
M  V30 23727 H 2148.65 0.203986 -0.639242 0
M  V30 23728 H 2151.19 -0.0186251 -2.04492 0
M  V30 23729 H 2149.35 2.17748 -3.20413 0
M  V30 23730 H 2149.76 1.08769 -5.13098 0
M  V30 23731 H 2151.24 2.7614 -4.77965 0
M  V30 23732 H 2151.71 3.09471 -3.11648 0
M  V30 23733 H 2152.32 1.63224 -3.92731 0
M  V30 23734 N 2150.64 1.54769 0.297388 0
M  V30 23735 C 2151.88 1.7343 1.0298 0
M  V30 23736 C 2152.2 0.529189 1.88305 0
M  V30 23737 O 2153.4 0.597687 2.64839 0
M  V30 23738 C 2151.86 3.06854 1.88065 0
M  V30 23739 C 2151.47 4.34856 1.07724 0
M  V30 23740 C 2153.21 3.34873 2.60883 0
M  V30 23741 C 2151.12 5.59329 1.92107 0
M  V30 23742 H 2150.05 0.646388 0.388199 0
M  V30 23743 H 2152.7 1.81248 0.286615 0
M  V30 23744 H 2151.08 2.93011 2.66385 0
M  V30 23745 H 2152.26 4.59544 0.339927 0
M  V30 23746 H 2150.57 4.13799 0.464715 0
M  V30 23747 H 2153.17 4.25071 3.24374 0
M  V30 23748 H 2153.51 2.5391 3.29902 0
M  V30 23749 H 2154.04 3.49704 1.8961 0
M  V30 23750 H 2150.78 6.4297 1.27551 0
M  V30 23751 H 2150.3 5.3882 2.63501 0
M  V30 23752 H 2151.98 5.96721 2.50067 0
M  V30 23753 N 2152.11 -0.560755 1.47286 0
M  V30 23754 C 2153.34 -1.34841 1.57584 0
M  V30 23755 C 2153.76 -1.86747 0.22521 0
M  V30 23756 O 2153.12 -1.62776 -0.798346 0
M  V30 23757 C 2153.17 -2.49671 2.60186 0
M  V30 23758 O 2152.27 -3.51793 2.1521 0
M  V30 23759 H 2151.61 -0.400669 0.529491 0
M  V30 23760 H 2154.14 -0.67803 1.93039 0
M  V30 23761 H 2154.15 -2.9629 2.80493 0
M  V30 23762 H 2152.83 -2.11248 3.58256 0
M  V30 23763 H 2151.41 -3.11504 2.04987 0
M  V30 23764 N 2153.59 -1.35359 -0.807199 0
M  V30 23765 C 2154.55 -1.28103 -1.90059 0
M  V30 23766 C 2155.55 -0.192614 -1.59642 0
M  V30 23767 O 2156.74 -0.446274 -1.68387 0
M  V30 23768 C 2153.88 -0.981581 -3.26463 0
M  V30 23769 H 2155.07 -2.25323 -1.97912 0
M  V30 23770 H 2152.62 -1.19874 -1.00299 0
M  V30 23771 H 2153.36 -0.013209 -3.24297 0
M  V30 23772 H 2153.14 -1.76903 -3.49925 0
M  V30 23773 H 2154.63 -0.956397 -4.06501 0
M  V30 23774 N 2155.07 1.02928 -1.19346 0
M  V30 23775 C 2156.02 2.11197 -0.930836 0
M  V30 23776 C 2156.99 1.65557 0.13418 0
M  V30 23777 O 2158.17 1.90798 -0.00787889 0
M  V30 23778 C 2155.31 3.41813 -0.47517 0
M  V30 23779 C 2154.42 4.01002 -1.60691 0
M  V30 23780 C 2153.56 5.19626 -1.10282 0
M  V30 23781 C 2152.6 5.7087 -2.20848 0
M  V30 23782 N 2151.74 6.80769 -1.71749 0
M  V30 23783 H 2156.58 2.32999 -1.85784 0
M  V30 23784 H 2154.11 1.14276 -0.926246 0
M  V30 23785 H 2156.07 4.16756 -0.192384 0
M  V30 23786 H 2154.7 3.20123 0.414844 0
M  V30 23787 H 2153.75 3.23276 -2.00491 0
M  V30 23788 H 2155.06 4.3505 -2.43994 0
M  V30 23789 H 2154.22 6.01727 -0.775236 0
M  V30 23790 H 2152.96 4.87112 -0.239508 0
M  V30 23791 H 2151.96 4.87383 -2.54437 0
M  V30 23792 H 2153.19 6.05424 -3.07633 0
M  V30 23793 H 2151.13 6.50108 -0.877253 0
M  V30 23794 H 2151.05 7.13942 -2.48642 0
M  V30 23795 H 2152.32 7.66466 -1.41953 0
M  V30 23796 N 2156.55 0.997319 1.2203 0
M  V30 23797 C 2157.78 0.69324 1.94622 0
M  V30 23798 C 2158.19 -0.746899 1.73833 0
M  V30 23799 O 2157.53 -1.51616 1.03722 0
M  V30 23800 C 2157.59 0.92485 3.474 0
M  V30 23801 C 2157.25 2.35033 3.91929 0
M  V30 23802 C 2158.25 3.33011 3.99249 0
M  V30 23803 C 2155.94 2.68594 4.24456 0
M  V30 23804 C 2157.93 4.6262 4.38476 0
M  V30 23805 C 2155.62 3.98422 4.63361 0
M  V30 23806 C 2156.62 4.95246 4.70341 0
M  V30 23807 O 2156.3 6.22753 5.08363 0
M  V30 23808 H 2156.04 0.255247 0.625959 0
M  V30 23809 H 2158.59 1.33604 1.5601 0
M  V30 23810 H 2156.82 0.224877 3.86046 0
M  V30 23811 H 2158.51 0.61534 4.01209 0
M  V30 23812 H 2159.27 3.08416 3.74306 0
M  V30 23813 H 2155.15 1.9393 4.18225 0
M  V30 23814 H 2158.7 5.38194 4.43839 0
M  V30 23815 H 2154.59 4.22804 4.87757 0
M  V30 23816 H 2155.36 6.26755 5.26422 0
M  V30 23817 N 2158.03 -1.37449 0.771075 0
M  V30 23818 C 2158.99 -2.28619 0.163149 0
M  V30 23819 C 2159.99 -1.47996 -0.628787 0
M  V30 23820 O 2161.18 -1.68221 -0.452475 0
M  V30 23821 C 2158.31 -3.31942 -0.776372 0
M  V30 23822 H 2159.5 -2.83888 0.966816 0
M  V30 23823 H 2157.06 -1.46703 0.53924 0
M  V30 23824 H 2157.79 -2.81794 -1.60507 0
M  V30 23825 H 2157.58 -3.91534 -0.210683 0
M  V30 23826 H 2159.07 -4.00072 -1.19717 0
M  V30 23827 N 2159.5 -0.52156 -1.4872 0
M  V30 23828 C 2160.41 0.249847 -2.33266 0
M  V30 23829 C 2161.43 0.947297 -1.45953 0
M  V30 23830 O 2162.61 0.924126 -1.78947 0
M  V30 23831 C 2159.67 1.28824 -3.21878 0
M  V30 23832 C 2158.73 0.602041 -4.25058 0
M  V30 23833 C 2157.97 1.59096 -5.09435 0
M  V30 23834 O 2158.19 2.82282 -4.95654 0
M  V30 23835 O 2157.12 1.13498 -5.91102 0
M  V30 23836 H 2160.95 -0.442725 -3.00456 0
M  V30 23837 H 2158.53 -0.282593 -1.46703 0
M  V30 23838 H 2160.42 1.88853 -3.76713 0
M  V30 23839 H 2159.09 1.96337 -2.57359 0
M  V30 23840 H 2158 -0.0385256 -3.7408 0
M  V30 23841 H 2159.33 -0.0310005 -4.9219 0
M  V30 23842 N 2160.98 1.55502 -0.256304 0
M  V30 23843 C 2161.89 2.25422 0.649785 0
M  V30 23844 C 2162.91 1.27356 1.1856 0
M  V30 23845 O 2164.08 1.60253 1.21988 0
M  V30 23846 C 2161.15 2.94725 1.82587 0
M  V30 23847 C 2160.21 4.08224 1.32859 0
M  V30 23848 C 2159.44 4.74213 2.44862 0
M  V30 23849 O 2159.67 4.39321 3.63804 0
M  V30 23850 O 2158.6 5.6254 2.14086 0
M  V30 23851 H 2162.43 3.03584 0.083948 0
M  V30 23852 H 2160.01 1.4938 -0.0244329 0
M  V30 23853 H 2161.89 3.38344 2.512 0
M  V30 23854 H 2160.57 2.19495 2.37915 0
M  V30 23855 H 2159.48 3.69102 0.609468 0
M  V30 23856 H 2160.81 4.853 0.82129 0
M  V30 23857 N 2162.46 -0.0166879 1.57591 0
M  V30 23858 C 2163.88 -0.372531 1.55191 0
M  V30 23859 C 2164.08 -1.75838 0.984042 0
M  V30 23860 O 2163.13 -2.45008 0.610513 0
M  V30 23861 C 2164.45 -0.263043 2.99547 0
M  V30 23862 C 2165.99 -0.339216 3.11156 0
M  V30 23863 C 2166.47 -0.259039 4.57267 0
M  V30 23864 N 2167.96 -0.317455 4.62111 0
M  V30 23865 C 2168.69 -0.278499 5.72723 0
M  V30 23866 N 2168.19 -0.191112 6.92536 0
M  V30 23867 N 2169.98 -0.32914 5.61136 0
M  V30 23868 H 2162.13 0.890086 1.9285 0
M  V30 23869 H 2164.4 0.339637 0.885071 0
M  V30 23870 H 2164.1 0.689794 3.44869 0
M  V30 23871 H 2163.98 -1.0518 3.62239 0
M  V30 23872 H 2166.36 -1.28249 2.65775 0
M  V30 23873 H 2166.45 0.479109 2.51273 0
M  V30 23874 H 2166.09 0.68062 5.03319 0
M  V30 23875 H 2166.02 -1.09563 5.15076 0
M  V30 23876 H 2168.51 -0.387004 3.75913 0
M  V30 23877 H 2168.82 -0.166827 7.7262 0
M  V30 23878 H 2167.17 -0.15698 6.94823 0
M  V30 23879 H 2170.36 -0.395489 4.66426 0
M  V30 23880 H 2170.53 -0.295314 6.47327 0
M  V30 23881 N 2163.94 -1.54924 -0.289176 0
M  V30 23882 C 2165.22 -1.65459 -1.04319 0
M  V30 23883 C 2165.6 -0.510528 -2.04834 0
M  V30 23884 O 2164.94 0.491374 -2.23154 0
M  V30 23885 C 2165.15 -3.03984 -1.71449 0
M  V30 23886 C 2166.5 -3.61196 -2.2321 0
M  V30 23887 O 2167.53 -3.06513 -1.81462 0
M  V30 23888 O 2166.38 -4.56967 -2.99739 0
M  V30 23889 H 2163.48 -0.671376 -0.482891 0
M  V30 23890 H 2166.02 -1.67267 -0.286321 0
M  V30 23891 H 2164.8 -3.78693 -0.985267 0
M  V30 23892 H 2164.42 -3.06005 -2.53863 0
M  V30 23893 N 2165.42 0.552936 -1.47582 0
M  V30 23894 C 2166.83 0.879282 -1.33195 0
M  V30 23895 C 2167.03 1.98851 -0.32564 0
M  V30 23896 O 2166.09 2.51144 0.261323 0
M  V30 23897 C 2167.4 1.26848 -2.72635 0
M  V30 23898 C 2168.95 1.37967 -2.80952 0
M  V30 23899 C 2169.42 1.8024 -4.21043 0
M  V30 23900 N 2170.92 1.87383 -4.23606 0
M  V30 23901 C 2171.65 2.2143 -5.2892 0
M  V30 23902 N 2171.15 2.54061 -6.44535 0
M  V30 23903 N 2172.94 2.2224 -5.163 0
M  V30 23904 H 2165.09 -0.179315 -2.11642 0
M  V30 23905 H 2167.35 -0.0175595 -0.947837 0
M  V30 23906 H 2167.06 0.52723 -3.47726 0
M  V30 23907 H 2166.93 2.22371 -3.04682 0
M  V30 23908 H 2169.32 2.11172 -2.06132 0
M  V30 23909 H 2169.4 0.406213 -2.52554 0
M  V30 23910 H 2169.05 1.07603 -4.96371 0
M  V30 23911 H 2168.98 2.78596 -4.46869 0
M  V30 23912 H 2171.47 1.64536 -3.40201 0
M  V30 23913 H 2171.78 2.79079 -7.20649 0
M  V30 23914 H 2170.12 2.51631 -6.47848 0
M  V30 23915 H 2173.32 1.9619 -4.25002 0
M  V30 23916 H 2173.49 2.48444 -5.98481 0
M  V30 23917 N 2166.89 1.35785 0.800009 0
M  V30 23918 C 2167.86 1.29109 1.89377 0
M  V30 23919 C 2168.86 0.201077 1.59538 0
M  V30 23920 O 2170.05 0.455197 1.68148 0
M  V30 23921 C 2167.18 0.99888 3.25937 0
M  V30 23922 H 2168.37 2.2637 1.96715 0
M  V30 23923 H 2165.93 1.20404 0.996618 0
M  V30 23924 H 2166.66 0.0304071 3.24286 0
M  V30 23925 H 2166.45 1.78756 3.48982 0
M  V30 23926 H 2167.94 0.977941 4.05988 0
M  V30 23927 N 2168.37 -1.02294 1.19891 0
M  V30 23928 C 2169.28 -2.14169 0.957533 0
M  V30 23929 C 2170.3 -1.73795 -0.0844739 0
M  V30 23930 O 2171.47 -2.01144 0.101528 0
M  V30 23931 C 2168.54 -3.4299 0.50587 0
M  V30 23932 C 2167.6 -3.97643 1.61797 0
M  V30 23933 C 2166.83 -5.20315 1.18777 0
M  V30 23934 O 2167.06 -5.70375 0.0538032 0
M  V30 23935 O 2165.99 -5.67957 1.99268 0
M  V30 23936 H 2169.82 -2.37398 1.89409 0
M  V30 23937 H 2167.4 -1.12572 0.982234 0
M  V30 23938 H 2169.28 -4.20579 0.26292 0
M  V30 23939 H 2167.96 -3.21192 -0.402182 0
M  V30 23940 H 2166.87 -3.21362 1.91514 0
M  V30 23941 H 2168.2 -4.23817 2.5028 0
M  V30 23942 N 2169.85 -1.00378 -1.21499 0
M  V30 23943 C 2170.81 -0.568136 -2.22047 0
M  V30 23944 C 2171.81 0.354852 -1.56836 0
M  V30 23945 O 2173 0.145307 -1.73593 0
M  V30 23946 C 2170.14 0.172119 -3.40465 0
M  V30 23947 H 2171.33 -1.45747 -2.62103 0
M  V30 23948 H 2168.88 -0.792156 -1.34739 0
M  V30 23949 H 2169.62 1.07695 -3.05896 0
M  V30 23950 H 2169.4 -0.490752 -3.89017 0
M  V30 23951 H 2170.89 0.464705 -4.15006 0
M  V30 23952 N 2171.33 1.37038 -0.778354 0
M  V30 23953 C 2172.24 2.33983 -0.170042 0
M  V30 23954 C 2173.25 1.60504 0.671902 0
M  V30 23955 O 2174.43 1.92556 0.590278 0
M  V30 23956 C 2171.5 3.39689 0.693729 0
M  V30 23957 C 2170.56 4.28981 -0.165434 0
M  V30 23958 C 2169.79 5.29638 0.657205 0
M  V30 23959 O 2170.01 5.38041 1.8939 0
M  V30 23960 O 2168.95 6.01867 0.0629255 0
M  V30 23961 H 2172.77 2.87749 -0.97131 0
M  V30 23962 H 2170.36 1.39314 -0.53962 0
M  V30 23963 H 2172.24 4.04348 1.18664 0
M  V30 23964 H 2170.91 2.8824 1.47307 0
M  V30 23965 H 2169.82 3.674 -0.704851 0
M  V30 23966 H 2171.15 4.83752 -0.908023 0
M  V30 23967 N 2172.81 0.529439 1.48441 0
M  V30 23968 C 2173.77 -0.222884 2.28114 0
M  V30 23969 C 2174.77 -0.868268 1.35343 0
M  V30 23970 O 2175.96 -0.728402 1.5824 0
M  V30 23971 C 2173.09 -1.3225 3.14202 0
M  V30 23972 H 2174.29 0.476616 2.96088 0
M  V30 23973 H 2171.84 0.28536 1.53673 0
M  V30 23974 H 2172.57 -2.05527 2.50857 0
M  V30 23975 H 2172.36 -0.864853 3.82443 0
M  V30 23976 H 2173.85 -1.85168 3.74303 0
M  V30 23977 N 2174.29 -1.55364 0.264547 0
M  V30 23978 C 2175.7 -1.59347 -0.0898743 0
M  V30 23979 C 2175.9 -1.28177 -1.55476 0
M  V30 23980 O 2174.96 -1.03755 -2.30198 0
M  V30 23981 C 2176.27 -2.99438 0.27523 0
M  V30 23982 C 2177.82 -3.12219 0.220976 0
M  V30 23983 C 2178.29 -4.54559 0.560366 0
M  V30 23984 N 2179.78 -4.60367 0.511522 0
M  V30 23985 C 2180.52 -5.68513 0.747063 0
M  V30 23986 N 2180.02 -6.84848 1.04666 0
M  V30 23987 N 2181.81 -5.58013 0.676574 0
M  V30 23988 H 2173.96 -1.73891 1.21966 0
M  V30 23989 H 2176.22 -0.810337 0.491994 0
M  V30 23990 H 2175.93 -3.27046 1.2936 0
M  V30 23991 H 2175.8 -3.75188 -0.389113 0
M  V30 23992 H 2178.19 -2.84382 -0.788097 0
M  V30 23993 H 2178.27 -2.38705 0.919424 0
M  V30 23994 H 2177.91 -4.8312 1.56708 0
M  V30 23995 H 2177.84 -5.26358 -0.159757 0
M  V30 23996 H 2180.34 -3.7679 0.289407 0
M  V30 23997 H 2180.65 -7.63216 1.21334 0
M  V30 23998 H 2178.99 -6.86489 1.08433 0
M  V30 23999 H 2182.18 -4.66004 0.442433 0
M  V30 24000 H 2182.36 -6.42221 0.863527 0
M  V30 24001 N 2175.76 0.00833021 -1.57598 0
M  V30 24002 C 2176.67 1.01892 -2.11318 0
M  V30 24003 C 2177.69 1.38254 -1.0565 0
M  V30 24004 O 2178.87 1.47155 -1.37505 0
M  V30 24005 C 2175.93 2.29464 -2.59899 0
M  V30 24006 C 2174.99 1.99492 -3.80134 0
M  V30 24007 C 2174.22 3.20981 -4.26388 0
M  V30 24008 O 2174.45 4.3238 -3.72027 0
M  V30 24009 O 2173.38 3.05467 -5.18627 0
M  V30 24010 H 2177.21 0.592299 -2.97868 0
M  V30 24011 H 2174.79 0.226636 -1.47671 0
M  V30 24012 H 2176.67 3.04425 -2.91382 0
M  V30 24013 H 2175.35 2.7138 -1.76449 0
M  V30 24014 H 2174.26 1.22033 -3.53636 0
M  V30 24015 H 2175.59 1.62418 -4.6463 0
M  V30 24016 N 2177.24 1.55075 0.280956 0
M  V30 24017 C 2178.19 1.87409 1.34709 0
M  V30 24018 C 2179.16 0.72482 1.49451 0
M  V30 24019 O 2180.34 0.975348 1.63987 0
M  V30 24020 C 2177.48 2.14456 2.70375 0
M  V30 24021 C 2176.6 3.42009 2.6392 0
M  V30 24022 C 2175.73 3.58796 3.91713 0
M  V30 24023 C 2174.77 4.8007 3.79736 0
M  V30 24024 N 2173.91 4.93556 4.99346 0
M  V30 24025 H 2178.75 2.78344 1.06435 0
M  V30 24026 H 2176.28 1.37813 0.514379 0
M  V30 24027 H 2178.24 2.28135 3.493 0
M  V30 24028 H 2176.87 1.26764 2.96868 0
M  V30 24029 H 2175.92 3.36844 1.7675 0
M  V30 24030 H 2177.24 4.31065 2.50967 0
M  V30 24031 H 2176.39 3.7225 4.79077 0
M  V30 24032 H 2175.13 2.6791 4.07524 0
M  V30 24033 H 2174.13 4.66628 2.90754 0
M  V30 24034 H 2175.36 5.72383 3.65451 0
M  V30 24035 H 2173.31 4.05599 5.15582 0
M  V30 24036 H 2173.22 5.76645 4.88893 0
M  V30 24037 H 2174.49 5.11387 5.88305 0
M  V30 24038 N 2178.72 -0.545102 1.47873 0
M  V30 24039 C 2179.63 -1.67829 1.63922 0
M  V30 24040 C 2180.65 -1.65989 0.521885 0
M  V30 24041 O 2181.82 -1.85216 0.791005 0
M  V30 24042 C 2178.89 -3.0432 1.66102 0
M  V30 24043 C 2177.95 -3.17134 2.89352 0
M  V30 24044 C 2177.18 -4.47114 2.91419 0
M  V30 24045 O 2177.4 -5.33307 2.02337 0
M  V30 24046 O 2176.34 -4.63974 3.83421 0
M  V30 24047 H 2180.16 -1.57229 2.59832 0
M  V30 24048 H 2177.75 -0.716489 1.31098 0
M  V30 24049 H 2179.63 -3.85524 1.70145 0
M  V30 24050 H 2178.31 -3.15277 0.733623 0
M  V30 24051 H 2177.21 -2.35282 2.90849 0
M  V30 24052 H 2178.55 -3.11086 3.81426 0
M  V30 24053 N 2180.2 -1.36208 -0.792797 0
M  V30 24054 C 2181.43 -1.33396 -1.58155 0
M  V30 24055 C 2181.84 0.0855356 -1.88606 0
M  V30 24056 O 2181.2 1.04147 -1.49865 0
M  V30 24057 C 2181.25 -2.15213 -2.90458 0
M  V30 24058 O 2180.97 -3.51629 -2.61321 0
M  V30 24059 C 2182.47 -2.20144 -3.84775 0
M  V30 24060 H 2179.69 -0.457713 -0.490652 0
M  V30 24061 H 2182.23 -1.79258 -0.984222 0
M  V30 24062 H 2180.39 -1.72915 -3.46669 0
M  V30 24063 H 2180.8 -3.94282 -3.45893 0
M  V30 24064 H 2182.28 -2.81755 -4.74677 0
M  V30 24065 H 2182.75 -1.20396 -4.22376 0
M  V30 24066 H 2183.36 -2.62663 -3.34497 0
M  V30 24067 N 2181.68 1.01656 -1.20431 0
M  V30 24068 C 2182.62 2.10198 -0.953184 0
M  V30 24069 C 2183.59 1.6569 0.116613 0
M  V30 24070 O 2184.78 1.90779 -0.0281152 0
M  V30 24071 C 2181.92 3.4129 -0.511397 0
M  V30 24072 C 2181.03 3.99275 -1.64935 0
M  V30 24073 C 2180.17 5.18427 -1.15787 0
M  V30 24074 C 2179.2 5.68496 -2.2689 0
M  V30 24075 N 2178.34 6.78909 -1.7896 0
M  V30 24076 H 2183.18 2.31015 -1.88245 0
M  V30 24077 H 2180.72 1.13288 -0.938314 0
M  V30 24078 H 2182.68 4.16529 -0.236575 0
M  V30 24079 H 2181.31 3.20545 0.380867 0
M  V30 24080 H 2180.36 3.21132 -2.03909 0
M  V30 24081 H 2181.67 4.32437 -2.48595 0
M  V30 24082 H 2180.82 6.00871 -0.839013 0
M  V30 24083 H 2179.56 4.8683 -0.291159 0
M  V30 24084 H 2178.57 4.84657 -2.59592 0
M  V30 24085 H 2179.79 6.02127 -3.14037 0
M  V30 24086 H 2177.74 6.49141 -0.946156 0
M  V30 24087 H 2177.66 7.11265 -2.562 0
M  V30 24088 H 2178.92 7.64917 -1.50074 0
M  V30 24089 N 2183.15 1.01021 1.20965 0
M  V30 24090 C 2184.12 0.579903 2.21743 0
M  V30 24091 C 2185.12 -0.34653 1.57022 0
M  V30 24092 O 2186.31 -0.136099 1.73668 0
M  V30 24093 C 2183.44 -0.154061 3.40552 0
M  V30 24094 H 2184.63 1.47135 2.61326 0
M  V30 24095 H 2182.18 0.79929 1.34317 0
M  V30 24096 H 2182.92 -1.06071 3.06463 0
M  V30 24097 H 2182.7 0.511376 3.88751 0
M  V30 24098 H 2184.19 -0.44269 4.15247 0
M  V30 24099 N 2184.63 -1.36623 0.78561 0
M  V30 24100 C 2185.56 -2.3268 0.195557 0
M  V30 24101 C 2186.54 -1.56463 -0.667335 0
M  V30 24102 O 2187.73 -1.84636 -0.601943 0
M  V30 24103 C 2184.86 -3.40708 -0.673467 0
M  V30 24104 C 2183.81 -4.27907 0.0892255 0
M  V30 24105 C 2183.14 -5.27069 -0.900146 0
M  V30 24106 C 2184.44 -5.06468 1.27624 0
M  V30 24107 H 2186.13 -2.82276 0.998033 0
M  V30 24108 H 2183.68 -1.35716 0.481373 0
M  V30 24109 H 2185.63 -4.06893 -1.09617 0
M  V30 24110 H 2184.35 -2.8967 -1.50861 0
M  V30 24111 H 2183.01 -3.63272 0.492858 0
M  V30 24112 H 2182.66 -4.72306 -1.73022 0
M  V30 24113 H 2182.36 -5.86276 -0.394285 0
M  V30 24114 H 2183.89 -5.96128 -1.32149 0
M  V30 24115 H 2185.3 -5.65715 0.92949 0
M  V30 24116 H 2183.7 -5.75068 1.71513 0
M  V30 24117 H 2184.77 -4.38332 2.07349 0
M  V30 24118 N 2186.11 -0.537304 -1.48158 0
M  V30 24119 C 2187.33 -0.00809879 -2.07398 0
M  V30 24120 C 2187.76 1.26708 -1.39021 0
M  V30 24121 O 2187.12 1.75405 -0.458551 0
M  V30 24122 C 2187.17 0.191371 -3.60092 0
M  V30 24123 O 2186.27 1.25844 -3.9273 0
M  V30 24124 H 2185.61 -0.042404 -0.662645 0
M  V30 24125 H 2188.14 -0.747308 -1.90464 0
M  V30 24126 H 2188.15 0.411766 -4.05917 0
M  V30 24127 H 2186.83 -0.740103 -4.09262 0
M  V30 24128 H 2185.4 1.02012 -3.58675 0
M  V30 24129 N 2187.59 1.55221 -0.272782 0
M  V30 24130 C 2188.52 2.25408 0.609392 0
M  V30 24131 C 2189.5 1.2434 1.16076 0
M  V30 24132 O 2190.68 1.53054 1.19533 0
M  V30 24133 C 2187.81 2.97338 1.79464 0
M  V30 24134 C 2186.77 4.05315 1.37491 0
M  V30 24135 C 2186.09 4.64808 2.64307 0
M  V30 24136 C 2187.39 5.19636 0.526828 0
M  V30 24137 H 2189.09 2.9939 0.0240678 0
M  V30 24138 H 2186.63 1.43996 0.0101357 0
M  V30 24139 H 2188.59 3.45149 2.41765 0
M  V30 24140 H 2187.31 2.20887 2.40576 0
M  V30 24141 H 2185.97 3.58312 0.775106 0
M  V30 24142 H 2185.62 3.85027 3.23672 0
M  V30 24143 H 2185.32 5.37713 2.36935 0
M  V30 24144 H 2186.84 5.15366 3.2746 0
M  V30 24145 H 2188.26 5.63513 1.05478 0
M  V30 24146 H 2186.65 5.9909 0.348095 0
M  V30 24147 H 2187.72 4.82761 -0.454948 0
M  V30 24148 N 2189.07 2.77022e-05 1.576 0
M  V30 24149 C 2190.03 -0.976217 2.07371 0
M  V30 24150 C 2191.03 -1.27246 0.983113 0
M  V30 24151 O 2192.22 -1.21764 1.24576 0
M  V30 24152 C 2189.35 -2.30112 2.51518 0
M  V30 24153 H 2190.54 -0.545707 2.94893 0
M  V30 24154 H 2188.1 -0.247444 1.54329 0
M  V30 24155 H 2188.83 -2.77852 1.67239 0
M  V30 24156 H 2188.62 -2.09931 3.31167 0
M  V30 24157 H 2190.11 -3.00144 2.9035 0
M  V30 24158 N 2190.54 -1.55222 -0.272728 0
M  V30 24159 C 2191.96 -1.47068 -0.619933 0
M  V30 24160 C 2192.16 -0.685012 -1.89499 0
M  V30 24161 O 2191.22 -0.203975 -2.51675 0
M  V30 24162 C 2192.53 -2.91283 -0.746642 0
M  V30 24163 C 2194.08 -3.01499 -0.840678 0
M  V30 24164 C 2194.55 -4.46968 -0.999161 0
M  V30 24165 N 2196.04 -4.50798 -1.06468 0
M  V30 24166 C 2196.78 -5.60572 -1.20611 0
M  V30 24167 N 2196.27 -6.80211 -1.31471 0
M  V30 24168 N 2198.07 -5.48315 -1.23723 0
M  V30 24169 H 2190.22 -2.04757 0.564642 0
M  V30 24170 H 2192.48 -0.92852 0.191194 0
M  V30 24171 H 2192.19 -3.51496 0.119815 0
M  V30 24172 H 2192.06 -3.40314 -1.62684 0
M  V30 24173 H 2194.45 -2.41382 -1.6976 0
M  V30 24174 H 2194.53 -2.5572 0.0641323 0
M  V30 24175 H 2194.17 -5.07688 -0.146895 0
M  V30 24176 H 2194.1 -4.90404 -1.91862 0
M  V30 24177 H 2196.59 -3.64617 -0.993132 0
M  V30 24178 H 2196.91 -7.59624 -1.42098 0
M  V30 24179 H 2195.25 -6.83022 -1.28475 0
M  V30 24180 H 2198.44 -4.53787 -1.14869 0
M  V30 24181 H 2198.62 -6.33909 -1.34401 0
M  V30 24182 N 2192.02 0.537252 -1.4816 0
M  V30 24183 C 2192.99 1.62469 -1.61668 0
M  V30 24184 C 2193.99 1.53139 -0.490422 0
M  V30 24185 O 2195.18 1.56939 -0.756026 0
M  V30 24186 C 2192.31 3.02073 -1.58003 0
M  V30 24187 H 2193.5 1.51834 -2.58624 0
M  V30 24188 H 2191.05 0.758747 -1.36648 0
M  V30 24189 H 2191.79 3.18221 -0.624969 0
M  V30 24190 H 2191.57 3.10254 -2.3976 0
M  V30 24191 H 2193.06 3.81148 -1.70634 0
M  V30 24192 N 2193.5 1.36626 0.785562 0
M  V30 24193 C 2194.43 1.33953 1.91256 0
M  V30 24194 C 2195.41 0.210355 1.68794 0
M  V30 24195 O 2196.6 0.408594 1.89853 0
M  V30 24196 C 2193.73 1.13191 3.28337 0
M  V30 24197 C 2192.68 2.22974 3.65331 0
M  V30 24198 C 2192.01 1.87351 5.00803 0
M  V30 24199 C 2193.31 3.65082 3.73514 0
M  V30 24200 H 2195 2.28257 1.93751 0
M  V30 24201 H 2192.55 1.09876 0.930768 0
M  V30 24202 H 2194.5 1.09955 4.06802 0
M  V30 24203 H 2193.22 0.15339 3.2624 0
M  V30 24204 H 2191.88 2.25342 2.89165 0
M  V30 24205 H 2191.53 0.880632 4.95231 0
M  V30 24206 H 2191.23 2.60855 5.26525 0
M  V30 24207 H 2192.75 1.85677 5.81684 0
M  V30 24208 H 2194.17 3.64919 4.42162 0
M  V30 24209 H 2192.57 4.37523 4.10723 0
M  V30 24210 H 2193.64 3.99708 2.7452 0
M  V30 24211 N 2194.98 -1.01016 1.20969 0
M  V30 24212 C 2195.89 -2.13142 0.980194 0
M  V30 24213 C 2196.9 -1.73875 -0.0660359 0
M  V30 24214 O 2198.08 -2.01025 0.122857 0
M  V30 24215 C 2195.15 -3.42434 0.54222 0
M  V30 24216 C 2194.21 -3.95905 1.66006 0
M  V30 24217 C 2193.44 -5.19026 1.24289 0
M  V30 24218 O 2193.66 -5.70285 0.114296 0
M  V30 24219 O 2192.6 -5.65812 2.05281 0
M  V30 24220 H 2196.42 -2.35376 1.91917 0
M  V30 24221 H 2194.01 -1.11524 0.994118 0
M  V30 24222 H 2195.89 -4.20276 0.307514 0
M  V30 24223 H 2194.56 -3.216 -0.368093 0
M  V30 24224 H 2193.47 -3.19312 1.94912 0
M  V30 24225 H 2194.8 -4.21139 2.54761 0
M  V30 24226 N 2196.46 -1.01661 -1.20428 0
M  V30 24227 C 2197.37 -0.596524 -2.26889 0
M  V30 24228 C 2198.38 0.365961 -1.70108 0
M  V30 24229 O 2199.56 0.226907 -2.00118 0
M  V30 24230 C 2196.62 0.058605 -3.4665 0
M  V30 24231 C 2195.68 -0.949824 -4.18661 0
M  V30 24232 C 2194.92 -0.325864 -5.32704 0
M  V30 24233 O 2195.14 0.87441 -5.63658 0
M  V30 24234 O 2194.07 -1.0426 -5.92801 0
M  V30 24235 H 2197.9 -1.48285 -2.65038 0
M  V30 24236 H 2195.49 -0.786105 -1.27046 0
M  V30 24237 H 2197.37 0.42449 -4.19257 0
M  V30 24238 H 2196.04 0.919125 -3.10377 0
M  V30 24239 H 2194.95 -1.36708 -3.48227 0
M  V30 24240 H 2196.28 -1.78031 -4.58875 0
M  V30 24241 N 2197.93 1.36205 -0.792844 0
M  V30 24242 C 2198.9 2.2833 -0.199499 0
M  V30 24243 C 2199.9 1.48978 0.605163 0
M  V30 24244 O 2201.09 1.6892 0.425656 0
M  V30 24245 C 2198.22 3.33135 0.723465 0
M  V30 24246 H 2199.41 2.82314 -1.01186 0
M  V30 24247 H 2196.97 1.45827 -0.562511 0
M  V30 24248 H 2197.7 2.84312 1.56003 0
M  V30 24249 H 2197.49 3.91819 0.148367 0
M  V30 24250 H 2198.98 4.01926 1.13337 0
M  V30 24251 N 2199.41 0.545154 1.47871 0
M  V30 24252 C 2200.35 -0.256845 2.2675 0
M  V30 24253 C 2201.32 -0.931205 1.33294 0
M  V30 24254 O 2202.51 -0.952592 1.62659 0
M  V30 24255 C 2199.63 -1.36496 3.09978 0
M  V30 24256 C 2198.68 -0.800422 4.18922 0
M  V30 24257 S 2199.51 0.343599 5.34397 0
M  V30 24258 C 2200.67 -0.766624 6.21187 0
M  V30 24259 H 2200.9 0.412531 2.94424 0
M  V30 24260 H 2198.44 0.331231 1.50805 0
M  V30 24261 H 2200.39 -1.99964 3.58503 0
M  V30 24262 H 2199.05 -2.00612 2.41689 0
M  V30 24263 H 2198.25 -1.63218 4.76839 0
M  V30 24264 H 2197.85 -0.242152 3.73215 0
M  V30 24265 H 2200.14 -1.66166 6.56807 0
M  V30 24266 H 2201.08 -0.22508 7.07742 0
M  V30 24267 H 2201.49 -1.05386 5.54575 0
M  V30 24268 N 2200.89 -1.55074 0.28101 0
M  V30 24269 C 2201.8 -2.26427 -0.61384 0
M  V30 24270 C 2202.82 -1.29226 -1.16519 0
M  V30 24271 O 2203.99 -1.62173 -1.19423 0
M  V30 24272 C 2201.06 -2.97593 -1.77875 0
M  V30 24273 C 2200.12 -4.10286 -1.26348 0
M  V30 24274 C 2199.35 -4.78049 -2.37287 0
M  V30 24275 O 2199.57 -4.45053 -3.56769 0
M  V30 24276 O 2198.51 -5.65874 -2.05109 0
M  V30 24277 H 2202.33 -3.03679 -0.0356398 0
M  V30 24278 H 2199.92 -1.49322 0.0481948 0
M  V30 24279 H 2201.8 -3.42297 -2.45785 0
M  V30 24280 H 2200.48 -2.23253 -2.34393 0
M  V30 24281 H 2199.38 -3.70025 -0.55067 0
M  V30 24282 H 2200.72 -4.86545 -0.743979 0
M  V30 24283 N 2202.37 -0.00838561 -1.57598 0
M  V30 24284 C 2203.3 1.00865 -2.05813 0
M  V30 24285 C 2204.31 1.3018 -0.977602 0
M  V30 24286 O 2205.5 1.27009 -1.25423 0
M  V30 24287 C 2202.6 2.34133 -2.45021 0
M  V30 24288 C 2201.78 2.23636 -3.75907 0
M  V30 24289 C 2200.84 3.39663 -4.0189 0
M  V30 24290 O 2199.86 3.17474 -4.72439 0
M  V30 24291 N 2201.06 4.62787 -3.5044 0
M  V30 24292 H 2203.83 0.597407 -2.93685 0
M  V30 24293 H 2201.39 0.178824 -1.60909 0
M  V30 24294 H 2203.38 3.10542 -2.59511 0
M  V30 24295 H 2201.95 2.66969 -1.62623 0
M  V30 24296 H 2201.17 1.32084 -3.71413 0
M  V30 24297 H 2202.46 2.13804 -4.61698 0
M  V30 24298 H 2201.86 4.83711 -2.93326 0
M  V30 24299 H 2200.41 5.36434 -3.70246 0
M  V30 24300 N 2203.85 1.55365 0.264492 0
M  V30 24301 C 2204.79 1.88827 1.32714 0
M  V30 24302 C 2205.76 0.740631 1.48674 0
M  V30 24303 O 2206.95 0.992686 1.62943 0
M  V30 24304 C 2204.09 2.17311 2.68086 0
M  V30 24305 C 2203.2 3.44789 2.60278 0
M  V30 24306 C 2202.34 3.6293 3.87885 0
M  V30 24307 C 2201.38 4.84071 3.74623 0
M  V30 24308 N 2200.51 4.98825 4.94083 0
M  V30 24309 H 2205.35 2.79458 1.03477 0
M  V30 24310 H 2202.89 1.38351 0.499733 0
M  V30 24311 H 2204.85 2.31827 3.4686 0
M  V30 24312 H 2203.48 1.29906 2.95507 0
M  V30 24313 H 2202.53 3.387 1.73167 0
M  V30 24314 H 2203.84 4.33703 2.46381 0
M  V30 24315 H 2203 3.7731 4.75102 0
M  V30 24316 H 2201.74 2.72217 4.04659 0
M  V30 24317 H 2200.74 4.69686 2.85789 0
M  V30 24318 H 2201.97 5.76227 3.5936 0
M  V30 24319 H 2199.91 4.11045 5.11252 0
M  V30 24320 H 2199.83 5.81798 4.8275 0
M  V30 24321 H 2201.1 5.17598 5.82848 0
M  V30 24322 N 2205.33 -0.529387 1.48443 0
M  V30 24323 C 2206.29 -1.61609 1.62527 0
M  V30 24324 C 2207.29 -1.52877 0.498536 0
M  V30 24325 O 2208.48 -1.56536 0.764338 0
M  V30 24326 C 2205.61 -3.01231 1.59603 0
M  V30 24327 H 2206.8 -1.50461 2.59425 0
M  V30 24328 H 2204.36 -0.75149 1.37049 0
M  V30 24329 H 2205.09 -3.17885 0.641837 0
M  V30 24330 H 2204.88 -3.08978 2.41402 0
M  V30 24331 H 2206.37 -3.80238 1.72653 0
M  V30 24332 N 2206.8 -1.37041 -0.778305 0
M  V30 24333 C 2207.71 -1.3445 -1.92251 0
M  V30 24334 C 2208.73 -0.245021 -1.72266 0
M  V30 24335 O 2209.91 -0.479293 -1.95614 0
M  V30 24336 C 2206.97 -1.14405 -3.2728 0
M  V30 24337 C 2206.03 -2.33931 -3.59965 0
M  V30 24338 C 2205.26 -2.14834 -4.88551 0
M  V30 24339 O 2205.49 -1.12922 -5.59111 0
M  V30 24340 O 2204.42 -3.0287 -5.20147 0
M  V30 24341 H 2208.25 -2.30807 -1.97388 0
M  V30 24342 H 2205.83 -1.17703 -0.920134 0
M  V30 24343 H 2207.71 -1.05189 -4.0806 0
M  V30 24344 H 2206.39 -0.211181 -3.2301 0
M  V30 24345 H 2205.3 -2.48718 -2.79446 0
M  V30 24346 H 2206.63 -3.25763 -3.6897 0
M  V30 24347 N 2208.28 1.00373 -1.21503 0
M  V30 24348 C 2209.21 2.11026 -0.999515 0
M  V30 24349 C 2210.19 1.6993 0.0759372 0
M  V30 24350 O 2211.38 1.94018 -0.0841447 0
M  V30 24351 C 2208.51 3.42677 -0.564769 0
M  V30 24352 C 2207.46 3.97573 -1.58493 0
M  V30 24353 C 2206.79 5.25144 -1.00638 0
M  V30 24354 C 2208.09 4.29491 -2.97212 0
M  V30 24355 H 2209.78 2.29313 -1.92499 0
M  V30 24356 H 2207.33 1.10198 -0.926949 0
M  V30 24357 H 2209.28 4.19486 -0.401165 0
M  V30 24358 H 2208 3.24186 0.396354 0
M  V30 24359 H 2206.66 3.22885 -1.73612 0
M  V30 24360 H 2206.31 5.02986 -0.0369323 0
M  V30 24361 H 2206.01 5.62838 -1.68781 0
M  V30 24362 H 2207.54 6.04597 -0.854121 0
M  V30 24363 H 2208.95 4.97138 -2.85529 0
M  V30 24364 H 2207.35 4.78331 -3.6238 0
M  V30 24365 H 2208.42 3.37714 -3.47962 0
M  V30 24366 N 2209.76 1.02298 1.19887 0
M  V30 24367 C 2210.67 0.608548 2.2657 0
M  V30 24368 C 2211.69 -0.356934 1.703 0
M  V30 24369 O 2212.86 -0.216291 2.00235 0
M  V30 24370 C 2209.93 -0.0402204 3.46677 0
M  V30 24371 C 2208.99 0.972013 4.18151 0
M  V30 24372 C 2208.22 0.35411 5.32524 0
M  V30 24373 O 2208.44 -0.844505 5.64114 0
M  V30 24374 O 2207.38 1.07402 5.9224 0
M  V30 24375 H 2211.2 1.49688 2.64248 0
M  V30 24376 H 2208.79 0.792831 1.26628 0
M  V30 24377 H 2210.67 -0.40225 4.19476 0
M  V30 24378 H 2209.35 -0.902652 3.1086 0
M  V30 24379 H 2208.25 1.38552 3.47497 0
M  V30 24380 H 2209.59 1.80462 4.57924 0
M  V30 24381 N 2211.24 -1.35782 0.800057 0
M  V30 24382 C 2212.65 -1.52116 0.483004 0
M  V30 24383 C 2212.85 -1.75111 -0.996917 0
M  V30 24384 O 2211.91 -1.78875 -1.78213 0
M  V30 24385 C 2213.22 -2.70047 1.32269 0
M  V30 24386 C 2214.77 -2.83922 1.31747 0
M  V30 24387 C 2215.25 -4.0487 2.14113 0
M  V30 24388 N 2216.74 -4.12036 2.11615 0
M  V30 24389 C 2217.47 -5.04722 2.72108 0
M  V30 24390 N 2216.97 -6.02783 3.41503 0
M  V30 24391 N 2218.76 -4.97419 2.61785 0
M  V30 24392 H 2210.91 -1.19112 1.75858 0
M  V30 24393 H 2213.17 -0.582239 0.748132 0
M  V30 24394 H 2212.88 -2.59611 2.37265 0
M  V30 24395 H 2212.75 -3.64478 0.971367 0
M  V30 24396 H 2215.14 -2.93812 0.275385 0
M  V30 24397 H 2215.22 -1.90367 1.70862 0
M  V30 24398 H 2214.87 -3.95741 3.18358 0
M  V30 24399 H 2214.8 -4.97593 1.72361 0
M  V30 24400 H 2217.29 -3.41832 1.61118 0
M  V30 24401 H 2217.6 -6.70091 3.84964 0
M  V30 24402 H 2215.95 -6.02977 3.45606 0
M  V30 24403 H 2219.14 -4.19763 2.07164 0
M  V30 24404 H 2219.31 -5.69462 3.0922 0
M  V30 24405 N 2212.72 -0.552988 -1.4758 0
M  V30 24406 C 2213.65 0.18541 -2.32763 0
M  V30 24407 C 2214.63 0.91288 -1.43529 0
M  V30 24408 O 2215.81 0.894171 -1.7239 0
M  V30 24409 C 2212.94 1.21853 -3.25222 0
M  V30 24410 C 2211.9 0.607789 -4.23663 0
M  V30 24411 C 2211.22 1.74524 -5.05416 0
M  V30 24412 C 2212.52 -0.435674 -5.2048 0
M  V30 24413 H 2214.22 -0.525735 -2.94748 0
M  V30 24414 H 2211.76 -0.254276 -1.41737 0
M  V30 24415 H 2213.71 1.74323 -3.83653 0
M  V30 24416 H 2212.44 1.95957 -2.61282 0
M  V30 24417 H 2211.1 0.104425 -3.66451 0
M  V30 24418 H 2210.75 2.47521 -4.37884 0
M  V30 24419 H 2210.45 1.34239 -5.72061 0
M  V30 24420 H 2211.97 2.27328 -5.66705 0
M  V30 24421 H 2213.38 0.0028008 -5.733 0
M  V30 24422 H 2211.78 -0.757172 -5.95304 0
M  V30 24423 H 2212.85 -1.33311 -4.66215 0
M  V30 24424 N 2214.19 1.54923 -0.28923 0
M  V30 24425 C 2215.14 2.24515 0.607926 0
M  V30 24426 C 2216.14 1.24704 1.14653 0
M  V30 24427 O 2217.34 1.42591 1.09853 0
M  V30 24428 H 2213.72 0.720721 0.214627 0
M  V30 24429 H 2215.69 2.984 -0.00169428 0
M  V30 24430 C 2214.44 2.99039 1.77401 0
M  V30 24431 H 2213.76 3.75639 1.36877 0
M  V30 24432 H 2215.2 3.51032 2.37807 0
M  V30 24433 C 2213.66 2.05323 2.67103 0
M  V30 24434 O 2214.19 1.6136 3.67867 0
M  V30 24435 N 2212.39 1.71526 2.34579 0
M  V30 24436 H 2211.94 2.07473 1.52685 0
M  V30 24437 H 2211.9 1.09095 2.94865 0
M  V30 24438 N 2215.67 0.0167433 1.57591 0
M  V30 24439 C 2216.62 -0.969215 2.09463 0
M  V30 24440 C 2217.59 -1.33087 0.993833 0
M  V30 24441 O 2218.77 -1.42634 1.26729 0
M  V30 24442 C 2215.91 -2.25046 2.61626 0
M  V30 24443 C 2215.03 -1.94636 3.8567 0
M  V30 24444 C 2214.16 -3.16964 4.26271 0
M  V30 24445 C 2213.2 -2.82316 5.43106 0
M  V30 24446 N 2212.34 -3.97232 5.78922 0
M  V30 24447 H 2217.18 -0.519945 2.93429 0
M  V30 24448 H 2214.71 -0.245062 1.45044 0
M  V30 24449 H 2216.67 -2.99971 2.89954 0
M  V30 24450 H 2215.3 -2.67612 1.8051 0
M  V30 24451 H 2214.35 -1.10006 3.64147 0
M  V30 24452 H 2215.67 -1.65109 4.70681 0
M  V30 24453 H 2214.82 -4.0022 4.5597 0
M  V30 24454 H 2213.56 -3.49642 3.40002 0
M  V30 24455 H 2212.56 -1.9747 5.13114 0
M  V30 24456 H 2213.79 -2.50868 6.31064 0
M  V30 24457 H 2211.74 -4.29776 4.95609 0
M  V30 24458 H 2211.65 -3.71287 6.58545 0
M  V30 24459 H 2212.92 -4.81228 6.13221 0
M  V30 24460 N 2217.15 -1.55503 -0.256249 0
M  V30 24461 C 2218.08 -1.85964 -1.33978 0
M  V30 24462 C 2219.1 -0.745237 -1.44741 0
M  V30 24463 O 2220.28 -1.02327 -1.46258 0
M  V30 24464 C 2217.38 -2.02247 -2.71936 0
M  V30 24465 C 2216.56 -3.33038 -2.83556 0
M  V30 24466 C 2215.62 -3.39179 -4.02298 0
M  V30 24467 O 2214.64 -4.12451 -3.92266 0
M  V30 24468 N 2215.84 -2.67793 -5.15041 0
M  V30 24469 H 2218.61 -2.79492 -1.08186 0
M  V30 24470 H 2216.17 -1.55625 -0.446361 0
M  V30 24471 H 2218.16 -2.03708 -3.49693 0
M  V30 24472 H 2216.73 -1.15507 -2.90477 0
M  V30 24473 H 2215.95 -3.43974 -1.92549 0
M  V30 24474 H 2217.24 -4.19263 -2.88263 0
M  V30 24475 H 2216.64 -2.07977 -5.26082 0
M  V30 24476 H 2215.2 -2.74957 -5.90967 0
M  V30 24477 N 2218.63 0.521507 -1.48721 0
M  V30 24478 C 2219.88 1.27687 -1.5717 0
M  V30 24479 C 2220.2 1.92896 -0.249309 0
M  V30 24480 O 2219.46 1.80292 0.761131 0
M  V30 24481 C 2219.76 2.38143 -2.66501 0
M  V30 24482 C 2219.42 1.9053 -4.08667 0
M  V30 24483 C 2218.09 1.77263 -4.4736 0
M  V30 24484 C 2220.44 1.54654 -4.97726 0
M  V30 24485 C 2217.77 1.26468 -5.72907 0
M  V30 24486 C 2220.12 1.05318 -6.23771 0
M  V30 24487 C 2218.78 0.906745 -6.61313 0
M  V30 24488 H 2218.05 0.467238 -0.575125 0
M  V30 24489 H 2220.7 0.581019 -1.82473 0
M  V30 24490 H 2219 3.13432 -2.3509 0
M  V30 24491 H 2220.7 2.96252 -2.70251 0
M  V30 24492 H 2217.29 2.0181 -3.78115 0
M  V30 24493 H 2221.47 1.6376 -4.68504 0
M  V30 24494 H 2216.73 1.13825 -6.00711 0
M  V30 24495 H 2220.9 0.766318 -6.92171 0
M  V30 24496 H 2218.53 0.51095 -7.58481 0
M  V30 24497 N 2220.11 1.37452 0.771027 0
M  V30 24498 C 2221.52 1.18267 1.07169 0
M  V30 24499 C 2221.72 0.0193224 2.01491 0
M  V30 24500 O 2220.78 -0.640366 2.44245 0
M  V30 24501 C 2222.09 2.50163 1.66849 0
M  V30 24502 C 2223.64 2.56692 1.79104 0
M  V30 24503 C 2224.11 3.88721 2.42198 0
M  V30 24504 N 2225.61 3.90167 2.49648 0
M  V30 24505 C 2226.34 4.89075 2.99321 0
M  V30 24506 N 2225.84 5.9838 3.49161 0
M  V30 24507 N 2227.63 4.76479 2.98202 0
M  V30 24508 H 2219.78 2.11906 0.144759 0
M  V30 24509 H 2222.04 0.939475 0.126847 0
M  V30 24510 H 2221.75 3.35657 1.05011 0
M  V30 24511 H 2221.62 2.67304 2.66136 0
M  V30 24512 H 2224.01 1.71605 2.40074 0
M  V30 24513 H 2224.09 2.43434 0.785714 0
M  V30 24514 H 2223.74 4.74222 1.81867 0
M  V30 24515 H 2223.67 3.99282 3.43338 0
M  V30 24516 H 2226.16 3.11208 2.14378 0
M  V30 24517 H 2226.47 6.69802 3.85468 0
M  V30 24518 H 2224.81 6.02024 3.47264 0
M  V30 24519 H 2228.01 3.90207 2.58565 0
M  V30 24520 H 2228.18 5.53717 3.36603 0
M  V30 24521 N 2221.58 -0.997276 1.22033 0
M  V30 24522 C 2222.81 -1.77178 1.06844 0
M  V30 24523 C 2223.23 -1.8491 -0.381292 0
M  V30 24524 O 2222.58 -1.31607 -1.26435 0
M  V30 24525 C 2222.64 -3.20708 1.6682 0
M  V30 24526 O 2222.36 -3.13403 3.06121 0
M  V30 24527 C 2223.86 -4.14625 1.56846 0
M  V30 24528 H 2221.08 -0.556572 0.374792 0
M  V30 24529 H 2223.62 -1.25407 1.61535 0
M  V30 24530 H 2221.78 -3.69561 1.16203 0
M  V30 24531 H 2222.19 -4.03634 3.34933 0
M  V30 24532 H 2223.66 -5.13103 2.03541 0
M  V30 24533 H 2224.14 -4.3606 0.524231 0
M  V30 24534 H 2224.75 -3.71666 2.06747 0
M  V30 24535 N 2223.06 -1.02932 -1.19343 0
M  V30 24536 C 2223.97 -0.620555 -2.26244 0
M  V30 24537 C 2224.99 0.347898 -1.70487 0
M  V30 24538 O 2226.16 0.205669 -2.00347 0
M  V30 24539 C 2223.23 0.0218348 -3.46693 0
M  V30 24540 C 2222.29 -0.994175 -4.1763 0
M  V30 24541 C 2221.52 -0.382346 -5.32329 0
M  V30 24542 O 2221.75 0.814577 -5.64554 0
M  V30 24543 O 2220.68 -1.10541 -5.91662 0
M  V30 24544 H 2224.51 -1.51087 -2.63451 0
M  V30 24545 H 2222.09 -0.799535 -1.26205 0
M  V30 24546 H 2223.97 0.379999 -4.19683 0
M  V30 24547 H 2222.65 0.886154 -3.11334 0
M  V30 24548 H 2221.56 -1.40393 -3.46757 0
M  V30 24549 H 2222.89 -1.82888 -4.5696 0
M  V30 24550 N 2224.54 1.35356 -0.807246 0
M  V30 24551 C 2225.47 2.27613 -0.163612 0
M  V30 24552 C 2226.45 1.48119 0.670791 0
M  V30 24553 O 2227.64 1.77377 0.637929 0
M  V30 24554 C 2224.76 3.29762 0.772957 0
M  V30 24555 C 2223.81 4.26496 0.0180904 0
M  V30 24556 S 2224.64 5.19017 -1.31841 0
M  V30 24557 C 2225.8 6.24707 -0.3863 0
M  V30 24558 H 2226.03 2.81854 -0.945806 0
M  V30 24559 H 2223.56 1.42166 -0.60234 0
M  V30 24560 H 2225.52 3.8911 1.30781 0
M  V30 24561 H 2224.18 2.74398 1.52854 0
M  V30 24562 H 2223.38 4.98693 0.729447 0
M  V30 24563 H 2222.98 3.71321 -0.446827 0
M  V30 24564 H 2225.27 6.76146 0.428176 0
M  V30 24565 H 2226.21 6.99854 -1.07748 0
M  V30 24566 H 2226.62 5.64497 0.0182988 0
M  V30 24567 N 2226.02 0.560807 1.47284 0
M  V30 24568 C 2226.93 -0.187913 2.33846 0
M  V30 24569 C 2227.94 -0.908267 1.48413 0
M  V30 24570 O 2229.12 -0.876357 1.81334 0
M  V30 24571 C 2226.19 -1.20245 3.2518 0
M  V30 24572 C 2225.25 -0.489133 4.26504 0
M  V30 24573 C 2224.48 -1.45533 5.13474 0
M  V30 24574 O 2224.7 -2.69041 5.02964 0
M  V30 24575 O 2223.64 -0.977859 5.93904 0
M  V30 24576 H 2227.46 0.52223 2.99176 0
M  V30 24577 H 2225.05 0.321389 1.45902 0
M  V30 24578 H 2226.93 -1.78799 3.81587 0
M  V30 24579 H 2225.6 -1.89445 2.62474 0
M  V30 24580 H 2224.51 0.137693 3.73847 0
M  V30 24581 H 2225.84 0.161485 4.91935 0
M  V30 24582 N 2227.5 -1.54768 0.297442 0
M  V30 24583 C 2228.77 -1.92149 -0.365813 0
M  V30 24584 C 2229.15 -1.22427 -1.71973 0
M  V30 24585 O 2228.5 -0.358779 -2.25666 0
M  V30 24586 C 2228.71 -3.45628 -0.483995 0
M  V30 24587 C 2230.06 -4.17806 -0.756521 0
M  V30 24588 O 2231.08 -3.51643 -0.567945 0
M  V30 24589 O 2229.94 -5.34931 -1.11853 0
M  V30 24590 H 2227.04 -0.801468 -0.203905 0
M  V30 24591 H 2229.58 -1.66151 0.345239 0
M  V30 24592 H 2228.35 -3.88492 0.467933 0
M  V30 24593 H 2227.98 -3.77649 -1.24365 0
M  V30 24594 N 2228.97 -0.0251005 -1.5758 0
M  V30 24595 C 2229.9 0.956538 -2.13008 0
M  V30 24596 C 2230.89 1.34198 -1.04523 0
M  V30 24597 O 2232.07 1.42131 -1.32335 0
M  V30 24598 C 2229.2 2.24022 -2.6539 0
M  V30 24599 C 2228.15 1.99565 -3.78626 0
M  V30 24600 C 2227.48 3.34163 -4.1742 0
M  V30 24601 C 2228.78 1.33805 -5.0487 0
M  V30 24602 H 2230.47 0.494939 -2.95281 0
M  V30 24603 H 2228.02 0.236627 -1.42043 0
M  V30 24604 H 2229.97 2.93071 -3.02799 0
M  V30 24605 H 2228.7 2.7234 -1.80273 0
M  V30 24606 H 2227.36 1.32935 -3.41649 0
M  V30 24607 H 2227 3.80232 -3.29291 0
M  V30 24608 H 2226.7 3.18606 -4.93724 0
M  V30 24609 H 2228.23 4.04486 -4.57409 0
M  V30 24610 H 2229.64 1.92848 -5.39891 0
M  V30 24611 H 2228.04 1.28659 -5.86146 0
M  V30 24612 H 2229.11 0.310476 -4.83905 0
M  V30 24613 N 2230.45 1.55637 0.247999 0
M  V30 24614 C 2231.39 1.85193 1.33337 0
M  V30 24615 C 2232.36 0.706932 1.46428 0
M  V30 24616 O 2233.55 0.952573 1.6266 0
M  V30 24617 C 2230.67 2.03566 2.707 0
M  V30 24618 C 2229.72 3.26201 2.74764 0
M  V30 24619 S 2230.55 4.82882 2.31484 0
M  V30 24620 C 2231.71 5.04259 3.70774 0
M  V30 24621 H 2231.94 2.76964 1.08067 0
M  V30 24622 H 2229.48 1.4773 0.448926 0
M  V30 24623 H 2231.43 2.14836 3.49794 0
M  V30 24624 H 2230.09 1.1264 2.93208 0
M  V30 24625 H 2229.29 3.3602 3.75642 0
M  V30 24626 H 2228.89 3.13651 2.03713 0
M  V30 24627 H 2231.18 4.91535 4.66261 0
M  V30 24628 H 2232.12 6.06243 3.6589 0
M  V30 24629 H 2232.53 4.32111 3.63236 0
M  V30 24630 N 2231.93 -0.513613 1.48996 0
M  V30 24631 C 2233.16 -1.29759 1.61794 0
M  V30 24632 C 2233.58 -1.85936 0.284508 0
M  V30 24633 O 2232.94 -1.65234 -0.746156 0
M  V30 24634 C 2232.99 -2.41268 2.67997 0
M  V30 24635 O 2232.09 -3.44768 2.26294 0
M  V30 24636 H 2231.43 -0.383621 0.54197 0
M  V30 24637 H 2233.96 -0.616273 1.95098 0
M  V30 24638 H 2233.97 -2.87216 2.89777 0
M  V30 24639 H 2232.65 -1.99743 3.64795 0
M  V30 24640 H 2231.22 -3.04825 2.14793 0
M  V30 24641 N 2233.41 -1.37859 -0.763727 0
M  V30 24642 C 2234.63 -1.36896 -1.55802 0
M  V30 24643 C 2235.06 0.0415805 -1.88054 0
M  V30 24644 O 2234.42 1.02086 -1.49827 0
M  V30 24645 C 2234.47 -2.22197 -2.84008 0
M  V30 24646 O 2233.57 -1.6321 -3.7873 0
M  V30 24647 H 2232.91 -0.467399 -0.47163 0
M  V30 24648 H 2235.44 -1.81488 -0.944625 0
M  V30 24649 H 2235.45 -2.35696 -3.33033 0
M  V30 24650 H 2234.13 -3.24721 -2.59864 0
M  V30 24651 H 2232.7 -1.58797 -3.37399 0
M  V30 24652 N 2234.89 0.990791 -1.22561 0
M  V30 24653 C 2235.83 2.08129 -0.997555 0
M  V30 24654 C 2236.8 1.659 0.081441 0
M  V30 24655 O 2237.99 1.90677 -0.0685759 0
M  V30 24656 C 2235.13 3.40128 -0.583675 0
M  V30 24657 C 2234.24 3.95687 -1.73367 0
M  V30 24658 C 2233.38 5.15855 -1.26757 0
M  V30 24659 C 2232.42 5.63555 -2.38898 0
M  V30 24660 N 2231.55 6.74961 -1.9332 0
M  V30 24661 H 2236.39 2.2697 -1.93103 0
M  V30 24662 H 2233.93 1.11272 -0.962133 0
M  V30 24663 H 2235.89 4.15933 -0.324874 0
M  V30 24664 H 2234.52 3.21281 0.312789 0
M  V30 24665 H 2233.57 3.16734 -2.10674 0
M  V30 24666 H 2234.88 4.27067 -2.57712 0
M  V30 24667 H 2234.04 5.98956 -0.966278 0
M  V30 24668 H 2232.78 4.86103 -0.394357 0
M  V30 24669 H 2231.78 4.79041 -2.69814 0
M  V30 24670 H 2233.01 5.95331 -3.26739 0
M  V30 24671 H 2230.95 6.46988 -1.08364 0
M  V30 24672 H 2230.87 7.0567 -2.7123 0
M  V30 24673 H 2232.14 7.61562 -1.66265 0
M  V30 24674 N 2236.37 1.03564 1.18795 0
M  V30 24675 C 2237.64 0.650466 1.84468 0
M  V30 24676 C 2238.02 -0.870399 1.92321 0
M  V30 24677 O 2237.37 -1.76983 1.44531 0
M  V30 24678 C 2237.58 1.32042 3.23057 0
M  V30 24679 C 2238.93 1.44799 3.99147 0
M  V30 24680 O 2239.95 1.27812 3.32479 0
M  V30 24681 O 2238.81 1.72432 5.18584 0
M  V30 24682 H 2235.91 0.22696 0.795247 0
M  V30 24683 H 2238.45 1.13421 1.26229 0
M  V30 24684 H 2237.22 2.35876 3.12215 0
M  V30 24685 H 2236.85 0.824968 3.88947 0
M  V30 24686 N 2237.84 -1.34926 0.814413 0
M  V30 24687 C 2239.12 -1.92941 0.321397 0
M  V30 24688 C 2239.5 -1.74355 -1.19011 0
M  V30 24689 O 2238.85 -1.1172 -1.99326 0
M  V30 24690 C 2239.06 -3.41034 0.741383 0
M  V30 24691 C 2240.41 -4.18184 0.73534 0
M  V30 24692 O 2241.43 -3.49582 0.683422 0
M  V30 24693 O 2240.29 -5.40601 0.800798 0
M  V30 24694 H 2237.38 -0.822526 0.0859038 0
M  V30 24695 H 2239.93 -1.43954 0.898634 0
M  V30 24696 H 2238.7 -3.48326 1.78282 0
M  V30 24697 H 2238.32 -3.97356 0.139377 0
M  V30 24698 N 2239.32 -0.56861 -1.46985 0
M  V30 24699 C 2240.57 -0.0489066 -2.02741 0
M  V30 24700 C 2240.9 1.30211 -1.44079 0
M  V30 24701 O 2240.18 1.84995 -0.600585 0
M  V30 24702 C 2240.46 0.0319837 -3.60086 0
M  V30 24703 C 2240.31 -1.34693 -4.29159 0
M  V30 24704 C 2241.63 0.739722 -4.33839 0
M  V30 24705 H 2238.75 -0.0192468 -0.736749 0
M  V30 24706 H 2241.39 -0.733096 -1.75287 0
M  V30 24707 H 2239.54 0.614663 -3.83607 0
M  V30 24708 H 2241.21 -1.97369 -4.16945 0
M  V30 24709 H 2239.46 -1.91853 -3.89069 0
M  V30 24710 H 2240.13 -1.24294 -5.37824 0
M  V30 24711 H 2242.6 0.244866 -4.15379 0
M  V30 24712 H 2241.48 0.765311 -5.43539 0
M  V30 24713 H 2241.74 1.79819 -4.03878 0
M  V30 24714 N 2240.8 1.54608 -0.305646 0
M  V30 24715 C 2242.05 1.99836 0.301666 0
M  V30 24716 C 2242.37 1.19553 1.54052 0
M  V30 24717 O 2241.64 0.292692 1.93701 0
M  V30 24718 H 2240.22 0.73818 0.114455 0
M  V30 24719 H 2242.88 1.90364 -0.41805 0
M  V30 24720 H 2241.98 3.06842 0.570494 0
M  V30 24721 N 2242.28 0.033457 1.57564 0
M  V30 24722 C 2243.22 -0.946944 2.10479 0
M  V30 24723 C 2244.19 -1.32025 1.00789 0
M  V30 24724 O 2245.38 -1.41282 1.28235 0
M  V30 24725 C 2242.52 -2.22259 2.63998 0
M  V30 24726 C 2241.63 -1.90534 3.87712 0
M  V30 24727 C 2240.77 -3.12425 4.29609 0
M  V30 24728 C 2239.81 -2.7654 5.4607 0
M  V30 24729 N 2238.94 -3.9107 5.83103 0
M  V30 24730 H 2243.78 -0.488794 2.93964 0
M  V30 24731 H 2241.32 -0.229664 1.45296 0
M  V30 24732 H 2243.28 -2.96878 2.93119 0
M  V30 24733 H 2241.91 -2.65682 1.83338 0
M  V30 24734 H 2240.96 -1.06138 3.65293 0
M  V30 24735 H 2242.27 -1.60107 4.72406 0
M  V30 24736 H 2241.43 -3.95361 4.60189 0
M  V30 24737 H 2240.17 -3.46017 3.43691 0
M  V30 24738 H 2239.17 -1.92017 5.15179 0
M  V30 24739 H 2240.4 -2.4416 6.3369 0
M  V30 24740 H 2238.34 -4.24495 5.0014 0
M  V30 24741 H 2238.26 -3.64282 6.62446 0
M  V30 24742 H 2239.53 -4.74697 6.1829 0
M  V30 24743 N 2243.76 -1.55766 -0.239741 0
M  V30 24744 C 2244.98 -1.82336 -0.988341 0
M  V30 24745 C 2245.41 -0.611452 -1.77884 0
M  V30 24746 O 2244.76 0.439608 -1.7589 0
M  V30 24747 C 2244.81 -3.06718 -1.89621 0
M  V30 24748 O 2243.92 -2.84136 -2.98899 0
M  V30 24749 H 2243.26 -0.601681 -0.280848 0
M  V30 24750 H 2245.79 -2.0296 -0.258562 0
M  V30 24751 H 2245.8 -3.36342 -2.30951 0
M  V30 24752 H 2244.47 -3.94562 -1.31504 0
M  V30 24753 H 2243.05 -2.65699 -2.61646 0
M  V30 24754 N 2245.23 0.505704 -1.49266 0
M  V30 24755 C 2246.48 1.26199 -1.5875 0
M  V30 24756 C 2246.81 1.92296 -0.271261 0
M  V30 24757 O 2246.09 1.80491 0.724799 0
M  V30 24758 C 2246.37 2.33263 -2.74336 0
M  V30 24759 C 2246.22 1.71698 -4.1574 0
M  V30 24760 C 2247.54 3.3486 -2.85581 0
M  V30 24761 H 2244.66 0.457468 -0.577834 0
M  V30 24762 H 2247.3 0.560865 -1.81533 0
M  V30 24763 H 2245.45 2.93063 -2.55042 0
M  V30 24764 H 2247.13 1.15761 -4.46539 0
M  V30 24765 H 2245.37 1.02128 -4.21607 0
M  V30 24766 H 2246.04 2.49332 -4.92481 0
M  V30 24767 H 2248.52 2.85045 -3.03132 0
M  V30 24768 H 2247.39 4.0714 -3.68142 0
M  V30 24769 H 2247.65 3.969 -1.94739 0
M  V30 24770 N 2246.71 1.38262 0.756405 0
M  V30 24771 C 2247.66 1.31769 1.86067 0
M  V30 24772 C 2248.65 0.202511 1.5962 0
M  V30 24773 O 2249.84 0.438241 1.71489 0
M  V30 24774 C 2246.97 1.14226 3.2374 0
M  V30 24775 C 2246.05 2.30354 3.56087 0
M  V30 24776 N 2246.44 3.55789 3.5951 0
M  V30 24777 C 2244.74 2.22844 3.86337 0
M  V30 24778 C 2245.44 4.32458 3.89044 0
M  V30 24779 N 2244.42 3.61779 4.0573 0
M  V30 24780 H 2248.22 2.26744 1.86988 0
M  V30 24781 H 2245.74 1.31453 0.953619 0
M  V30 24782 H 2247.73 1.07659 4.0276 0
M  V30 24783 H 2246.39 0.20182 3.24072 0
M  V30 24784 H 2247.4 3.89497 3.4134 0
M  V30 24785 H 2244.08 1.36944 3.94402 0
M  V30 24786 H 2245.47 5.41087 3.9834 0
M  V30 24787 N 2248.19 -0.984277 1.23084 0
M  V30 24788 C 2249.1 -2.11015 1.02518 0
M  V30 24789 C 2250.12 -1.73976 -0.0291397 0
M  V30 24790 O 2251.29 -2.00719 0.165469 0
M  V30 24791 C 2248.36 -3.41207 0.614733 0
M  V30 24792 C 2247.42 -3.92294 1.74366 0
M  V30 24793 C 2246.65 -5.16273 1.3527 0
M  V30 24794 O 2246.87 -5.69915 0.235236 0
M  V30 24795 O 2245.81 -5.6133 2.17237 0
M  V30 24796 H 2249.63 -2.31252 1.96866 0
M  V30 24797 H 2247.22 -1.0939 1.01755 0
M  V30 24798 H 2249.1 -4.1953 0.396591 0
M  V30 24799 H 2247.78 -3.22309 -0.299794 0
M  V30 24800 H 2246.68 -3.15106 2.01641 0
M  V30 24801 H 2248.02 -4.1564 2.63637 0
M  V30 24802 N 2249.67 -1.04192 -1.18244 0
M  V30 24803 C 2250.6 -0.654953 -2.24126 0
M  V30 24804 C 2251.58 0.342422 -1.66618 0
M  V30 24805 O 2252.76 0.222243 -1.92924 0
M  V30 24806 C 2249.89 -0.0184367 -3.47295 0
M  V30 24807 C 2248.85 -0.939488 -4.17562 0
M  V30 24808 C 2248.17 -0.16738 -5.34438 0
M  V30 24809 C 2249.47 -2.25916 -4.70913 0
M  V30 24810 H 2251.17 -1.54012 -2.5675 0
M  V30 24811 H 2248.71 -0.741971 -1.23413 0
M  V30 24812 H 2250.67 0.264009 -4.20572 0
M  V30 24813 H 2249.39 0.901609 -3.13909 0
M  V30 24814 H 2248.05 -1.20634 -3.46184 0
M  V30 24815 H 2247.7 0.755112 -4.973 0
M  V30 24816 H 2247.4 -0.781003 -5.82387 0
M  V30 24817 H 2248.92 0.108018 -6.10504 0
M  V30 24818 H 2250.34 -2.03733 -5.35879 0
M  V30 24819 H 2248.73 -2.82586 -5.29401 0
M  V30 24820 H 2249.8 -2.90477 -3.88267 0
M  V30 24821 N 2251.15 1.34492 -0.821557 0
M  V30 24822 C 2252.06 2.33324 -0.244396 0
M  V30 24823 C 2253.07 1.6256 0.620499 0
M  V30 24824 O 2254.25 1.94336 0.52872 0
M  V30 24825 C 2251.31 3.41724 0.585308 0
M  V30 24826 C 2250.37 4.28238 -0.301827 0
M  V30 24827 C 2249.61 5.31461 0.488372 0
M  V30 24828 O 2249.83 5.43794 1.72177 0
M  V30 24829 O 2248.76 6.01763 -0.128586 0
M  V30 24830 H 2252.59 2.84513 -1.06236 0
M  V30 24831 H 2250.18 1.37527 -0.583669 0
M  V30 24832 H 2252.06 4.07918 1.0574 0
M  V30 24833 H 2250.73 2.9278 1.38063 0
M  V30 24834 H 2249.64 3.64971 -0.821379 0
M  V30 24835 H 2250.97 4.80618 -1.06147 0
M  V30 24836 N 2252.62 0.576397 1.46681 0
M  V30 24837 C 2253.57 -0.160458 2.30242 0
M  V30 24838 C 2254.54 -0.890137 1.40235 0
M  V30 24839 O 2255.73 -0.882054 1.69188 0
M  V30 24840 C 2252.87 -1.17224 3.2458 0
M  V30 24841 C 2251.98 -0.44666 4.29685 0
M  V30 24842 C 2251.11 -1.44542 5.11157 0
M  V30 24843 C 2250.15 -0.705883 6.08016 0
M  V30 24844 N 2249.29 -1.65239 6.82378 0
M  V30 24845 H 2254.13 0.558179 2.92726 0
M  V30 24846 H 2251.67 0.287081 1.44271 0
M  V30 24847 H 2253.63 -1.77165 3.77715 0
M  V30 24848 H 2252.26 -1.85867 2.63919 0
M  V30 24849 H 2251.31 0.267661 3.79457 0
M  V30 24850 H 2252.62 0.131774 4.98626 0
M  V30 24851 H 2251.77 -2.11781 5.68536 0
M  V30 24852 H 2250.51 -2.05778 4.42162 0
M  V30 24853 H 2249.52 -0.0196759 5.49796 0
M  V30 24854 H 2250.74 -0.0990007 6.79028 0
M  V30 24855 H 2248.69 -2.25298 6.16098 0
M  V30 24856 H 2248.61 -1.1266 7.47558 0
M  V30 24857 H 2249.87 -2.31533 7.4432 0
M  V30 24858 N 2254.1 -1.54444 0.313841 0
M  V30 24859 C 2255.33 -2.05268 -0.296645 0
M  V30 24860 C 2255.75 -1.189 -1.45755 0
M  V30 24861 O 2255.11 -0.195917 -1.80238 0
M  V30 24862 C 2255.16 -3.53375 -0.718248 0
M  V30 24863 O 2254.26 -3.69985 -1.82168 0
M  V30 24864 H 2253.6 -0.661685 -0.0553944 0
M  V30 24865 H 2256.13 -1.99375 0.459422 0
M  V30 24866 H 2256.14 -3.95465 -1.00357 0
M  V30 24867 H 2254.82 -4.15694 0.130894 0
M  V30 24868 H 2253.4 -3.398 -1.53592 0
M  V30 24869 N 2255.58 -0.0418125 -1.57545 0
M  V30 24870 C 2256.53 0.935768 -2.10979 0
M  V30 24871 C 2257.5 1.31489 -1.01488 0
M  V30 24872 O 2258.68 1.406 -1.28982 0
M  V30 24873 C 2255.82 2.20855 -2.65173 0
M  V30 24874 C 2254.94 1.88475 -3.88717 0
M  V30 24875 C 2254.07 3.10143 -4.3126 0
M  V30 24876 C 2253.11 2.7364 -5.47529 0
M  V30 24877 N 2252.25 3.87972 -5.85168 0
M  V30 24878 H 2257.09 0.473197 -2.94219 0
M  V30 24879 H 2254.62 0.221956 -1.45416 0
M  V30 24880 H 2256.58 2.9532 -2.9469 0
M  V30 24881 H 2255.21 2.64706 -1.84744 0
M  V30 24882 H 2254.26 1.04199 -3.65851 0
M  V30 24883 H 2255.58 1.576 -4.73248 0
M  V30 24884 H 2254.73 3.92915 -4.6228 0
M  V30 24885 H 2253.47 3.44189 -3.45522 0
M  V30 24886 H 2252.47 1.89282 -5.1619 0
M  V30 24887 H 2253.7 2.40796 -6.34976 0
M  V30 24888 H 2251.64 4.21837 -5.02384 0
M  V30 24889 H 2251.56 3.60763 -6.64369 0
M  V30 24890 H 2252.83 4.71411 -6.20799 0
M  V30 24891 N 2257.06 1.55891 0.231477 0
M  V30 24892 C 2258.47 1.4866 0.580722 0
M  V30 24893 C 2258.67 0.735013 1.87616 0
M  V30 24894 O 2257.73 0.27063 2.51045 0
M  V30 24895 C 2259.04 2.9316 0.669151 0
M  V30 24896 C 2260.59 3.03622 0.760445 0
M  V30 24897 C 2261.07 4.4946 0.880304 0
M  V30 24898 N 2262.56 4.53462 0.944781 0
M  V30 24899 C 2263.29 5.63572 1.05706 0
M  V30 24900 N 2262.79 6.83458 1.13391 0
M  V30 24901 N 2264.58 5.51402 1.09142 0
M  V30 24902 H 2256.73 2.03188 -0.618731 0
M  V30 24903 H 2259 0.923124 -0.215744 0
M  V30 24904 H 2258.7 3.51055 -0.212966 0
M  V30 24905 H 2258.58 3.44508 1.53604 0
M  V30 24906 H 2260.96 2.45798 1.63301 0
M  V30 24907 H 2261.04 2.5546 -0.131909 0
M  V30 24908 H 2260.69 5.07899 0.0122391 0
M  V30 24909 H 2260.62 4.95319 1.78793 0
M  V30 24910 H 2263.11 3.67122 0.896111 0
M  V30 24911 H 2263.42 7.63124 1.21908 0
M  V30 24912 H 2261.77 6.86188 1.10321 0
M  V30 24913 H 2264.96 4.56673 1.02797 0
M  V30 24914 H 2265.13 6.37249 1.17547 0
M  V30 24915 N 2258.54 -0.497781 1.49532 0
M  V30 24916 C 2259.5 -1.58125 1.65919 0
M  V30 24917 C 2260.5 -1.51785 0.530851 0
M  V30 24918 O 2261.69 -1.54879 0.79737 0
M  V30 24919 C 2258.82 -2.97777 1.65956 0
M  V30 24920 H 2260.01 -1.44924 2.62559 0
M  V30 24921 H 2257.57 -0.722251 1.38612 0
M  V30 24922 H 2258.3 -3.16452 0.70912 0
M  V30 24923 H 2258.09 -3.03788 2.47902 0
M  V30 24924 H 2259.58 -3.7649 1.80679 0
M  V30 24925 N 2260.01 -1.38661 -0.749062 0
M  V30 24926 C 2260.94 -1.38976 -1.87637 0
M  V30 24927 C 2261.93 -0.255034 -1.68177 0
M  V30 24928 O 2263.11 -0.458787 -1.88703 0
M  V30 24929 C 2260.24 -1.21857 -3.2522 0
M  V30 24930 C 2259.19 -2.32581 -3.59291 0
M  V30 24931 C 2258.52 -2.00563 -4.9566 0
M  V30 24932 C 2259.82 -3.74857 -3.63703 0
M  V30 24933 H 2261.51 -2.33313 -1.87631 0
M  V30 24934 H 2259.06 -1.12305 -0.90131 0
M  V30 24935 H 2261.01 -1.20702 -4.03744 0
M  V30 24936 H 2259.74 -0.239832 -3.25718 0
M  V30 24937 H 2258.4 -2.3293 -2.83089 0
M  V30 24938 H 2258.04 -1.01162 -4.92722 0
M  V30 24939 H 2257.74 -2.74723 -5.19424 0
M  V30 24940 H 2259.27 -2.01034 -5.76557 0
M  V30 24941 H 2260.68 -3.76514 -4.32331 0
M  V30 24942 H 2259.08 -4.48259 -3.98978 0
M  V30 24943 H 2260.15 -4.06846 -2.63826 0
M  V30 24944 N 2261.49 0.977736 -1.23605 0
M  V30 24945 C 2262.4 2.10468 -1.03636 0
M  V30 24946 C 2263.42 1.73989 0.0199129 0
M  V30 24947 O 2264.6 2.00629 -0.176112 0
M  V30 24948 C 2261.66 3.40876 -0.63282 0
M  V30 24949 C 2260.72 3.91364 -1.76444 0
M  V30 24950 C 2259.95 5.15548 -1.38006 0
M  V30 24951 O 2260.18 5.69782 -0.265457 0
M  V30 24952 O 2259.11 5.6017 -2.2021 0
M  V30 24953 H 2262.94 2.30204 -1.9809 0
M  V30 24954 H 2260.52 1.08849 -1.02334 0
M  V30 24955 H 2262.4 4.19313 -0.418834 0
M  V30 24956 H 2261.08 3.22463 0.282697 0
M  V30 24957 H 2259.99 3.14032 -2.03309 0
M  V30 24958 H 2261.32 4.14236 -2.65837 0
M  V30 24959 N 2262.97 1.04818 1.1769 0
M  V30 24960 C 2263.9 0.603861 2.21102 0
M  V30 24961 C 2264.92 -0.330432 1.59411 0
M  V30 24962 O 2266.11 -0.123758 1.7807 0
M  V30 24963 C 2263.21 -0.136838 3.38624 0
M  V30 24964 C 2262.38 0.807213 4.29887 0
M  V30 24965 C 2261.44 0.108452 5.26088 0
M  V30 24966 O 2260.46 0.741331 5.64352 0
M  V30 24967 N 2261.67 -1.15548 5.68884 0
M  V30 24968 H 2264.43 1.49334 2.59845 0
M  V30 24969 H 2261.99 0.92961 1.32551 0
M  V30 24970 H 2263.98 -0.614331 4.0001 0
M  V30 24971 H 2262.55 -0.927941 2.9851 0
M  V30 24972 H 2261.77 1.46441 3.6599 0
M  V30 24973 H 2263.06 1.44816 4.87756 0
M  V30 24974 H 2262.46 -1.69006 5.39864 0
M  V30 24975 H 2261.02 -1.57711 6.32432 0
M  V30 24976 N 2264.45 -1.34055 0.828678 0
M  V30 24977 C 2265.38 -2.28217 0.212092 0
M  V30 24978 C 2266.39 -1.51287 -0.601336 0
M  V30 24979 O 2267.58 -1.73241 -0.430074 0
M  V30 24980 C 2264.68 -3.31146 -0.720822 0
M  V30 24981 C 2263.86 -4.3737 0.0510356 0
M  V30 24982 C 2262.92 -5.20026 -0.803674 0
M  V30 24983 O 2261.94 -5.68666 -0.246567 0
M  V30 24984 N 2263.14 -5.40302 -2.1226 0
M  V30 24985 H 2265.91 -2.81769 1.0211 0
M  V30 24986 H 2263.47 -1.4664 0.686179 0
M  V30 24987 H 2265.46 -3.83342 -1.29735 0
M  V30 24988 H 2264.03 -2.77945 -1.43056 0
M  V30 24989 H 2263.25 -3.85811 0.808899 0
M  V30 24990 H 2264.54 -5.05459 0.582154 0
M  V30 24991 H 2263.94 -5.02468 -2.59889 0
M  V30 24992 H 2262.49 -5.95594 -2.64785 0
M  V30 24993 N 2265.93 -0.584167 -1.46374 0
M  V30 24994 C 2267.17 -0.0704072 -2.02678 0
M  V30 24995 C 2267.51 1.28676 -1.45452 0
M  V30 24996 O 2266.78 1.84348 -0.620172 0
M  V30 24997 C 2267.06 -0.00621004 -3.60099 0
M  V30 24998 C 2266.92 -1.39238 -4.27707 0
M  V30 24999 C 2268.24 0.693666 -4.34599 0
M  V30 25000 H 2265.36 -0.0270599 -0.736503 0
M  V30 25001 H 2268 -0.751646 -1.745 0
M  V30 25002 H 2266.15 0.573942 -3.84237 0
M  V30 25003 H 2267.82 -2.01781 -4.14828 0
M  V30 25004 H 2266.06 -1.95969 -3.87013 0
M  V30 25005 H 2266.73 -1.29991 -5.36476 0
M  V30 25006 H 2269.21 0.200796 -4.15615 0
M  V30 25007 H 2268.09 0.707618 -5.4432 0
M  V30 25008 H 2268.35 1.75526 -4.05762 0
M  V30 25009 N 2267.41 1.54275 -0.322027 0
M  V30 25010 C 2268.32 2.27975 0.553591 0
M  V30 25011 C 2269.33 1.3227 1.13052 0
M  V30 25012 O 2270.51 1.65282 1.15081 0
M  V30 25013 C 2267.57 3.02204 1.69922 0
M  V30 25014 C 2266.63 4.13492 1.15426 0
M  V30 25015 C 2265.87 4.84172 2.24529 0
M  V30 25016 O 2266.09 4.54356 3.44844 0
M  V30 25017 O 2265.02 5.71114 1.90034 0
M  V30 25018 H 2268.85 3.03667 -0.0448878 0
M  V30 25019 H 2266.43 1.49142 -0.087768 0
M  V30 25020 H 2268.32 3.48694 2.36624 0
M  V30 25021 H 2266.99 2.29389 2.28391 0
M  V30 25022 H 2265.9 3.71355 0.452371 0
M  V30 25023 H 2267.23 4.88346 0.614719 0
M  V30 25024 N 2268.88 0.0501669 1.5752 0
M  V30 25025 C 2269.79 -0.939789 2.14954 0
M  V30 25026 C 2270.81 -1.34237 1.10708 0
M  V30 25027 O 2271.99 -1.4195 1.42871 0
M  V30 25028 C 2269.05 -2.1966 2.68236 0
M  V30 25029 C 2268.11 -1.85246 3.87276 0
M  V30 25030 C 2267.34 -3.04935 4.38007 0
M  V30 25031 O 2267.57 -4.18274 3.87818 0
M  V30 25032 O 2266.5 -2.86008 5.29607 0
M  V30 25033 H 2270.33 -0.481339 2.99861 0
M  V30 25034 H 2267.91 -0.171673 1.4841 0
M  V30 25035 H 2269.79 -2.93401 3.0248 0
M  V30 25036 H 2268.47 -2.64645 1.864 0
M  V30 25037 H 2267.38 -1.08824 3.57922 0
M  V30 25038 H 2268.71 -1.45061 4.70338 0
M  V30 25039 N 2270.36 -1.56011 -0.223207 0
M  V30 25040 C 2271.29 -1.87291 -1.30374 0
M  V30 25041 C 2272.27 -0.730138 -1.45285 0
M  V30 25042 O 2273.46 -0.97833 -1.61124 0
M  V30 25043 C 2270.58 -2.07847 -2.67427 0
M  V30 25044 C 2269.63 -3.30531 -2.6954 0
M  V30 25045 S 2270.46 -4.86504 -2.23773 0
M  V30 25046 C 2271.62 -5.10094 -3.62705 0
M  V30 25047 H 2271.85 -2.78648 -1.03647 0
M  V30 25048 H 2269.38 -1.48425 -0.425367 0
M  V30 25049 H 2271.34 -2.20374 -3.46332 0
M  V30 25050 H 2270 -1.1729 -2.91379 0
M  V30 25051 H 2269.2 -3.41953 -3.70248 0
M  V30 25052 H 2268.8 -3.16852 -1.98697 0
M  V30 25053 H 2271.09 -4.98891 -4.58382 0
M  V30 25054 H 2272.03 -6.11987 -3.56199 0
M  V30 25055 H 2272.44 -4.37835 -3.56316 0
M  V30 25056 N 2271.84 0.489844 -1.49794 0
M  V30 25057 C 2272.79 1.59011 -1.67284 0
M  V30 25058 C 2273.76 1.5794 -0.514204 0
M  V30 25059 O 2274.94 1.75757 -0.742564 0
M  V30 25060 C 2272.08 2.97099 -1.75574 0
M  V30 25061 C 2271.19 3.08102 -3.02816 0
M  V30 25062 C 2270.33 4.3699 -3.02016 0
M  V30 25063 C 2269.37 4.41666 -4.2379 0
M  V30 25064 N 2268.51 5.61998 -4.20836 0
M  V30 25065 H 2273.35 1.43405 -2.61226 0
M  V30 25066 H 2270.88 0.697542 -1.2951 0
M  V30 25067 H 2272.84 3.77152 -1.78361 0
M  V30 25068 H 2271.47 3.11384 -0.850882 0
M  V30 25069 H 2270.52 2.21041 -3.09588 0
M  V30 25070 H 2271.83 3.07416 -3.92806 0
M  V30 25071 H 2270.99 5.25373 -3.03427 0
M  V30 25072 H 2269.73 4.40256 -2.09823 0
M  V30 25073 H 2268.73 3.51683 -4.2261 0
M  V30 25074 H 2269.96 4.40106 -5.17188 0
M  V30 25075 H 2267.9 5.66086 -3.31486 0
M  V30 25076 H 2267.82 5.62976 -5.04574 0
M  V30 25077 H 2269.09 6.52558 -4.26367 0
M  V30 25078 N 2273.32 1.39056 0.741698 0
M  V30 25079 C 2274.55 1.39174 1.53095 0
M  V30 25080 C 2274.96 -0.0154767 1.88794 0
M  V30 25081 O 2274.32 -0.985132 1.53627 0
M  V30 25082 C 2274.37 2.25845 2.8227 0
M  V30 25083 O 2274.09 3.61086 2.4809 0
M  V30 25084 C 2275.59 2.34273 3.76339 0
M  V30 25085 H 2272.81 0.475608 0.473327 0
M  V30 25086 H 2275.35 1.82787 0.917013 0
M  V30 25087 H 2273.51 1.85662 3.40012 0
M  V30 25088 H 2273.92 4.06848 3.31021 0
M  V30 25089 H 2275.4 2.99178 4.63893 0
M  V30 25090 H 2275.87 1.35989 4.17617 0
M  V30 25091 H 2276.48 2.74896 3.24518 0
M  V30 25092 N 2274.8 -0.971167 1.24121 0
M  V30 25093 C 2275.73 -2.06794 0.988386 0
M  V30 25094 C 2276.74 -1.62749 -0.0409255 0
M  V30 25095 O 2277.93 -1.77424 0.195704 0
M  V30 25096 C 2275.03 -3.35638 0.469082 0
M  V30 25097 C 2274.2 -4.08608 1.56072 0
M  V30 25098 C 2273.26 -5.15726 1.04467 0
M  V30 25099 O 2272.29 -5.42093 1.73563 0
M  V30 25100 N 2273.49 -5.8037 -0.122715 0
M  V30 25101 H 2276.25 -2.29057 1.93269 0
M  V30 25102 H 2273.82 -1.13854 1.15104 0
M  V30 25103 H 2275.81 -4.04554 0.108685 0
M  V30 25104 H 2274.38 -3.10271 -0.380865 0
M  V30 25105 H 2273.6 -3.34018 2.09346 0
M  V30 25106 H 2274.89 -4.54122 2.29457 0
M  V30 25107 H 2274.28 -5.61347 -0.700464 0
M  V30 25108 H 2272.84 -6.50418 -0.42429 0
M  V30 25109 N 2276.27 -1.05441 -1.17133 0
M  V30 25110 C 2277.2 -0.678688 -2.23419 0
M  V30 25111 C 2278.19 0.324731 -1.66972 0
M  V30 25112 O 2279.37 0.201768 -1.93149 0
M  V30 25113 C 2276.5 -0.055271 -3.47256 0
M  V30 25114 C 2275.45 -0.983723 -4.16542 0
M  V30 25115 C 2274.78 -0.224055 -5.3423 0
M  V30 25116 C 2276.08 -2.30898 -4.68491 0
M  V30 25117 H 2277.77 -1.56726 -2.55103 0
M  V30 25118 H 2275.32 -0.755019 -1.22619 0
M  V30 25119 H 2277.27 0.219386 -4.20829 0
M  V30 25120 H 2276 0.868264 -3.14847 0
M  V30 25121 H 2274.66 -1.24299 -3.44885 0
M  V30 25122 H 2274.3 0.702325 -4.98073 0
M  V30 25123 H 2274 -0.842729 -5.81525 0
M  V30 25124 H 2275.53 0.0432598 -6.10585 0
M  V30 25125 H 2276.94 -2.09405 -5.33688 0
M  V30 25126 H 2275.34 -2.88185 -5.26374 0
M  V30 25127 H 2276.41 -2.94579 -3.85164 0
M  V30 25128 N 2277.75 1.33613 -0.835776 0
M  V30 25129 C 2278.66 2.33051 -0.269129 0
M  V30 25130 C 2279.68 1.63209 0.603222 0
M  V30 25131 O 2280.85 1.94886 0.508078 0
M  V30 25132 C 2277.92 3.42325 0.549031 0
M  V30 25133 C 2276.98 4.27893 -0.347231 0
M  V30 25134 C 2276.21 5.31949 0.431976 0
M  V30 25135 O 2276.44 5.45589 1.66399 0
M  V30 25136 O 2275.37 6.01592 -0.192404 0
M  V30 25137 H 2279.2 2.8337 -1.09248 0
M  V30 25138 H 2276.78 1.369 -0.598222 0
M  V30 25139 H 2278.66 4.09017 1.01407 0
M  V30 25140 H 2277.34 2.94228 1.34949 0
M  V30 25141 H 2276.25 3.6408 -0.860043 0
M  V30 25142 H 2277.58 4.79465 -1.11238 0
M  V30 25143 N 2279.23 0.591922 1.46062 0
M  V30 25144 C 2280.14 -0.138269 2.34192 0
M  V30 25145 C 2281.16 -0.876582 1.50306 0
M  V30 25146 O 2282.33 -0.837696 1.83152 0
M  V30 25147 C 2279.4 -1.1332 3.27658 0
M  V30 25148 C 2278.46 -0.398555 4.27446 0
M  V30 25149 C 2277.69 -1.34609 5.16446 0
M  V30 25150 O 2277.91 -2.58312 5.08558 0
M  V30 25151 O 2276.85 -0.851663 5.95844 0
M  V30 25152 H 2280.67 0.585572 2.98001 0
M  V30 25153 H 2278.26 0.352265 1.45188 0
M  V30 25154 H 2280.14 -1.70664 3.85294 0
M  V30 25155 H 2278.82 -1.83835 2.66433 0
M  V30 25156 H 2277.72 0.21696 3.7347 0
M  V30 25157 H 2279.06 0.265795 4.91482 0
M  V30 25158 N 2280.71 -1.54102 0.330204 0
M  V30 25159 C 2281.64 -2.27514 -0.525313 0
M  V30 25160 C 2282.62 -1.28562 -1.11381 0
M  V30 25161 O 2283.8 -1.57385 -1.1377 0
M  V30 25162 C 2280.93 -3.03794 -1.68305 0
M  V30 25163 C 2279.89 -4.10139 -1.22353 0
M  V30 25164 C 2279.21 -4.74297 -2.46873 0
M  V30 25165 C 2280.51 -5.21234 -0.333605 0
M  V30 25166 H 2282.21 -2.99273 0.0870656 0
M  V30 25167 H 2279.75 -1.43935 0.0433146 0
M  V30 25168 H 2281.71 -3.53884 -2.28788 0
M  V30 25169 H 2280.43 -2.29663 -2.32212 0
M  V30 25170 H 2279.09 -3.60942 -0.641586 0
M  V30 25171 H 2278.74 -3.96775 -3.09159 0
M  V30 25172 H 2278.44 -5.46136 -2.16815 0
M  V30 25173 H 2279.96 -5.27164 -3.08107 0
M  V30 25174 H 2281.38 -5.6704 -0.844913 0
M  V30 25175 H 2279.77 -5.99969 -0.125507 0
M  V30 25176 H 2280.84 -4.8074 0.633808 0
M  V30 25177 N 2282.19 -0.0585199 -1.57491 0
M  V30 25178 C 2283.1 0.928376 -2.15449 0
M  V30 25179 C 2284.11 1.33648 -1.11419 0
M  V30 25180 O 2285.29 1.4119 -1.43622 0
M  V30 25181 C 2282.35 2.18234 -2.69397 0
M  V30 25182 C 2281.41 1.8319 -3.88253 0
M  V30 25183 C 2280.65 3.02608 -4.39618 0
M  V30 25184 O 2280.87 4.16212 -3.90031 0
M  V30 25185 O 2279.8 2.83195 -5.31116 0
M  V30 25186 H 2283.63 0.46543 -3.00112 0
M  V30 25187 H 2281.22 0.1638 -1.48499 0
M  V30 25188 H 2283.1 2.91792 -3.04032 0
M  V30 25189 H 2281.77 2.63652 -1.87801 0
M  V30 25190 H 2280.68 1.06924 -3.58494 0
M  V30 25191 H 2282.01 1.42565 -4.71101 0
M  V30 25192 N 2283.66 1.56128 0.21493 0
M  V30 25193 C 2284.94 1.70248 0.963063 0
M  V30 25194 C 2285.32 0.607676 2.02165 0
M  V30 25195 O 2284.67 -0.384345 2.25244 0
M  V30 25196 C 2284.88 3.11818 1.5675 0
M  V30 25197 C 2286.23 3.71434 2.05723 0
M  V30 25198 O 2287.25 3.14821 1.66631 0
M  V30 25199 O 2286.11 4.70748 2.77595 0
M  V30 25200 H 2283.2 0.693651 0.450309 0
M  V30 25201 H 2285.75 1.68443 0.206189 0
M  V30 25202 H 2284.52 3.82962 0.803465 0
M  V30 25203 H 2284.15 3.17769 2.38974 0
M  V30 25204 N 2285.14 -0.481893 1.50052 0
M  V30 25205 C 2286.05 -1.60725 1.70893 0
M  V30 25206 C 2287.07 -1.63626 0.591817 0
M  V30 25207 O 2288.24 -1.81695 0.868849 0
M  V30 25208 C 2285.31 -2.97002 1.7886 0
M  V30 25209 C 2284.37 -3.04576 3.02543 0
M  V30 25210 C 2283.6 -4.34352 3.1012 0
M  V30 25211 O 2283.83 -5.24245 2.24774 0
M  V30 25212 O 2282.76 -4.47294 4.02755 0
M  V30 25213 H 2286.59 -1.46067 2.66267 0
M  V30 25214 H 2284.17 -0.660241 1.34019 0
M  V30 25215 H 2286.05 -3.77961 1.86343 0
M  V30 25216 H 2284.73 -3.11882 0.866683 0
M  V30 25217 H 2283.64 -2.22734 3.00567 0
M  V30 25218 H 2284.97 -2.94629 3.94277 0
M  V30 25219 N 2286.62 -1.39448 -0.734313 0
M  V30 25220 C 2287.55 -1.40959 -1.86153 0
M  V30 25221 C 2288.53 -0.272857 -1.67897 0
M  V30 25222 O 2289.72 -0.478776 -1.88206 0
M  V30 25223 C 2286.85 -1.25299 -3.23909 0
M  V30 25224 C 2285.8 -2.36379 -3.56804 0
M  V30 25225 C 2285.13 -2.05809 -4.93504 0
M  V30 25226 C 2286.43 -3.78693 -3.59707 0
M  V30 25227 H 2288.12 -2.3529 -1.85146 0
M  V30 25228 H 2285.67 -1.13255 -0.889347 0
M  V30 25229 H 2287.62 -1.24977 -4.02441 0
M  V30 25230 H 2286.34 -0.274366 -3.25446 0
M  V30 25231 H 2285 -2.35919 -2.80602 0
M  V30 25232 H 2284.65 -1.06383 -4.91622 0
M  V30 25233 H 2284.35 -2.80217 -5.16481 0
M  V30 25234 H 2285.87 -2.07138 -5.74392 0
M  V30 25235 H 2287.29 -3.81078 -4.28313 0
M  V30 25236 H 2285.69 -4.52466 -3.94201 0
M  V30 25237 H 2286.76 -4.09621 -2.59496 0
M  V30 25238 N 2288.1 0.964571 -1.24635 0
M  V30 25239 C 2289.03 2.06266 -0.999339 0
M  V30 25240 C 2290.04 1.62768 0.032294 0
M  V30 25241 O 2291.23 1.77318 -0.20511 0
M  V30 25242 C 2288.33 3.35384 -0.486875 0
M  V30 25243 C 2287.51 4.07774 -1.58237 0
M  V30 25244 C 2286.56 5.15165 -1.07201 0
M  V30 25245 O 2285.59 5.41165 -1.76435 0
M  V30 25246 N 2286.79 5.80427 0.0919352 0
M  V30 25247 H 2289.56 2.28029 -1.94481 0
M  V30 25248 H 2287.12 1.13242 -1.15706 0
M  V30 25249 H 2289.11 4.04491 -0.130138 0
M  V30 25250 H 2287.68 3.10469 0.364405 0
M  V30 25251 H 2286.9 3.32903 -2.11115 0
M  V30 25252 H 2288.19 4.52899 -2.31862 0
M  V30 25253 H 2287.59 5.6171 0.670685 0
M  V30 25254 H 2286.14 6.50633 0.389791 0
M  V30 25255 N 2289.58 1.0606 1.16572 0
M  V30 25256 C 2290.54 0.67343 2.19083 0
M  V30 25257 C 2291.54 -0.27962 1.5835 0
M  V30 25258 O 2292.73 -0.0623182 1.74088 0
M  V30 25259 C 2289.86 -0.00948241 3.40899 0
M  V30 25260 H 2291.05 1.58086 2.54851 0
M  V30 25261 H 2288.61 0.855539 1.30806 0
M  V30 25262 H 2289.34 -0.929772 3.10686 0
M  V30 25263 H 2289.13 0.675798 3.86232 0
M  V30 25264 H 2290.62 -0.266171 4.16751 0
M  V30 25265 N 2291.06 -1.33168 0.84285 0
M  V30 25266 C 2292.28 -2.01855 0.454091 0
M  V30 25267 C 2292.7 -1.63399 -0.945841 0
M  V30 25268 O 2292.06 -0.84933 -1.61532 0
M  V30 25269 C 2292.11 -3.56981 0.569777 0
M  V30 25270 O 2291.83 -3.94051 1.91455 0
M  V30 25271 C 2293.33 -4.42941 0.17849 0
M  V30 25272 H 2290.55 -0.646462 0.179801 0
M  V30 25273 H 2293.09 -1.7001 1.13653 0
M  V30 25274 H 2291.25 -3.87346 -0.0647906 0
M  V30 25275 H 2291.66 -4.88764 1.9029 0
M  V30 25276 H 2293.14 -5.51126 0.310473 0
M  V30 25277 H 2293.61 -4.30294 -0.879981 0
M  V30 25278 H 2294.22 -4.17943 0.787653 0
M  V30 25279 N 2292.53 -0.599659 -1.45746 0
M  V30 25280 C 2293.44 0.125847 -2.34262 0
M  V30 25281 C 2294.46 0.868598 -1.50769 0
M  V30 25282 O 2295.64 0.827971 -1.83594 0
M  V30 25283 C 2292.7 1.11581 -3.28254 0
M  V30 25284 C 2291.76 0.375881 -4.27651 0
M  V30 25285 C 2290.99 1.31868 -5.17152 0
M  V30 25286 O 2291.22 2.55612 -5.0992 0
M  V30 25287 O 2290.15 0.820052 -5.96287 0
M  V30 25288 H 2293.98 -0.601368 -2.97687 0
M  V30 25289 H 2291.56 -0.35996 -1.44999 0
M  V30 25290 H 2293.44 1.68619 -3.86194 0
M  V30 25291 H 2292.12 1.82419 -2.67404 0
M  V30 25292 H 2291.03 -0.236763 -3.7335 0
M  V30 25293 H 2292.36 -0.291856 -4.91334 0
M  V30 25294 N 2294.01 1.53925 -0.338371 0
M  V30 25295 C 2295.29 1.93051 0.31474 0
M  V30 25296 C 2295.67 1.26944 1.68667 0
M  V30 25297 O 2295.02 0.418484 2.24635 0
M  V30 25298 C 2295.23 3.46789 0.392188 0
M  V30 25299 C 2296.57 4.19665 0.645481 0
M  V30 25300 O 2297.6 3.53025 0.474513 0
M  V30 25301 O 2296.46 5.37708 0.976314 0
M  V30 25302 H 2293.55 0.806593 0.182584 0
M  V30 25303 H 2296.1 1.65177 -0.38917 0
M  V30 25304 H 2294.87 3.87115 -0.57077 0
M  V30 25305 H 2294.49 3.80814 1.14309 0
M  V30 25306 N 2295.49 0.0668712 1.57458 0
M  V30 25307 C 2296.45 -0.887385 2.11325 0
M  V30 25308 C 2297.45 -1.22962 1.0362 0
M  V30 25309 O 2298.64 -1.16371 1.29628 0
M  V30 25310 C 2295.77 -2.19237 2.61051 0
M  V30 25311 H 2296.97 -0.420142 2.96942 0
M  V30 25312 H 2294.52 -0.181765 1.5524 0
M  V30 25313 H 2295.26 -2.70509 1.78873 0
M  V30 25314 H 2295.04 -1.95696 3.39773 0
M  V30 25315 H 2296.53 -2.87559 3.02819 0
M  V30 25316 N 2296.97 -1.56239 -0.206647 0
M  V30 25317 C 2297.91 -1.93623 -1.25614 0
M  V30 25318 C 2298.88 -0.7953 -1.45822 0
M  V30 25319 O 2300.07 -1.05248 -1.59146 0
M  V30 25320 C 2297.21 -2.27111 -2.59835 0
M  V30 25321 C 2296.32 -3.54212 -2.47302 0
M  V30 25322 C 2295.46 -3.77076 -3.74148 0
M  V30 25323 C 2294.5 -4.97641 -3.56398 0
M  V30 25324 N 2293.63 -5.16819 -4.75229 0
M  V30 25325 H 2298.47 -2.83106 -0.930333 0
M  V30 25326 H 2296.01 -1.40111 -0.448041 0
M  V30 25327 H 2297.97 -2.44541 -3.38017 0
M  V30 25328 H 2296.6 -1.40784 -2.90482 0
M  V30 25329 H 2295.65 -3.44893 -1.60477 0
M  V30 25330 H 2296.96 -4.42548 -2.30114 0
M  V30 25331 H 2296.12 -3.94683 -4.60771 0
M  V30 25332 H 2294.86 -2.87049 -3.94277 0
M  V30 25333 H 2293.86 -4.79969 -2.6816 0
M  V30 25334 H 2295.09 -5.89167 -3.37726 0
M  V30 25335 H 2293.03 -4.29736 -4.95644 0
M  V30 25336 H 2292.95 -5.99314 -4.60824 0
M  V30 25337 H 2294.22 -5.38874 -5.63236 0
M  V30 25338 N 2298.45 0.473929 -1.50305 0
M  V30 25339 C 2299.38 1.58039 -1.71889 0
M  V30 25340 C 2300.36 1.60343 -0.567827 0
M  V30 25341 O 2301.54 1.76654 -0.806654 0
M  V30 25342 C 2298.67 2.9638 -1.81041 0
M  V30 25343 C 2297.63 3.08943 -2.96206 0
M  V30 25344 C 2296.95 4.48904 -2.90498 0
M  V30 25345 C 2298.25 2.86427 -4.36757 0
M  V30 25346 H 2299.95 1.4023 -2.6453 0
M  V30 25347 H 2297.49 0.673178 -1.27296 0
M  V30 25348 H 2299.44 3.73711 -1.94726 0
M  V30 25349 H 2298.17 3.1534 -0.850202 0
M  V30 25350 H 2296.83 2.34045 -2.82168 0
M  V30 25351 H 2296.48 4.64778 -1.92329 0
M  V30 25352 H 2296.18 4.58246 -3.6781 0
M  V30 25353 H 2297.7 5.28259 -3.06227 0
M  V30 25354 H 2299.11 3.53509 -4.51336 0
M  V30 25355 H 2297.51 3.07216 -5.15498 0
M  V30 25356 H 2298.58 1.82308 -4.49324 0
M  V30 25357 N 2299.92 1.39835 0.726907 0
M  V30 25358 C 2301.34 1.21617 1.03352 0
M  V30 25359 C 2301.54 0.0834153 2.01327 0
M  V30 25360 O 2300.6 -0.562337 2.46159 0
M  V30 25361 C 2301.91 2.55345 1.58806 0
M  V30 25362 C 2303.46 2.6226 1.70847 0
M  V30 25363 C 2303.93 3.96229 2.29709 0
M  V30 25364 N 2305.42 3.97912 2.37109 0
M  V30 25365 C 2306.16 4.9835 2.8361 0
M  V30 25366 N 2305.65 6.09185 3.29947 0
M  V30 25367 N 2307.45 4.85725 2.82892 0
M  V30 25368 H 2299.6 2.12259 0.0772696 0
M  V30 25369 H 2301.86 0.943035 0.0968937 0
M  V30 25370 H 2301.57 3.38828 0.942796 0
M  V30 25371 H 2301.44 2.75636 2.57497 0
M  V30 25372 H 2303.83 1.79156 2.34493 0
M  V30 25373 H 2303.91 2.45811 0.70787 0
M  V30 25374 H 2303.55 4.79768 1.66688 0
M  V30 25375 H 2303.48 4.10003 3.30462 0
M  V30 25376 H 2305.97 3.17871 2.04368 0
M  V30 25377 H 2306.29 6.81726 3.63964 0
M  V30 25378 H 2304.63 6.12767 3.27935 0
M  V30 25379 H 2307.82 3.98236 2.4602 0
M  V30 25380 H 2308 5.64145 3.18817 0
M  V30 25381 N 2301.4 -0.957948 1.25144 0
M  V30 25382 C 2302.33 -2.07171 1.07715 0
M  V30 25383 C 2303.31 -1.70095 -0.0128163 0
M  V30 25384 O 2304.5 -1.93572 0.156095 0
M  V30 25385 C 2301.63 -3.40345 0.691562 0
M  V30 25386 C 2300.58 -3.91416 1.73139 0
M  V30 25387 C 2299.91 -5.21047 1.20059 0
M  V30 25388 C 2301.21 -4.18164 3.12947 0
M  V30 25389 H 2302.9 -2.22011 2.00877 0
M  V30 25390 H 2300.45 -1.06682 0.96721 0
M  V30 25391 H 2302.4 -4.17708 0.556578 0
M  V30 25392 H 2301.12 -3.25434 -0.275761 0
M  V30 25393 H 2299.78 -3.16219 1.85476 0
M  V30 25394 H 2299.43 -5.02503 0.223587 0
M  V30 25395 H 2299.13 -5.56186 1.89554 0
M  V30 25396 H 2300.66 -6.0101 1.07792 0
M  V30 25397 H 2302.07 -4.86198 3.03783 0
M  V30 25398 H 2300.47 -4.64552 3.79883 0
M  V30 25399 H 2301.54 -3.24567 3.60256 0
M  V30 25400 N 2302.88 -1.06677 -1.16008 0
M  V30 25401 C 2303.79 -0.692218 -2.24155 0
M  V30 25402 C 2304.81 0.293483 -1.71507 0
M  V30 25403 O 2305.98 0.141826 -2.009 0
M  V30 25404 C 2303.05 -0.0884741 -3.46587 0
M  V30 25405 C 2302.11 -1.12654 -4.14255 0
M  V30 25406 C 2301.34 -0.551509 -5.30843 0
M  V30 25407 O 2301.56 0.634556 -5.66859 0
M  V30 25408 O 2300.5 -1.29308 -5.87846 0
M  V30 25409 H 2304.32 -1.59392 -2.58511 0
M  V30 25410 H 2301.91 -0.839282 -1.23598 0
M  V30 25411 H 2303.79 0.246287 -4.2068 0
M  V30 25412 H 2302.47 0.786657 -3.13996 0
M  V30 25413 H 2301.37 -1.51354 -3.42115 0
M  V30 25414 H 2302.71 -1.97333 -4.50911 0
M  V30 25415 N 2304.36 1.32719 -0.8499 0
M  V30 25416 C 2305.6 1.97707 -0.451625 0
M  V30 25417 C 2305.94 1.67121 0.989145 0
M  V30 25418 O 2305.21 0.956921 1.69332 0
M  V30 25419 C 2305.49 3.53512 -0.68566 0
M  V30 25420 C 2305.35 3.93745 -2.1745 0
M  V30 25421 C 2306.67 4.39881 -0.138952 0
M  V30 25422 H 2303.79 0.718163 -0.165563 0
M  V30 25423 H 2306.43 1.5718 -1.06745 0
M  V30 25424 H 2304.58 3.88164 -0.161484 0
M  V30 25425 H 2306.25 3.69295 -2.76439 0
M  V30 25426 H 2304.49 3.43076 -2.65483 0
M  V30 25427 H 2305.16 5.02305 -2.28897 0
M  V30 25428 H 2307.64 4.11937 -0.58714 0
M  V30 25429 H 2306.52 5.47893 -0.332309 0
M  V30 25430 H 2306.78 4.31596 0.957984 0
M  V30 25431 N 2305.84 0.60738 1.45426 0
M  V30 25432 C 2306.78 -0.12407 2.32269 0
M  V30 25433 C 2307.78 -0.859829 1.45957 0
M  V30 25434 O 2308.98 -0.775418 1.62442 0
M  V30 25435 H 2305.36 -0.0588707 0.749692 0
M  V30 25436 H 2307.33 0.626813 2.91742 0
M  V30 25437 C 2306.08 -1.10815 3.29569 0
M  V30 25438 H 2305.4 -0.551422 3.95979 0
M  V30 25439 H 2306.84 -1.58988 3.93063 0
M  V30 25440 C 2305.3 -2.1816 2.56725 0
M  V30 25441 O 2305.83 -3.25898 2.34848 0
M  V30 25442 N 2304.04 -1.93438 2.16864 0
M  V30 25443 H 2303.58 -1.0583 2.34857 0
M  V30 25444 H 2303.54 -2.65466 1.68449 0
M  V30 25445 N 2307.31 -1.53743 0.34653 0
M  V30 25446 C 2308.24 -2.28059 -0.501153 0
M  V30 25447 C 2309.23 -1.29736 -1.10011 0
M  V30 25448 O 2310.41 -1.58583 -1.12094 0
M  V30 25449 C 2307.54 -3.05562 -1.65073 0
M  V30 25450 C 2306.49 -4.11413 -1.17996 0
M  V30 25451 C 2305.82 -4.76889 -2.41829 0
M  V30 25452 C 2307.12 -5.21558 -0.278303 0
M  V30 25453 H 2308.81 -2.99164 0.118803 0
M  V30 25454 H 2306.36 -1.43881 0.0585784 0
M  V30 25455 H 2308.31 -3.56291 -2.25022 0
M  V30 25456 H 2307.04 -2.32113 -2.29763 0
M  V30 25457 H 2305.7 -3.61602 -0.603268 0
M  V30 25458 H 2305.34 -4.00031 -3.04933 0
M  V30 25459 H 2305.04 -5.48405 -2.1101 0
M  V30 25460 H 2306.57 -5.30403 -3.02499 0
M  V30 25461 H 2307.98 -5.67904 -0.784723 0
M  V30 25462 H 2306.38 -6.00068 -0.0618652 0
M  V30 25463 H 2307.45 -4.80041 0.684761 0
M  V30 25464 N 2308.79 -0.0752207 -1.5742 0
M  V30 25465 C 2309.72 0.920446 -2.09906 0
M  V30 25466 C 2310.74 1.25916 -1.03194 0
M  V30 25467 O 2311.93 1.21575 -1.30697 0
M  V30 25468 C 2309.03 2.2353 -2.5473 0
M  V30 25469 C 2308.2 2.07491 -3.85053 0
M  V30 25470 C 2307.26 3.22311 -4.15935 0
M  V30 25471 O 2306.28 2.97151 -4.85479 0
M  V30 25472 N 2307.49 4.47507 -3.69753 0
M  V30 25473 H 2310.25 0.472307 -2.95955 0
M  V30 25474 H 2307.81 0.110416 -1.61523 0
M  V30 25475 H 2309.8 2.99255 -2.72449 0
M  V30 25476 H 2308.37 2.59831 -1.738 0
M  V30 25477 H 2307.59 1.16213 -3.76681 0
M  V30 25478 H 2308.88 1.94029 -4.70351 0
M  V30 25479 H 2308.28 4.70835 -3.13578 0
M  V30 25480 H 2306.84 5.20248 -3.92665 0
M  V30 25481 N 2310.27 1.56347 0.198358 0
M  V30 25482 C 2311.23 1.93433 1.22949 0
M  V30 25483 C 2312.23 0.815116 1.38609 0
M  V30 25484 O 2313.42 1.08258 1.36477 0
M  V30 25485 C 2310.56 2.20551 2.59942 0
M  V30 25486 H 2311.75 2.85678 0.912576 0
M  V30 25487 H 2309.3 1.49986 0.439744 0
M  V30 25488 H 2310.04 1.30932 2.96694 0
M  V30 25489 H 2309.82 3.02107 2.49948 0
M  V30 25490 H 2311.31 2.50259 3.34306 0
M  V30 25491 N 2311.75 -0.465951 1.50554 0
M  V30 25492 C 2312.68 -1.58225 1.64439 0
M  V30 25493 C 2313.66 -1.54965 0.492394 0
M  V30 25494 O 2314.84 -1.74513 0.712566 0
M  V30 25495 C 2311.97 -2.96805 1.6317 0
M  V30 25496 C 2311.02 -3.18199 2.83992 0
M  V30 25497 S 2311.85 -2.97549 4.45225 0
M  V30 25498 C 2313.01 -4.38462 4.46656 0
M  V30 25499 H 2313.24 -1.46208 2.58864 0
M  V30 25500 H 2310.77 -0.653653 1.39881 0
M  V30 25501 H 2312.73 -3.76698 1.63123 0
M  V30 25502 H 2311.39 -3.06207 0.699724 0
M  V30 25503 H 2310.58 -4.1945 2.79424 0
M  V30 25504 H 2310.19 -2.46087 2.81633 0
M  V30 25505 H 2312.48 -5.31184 4.20535 0
M  V30 25506 H 2313.42 -4.48073 5.48303 0
M  V30 25507 H 2313.83 -4.2078 3.76303 0
M  V30 25508 N 2313.23 -1.40218 -0.719481 0
M  V30 25509 C 2314.17 -1.40175 -1.83357 0
M  V30 25510 C 2315.14 -0.259235 -1.64065 0
M  V30 25511 O 2316.33 -0.456709 -1.85253 0
M  V30 25512 C 2313.47 -1.26629 -3.21028 0
M  V30 25513 C 2312.58 -2.50554 -3.51918 0
M  V30 25514 C 2311.72 -2.2948 -4.79075 0
M  V30 25515 C 2310.76 -3.49001 -5.02857 0
M  V30 25516 N 2309.89 -3.27146 -6.21224 0
M  V30 25517 H 2314.73 -2.35402 -1.82729 0
M  V30 25518 H 2312.27 -1.16918 -0.892668 0
M  V30 25519 H 2314.23 -1.16783 -4.00522 0
M  V30 25520 H 2312.86 -0.350232 -3.20894 0
M  V30 25521 H 2311.91 -2.70944 -2.67009 0
M  V30 25522 H 2313.22 -3.39531 -3.65404 0
M  V30 25523 H 2312.38 -2.16965 -5.66578 0
M  V30 25524 H 2311.11 -1.37922 -4.67792 0
M  V30 25525 H 2310.12 -3.61997 -4.13809 0
M  V30 25526 H 2311.34 -4.41481 -5.16015 0
M  V30 25527 H 2309.29 -2.38267 -6.112 0
M  V30 25528 H 2309.21 -4.09687 -6.35368 0
M  V30 25529 H 2310.48 -3.18356 -7.11526 0
M  V30 25530 N 2314.7 0.951297 -1.25651 0
M  V30 25531 C 2315.67 2.03005 -1.06402 0
M  V30 25532 C 2316.67 1.60792 -0.0157077 0
M  V30 25533 O 2317.86 1.72276 -0.2582 0
M  V30 25534 C 2314.99 3.35284 -0.616243 0
M  V30 25535 H 2316.18 2.21514 -2.02168 0
M  V30 25536 H 2313.74 1.12885 -1.08105 0
M  V30 25537 H 2314.47 3.22472 0.343861 0
M  V30 25538 H 2314.26 3.67272 -1.37308 0
M  V30 25539 H 2315.75 4.14558 -0.503105 0
M  V30 25540 N 2316.18 1.07291 1.1544 0
M  V30 25541 C 2317.11 0.650624 2.19772 0
M  V30 25542 C 2318.13 -0.296544 1.60076 0
M  V30 25543 O 2319.32 -0.0859592 1.78293 0
M  V30 25544 C 2316.42 -0.0649803 3.38838 0
M  V30 25545 C 2315.59 0.898216 4.28078 0
M  V30 25546 C 2314.65 0.220019 5.2574 0
M  V30 25547 O 2313.67 0.860871 5.62652 0
M  V30 25548 N 2314.88 -1.03455 5.71207 0
M  V30 25549 H 2317.64 1.54812 2.56619 0
M  V30 25550 H 2315.2 0.957517 1.3055 0
M  V30 25551 H 2317.19 -0.529344 4.01223 0
M  V30 25552 H 2315.76 -0.864414 3.00411 0
M  V30 25553 H 2314.98 1.54171 3.62801 0
M  V30 25554 H 2316.27 1.55129 4.84574 0
M  V30 25555 H 2315.67 -1.57517 5.43328 0
M  V30 25556 H 2314.23 -1.44261 6.35635 0
M  V30 25557 N 2317.66 -1.32267 0.856927 0
M  V30 25558 C 2318.91 -1.97173 0.46142 0
M  V30 25559 C 2319.24 -1.67804 -0.983462 0
M  V30 25560 O 2318.49 -0.959933 -1.7054 0
M  V30 25561 C 2318.79 -3.5144 0.64998 0
M  V30 25562 C 2318.46 -4.008 2.06567 0
M  V30 25563 C 2317.12 -4.1399 2.45286 0
M  V30 25564 C 2319.47 -4.26937 2.98955 0
M  V30 25565 C 2316.8 -4.50662 3.75661 0
M  V30 25566 C 2319.15 -4.65068 4.2883 0
M  V30 25567 C 2317.81 -4.76464 4.67481 0
M  V30 25568 H 2317.08 -0.721507 0.168846 0
M  V30 25569 H 2319.73 -1.57631 1.08742 0
M  V30 25570 H 2318.04 -3.91755 -0.0592329 0
M  V30 25571 H 2319.73 -3.99689 0.32398 0
M  V30 25572 H 2316.32 -3.9102 1.75502 0
M  V30 25573 H 2320.51 -4.16253 2.70272 0
M  V30 25574 H 2315.76 -4.57681 4.05387 0
M  V30 25575 H 2319.94 -4.84246 5.00479 0
M  V30 25576 H 2317.56 -5.04636 5.68548 0
M  V30 25577 N 2319.14 -0.615084 -1.45102 0
M  V30 25578 C 2320.05 0.100993 -2.34383 0
M  V30 25579 C 2321.06 0.852559 -1.51682 0
M  V30 25580 O 2322.24 0.808452 -1.84461 0
M  V30 25581 C 2319.31 1.08093 -3.29419 0
M  V30 25582 C 2318.37 0.330502 -4.28026 0
M  V30 25583 C 2317.6 1.26376 -5.18522 0
M  V30 25584 O 2317.82 2.50189 -5.12603 0
M  V30 25585 O 2316.76 0.756761 -5.97124 0
M  V30 25586 H 2320.58 -0.632907 -2.97032 0
M  V30 25587 H 2318.17 -0.375319 -1.44609 0
M  V30 25588 H 2320.05 1.64513 -3.87961 0
M  V30 25589 H 2318.72 1.79573 -2.69324 0
M  V30 25590 H 2317.63 -0.276349 -3.73078 0
M  V30 25591 H 2318.96 -0.343952 -4.90997 0
M  V30 25592 N 2320.62 1.53557 -0.354678 0
M  V30 25593 C 2322.03 1.596 -0.00318231 0
M  V30 25594 C 2322.23 1.37024 1.47738 0
M  V30 25595 O 2321.29 1.17 2.23757 0
M  V30 25596 C 2322.6 2.97324 -0.449342 0
M  V30 25597 C 2324.15 3.104 -0.402632 0
M  V30 25598 C 2324.63 4.50519 -0.824434 0
M  V30 25599 N 2326.12 4.56601 -0.779059 0
M  V30 25600 C 2326.85 5.6319 -1.07725 0
M  V30 25601 N 2326.35 6.77581 -1.44417 0
M  V30 25602 N 2328.14 5.5312 -1.00076 0
M  V30 25603 H 2320.29 1.66485 -1.31896 0
M  V30 25604 H 2322.55 0.780274 -0.538402 0
M  V30 25605 H 2322.26 3.18947 -1.48208 0
M  V30 25606 H 2322.13 3.76818 0.169706 0
M  V30 25607 H 2324.52 2.88493 0.620954 0
M  V30 25608 H 2324.6 2.32939 -1.05703 0
M  V30 25609 H 2324.25 4.73162 -1.84608 0
M  V30 25610 H 2324.18 5.26394 -0.147397 0
M  V30 25611 H 2326.67 3.74462 -0.508594 0
M  V30 25612 H 2326.98 7.54843 -1.65625 0
M  V30 25613 H 2325.33 6.78999 -1.48272 0
M  V30 25614 H 2328.52 4.62632 -0.713374 0
M  V30 25615 H 2328.69 6.36093 -1.23649 0
M  V30 25616 N 2322.1 0.083568 1.57378 0
M  V30 25617 C 2323.37 -0.624475 1.85364 0
M  V30 25618 C 2323.75 -1.87064 0.978272 0
M  V30 25619 O 2323.1 -2.2845 0.047631 0
M  V30 25620 C 2323.31 -0.950888 3.35796 0
M  V30 25621 C 2324.66 -1.31931 4.03583 0
M  V30 25622 O 2325.68 -1.04226 3.4061 0
M  V30 25623 O 2324.54 -1.8377 5.14676 0
M  V30 25624 H 2321.64 -0.311315 0.766167 0
M  V30 25625 H 2324.18 0.115392 1.69307 0
M  V30 25626 H 2322.95 -0.0663212 3.91244 0
M  V30 25627 H 2322.58 -1.74712 3.57157 0
M  V30 25628 N 2323.57 -1.5645 -0.190064 0
M  V30 25629 C 2324.5 -1.97971 -1.23813 0
M  V30 25630 C 2325.48 -0.85242 -1.472 0
M  V30 25631 O 2326.67 -1.11712 -1.58852 0
M  V30 25632 C 2323.8 -2.32354 -2.58126 0
M  V30 25633 C 2322.75 -3.47868 -2.49342 0
M  V30 25634 C 2322.08 -3.67941 -3.87974 0
M  V30 25635 C 2323.38 -4.81901 -2.01416 0
M  V30 25636 H 2325.07 -2.85771 -0.89306 0
M  V30 25637 H 2322.62 -1.37488 -0.428153 0
M  V30 25638 H 2324.57 -2.59997 -3.31632 0
M  V30 25639 H 2323.3 -1.41443 -2.94383 0
M  V30 25640 H 2321.96 -3.20324 -1.78291 0
M  V30 25641 H 2321.6 -2.74352 -4.21592 0
M  V30 25642 H 2321.3 -4.45654 -3.8297 0
M  V30 25643 H 2322.83 -3.97965 -4.63094 0
M  V30 25644 H 2324.24 -5.08542 -2.64684 0
M  V30 25645 H 2322.64 -5.6312 -2.07403 0
M  V30 25646 H 2323.71 -4.75148 -0.967593 0
M  V30 25647 N 2325.05 0.45796 -1.50799 0
M  V30 25648 C 2325.98 1.57208 -1.66788 0
M  V30 25649 C 2327 1.53264 -0.548989 0
M  V30 25650 O 2328.19 1.58414 -0.822628 0
M  V30 25651 C 2325.29 2.9611 -1.64839 0
M  V30 25652 C 2324.46 3.24782 -2.92977 0
M  V30 25653 C 2323.52 4.43304 -2.83493 0
M  V30 25654 O 2322.54 4.42967 -3.57448 0
M  V30 25655 N 2323.75 5.45711 -1.97939 0
M  V30 25656 H 2326.51 1.43904 -2.62891 0
M  V30 25657 H 2324.07 0.646591 -1.48428 0
M  V30 25658 H 2326.06 3.73387 -1.5609 0
M  V30 25659 H 2324.63 3.03116 -0.764171 0
M  V30 25660 H 2323.85 2.35995 -3.15753 0
M  V30 25661 H 2325.14 3.40756 -3.7784 0
M  V30 25662 H 2324.54 5.48812 -1.37192 0
M  V30 25663 H 2323.1 6.21921 -1.95084 0
M  V30 25664 N 2326.53 1.40598 0.712035 0
M  V30 25665 C 2327.78 1.38793 1.46904 0
M  V30 25666 C 2328.1 -0.00776963 1.94998 0
M  V30 25667 O 2327.37 -0.963144 1.70588 0
M  V30 25668 H 2325.95 0.51083 0.545034 0
M  V30 25669 H 2328.61 1.75685 0.843851 0
M  V30 25670 H 2327.71 2.06501 2.34017 0
M  V30 25671 N 2328.01 -0.94462 1.26153 0
M  V30 25672 C 2329.42 -1.21752 1.03192 0
M  V30 25673 C 2329.62 -2.00004 -0.245077 0
M  V30 25674 O 2328.68 -2.33738 -0.955135 0
M  V30 25675 C 2329.99 -1.98215 2.26123 0
M  V30 25676 C 2331.54 -2.1122 2.30988 0
M  V30 25677 C 2332.02 -2.91083 3.53602 0
M  V30 25678 N 2333.51 -2.98658 3.54059 0
M  V30 25679 C 2334.24 -3.60873 4.45599 0
M  V30 25680 N 2333.74 -4.24617 5.47424 0
M  V30 25681 N 2335.53 -3.58112 4.33258 0
M  V30 25682 H 2327.68 -0.4214 2.08178 0
M  V30 25683 H 2329.94 -0.248953 0.914728 0
M  V30 25684 H 2329.65 -1.48122 3.18987 0
M  V30 25685 H 2329.52 -2.98891 2.30095 0
M  V30 25686 H 2331.91 -2.60505 1.3864 0
M  V30 25687 H 2331.99 -1.09817 2.31028 0
M  V30 25688 H 2331.64 -2.42485 4.46277 0
M  V30 25689 H 2331.57 -3.92735 3.50809 0
M  V30 25690 H 2334.06 -2.53338 2.80408 0
M  V30 25691 H 2334.37 -4.69976 6.13467 0
M  V30 25692 H 2332.72 -4.23214 5.51285 0
M  V30 25693 H 2335.91 -3.07504 3.52929 0
M  V30 25694 H 2336.08 -4.0631 5.04793 0
M  V30 25695 N 2329.49 -1.07901 -1.1487 0
M  V30 25696 C 2330.76 -0.718482 -1.81926 0
M  V30 25697 C 2331.14 0.798421 -1.95419 0
M  V30 25698 O 2330.49 1.71497 -1.51 0
M  V30 25699 C 2330.7 -1.43941 -3.17934 0
M  V30 25700 C 2332.05 -1.59513 -3.93498 0
M  V30 25701 O 2333.07 -1.40064 -3.27507 0
M  V30 25702 O 2331.93 -1.9156 -5.11827 0
M  V30 25703 H 2329.03 -0.256319 -0.786276 0
M  V30 25704 H 2331.57 -1.18028 -1.21932 0
M  V30 25705 H 2330.34 -2.47301 -3.03246 0
M  V30 25706 H 2329.97 -0.968755 -3.85618 0
M  V30 25707 N 2330.96 1.31811 -0.863929 0
M  V30 25708 C 2331.87 2.32428 -0.318502 0
M  V30 25709 C 2332.89 1.64452 0.568467 0
M  V30 25710 O 2334.07 1.9592 0.466625 0
M  V30 25711 C 2331.13 3.43413 0.476295 0
M  V30 25712 C 2330.19 4.27061 -0.437915 0
M  V30 25713 C 2329.42 5.32746 0.319045 0
M  V30 25714 O 2329.65 5.48996 1.54789 0
M  V30 25715 O 2328.58 6.01049 -0.319967 0
M  V30 25716 H 2332.41 2.80989 -1.15234 0
M  V30 25717 H 2329.99 1.356 -0.627126 0
M  V30 25718 H 2331.87 4.11076 0.927084 0
M  V30 25719 H 2330.55 2.97025 1.28678 0
M  V30 25720 H 2329.46 3.62174 -0.937077 0
M  V30 25721 H 2330.79 4.76998 -1.21383 0
M  V30 25722 N 2332.44 0.62277 1.44773 0
M  V30 25723 C 2333.37 -0.125445 2.28856 0
M  V30 25724 C 2334.39 -0.817044 1.40813 0
M  V30 25725 O 2335.58 -0.679889 1.65045 0
M  V30 25726 C 2332.68 -1.19944 3.16965 0
M  V30 25727 C 2331.85 -0.591988 4.33375 0
M  V30 25728 C 2330.91 -1.55884 5.0258 0
M  V30 25729 O 2329.93 -1.07923 5.58875 0
M  V30 25730 N 2331.14 -2.89325 5.03261 0
M  V30 25731 H 2333.9 0.596119 2.93712 0
M  V30 25732 H 2331.46 0.46333 1.55129 0
M  V30 25733 H 2333.45 -1.84638 3.60126 0
M  V30 25734 H 2332.02 -1.82333 2.53916 0
M  V30 25735 H 2331.24 0.233391 3.93508 0
M  V30 25736 H 2332.53 -0.166649 5.08527 0
M  V30 25737 H 2331.93 -3.30879 4.58842 0
M  V30 25738 H 2330.49 -3.49402 5.50238 0
M  V30 25739 N 2333.92 -1.53367 0.362817 0
M  V30 25740 C 2335.14 -2.06107 -0.23119 0
M  V30 25741 C 2335.57 -1.23477 -1.41898 0
M  V30 25742 O 2334.93 -0.25316 -1.79524 0
M  V30 25743 C 2334.98 -3.55481 -0.605461 0
M  V30 25744 O 2334.08 -3.75593 -1.70305 0
M  V30 25745 H 2333.42 -0.663113 -0.0343154 0
M  V30 25746 H 2335.95 -1.97813 0.522619 0
M  V30 25747 H 2335.96 -3.98458 -0.877244 0
M  V30 25748 H 2334.64 -4.15067 0.263077 0
M  V30 25749 H 2333.21 -3.44514 -1.42704 0
M  V30 25750 N 2335.4 -0.091913 -1.57332 0
M  V30 25751 C 2336.31 0.882467 -2.1737 0
M  V30 25752 C 2337.32 1.31255 -1.14228 0
M  V30 25753 O 2338.5 1.38112 -1.46585 0
M  V30 25754 C 2335.57 2.12471 -2.73965 0
M  V30 25755 C 2334.63 1.74913 -3.92051 0
M  V30 25756 C 2333.86 2.93215 -4.45938 0
M  V30 25757 O 2334.08 4.07845 -3.98771 0
M  V30 25758 O 2333.02 2.71866 -5.37003 0
M  V30 25759 H 2336.84 0.401667 -3.01032 0
M  V30 25760 H 2334.43 0.132264 -1.48813 0
M  V30 25761 H 2336.31 2.85278 -3.10152 0
M  V30 25762 H 2334.98 2.59609 -1.93351 0
M  V30 25763 H 2333.89 0.992961 -3.60681 0
M  V30 25764 H 2335.22 1.3254 -4.74019 0
M  V30 25765 N 2336.88 1.56548 0.181765 0
M  V30 25766 C 2337.79 1.98817 1.24535 0
M  V30 25767 C 2338.8 0.897887 1.49044 0
M  V30 25768 O 2339.98 1.2047 1.61397 0
M  V30 25769 C 2337.04 2.33059 2.56679 0
M  V30 25770 C 2336.1 3.55863 2.40125 0
M  V30 25771 C 2335.34 3.88463 3.65968 0
M  V30 25772 O 2335.56 3.22169 4.70705 0
M  V30 25773 O 2334.49 4.81849 3.60701 0
M  V30 25774 H 2338.32 2.89538 0.916596 0
M  V30 25775 H 2335.91 1.44279 0.387817 0
M  V30 25776 H 2337.79 2.561 3.3465 0
M  V30 25777 H 2336.46 1.45503 2.89155 0
M  V30 25778 H 2335.37 3.38054 1.6022 0
M  V30 25779 H 2336.7 4.43928 2.12578 0
M  V30 25780 N 2338.35 -0.449957 1.5104 0
M  V30 25781 C 2339.3 -1.5452 1.71441 0
M  V30 25782 C 2340.27 -1.56521 0.555899 0
M  V30 25783 O 2341.46 -1.73727 0.788902 0
M  V30 25784 C 2338.6 -2.9234 1.83389 0
M  V30 25785 C 2337.71 -2.99965 3.10878 0
M  V30 25786 C 2336.84 -4.28829 3.13495 0
M  V30 25787 C 2335.88 -4.30274 4.35351 0
M  V30 25788 N 2335.02 -5.50643 4.35588 0
M  V30 25789 H 2339.86 -1.36428 2.64936 0
M  V30 25790 H 2337.4 -0.662959 1.31314 0
M  V30 25791 H 2339.36 -3.7229 1.88298 0
M  V30 25792 H 2337.99 -3.09018 0.93314 0
M  V30 25793 H 2337.04 -2.12755 3.1534 0
M  V30 25794 H 2338.35 -2.96893 4.00819 0
M  V30 25795 H 2337.5 -5.17143 3.1725 0
M  V30 25796 H 2336.24 -4.34539 2.21421 0
M  V30 25797 H 2335.25 -3.40354 4.31786 0
M  V30 25798 H 2336.47 -4.26239 5.28675 0
M  V30 25799 H 2334.42 -5.57098 3.46378 0
M  V30 25800 H 2334.34 -5.494 5.19323 0
M  V30 25801 H 2335.6 -6.41024 4.43518 0
M  V30 25802 N 2339.83 -1.40974 -0.704569 0
M  V30 25803 C 2340.78 -1.42112 -1.8186 0
M  V30 25804 C 2341.75 -0.276622 -1.6378 0
M  V30 25805 O 2342.93 -0.476332 -1.84759 0
M  V30 25806 C 2340.07 -1.30027 -3.19667 0
M  V30 25807 C 2339.19 -2.54273 -3.49241 0
M  V30 25808 C 2338.32 -2.34548 -4.76614 0
M  V30 25809 C 2337.36 -3.54315 -4.99127 0
M  V30 25810 N 2336.5 -3.33717 -6.1772 0
M  V30 25811 H 2341.34 -2.37327 -1.80222 0
M  V30 25812 H 2338.88 -1.17858 -0.880217 0
M  V30 25813 H 2340.83 -1.21025 -3.9926 0
M  V30 25814 H 2339.46 -0.384248 -3.20505 0
M  V30 25815 H 2338.52 -2.7376 -2.6412 0
M  V30 25816 H 2339.83 -3.43388 -3.61782 0
M  V30 25817 H 2338.98 -2.22962 -5.64245 0
M  V30 25818 H 2337.72 -1.42875 -4.66302 0
M  V30 25819 H 2336.73 -3.66366 -4.09947 0
M  V30 25820 H 2337.95 -4.46929 -5.11303 0
M  V30 25821 H 2335.9 -2.44736 -6.08638 0
M  V30 25822 H 2335.81 -4.16403 -6.30987 0
M  V30 25823 H 2337.08 -3.25885 -7.0811 0
M  V30 25824 N 2341.31 0.937917 -1.26653 0
M  V30 25825 C 2342.26 2.0371 -1.08493 0
M  V30 25826 C 2343.23 1.66096 0.0110038 0
M  V30 25827 O 2344.41 1.90214 -0.149387 0
M  V30 25828 C 2341.55 3.37347 -0.72741 0
M  V30 25829 C 2340.67 3.87978 -1.89993 0
M  V30 25830 C 2339.8 5.10014 -1.48522 0
M  V30 25831 C 2338.84 5.52915 -2.62585 0
M  V30 25832 N 2337.98 6.66154 -2.21773 0
M  V30 25833 H 2342.82 2.18576 -2.02555 0
M  V30 25834 H 2340.35 1.07091 -1.00846 0
M  V30 25835 H 2342.31 4.14181 -0.500993 0
M  V30 25836 H 2340.94 3.22319 0.176241 0
M  V30 25837 H 2339.99 3.07514 -2.23919 0
M  V30 25838 H 2341.31 4.15752 -2.75593 0
M  V30 25839 H 2340.46 5.94318 -1.21945 0
M  V30 25840 H 2339.2 4.83993 -0.600175 0
M  V30 25841 H 2338.2 4.67167 -2.89889 0
M  V30 25842 H 2339.43 5.80937 -3.51695 0
M  V30 25843 H 2337.37 6.4181 -1.35707 0
M  V30 25844 H 2337.29 6.93532 -3.00915 0
M  V30 25845 H 2338.56 7.53824 -1.98416 0
M  V30 25846 N 2342.79 1.08509 1.14296 0
M  V30 25847 C 2343.72 0.673897 2.19069 0
M  V30 25848 C 2344.73 -0.279549 1.60382 0
M  V30 25849 O 2345.92 -0.067044 1.78374 0
M  V30 25850 C 2343.02 -0.0290383 3.38888 0
M  V30 25851 C 2342.2 0.943569 4.27101 0
M  V30 25852 C 2341.25 0.275768 5.25477 0
M  V30 25853 O 2340.28 0.9205 5.61708 0
M  V30 25854 N 2341.48 -0.973913 5.72272 0
M  V30 25855 H 2344.25 1.57525 2.54963 0
M  V30 25856 H 2341.81 0.97131 1.29527 0
M  V30 25857 H 2343.8 -0.486759 4.01762 0
M  V30 25858 H 2342.37 -0.832502 3.01311 0
M  V30 25859 H 2341.59 1.5801 3.61146 0
M  V30 25860 H 2342.88 1.6026 4.82902 0
M  V30 25861 H 2342.28 -1.51745 5.44968 0
M  V30 25862 H 2340.83 -1.37511 6.37129 0
M  V30 25863 N 2344.27 -1.31351 0.870907 0
M  V30 25864 C 2345.2 -2.30965 0.343137 0
M  V30 25865 C 2346.18 -1.6039 -0.566479 0
M  V30 25866 O 2347.36 -1.8809 -0.483303 0
M  V30 25867 C 2344.49 -3.44301 -0.455426 0
M  V30 25868 C 2343.45 -4.26473 0.361178 0
M  V30 25869 C 2342.77 -5.31726 -0.563127 0
M  V30 25870 C 2344.07 -4.97326 1.59575 0
M  V30 25871 H 2345.77 -2.75357 1.17553 0
M  V30 25872 H 2343.31 -1.3238 0.566709 0
M  V30 25873 H 2345.27 -4.13041 -0.835178 0
M  V30 25874 H 2343.99 -2.98678 -1.32134 0
M  V30 25875 H 2342.65 -3.59402 0.722888 0
M  V30 25876 H 2342.3 -4.82353 -1.42634 0
M  V30 25877 H 2342 -5.87596 -0.0206376 0
M  V30 25878 H 2343.52 -6.03326 -0.939702 0
M  V30 25879 H 2344.93 -5.58659 1.28738 0
M  V30 25880 H 2343.33 -5.62996 2.07738 0
M  V30 25881 H 2344.4 -4.24258 2.34805 0
M  V30 25882 N 2345.74 -0.630439 -1.44441 0
M  V30 25883 C 2346.99 -0.134852 -2.02351 0
M  V30 25884 C 2347.32 1.23983 -1.49472 0
M  V30 25885 O 2346.6 1.82281 -0.678507 0
M  V30 25886 C 2346.88 -0.12077 -3.59897 0
M  V30 25887 C 2346.73 -1.52774 -4.2306 0
M  V30 25888 C 2348.05 0.55505 -4.36586 0
M  V30 25889 H 2345.17 -0.0504775 -0.735269 0
M  V30 25890 H 2347.81 -0.806781 -1.7202 0
M  V30 25891 H 2345.96 0.451409 -3.85869 0
M  V30 25892 H 2347.64 -2.14876 -4.08199 0
M  V30 25893 H 2345.88 -2.08182 -3.80582 0
M  V30 25894 H 2346.55 -1.46993 -5.32069 0
M  V30 25895 H 2349.03 0.0684697 -4.16044 0
M  V30 25896 H 2347.9 0.534089 -5.46295 0
M  V30 25897 H 2348.16 1.62528 -4.11141 0
M  V30 25898 N 2347.22 1.53172 -0.370945 0
M  V30 25899 C 2348.64 1.59587 -0.0201098 0
M  V30 25900 C 2348.84 1.38583 1.46277 0
M  V30 25901 O 2347.89 1.19367 2.22504 0
M  V30 25902 C 2349.21 2.9683 -0.480852 0
M  V30 25903 C 2350.76 3.09955 -0.435532 0
M  V30 25904 C 2351.23 4.49619 -0.872171 0
M  V30 25905 N 2352.72 4.55749 -0.827444 0
M  V30 25906 C 2353.46 5.62016 -1.13692 0
M  V30 25907 N 2352.95 6.76011 -1.51595 0
M  V30 25908 N 2354.75 5.52027 -1.05937 0
M  V30 25909 H 2346.9 1.65076 -1.33655 0
M  V30 25910 H 2349.16 0.77452 -0.546647 0
M  V30 25911 H 2348.87 3.17357 -1.51583 0
M  V30 25912 H 2348.74 3.76977 0.129729 0
M  V30 25913 H 2351.13 2.89135 0.59032 0
M  V30 25914 H 2351.21 2.31805 -1.08168 0
M  V30 25915 H 2350.85 4.71177 -1.89616 0
M  V30 25916 H 2350.78 5.26208 -0.20322 0
M  V30 25917 H 2353.27 3.73901 -0.548282 0
M  V30 25918 H 2353.59 7.53044 -1.73622 0
M  V30 25919 H 2351.93 6.77389 -1.55466 0
M  V30 25920 H 2355.12 4.6185 -0.762402 0
M  V30 25921 H 2355.29 6.34746 -1.30389 0
M  V30 25922 N 2348.7 0.100255 1.57281 0
M  V30 25923 C 2349.63 -0.886935 2.11344 0
M  V30 25924 C 2350.65 -1.24259 1.05184 0
M  V30 25925 O 2351.83 -1.1948 1.32615 0
M  V30 25926 C 2348.93 -2.19449 2.58254 0
M  V30 25927 C 2348.11 -2.01339 3.88306 0
M  V30 25928 C 2347.17 -3.15654 4.2101 0
M  V30 25929 O 2346.19 -2.8939 4.90145 0
M  V30 25930 N 2347.39 -4.41568 3.76826 0
M  V30 25931 H 2350.16 -0.425163 2.96669 0
M  V30 25932 H 2347.72 -0.084705 1.61678 0
M  V30 25933 H 2349.71 -2.94883 2.77175 0
M  V30 25934 H 2348.28 -2.57034 1.77912 0
M  V30 25935 H 2347.5 -1.10205 3.78482 0
M  V30 25936 H 2348.79 -1.86522 4.73378 0
M  V30 25937 H 2348.19 -4.65787 3.21029 0
M  V30 25938 H 2346.75 -5.13935 4.00892 0
M  V30 25939 N 2350.18 -1.56643 -0.17346 0
M  V30 25940 C 2351.43 -1.82142 -0.891752 0
M  V30 25941 C 2351.76 -0.677768 -1.81989 0
M  V30 25942 O 2351.03 0.320412 -1.91843 0
M  V30 25943 C 2351.32 -3.18018 -1.68928 0
M  V30 25944 C 2351.17 -4.42908 -0.784409 0
M  V30 25945 C 2352.49 -3.50812 -2.65742 0
M  V30 25946 H 2349.61 -0.662572 -0.322749 0
M  V30 25947 H 2352.25 -1.89341 -0.158062 0
M  V30 25948 H 2350.4 -3.12011 -2.31476 0
M  V30 25949 H 2352.07 -4.60979 -0.171965 0
M  V30 25950 H 2350.31 -4.33702 -0.0923355 0
M  V30 25951 H 2350.99 -5.34526 -1.3779 0
M  V30 25952 H 2353.46 -3.57259 -2.1332 0
M  V30 25953 H 2352.34 -4.46965 -3.18612 0
M  V30 25954 H 2352.6 -2.75407 -3.45838 0
M  V30 25955 N 2351.66 0.44194 -1.51277 0
M  V30 25956 C 2353.07 0.778059 -1.3935 0
M  V30 25957 C 2353.27 1.95888 -0.472246 0
M  V30 25958 O 2352.33 2.52391 0.0743107 0
M  V30 25959 C 2353.64 1.06275 -2.81294 0
M  V30 25960 C 2355.19 1.16746 -2.90412 0
M  V30 25961 C 2355.67 1.48512 -4.33253 0
M  V30 25962 N 2357.16 1.55445 -4.36338 0
M  V30 25963 C 2357.89 1.81586 -5.43888 0
M  V30 25964 N 2357.39 2.05551 -6.61605 0
M  V30 25965 N 2359.18 1.8333 -5.31363 0
M  V30 25966 H 2351.33 -0.335811 -2.09729 0
M  V30 25967 H 2353.59 -0.0878193 -0.943924 0
M  V30 25968 H 2353.3 0.267843 -3.50679 0
M  V30 25969 H 2353.17 1.99157 -3.20338 0
M  V30 25970 H 2355.56 1.953 -2.21228 0
M  V30 25971 H 2355.64 0.217756 -2.54871 0
M  V30 25972 H 2355.29 0.704869 -5.02985 0
M  V30 25973 H 2355.22 2.44681 -4.66304 0
M  V30 25974 H 2357.71 1.38847 -3.51468 0
M  V30 25975 H 2358.02 2.24854 -7.39365 0
M  V30 25976 H 2356.37 2.02882 -6.64728 0
M  V30 25977 H 2359.56 1.64124 -4.38384 0
M  V30 25978 H 2359.73 2.03366 -6.15261 0
M  V30 25979 N 2353.14 1.41345 0.697083 0
M  V30 25980 C 2354.05 1.4543 1.84085 0
M  V30 25981 C 2355.06 0.34504 1.70545 0
M  V30 25982 O 2356.24 0.592526 1.92487 0
M  V30 25983 C 2353.3 1.33292 3.20053 0
M  V30 25984 C 2352.36 2.5452 3.45713 0
M  V30 25985 C 2351.6 2.42952 4.75195 0
M  V30 25986 O 2351.82 1.45328 5.51576 0
M  V30 25987 O 2350.75 3.32681 5.01604 0
M  V30 25988 H 2354.58 2.41922 1.83595 0
M  V30 25989 H 2352.16 1.22867 0.849945 0
M  V30 25990 H 2354.05 1.28801 4.01233 0
M  V30 25991 H 2352.72 0.399146 3.2123 0
M  V30 25992 H 2351.63 2.64588 2.64469 0
M  V30 25993 H 2352.96 3.46721 3.4935 0
M  V30 25994 N 2354.61 -0.931187 1.27148 0
M  V30 25995 C 2355.55 -2.03178 1.03893 0
M  V30 25996 C 2356.52 -1.62552 -0.039543 0
M  V30 25997 O 2357.71 -1.88208 0.1049 0
M  V30 25998 C 2354.84 -3.33779 0.575285 0
M  V30 25999 C 2353.88 -3.93382 1.64781 0
M  V30 26000 S 2354.71 -4.26407 3.2394 0
M  V30 26001 C 2355.87 -5.60093 2.79368 0
M  V30 26002 H 2356.1 -2.22592 1.97079 0
M  V30 26003 H 2353.64 -1.07385 1.1094 0
M  V30 26004 H 2355.59 -4.09294 0.314457 0
M  V30 26005 H 2354.26 -3.12293 -0.33645 0
M  V30 26006 H 2353.45 -4.87616 1.27463 0
M  V30 26007 H 2353.05 -3.24438 1.86053 0
M  V30 26008 H 2355.34 -6.39239 2.24454 0
M  V30 26009 H 2356.29 -6.02307 3.72333 0
M  V30 26010 H 2356.69 -5.20448 2.18619 0
M  V30 26011 N 2356.09 -1.09114 -1.13719 0
M  V30 26012 C 2357 -0.739609 -2.22636 0
M  V30 26013 C 2358.02 0.257037 -1.72091 0
M  V30 26014 O 2359.19 0.0991801 -2.01156 0
M  V30 26015 C 2356.26 -0.16197 -3.46321 0
M  V30 26016 C 2355.32 -1.21415 -4.11773 0
M  V30 26017 C 2354.55 -0.663984 -5.29554 0
M  V30 26018 O 2354.78 0.514174 -5.68078 0
M  V30 26019 O 2353.71 -1.41748 -5.84971 0
M  V30 26020 H 2357.54 -1.6484 -2.55071 0
M  V30 26021 H 2355.12 -0.86531 -1.2179 0
M  V30 26022 H 2357 0.156999 -4.21107 0
M  V30 26023 H 2355.68 0.719877 -3.15594 0
M  V30 26024 H 2354.58 -1.58577 -3.38828 0
M  V30 26025 H 2355.92 -2.06853 -4.46624 0
M  V30 26026 N 2357.57 1.30887 -0.877861 0
M  V30 26027 C 2358.53 2.26599 -0.344305 0
M  V30 26028 C 2359.53 1.52525 0.509193 0
M  V30 26029 O 2360.72 1.71285 0.317368 0
M  V30 26030 C 2357.85 3.37061 0.510139 0
M  V30 26031 H 2359.05 2.75308 -1.18935 0
M  V30 26032 H 2356.6 1.41954 -0.654113 0
M  V30 26033 H 2357.34 2.93658 1.37606 0
M  V30 26034 H 2357.12 3.9197 -0.101116 0
M  V30 26035 H 2358.61 4.0832 0.875465 0
M  V30 26036 N 2359.05 0.638091 1.44105 0
M  V30 26037 C 2359.96 -0.0636922 2.34514 0
M  V30 26038 C 2360.97 -0.828319 1.53019 0
M  V30 26039 O 2362.15 -0.779003 1.85724 0
M  V30 26040 C 2359.21 -1.02839 3.31097 0
M  V30 26041 C 2358.28 -0.262364 4.28498 0
M  V30 26042 C 2357.51 -1.18111 5.20467 0
M  V30 26043 O 2357.73 -2.42002 5.16518 0
M  V30 26044 O 2356.67 -0.661668 5.98252 0
M  V30 26045 H 2360.49 0.680082 2.95987 0
M  V30 26046 H 2358.08 0.398277 1.43993 0
M  V30 26047 H 2359.96 -1.5832 3.90529 0
M  V30 26048 H 2358.63 -1.75265 2.72147 0
M  V30 26049 H 2357.54 0.335667 3.72591 0
M  V30 26050 H 2358.87 0.422022 4.90387 0
M  V30 26051 N 2360.53 -1.52973 0.379063 0
M  V30 26052 C 2361.46 -2.2907 -0.452665 0
M  V30 26053 C 2362.44 -1.32041 -1.07235 0
M  V30 26054 O 2363.62 -1.60925 -1.08705 0
M  V30 26055 C 2360.75 -3.08995 -1.58554 0
M  V30 26056 C 2359.71 -4.13824 -1.09243 0
M  V30 26057 C 2359.03 -4.81911 -2.31659 0
M  V30 26058 C 2360.33 -5.22031 -0.16761 0
M  V30 26059 H 2362.03 -2.98845 0.182233 0
M  V30 26060 H 2359.57 -1.43724 0.0890845 0
M  V30 26061 H 2361.52 -3.60983 -2.17414 0
M  V30 26062 H 2360.25 -2.36935 -2.24788 0
M  V30 26063 H 2358.91 -3.62801 -0.526431 0
M  V30 26064 H 2358.56 -4.06409 -2.96379 0
M  V30 26065 H 2358.26 -5.52758 -1.9933 0
M  V30 26066 H 2359.78 -5.367 -2.9118 0
M  V30 26067 H 2361.19 -5.69441 -0.664086 0
M  V30 26068 H 2359.59 -6.00064 0.065432 0
M  V30 26069 H 2360.66 -4.7848 0.786431 0
M  V30 26070 N 2362 -0.108595 -1.57225 0
M  V30 26071 C 2362.91 0.859363 -2.18294 0
M  V30 26072 C 2363.93 1.30036 -1.15614 0
M  V30 26073 O 2365.11 1.36549 -1.48041 0
M  V30 26074 C 2362.17 2.09553 -2.76204 0
M  V30 26075 C 2361.23 1.70745 -3.93884 0
M  V30 26076 C 2360.46 2.88469 -4.49023 0
M  V30 26077 O 2360.69 4.03592 -4.03075 0
M  V30 26078 O 2359.62 2.66155 -5.39857 0
M  V30 26079 H 2363.45 0.369716 -3.01441 0
M  V30 26080 H 2361.03 0.116473 -1.48945 0
M  V30 26081 H 2362.91 2.81972 -3.13161 0
M  V30 26082 H 2361.59 2.57544 -1.96094 0
M  V30 26083 H 2360.5 0.95465 -3.61714 0
M  V30 26084 H 2361.83 1.27505 -4.75398 0
M  V30 26085 N 2363.48 1.56732 0.16515 0
M  V30 26086 C 2364.76 1.73226 0.908412 0
M  V30 26087 C 2365.14 0.671685 2.00129 0
M  V30 26088 O 2364.49 -0.312491 2.26353 0
M  V30 26089 C 2364.7 3.16647 1.4675 0
M  V30 26090 C 2366.04 3.77791 1.93802 0
M  V30 26091 O 2367.07 3.19963 1.56531 0
M  V30 26092 O 2365.93 4.79341 2.62478 0
M  V30 26093 H 2363.02 0.707626 0.428013 0
M  V30 26094 H 2365.57 1.69013 0.152496 0
M  V30 26095 H 2364.34 3.85325 0.681222 0
M  V30 26096 H 2363.96 3.25211 2.28743 0
M  V30 26097 N 2364.96 -0.433911 1.51509 0
M  V30 26098 C 2365.87 -1.55207 1.7592 0
M  V30 26099 C 2366.89 -1.61661 0.643574 0
M  V30 26100 O 2368.06 -1.78839 0.926214 0
M  V30 26101 C 2365.13 -2.91161 1.88218 0
M  V30 26102 C 2364.19 -2.94796 3.12079 0
M  V30 26103 C 2363.42 -4.24266 3.23782 0
M  V30 26104 O 2363.64 -5.16829 2.41339 0
M  V30 26105 O 2362.58 -4.34255 4.16781 0
M  V30 26106 H 2366.4 -1.37522 2.70779 0
M  V30 26107 H 2363.99 -0.617269 1.36052 0
M  V30 26108 H 2365.87 -3.71841 1.98273 0
M  V30 26109 H 2364.55 -3.08967 0.965467 0
M  V30 26110 H 2363.45 -2.13059 3.07501 0
M  V30 26111 H 2364.79 -2.81936 4.03451 0
M  V30 26112 N 2366.44 -1.41713 -0.689577 0
M  V30 26113 C 2367.85 -1.24314 -1.00091 0
M  V30 26114 C 2368.05 -0.136764 -2.01035 0
M  V30 26115 O 2367.11 0.496874 -2.47563 0
M  V30 26116 C 2368.42 -2.59466 -1.5198 0
M  V30 26117 C 2369.97 -2.66698 -1.63833 0
M  V30 26118 C 2370.45 -4.0218 -2.19123 0
M  V30 26119 N 2371.94 -4.04058 -2.26476 0
M  V30 26120 C 2372.67 -5.05694 -2.70297 0
M  V30 26121 N 2372.17 -6.17719 -3.1368 0
M  V30 26122 N 2373.96 -4.93054 -2.69915 0
M  V30 26123 H 2366.11 -2.1239 -0.0209656 0
M  V30 26124 H 2368.38 -0.945273 -0.0718567 0
M  V30 26125 H 2368.08 -3.41208 -0.85263 0
M  V30 26126 H 2367.96 -2.82366 -2.50098 0
M  V30 26127 H 2370.34 -1.8531 -2.29661 0
M  V30 26128 H 2370.42 -2.47601 -0.642449 0
M  V30 26129 H 2370.07 -4.84019 -1.53909 0
M  V30 26130 H 2370 -4.18621 -3.19475 0
M  V30 26131 H 2372.49 -3.23178 -1.95868 0
M  V30 26132 H 2372.8 -6.91136 -3.45761 0
M  V30 26133 H 2371.15 -6.21246 -3.11574 0
M  V30 26134 H 2374.34 -4.04618 -2.35375 0
M  V30 26135 H 2374.51 -5.724 -3.03748 0
M  V30 26136 N 2367.92 0.924431 -1.2764 0
M  V30 26137 C 2368.86 2.02548 -1.10648 0
M  V30 26138 C 2369.83 1.66099 -0.00661358 0
M  V30 26139 O 2371.02 1.90045 -0.169553 0
M  V30 26140 C 2368.16 3.36556 -0.763149 0
M  V30 26141 C 2367.27 3.85941 -1.94098 0
M  V30 26142 C 2366.41 5.0841 -1.53923 0
M  V30 26143 C 2365.45 5.50099 -2.68435 0
M  V30 26144 N 2364.58 6.63764 -2.28826 0
M  V30 26145 H 2369.42 2.16415 -2.04862 0
M  V30 26146 H 2366.96 1.06015 -1.01976 0
M  V30 26147 H 2368.92 4.13626 -0.544894 0
M  V30 26148 H 2367.55 3.22487 0.142045 0
M  V30 26149 H 2366.6 3.05121 -2.27168 0
M  V30 26150 H 2367.91 4.12806 -2.79987 0
M  V30 26151 H 2367.07 5.92992 -1.28241 0
M  V30 26152 H 2365.8 4.83329 -0.651476 0
M  V30 26153 H 2364.81 4.64066 -2.94827 0
M  V30 26154 H 2366.03 5.77174 -3.57837 0
M  V30 26155 H 2363.98 6.40334 -1.42507 0
M  V30 26156 H 2363.9 6.90301 -3.08254 0
M  V30 26157 H 2365.17 7.51678 -2.064 0
M  V30 26158 N 2369.39 1.09715 1.13139 0
M  V30 26159 C 2370.33 0.697094 2.18342 0
M  V30 26160 C 2371.34 -0.262523 1.60669 0
M  V30 26161 O 2372.53 -0.0481213 1.78435 0
M  V30 26162 C 2369.63 0.00690685 3.38899 0
M  V30 26163 C 2368.8 0.988816 4.26077 0
M  V30 26164 C 2367.86 0.331486 5.25155 0
M  V30 26165 O 2366.89 0.980025 5.607 0
M  V30 26166 N 2368.09 -0.913161 5.73273 0
M  V30 26167 H 2370.85 1.60221 2.53277 0
M  V30 26168 H 2368.41 0.984993 1.28489 0
M  V30 26169 H 2370.41 -0.44412 4.02256 0
M  V30 26170 H 2368.98 -0.800498 3.02177 0
M  V30 26171 H 2368.2 1.61832 3.5945 0
M  V30 26172 H 2369.48 1.65373 4.81175 0
M  V30 26173 H 2368.88 -1.45956 5.46547 0
M  V30 26174 H 2367.44 -1.30746 6.38552 0
M  V30 26175 N 2370.87 -1.30419 0.88479 0
M  V30 26176 C 2372.29 -1.48736 0.578766 0
M  V30 26177 C 2372.49 -1.81096 -0.883535 0
M  V30 26178 O 2371.54 -1.89847 -1.66477 0
M  V30 26179 C 2372.86 -2.61088 1.49175 0
M  V30 26180 C 2374.41 -2.74969 1.49536 0
M  V30 26181 C 2374.88 -3.90434 2.39428 0
M  V30 26182 N 2376.37 -3.97744 2.3739 0
M  V30 26183 C 2377.11 -4.86396 3.03656 0
M  V30 26184 N 2376.6 -5.79845 3.79146 0
M  V30 26185 N 2378.4 -4.79763 2.92889 0
M  V30 26186 H 2370.55 -1.07687 1.83077 0
M  V30 26187 H 2372.81 -0.533482 0.783646 0
M  V30 26188 H 2372.52 -2.43997 2.53295 0
M  V30 26189 H 2372.39 -3.57563 1.20119 0
M  V30 26190 H 2374.78 -2.91466 0.461681 0
M  V30 26191 H 2374.86 -1.79116 1.82623 0
M  V30 26192 H 2374.5 -3.74693 3.42881 0
M  V30 26193 H 2374.43 -4.85625 2.03658 0
M  V30 26194 H 2376.92 -3.30894 1.82531 0
M  V30 26195 H 2377.24 -6.44252 4.268 0
M  V30 26196 H 2375.58 -5.79777 3.83254 0
M  V30 26197 H 2378.77 -4.05738 2.3344 0
M  V30 26198 H 2378.94 -5.48644 3.44809 0
M  V30 26199 N 2372.35 -0.645724 -1.43764 0
M  V30 26200 C 2373.58 -0.16192 -2.06767 0
M  V30 26201 C 2374 1.16047 -1.48037 0
M  V30 26202 O 2373.36 1.71521 -0.587399 0
M  V30 26203 C 2373.41 -0.0762636 -3.60519 0
M  V30 26204 O 2372.51 0.96365 -4.00983 0
M  V30 26205 H 2371.85 -0.0914405 -0.657674 0
M  V30 26206 H 2374.38 -0.886531 -1.84396 0
M  V30 26207 H 2374.39 0.109532 -4.07853 0
M  V30 26208 H 2373.07 -1.04164 -4.02644 0
M  V30 26209 H 2371.64 0.751248 -3.65254 0
M  V30 26210 N 2373.83 1.5277 -0.38717 0
M  V30 26211 C 2374.76 2.22809 0.493084 0
M  V30 26212 C 2375.74 1.228 1.06578 0
M  V30 26213 O 2376.92 1.51779 1.11783 0
M  V30 26214 C 2374.05 2.93965 1.68232 0
M  V30 26215 C 2373.1 4.08225 1.23508 0
M  V30 26216 S 2373.93 5.35055 0.218386 0
M  V30 26217 C 2375.09 6.09731 1.41346 0
M  V30 26218 H 2375.32 2.97126 -0.101678 0
M  V30 26219 H 2372.85 1.53446 -0.17135 0
M  V30 26220 H 2374.81 3.35571 2.36437 0
M  V30 26221 H 2373.47 2.19332 2.24838 0
M  V30 26222 H 2372.66 4.57106 2.12296 0
M  V30 26223 H 2372.27 3.68622 0.631979 0
M  V30 26224 H 2374.56 6.35774 2.3409 0
M  V30 26225 H 2375.5 7.01485 0.965613 0
M  V30 26226 H 2375.91 5.40476 1.6293 0
M  V30 26227 N 2375.31 0.116931 1.57166 0
M  V30 26228 C 2376.27 -0.819705 2.14041 0
M  V30 26229 C 2377.27 -1.19603 1.07479 0
M  V30 26230 O 2378.46 -1.12188 1.33265 0
M  V30 26231 C 2375.59 -2.10821 2.67894 0
M  V30 26232 H 2376.78 -0.325459 2.98129 0
M  V30 26233 H 2374.34 -0.132285 1.55739 0
M  V30 26234 H 2375.07 -2.64681 1.87388 0
M  V30 26235 H 2374.86 -1.84787 3.45827 0
M  V30 26236 H 2376.35 -2.7778 3.11814 0
M  V30 26237 N 2376.78 -1.56818 -0.156836 0
M  V30 26238 C 2378.03 -1.83077 -0.872383 0
M  V30 26239 C 2378.36 -0.697033 -1.8126 0
M  V30 26240 O 2377.64 0.300046 -1.92172 0
M  V30 26241 C 2377.92 -3.19792 -1.65545 0
M  V30 26242 C 2377.77 -4.43715 -0.737389 0
M  V30 26243 C 2379.09 -3.53611 -2.62006 0
M  V30 26244 H 2376.21 -0.665958 -0.315704 0
M  V30 26245 H 2378.85 -1.89498 -0.137971 0
M  V30 26246 H 2377 -3.14449 -2.28154 0
M  V30 26247 H 2378.68 -4.61136 -0.123062 0
M  V30 26248 H 2376.92 -4.33775 -0.0463305 0
M  V30 26249 H 2377.59 -5.35957 -1.32113 0
M  V30 26250 H 2380.07 -3.59501 -2.09519 0
M  V30 26251 H 2378.94 -4.50319 -3.13853 0
M  V30 26252 H 2379.2 -2.79059 -3.42897 0
M  V30 26253 N 2378.26 0.425871 -1.51737 0
M  V30 26254 C 2379.23 1.50029 -1.73274 0
M  V30 26255 C 2380.23 1.49079 -0.602665 0
M  V30 26256 O 2381.42 1.50899 -0.870357 0
M  V30 26257 C 2378.55 2.8952 -1.79975 0
M  V30 26258 H 2379.74 1.32232 -2.69174 0
M  V30 26259 H 2377.29 0.655295 -1.419 0
M  V30 26260 H 2378.03 3.12708 -0.859296 0
M  V30 26261 H 2377.81 2.91614 -2.62114 0
M  V30 26262 H 2379.3 3.67441 -1.98437 0
M  V30 26263 N 2379.74 1.42077 0.682052 0
M  V30 26264 C 2380.7 1.44694 1.77753 0
M  V30 26265 C 2381.7 0.335563 1.5726 0
M  V30 26266 O 2382.89 0.596066 1.63685 0
M  V30 26267 C 2380.03 1.27152 3.16299 0
M  V30 26268 H 2381.22 2.42227 1.76822 0
M  V30 26269 H 2378.77 1.28418 0.890989 0
M  V30 26270 H 2379.51 0.305131 3.22861 0
M  V30 26271 H 2379.29 2.07689 3.32577 0
M  V30 26272 H 2380.78 1.3185 3.96239 0
M  V30 26273 N 2381.22 -0.917649 1.28129 0
M  V30 26274 C 2382.64 -1.19536 1.05751 0
M  V30 26275 C 2382.84 -2.00479 -0.202598 0
M  V30 26276 O 2381.89 -2.35711 -0.905341 0
M  V30 26277 C 2383.2 -1.93374 2.30276 0
M  V30 26278 C 2384.75 -2.06272 2.35416 0
M  V30 26279 C 2385.23 -2.83517 3.59697 0
M  V30 26280 N 2386.72 -2.91081 3.60314 0
M  V30 26281 C 2387.45 -3.5134 4.53153 0
M  V30 26282 N 2386.95 -4.12909 5.56307 0
M  V30 26283 N 2388.74 -3.48841 4.40757 0
M  V30 26284 H 2380.89 -0.377148 2.09025 0
M  V30 26285 H 2383.16 -0.229494 0.919802 0
M  V30 26286 H 2382.86 -1.41323 3.22057 0
M  V30 26287 H 2382.74 -2.93943 2.36384 0
M  V30 26288 H 2385.12 -2.57506 1.44134 0
M  V30 26289 H 2385.2 -1.04891 2.33305 0
M  V30 26290 H 2384.85 -2.32965 4.5132 0
M  V30 26291 H 2384.78 -3.85205 3.59061 0
M  V30 26292 H 2387.27 -2.47333 2.85718 0
M  V30 26293 H 2387.58 -4.56858 6.23298 0
M  V30 26294 H 2385.93 -4.11425 5.60138 0
M  V30 26295 H 2389.12 -2.99948 3.59373 0
M  V30 26296 H 2389.29 -3.95511 5.13298 0
M  V30 26297 N 2382.7 -1.10314 -1.12555 0
M  V30 26298 C 2383.64 -0.750819 -2.18246 0
M  V30 26299 C 2384.61 0.272264 -1.63853 0
M  V30 26300 O 2385.8 0.151828 -1.90195 0
M  V30 26301 C 2382.94 -0.18744 -3.44591 0
M  V30 26302 C 2382.05 -1.26567 -4.13043 0
M  V30 26303 C 2381.19 -0.664071 -5.27033 0
M  V30 26304 C 2380.23 -1.72297 -5.8735 0
M  V30 26305 N 2379.36 -1.14173 -6.92755 0
M  V30 26306 H 2384.2 -1.65632 -2.47729 0
M  V30 26307 H 2381.74 -0.827358 -1.21627 0
M  V30 26308 H 2383.7 0.157075 -4.16904 0
M  V30 26309 H 2382.33 0.6813 -3.15528 0
M  V30 26310 H 2381.38 -1.72733 -3.38921 0
M  V30 26311 H 2382.69 -2.06729 -4.53943 0
M  V30 26312 H 2381.85 -0.26893 -6.06104 0
M  V30 26313 H 2380.59 0.168997 -4.87407 0
M  V30 26314 H 2379.59 -2.12755 -5.06967 0
M  V30 26315 H 2380.82 -2.55886 -6.29046 0
M  V30 26316 H 2378.76 -0.330099 -6.55169 0
M  V30 26317 H 2378.68 -1.8802 -7.32246 0
M  V30 26318 H 2379.95 -0.773092 -7.75657 0
M  V30 26319 N 2384.18 1.29948 -0.891694 0
M  V30 26320 C 2385.12 2.27947 -0.361776 0
M  V30 26321 C 2386.09 1.56669 0.551733 0
M  V30 26322 O 2387.28 1.84697 0.478703 0
M  V30 26323 C 2384.42 3.42635 0.411764 0
M  V30 26324 C 2383.53 4.28715 -0.531726 0
M  V30 26325 C 2382.67 5.30573 0.258074 0
M  V30 26326 C 2381.7 6.08306 -0.680455 0
M  V30 26327 N 2380.84 7.02061 0.0744379 0
M  V30 26328 H 2385.68 2.72657 -1.20259 0
M  V30 26329 H 2383.22 1.34111 -0.604376 0
M  V30 26330 H 2385.18 4.07895 0.876232 0
M  V30 26331 H 2383.81 2.98976 1.2171 0
M  V30 26332 H 2382.86 3.63701 -1.1147 0
M  V30 26333 H 2384.17 4.82871 -1.25046 0
M  V30 26334 H 2383.32 6.01612 0.784098 0
M  V30 26335 H 2382.06 4.77127 1.00999 0
M  V30 26336 H 2381.07 5.36138 -1.21805 0
M  V30 26337 H 2382.29 6.63839 -1.43157 0
M  V30 26338 H 2380.24 6.50995 0.808769 0
M  V30 26339 H 2380.16 7.53737 -0.584542 0
M  V30 26340 H 2381.42 7.77332 0.580986 0
M  V30 26341 N 2385.65 0.653339 1.4342 0
M  V30 26342 C 2386.58 -0.0246246 2.33487 0
M  V30 26343 C 2387.56 -0.811837 1.49476 0
M  V30 26344 O 2388.75 -0.773291 1.7814 0
M  V30 26345 C 2385.88 -0.991601 3.32843 0
M  V30 26346 C 2384.83 -0.314493 4.26843 0
M  V30 26347 C 2384.16 -1.39292 5.16238 0
M  V30 26348 C 2385.46 0.793186 5.16242 0
M  V30 26349 H 2387.15 0.727532 2.90426 0
M  V30 26350 H 2384.7 0.351312 1.39649 0
M  V30 26351 H 2386.65 -1.4748 3.9475 0
M  V30 26352 H 2385.38 -1.77492 2.74161 0
M  V30 26353 H 2384.04 0.148264 3.663 0
M  V30 26354 H 2383.68 -2.16768 4.53895 0
M  V30 26355 H 2383.38 -0.945121 5.79949 0
M  V30 26356 H 2384.91 -1.87749 5.81019 0
M  V30 26357 H 2386.32 0.39214 5.71957 0
M  V30 26358 H 2384.72 1.16547 5.88674 0
M  V30 26359 H 2385.79 1.65111 4.55924 0
M  V30 26360 N 2387.13 -1.52563 0.395266 0
M  V30 26361 C 2388.04 -2.30356 -0.444191 0
M  V30 26362 C 2389.06 -1.37513 -1.06612 0
M  V30 26363 O 2390.23 -1.70585 -1.07064 0
M  V30 26364 C 2387.3 -3.09967 -1.5531 0
M  V30 26365 C 2386.36 -4.18528 -0.95566 0
M  V30 26366 C 2385.59 -4.94333 -2.01173 0
M  V30 26367 O 2385.82 -4.70291 -3.22773 0
M  V30 26368 O 2384.75 -5.7953 -1.62569 0
M  V30 26369 H 2388.58 -3.03107 0.18972 0
M  V30 26370 H 2386.16 -1.48553 0.158826 0
M  V30 26371 H 2388.04 -3.59586 -2.19718 0
M  V30 26372 H 2386.72 -2.40024 -2.17187 0
M  V30 26373 H 2385.62 -3.7309 -0.274678 0
M  V30 26374 H 2386.96 -4.90723 -0.381023 0
M  V30 26375 N 2388.61 -0.125265 -1.57101 0
M  V30 26376 C 2389.54 0.860057 -2.11372 0
M  V30 26377 C 2390.52 1.25677 -1.0317 0
M  V30 26378 O 2391.7 1.35672 -1.30864 0
M  V30 26379 C 2388.83 2.15186 -2.61558 0
M  V30 26380 C 2387.88 1.90273 -3.81705 0
M  V30 26381 S 2388.71 1.11334 -5.23799 0
M  V30 26382 C 2389.87 2.41679 -5.77358 0
M  V30 26383 H 2390.1 0.398468 -2.94618 0
M  V30 26384 H 2387.63 0.0886284 -1.54145 0
M  V30 26385 H 2389.59 2.89405 -2.91127 0
M  V30 26386 H 2388.25 2.58462 -1.78484 0
M  V30 26387 H 2387.44 2.86006 -4.1499 0
M  V30 26388 H 2387.05 1.24172 -3.52785 0
M  V30 26389 H 2389.34 3.37479 -5.87464 0
M  V30 26390 H 2390.28 2.1293 -6.75327 0
M  V30 26391 H 2390.69 2.51333 -5.05462 0
M  V30 26392 N 2390.09 1.56899 0.148518 0
M  V30 26393 C 2391.36 1.7418 0.889988 0
M  V30 26394 C 2391.74 0.692874 1.99405 0
M  V30 26395 O 2391.09 -0.288465 2.26672 0
M  V30 26396 C 2391.3 3.18186 1.43384 0
M  V30 26397 C 2392.65 3.79825 1.89784 0
M  V30 26398 O 2393.67 3.21605 1.53129 0
M  V30 26399 O 2392.53 4.82098 2.57379 0
M  V30 26400 H 2389.63 0.712126 0.420483 0
M  V30 26401 H 2392.17 1.69166 0.134561 0
M  V30 26402 H 2390.95 3.86025 0.640315 0
M  V30 26403 H 2390.57 3.27619 2.25281 0
M  V30 26404 N 2391.57 -0.417818 1.51961 0
M  V30 26405 C 2392.5 -1.51551 1.77636 0
M  V30 26406 C 2393.48 -1.58125 0.626946 0
M  V30 26407 O 2394.66 -1.73539 0.871662 0
M  V30 26408 C 2391.79 -2.89457 1.91917 0
M  V30 26409 C 2390.75 -2.97737 3.07468 0
M  V30 26410 C 2390.07 -4.37813 3.06959 0
M  V30 26411 C 2391.37 -2.70019 4.47087 0
M  V30 26412 H 2393.07 -1.30315 2.69552 0
M  V30 26413 H 2390.61 -0.625469 1.29707 0
M  V30 26414 H 2392.56 -3.66226 2.08461 0
M  V30 26415 H 2391.29 -3.11967 0.966653 0
M  V30 26416 H 2389.95 -2.23411 2.9066 0
M  V30 26417 H 2389.6 -4.5732 2.09446 0
M  V30 26418 H 2389.3 -4.4428 3.84564 0
M  V30 26419 H 2390.82 -5.16529 3.25622 0
M  V30 26420 H 2392.23 -3.36514 4.64145 0
M  V30 26421 H 2390.63 -2.87872 5.26545 0
M  V30 26422 H 2391.7 -1.65506 4.5578 0
M  V30 26423 N 2393.04 -1.42436 -0.674508 0
M  V30 26424 C 2393.99 -1.45937 -1.78804 0
M  V30 26425 C 2394.96 -0.3113 -1.63157 0
M  V30 26426 O 2396.15 -0.515415 -1.83707 0
M  V30 26427 C 2393.29 -1.36779 -3.16837 0
M  V30 26428 C 2392.4 -2.61623 -3.43769 0
M  V30 26429 C 2391.53 -2.44605 -4.71531 0
M  V30 26430 C 2390.57 -3.64822 -4.91499 0
M  V30 26431 N 2389.71 -3.46744 -6.10502 0
M  V30 26432 H 2394.55 -2.41097 -1.75147 0
M  V30 26433 H 2392.09 -1.19699 -0.855019 0
M  V30 26434 H 2394.04 -1.29466 -3.96603 0
M  V30 26435 H 2392.67 -0.452145 -3.19618 0
M  V30 26436 H 2391.73 -2.79301 -2.58254 0
M  V30 26437 H 2393.04 -3.50984 -3.54417 0
M  V30 26438 H 2392.19 -2.3488 -5.59389 0
M  V30 26439 H 2390.93 -1.52734 -4.63167 0
M  V30 26440 H 2389.94 -3.74979 -4.02083 0
M  V30 26441 H 2391.16 -4.57674 -5.01708 0
M  V30 26442 H 2389.11 -2.57591 -6.0331 0
M  V30 26443 H 2389.02 -4.29693 -6.22013 0
M  V30 26444 H 2390.29 -3.40832 -7.01038 0
M  V30 26445 N 2394.52 0.910841 -1.28614 0
M  V30 26446 C 2395.8 1.63977 -1.06635 0
M  V30 26447 C 2396.18 2.07404 0.393314 0
M  V30 26448 O 2395.53 1.82125 1.37996 0
M  V30 26449 C 2395.74 2.82906 -2.04365 0
M  V30 26450 C 2397.08 3.53856 -2.34672 0
M  V30 26451 O 2398.11 2.93059 -2.02472 0
M  V30 26452 O 2396.97 4.63434 -2.89639 0
M  V30 26453 H 2394.06 0.719492 -0.40775 0
M  V30 26454 H 2396.61 0.95989 -1.39944 0
M  V30 26455 H 2395.38 2.47931 -3.02731 0
M  V30 26456 H 2395 3.58606 -1.7172 0
M  V30 26457 N 2396 1.10909 1.11969 0
M  V30 26458 C 2396.93 0.784511 2.19927 0
M  V30 26459 C 2397.91 -0.244697 1.68331 0
M  V30 26460 O 2399.1 -0.109384 1.93892 0
M  V30 26461 C 2396.23 0.220888 3.46597 0
M  V30 26462 C 2395.18 1.18134 4.11374 0
M  V30 26463 C 2394.51 0.478688 5.32553 0
M  V30 26464 C 2395.81 2.52987 4.56941 0
M  V30 26465 H 2397.5 1.68719 2.47334 0
M  V30 26466 H 2395.05 0.812663 1.18877 0
M  V30 26467 H 2397 -0.0183538 4.21396 0
M  V30 26468 H 2395.72 -0.717057 3.18631 0
M  V30 26469 H 2394.38 1.40612 3.38561 0
M  V30 26470 H 2394.03 -0.463888 5.00856 0
M  V30 26471 H 2393.73 1.11922 5.76842 0
M  V30 26472 H 2395.25 0.248107 6.10096 0
M  V30 26473 H 2396.67 2.3463 5.23089 0
M  V30 26474 H 2395.07 3.12971 5.12025 0
M  V30 26475 H 2396.14 3.1262 3.70671 0
M  V30 26476 N 2397.48 -1.29474 0.898573 0
M  V30 26477 C 2398.39 -2.31502 0.380014 0
M  V30 26478 C 2399.4 -1.65901 -0.524666 0
M  V30 26479 O 2400.58 -1.97088 -0.414517 0
M  V30 26480 C 2397.65 -3.44555 -0.385078 0
M  V30 26481 C 2396.71 -4.25749 0.550989 0
M  V30 26482 C 2395.94 -5.33404 -0.177685 0
M  V30 26483 O 2396.16 -5.52907 -1.40179 0
M  V30 26484 O 2395.1 -5.99989 0.479212 0
M  V30 26485 H 2398.92 -2.77835 1.22644 0
M  V30 26486 H 2396.51 -1.3389 0.662858 0
M  V30 26487 H 2398.39 -4.13389 -0.817769 0
M  V30 26488 H 2397.06 -3.00332 -1.20758 0
M  V30 26489 H 2395.97 -3.59562 1.03277 0
M  V30 26490 H 2397.3 -4.73612 1.33987 0
M  V30 26491 N 2398.96 -0.660936 -1.43071 0
M  V30 26492 C 2399.92 0.0166003 -2.29194 0
M  V30 26493 C 2400.92 0.742887 -1.42611 0
M  V30 26494 O 2402.11 0.582975 -1.64156 0
M  V30 26495 C 2399.24 1.03424 -3.24833 0
M  V30 26496 H 2400.43 -0.741259 -2.90595 0
M  V30 26497 H 2397.99 -0.422558 -1.5048 0
M  V30 26498 H 2398.72 1.82107 -2.68342 0
M  V30 26499 H 2398.51 0.517014 -3.88676 0
M  V30 26500 H 2400 1.50716 -3.89454 0
M  V30 26501 N 2400.43 1.52351 -0.403352 0
M  V30 26502 C 2401.38 2.23671 0.442205 0
M  V30 26503 C 2402.37 1.24585 1.0182 0
M  V30 26504 O 2403.56 1.49852 0.941978 0
M  V30 26505 C 2400.69 3.05735 1.56145 0
M  V30 26506 C 2399.78 4.12226 0.996503 0
M  V30 26507 N 2400.17 5.05554 0.157716 0
M  V30 26508 C 2398.46 4.27607 1.26759 0
M  V30 26509 C 2399.17 5.81491 -0.155956 0
M  V30 26510 N 2398.14 5.4172 0.45168 0
M  V30 26511 H 2401.94 2.93184 -0.205015 0
M  V30 26512 H 2399.46 1.60991 -0.213446 0
M  V30 26513 H 2401.45 3.55377 2.17975 0
M  V30 26514 H 2400.11 2.37759 2.21135 0
M  V30 26515 H 2401.13 5.1749 -0.20614 0
M  V30 26516 H 2397.8 3.70861 1.9175 0
M  V30 26517 H 2399.19 6.66673 -0.836446 0
M  V30 26518 N 2401.91 0.133594 1.57033 0
M  V30 26519 C 2403.16 -0.520734 1.94862 0
M  V30 26520 C 2403.47 -1.6689 1.02015 0
M  V30 26521 O 2404.68 -2.38696 1.29369 0
M  V30 26522 C 2403.14 -0.977748 3.46364 0
M  V30 26523 C 2402.74 0.142753 4.47773 0
M  V30 26524 C 2404.49 -1.60263 3.93085 0
M  V30 26525 C 2402.4 -0.331779 5.90469 0
M  V30 26526 H 2401.33 -0.198302 0.727456 0
M  V30 26527 H 2403.98 0.215791 1.82227 0
M  V30 26528 H 2402.36 -1.76913 3.54285 0
M  V30 26529 H 2403.53 0.919396 4.51535 0
M  V30 26530 H 2401.85 0.675196 4.10889 0
M  V30 26531 H 2404.44 -1.96905 4.97124 0
M  V30 26532 H 2404.79 -2.48656 3.3388 0
M  V30 26533 H 2405.32 -0.876385 3.88026 0
M  V30 26534 H 2402.06 0.516456 6.53462 0
M  V30 26535 H 2401.58 -1.07459 5.90095 0
M  V30 26536 H 2403.26 -0.788219 6.42181 0
M  V30 26537 N 2403.39 -1.56975 -0.140195 0
M  V30 26538 C 2404.67 -1.74649 -0.880739 0
M  V30 26539 C 2405.05 -0.703439 -1.99035 0
M  V30 26540 O 2404.4 0.27644 -2.26822 0
M  V30 26541 C 2404.61 -3.18942 -1.41694 0
M  V30 26542 C 2405.95 -3.80826 -1.87767 0
M  V30 26543 O 2406.98 -3.22413 -1.51421 0
M  V30 26544 O 2405.84 -4.83456 -2.54819 0
M  V30 26545 H 2402.93 -0.714345 -0.416701 0
M  V30 26546 H 2405.48 -1.69235 -0.125588 0
M  V30 26547 H 2404.25 -3.8636 -0.619834 0
M  V30 26548 H 2403.87 -3.28809 -2.23541 0
M  V30 26549 N 2404.87 0.409753 -1.5218 0
M  V30 26550 C 2406.09 1.18305 -1.70349 0
M  V30 26551 C 2406.52 1.83534 -0.411919 0
M  V30 26552 O 2405.88 1.69981 0.630557 0
M  V30 26553 C 2405.92 2.22233 -2.83981 0
M  V30 26554 O 2405.03 3.2836 -2.49506 0
M  V30 26555 H 2404.37 0.345374 -0.567109 0
M  V30 26556 H 2406.9 0.48041 -1.9888 0
M  V30 26557 H 2406.91 2.66572 -3.08874 0
M  V30 26558 H 2405.58 1.74139 -3.77688 0
M  V30 26559 H 2404.16 2.89304 -2.35282 0
M  V30 26560 N 2406.35 1.42792 0.666944 0
M  V30 26561 C 2407.31 1.46571 1.76209 0
M  V30 26562 C 2408.31 0.352224 1.56895 0
M  V30 26563 O 2409.5 0.613393 1.63043 0
M  V30 26564 C 2406.63 1.305 3.14933 0
M  V30 26565 H 2407.82 2.44089 1.74243 0
M  V30 26566 H 2405.38 1.29355 0.877319 0
M  V30 26567 H 2406.11 0.339358 3.2252 0
M  V30 26568 H 2405.9 2.11205 3.30356 0
M  V30 26569 H 2407.39 1.36045 3.94818 0
M  V30 26570 N 2407.82 -0.904008 1.29095 0
M  V30 26571 C 2408.77 -2.02899 1.13731 0
M  V30 26572 C 2409.77 -1.69314 0.054015 0
M  V30 26573 O 2410.97 -1.78729 0.213501 0
M  V30 26574 H 2407.35 -0.664963 0.351182 0
M  V30 26575 H 2409.32 -2.12997 2.08985 0
M  V30 26576 C 2408.07 -3.37743 0.826126 0
M  V30 26577 H 2407.39 -3.64086 1.6517 0
M  V30 26578 H 2408.83 -4.17158 0.758633 0
M  V30 26579 C 2407.29 -3.33599 -0.470483 0
M  V30 26580 O 2407.82 -3.7273 -1.49785 0
M  V30 26581 N 2406.03 -2.86696 -0.474762 0
M  V30 26582 H 2405.57 -2.55047 0.361737 0
M  V30 26583 H 2405.53 -2.84305 -1.34231 0
M  V30 26584 N 2409.3 -1.11501 -1.11379 0
M  V30 26585 C 2410.25 -0.773925 -2.17437 0
M  V30 26586 C 2411.22 0.25487 -1.64133 0
M  V30 26587 O 2412.4 0.131647 -1.90345 0
M  V30 26588 C 2409.54 -0.223977 -3.44372 0
M  V30 26589 C 2408.66 -1.30941 -4.11678 0
M  V30 26590 C 2407.79 -0.719932 -5.26299 0
M  V30 26591 C 2406.83 -1.78517 -5.8549 0
M  V30 26592 N 2405.97 -1.21514 -6.91505 0
M  V30 26593 H 2410.81 -1.68251 -2.45959 0
M  V30 26594 H 2408.35 -0.840212 -1.20743 0
M  V30 26595 H 2410.3 0.112848 -4.17047 0
M  V30 26596 H 2408.93 0.647796 -3.16233 0
M  V30 26597 H 2407.99 -1.76318 -3.3707 0
M  V30 26598 H 2409.3 -2.11532 -4.51725 0
M  V30 26599 H 2408.45 -0.333201 -6.05784 0
M  V30 26600 H 2407.19 0.117291 -4.87559 0
M  V30 26601 H 2406.2 -2.1812 -5.04682 0
M  V30 26602 H 2407.42 -2.62544 -6.26297 0
M  V30 26603 H 2405.37 -0.39957 -6.54782 0
M  V30 26604 H 2405.28 -1.95776 -7.30211 0
M  V30 26605 H 2406.55 -0.855318 -7.74793 0
M  V30 26606 N 2410.78 1.28995 -0.905426 0
M  V30 26607 C 2411.73 2.29517 -0.377471 0
M  V30 26608 C 2412.72 1.61013 0.526433 0
M  V30 26609 O 2413.93 1.75301 0.408599 0
M  V30 26610 H 2410.3 0.74485 -0.10345 0
M  V30 26611 H 2412.28 2.71483 -1.23853 0
M  V30 26612 C 2411.02 3.45674 0.374772 0
M  V30 26613 H 2410.35 3.98584 -0.311544 0
M  V30 26614 H 2411.79 4.18031 0.708957 0
M  V30 26615 C 2410.25 2.97575 1.57958 0
M  V30 26616 O 2410.78 2.99338 2.6788 0
M  V30 26617 N 2408.98 2.53336 1.4237 0
M  V30 26618 H 2408.53 2.52101 0.529422 0
M  V30 26619 H 2408.49 2.21513 2.23113 0
M  V30 26620 N 2412.26 0.668514 1.42719 0
M  V30 26621 C 2413.68 0.337478 1.55991 0
M  V30 26622 C 2413.88 -1.15753 1.64935 0
M  V30 26623 O 2412.93 -1.9428 1.61281 0
M  V30 26624 C 2414.24 1.06227 2.81312 0
M  V30 26625 C 2415.79 1.04399 2.95076 0
M  V30 26626 C 2416.27 1.74999 4.23249 0
M  V30 26627 N 2417.76 1.71836 4.30147 0
M  V30 26628 C 2418.49 2.23324 5.28123 0
M  V30 26629 N 2417.99 2.83167 6.32288 0
M  V30 26630 N 2419.78 2.13735 5.19878 0
M  V30 26631 H 2411.93 1.63848 1.35157 0
M  V30 26632 H 2414.2 0.689923 0.650162 0
M  V30 26633 H 2413.9 2.11739 2.80819 0
M  V30 26634 H 2413.78 0.623505 3.72011 0
M  V30 26635 H 2416.16 -0.00277253 2.951 0
M  V30 26636 H 2416.24 1.52159 2.05624 0
M  V30 26637 H 2415.89 2.7964 4.23986 0
M  V30 26638 H 2415.82 1.24694 5.11624 0
M  V30 26639 H 2418.31 1.28182 3.55497 0
M  V30 26640 H 2418.62 3.20092 7.03393 0
M  V30 26641 H 2416.97 2.87234 6.32868 0
M  V30 26642 H 2420.16 1.66677 4.3742 0
M  V30 26643 H 2420.33 2.54169 5.96072 0
M  V30 26644 N 2413.74 -1.52135 0.411426 0
M  V30 26645 C 2415.01 -1.94333 -0.222274 0
M  V30 26646 C 2415.39 -1.34847 -1.62418 0
M  V30 26647 O 2414.74 -0.525184 -2.22383 0
M  V30 26648 C 2414.95 -3.48266 -0.226284 0
M  V30 26649 C 2416.3 -4.22267 -0.444518 0
M  V30 26650 O 2417.32 -3.54887 -0.30554 0
M  V30 26651 O 2416.18 -5.41754 -0.718654 0
M  V30 26652 H 2413.28 -0.814386 -0.143892 0
M  V30 26653 H 2415.82 -1.63132 0.467535 0
M  V30 26654 H 2414.6 -3.83951 0.754818 0
M  V30 26655 H 2414.22 -3.85834 -0.960096 0
M  V30 26656 N 2415.22 -0.14192 -1.5696 0
M  V30 26657 C 2416.13 0.812866 -2.20067 0
M  V30 26658 C 2417.14 1.27554 -1.18346 0
M  V30 26659 O 2418.32 1.33379 -1.50904 0
M  V30 26660 C 2415.38 2.03647 -2.80586 0
M  V30 26661 C 2414.44 1.62352 -3.97417 0
M  V30 26662 C 2413.68 2.78879 -4.55041 0
M  V30 26663 O 2413.9 3.94952 -4.11545 0
M  V30 26664 O 2412.83 2.54644 -5.45381 0
M  V30 26665 H 2416.66 0.305693 -3.02158 0
M  V30 26666 H 2414.24 0.0848537 -1.49159 0
M  V30 26667 H 2416.13 2.75266 -3.19071 0
M  V30 26668 H 2414.8 2.53327 -2.01512 0
M  V30 26669 H 2413.71 0.877711 -3.63658 0
M  V30 26670 H 2415.04 1.17393 -4.77996 0
M  V30 26671 N 2416.69 1.57047 0.131868 0
M  V30 26672 C 2417.66 1.98473 1.14634 0
M  V30 26673 C 2418.66 0.873171 1.35027 0
M  V30 26674 O 2419.85 1.13949 1.31762 0
M  V30 26675 C 2416.98 2.31378 2.50354 0
M  V30 26676 H 2418.17 2.89292 0.790589 0
M  V30 26677 H 2415.72 1.51717 0.375734 0
M  V30 26678 H 2416.46 1.43398 2.90873 0
M  V30 26679 H 2416.24 3.12436 2.3691 0
M  V30 26680 H 2417.73 2.64213 3.23391 0
M  V30 26681 N 2418.17 -0.401677 1.52395 0
M  V30 26682 C 2419.42 -1.14506 1.66046 0
M  V30 26683 C 2419.73 -1.91461 0.400249 0
M  V30 26684 O 2420.94 -2.68283 0.41668 0
M  V30 26685 C 2419.4 -2.08444 2.93392 0
M  V30 26686 C 2419 -1.36971 4.26548 0
M  V30 26687 C 2420.75 -2.82996 3.16407 0
M  V30 26688 C 2418.65 -2.29601 5.45011 0
M  V30 26689 H 2417.58 -0.431147 0.618569 0
M  V30 26690 H 2420.24 -0.408889 1.78886 0
M  V30 26691 H 2418.62 -2.85645 2.74268 0
M  V30 26692 H 2419.79 -0.650836 4.56181 0
M  V30 26693 H 2418.11 -0.744308 4.09694 0
M  V30 26694 H 2420.7 -3.52458 4.02091 0
M  V30 26695 H 2421.05 -3.46364 2.30949 0
M  V30 26696 H 2421.58 -2.12892 3.36038 0
M  V30 26697 H 2418.32 -1.70868 6.32838 0
M  V30 26698 H 2417.84 -2.9944 5.19707 0
M  V30 26699 H 2419.52 -2.89964 5.78385 0
M  V30 26700 N 2419.65 -1.43144 -0.659362 0
M  V30 26701 C 2420.6 -1.47825 -1.77246 0
M  V30 26702 C 2421.57 -0.328587 -1.62817 0
M  V30 26703 O 2422.75 -0.534871 -1.8315 0
M  V30 26704 C 2419.89 -1.40131 -3.15368 0
M  V30 26705 C 2419 -2.65255 -3.40975 0
M  V30 26706 C 2418.14 -2.49593 -4.6891 0
M  V30 26707 C 2417.18 -3.70015 -4.87602 0
M  V30 26708 N 2416.32 -3.532 -6.0679 0
M  V30 26709 H 2421.16 -2.42941 -1.7258 0
M  V30 26710 H 2418.69 -1.20599 -0.842275 0
M  V30 26711 H 2420.65 -1.33666 -3.95208 0
M  V30 26712 H 2419.28 -0.48602 -3.1912 0
M  V30 26713 H 2418.33 -2.82025 -2.55277 0
M  V30 26714 H 2419.64 -3.54724 -3.50674 0
M  V30 26715 H 2418.8 -2.408 -5.56866 0
M  V30 26716 H 2417.54 -1.57638 -4.61521 0
M  V30 26717 H 2416.54 -3.79222 -3.98083 0
M  V30 26718 H 2417.77 -4.6297 -4.96826 0
M  V30 26719 H 2415.71 -2.63975 -6.00544 0
M  V30 26720 H 2415.63 -4.36266 -6.1742 0
M  V30 26721 H 2416.9 -3.48248 -6.97383 0
M  V30 26722 N 2421.13 0.897149 -1.29572 0
M  V30 26723 C 2422.06 2.00679 -1.10727 0
M  V30 26724 C 2423.07 1.6271 -0.0540312 0
M  V30 26725 O 2424.26 1.75981 -0.298814 0
M  V30 26726 C 2421.36 3.32332 -0.66397 0
M  V30 26727 C 2420.53 3.98813 -1.79629 0
M  V30 26728 C 2419.59 5.08758 -1.34358 0
M  V30 26729 O 2418.62 5.31051 -2.04873 0
M  V30 26730 N 2419.82 5.80098 -0.215866 0
M  V30 26731 H 2422.59 2.174 -2.06295 0
M  V30 26732 H 2420.15 1.06949 -1.21546 0
M  V30 26733 H 2422.14 4.03232 -0.344366 0
M  V30 26734 H 2420.71 3.11964 0.19932 0
M  V30 26735 H 2419.93 3.21244 -2.28465 0
M  V30 26736 H 2421.22 4.39972 -2.55543 0
M  V30 26737 H 2420.62 5.64476 0.371992 0
M  V30 26738 H 2419.17 6.51785 0.0443562 0
M  V30 26739 N 2422.61 1.1209 1.10786 0
M  V30 26740 C 2423.54 0.807793 2.19082 0
M  V30 26741 C 2424.52 -0.226829 1.68581 0
M  V30 26742 O 2425.7 -0.0888134 1.93997 0
M  V30 26743 C 2422.83 0.257637 3.46343 0
M  V30 26744 C 2421.79 1.22491 4.10098 0
M  V30 26745 C 2421.11 0.535145 5.32015 0
M  V30 26746 C 2422.41 2.57819 4.54232 0
M  V30 26747 H 2424.11 1.71333 2.45531 0
M  V30 26748 H 2421.65 0.825225 1.18009 0
M  V30 26749 H 2423.6 0.0263419 4.21392 0
M  V30 26750 H 2422.33 -0.683222 3.19374 0
M  V30 26751 H 2420.99 1.44195 3.37051 0
M  V30 26752 H 2420.64 -0.410739 5.0132 0
M  V30 26753 H 2420.34 1.18034 5.75623 0
M  V30 26754 H 2421.86 0.312802 6.09798 0
M  V30 26755 H 2423.27 2.40164 5.20571 0
M  V30 26756 H 2421.67 3.18384 5.08676 0
M  V30 26757 H 2422.74 3.16534 3.67334 0
M  V30 26758 N 2424.08 -1.28513 0.912254 0
M  V30 26759 C 2425.5 -1.47475 0.610185 0
M  V30 26760 C 2425.7 -1.8293 -0.844923 0
M  V30 26761 O 2424.76 -1.93335 -1.62412 0
M  V30 26762 C 2426.07 -2.57865 1.5468 0
M  V30 26763 C 2427.62 -2.71735 1.55335 0
M  V30 26764 C 2428.09 -3.85267 2.47655 0
M  V30 26765 N 2429.58 -3.92619 2.45774 0
M  V30 26766 C 2430.32 -4.79845 3.13905 0
M  V30 26767 N 2429.81 -5.71672 3.9136 0
M  V30 26768 N 2431.61 -4.73443 3.02999 0
M  V30 26769 H 2423.76 -1.03779 1.8532 0
M  V30 26770 H 2426.02 -0.516739 0.794786 0
M  V30 26771 H 2425.73 -2.38569 2.58414 0
M  V30 26772 H 2425.6 -3.54934 1.27677 0
M  V30 26773 H 2427.99 -2.90421 0.523401 0
M  V30 26774 H 2428.07 -1.75202 1.86381 0
M  V30 26775 H 2427.71 -3.67336 3.50752 0
M  V30 26776 H 2427.64 -4.81195 2.13912 0
M  V30 26777 H 2430.13 -3.26948 1.89509 0
M  V30 26778 H 2430.45 -6.35054 4.4037 0
M  V30 26779 H 2428.79 -5.71517 3.95465 0
M  V30 26780 H 2431.98 -4.00695 2.41994 0
M  V30 26781 H 2432.16 -5.41207 3.56369 0
M  V30 26782 N 2425.56 -0.676073 -1.42362 0
M  V30 26783 C 2426.51 0.00146847 -2.308 0
M  V30 26784 C 2427.48 0.791418 -1.46034 0
M  V30 26785 O 2428.66 0.763409 -1.74862 0
M  V30 26786 C 2425.8 0.945861 -3.31885 0
M  V30 26787 C 2424.92 0.149599 -4.31741 0
M  V30 26788 C 2424.05 1.08986 -5.199 0
M  V30 26789 C 2423.09 0.285357 -6.11434 0
M  V30 26790 N 2422.23 1.17839 -6.9214 0
M  V30 26791 H 2427.07 -0.758505 -2.88185 0
M  V30 26792 H 2424.61 -0.385785 -1.41951 0
M  V30 26793 H 2426.56 1.50724 -3.89022 0
M  V30 26794 H 2425.19 1.67245 -2.76096 0
M  V30 26795 H 2424.25 -0.528425 -3.76712 0
M  V30 26796 H 2425.56 -0.474954 -4.96534 0
M  V30 26797 H 2424.71 1.72113 -5.81775 0
M  V30 26798 H 2423.45 1.74829 -4.55287 0
M  V30 26799 H 2422.46 -0.359114 -5.48626 0
M  V30 26800 H 2423.68 -0.369002 -6.78097 0
M  V30 26801 H 2421.63 1.82321 -6.30155 0
M  V30 26802 H 2421.54 0.60895 -7.53543 0
M  V30 26803 H 2422.81 1.79709 -7.58502 0
M  V30 26804 N 2427.04 1.51915 -0.419488 0
M  V30 26805 C 2427.97 2.3019 0.391772 0
M  V30 26806 C 2428.95 1.34837 1.03696 0
M  V30 26807 O 2430.14 1.6375 1.04401 0
M  V30 26808 C 2427.27 3.1309 1.50306 0
M  V30 26809 C 2426.22 4.16575 0.982327 0
M  V30 26810 C 2425.55 4.87884 2.18801 0
M  V30 26811 C 2426.85 5.22292 0.0291438 0
M  V30 26812 H 2428.54 2.98257 -0.261402 0
M  V30 26813 H 2426.09 1.43437 -0.127159 0
M  V30 26814 H 2428.04 3.66621 2.07767 0
M  V30 26815 H 2426.76 2.42811 2.18427 0
M  V30 26816 H 2425.42 3.64069 0.430055 0
M  V30 26817 H 2425.07 4.14124 2.855 0
M  V30 26818 H 2424.77 5.57848 1.84605 0
M  V30 26819 H 2426.29 5.44231 2.76848 0
M  V30 26820 H 2427.71 5.71001 0.512875 0
M  V30 26821 H 2426.11 5.9968 -0.224505 0
M  V30 26822 H 2427.18 4.76227 -0.913015 0
M  V30 26823 N 2428.52 0.150242 1.56882 0
M  V30 26824 C 2429.45 -0.819249 2.14058 0
M  V30 26825 C 2430.46 -1.20849 1.09084 0
M  V30 26826 O 2431.65 -1.15201 1.36349 0
M  V30 26827 C 2428.75 -2.11122 2.65105 0
M  V30 26828 C 2427.93 -1.88884 3.94515 0
M  V30 26829 C 2426.98 -3.021 4.30839 0
M  V30 26830 O 2426.01 -2.7365 4.99104 0
M  V30 26831 N 2427.21 -4.29356 3.90683 0
M  V30 26832 H 2429.98 -0.330565 2.97871 0
M  V30 26833 H 2427.54 -0.0332254 1.61866 0
M  V30 26834 H 2429.53 -2.85916 2.86416 0
M  V30 26835 H 2428.1 -2.51243 1.85999 0
M  V30 26836 H 2427.32 -0.981085 3.81796 0
M  V30 26837 H 2428.61 -1.71367 4.79073 0
M  V30 26838 H 2428.01 -4.55338 3.35685 0
M  V30 26839 H 2426.56 -5.00921 4.17039 0
M  V30 26840 N 2430 -1.57115 -0.123538 0
M  V30 26841 C 2430.96 -1.99078 -1.1358 0
M  V30 26842 C 2431.96 -0.88032 -1.34562 0
M  V30 26843 O 2433.15 -1.14646 -1.31156 0
M  V30 26844 C 2430.28 -2.32702 -2.49124 0
M  V30 26845 H 2431.47 -2.89707 -0.775236 0
M  V30 26846 H 2429.03 -1.51914 -0.367683 0
M  V30 26847 H 2429.76 -1.44939 -2.90109 0
M  V30 26848 H 2429.55 -3.13688 -2.35249 0
M  V30 26849 H 2431.04 -2.65924 -3.21985 0
M  V30 26850 N 2431.47 0.393589 -1.52606 0
M  V30 26851 C 2432.41 1.49992 -1.73306 0
M  V30 26852 C 2433.42 1.50798 -0.6135 0
M  V30 26853 O 2434.61 1.54783 -0.889076 0
M  V30 26854 C 2431.71 2.88852 -1.7725 0
M  V30 26855 C 2430.88 3.12063 -3.06488 0
M  V30 26856 C 2429.94 4.30881 -3.0204 0
M  V30 26857 O 2428.97 4.27407 -3.75914 0
M  V30 26858 N 2430.17 5.36825 -2.20906 0
M  V30 26859 H 2432.93 1.32624 -2.68758 0
M  V30 26860 H 2430.49 0.583056 -1.51037 0
M  V30 26861 H 2432.49 3.66431 -1.71786 0
M  V30 26862 H 2431.06 2.99602 -0.892045 0
M  V30 26863 H 2430.28 2.2239 -3.25478 0
M  V30 26864 H 2431.56 3.24423 -3.91953 0
M  V30 26865 H 2430.96 5.425 -1.60345 0
M  V30 26866 H 2429.52 6.13087 -2.21286 0
M  V30 26867 N 2432.95 1.43492 0.651762 0
M  V30 26868 C 2433.89 1.43214 1.77665 0
M  V30 26869 C 2434.86 0.293408 1.59931 0
M  V30 26870 O 2436.05 0.487223 1.82094 0
M  V30 26871 C 2433.17 1.24511 3.14984 0
M  V30 26872 C 2432.22 2.41679 3.51417 0
M  V30 26873 S 2433.05 4.04228 3.51226 0
M  V30 26874 C 2434.21 3.8791 4.91199 0
M  V30 26875 H 2434.44 2.384 1.77631 0
M  V30 26876 H 2431.98 1.3054 0.824535 0
M  V30 26877 H 2433.93 1.14407 3.94235 0
M  V30 26878 H 2432.59 0.308706 3.12579 0
M  V30 26879 H 2431.79 2.24401 4.51287 0
M  V30 26880 H 2431.39 2.48416 2.79581 0
M  V30 26881 H 2433.68 3.50325 5.79895 0
M  V30 26882 H 2434.62 4.87539 5.13529 0
M  V30 26883 H 2435.03 3.20342 4.64802 0
M  V30 26884 N 2434.43 -0.890264 1.30046 0
M  V30 26885 C 2435.38 -1.99543 1.15979 0
M  V30 26886 C 2436.35 -1.66023 0.0506494 0
M  V30 26887 O 2437.53 -1.89529 0.219881 0
M  V30 26888 C 2434.67 -3.34414 0.852113 0
M  V30 26889 C 2433.79 -3.80659 2.04262 0
M  V30 26890 C 2432.92 -5.04151 1.67349 0
M  V30 26891 C 2431.96 -5.42789 2.82925 0
M  V30 26892 N 2431.1 -6.57464 2.46345 0
M  V30 26893 H 2435.94 -2.10907 2.10528 0
M  V30 26894 H 2433.47 -1.03274 1.04751 0
M  V30 26895 H 2435.43 -4.12036 0.654369 0
M  V30 26896 H 2434.06 -3.22751 -0.0564935 0
M  V30 26897 H 2433.11 -2.98991 2.35177 0
M  V30 26898 H 2434.43 -4.05237 2.90834 0
M  V30 26899 H 2433.58 -5.89383 1.43918 0
M  V30 26900 H 2432.32 -4.81432 0.779393 0
M  V30 26901 H 2431.32 -4.56086 3.07028 0
M  V30 26902 H 2432.55 -5.67484 3.73014 0
M  V30 26903 H 2430.49 -6.36331 1.59434 0
M  V30 26904 H 2430.41 -6.81885 3.26448 0
M  V30 26905 H 2431.68 -7.45941 2.26257 0
M  V30 26906 N 2435.91 -1.12676 -1.1019 0
M  V30 26907 C 2437.19 -0.794997 -1.78715 0
M  V30 26908 C 2437.57 0.714818 -1.98629 0
M  V30 26909 O 2436.91 1.64939 -1.58138 0
M  V30 26910 C 2437.12 -1.57296 -3.11543 0
M  V30 26911 C 2438.47 -1.76059 -3.86379 0
M  V30 26912 O 2439.5 -1.53829 -3.21271 0
M  V30 26913 O 2438.35 -2.13096 -5.03242 0
M  V30 26914 H 2435.45 -0.289437 -0.774697 0
M  V30 26915 H 2437.99 -1.23093 -1.16817 0
M  V30 26916 H 2436.77 -2.5994 -2.92484 0
M  V30 26917 H 2436.39 -1.13144 -3.81162 0
M  V30 26918 N 2437.39 1.28028 -0.919057 0
M  V30 26919 C 2438.63 1.96518 -0.562141 0
M  V30 26920 C 2438.99 1.7071 0.878754 0
M  V30 26921 O 2440.19 2.32816 1.34351 0
M  V30 26922 C 2438.46 3.46674 -0.869014 0
M  V30 26923 S 2440.02 4.34408 -0.619313 0
M  V30 26924 H 2436.84 0.679952 -0.207811 0
M  V30 26925 H 2439.44 1.55444 -1.18564 0
M  V30 26926 H 2438.15 3.62954 -1.91554 0
M  V30 26927 H 2437.68 3.92701 -0.23437 0
M  V30 26928 H 2439.69 4.93394 0.526908 0
M  V30 26929 N 2438.86 0.683613 1.42002 0
M  V30 26930 C 2439.8 -0.0395519 2.28166 0
M  V30 26931 C 2440.78 -0.799918 1.41563 0
M  V30 26932 O 2441.96 -0.793218 1.70998 0
M  V30 26933 C 2439.09 -1.06329 3.21577 0
M  V30 26934 C 2438.13 -0.397488 4.24644 0
M  V30 26935 S 2438.97 0.851389 5.28689 0
M  V30 26936 C 2440.12 -0.171056 6.25666 0
M  V30 26937 H 2440.35 0.691279 2.89152 0
M  V30 26938 H 2437.89 0.473461 1.46962 0
M  V30 26939 H 2439.85 -1.64883 3.75931 0
M  V30 26940 H 2438.51 -1.76662 2.5971 0
M  V30 26941 H 2437.7 -1.17026 4.90225 0
M  V30 26942 H 2437.3 0.114677 3.73824 0
M  V30 26943 H 2439.59 -1.02807 6.69654 0
M  V30 26944 H 2440.54 0.450522 7.06665 0
M  V30 26945 H 2440.94 -0.520479 5.62095 0
M  V30 26946 N 2440.34 -1.5169 0.427538 0
M  V30 26947 C 2441.76 -1.59403 0.0793258 0
M  V30 26948 C 2441.96 -1.43917 -1.41033 0
M  V30 26949 O 2441.02 -1.27543 -2.1792 0
M  V30 26950 C 2442.33 -2.94841 0.590688 0
M  V30 26951 C 2443.88 -3.08125 0.550269 0
M  V30 26952 C 2444.35 -4.46072 1.03844 0
M  V30 26953 N 2445.84 -4.52364 0.996023 0
M  V30 26954 C 2446.58 -5.57409 1.34473 0
M  V30 26955 N 2446.07 -6.69919 1.76581 0
M  V30 26956 N 2447.87 -5.47715 1.26352 0
M  V30 26957 H 2440.02 -1.60002 1.39689 0
M  V30 26958 H 2442.28 -0.753698 0.575016 0
M  V30 26959 H 2441.99 -3.11513 1.63257 0
M  V30 26960 H 2441.86 -3.77199 0.0102724 0
M  V30 26961 H 2444.25 -2.91127 -0.482603 0
M  V30 26962 H 2444.33 -2.2763 1.16697 0
M  V30 26963 H 2443.97 -4.63815 2.06973 0
M  V30 26964 H 2443.9 -5.25091 0.398378 0
M  V30 26965 H 2446.39 -3.71609 0.686675 0
M  V30 26966 H 2446.71 -7.46081 2.01451 0
M  V30 26967 H 2445.05 -6.71152 1.80499 0
M  V30 26968 H 2448.24 -4.58702 0.933289 0
M  V30 26969 H 2448.42 -6.2947 1.53857 0
M  V30 26970 N 2441.82 -0.15856 -1.568 0
M  V30 26971 C 2442.73 0.789479 -2.20917 0
M  V30 26972 C 2443.75 1.26292 -1.19693 0
M  V30 26973 O 2444.92 1.3177 -1.52311 0
M  V30 26974 C 2441.99 2.0066 -2.82731 0
M  V30 26975 C 2441.05 1.58127 -3.99117 0
M  V30 26976 C 2440.28 2.74037 -4.57973 0
M  V30 26977 O 2440.51 3.90565 -4.15711 0
M  V30 26978 O 2439.44 2.48845 -5.48051 0
M  V30 26979 H 2443.27 0.273628 -3.02465 0
M  V30 26980 H 2440.85 0.0690286 -1.4924 0
M  V30 26981 H 2442.73 2.71866 -3.21973 0
M  V30 26982 H 2441.41 2.51175 -2.04188 0
M  V30 26983 H 2440.31 0.83909 -3.64568 0
M  V30 26984 H 2441.65 1.12316 -4.79214 0
M  V30 26985 N 2443.3 1.57178 0.115204 0
M  V30 26986 C 2444.23 2.03653 1.14227 0
M  V30 26987 C 2445.21 0.921681 1.42965 0
M  V30 26988 O 2446.4 1.19164 1.53341 0
M  V30 26989 C 2443.53 2.44405 2.46746 0
M  V30 26990 C 2442.48 3.59369 2.32461 0
M  V30 26991 C 2441.81 3.86033 3.69977 0
M  V30 26992 C 2443.11 4.90962 1.78194 0
M  V30 26993 H 2444.8 2.89706 0.755698 0
M  V30 26994 H 2442.35 1.39374 0.362068 0
M  V30 26995 H 2444.3 2.75523 3.1885 0
M  V30 26996 H 2443.02 1.55327 2.873 0
M  V30 26997 H 2441.68 3.28466 1.62805 0
M  V30 26998 H 2441.33 2.94154 4.08023 0
M  V30 26999 H 2441.03 4.63419 3.61271 0
M  V30 27000 H 2442.55 4.19606 4.4358 0
M  V30 27001 H 2443.97 5.20592 2.40119 0
M  V30 27002 H 2442.36 5.72374 1.803 0
M  V30 27003 H 2443.43 4.79223 0.739792 0
M  V30 27004 N 2444.78 -0.38549 1.52813 0
M  V30 27005 C 2446.05 -1.14462 1.58612 0
M  V30 27006 C 2446.43 -2.07625 0.381438 0
M  V30 27007 O 2445.78 -2.19645 -0.62996 0
M  V30 27008 C 2445.99 -1.90123 2.92668 0
M  V30 27009 C 2447.34 -2.45361 3.4653 0
M  V30 27010 O 2448.36 -2.00275 2.94565 0
M  V30 27011 O 2447.22 -3.27728 4.37329 0
M  V30 27012 H 2444.32 -0.52393 0.639865 0
M  V30 27013 H 2446.86 -0.39036 1.65149 0
M  V30 27014 H 2445.64 -1.22015 3.7179 0
M  V30 27015 H 2445.26 -2.72502 2.89531 0
M  V30 27016 N 2446.26 -1.43835 -0.644143 0
M  V30 27017 C 2447.53 -1.36409 -1.40186 0
M  V30 27018 C 2447.91 -0.0163495 -2.11094 0
M  V30 27019 O 2447.26 1.00059 -2.05428 0
M  V30 27020 C 2447.47 -2.55347 -2.37905 0
M  V30 27021 C 2448.82 -2.98837 -3.01631 0
M  V30 27022 O 2449.84 -2.55459 -2.48232 0
M  V30 27023 O 2448.7 -3.7401 -3.9847 0
M  V30 27024 H 2445.8 -0.539534 -0.626764 0
M  V30 27025 H 2448.34 -1.55901 -0.670289 0
M  V30 27026 H 2447.11 -3.45063 -1.84519 0
M  V30 27027 H 2446.74 -2.38001 -3.18498 0
M  V30 27028 N 2447.73 0.883355 -1.30517 0
M  V30 27029 C 2448.96 1.66839 -1.22362 0
M  V30 27030 C 2449.38 1.87592 0.213263 0
M  V30 27031 O 2448.73 1.42456 1.14072 0
M  V30 27032 C 2448.78 3.04386 -1.95017 0
M  V30 27033 O 2448.51 2.84569 -3.33095 0
M  V30 27034 C 2450.01 3.9882 -1.93539 0
M  V30 27035 H 2447.23 0.520567 -0.42338 0
M  V30 27036 H 2449.77 1.10354 -1.72169 0
M  V30 27037 H 2447.93 3.57598 -1.49004 0
M  V30 27038 H 2448.34 3.71839 -3.69913 0
M  V30 27039 H 2449.81 4.92694 -2.48911 0
M  V30 27040 H 2450.29 4.29569 -0.914702 0
M  V30 27041 H 2450.9 3.51542 -2.3937 0
M  V30 27042 N 2449.21 1.13259 1.09591 0
M  V30 27043 C 2450.63 0.870447 1.33774 0
M  V30 27044 C 2450.83 -0.494891 1.95328 0
M  V30 27045 O 2449.88 -1.24177 2.19855 0
M  V30 27046 C 2451.2 1.99373 2.25102 0
M  V30 27047 C 2452.74 2.02562 2.38616 0
M  V30 27048 C 2453.22 3.14148 3.33279 0
M  V30 27049 N 2454.71 3.13647 3.40851 0
M  V30 27050 C 2455.45 3.96628 4.14094 0
M  V30 27051 N 2454.94 4.89619 4.90148 0
M  V30 27052 N 2456.73 3.84733 4.09801 0
M  V30 27053 H 2448.89 2.01217 0.680101 0
M  V30 27054 H 2451.15 0.876113 0.362118 0
M  V30 27055 H 2450.85 2.97804 1.87098 0
M  V30 27056 H 2450.73 1.90641 3.25478 0
M  V30 27057 H 2453.12 1.04745 2.75885 0
M  V30 27058 H 2453.2 2.15367 1.38025 0
M  V30 27059 H 2452.84 4.12203 2.96734 0
M  V30 27060 H 2452.77 2.98581 4.3377 0
M  V30 27061 H 2455.26 2.46287 2.8662 0
M  V30 27062 H 2455.57 5.49427 5.43461 0
M  V30 27063 H 2453.92 4.93626 4.89243 0
M  V30 27064 H 2457.11 3.11414 3.49484 0
M  V30 27065 H 2457.28 4.49632 4.66621 0
M  V30 27066 N 2450.69 -1.27539 0.925834 0
M  V30 27067 C 2451.65 -2.25165 0.428168 0
M  V30 27068 C 2452.65 -1.5431 -0.452234 0
M  V30 27069 O 2453.84 -1.72344 -0.253578 0
M  V30 27070 C 2450.97 -3.38723 -0.384689 0
M  V30 27071 H 2452.17 -2.70704 1.29071 0
M  V30 27072 H 2449.72 -1.39429 0.706347 0
M  V30 27073 H 2450.46 -2.98563 -1.26613 0
M  V30 27074 H 2450.24 -3.91324 0.246523 0
M  V30 27075 H 2451.73 -4.11288 -0.723317 0
M  V30 27076 N 2452.17 -0.691135 -1.41637 0
M  V30 27077 C 2453.39 -0.227619 -2.06147 0
M  V30 27078 C 2453.82 1.11278 -1.51654 0
M  V30 27079 O 2453.18 1.69565 -0.64167 0
M  V30 27080 C 2453.22 -0.190922 -3.60094 0
M  V30 27081 O 2452.33 0.835593 -4.03846 0
M  V30 27082 H 2451.67 -0.112318 -0.654432 0
M  V30 27083 H 2454.2 -0.944746 -1.81482 0
M  V30 27084 H 2454.21 -0.0202787 -4.07995 0
M  V30 27085 H 2452.88 -1.16922 -3.99127 0
M  V30 27086 H 2451.46 0.634665 -3.67459 0
M  V30 27087 N 2453.65 1.51461 -0.435577 0
M  V30 27088 C 2455.06 1.59358 -0.0877782 0
M  V30 27089 C 2455.26 1.44663 1.40267 0
M  V30 27090 O 2454.32 1.28696 2.17241 0
M  V30 27091 C 2455.63 2.94524 -0.606316 0
M  V30 27092 C 2457.18 3.07829 -0.566602 0
M  V30 27093 C 2457.65 4.45515 -1.06208 0
M  V30 27094 N 2459.14 4.5183 -1.02 0
M  V30 27095 C 2459.88 5.56688 -1.37427 0
M  V30 27096 N 2459.38 6.68973 -1.80131 0
M  V30 27097 N 2461.17 5.47037 -1.29255 0
M  V30 27098 H 2453.32 1.59259 -1.40536 0
M  V30 27099 H 2455.58 0.750638 -0.579005 0
M  V30 27100 H 2455.29 3.10642 -1.64906 0
M  V30 27101 H 2455.16 3.77188 -0.030276 0
M  V30 27102 H 2457.55 2.91379 0.467157 0
M  V30 27103 H 2457.63 2.27008 -1.17902 0
M  V30 27104 H 2457.27 4.62711 -2.0943 0
M  V30 27105 H 2457.2 5.24872 -0.426219 0
M  V30 27106 H 2459.7 3.7124 -0.706373 0
M  V30 27107 H 2460.01 7.45002 -2.05405 0
M  V30 27108 H 2458.35 6.70185 -1.84056 0
M  V30 27109 H 2461.54 4.582 -0.957602 0
M  V30 27110 H 2461.72 6.28645 -1.57193 0
M  V30 27111 N 2455.12 0.166873 1.56714 0
M  V30 27112 C 2456.03 -0.777752 2.21333 0
M  V30 27113 C 2457.05 -1.25656 1.20361 0
M  V30 27114 O 2458.23 -1.30961 1.53007 0
M  V30 27115 C 2455.29 -1.99158 2.83791 0
M  V30 27116 C 2454.35 -1.56009 3.9995 0
M  V30 27117 C 2453.59 -2.71605 4.5942 0
M  V30 27118 O 2453.81 -3.88355 4.17776 0
M  V30 27119 O 2452.74 -2.45935 5.49363 0
M  V30 27120 H 2456.57 -0.257583 3.02606 0
M  V30 27121 H 2454.15 -0.061113 1.49275 0
M  V30 27122 H 2456.04 -2.70155 3.2341 0
M  V30 27123 H 2454.71 -2.50089 2.05517 0
M  V30 27124 H 2453.62 -0.819745 3.65008 0
M  V30 27125 H 2454.95 -1.09773 4.79803 0
M  V30 27126 N 2456.6 -1.57237 -0.106866 0
M  V30 27127 C 2457.51 -2.04532 -1.14907 0
M  V30 27128 C 2458.53 -0.967975 -1.4459 0
M  V30 27129 O 2459.7 -1.28033 -1.55465 0
M  V30 27130 C 2456.77 -2.4504 -2.45267 0
M  V30 27131 C 2455.83 -3.66914 -2.22873 0
M  V30 27132 C 2455.06 -4.05481 -3.47017 0
M  V30 27133 O 2455.29 -3.4426 -4.54798 0
M  V30 27134 O 2454.22 -4.9851 -3.37301 0
M  V30 27135 H 2458.05 -2.93581 -0.777409 0
M  V30 27136 H 2455.63 -1.45965 -0.318538 0
M  V30 27137 H 2457.51 -2.71775 -3.2205 0
M  V30 27138 H 2456.19 -1.59134 -2.81883 0
M  V30 27139 H 2455.1 -3.45313 -1.43909 0
M  V30 27140 H 2456.43 -4.53564 -1.91155 0
M  V30 27141 N 2458.08 0.377381 -1.53015 0
M  V30 27142 C 2459.33 1.1185 -1.67847 0
M  V30 27143 C 2459.64 1.908 -0.430659 0
M  V30 27144 O 2460.85 2.67587 -0.459308 0
M  V30 27145 C 2459.3 2.0375 -2.96671 0
M  V30 27146 C 2458.91 1.30168 -4.28673 0
M  V30 27147 C 2460.66 2.77926 -3.2087 0
M  V30 27148 C 2458.56 2.20902 -5.48595 0
M  V30 27149 H 2457.49 0.421252 -0.62535 0
M  V30 27150 H 2460.14 0.380378 -1.79514 0
M  V30 27151 H 2458.53 2.81245 -2.78778 0
M  V30 27152 H 2459.7 0.578179 -4.57158 0
M  V30 27153 H 2458.02 0.679035 -4.10826 0
M  V30 27154 H 2460.61 3.46017 -4.07648 0
M  V30 27155 H 2460.96 3.42646 -2.3643 0
M  V30 27156 H 2461.49 2.07519 -3.39383 0
M  V30 27157 H 2458.23 1.60778 -6.35477 0
M  V30 27158 H 2457.75 2.91134 -5.24405 0
M  V30 27159 H 2459.43 2.80726 -5.82925 0
M  V30 27160 N 2459.56 1.44175 0.636506 0
M  V30 27161 C 2460.49 1.53447 1.76 0
M  V30 27162 C 2461.47 0.38787 1.65619 0
M  V30 27163 O 2462.65 0.607289 1.8446 0
M  V30 27164 C 2459.78 1.47315 3.14508 0
M  V30 27165 C 2458.74 2.60397 3.39673 0
M  V30 27166 C 2458.06 2.39317 4.78154 0
M  V30 27167 C 2459.36 4.02573 3.32765 0
M  V30 27168 H 2461.06 2.47486 1.68497 0
M  V30 27169 H 2458.6 1.19112 0.809216 0
M  V30 27170 H 2460.56 1.52404 3.92875 0
M  V30 27171 H 2459.28 0.497906 3.22782 0
M  V30 27172 H 2457.94 2.54689 2.63684 0
M  V30 27173 H 2457.59 1.39997 4.83125 0
M  V30 27174 H 2457.29 3.1513 4.9595 0
M  V30 27175 H 2458.81 2.46215 5.58758 0
M  V30 27176 H 2460.23 4.09679 4.01044 0
M  V30 27177 H 2458.62 4.78547 3.62096 0
M  V30 27178 H 2459.69 4.26524 2.30662 0
M  V30 27179 N 2461.04 -0.876421 1.30983 0
M  V30 27180 C 2462 -1.96457 1.18057 0
M  V30 27181 C 2463 -1.60427 0.109428 0
M  V30 27182 O 2464.19 -1.70477 0.358203 0
M  V30 27183 C 2461.32 -3.31121 0.810675 0
M  V30 27184 H 2462.51 -2.0935 2.14739 0
M  V30 27185 H 2460.07 -1.0639 1.14502 0
M  V30 27186 H 2460.8 -3.23928 -0.155265 0
M  V30 27187 H 2460.59 -3.58642 1.58487 0
M  V30 27188 H 2462.08 -4.1092 0.743948 0
M  V30 27189 N 2462.51 -1.13839 -1.08989 0
M  V30 27190 C 2463.45 -0.77765 -2.15604 0
M  V30 27191 C 2464.46 0.202711 -1.61533 0
M  V30 27192 O 2465.65 -0.0181369 -1.78491 0
M  V30 27193 C 2462.75 -0.132682 -3.3864 0
M  V30 27194 C 2461.92 -1.14627 -4.22113 0
M  V30 27195 C 2460.98 -0.526166 -5.23563 0
M  V30 27196 O 2460.01 -1.18745 -5.56676 0
M  V30 27197 N 2461.21 0.699765 -5.76267 0
M  V30 27198 H 2463.97 -1.6951 -2.47156 0
M  V30 27199 H 2461.53 -1.032 -1.24745 0
M  V30 27200 H 2463.53 0.294519 -4.03627 0
M  V30 27201 H 2462.1 0.687795 -3.0494 0
M  V30 27202 H 2461.32 -1.75061 -3.53196 0
M  V30 27203 H 2462.6 -1.83117 -4.74706 0
M  V30 27204 H 2462 1.25571 -5.51587 0
M  V30 27205 H 2460.56 1.06956 -6.42965 0
M  V30 27206 N 2463.99 1.27046 -0.932584 0
M  V30 27207 C 2464.96 2.24935 -0.440104 0
M  V30 27208 C 2465.96 1.54547 0.444044 0
M  V30 27209 O 2467.15 1.72477 0.244434 0
M  V30 27210 C 2464.28 3.38922 0.36672 0
M  V30 27211 H 2465.47 2.70016 -1.30505 0
M  V30 27212 H 2463.02 1.39052 -0.713732 0
M  V30 27213 H 2463.76 2.9923 1.25028 0
M  V30 27214 H 2463.54 3.91188 -0.267272 0
M  V30 27215 H 2465.03 4.11666 0.701495 0
M  V30 27216 N 2465.47 0.698636 1.41269 0
M  V30 27217 C 2466.42 0.03525 2.30773 0
M  V30 27218 C 2467.39 -0.768085 1.47274 0
M  V30 27219 O 2468.57 -0.735493 1.76054 0
M  V30 27220 C 2465.71 -0.892941 3.33348 0
M  V30 27221 C 2464.83 -0.0808935 4.31924 0
M  V30 27222 C 2463.96 -1.00701 5.21568 0
M  V30 27223 C 2463 -0.188047 6.11811 0
M  V30 27224 N 2462.14 -1.06813 6.93928 0
M  V30 27225 H 2466.98 0.804257 2.86942 0
M  V30 27226 H 2464.51 0.408319 1.41319 0
M  V30 27227 H 2466.47 -1.44516 3.9137 0
M  V30 27228 H 2465.1 -1.62831 2.78722 0
M  V30 27229 H 2464.15 0.58829 3.75824 0
M  V30 27230 H 2465.47 0.553888 4.95715 0
M  V30 27231 H 2464.62 -1.62835 5.8444 0
M  V30 27232 H 2463.36 -1.67564 4.5801 0
M  V30 27233 H 2462.36 0.44635 5.47985 0
M  V30 27234 H 2463.59 0.476835 6.77424 0
M  V30 27235 H 2461.53 -1.72272 6.32976 0
M  V30 27236 H 2461.45 -0.48899 7.54417 0
M  V30 27237 H 2462.72 -1.67619 7.61265 0
M  V30 27238 N 2466.95 -1.51228 0.443603 0
M  V30 27239 C 2467.86 -2.31653 -0.37068 0
M  V30 27240 C 2468.87 -1.40835 -1.02183 0
M  V30 27241 O 2470.05 -1.73905 -1.01583 0
M  V30 27242 C 2467.12 -3.14751 -1.4537 0
M  V30 27243 C 2466.18 -4.21356 -0.822025 0
M  V30 27244 C 2465.41 -5.00483 -1.85344 0
M  V30 27245 O 2465.63 -4.80322 -3.07648 0
M  V30 27246 O 2464.57 -5.84409 -1.44049 0
M  V30 27247 H 2468.39 -3.0235 0.286055 0
M  V30 27248 H 2465.98 -1.47973 0.206006 0
M  V30 27249 H 2467.86 -3.66394 -2.08166 0
M  V30 27250 H 2466.53 -2.46812 -2.09441 0
M  V30 27251 H 2465.44 -3.73775 -0.155843 0
M  V30 27252 H 2466.77 -4.91687 -0.22471 0
M  V30 27253 N 2468.43 -0.175182 -1.56623 0
M  V30 27254 C 2469.37 0.770456 -2.19469 0
M  V30 27255 C 2470.37 1.23464 -1.15987 0
M  V30 27256 O 2471.57 1.19985 -1.34178 0
M  V30 27257 H 2467.95 0.266749 -0.7031 0
M  V30 27258 H 2469.92 0.216489 -2.97614 0
M  V30 27259 C 2468.67 1.98791 -2.85267 0
M  V30 27260 H 2467.99 1.63976 -3.64626 0
M  V30 27261 H 2469.43 2.62837 -3.32705 0
M  V30 27262 C 2467.89 2.81401 -1.85244 0
M  V30 27263 O 2468.42 3.7868 -1.34031 0
M  V30 27264 N 2466.63 2.46492 -1.53915 0
M  V30 27265 H 2466.17 1.67446 -1.95754 0
M  V30 27266 H 2466.13 3.02053 -0.872435 0
M  V30 27267 N 2469.91 1.57292 0.0985263 0
M  V30 27268 C 2470.82 2.05139 1.13821 0
M  V30 27269 C 2471.83 0.975629 1.44075 0
M  V30 27270 O 2473.01 1.28856 1.54784 0
M  V30 27271 C 2470.07 2.46338 2.43964 0
M  V30 27272 C 2469.13 3.68091 2.20924 0
M  V30 27273 C 2468.37 4.07316 3.44862 0
M  V30 27274 O 2468.59 3.46667 4.52966 0
M  V30 27275 O 2467.52 5.00291 3.34652 0
M  V30 27276 H 2471.35 2.9399 0.761829 0
M  V30 27277 H 2468.93 1.46132 0.310792 0
M  V30 27278 H 2470.82 2.73479 3.20605 0
M  V30 27279 H 2469.49 1.60626 2.81035 0
M  V30 27280 H 2468.4 3.46071 1.42075 0
M  V30 27281 H 2469.73 4.54572 1.88747 0
M  V30 27282 N 2471.38 -0.369261 1.53213 0
M  V30 27283 C 2472.33 -1.45215 1.79391 0
M  V30 27284 C 2473.3 -1.53355 0.638086 0
M  V30 27285 O 2474.49 -1.69301 0.879882 0
M  V30 27286 C 2471.63 -2.82208 1.98628 0
M  V30 27287 C 2470.74 -2.83064 3.26342 0
M  V30 27288 C 2469.87 -4.11608 3.35786 0
M  V30 27289 C 2468.91 -4.06593 4.57547 0
M  V30 27290 N 2468.05 -5.26779 4.64164 0
M  V30 27291 H 2472.89 -1.22193 2.71796 0
M  V30 27292 H 2470.43 -0.592421 1.34643 0
M  V30 27293 H 2472.38 -3.61785 2.07767 0
M  V30 27294 H 2471.01 -3.03638 1.09563 0
M  V30 27295 H 2470.07 -1.95741 3.26174 0
M  V30 27296 H 2471.38 -2.7523 4.15993 0
M  V30 27297 H 2470.53 -4.996 3.44217 0
M  V30 27298 H 2469.27 -4.22191 2.44144 0
M  V30 27299 H 2468.28 -3.16988 4.4922 0
M  V30 27300 H 2469.5 -3.97615 5.50526 0
M  V30 27301 H 2467.45 -5.37954 3.75422 0
M  V30 27302 H 2467.36 -5.21099 5.47715 0
M  V30 27303 H 2468.63 -6.16613 4.76874 0
M  V30 27304 N 2472.86 -1.4451 -0.628851 0
M  V30 27305 C 2473.81 -1.51552 -1.74071 0
M  V30 27306 C 2474.78 -0.363049 -1.62084 0
M  V30 27307 O 2475.96 -0.573599 -1.81974 0
M  V30 27308 C 2473.1 -1.46789 -3.12325 0
M  V30 27309 C 2472.22 -2.72428 -3.35272 0
M  V30 27310 C 2471.35 -2.59483 -4.63511 0
M  V30 27311 C 2470.39 -3.80274 -4.79644 0
M  V30 27312 N 2469.53 -3.65991 -5.99162 0
M  V30 27313 H 2474.37 -2.46547 -1.67388 0
M  V30 27314 H 2471.9 -1.22359 -0.816505 0
M  V30 27315 H 2473.86 -1.42019 -3.92284 0
M  V30 27316 H 2472.49 -0.5536 -3.18017 0
M  V30 27317 H 2471.54 -2.87376 -2.49237 0
M  V30 27318 H 2472.86 -3.62082 -3.43071 0
M  V30 27319 H 2472.01 -2.52558 -5.51633 0
M  V30 27320 H 2470.75 -1.67392 -4.58073 0
M  V30 27321 H 2469.75 -3.87581 -3.8995 0
M  V30 27322 H 2470.98 -4.73404 -4.86894 0
M  V30 27323 H 2468.93 -2.76654 -5.9481 0
M  V30 27324 H 2468.84 -4.49264 -6.08028 0
M  V30 27325 H 2470.11 -3.62962 -6.8984 0
M  V30 27326 N 2474.34 0.869463 -1.31446 0
M  V30 27327 C 2475.27 1.99259 -1.2173 0
M  V30 27328 C 2476.25 1.69779 -0.104389 0
M  V30 27329 O 2477.44 1.92036 -0.289072 0
M  V30 27330 C 2474.57 3.34772 -0.924376 0
M  V30 27331 C 2473.52 3.78559 -1.99692 0
M  V30 27332 C 2472.85 5.11539 -1.55667 0
M  V30 27333 C 2474.15 3.95613 -3.4101 0
M  V30 27334 H 2475.84 2.07645 -2.15694 0
M  V30 27335 H 2473.39 0.997657 -1.0384 0
M  V30 27336 H 2475.34 4.12882 -0.843006 0
M  V30 27337 H 2474.06 3.2656 0.0509219 0
M  V30 27338 H 2472.72 3.02691 -2.06819 0
M  V30 27339 H 2472.37 4.99769 -0.569219 0
M  V30 27340 H 2472.07 5.41807 -2.27419 0
M  V30 27341 H 2473.59 5.92157 -1.48939 0
M  V30 27342 H 2475.01 4.64116 -3.36555 0
M  V30 27343 H 2473.4 4.37279 -4.10983 0
M  V30 27344 H 2474.47 2.98979 -3.81759 0
M  V30 27345 N 2475.82 1.14415 1.08383 0
M  V30 27346 C 2476.76 0.831303 2.15309 0
M  V30 27347 C 2477.73 -0.211263 1.64751 0
M  V30 27348 O 2478.92 -0.0811339 1.90627 0
M  V30 27349 C 2476.06 0.315203 3.43658 0
M  V30 27350 C 2475.17 1.4181 4.08061 0
M  V30 27351 C 2474.31 0.859218 5.24205 0
M  V30 27352 C 2473.35 1.93977 5.80551 0
M  V30 27353 N 2472.48 1.39805 6.8804 0
M  V30 27354 H 2477.32 1.74713 2.41411 0
M  V30 27355 H 2474.86 0.871929 1.18473 0
M  V30 27356 H 2476.82 -0.0022355 4.172 0
M  V30 27357 H 2475.45 -0.563724 3.1784 0
M  V30 27358 H 2474.5 1.85193 3.32277 0
M  V30 27359 H 2475.81 2.23434 4.45958 0
M  V30 27360 H 2474.97 0.493697 6.04688 0
M  V30 27361 H 2473.71 0.0120177 4.87699 0
M  V30 27362 H 2472.71 2.31424 4.98721 0
M  V30 27363 H 2473.94 2.79057 6.19116 0
M  V30 27364 H 2471.88 0.573034 6.53492 0
M  V30 27365 H 2471.8 2.15067 7.24764 0
M  V30 27366 H 2473.07 1.06044 7.72253 0
M  V30 27367 N 2477.3 -1.26549 0.939309 0
M  V30 27368 C 2478.52 -1.9847 0.602043 0
M  V30 27369 C 2478.95 -1.69498 -0.815594 0
M  V30 27370 O 2478.3 -0.941933 -1.54911 0
M  V30 27371 C 2478.35 -3.50476 0.848468 0
M  V30 27372 O 2477.46 -4.12322 -0.0803284 0
M  V30 27373 H 2476.8 -0.622708 0.230501 0
M  V30 27374 H 2479.33 -1.61064 1.26173 0
M  V30 27375 H 2479.34 -4.00695 0.768623 0
M  V30 27376 H 2478.01 -3.70894 1.88178 0
M  V30 27377 H 2476.59 -3.72866 0.0504164 0
M  V30 27378 N 2478.77 -0.706118 -1.40896 0
M  V30 27379 C 2479.71 0.0032477 -2.282 0
M  V30 27380 C 2480.68 0.777295 -1.42818 0
M  V30 27381 O 2481.87 0.765914 -1.72238 0
M  V30 27382 C 2479 1.012 -3.23228 0
M  V30 27383 C 2478.04 0.32988 -4.25222 0
M  V30 27384 S 2478.87 -0.935391 -5.27267 0
M  V30 27385 C 2480.03 0.0714961 -6.25859 0
M  V30 27386 H 2480.26 -0.737193 -2.88015 0
M  V30 27387 H 2477.8 -0.496781 -1.4619 0
M  V30 27388 H 2479.75 1.58881 -3.78506 0
M  V30 27389 H 2478.42 1.72508 -2.62488 0
M  V30 27390 H 2477.61 1.09212 -4.92025 0
M  V30 27391 H 2477.21 -0.174134 -3.73594 0
M  V30 27392 H 2479.5 0.921403 -6.71205 0
M  V30 27393 H 2480.45 -0.562889 -7.05859 0
M  V30 27394 H 2480.85 0.430989 -5.62852 0
M  V30 27395 N 2480.25 1.50991 -0.451617 0
M  V30 27396 C 2481.16 2.31846 0.35839 0
M  V30 27397 C 2482.18 1.41375 1.01435 0
M  V30 27398 O 2483.35 1.74441 1.0066 0
M  V30 27399 C 2480.42 3.15518 1.43699 0
M  V30 27400 C 2479.48 4.21786 0.799668 0
M  V30 27401 C 2478.71 5.01459 1.82687 0
M  V30 27402 O 2478.94 4.81947 3.05096 0
M  V30 27403 O 2477.87 5.85164 1.40948 0
M  V30 27404 H 2481.7 3.02194 -0.302085 0
M  V30 27405 H 2479.28 1.47862 -0.213851 0
M  V30 27406 H 2481.16 3.67493 2.0622 0
M  V30 27407 H 2479.84 2.4792 2.08129 0
M  V30 27408 H 2478.74 3.73853 0.136018 0
M  V30 27409 H 2480.08 4.91799 0.198632 0
M  V30 27410 N 2481.73 0.183486 1.56528 0
M  V30 27411 C 2482.69 -0.728185 2.17325 0
M  V30 27412 C 2483.69 -1.14937 1.12455 0
M  V30 27413 O 2484.88 -1.06434 1.37903 0
M  V30 27414 C 2482.01 -1.99269 2.76595 0
M  V30 27415 H 2483.21 -0.19872 2.99241 0
M  V30 27416 H 2480.76 -0.0661116 1.5616 0
M  V30 27417 H 2481.5 -2.56495 1.98446 0
M  V30 27418 H 2481.28 -1.69953 3.53353 0
M  V30 27419 H 2482.77 -2.64305 3.23315 0
M  V30 27420 N 2483.21 -1.57342 -0.0901833 0
M  V30 27421 C 2484.12 -2.0574 -1.12731 0
M  V30 27422 C 2485.13 -0.983256 -1.43555 0
M  V30 27423 O 2486.31 -1.29675 -1.54099 0
M  V30 27424 C 2483.37 -2.47628 -2.42655 0
M  V30 27425 C 2482.44 -3.69258 -2.18969 0
M  V30 27426 C 2481.67 -4.09139 -3.42697 0
M  V30 27427 O 2481.89 -3.49065 -4.51121 0
M  V30 27428 O 2480.83 -5.02059 -3.31994 0
M  V30 27429 H 2484.65 -2.94389 -0.746228 0
M  V30 27430 H 2482.24 -1.46294 -0.303038 0
M  V30 27431 H 2484.12 -2.75175 -3.1915 0
M  V30 27432 H 2482.79 -1.62114 -2.8018 0
M  V30 27433 H 2481.7 -3.4682 -1.40238 0
M  V30 27434 H 2483.03 -4.55566 -1.86334 0
M  V30 27435 N 2484.69 0.36113 -1.53407 0
M  V30 27436 C 2485.62 1.46521 -1.74948 0
M  V30 27437 C 2486.6 1.51205 -0.597977 0
M  V30 27438 O 2487.78 1.6919 -0.831092 0
M  V30 27439 C 2484.91 2.84859 -1.83229 0
M  V30 27440 C 2483.95 2.97879 -3.05238 0
M  V30 27441 S 2484.79 2.66171 -4.64665 0
M  V30 27442 C 2485.94 4.06651 -4.758 0
M  V30 27443 H 2486.18 1.28028 -2.68321 0
M  V30 27444 H 2483.71 0.555739 -1.44052 0
M  V30 27445 H 2485.67 3.64566 -1.88685 0
M  V30 27446 H 2484.33 3.00659 -0.909001 0
M  V30 27447 H 2483.52 3.99205 -3.07655 0
M  V30 27448 H 2483.12 2.26101 -2.97917 0
M  V30 27449 H 2485.42 5.00952 -4.56128 0
M  V30 27450 H 2486.36 4.09237 -5.77867 0
M  V30 27451 H 2486.77 3.93858 -4.04396 0
M  V30 27452 N 2486.16 1.44842 0.621179 0
M  V30 27453 C 2487.41 1.47425 1.37655 0
M  V30 27454 C 2487.73 0.114663 1.95264 0
M  V30 27455 O 2488.93 0.0180676 2.71494 0
M  V30 27456 C 2487.39 2.5959 2.49281 0
M  V30 27457 C 2487 4.018 1.98142 0
M  V30 27458 C 2488.74 2.71405 3.26404 0
M  V30 27459 C 2486.65 5.05372 3.0717 0
M  V30 27460 H 2485.58 0.548527 0.517334 0
M  V30 27461 H 2488.23 1.7094 0.667227 0
M  V30 27462 H 2486.61 2.29333 3.22835 0
M  V30 27463 H 2487.78 4.41672 1.31388 0
M  V30 27464 H 2486.1 3.94316 1.33805 0
M  V30 27465 H 2488.7 3.45956 4.07699 0
M  V30 27466 H 2489.04 1.77565 3.76532 0
M  V30 27467 H 2489.57 3.0112 2.59945 0
M  V30 27468 H 2486.31 6.00874 2.61975 0
M  V30 27469 H 2485.83 4.70084 3.72534 0
M  V30 27470 H 2487.51 5.29517 3.7178 0
M  V30 27471 N 2487.64 -0.862479 1.31905 0
M  V30 27472 C 2488.57 -1.97673 1.16009 0
M  V30 27473 C 2489.59 -1.6251 0.0971519 0
M  V30 27474 O 2490.78 -1.75127 0.345367 0
M  V30 27475 C 2487.88 -3.30455 0.751849 0
M  V30 27476 C 2487.05 -3.93911 1.9014 0
M  V30 27477 C 2486.11 -5.05017 1.47799 0
M  V30 27478 O 2485.13 -5.25433 2.18881 0
M  V30 27479 N 2486.34 -5.79322 0.369593 0
M  V30 27480 H 2489.1 -2.11854 2.11986 0
M  V30 27481 H 2486.66 -1.03689 1.24339 0
M  V30 27482 H 2488.65 -4.02177 0.451155 0
M  V30 27483 H 2487.22 -3.12383 -0.116538 0
M  V30 27484 H 2486.44 -3.15074 2.36901 0
M  V30 27485 H 2487.73 -4.33042 2.67118 0
M  V30 27486 H 2487.13 -5.65263 -0.2222 0
M  V30 27487 H 2485.69 -6.51673 0.128469 0
M  V30 27488 N 2489.12 -1.14988 -1.07775 0
M  V30 27489 C 2490.05 -0.865595 -2.16863 0
M  V30 27490 C 2491.03 0.182053 -1.69123 0
M  V30 27491 O 2492.22 0.0373473 -1.94164 0
M  V30 27492 C 2489.35 -0.349373 -3.45538 0
M  V30 27493 C 2488.3 -1.3332 -4.06706 0
M  V30 27494 C 2487.63 -0.676011 -5.30409 0
M  V30 27495 C 2488.93 -2.69772 -4.47236 0
M  V30 27496 H 2490.62 -1.77782 -2.40902 0
M  V30 27497 H 2488.17 -0.856223 -1.15779 0
M  V30 27498 H 2490.12 -0.138057 -4.21174 0
M  V30 27499 H 2488.84 0.598306 -3.21073 0
M  V30 27500 H 2487.5 -1.53081 -3.33109 0
M  V30 27501 H 2487.15 0.277679 -5.02233 0
M  V30 27502 H 2486.85 -1.33254 -5.72291 0
M  V30 27503 H 2488.37 -0.474369 -6.08755 0
M  V30 27504 H 2489.79 -2.53882 -5.1402 0
M  V30 27505 H 2488.19 -3.31759 -5.00056 0
M  V30 27506 H 2489.26 -3.26162 -3.58812 0
M  V30 27507 N 2490.6 1.26049 -0.946007 0
M  V30 27508 C 2491.53 2.2538 -0.416702 0
M  V30 27509 C 2492.54 1.56087 0.462684 0
M  V30 27510 O 2493.73 1.7641 0.272352 0
M  V30 27511 C 2490.83 3.3629 0.419753 0
M  V30 27512 C 2490.01 4.35134 -0.444608 0
M  V30 27513 C 2489.06 5.2515 0.332212 0
M  V30 27514 O 2488.09 5.68576 -0.266423 0
M  V30 27515 N 2489.29 5.57218 1.62753 0
M  V30 27516 H 2492.06 2.71431 -1.27064 0
M  V30 27517 H 2489.62 1.39866 -0.815417 0
M  V30 27518 H 2491.61 3.93465 0.946944 0
M  V30 27519 H 2490.18 2.89696 1.17451 0
M  V30 27520 H 2489.4 3.76962 -1.15297 0
M  V30 27521 H 2490.69 4.98164 -1.03487 0
M  V30 27522 H 2490.09 5.23826 2.13594 0
M  V30 27523 H 2488.64 6.17015 2.10086 0
M  V30 27524 N 2492.08 0.71358 1.4052 0
M  V30 27525 C 2492.99 0.0607079 2.34521 0
M  V30 27526 C 2494 -0.746043 1.57195 0
M  V30 27527 O 2495.18 -0.67946 1.89592 0
M  V30 27528 C 2492.24 -0.851432 3.36083 0
M  V30 27529 C 2491.3 -0.0348584 4.29286 0
M  V30 27530 C 2490.54 -0.903557 5.25996 0
M  V30 27531 O 2490.76 -2.14282 5.2862 0
M  V30 27532 O 2489.69 -0.343618 6.00918 0
M  V30 27533 H 2493.52 0.836023 2.91966 0
M  V30 27534 H 2491.11 0.474045 1.4168 0
M  V30 27535 H 2492.99 -1.37397 3.98372 0
M  V30 27536 H 2491.66 -1.60593 2.81055 0
M  V30 27537 H 2490.57 0.532698 3.70288 0
M  V30 27538 H 2491.9 0.681372 4.87461 0
M  V30 27539 N 2493.55 -1.50749 0.459618 0
M  V30 27540 C 2494.46 -2.32033 -0.346089 0
M  V30 27541 C 2495.48 -1.41911 -1.00684 0
M  V30 27542 O 2496.66 -1.74972 -0.99733 0
M  V30 27543 C 2493.72 -3.16276 -1.42024 0
M  V30 27544 C 2492.78 -4.22205 -0.777288 0
M  V30 27545 C 2492.02 -5.02421 -1.80025 0
M  V30 27546 O 2492.24 -4.83558 -3.02536 0
M  V30 27547 O 2491.17 -5.85904 -1.37843 0
M  V30 27548 H 2495 -3.02029 0.318107 0
M  V30 27549 H 2492.58 -1.47746 0.221689 0
M  V30 27550 H 2494.47 -3.68581 -2.04269 0
M  V30 27551 H 2493.14 -2.4902 -2.06811 0
M  V30 27552 H 2492.05 -3.7392 -0.11619 0
M  V30 27553 H 2493.38 -4.91897 -0.172548 0
M  V30 27554 N 2495.03 -0.191784 -1.56429 0
M  V30 27555 C 2495.96 0.725657 -2.21938 0
M  V30 27556 C 2496.94 1.22378 -1.18142 0
M  V30 27557 O 2498.13 1.27322 -1.46638 0
M  V30 27558 C 2495.26 1.94667 -2.87615 0
M  V30 27559 C 2494.21 1.58359 -3.97626 0
M  V30 27560 C 2493.54 2.88094 -4.50451 0
M  V30 27561 C 2494.84 0.796042 -5.16198 0
M  V30 27562 H 2496.53 0.179554 -2.98861 0
M  V30 27563 H 2494.08 0.0849212 -1.43749 0
M  V30 27564 H 2496.03 2.59367 -3.32124 0
M  V30 27565 H 2494.76 2.51725 -2.08092 0
M  V30 27566 H 2493.41 0.960185 -3.53802 0
M  V30 27567 H 2493.06 3.43235 -3.67694 0
M  V30 27568 H 2492.76 2.64547 -5.2468 0
M  V30 27569 H 2494.29 3.53789 -4.9766 0
M  V30 27570 H 2495.7 1.34608 -5.57273 0
M  V30 27571 H 2494.1 0.658823 -5.96473 0
M  V30 27572 H 2495.17 -0.203563 -4.84473 0
M  V30 27573 N 2496.51 1.57387 0.0818378 0
M  V30 27574 C 2497.47 2.0202 1.08262 0
M  V30 27575 C 2498.47 0.915687 1.32181 0
M  V30 27576 O 2499.66 1.18083 1.28071 0
M  V30 27577 C 2496.8 2.39225 2.42866 0
M  V30 27578 H 2497.99 2.9166 0.698153 0
M  V30 27579 H 2495.54 1.52835 0.327276 0
M  V30 27580 H 2496.28 1.5258 2.86164 0
M  V30 27581 H 2496.06 3.19815 2.2685 0
M  V30 27582 H 2497.55 2.74367 3.14821 0
M  V30 27583 N 2497.99 -0.35299 1.53596 0
M  V30 27584 C 2498.95 -1.41591 1.80235 0
M  V30 27585 C 2499.95 -1.46034 0.673107 0
M  V30 27586 O 2501.14 -1.46574 0.941361 0
M  V30 27587 C 2498.27 -2.80604 1.93583 0
M  V30 27588 H 2499.47 -1.19239 2.75177 0
M  V30 27589 H 2497.02 -0.586846 1.44865 0
M  V30 27590 H 2497.75 -3.08253 1.00751 0
M  V30 27591 H 2497.54 -2.78776 2.75728 0
M  V30 27592 H 2499.03 -3.57555 2.15742 0
M  V30 27593 N 2499.47 -1.45169 -0.613489 0
M  V30 27594 C 2500.43 -1.5301 -1.70647 0
M  V30 27595 C 2501.43 -0.410212 -1.5548 0
M  V30 27596 O 2502.62 -0.673483 -1.60654 0
M  V30 27597 C 2499.75 -1.42098 -3.09872 0
M  V30 27598 H 2500.95 -2.50388 -1.65064 0
M  V30 27599 H 2498.5 -1.32522 -0.828705 0
M  V30 27600 H 2499.23 -0.458825 -3.21038 0
M  V30 27601 H 2499.02 -2.2332 -3.22289 0
M  V30 27602 H 2500.51 -1.50605 -3.89497 0
M  V30 27603 N 2500.95 0.855472 -1.32361 0
M  V30 27604 C 2501.86 1.99632 -1.23225 0
M  V30 27605 C 2502.87 1.73386 -0.146013 0
M  V30 27606 O 2504.05 1.98037 -0.366537 0
M  V30 27607 C 2501.11 3.33292 -0.95484 0
M  V30 27608 C 2500.17 3.72765 -2.12943 0
M  V30 27609 C 2499.41 5.00047 -1.86517 0
M  V30 27610 O 2499.63 5.64658 -0.80733 0
M  V30 27611 O 2498.56 5.36631 -2.726 0
M  V30 27612 H 2502.39 2.10276 -2.1913 0
M  V30 27613 H 2499.97 0.985999 -1.12243 0
M  V30 27614 H 2501.86 4.13412 -0.816592 0
M  V30 27615 H 2500.53 3.2369 -0.0259423 0
M  V30 27616 H 2499.44 2.93224 -2.32315 0
M  V30 27617 H 2500.77 3.87012 -3.04109 0
M  V30 27618 N 2502.42 1.15558 1.07164 0
M  V30 27619 C 2503.84 0.898626 1.31897 0
M  V30 27620 C 2504.04 -0.453348 1.96334 0
M  V30 27621 O 2503.1 -1.19485 2.2244 0
M  V30 27622 C 2504.41 2.04103 2.20823 0
M  V30 27623 C 2505.96 2.07578 2.34266 0
M  V30 27624 C 2506.43 3.21147 3.26541 0
M  V30 27625 N 2507.92 3.20807 3.34122 0
M  V30 27626 C 2508.66 4.05322 4.05588 0
M  V30 27627 N 2508.15 4.99905 4.79652 0
M  V30 27628 N 2509.95 3.93339 4.01548 0
M  V30 27629 H 2502.1 2.02615 0.637267 0
M  V30 27630 H 2504.36 0.883597 0.343453 0
M  V30 27631 H 2504.07 3.01706 1.80739 0
M  V30 27632 H 2503.94 1.97502 3.21361 0
M  V30 27633 H 2506.33 1.10573 2.73601 0
M  V30 27634 H 2506.41 2.18246 1.33425 0
M  V30 27635 H 2506.05 4.18405 2.87923 0
M  V30 27636 H 2505.98 3.07715 4.27339 0
M  V30 27637 H 2508.47 2.52311 2.81331 0
M  V30 27638 H 2508.79 5.60831 5.31684 0
M  V30 27639 H 2507.13 5.03892 4.78662 0
M  V30 27640 H 2510.32 3.18757 3.428 0
M  V30 27641 H 2510.5 4.59428 4.56979 0
M  V30 27642 N 2503.9 -1.25546 0.952678 0
M  V30 27643 C 2504.86 -2.24206 0.475833 0
M  V30 27644 C 2505.86 -1.55234 -0.419401 0
M  V30 27645 O 2507.05 -1.72844 -0.216964 0
M  V30 27646 C 2504.19 -3.39462 -0.312755 0
M  V30 27647 H 2505.38 -2.67905 1.34784 0
M  V30 27648 H 2502.93 -1.37899 0.735763 0
M  V30 27649 H 2503.67 -3.01181 -1.20251 0
M  V30 27650 H 2503.45 -3.90713 0.329473 0
M  V30 27651 H 2504.94 -4.1273 -0.635914 0
M  V30 27652 N 2505.38 -0.721022 -1.40139 0
M  V30 27653 C 2506.33 -0.0719595 -2.30688 0
M  V30 27654 C 2507.3 0.744558 -1.48477 0
M  V30 27655 O 2508.48 0.707391 -1.77202 0
M  V30 27656 C 2505.62 0.839796 -3.34726 0
M  V30 27657 C 2504.73 0.0121679 -4.31998 0
M  V30 27658 C 2503.87 0.923903 -5.23104 0
M  V30 27659 C 2502.91 0.0906894 -6.12033 0
M  V30 27660 N 2502.05 0.957596 -6.95539 0
M  V30 27661 H 2506.89 -0.849805 -2.85626 0
M  V30 27662 H 2504.42 -0.43075 -1.40652 0
M  V30 27663 H 2506.38 1.38272 -3.9362 0
M  V30 27664 H 2505.01 1.58376 -2.81277 0
M  V30 27665 H 2504.06 -0.648006 -3.7484 0
M  V30 27666 H 2505.37 -0.632682 -4.94771 0
M  V30 27667 H 2504.53 1.53517 -5.86956 0
M  V30 27668 H 2503.27 1.60256 -4.60618 0
M  V30 27669 H 2502.27 -0.533473 -5.47206 0
M  V30 27670 H 2503.5 -0.584547 -6.7658 0
M  V30 27671 H 2501.44 1.6218 -6.35636 0
M  V30 27672 H 2501.36 0.368907 -7.55099 0
M  V30 27673 H 2502.63 1.55487 -7.63835 0
M  V30 27674 N 2506.86 1.50503 -0.467606 0
M  V30 27675 C 2508.27 1.59136 -0.121561 0
M  V30 27676 C 2508.47 1.47605 1.37167 0
M  V30 27677 O 2507.53 1.33275 2.14462 0
M  V30 27678 C 2508.84 2.93172 -0.668652 0
M  V30 27679 C 2510.39 3.06558 -0.63177 0
M  V30 27680 C 2510.87 4.43162 -1.15635 0
M  V30 27681 N 2512.36 4.49565 -1.11561 0
M  V30 27682 C 2513.09 5.53648 -1.49204 0
M  V30 27683 N 2512.59 6.65002 -1.9428 0
M  V30 27684 N 2514.38 5.44172 -1.40829 0
M  V30 27685 H 2506.53 1.56242 -1.43882 0
M  V30 27686 H 2508.79 0.738187 -0.594797 0
M  V30 27687 H 2508.5 3.07075 -1.71459 0
M  V30 27688 H 2508.37 3.77039 -0.110276 0
M  V30 27689 H 2510.76 2.92304 0.405246 0
M  V30 27690 H 2510.84 2.24456 -1.22691 0
M  V30 27691 H 2510.49 4.58165 -2.19198 0
M  V30 27692 H 2510.42 5.2385 -0.537457 0
M  V30 27693 H 2512.91 3.69658 -0.78496 0
M  V30 27694 H 2513.22 7.40478 -2.21161 0
M  V30 27695 H 2511.57 6.6613 -1.9823 0
M  V30 27696 H 2514.76 4.56066 -1.05458 0
M  V30 27697 H 2514.93 6.25169 -1.70492 0
M  V30 27698 N 2508.34 0.200077 1.56325 0
M  V30 27699 C 2509.27 -0.750733 2.16556 0
M  V30 27700 C 2510.28 -1.17318 1.12873 0
M  V30 27701 O 2511.47 -1.10805 1.39945 0
M  V30 27702 C 2508.57 -2.02581 2.71688 0
M  V30 27703 C 2507.74 -1.76237 4.00324 0
M  V30 27704 C 2506.8 -2.8824 4.40232 0
M  V30 27705 O 2505.83 -2.57633 5.07557 0
M  V30 27706 N 2507.03 -4.1671 4.04145 0
M  V30 27707 H 2509.79 -0.235632 2.98772 0
M  V30 27708 H 2507.36 0.0182878 1.6189 0
M  V30 27709 H 2509.35 -2.76659 2.95367 0
M  V30 27710 H 2507.92 -2.45199 1.93898 0
M  V30 27711 H 2507.14 -0.859122 3.84724 0
M  V30 27712 H 2508.43 -1.56039 4.84282 0
M  V30 27713 H 2507.82 -4.44427 3.50001 0
M  V30 27714 H 2506.38 -4.87399 4.32764 0
M  V30 27715 N 2509.81 -1.57429 -0.0734901 0
M  V30 27716 C 2510.78 -2.02591 -1.07189 0
M  V30 27717 C 2511.78 -0.922684 -1.31694 0
M  V30 27718 O 2512.97 -1.1876 -1.27443 0
M  V30 27719 C 2510.1 -2.4051 -2.41594 0
M  V30 27720 H 2511.29 -2.92027 -0.682676 0
M  V30 27721 H 2508.84 -1.53007 -0.319167 0
M  V30 27722 H 2509.58 -1.54095 -2.85351 0
M  V30 27723 H 2509.36 -3.21013 -2.25151 0
M  V30 27724 H 2510.85 -2.76033 -3.13362 0
M  V30 27725 N 2511.29 0.344839 -1.53781 0
M  V30 27726 C 2512.22 1.44403 -1.7799 0
M  V30 27727 C 2513.24 1.4877 -0.661165 0
M  V30 27728 O 2514.43 1.51876 -0.937869 0
M  V30 27729 C 2511.53 2.83067 -1.8635 0
M  V30 27730 C 2510.7 3.02155 -3.16261 0
M  V30 27731 C 2509.76 4.21053 -3.15595 0
M  V30 27732 O 2508.78 4.15232 -3.89322 0
M  V30 27733 N 2509.99 5.29525 -2.37873 0
M  V30 27734 H 2512.75 1.24007 -2.72841 0
M  V30 27735 H 2510.31 0.53471 -1.52815 0
M  V30 27736 H 2512.3 3.6078 -1.83357 0
M  V30 27737 H 2510.87 2.96612 -0.98691 0
M  V30 27738 H 2510.09 2.11923 -3.32389 0
M  V30 27739 H 2511.38 3.1179 -4.02075 0
M  V30 27740 H 2510.78 5.37124 -1.77523 0
M  V30 27741 H 2509.34 6.05737 -2.40679 0
M  V30 27742 N 2512.77 1.45492 0.605781 0
M  V30 27743 C 2513.7 1.50313 1.73028 0
M  V30 27744 C 2514.71 0.393715 1.57967 0
M  V30 27745 O 2515.9 0.660868 1.65816 0
M  V30 27746 C 2513 1.34548 3.11047 0
M  V30 27747 C 2512.18 2.59196 3.5233 0
M  V30 27748 C 2511.24 2.37962 4.69319 0
M  V30 27749 O 2510.26 3.11583 4.76345 0
M  V30 27750 N 2511.46 1.4264 5.62703 0
M  V30 27751 H 2514.23 2.47263 1.69356 0
M  V30 27752 H 2511.79 1.41255 0.791115 0
M  V30 27753 H 2513.78 1.18151 3.87069 0
M  V30 27754 H 2512.35 0.458677 3.09217 0
M  V30 27755 H 2511.57 2.90696 2.66251 0
M  V30 27756 H 2512.86 3.42047 3.76671 0
M  V30 27757 H 2512.26 0.818856 5.59742 0
M  V30 27758 H 2510.81 1.32214 6.3825 0
M  V30 27759 N 2514.25 -0.848441 1.32813 0
M  V30 27760 C 2515.16 -1.98975 1.24282 0
M  V30 27761 C 2516.17 -1.73306 0.155206 0
M  V30 27762 O 2517.35 -1.97839 0.377034 0
M  V30 27763 C 2514.42 -3.32781 0.972502 0
M  V30 27764 C 2513.48 -3.7163 2.14917 0
M  V30 27765 C 2512.71 -4.99051 1.89166 0
M  V30 27766 O 2512.93 -5.64222 0.837264 0
M  V30 27767 O 2511.87 -5.35178 2.75442 0
M  V30 27768 H 2515.69 -2.09111 2.20242 0
M  V30 27769 H 2513.28 -0.980032 1.12764 0
M  V30 27770 H 2515.16 -4.12973 0.838504 0
M  V30 27771 H 2513.83 -3.23671 0.0431079 0
M  V30 27772 H 2512.74 -2.91988 2.33867 0
M  V30 27773 H 2514.07 -3.85394 3.06157 0
M  V30 27774 N 2515.73 -1.16125 -1.06549 0
M  V30 27775 C 2517.14 -0.905609 -1.31419 0
M  V30 27776 C 2517.34 0.44293 -1.96572 0
M  V30 27777 O 2516.4 1.18304 -2.23071 0
M  V30 27778 C 2517.71 -2.05271 -2.19737 0
M  V30 27779 C 2519.26 -2.08817 -2.33162 0
M  V30 27780 C 2519.73 -3.22874 -3.24833 0
M  V30 27781 N 2521.23 -3.22574 -3.32416 0
M  V30 27782 C 2521.96 -4.07467 -4.03433 0
M  V30 27783 N 2521.46 -5.02442 -4.76995 0
M  V30 27784 N 2523.25 -3.95463 -3.99457 0
M  V30 27785 H 2515.4 -2.0295 -0.626513 0
M  V30 27786 H 2517.66 -0.885406 -0.338762 0
M  V30 27787 H 2517.37 -3.0266 -1.79136 0
M  V30 27788 H 2517.24 -1.99203 -3.20309 0
M  V30 27789 H 2519.63 -1.12023 -2.73011 0
M  V30 27790 H 2519.71 -2.18951 -1.32266 0
M  V30 27791 H 2519.36 -4.19926 -2.857 0
M  V30 27792 H 2519.29 -3.09977 -4.25701 0
M  V30 27793 H 2521.78 -2.538 -2.79989 0
M  V30 27794 H 2522.09 -5.63643 -5.28703 0
M  V30 27795 H 2520.43 -5.06424 -4.75983 0
M  V30 27796 H 2523.63 -3.2057 -3.41105 0
M  V30 27797 H 2523.8 -4.61845 -4.54536 0
M  V30 27798 N 2517.2 1.25039 -0.959323 0
M  V30 27799 C 2518.48 1.88174 -0.533838 0
M  V30 27800 C 2518.86 1.86501 0.988962 0
M  V30 27801 O 2518.21 1.3318 1.85675 0
M  V30 27802 C 2518.42 3.30682 -1.11581 0
M  V30 27803 C 2519.77 4.07421 -1.19555 0
M  V30 27804 O 2520.79 3.39821 -1.06771 0
M  V30 27805 O 2519.65 5.28352 -1.39665 0
M  V30 27806 H 2516.74 0.807883 -0.176786 0
M  V30 27807 H 2519.29 1.33075 -1.05306 0
M  V30 27808 H 2518.06 3.26355 -2.1589 0
M  V30 27809 H 2517.69 3.93345 -0.580128 0
M  V30 27810 N 2518.68 0.728444 1.39755 0
M  V30 27811 C 2519.59 0.0855786 2.34444 0
M  V30 27812 C 2520.61 -0.729328 1.57977 0
M  V30 27813 O 2521.78 -0.659313 1.90302 0
M  V30 27814 C 2518.85 -0.815738 3.36967 0
M  V30 27815 C 2517.91 0.0106751 4.29299 0
M  V30 27816 C 2517.14 -0.847717 5.26925 0
M  V30 27817 O 2517.37 -2.08664 5.30863 0
M  V30 27818 O 2516.3 -0.279863 6.01249 0
M  V30 27819 H 2520.13 0.866943 2.91063 0
M  V30 27820 H 2517.71 0.489045 1.41169 0
M  V30 27821 H 2519.59 -1.33164 3.99807 0
M  V30 27822 H 2518.27 -1.57603 2.82742 0
M  V30 27823 H 2517.18 0.571942 3.69702 0
M  V30 27824 H 2518.51 0.733036 4.86711 0
M  V30 27825 N 2520.16 -1.50253 0.475581 0
M  V30 27826 C 2521.09 -2.31485 -0.306069 0
M  V30 27827 C 2522.07 -1.38593 -0.986204 0
M  V30 27828 O 2523.26 -1.67512 -0.982511 0
M  V30 27829 C 2520.39 -3.18453 -1.38583 0
M  V30 27830 C 2519.34 -4.19933 -0.827041 0
M  V30 27831 C 2518.67 -4.95668 -2.00542 0
M  V30 27832 C 2519.97 -5.2204 0.164722 0
M  V30 27833 H 2521.66 -2.97081 0.371918 0
M  V30 27834 H 2519.21 -1.42867 0.180307 0
M  V30 27835 H 2521.16 -3.74079 -1.94017 0
M  V30 27836 H 2519.88 -2.50751 -2.09265 0
M  V30 27837 H 2518.54 -3.65414 -0.294637 0
M  V30 27838 H 2518.19 -4.24435 -2.69933 0
M  V30 27839 H 2517.89 -5.64315 -1.63774 0
M  V30 27840 H 2519.41 -5.54131 -2.56459 0
M  V30 27841 H 2520.83 -5.72511 -0.300598 0
M  V30 27842 H 2519.23 -5.98433 0.446918 0
M  V30 27843 H 2520.3 -4.7251 1.08913 0
M  V30 27844 N 2521.64 -0.208365 -1.56217 0
M  V30 27845 C 2522.6 0.693518 -2.18456 0
M  V30 27846 C 2523.6 1.13133 -1.1427 0
M  V30 27847 O 2524.79 1.04227 -1.39579 0
M  V30 27848 C 2521.92 1.94843 -2.7973 0
M  V30 27849 H 2523.12 0.151088 -2.99519 0
M  V30 27850 H 2520.67 0.0412595 -1.56246 0
M  V30 27851 H 2521.4 2.53306 -2.02501 0
M  V30 27852 H 2521.19 1.6431 -3.56012 0
M  V30 27853 H 2522.68 2.59128 -3.27479 0
M  V30 27854 N 2523.12 1.57465 0.0651402 0
M  V30 27855 C 2524.39 1.78652 0.796408 0
M  V30 27856 C 2524.77 0.7976 1.95452 0
M  V30 27857 O 2524.12 -0.167906 2.27882 0
M  V30 27858 C 2524.33 3.25339 1.26316 0
M  V30 27859 C 2525.68 3.89351 1.69384 0
M  V30 27860 O 2526.7 3.2927 1.35866 0
M  V30 27861 O 2525.56 4.95063 2.31462 0
M  V30 27862 H 2522.66 0.733413 0.382144 0
M  V30 27863 H 2525.2 1.69641 0.0447013 0
M  V30 27864 H 2523.97 3.88877 0.434791 0
M  V30 27865 H 2523.6 3.391 2.07598 0
M  V30 27866 N 2524.59 -0.336679 1.53962 0
M  V30 27867 C 2525.5 -1.43705 1.85435 0
M  V30 27868 C 2526.52 -1.5724 0.745081 0
M  V30 27869 O 2527.7 -1.72586 1.03807 0
M  V30 27870 C 2524.76 -2.78602 2.06354 0
M  V30 27871 C 2523.82 -2.74353 3.30196 0
M  V30 27872 C 2523.06 -4.02815 3.50108 0
M  V30 27873 O 2523.28 -5.00434 2.73719 0
M  V30 27874 O 2522.21 -4.0687 4.43554 0
M  V30 27875 H 2526.04 -1.20023 2.78977 0
M  V30 27876 H 2523.62 -0.529496 1.39702 0
M  V30 27877 H 2525.51 -3.58479 2.21519 0
M  V30 27878 H 2524.18 -3.02201 1.16 0
M  V30 27879 H 2523.09 -1.93072 3.20428 0
M  V30 27880 H 2524.42 -2.55707 4.20565 0
M  V30 27881 N 2526.07 -1.45812 -0.598057 0
M  V30 27882 C 2527.32 -1.49596 -1.35292 0
M  V30 27883 C 2527.63 -0.145713 -1.95056 0
M  V30 27884 O 2528.84 -0.0612576 -2.71431 0
M  V30 27885 C 2527.3 -2.63523 -2.45119 0
M  V30 27886 C 2526.9 -4.04902 -1.91725 0
M  V30 27887 C 2528.65 -2.76563 -3.22045 0
M  V30 27888 C 2526.56 -5.10195 -2.99091 0
M  V30 27889 H 2525.49 -0.556687 -0.508542 0
M  V30 27890 H 2528.14 -1.71979 -0.639947 0
M  V30 27891 H 2526.52 -2.3444 -3.19145 0
M  V30 27892 H 2527.69 -4.43706 -1.24344 0
M  V30 27893 H 2526.01 -3.96395 -1.27515 0
M  V30 27894 H 2528.6 -3.52398 -4.02144 0
M  V30 27895 H 2528.95 -1.83533 -3.73659 0
M  V30 27896 H 2529.48 -3.05218 -2.55121 0
M  V30 27897 H 2526.22 -6.04966 -2.52382 0
M  V30 27898 H 2525.74 -4.75951 -3.65008 0
M  V30 27899 H 2527.42 -5.35365 -3.63309 0
M  V30 27900 N 2527.55 0.841385 -1.33261 0
M  V30 27901 C 2528.51 1.93257 -1.23224 0
M  V30 27902 C 2529.51 1.60081 -0.151923 0
M  V30 27903 O 2530.7 1.69468 -0.403276 0
M  V30 27904 C 2527.84 3.28855 -0.89818 0
M  V30 27905 H 2529.03 2.03583 -2.20214 0
M  V30 27906 H 2526.58 1.03317 -1.17283 0
M  V30 27907 H 2527.32 3.24226 0.0693271 0
M  V30 27908 H 2527.1 3.54314 -1.6794 0
M  V30 27909 H 2528.59 4.08803 -0.852635 0
M  V30 27910 N 2529.03 1.16688 1.05932 0
M  V30 27911 C 2529.98 0.872855 2.15601 0
M  V30 27912 C 2530.97 -0.159546 1.68647 0
M  V30 27913 O 2532.18 -0.0131809 1.79995 0
M  V30 27914 H 2528.55 0.264683 0.70388 0
M  V30 27915 H 2530.52 1.80511 2.3761 0
M  V30 27916 C 2529.27 0.394405 3.45456 0
M  V30 27917 H 2528.6 1.18026 3.81982 0
M  V30 27918 H 2530.04 0.227482 4.23389 0
M  V30 27919 C 2528.49 -0.886672 3.25023 0
M  V30 27920 O 2529.02 -1.95513 3.5091 0
M  V30 27921 N 2527.23 -0.831876 2.78439 0
M  V30 27922 H 2526.78 0.0378072 2.57572 0
M  V30 27923 H 2526.74 -1.68951 2.65147 0
M  V30 27924 N 2530.51 -1.24529 0.96594 0
M  V30 27925 C 2531.73 -1.97148 0.644006 0
M  V30 27926 C 2532.16 -1.7119 -0.779457 0
M  V30 27927 O 2531.52 -0.97458 -1.52878 0
M  V30 27928 C 2531.56 -3.48597 0.922618 0
M  V30 27929 O 2530.67 -4.12399 0.00714921 0
M  V30 27930 H 2530.01 -0.617678 0.243658 0
M  V30 27931 H 2532.54 -1.58351 1.29561 0
M  V30 27932 H 2532.55 -3.98974 0.853443 0
M  V30 27933 H 2531.22 -3.66819 1.96002 0
M  V30 27934 H 2529.8 -3.72675 0.129495 0
M  V30 27935 N 2531.99 -0.735845 -1.39367 0
M  V30 27936 C 2533.21 -0.293088 -2.05319 0
M  V30 27937 C 2533.64 1.06397 -1.55117 0
M  V30 27938 O 2532.99 1.67438 -0.695291 0
M  V30 27939 C 2533.04 -0.305386 -3.59305 0
M  V30 27940 O 2532.15 0.706689 -4.063 0
M  V30 27941 H 2531.49 -0.133081 -0.650527 0
M  V30 27942 H 2534.02 -1.00201 -1.78384 0
M  V30 27943 H 2534.03 -0.150069 -4.07724 0
M  V30 27944 H 2532.7 -1.2956 -3.95205 0
M  V30 27945 H 2531.28 0.517439 -3.69293 0
M  V30 27946 N 2533.46 1.49999 -0.483543 0
M  V30 27947 C 2534.71 2.01989 0.0669915 0
M  V30 27948 C 2535.03 1.36673 1.39088 0
M  V30 27949 O 2534.3 0.516185 1.88977 0
M  V30 27950 H 2532.88 0.746484 0.0277475 0
M  V30 27951 H 2535.54 1.84203 -0.636805 0
M  V30 27952 H 2534.64 3.11397 0.209429 0
M  V30 27953 N 2534.94 0.216646 1.56104 0
M  V30 27954 C 2535.89 -0.695492 2.20072 0
M  V30 27955 C 2536.86 -1.19395 1.15473 0
M  V30 27956 O 2538.04 -1.25394 1.43809 0
M  V30 27957 C 2535.18 -1.90016 2.88076 0
M  V30 27958 C 2534.3 -1.44106 4.07256 0
M  V30 27959 C 2533.43 -2.60292 4.63057 0
M  V30 27960 C 2532.47 -2.11093 5.74549 0
M  V30 27961 N 2531.61 -3.20534 6.24662 0
M  V30 27962 H 2536.45 -0.143275 2.97655 0
M  V30 27963 H 2533.98 -0.0589676 1.46982 0
M  V30 27964 H 2535.94 -2.60739 3.25686 0
M  V30 27965 H 2534.57 -2.42534 2.13019 0
M  V30 27966 H 2533.62 -0.628934 3.75165 0
M  V30 27967 H 2534.94 -1.04027 4.87832 0
M  V30 27968 H 2534.09 -3.39104 5.03084 0
M  V30 27969 H 2532.83 -3.03656 3.81634 0
M  V30 27970 H 2531.83 -1.30741 5.34029 0
M  V30 27971 H 2533.06 -1.68734 6.57804 0
M  V30 27972 H 2531.01 -3.63389 5.46154 0
M  V30 27973 H 2530.92 -2.84691 7.00348 0
M  V30 27974 H 2532.19 -3.99496 6.69345 0
M  V30 27975 N 2536.42 -1.57498 -0.0567885 0
M  V30 27976 C 2537.67 -1.87605 -0.751584 0
M  V30 27977 C 2537.99 -0.810691 -1.77349 0
M  V30 27978 O 2537.26 0.158984 -1.95254 0
M  V30 27979 H 2535.84 -0.692307 -0.280571 0
M  V30 27980 H 2538.5 -1.94878 -0.0293141 0
M  V30 27981 H 2537.6 -2.85603 -1.25847 0
M  V30 27982 N 2537.9 0.328509 -1.54138 0
M  V30 27983 C 2538.86 1.38706 -1.82465 0
M  V30 27984 C 2539.86 1.44945 -0.696254 0
M  V30 27985 O 2541.05 1.45058 -0.964561 0
M  V30 27986 C 2538.18 2.77488 -1.98023 0
M  V30 27987 H 2539.38 1.14846 -2.77039 0
M  V30 27988 H 2536.93 0.563725 -1.4578 0
M  V30 27989 H 2537.66 3.06611 -1.05643 0
M  V30 27990 H 2537.45 2.74354 -2.80129 0
M  V30 27991 H 2538.94 3.54077 -2.21403 0
M  V30 27992 N 2539.38 1.46127 0.590316 0
M  V30 27993 C 2540.31 1.58969 1.71029 0
M  V30 27994 C 2541.29 0.440364 1.64301 0
M  V30 27995 O 2542.47 0.665666 1.82435 0
M  V30 27996 C 2539.6 1.57246 3.09662 0
M  V30 27997 C 2538.56 2.71072 3.31216 0
M  V30 27998 C 2537.88 2.54408 4.70299 0
M  V30 27999 C 2539.18 4.12956 3.19789 0
M  V30 28000 H 2540.88 2.52721 1.60538 0
M  V30 28001 H 2538.42 1.21626 0.770912 0
M  V30 28002 H 2540.37 1.64826 3.87828 0
M  V30 28003 H 2539.1 0.600345 3.21035 0
M  V30 28004 H 2537.76 2.62949 2.55447 0
M  V30 28005 H 2537.41 1.55296 4.78427 0
M  V30 28006 H 2537.11 3.30749 4.85674 0
M  V30 28007 H 2538.63 2.63867 5.50642 0
M  V30 28008 H 2540.04 4.2223 3.87807 0
M  V30 28009 H 2538.44 4.89824 3.46688 0
M  V30 28010 H 2539.51 4.33647 2.16976 0
M  V30 28011 N 2540.85 -0.834306 1.33705 0
M  V30 28012 C 2541.82 -1.92601 1.24247 0
M  V30 28013 C 2542.82 -1.59998 0.160411 0
M  V30 28014 O 2544.01 -1.69252 0.412257 0
M  V30 28015 C 2541.14 -3.28374 0.915608 0
M  V30 28016 H 2542.33 -2.02412 2.2129 0
M  V30 28017 H 2539.88 -1.02694 1.17829 0
M  V30 28018 H 2540.62 -3.24258 -0.0521316 0
M  V30 28019 H 2540.4 -3.53419 1.69817 0
M  V30 28020 H 2541.89 -4.08345 0.874303 0
M  V30 28021 N 2542.33 -1.17248 -1.05312 0
M  V30 28022 C 2543.26 -0.9114 -2.14978 0
M  V30 28023 C 2544.24 0.146139 -1.69471 0
M  V30 28024 O 2545.43 -0.00384614 -1.942 0
M  V30 28025 C 2542.56 -0.422589 -3.44719 0
M  V30 28026 C 2541.51 -1.41917 -4.03786 0
M  V30 28027 C 2540.84 -0.788367 -5.28856 0
M  V30 28028 C 2542.14 -2.79198 -4.41413 0
M  V30 28029 H 2543.83 -1.82852 -2.37077 0
M  V30 28030 H 2541.38 -0.880589 -1.13937 0
M  V30 28031 H 2543.33 -0.227363 -4.20786 0
M  V30 28032 H 2542.05 0.530067 -3.2227 0
M  V30 28033 H 2540.71 -1.60112 -3.29787 0
M  V30 28034 H 2540.36 0.171085 -5.02709 0
M  V30 28035 H 2540.06 -1.45363 -5.69336 0
M  V30 28036 H 2541.59 -0.603389 -6.07611 0
M  V30 28037 H 2543 -2.64728 -5.08519 0
M  V30 28038 H 2541.4 -3.42291 -4.92907 0
M  V30 28039 H 2542.47 -3.337 -3.51813 0
M  V30 28040 N 2543.81 1.24015 -0.972531 0
M  V30 28041 C 2544.72 2.28892 -0.51434 0
M  V30 28042 C 2545.74 1.68678 0.427048 0
M  V30 28043 O 2546.91 1.9917 0.298904 0
M  V30 28044 C 2543.98 3.46214 0.183537 0
M  V30 28045 C 2543.04 4.21813 -0.798276 0
M  V30 28046 C 2542.27 5.33533 -0.133608 0
M  V30 28047 O 2542.49 5.60139 1.07704 0
M  V30 28048 O 2541.43 5.96175 -0.828208 0
M  V30 28049 H 2545.25 2.70212 -1.38633 0
M  V30 28050 H 2542.84 1.29798 -0.739792 0
M  V30 28051 H 2544.72 4.17454 0.57536 0
M  V30 28052 H 2543.4 3.06862 1.03042 0
M  V30 28053 H 2542.3 3.52929 -1.24065 0
M  V30 28054 H 2543.64 4.64994 -1.61372 0
M  V30 28055 N 2545.29 0.743226 1.38974 0
M  V30 28056 C 2546.2 0.11044 2.3434 0
M  V30 28057 C 2547.21 -0.712531 1.58742 0
M  V30 28058 O 2548.39 -0.639092 1.90991 0
M  V30 28059 C 2545.46 -0.779953 3.37813 0
M  V30 28060 C 2544.52 0.0562073 4.29263 0
M  V30 28061 C 2543.75 -0.791782 5.27794 0
M  V30 28062 O 2543.97 -2.03021 5.33046 0
M  V30 28063 O 2542.91 -0.216077 6.01512 0
M  V30 28064 H 2546.73 0.897765 2.90127 0
M  V30 28065 H 2544.32 0.503991 1.40642 0
M  V30 28066 H 2546.2 -1.28916 4.01197 0
M  V30 28067 H 2544.87 -1.54595 2.84398 0
M  V30 28068 H 2543.78 0.611121 3.69075 0
M  V30 28069 H 2545.11 0.784617 4.85906 0
M  V30 28070 N 2546.77 -1.4974 0.491491 0
M  V30 28071 C 2547.71 -2.28946 -0.291986 0
M  V30 28072 C 2548.68 -1.3491 -0.968949 0
M  V30 28073 O 2549.87 -1.63861 -0.977452 0
M  V30 28074 C 2547.01 -3.17338 -1.35611 0
M  V30 28075 C 2546.12 -4.26423 -0.691882 0
M  V30 28076 C 2545.26 -5.02045 -1.73563 0
M  V30 28077 C 2544.3 -6.02979 -1.05276 0
M  V30 28078 N 2543.43 -6.71801 -2.04028 0
M  V30 28079 H 2548.27 -2.95441 0.389706 0
M  V30 28080 H 2545.81 -1.45678 0.204029 0
M  V30 28081 H 2547.77 -3.66954 -1.98495 0
M  V30 28082 H 2546.4 -2.52847 -2.00669 0
M  V30 28083 H 2545.45 -3.80367 0.0500192 0
M  V30 28084 H 2546.76 -4.98563 -0.153858 0
M  V30 28085 H 2545.92 -5.55482 -2.43977 0
M  V30 28086 H 2544.65 -4.29658 -2.3075 0
M  V30 28087 H 2543.66 -5.48782 -0.33435 0
M  V30 28088 H 2544.88 -6.77348 -0.487517 0
M  V30 28089 H 2542.83 -6.02192 -2.60194 0
M  V30 28090 H 2542.75 -7.39884 -1.55266 0
M  V30 28091 H 2544.02 -7.29847 -2.73759 0
M  V30 28092 N 2548.24 -0.224922 -1.55987 0
M  V30 28093 C 2549.66 0.130398 -1.59066 0
M  V30 28094 C 2549.86 1.58688 -1.24179 0
M  V30 28095 O 2548.92 2.32764 -0.978633 0
M  V30 28096 C 2550.23 -0.198935 -3.00041 0
M  V30 28097 C 2551.78 -0.141446 -3.1268 0
M  V30 28098 C 2552.25 -0.444502 -4.55838 0
M  V30 28099 N 2553.74 -0.394196 -4.6152 0
M  V30 28100 C 2554.48 -0.602138 -5.7023 0
M  V30 28101 N 2553.97 -0.872035 -6.8729 0
M  V30 28102 N 2555.77 -0.534344 -5.59554 0
M  V30 28103 H 2547.92 -1.17501 -1.76939 0
M  V30 28104 H 2550.18 -0.471212 -0.822596 0
M  V30 28105 H 2549.89 -1.20995 -3.30232 0
M  V30 28106 H 2549.76 0.48447 -3.74076 0
M  V30 28107 H 2552.15 0.860215 -2.82284 0
M  V30 28108 H 2552.23 -0.858377 -2.40968 0
M  V30 28109 H 2551.87 -1.44362 -4.86952 0
M  V30 28110 H 2551.8 0.29366 -5.25781 0
M  V30 28111 H 2554.29 -0.193422 -3.77405 0
M  V30 28112 H 2554.61 -1.01871 -7.66056 0
M  V30 28113 H 2552.95 -0.909266 -6.89026 0
M  V30 28114 H 2556.14 -0.323694 -4.66979 0
M  V30 28115 H 2556.32 -0.699806 -6.4421 0
M  V30 28116 N 2549.72 1.57526 0.0484352 0
M  V30 28117 C 2551.14 1.54409 0.403723 0
M  V30 28118 C 2551.34 0.948415 1.77785 0
M  V30 28119 O 2550.39 0.561026 2.46188 0
M  V30 28120 C 2551.71 2.98957 0.323341 0
M  V30 28121 C 2553.26 3.1041 0.401837 0
M  V30 28122 C 2553.73 4.56652 0.351115 0
M  V30 28123 N 2555.22 4.61377 0.410495 0
M  V30 28124 C 2555.96 5.72046 0.393833 0
M  V30 28125 N 2555.45 6.92011 0.330602 0
M  V30 28126 N 2557.25 5.60358 0.442128 0
M  V30 28127 H 2549.4 1.94604 -0.851051 0
M  V30 28128 H 2551.66 0.891734 -0.321736 0
M  V30 28129 H 2551.37 3.46189 -0.620171 0
M  V30 28130 H 2551.24 3.60046 1.12456 0
M  V30 28131 H 2553.63 2.63137 1.33578 0
M  V30 28132 H 2553.71 2.52187 -0.428386 0
M  V30 28133 H 2553.35 5.04588 -0.579075 0
M  V30 28134 H 2553.28 5.12764 1.19919 0
M  V30 28135 H 2555.77 3.75057 0.462663 0
M  V30 28136 H 2556.09 7.72127 0.322457 0
M  V30 28137 H 2554.43 6.94365 0.296938 0
M  V30 28138 H 2557.62 4.65535 0.489382 0
M  V30 28139 H 2557.79 6.466 0.425675 0
M  V30 28140 N 2551.2 -0.32033 1.5431 0
M  V30 28141 C 2552.13 -1.39947 1.86915 0
M  V30 28142 C 2553.11 -1.53817 0.726238 0
M  V30 28143 O 2554.3 -1.67644 0.980262 0
M  V30 28144 C 2551.43 -2.76666 2.09936 0
M  V30 28145 C 2550.38 -2.77581 3.25781 0
M  V30 28146 C 2549.71 -4.17406 3.34181 0
M  V30 28147 C 2551.01 -2.4104 4.63354 0
M  V30 28148 H 2552.7 -1.12909 2.77294 0
M  V30 28149 H 2550.25 -0.541715 1.33422 0
M  V30 28150 H 2552.2 -3.52228 2.3133 0
M  V30 28151 H 2550.92 -3.05188 1.1631 0
M  V30 28152 H 2549.58 -2.04474 3.04279 0
M  V30 28153 H 2549.23 -4.43074 2.38106 0
M  V30 28154 H 2548.93 -4.18923 4.1204 0
M  V30 28155 H 2550.45 -4.94776 3.57812 0
M  V30 28156 H 2551.87 -3.06315 4.84607 0
M  V30 28157 H 2550.27 -2.53803 5.43787 0
M  V30 28158 H 2551.34 -1.36185 4.65383 0
M  V30 28159 N 2552.68 -1.46438 -0.582558 0
M  V30 28160 C 2553.59 -1.59598 -1.71946 0
M  V30 28161 C 2554.6 -0.479473 -1.67263 0
M  V30 28162 O 2555.78 -0.743612 -1.87169 0
M  V30 28163 C 2552.85 -1.58304 -3.08449 0
M  V30 28164 C 2551.91 -2.81188 -3.24395 0
M  V30 28165 C 2551.14 -2.79945 -4.54386 0
M  V30 28166 O 2551.36 -1.88699 -5.38283 0
M  V30 28167 O 2550.3 -3.71489 -4.73582 0
M  V30 28168 H 2554.12 -2.55747 -1.6379 0
M  V30 28169 H 2551.71 -1.29233 -0.74962 0
M  V30 28170 H 2553.59 -1.60278 -3.89729 0
M  V30 28171 H 2552.26 -0.65315 -3.17042 0
M  V30 28172 H 2551.17 -2.84767 -2.42608 0
M  V30 28173 H 2552.5 -3.73386 -3.20693 0
M  V30 28174 N 2554.16 0.827204 -1.34146 0
M  V30 28175 C 2555.12 1.9194 -1.25267 0
M  V30 28176 C 2556.12 1.59911 -0.168894 0
M  V30 28177 O 2557.31 1.69031 -0.421227 0
M  V30 28178 C 2554.44 3.27884 -0.933009 0
M  V30 28179 H 2555.63 2.01236 -2.22361 0
M  V30 28180 H 2553.19 1.02067 -1.18372 0
M  V30 28181 H 2553.92 3.24281 0.0349347 0
M  V30 28182 H 2553.71 3.52513 -1.71689 0
M  V30 28183 H 2555.2 4.07876 -0.895946 0
M  V30 28184 N 2555.63 1.17805 1.04688 0
M  V30 28185 C 2557.05 0.926402 1.29961 0
M  V30 28186 C 2557.25 -0.411601 1.97251 0
M  V30 28187 O 2556.31 -1.1474 2.24924 0
M  V30 28188 C 2557.62 2.08741 2.16444 0
M  V30 28189 C 2559.17 2.125 2.2981 0
M  V30 28190 C 2559.64 3.28001 3.19655 0
M  V30 28191 N 2561.13 3.27822 3.27242 0
M  V30 28192 C 2561.87 4.13834 3.96899 0
M  V30 28193 N 2561.36 5.09967 4.68941 0
M  V30 28194 N 2563.16 4.01768 3.93115 0
M  V30 28195 H 2555.31 2.03921 0.594146 0
M  V30 28196 H 2557.57 0.890684 0.324633 0
M  V30 28197 H 2557.28 3.05472 1.74299 0
M  V30 28198 H 2557.15 2.04274 3.17099 0
M  V30 28199 H 2559.54 1.16352 2.71194 0
M  V30 28200 H 2559.62 2.21027 1.28766 0
M  V30 28201 H 2559.26 4.24418 2.78984 0
M  V30 28202 H 2559.19 3.1671 4.20716 0
M  V30 28203 H 2561.68 2.58222 2.75916 0
M  V30 28204 H 2562 5.71983 5.19669 0
M  V30 28205 H 2560.34 5.13932 4.67866 0
M  V30 28206 H 2563.53 3.25956 3.35962 0
M  V30 28207 H 2563.71 4.69018 4.47131 0
M  V30 28208 N 2557.11 -1.23497 0.979094 0
M  V30 28209 C 2558.36 -1.91184 0.642784 0
M  V30 28210 C 2558.67 -1.77247 -0.827222 0
M  V30 28211 O 2559.88 -2.39724 -1.27454 0
M  V30 28212 C 2558.34 -3.42707 1.09907 0
M  V30 28213 C 2557.94 -3.65309 2.59333 0
M  V30 28214 C 2559.69 -4.16178 0.836444 0
M  V30 28215 C 2557.6 -5.10461 2.98636 0
M  V30 28216 H 2556.53 -0.71588 0.236711 0
M  V30 28217 H 2559.18 -1.39953 1.18682 0
M  V30 28218 H 2557.56 -3.9304 0.483259 0
M  V30 28219 H 2558.73 -3.25528 3.26142 0
M  V30 28220 H 2557.05 -3.05146 2.83328 0
M  V30 28221 H 2559.64 -5.23137 1.10595 0
M  V30 28222 H 2559.99 -4.15678 -0.227436 0
M  V30 28223 H 2560.52 -3.7183 1.41377 0
M  V30 28224 H 2557.26 -5.16091 4.04142 0
M  V30 28225 H 2556.78 -5.51197 2.3652 0
M  V30 28226 H 2558.46 -5.78783 2.89169 0
M  V30 28227 N 2558.59 -0.750586 -1.38578 0
M  V30 28228 C 2559.55 -0.129192 -2.28836 0
M  V30 28229 C 2560.55 0.650688 -1.47047 0
M  V30 28230 O 2561.74 0.477398 -1.67531 0
M  V30 28231 C 2558.88 0.825563 -3.30753 0
M  V30 28232 H 2560.07 -0.924566 -2.85292 0
M  V30 28233 H 2557.62 -0.517402 -1.47488 0
M  V30 28234 H 2558.36 1.64672 -2.79381 0
M  V30 28235 H 2558.14 0.268784 -3.91178 0
M  V30 28236 H 2559.63 1.25643 -3.98251 0
M  V30 28237 N 2560.07 1.49477 -0.499425 0
M  V30 28238 C 2561 2.27004 0.316535 0
M  V30 28239 C 2562.01 1.33481 0.932024 0
M  V30 28240 O 2563.2 1.58776 0.81563 0
M  V30 28241 C 2560.3 3.05815 1.4605 0
M  V30 28242 C 2559.48 4.26901 0.952604 0
M  V30 28243 C 2558.54 4.87771 1.97398 0
M  V30 28244 O 2557.56 5.47882 1.54316 0
M  V30 28245 N 2558.76 4.77282 3.30428 0
M  V30 28246 H 2561.53 2.9767 -0.348221 0
M  V30 28247 H 2559.09 1.58462 -0.331878 0
M  V30 28248 H 2561.08 3.4341 2.14129 0
M  V30 28249 H 2559.65 2.37766 2.02944 0
M  V30 28250 H 2558.87 3.94081 0.0967555 0
M  V30 28251 H 2560.16 5.05348 0.591651 0
M  V30 28252 H 2559.56 4.29541 3.68119 0
M  V30 28253 H 2558.11 5.19066 3.94226 0
M  V30 28254 N 2561.55 0.233191 1.55865 0
M  V30 28255 C 2562.48 -0.666559 2.23784 0
M  V30 28256 C 2563.46 -1.19203 1.21345 0
M  V30 28257 O 2564.64 -1.23389 1.49962 0
M  V30 28258 C 2561.77 -1.86973 2.92675 0
M  V30 28259 C 2560.73 -1.47761 4.01685 0
M  V30 28260 C 2560.05 -2.7605 4.57931 0
M  V30 28261 C 2561.35 -0.658902 5.18127 0
M  V30 28262 H 2563.05 -0.100253 2.99232 0
M  V30 28263 H 2560.59 -0.0467787 1.43924 0
M  V30 28264 H 2562.55 -2.50471 3.38884 0
M  V30 28265 H 2561.27 -2.46119 2.14693 0
M  V30 28266 H 2559.93 -0.866043 3.56224 0
M  V30 28267 H 2559.58 -3.33365 3.76665 0
M  V30 28268 H 2559.28 -2.50543 5.31509 0
M  V30 28269 H 2560.8 -3.4047 5.06865 0
M  V30 28270 H 2562.22 -1.19785 5.60646 0
M  V30 28271 H 2560.61 -0.500447 5.9801 0
M  V30 28272 H 2561.68 0.331941 4.83763 0
M  V30 28273 N 2563.03 -1.57549 -0.0400806 0
M  V30 28274 C 2563.94 -2.09222 -1.06129 0
M  V30 28275 C 2564.95 -1.02843 -1.40354 0
M  V30 28276 O 2566.13 -1.34512 -1.49895 0
M  V30 28277 C 2563.19 -2.55223 -2.34654 0
M  V30 28278 C 2562.25 -3.76037 -2.0711 0
M  V30 28279 C 2561.49 -4.19834 -3.29507 0
M  V30 28280 O 2561.71 -3.6324 -4.39787 0
M  V30 28281 O 2560.64 -5.12367 -3.15854 0
M  V30 28282 H 2564.47 -2.96614 -0.652192 0
M  V30 28283 H 2562.05 -1.47184 -0.256343 0
M  V30 28284 H 2563.94 -2.85189 -3.10234 0
M  V30 28285 H 2562.61 -1.70946 -2.7488 0
M  V30 28286 H 2561.52 -3.51106 -1.29133 0
M  V30 28287 H 2562.85 -4.61264 -1.71746 0
M  V30 28288 N 2564.5 0.312142 -1.54478 0
M  V30 28289 C 2565.41 1.40737 -1.87697 0
M  V30 28290 C 2566.43 1.56035 -0.770002 0
M  V30 28291 O 2567.61 1.70913 -1.0654 0
M  V30 28292 C 2564.67 2.75283 -2.1076 0
M  V30 28293 C 2563.73 2.69065 -3.34519 0
M  V30 28294 C 2562.96 3.97194 -3.56472 0
M  V30 28295 O 2563.19 4.96016 -2.81646 0
M  V30 28296 O 2562.12 3.99762 -4.49971 0
M  V30 28297 H 2565.95 1.15569 -2.80851 0
M  V30 28298 H 2563.53 0.507203 -1.40527 0
M  V30 28299 H 2565.41 3.54909 -2.27194 0
M  V30 28300 H 2564.09 3.00318 -1.20793 0
M  V30 28301 H 2563 1.8795 -3.23459 0
M  V30 28302 H 2564.33 2.48984 -4.24579 0
M  V30 28303 N 2565.98 1.46745 0.574784 0
M  V30 28304 C 2566.89 1.60508 1.71098 0
M  V30 28305 C 2567.91 0.488336 1.67007 0
M  V30 28306 O 2569.08 0.753528 1.86772 0
M  V30 28307 C 2566.15 1.59937 3.07605 0
M  V30 28308 C 2565.21 2.82904 3.22899 0
M  V30 28309 C 2564.44 2.82351 4.52895 0
M  V30 28310 O 2564.67 1.91551 5.37275 0
M  V30 28311 O 2563.6 3.73995 4.71605 0
M  V30 28312 H 2567.43 2.56612 1.62432 0
M  V30 28313 H 2565.01 1.29628 0.742756 0
M  V30 28314 H 2566.89 1.62343 3.88874 0
M  V30 28315 H 2565.57 0.669954 3.16691 0
M  V30 28316 H 2564.47 2.8605 2.41094 0
M  V30 28317 H 2565.81 3.75081 3.18708 0
M  V30 28318 N 2567.46 -0.820078 1.34583 0
M  V30 28319 C 2568.39 -1.94603 1.29042 0
M  V30 28320 C 2569.37 -1.69275 0.16733 0
M  V30 28321 O 2570.56 -1.90831 0.360146 0
M  V30 28322 C 2567.69 -3.31111 1.04799 0
M  V30 28323 C 2566.64 -3.70887 2.13604 0
M  V30 28324 C 2565.97 -5.05409 1.74545 0
M  V30 28325 C 2567.27 -3.82684 3.55458 0
M  V30 28326 H 2568.96 -1.99497 2.23252 0
M  V30 28327 H 2566.51 -0.95843 1.07472 0
M  V30 28328 H 2568.46 -4.09469 0.995664 0
M  V30 28329 H 2567.18 -3.26524 0.0703139 0
M  V30 28330 H 2565.84 -2.94806 2.1791 0
M  V30 28331 H 2565.49 -4.97312 0.754313 0
M  V30 28332 H 2565.19 -5.32993 2.47371 0
M  V30 28333 H 2566.71 -5.86221 1.70814 0
M  V30 28334 H 2568.13 -4.51305 3.53548 0
M  V30 28335 H 2566.52 -4.21725 4.26929 0
M  V30 28336 H 2567.59 -2.84604 3.92592 0
M  V30 28337 N 2568.94 -1.18359 -1.04062 0
M  V30 28338 C 2569.85 -0.925634 -2.15567 0
M  V30 28339 C 2570.86 0.110265 -1.7365 0
M  V30 28340 O 2572.04 -0.0716572 -2.01272 0
M  V30 28341 C 2569.1 -0.454897 -3.43703 0
M  V30 28342 C 2568.17 -1.55877 -4.00001 0
M  V30 28343 C 2567.4 -1.11039 -5.22021 0
M  V30 28344 O 2567.62 0.0308754 -5.70392 0
M  V30 28345 O 2566.56 -1.90815 -5.70853 0
M  V30 28346 H 2570.38 -1.85864 -2.40183 0
M  V30 28347 H 2567.97 -0.965414 -1.14018 0
M  V30 28348 H 2569.85 -0.200456 -4.20923 0
M  V30 28349 H 2568.52 0.449819 -3.20559 0
M  V30 28350 H 2567.43 -1.86722 -3.24169 0
M  V30 28351 H 2568.76 -2.43961 -4.27486 0
M  V30 28352 N 2570.42 1.22976 -0.98563 0
M  V30 28353 C 2571.33 2.28334 -0.538588 0
M  V30 28354 C 2572.34 1.69122 0.409134 0
M  V30 28355 O 2573.52 1.99475 0.277762 0
M  V30 28356 C 2570.58 3.46389 0.146807 0
M  V30 28357 C 2569.64 4.20942 -0.84297 0
M  V30 28358 C 2568.88 5.33361 -0.190188 0
M  V30 28359 O 2569.1 5.6125 1.01757 0
M  V30 28360 O 2568.03 5.95263 -0.891393 0
M  V30 28361 H 2571.86 2.68726 -1.41492 0
M  V30 28362 H 2569.44 1.29006 -0.753517 0
M  V30 28363 H 2571.33 4.1804 0.531051 0
M  V30 28364 H 2570 3.07937 0.997817 0
M  V30 28365 H 2568.91 3.51593 -1.27801 0
M  V30 28366 H 2570.24 4.63257 -1.66295 0
M  V30 28367 N 2571.89 0.757924 1.38178 0
M  V30 28368 C 2572.8 0.135288 2.3421 0
M  V30 28369 C 2573.82 -0.695655 1.59489 0
M  V30 28370 O 2575 -0.618798 1.91658 0
M  V30 28371 C 2572.06 -0.744079 3.38621 0
M  V30 28372 C 2571.12 0.101733 4.29179 0
M  V30 28373 C 2570.35 -0.735758 5.28604 0
M  V30 28374 O 2570.58 -1.97356 5.3517 0
M  V30 28375 O 2569.51 -0.152266 6.01707 0
M  V30 28376 H 2573.34 0.928487 2.89159 0
M  V30 28377 H 2570.92 0.518879 1.401 0
M  V30 28378 H 2572.8 -1.24653 4.02541 0
M  V30 28379 H 2571.48 -1.5157 2.86021 0
M  V30 28380 H 2570.39 0.650232 3.68406 0
M  V30 28381 H 2571.72 0.83611 4.85046 0
M  V30 28382 N 2573.37 -1.4921 0.507345 0
M  V30 28383 C 2574.3 -2.27168 -0.304492 0
M  V30 28384 C 2575.32 -1.33973 -0.924932 0
M  V30 28385 O 2576.51 -1.59206 -0.807199 0
M  V30 28386 C 2573.61 -3.06585 -1.44426 0
M  V30 28387 C 2572.78 -4.274 -0.929951 0
M  V30 28388 C 2571.84 -4.88811 -1.94809 0
M  V30 28389 O 2570.86 -5.48693 -1.51409 0
M  V30 28390 N 2572.07 -4.79027 -3.27892 0
M  V30 28391 H 2574.83 -2.97481 0.364002 0
M  V30 28392 H 2572.39 -1.58284 0.340277 0
M  V30 28393 H 2574.38 -3.44541 -2.12305 0
M  V30 28394 H 2572.95 -2.38839 -2.0168 0
M  V30 28395 H 2572.17 -3.94127 -0.0758551 0
M  V30 28396 H 2573.46 -5.05655 -0.564843 0
M  V30 28397 H 2572.86 -4.31487 -3.65836 0
M  V30 28398 H 2571.42 -5.21149 -3.91467 0
M  V30 28399 N 2574.85 -0.241454 -1.55739 0
M  V30 28400 C 2576.1 0.384041 -1.98418 0
M  V30 28401 C 2576.42 1.58864 -1.13081 0
M  V30 28402 O 2575.69 1.94746 -0.212346 0
M  V30 28403 H 2574.27 0.144881 -0.732815 0
M  V30 28404 H 2576.93 -0.338977 -1.9193 0
M  V30 28405 H 2576.03 0.696886 -3.0422 0
M  V30 28406 N 2576.33 1.57568 0.0317248 0
M  V30 28407 C 2577.28 2.0747 1.05161 0
M  V30 28408 C 2578.27 0.987944 1.37608 0
M  V30 28409 O 2579.48 1.17284 1.36544 0
M  V30 28410 H 2575.85 0.662047 0.356649 0
M  V30 28411 H 2577.82 2.92204 0.604906 0
M  V30 28412 C 2576.57 2.56735 2.34484 0
M  V30 28413 H 2575.89 3.39973 2.10377 0
M  V30 28414 H 2577.33 2.95364 3.04198 0
M  V30 28415 C 2575.79 1.46742 3.03263 0
M  V30 28416 O 2576.32 0.832138 3.92986 0
M  V30 28417 N 2574.53 1.20261 2.64548 0
M  V30 28418 H 2574.08 1.72105 1.91671 0
M  V30 28419 H 2574.03 0.468792 3.10885 0
M  V30 28420 N 2577.81 -0.303946 1.54641 0
M  V30 28421 C 2579.03 -1.05855 1.7777 0
M  V30 28422 C 2579.45 -1.81039 0.535754 0
M  V30 28423 O 2578.81 -1.75678 -0.494306 0
M  V30 28424 C 2578.86 -2.04141 2.98344 0
M  V30 28425 O 2578.58 -1.32008 4.17739 0
M  V30 28426 C 2580.08 -2.91663 3.33838 0
M  V30 28427 H 2577.3 -0.314057 0.592967 0
M  V30 28428 H 2579.84 -0.344113 2.01584 0
M  V30 28429 H 2578 -2.71091 2.76746 0
M  V30 28430 H 2578.41 -1.97989 4.85696 0
M  V30 28431 H 2579.89 -3.56483 4.21454 0
M  V30 28432 H 2580.36 -3.59808 2.51863 0
M  V30 28433 H 2580.97 -2.30248 3.57583 0
M  V30 28434 N 2579.28 -1.47047 -0.566994 0
M  V30 28435 C 2580.19 -1.61413 -1.70244 0
M  V30 28436 C 2581.21 -0.497186 -1.66745 0
M  V30 28437 O 2582.39 -0.763422 -1.8637 0
M  V30 28438 C 2579.45 -1.61566 -3.06753 0
M  V30 28439 C 2578.51 -2.84613 -3.21394 0
M  V30 28440 C 2577.75 -2.84749 -4.51391 0
M  V30 28441 O 2577.97 -1.94398 -5.36252 0
M  V30 28442 O 2576.9 -3.76491 -4.69615 0
M  V30 28443 H 2580.73 -2.5747 -1.61069 0
M  V30 28444 H 2578.31 -1.3002 -0.735871 0
M  V30 28445 H 2580.2 -1.64403 -3.88007 0
M  V30 28446 H 2578.87 -0.686739 -3.16331 0
M  V30 28447 H 2577.78 -2.87324 -2.39574 0
M  V30 28448 H 2579.11 -3.76766 -3.16714 0
M  V30 28449 N 2580.76 0.812929 -1.35016 0
M  V30 28450 C 2581.69 1.93916 -1.30072 0
M  V30 28451 C 2582.67 1.69184 -0.176304 0
M  V30 28452 O 2583.86 1.90638 -0.370261 0
M  V30 28453 C 2580.99 3.30551 -1.06553 0
M  V30 28454 C 2579.94 3.69749 -2.15568 0
M  V30 28455 C 2579.27 5.04476 -1.77223 0
M  V30 28456 C 2580.57 3.80793 -3.57483 0
M  V30 28457 H 2582.26 1.9831 -2.24307 0
M  V30 28458 H 2579.81 0.952717 -1.07978 0
M  V30 28459 H 2581.76 4.08935 -1.01736 0
M  V30 28460 H 2580.49 3.26482 -0.0876293 0
M  V30 28461 H 2579.14 2.93646 -2.19471 0
M  V30 28462 H 2578.79 4.96905 -0.780676 0
M  V30 28463 H 2578.49 5.31674 -2.50194 0
M  V30 28464 H 2580.02 5.85307 -1.7392 0
M  V30 28465 H 2581.43 4.49424 -3.55937 0
M  V30 28466 H 2579.83 4.19455 -4.2916 0
M  V30 28467 H 2580.9 2.82518 -3.94096 0
M  V30 28468 N 2582.24 1.18909 1.03433 0
M  V30 28469 C 2583.49 0.982699 1.76142 0
M  V30 28470 C 2583.8 -0.487919 1.89417 0
M  V30 28471 O 2585.01 -0.81299 2.59042 0
M  V30 28472 C 2583.46 1.70929 3.16719 0
M  V30 28473 C 2583.07 3.21965 3.11517 0
M  V30 28474 C 2584.82 1.58594 3.93761 0
M  V30 28475 C 2582.72 3.87236 4.46992 0
M  V30 28476 H 2581.65 0.364058 0.660286 0
M  V30 28477 H 2584.3 1.42349 1.15798 0
M  V30 28478 H 2582.69 1.1963 3.77498 0
M  V30 28479 H 2583.86 3.80339 2.60152 0
M  V30 28480 H 2582.18 3.34513 2.47972 0
M  V30 28481 H 2584.77 2.04715 4.93959 0
M  V30 28482 H 2585.12 0.539214 4.12793 0
M  V30 28483 H 2585.65 2.07209 3.39572 0
M  V30 28484 H 2582.39 4.91984 4.33165 0
M  V30 28485 H 2581.91 3.33651 4.98435 0
M  V30 28486 H 2583.59 3.90468 5.15891 0
M  V30 28487 N 2583.72 -1.22452 0.992137 0
M  V30 28488 C 2584.67 -2.26371 0.534683 0
M  V30 28489 C 2585.66 -1.64257 -0.414264 0
M  V30 28490 O 2586.87 -1.77699 -0.286868 0
M  V30 28491 H 2583.24 -0.735954 0.154515 0
M  V30 28492 H 2585.21 -2.62306 1.4226 0
M  V30 28493 C 2583.96 -3.47435 -0.135754 0
M  V30 28494 H 2583.28 -3.95491 0.585381 0
M  V30 28495 H 2584.72 -4.21922 -0.4193 0
M  V30 28496 C 2583.18 -3.0775 -1.37083 0
M  V30 28497 O 2583.71 -3.1708 -2.46623 0
M  V30 28498 N 2581.92 -2.62542 -1.2458 0
M  V30 28499 H 2581.47 -2.55149 -0.354497 0
M  V30 28500 H 2581.42 -2.36357 -2.07323 0
M  V30 28501 N 2585.2 -0.765242 -1.37774 0
M  V30 28502 C 2586.47 -0.251631 -1.93975 0
M  V30 28503 C 2586.85 1.25219 -1.69951 0
M  V30 28504 O 2586.2 2.03224 -1.04461 0
M  V30 28505 C 2586.41 -0.617955 -3.43486 0
M  V30 28506 C 2587.76 -0.584102 -4.20563 0
M  V30 28507 O 2588.78 -0.55695 -3.51819 0
M  V30 28508 O 2587.64 -0.605386 -5.43137 0
M  V30 28509 H 2584.74 -0.0561951 -0.825089 0
M  V30 28510 H 2587.28 -0.846154 -1.471 0
M  V30 28511 H 2586.05 -1.65608 -3.54527 0
M  V30 28512 H 2585.68 0.00396422 -3.976 0
M  V30 28513 N 2586.67 1.48939 -0.515251 0
M  V30 28514 C 2588.09 1.58669 -0.172127 0
M  V30 28515 C 2588.29 1.51895 1.32402 0
M  V30 28516 O 2587.35 1.40031 2.10113 0
M  V30 28517 C 2588.66 2.90896 -0.761584 0
M  V30 28518 C 2590.21 3.04393 -0.728979 0
M  V30 28519 C 2590.68 4.39259 -1.29675 0
M  V30 28520 N 2592.17 4.45788 -1.25807 0
M  V30 28521 C 2592.91 5.4862 -1.66743 0
M  V30 28522 N 2592.4 6.58484 -2.15338 0
M  V30 28523 N 2594.2 5.39416 -1.58071 0
M  V30 28524 H 2586.35 1.51586 -1.4878 0
M  V30 28525 H 2588.61 0.71889 -0.617981 0
M  V30 28526 H 2588.32 3.01464 -1.81141 0
M  V30 28527 H 2588.19 3.76497 -0.230173 0
M  V30 28528 H 2590.58 2.93446 0.312047 0
M  V30 28529 H 2590.66 2.20439 -1.2977 0
M  V30 28530 H 2590.3 4.50959 -2.33663 0
M  V30 28531 H 2590.23 5.21875 -0.703844 0
M  V30 28532 H 2592.72 3.66973 -0.902166 0
M  V30 28533 H 2593.04 7.33067 -2.44607 0
M  V30 28534 H 2591.38 6.59487 -2.19322 0
M  V30 28535 H 2594.57 4.5248 -1.19914 0
M  V30 28536 H 2594.75 6.19429 -1.90295 0
M  V30 28537 N 2588.15 0.249709 1.55609 0
M  V30 28538 C 2589.08 -0.642787 2.24478 0
M  V30 28539 C 2590.06 -1.17909 1.22603 0
M  V30 28540 O 2591.25 -1.21792 1.51263 0
M  V30 28541 C 2588.38 -1.83858 2.94641 0
M  V30 28542 C 2587.33 -1.43493 4.03229 0
M  V30 28543 C 2586.66 -2.71178 4.60833 0
M  V30 28544 C 2587.96 -0.60391 5.18797 0
M  V30 28545 H 2589.65 -0.0685099 2.99322 0
M  V30 28546 H 2587.2 -0.031511 1.43966 0
M  V30 28547 H 2589.15 -2.46862 3.41522 0
M  V30 28548 H 2587.88 -2.43828 2.17291 0
M  V30 28549 H 2586.54 -0.828212 3.57122 0
M  V30 28550 H 2586.18 -3.29352 3.8018 0
M  V30 28551 H 2585.88 -2.44892 5.34137 0
M  V30 28552 H 2587.41 -3.35075 5.10448 0
M  V30 28553 H 2588.82 -1.13832 5.61885 0
M  V30 28554 H 2587.22 -0.436992 5.98507 0
M  V30 28555 H 2588.29 0.383232 4.83383 0
M  V30 28556 N 2589.63 -1.57583 -0.0233682 0
M  V30 28557 C 2590.58 -2.06929 -1.02221 0
M  V30 28558 C 2591.55 -0.959641 -1.35573 0
M  V30 28559 O 2592.73 -1.23058 -1.45813 0
M  V30 28560 C 2589.87 -2.55814 -2.31632 0
M  V30 28561 C 2588.99 -3.80591 -2.04388 0
M  V30 28562 C 2588.12 -4.18067 -3.2771 0
M  V30 28563 C 2587.16 -5.35745 -2.96046 0
M  V30 28564 N 2586.3 -5.68625 -4.11837 0
M  V30 28565 H 2591.14 -2.92011 -0.594453 0
M  V30 28566 H 2588.67 -1.44374 -0.281896 0
M  V30 28567 H 2590.63 -2.82226 -3.07253 0
M  V30 28568 H 2589.26 -1.73641 -2.72119 0
M  V30 28569 H 2588.31 -3.61229 -1.19238 0
M  V30 28570 H 2589.63 -4.66327 -1.77034 0
M  V30 28571 H 2588.78 -4.45637 -4.11695 0
M  V30 28572 H 2587.52 -3.30994 -3.58182 0
M  V30 28573 H 2586.52 -5.07922 -2.10465 0
M  V30 28574 H 2587.75 -6.24476 -2.66846 0
M  V30 28575 H 2585.7 -4.84511 -4.4225 0
M  V30 28576 H 2585.61 -6.48883 -3.87927 0
M  V30 28577 H 2586.88 -6.00775 -4.96678 0
M  V30 28578 N 2591.11 0.29574 -1.548 0
M  V30 28579 C 2592.06 1.36491 -1.86115 0
M  V30 28580 C 2593.03 1.50136 -0.710527 0
M  V30 28581 O 2594.21 1.6491 -0.959655 0
M  V30 28582 C 2591.35 2.72409 -2.11866 0
M  V30 28583 C 2590.46 2.67171 -3.39475 0
M  V30 28584 C 2589.6 3.95119 -3.55042 0
M  V30 28585 C 2588.64 3.84299 -4.76425 0
M  V30 28586 N 2587.78 5.04033 -4.88769 0
M  V30 28587 H 2592.62 1.09086 -2.77316 0
M  V30 28588 H 2590.15 0.527506 -1.37316 0
M  V30 28589 H 2592.11 3.51461 -2.24792 0
M  V30 28590 H 2590.74 2.98064 -1.23925 0
M  V30 28591 H 2589.79 1.79956 -3.35142 0
M  V30 28592 H 2591.1 2.55069 -4.28651 0
M  V30 28593 H 2590.26 4.82608 -3.67661 0
M  V30 28594 H 2589 4.10061 -2.64009 0
M  V30 28595 H 2588 2.95194 -4.63833 0
M  V30 28596 H 2589.23 3.70896 -5.6887 0
M  V30 28597 H 2587.17 5.19429 -4.00661 0
M  V30 28598 H 2587.09 4.94374 -5.71954 0
M  V30 28599 H 2588.36 5.93158 -5.0575 0
M  V30 28600 N 2592.59 1.47346 0.559187 0
M  V30 28601 C 2593.55 1.59238 1.64851 0
M  V30 28602 C 2594.55 0.467634 1.5385 0
M  V30 28603 O 2595.74 0.732645 1.58044 0
M  V30 28604 C 2592.87 1.53501 3.04385 0
M  V30 28605 H 2594.07 2.56341 1.55657 0
M  V30 28606 H 2591.62 1.35507 0.778949 0
M  V30 28607 H 2592.35 0.57766 3.19114 0
M  V30 28608 H 2592.14 2.35128 3.13779 0
M  V30 28609 H 2593.63 1.64957 3.83639 0
M  V30 28610 N 2594.07 -0.805758 1.35445 0
M  V30 28611 C 2595.01 -1.93904 1.28468 0
M  V30 28612 C 2596.01 -1.68447 0.179459 0
M  V30 28613 O 2597.21 -1.76653 0.34549 0
M  V30 28614 H 2593.59 -0.637081 0.399539 0
M  V30 28615 H 2595.56 -1.96908 2.24209 0
M  V30 28616 C 2594.31 -3.30685 1.07438 0
M  V30 28617 H 2593.63 -3.50831 1.91722 0
M  V30 28618 H 2595.07 -4.10381 1.06598 0
M  V30 28619 C 2593.53 -3.3617 -0.221731 0
M  V30 28620 O 2594.06 -3.82813 -1.21724 0
M  V30 28621 N 2592.27 -2.89427 -0.26079 0
M  V30 28622 H 2591.81 -2.51662 0.549928 0
M  V30 28623 H 2591.77 -2.93479 -1.12772 0
M  V30 28624 N 2595.54 -1.19456 -1.02801 0
M  V30 28625 C 2596.47 -0.956795 -2.12997 0
M  V30 28626 C 2597.45 0.110159 -1.69743 0
M  V30 28627 O 2598.64 -0.0450379 -1.94148 0
M  V30 28628 C 2595.77 -0.495614 -3.43745 0
M  V30 28629 C 2594.72 -1.5045 -4.00685 0
M  V30 28630 C 2594.05 -0.900368 -5.27065 0
M  V30 28631 C 2595.35 -2.88498 -4.35392 0
M  V30 28632 H 2597.04 -1.8784 -2.33145 0
M  V30 28633 H 2594.59 -0.904559 -1.12043 0
M  V30 28634 H 2596.54 -0.316567 -4.20209 0
M  V30 28635 H 2595.27 0.461589 -3.23322 0
M  V30 28636 H 2593.93 -1.67071 -3.26317 0
M  V30 28637 H 2593.57 0.0644145 -5.02959 0
M  V30 28638 H 2593.27 -1.57407 -5.66124 0
M  V30 28639 H 2594.8 -0.732136 -6.06195 0
M  V30 28640 H 2596.21 -2.75455 -5.0279 0
M  V30 28641 H 2594.61 -3.52669 -4.85535 0
M  V30 28642 H 2595.68 -3.41087 -3.44656 0
M  V30 28643 N 2597.02 1.21924 -0.998617 0
M  V30 28644 C 2597.95 2.2341 -0.511918 0
M  V30 28645 C 2598.97 1.57909 0.396066 0
M  V30 28646 O 2600.16 1.77406 0.197285 0
M  V30 28647 C 2597.26 3.37768 0.276743 0
M  V30 28648 C 2596.43 4.32857 -0.628763 0
M  V30 28649 C 2595.49 5.26087 0.109179 0
M  V30 28650 O 2594.51 5.66935 -0.507336 0
M  V30 28651 N 2595.72 5.63619 1.38973 0
M  V30 28652 H 2598.48 2.65798 -1.38462 0
M  V30 28653 H 2596.04 1.36282 -0.874005 0
M  V30 28654 H 2598.03 3.97128 0.77921 0
M  V30 28655 H 2596.6 2.94417 1.05058 0
M  V30 28656 H 2595.82 3.71732 -1.31182 0
M  V30 28657 H 2597.11 4.93327 -1.24523 0
M  V30 28658 H 2596.51 5.32414 1.91185 0
M  V30 28659 H 2595.07 6.2537 1.83728 0
M  V30 28660 N 2598.5 0.772537 1.37367 0
M  V30 28661 C 2599.75 0.333896 1.98917 0
M  V30 28662 C 2600.06 -1.09586 1.62019 0
M  V30 28663 O 2601.27 -1.63593 2.16679 0
M  V30 28664 C 2599.72 0.546033 3.55734 0
M  V30 28665 C 2599.33 1.9861 4.01569 0
M  V30 28666 C 2601.08 0.171054 4.24155 0
M  V30 28667 C 2598.98 2.14579 5.51099 0
M  V30 28668 H 2597.91 0.121098 0.744212 0
M  V30 28669 H 2600.56 0.951778 1.56887 0
M  V30 28670 H 2598.95 -0.141317 3.95748 0
M  V30 28671 H 2600.12 2.70847 3.72798 0
M  V30 28672 H 2598.43 2.31775 3.45933 0
M  V30 28673 H 2601.03 0.268874 5.34024 0
M  V30 28674 H 2601.37 -0.878783 4.06919 0
M  V30 28675 H 2601.91 0.810983 3.89446 0
M  V30 28676 H 2598.65 3.17885 5.73262 0
M  V30 28677 H 2598.17 1.46827 5.81551 0
M  V30 28678 H 2599.85 1.94479 6.17079 0
M  V30 28679 N 2599.98 -1.48664 0.523142 0
M  V30 28680 C 2601.25 -1.95446 -0.0775105 0
M  V30 28681 C 2601.63 -1.46523 -1.51968 0
M  V30 28682 O 2600.98 -0.688695 -2.17874 0
M  V30 28683 C 2601.19 -3.48985 0.0326748 0
M  V30 28684 C 2602.54 -4.24401 -0.130066 0
M  V30 28685 O 2603.56 -3.56176 -0.0414516 0
M  V30 28686 O 2602.42 -5.45592 -0.314814 0
M  V30 28687 H 2599.52 -0.822816 -0.0830868 0
M  V30 28688 H 2602.06 -1.59215 0.587255 0
M  V30 28689 H 2600.84 -3.77294 1.03754 0
M  V30 28690 H 2600.46 -3.91893 -0.671248 0
M  V30 28691 N 2601.46 -0.257958 -1.55475 0
M  V30 28692 C 2602.39 0.669842 -2.19193 0
M  V30 28693 C 2603.4 1.13048 -1.1715 0
M  V30 28694 O 2604.59 1.05534 -1.43961 0
M  V30 28695 C 2601.69 1.92358 -2.79019 0
M  V30 28696 C 2600.86 1.61258 -4.06589 0
M  V30 28697 C 2599.92 2.71702 -4.50627 0
M  V30 28698 O 2598.95 2.38617 -5.16769 0
M  V30 28699 N 2600.15 4.01423 -4.19332 0
M  V30 28700 H 2602.91 0.124583 -2.99441 0
M  V30 28701 H 2600.48 -0.0783595 -1.6171 0
M  V30 28702 H 2602.47 2.65506 -3.05432 0
M  V30 28703 H 2601.04 2.37833 -2.02865 0
M  V30 28704 H 2600.26 0.715743 -3.87648 0
M  V30 28705 H 2601.55 1.37958 -4.8974 0
M  V30 28706 H 2600.94 4.31131 -3.66255 0
M  V30 28707 H 2599.5 4.71002 -4.50556 0
M  V30 28708 N 2602.93 1.57593 0.0150108 0
M  V30 28709 C 2604.18 1.89086 0.702082 0
M  V30 28710 C 2604.5 0.858308 1.75762 0
M  V30 28711 O 2605.7 1.06295 2.49827 0
M  V30 28712 C 2604.16 3.35606 1.29986 0
M  V30 28713 C 2603.77 4.47125 0.279929 0
M  V30 28714 C 2605.51 3.7623 1.96599 0
M  V30 28715 C 2603.42 5.84713 0.886846 0
M  V30 28716 H 2602.35 0.705527 0.265985 0
M  V30 28717 H 2605 1.83449 -0.0430731 0
M  V30 28718 H 2603.38 3.36033 2.09519 0
M  V30 28719 H 2604.55 4.5819 -0.489711 0
M  V30 28720 H 2602.87 4.15424 -0.284908 0
M  V30 28721 H 2605.47 4.76352 2.42885 0
M  V30 28722 H 2605.81 3.08957 2.79019 0
M  V30 28723 H 2606.34 3.78038 1.23822 0
M  V30 28724 H 2603.08 6.55421 0.101761 0
M  V30 28725 H 2602.6 5.7734 1.626 0
M  V30 28726 H 2604.28 6.31893 1.38999 0
M  V30 28727 N 2604.41 -0.287527 1.54955 0
M  V30 28728 C 2605.36 -1.37499 1.87608 0
M  V30 28729 C 2606.35 -1.51842 0.751028 0
M  V30 28730 O 2607.56 -1.53799 0.935196 0
M  V30 28731 H 2603.94 -0.459558 0.595239 0
M  V30 28732 H 2605.91 -1.07201 2.78479 0
M  V30 28733 C 2604.66 -2.73111 2.15188 0
M  V30 28734 H 2603.98 -2.6286 3.01238 0
M  V30 28735 H 2605.42 -3.48179 2.41966 0
M  V30 28736 C 2603.88 -3.23089 0.954743 0
M  V30 28737 O 2604.41 -4.01287 0.18202 0
M  V30 28738 N 2602.61 -2.80583 0.756418 0
M  V30 28739 H 2602.16 -2.17106 1.38646 0
M  V30 28740 H 2602.12 -3.14371 -0.0429839 0
M  V30 28741 N 2605.89 -1.47641 -0.551365 0
M  V30 28742 C 2607.12 -1.58191 -1.33354 0
M  V30 28743 C 2607.53 -0.234232 -1.87341 0
M  V30 28744 O 2606.89 0.773401 -1.65302 0
M  V30 28745 C 2606.94 -2.61177 -2.49938 0
M  V30 28746 O 2606.66 -3.90713 -1.9818 0
M  V30 28747 C 2608.16 -2.81966 -3.42067 0
M  V30 28748 H 2605.38 -0.534005 -0.4063 0
M  V30 28749 H 2607.93 -1.93305 -0.667333 0
M  V30 28750 H 2606.08 -2.2898 -3.12485 0
M  V30 28751 H 2606.5 -4.47036 -2.74334 0
M  V30 28752 H 2607.97 -3.57876 -4.20272 0
M  V30 28753 H 2608.45 -1.90002 -3.95975 0
M  V30 28754 H 2609.05 -3.15383 -2.85331 0
M  V30 28755 N 2607.37 0.798563 -1.3587 0
M  V30 28756 C 2608.65 1.5435 -1.20148 0
M  V30 28757 C 2609.03 2.09991 0.216124 0
M  V30 28758 O 2608.37 1.93165 1.22064 0
M  V30 28759 C 2608.58 2.64568 -2.27607 0
M  V30 28760 C 2609.93 3.32694 -2.63817 0
M  V30 28761 O 2610.96 2.74845 -2.26581 0
M  V30 28762 O 2609.81 4.3722 -3.27874 0
M  V30 28763 H 2606.91 0.682347 -0.46726 0
M  V30 28764 H 2609.45 0.837833 -1.47575 0
M  V30 28765 H 2608.23 2.21382 -3.22654 0
M  V30 28766 H 2607.85 3.42762 -2.01494 0
M  V30 28767 N 2608.85 1.19999 1.02166 0
M  V30 28768 C 2609.78 0.968077 2.12486 0
M  V30 28769 C 2610.76 -0.101155 1.69799 0
M  V30 28770 O 2611.94 0.0553334 1.94121 0
M  V30 28771 C 2609.07 0.513836 3.43478 0
M  V30 28772 C 2608.03 1.52573 3.99882 0
M  V30 28773 C 2607.35 0.928307 5.2658 0
M  V30 28774 C 2608.65 2.90803 4.33856 0
M  V30 28775 H 2610.35 1.89074 2.32146 0
M  V30 28776 H 2607.89 0.910488 1.11562 0
M  V30 28777 H 2609.85 0.338847 4.20035 0
M  V30 28778 H 2608.57 -0.444436 3.23562 0
M  V30 28779 H 2607.23 1.68799 3.25426 0
M  V30 28780 H 2606.88 -0.0377405 5.02986 0
M  V30 28781 H 2606.58 1.60407 5.65282 0
M  V30 28782 H 2608.1 0.764274 6.05798 0
M  V30 28783 H 2609.51 2.78118 5.01322 0
M  V30 28784 H 2607.91 3.55239 4.83658 0
M  V30 28785 H 2608.98 3.4291 3.42842 0
M  V30 28786 N 2610.32 -1.21392 1.00507 0
M  V30 28787 C 2611.27 -2.25791 0.558663 0
M  V30 28788 C 2612.27 -1.64687 -0.396819 0
M  V30 28789 O 2613.47 -1.77994 -0.268004 0
M  V30 28790 H 2609.85 -0.734274 0.162313 0
M  V30 28791 H 2611.82 -2.60783 1.45034 0
M  V30 28792 C 2610.57 -3.47559 -0.0988963 0
M  V30 28793 H 2609.89 -3.94848 0.627295 0
M  V30 28794 H 2611.33 -4.22343 -0.374526 0
M  V30 28795 C 2609.79 -3.09186 -1.33811 0
M  V30 28796 O 2610.32 -3.19678 -2.43246 0
M  V30 28797 N 2608.53 -2.63848 -1.21789 0
M  V30 28798 H 2608.07 -2.55511 -0.327415 0
M  V30 28799 H 2608.03 -2.38542 -2.04805 0
M  V30 28800 N 2611.8 -0.779811 -1.36955 0
M  V30 28801 C 2612.73 -0.185692 -2.3276 0
M  V30 28802 C 2613.71 0.673961 -1.56179 0
M  V30 28803 O 2614.9 0.609765 -1.84379 0
M  V30 28804 C 2612.03 0.687904 -3.40419 0
M  V30 28805 C 2610.98 -0.0710854 -4.27941 0
M  V30 28806 C 2610.31 0.92248 -5.26682 0
M  V30 28807 C 2611.61 -1.25476 -5.07004 0
M  V30 28808 H 2613.3 -0.986058 -2.82696 0
M  V30 28809 H 2610.85 -0.475616 -1.35919 0
M  V30 28810 H 2612.8 1.1134 -4.06425 0
M  V30 28811 H 2611.53 1.52088 -2.89028 0
M  V30 28812 H 2610.18 -0.477454 -3.63478 0
M  V30 28813 H 2609.83 1.75022 -4.71568 0
M  V30 28814 H 2609.53 0.419134 -5.86103 0
M  V30 28815 H 2611.06 1.34675 -5.95563 0
M  V30 28816 H 2612.47 -0.9055 -5.66104 0
M  V30 28817 H 2610.87 -1.69074 -5.7579 0
M  V30 28818 H 2611.94 -2.05489 -4.39207 0
M  V30 28819 N 2613.28 1.48384 -0.531019 0
M  V30 28820 C 2614.19 2.3342 0.234989 0
M  V30 28821 C 2615.21 1.46553 0.937984 0
M  V30 28822 O 2616.38 1.79531 0.912713 0
M  V30 28823 C 2613.45 3.22691 1.26772 0
M  V30 28824 C 2612.51 4.25432 0.574964 0
M  V30 28825 C 2611.74 5.10438 1.55849 0
M  V30 28826 O 2611.96 4.97442 2.7912 0
M  V30 28827 O 2610.9 5.91813 1.09732 0
M  V30 28828 H 2614.72 3.00168 -0.461847 0
M  V30 28829 H 2612.31 1.4652 -0.291928 0
M  V30 28830 H 2614.19 3.77908 1.8645 0
M  V30 28831 H 2612.87 2.58604 1.94694 0
M  V30 28832 H 2611.77 3.74048 -0.062344 0
M  V30 28833 H 2613.11 4.92161 -0.0623395 0
M  V30 28834 N 2614.76 0.2662 1.55336 0
M  V30 28835 C 2616.17 -0.0881785 1.59356 0
M  V30 28836 C 2616.37 -1.5534 1.28343 0
M  V30 28837 O 2615.43 -2.30087 1.04 0
M  V30 28838 C 2616.74 0.278416 2.99408 0
M  V30 28839 C 2618.29 0.224298 3.12195 0
M  V30 28840 C 2618.77 0.565203 4.54499 0
M  V30 28841 N 2620.26 0.516421 4.60312 0
M  V30 28842 C 2620.99 0.753113 5.68433 0
M  V30 28843 N 2620.49 1.05395 6.84736 0
M  V30 28844 N 2622.28 0.682512 5.57941 0
M  V30 28845 H 2614.43 1.22151 1.73761 0
M  V30 28846 H 2616.7 0.492856 0.809813 0
M  V30 28847 H 2616.4 1.29708 3.26908 0
M  V30 28848 H 2616.28 -0.38512 3.75229 0
M  V30 28849 H 2618.66 -0.78507 2.84466 0
M  V30 28850 H 2618.74 0.921964 2.38607 0
M  V30 28851 H 2618.39 1.57222 4.82953 0
M  V30 28852 H 2618.32 -0.154155 5.26374 0
M  V30 28853 H 2620.81 0.293416 3.76759 0
M  V30 28854 H 2621.12 1.22146 7.63086 0
M  V30 28855 H 2619.47 1.09163 6.86373 0
M  V30 28856 H 2622.66 0.447391 4.65957 0
M  V30 28857 H 2622.83 0.870361 6.42128 0
M  V30 28858 N 2616.24 -1.57599 -0.0066531 0
M  V30 28859 C 2617.46 -1.94952 -0.707704 0
M  V30 28860 C 2617.89 -0.867897 -1.66881 0
M  V30 28861 O 2617.24 0.174548 -1.80458 0
M  V30 28862 C 2617.29 -3.31397 -1.42157 0
M  V30 28863 O 2616.4 -3.2523 -2.53573 0
M  V30 28864 H 2615.74 -0.636611 -0.18874 0
M  V30 28865 H 2618.27 -2.04551 0.0445552 0
M  V30 28866 H 2618.28 -3.66809 -1.78649 0
M  V30 28867 H 2616.95 -4.09676 -0.716831 0
M  V30 28868 H 2615.53 -3.01484 -2.19457 0
M  V30 28869 N 2617.72 0.279305 -1.55105 0
M  V30 28870 C 2618.67 1.34724 -1.83939 0
M  V30 28871 C 2619.65 1.44978 -0.697876 0
M  V30 28872 O 2620.84 1.48765 -0.959066 0
M  V30 28873 C 2617.97 2.70861 -2.10925 0
M  V30 28874 C 2617.06 2.64742 -3.31319 0
M  V30 28875 N 2617.45 2.28242 -4.51375 0
M  V30 28876 C 2615.75 2.95814 -3.33782 0
M  V30 28877 C 2616.45 2.31959 -5.33451 0
M  V30 28878 N 2615.42 2.70182 -4.71702 0
M  V30 28879 H 2619.22 1.05502 -2.74311 0
M  V30 28880 H 2616.74 0.487932 -1.54897 0
M  V30 28881 H 2618.74 3.47889 -2.29736 0
M  V30 28882 H 2617.4 3.00976 -1.21833 0
M  V30 28883 H 2618.41 2.00327 -4.77587 0
M  V30 28884 H 2615.08 3.30682 -2.54864 0
M  V30 28885 H 2616.47 2.06354 -6.39428 0
M  V30 28886 N 2619.19 1.47931 0.543528 0
M  V30 28887 C 2620.16 1.60978 1.63153 0
M  V30 28888 C 2621.16 0.483926 1.53345 0
M  V30 28889 O 2622.35 0.749366 1.57258 0
M  V30 28890 C 2619.48 1.56721 3.0274 0
M  V30 28891 H 2620.67 2.57978 1.52929 0
M  V30 28892 H 2618.22 1.36325 0.764533 0
M  V30 28893 H 2618.96 0.611474 3.18483 0
M  V30 28894 H 2618.74 2.38443 3.11267 0
M  V30 28895 H 2620.23 1.69017 3.81868 0
M  V30 28896 N 2620.67 -0.791347 1.36292 0
M  V30 28897 C 2621.6 -1.91246 1.26324 0
M  V30 28898 C 2622.62 -1.61766 0.183158 0
M  V30 28899 O 2623.81 -1.7305 0.437713 0
M  V30 28900 C 2620.91 -3.26005 0.925959 0
M  V30 28901 C 2620.08 -3.83278 2.10753 0
M  V30 28902 C 2619.14 -4.96472 1.74361 0
M  V30 28903 O 2618.16 -5.13092 2.46425 0
M  V30 28904 N 2619.37 -5.76549 0.676159 0
M  V30 28905 H 2622.13 -2.00319 2.22918 0
M  V30 28906 H 2619.69 -0.969523 1.29661 0
M  V30 28907 H 2621.68 -3.99221 0.663706 0
M  V30 28908 H 2620.25 -3.12561 0.049213 0
M  V30 28909 H 2619.47 -3.02073 2.5327 0
M  V30 28910 H 2620.76 -4.18274 2.89697 0
M  V30 28911 H 2620.16 -5.65647 0.0777461 0
M  V30 28912 H 2618.72 -6.50076 0.473726 0
M  V30 28913 N 2622.15 -1.2054 -1.01528 0
M  V30 28914 C 2623.1 -0.95542 -2.10096 0
M  V30 28915 C 2624.07 0.114849 -1.65702 0
M  V30 28916 O 2625.25 -0.0301454 -1.90776 0
M  V30 28917 C 2622.39 -0.515029 -3.41235 0
M  V30 28918 C 2621.5 -1.6536 -3.99099 0
M  V30 28919 C 2620.64 -1.16338 -5.18304 0
M  V30 28920 C 2619.68 -2.27495 -5.68254 0
M  V30 28921 N 2618.82 -1.79682 -6.78718 0
M  V30 28922 H 2623.66 -1.8849 -2.30815 0
M  V30 28923 H 2621.19 -0.939519 -1.13188 0
M  V30 28924 H 2623.15 -0.241008 -4.16503 0
M  V30 28925 H 2621.78 0.377456 -3.20586 0
M  V30 28926 H 2620.83 -2.0425 -3.20914 0
M  V30 28927 H 2622.14 -2.49055 -4.32173 0
M  V30 28928 H 2621.3 -0.845407 -6.00781 0
M  V30 28929 H 2620.04 -0.296339 -4.86799 0
M  V30 28930 H 2619.04 -2.60107 -4.8438 0
M  V30 28931 H 2620.27 -3.14678 -6.01793 0
M  V30 28932 H 2618.21 -0.953064 -6.4904 0
M  V30 28933 H 2618.13 -2.56957 -7.10992 0
M  V30 28934 H 2619.4 -1.50888 -7.64757 0
M  V30 28935 N 2623.63 1.20858 -1.01149 0
M  V30 28936 C 2624.58 2.25492 -0.570629 0
M  V30 28937 C 2625.57 1.64895 0.38808 0
M  V30 28938 O 2626.78 1.78133 0.258561 0
M  V30 28939 H 2623.15 0.733403 -0.166204 0
M  V30 28940 H 2625.12 2.6001 -1.46415 0
M  V30 28941 C 2623.87 3.47607 0.080463 0
M  V30 28942 H 2623.19 3.9451 -0.648226 0
M  V30 28943 H 2624.63 4.22535 0.352123 0
M  V30 28944 C 2623.09 3.09891 1.3217 0
M  V30 28945 O 2623.62 3.20964 2.41547 0
M  V30 28946 N 2621.83 2.6449 1.20388 0
M  V30 28947 H 2621.38 2.55681 0.31386 0
M  V30 28948 H 2621.33 2.39625 2.03537 0
M  V30 28949 N 2625.11 0.787064 1.3654 0
M  V30 28950 C 2626.02 0.184937 2.3387 0
M  V30 28951 C 2627.03 -0.661668 1.60928 0
M  V30 28952 O 2628.21 -0.578006 1.92928 0
M  V30 28953 C 2625.27 -0.672085 3.40123 0
M  V30 28954 C 2624.33 0.192746 4.28867 0
M  V30 28955 C 2623.57 -0.623468 5.30046 0
M  V30 28956 O 2623.79 -1.8596 5.39236 0
M  V30 28957 O 2622.72 -0.024601 6.01895 0
M  V30 28958 H 2626.55 0.989613 2.87124 0
M  V30 28959 H 2624.13 0.54848 1.38968 0
M  V30 28960 H 2626.02 -1.16087 4.05095 0
M  V30 28961 H 2624.69 -1.45469 2.89172 0
M  V30 28962 H 2623.6 0.72823 3.66944 0
M  V30 28963 H 2624.93 0.938807 4.83164 0
M  V30 28964 N 2626.58 -1.48101 0.53888 0
M  V30 28965 C 2627.53 -2.31437 -0.232284 0
M  V30 28966 C 2628.53 -1.41787 -0.926979 0
M  V30 28967 O 2629.73 -1.58648 -0.85035 0
M  V30 28968 H 2626.11 -0.74613 -0.0937785 0
M  V30 28969 H 2628.08 -2.94349 0.490038 0
M  V30 28970 C 2626.83 -3.2404 -1.26068 0
M  V30 28971 H 2626.15 -3.92976 -0.73554 0
M  V30 28972 H 2627.59 -3.85219 -1.7715 0
M  V30 28973 C 2626.05 -2.46269 -2.29898 0
M  V30 28974 O 2626.58 -2.1939 -3.36498 0
M  V30 28975 N 2624.78 -2.07604 -2.03344 0
M  V30 28976 H 2624.33 -2.29664 -1.16671 0
M  V30 28977 H 2624.29 -1.55882 -2.73035 0
M  V30 28978 N 2628.06 -0.274434 -1.55192 0
M  V30 28979 C 2629.02 0.60024 -2.21201 0
M  V30 28980 C 2630.02 1.08185 -1.18965 0
M  V30 28981 O 2631.21 0.982132 -1.43874 0
M  V30 28982 C 2628.35 1.82804 -2.87742 0
M  V30 28983 H 2629.54 0.0239155 -2.9989 0
M  V30 28984 H 2627.09 -0.0250467 -1.5628 0
M  V30 28985 H 2627.83 2.44489 -2.13062 0
M  V30 28986 H 2627.61 1.49063 -3.62661 0
M  V30 28987 H 2629.1 2.45005 -3.38175 0
M  V30 28988 N 2629.54 1.576 -0.00170483 0
M  V30 28989 C 2630.96 1.55616 0.354395 0
M  V30 28990 C 2631.16 1.0045 1.74677 0
M  V30 28991 O 2630.21 0.639065 2.44279 0
M  V30 28992 C 2631.52 2.99834 0.228067 0
M  V30 28993 C 2633.07 3.11531 0.302879 0
M  V30 28994 C 2633.55 4.57538 0.205656 0
M  V30 28995 N 2635.04 4.6245 0.263503 0
M  V30 28996 C 2635.77 5.73009 0.211641 0
M  V30 28997 N 2635.27 6.92712 0.110277 0
M  V30 28998 N 2637.06 5.61481 0.263631 0
M  V30 28999 H 2629.21 1.91798 -0.912532 0
M  V30 29000 H 2631.48 0.881047 -0.349943 0
M  V30 29001 H 2631.18 3.44041 -0.729995 0
M  V30 29002 H 2631.06 3.63442 1.00945 0
M  V30 29003 H 2633.44 2.67253 1.25139 0
M  V30 29004 H 2633.52 2.50697 -0.508401 0
M  V30 29005 H 2633.17 5.0249 -0.739313 0
M  V30 29006 H 2633.1 5.1632 1.03545 0
M  V30 29007 H 2635.59 3.76339 0.343107 0
M  V30 29008 H 2635.9 7.72762 0.076647 0
M  V30 29009 H 2634.25 6.94959 0.0758804 0
M  V30 29010 H 2637.44 4.66856 0.341028 0
M  V30 29011 H 2637.61 6.47627 0.219748 0
M  V30 29012 N 2631.02 -0.271076 1.55251 0
M  V30 29013 C 2631.95 -1.35746 1.84677 0
M  V30 29014 C 2632.96 -1.45446 0.731392 0
M  V30 29015 O 2634.15 -1.47228 1.00926 0
M  V30 29016 C 2631.25 -2.73854 1.99643 0
M  V30 29017 C 2630.42 -2.86721 3.30317 0
M  V30 29018 C 2629.48 -4.05517 3.35325 0
M  V30 29019 O 2628.51 -3.96184 4.08689 0
M  V30 29020 N 2629.71 -5.17573 2.62867 0
M  V30 29021 H 2632.48 -1.10848 2.78447 0
M  V30 29022 H 2630.04 -0.461191 1.55192 0
M  V30 29023 H 2632.03 -3.51621 2.00362 0
M  V30 29024 H 2630.6 -2.91566 1.1273 0
M  V30 29025 H 2629.82 -1.95823 3.42121 0
M  V30 29026 H 2631.11 -2.92251 4.16493 0
M  V30 29027 H 2630.51 -5.28042 2.02948 0
M  V30 29028 H 2629.06 -5.93564 2.69305 0
M  V30 29029 N 2632.5 -1.48217 -0.535675 0
M  V30 29030 C 2633.43 -1.58397 -1.65659 0
M  V30 29031 C 2634.44 -0.468635 -1.55909 0
M  V30 29032 O 2635.63 -0.739228 -1.62474 0
M  V30 29033 C 2632.73 -1.49235 -3.04273 0
M  V30 29034 C 2631.9 -2.75711 -3.39562 0
M  V30 29035 C 2630.96 -2.60083 -4.57431 0
M  V30 29036 O 2629.99 -3.33956 -4.60936 0
M  V30 29037 N 2631.19 -1.69325 -5.55256 0
M  V30 29038 H 2633.96 -2.55061 -1.57366 0
M  V30 29039 H 2631.52 -1.44869 -0.722819 0
M  V30 29040 H 2633.51 -1.36484 -3.80991 0
M  V30 29041 H 2632.08 -0.605686 -3.06676 0
M  V30 29042 H 2631.3 -3.03068 -2.52078 0
M  V30 29043 H 2632.59 -3.59629 -3.59922 0
M  V30 29044 H 2631.98 -1.08498 -5.55198 0
M  V30 29045 H 2630.54 -1.62515 -6.31215 0
M  V30 29046 N 2633.97 0.784108 -1.3671 0
M  V30 29047 C 2634.9 1.91114 -1.34156 0
M  V30 29048 C 2635.89 1.68772 -0.212151 0
M  V30 29049 O 2637.07 1.89809 -0.410615 0
M  V30 29050 C 2634.2 3.28216 -1.13541 0
M  V30 29051 C 2633.15 3.65094 -2.23362 0
M  V30 29052 C 2632.48 5.00603 -1.87884 0
M  V30 29053 C 2633.78 3.73125 -3.65479 0
M  V30 29054 H 2635.47 1.93508 -2.28463 0
M  V30 29055 H 2633.02 0.929599 -1.09975 0
M  V30 29056 H 2634.97 4.06685 -1.10388 0
M  V30 29057 H 2633.7 3.26223 -0.156861 0
M  V30 29058 H 2632.36 2.88925 -2.2565 0
M  V30 29059 H 2632 4.95137 -0.885902 0
M  V30 29060 H 2631.7 5.26247 -2.61415 0
M  V30 29061 H 2633.23 5.81486 -1.86296 0
M  V30 29062 H 2634.64 4.41773 -3.6539 0
M  V30 29063 H 2633.04 4.10257 -4.3796 0
M  V30 29064 H 2634.11 2.74095 -4 0
M  V30 29065 N 2635.45 1.21076 1.00888 0
M  V30 29066 C 2636.36 0.982462 2.13037 0
M  V30 29067 C 2637.38 -0.0641856 1.73882 0
M  V30 29068 O 2638.55 0.124996 2.01012 0
M  V30 29069 C 2635.62 0.545864 3.42376 0
M  V30 29070 C 2634.68 1.66427 3.95728 0
M  V30 29071 C 2633.91 1.24841 5.18893 0
M  V30 29072 O 2634.14 0.120365 5.70273 0
M  V30 29073 O 2633.07 2.05883 5.65593 0
M  V30 29074 H 2636.9 1.92167 2.35171 0
M  V30 29075 H 2634.48 0.995305 1.11418 0
M  V30 29076 H 2636.36 0.311986 4.20244 0
M  V30 29077 H 2635.04 -0.364671 3.21639 0
M  V30 29078 H 2633.95 1.95251 3.19105 0
M  V30 29079 H 2635.28 2.55209 4.20867 0
M  V30 29080 N 2636.93 -1.2032 1.01789 0
M  V30 29081 C 2638.35 -1.41773 0.732976 0
M  V30 29082 C 2638.55 -1.89432 -0.68685 0
M  V30 29083 O 2637.6 -2.06404 -1.45443 0
M  V30 29084 C 2638.92 -2.43829 1.75978 0
M  V30 29085 C 2640.46 -2.57593 1.77806 0
M  V30 29086 C 2640.94 -3.62892 2.79416 0
M  V30 29087 N 2642.43 -3.70377 2.78164 0
M  V30 29088 C 2643.16 -4.51515 3.53442 0
M  V30 29089 N 2642.66 -5.36448 4.38402 0
M  V30 29090 N 2644.45 -4.4606 3.42034 0
M  V30 29091 H 2636.6 -0.877001 1.93449 0
M  V30 29092 H 2638.87 -0.447522 0.83572 0
M  V30 29093 H 2638.57 -2.1581 2.77703 0
M  V30 29094 H 2638.45 -3.42837 1.57298 0
M  V30 29095 H 2640.83 -2.84941 0.767652 0
M  V30 29096 H 2640.92 -1.58775 2.00559 0
M  V30 29097 H 2640.56 -3.36288 3.80622 0
M  V30 29098 H 2640.49 -4.61335 2.53924 0
M  V30 29099 H 2642.98 -3.0971 2.16536 0
M  V30 29100 H 2643.29 -5.95448 4.92607 0
M  V30 29101 H 2641.64 -5.35945 4.42479 0
M  V30 29102 H 2644.83 -3.78745 2.75082 0
M  V30 29103 H 2645 -5.09057 4.00955 0
M  V30 29104 N 2638.41 -0.794293 -1.3612 0
M  V30 29105 C 2639.34 -0.153943 -2.28682 0
M  V30 29106 C 2640.35 0.639643 -1.49708 0
M  V30 29107 O 2641.54 0.474023 -1.72091 0
M  V30 29108 C 2638.64 0.804863 -3.29204 0
M  V30 29109 C 2637.82 0.0602892 -4.37358 0
M  V30 29110 C 2636.87 0.935758 -5.17813 0
M  V30 29111 O 2635.9 0.39121 -5.67854 0
M  V30 29112 N 2637.1 2.25942 -5.34725 0
M  V30 29113 H 2639.87 -0.949058 -2.84276 0
M  V30 29114 H 2637.43 -0.648637 -1.48338 0
M  V30 29115 H 2639.42 1.39449 -3.79916 0
M  V30 29116 H 2637.99 1.50083 -2.74215 0
M  V30 29117 H 2637.21 -0.71045 -3.87745 0
M  V30 29118 H 2638.5 -0.453329 -5.06776 0
M  V30 29119 H 2637.9 2.72592 -4.95691 0
M  V30 29120 H 2636.45 2.79857 -5.88662 0
M  V30 29121 N 2639.89 1.47813 -0.546727 0
M  V30 29122 C 2640.83 2.31557 0.220007 0
M  V30 29123 C 2641.83 1.42276 0.919447 0
M  V30 29124 O 2643.03 1.59096 0.841925 0
M  V30 29125 H 2639.41 0.746617 0.0898202 0
M  V30 29126 H 2641.38 2.94085 -0.505641 0
M  V30 29127 C 2640.13 3.24704 1.24348 0
M  V30 29128 H 2639.45 3.9336 0.714689 0
M  V30 29129 H 2640.89 3.86153 1.75105 0
M  V30 29130 C 2639.35 2.47485 2.28589 0
M  V30 29131 O 2639.88 2.21171 3.3533 0
M  V30 29132 N 2638.09 2.0868 2.0224 0
M  V30 29133 H 2637.63 2.3028 1.15451 0
M  V30 29134 H 2637.59 1.57328 2.72204 0
M  V30 29135 N 2641.36 0.28266 1.55044 0
M  V30 29136 C 2642.31 -0.601526 2.22823 0
M  V30 29137 C 2643.28 -1.1439 1.20433 0
M  V30 29138 O 2644.47 -1.19181 1.48998 0
M  V30 29139 C 2641.61 -1.77627 2.95876 0
M  V30 29140 C 2640.72 -1.26703 4.13002 0
M  V30 29141 C 2639.85 -2.40418 4.7368 0
M  V30 29142 C 2638.89 -1.86535 5.82985 0
M  V30 29143 N 2638.03 -2.93751 6.37695 0
M  V30 29144 H 2642.87 -0.0169004 2.97995 0
M  V30 29145 H 2640.41 0.0034255 1.471 0
M  V30 29146 H 2642.37 -2.46691 3.36451 0
M  V30 29147 H 2641 -2.33281 2.23114 0
M  V30 29148 H 2640.05 -0.469247 3.77495 0
M  V30 29149 H 2641.36 -0.832431 4.91805 0
M  V30 29150 H 2640.51 -3.17461 5.17014 0
M  V30 29151 H 2639.25 -2.87196 3.94169 0
M  V30 29152 H 2638.26 -1.07973 5.39094 0
M  V30 29153 H 2639.48 -1.40683 6.64368 0
M  V30 29154 H 2637.43 -3.39898 5.61075 0
M  V30 29155 H 2637.35 -2.54731 7.11792 0
M  V30 29156 H 2638.61 -3.70748 6.85687 0
M  V30 29157 N 2642.84 -1.57597 0.0100627 0
M  V30 29158 C 2643.75 -2.12492 -0.994189 0
M  V30 29159 C 2644.77 -1.07256 -1.37011 0
M  V30 29160 O 2645.94 -1.39212 -1.4554 0
M  V30 29161 C 2643.01 -2.62559 -2.26415 0
M  V30 29162 C 2642.07 -3.82436 -1.95042 0
M  V30 29163 C 2641.3 -4.30105 -3.15983 0
M  V30 29164 O 2641.53 -3.77048 -4.28009 0
M  V30 29165 O 2640.46 -5.22156 -2.99393 0
M  V30 29166 H 2644.29 -2.98539 -0.557496 0
M  V30 29167 H 2641.87 -1.47925 -0.209387 0
M  V30 29168 H 2643.75 -2.94915 -3.01004 0
M  V30 29169 H 2642.43 -1.79605 -2.69303 0
M  V30 29170 H 2641.34 -3.55037 -1.17898 0
M  V30 29171 H 2642.67 -4.66494 -1.56984 0
M  V30 29172 N 2644.32 0.262839 -1.55393 0
M  V30 29173 C 2645.25 1.32913 -1.9198 0
M  V30 29174 C 2646.23 1.51016 -0.782826 0
M  V30 29175 O 2647.42 1.6389 -1.04181 0
M  V30 29176 C 2644.55 2.68684 -2.2006 0
M  V30 29177 C 2643.5 2.65298 -3.35858 0
M  V30 29178 C 2642.83 4.04715 -3.49442 0
M  V30 29179 C 2644.13 2.23677 -4.71981 0
M  V30 29180 H 2645.82 1.02539 -2.81293 0
M  V30 29181 H 2643.37 0.491823 -1.35341 0
M  V30 29182 H 2645.32 3.43399 -2.44243 0
M  V30 29183 H 2644.04 3.00661 -1.27556 0
M  V30 29184 H 2642.7 1.9304 -3.11659 0
M  V30 29185 H 2642.35 4.33932 -2.54386 0
M  V30 29186 H 2642.05 4.03342 -4.27304 0
M  V30 29187 H 2643.57 4.81155 -3.75929 0
M  V30 29188 H 2644.99 2.88118 -4.95642 0
M  V30 29189 H 2643.39 2.33446 -5.52832 0
M  V30 29190 H 2644.46 1.18819 -4.70117 0
M  V30 29191 N 2645.8 1.48499 0.527807 0
M  V30 29192 C 2646.75 1.63183 1.63217 0
M  V30 29193 C 2647.72 0.473843 1.59198 0
M  V30 29194 O 2648.9 0.697594 1.7759 0
M  V30 29195 C 2646.04 1.67956 3.01471 0
M  V30 29196 C 2645.15 2.94877 3.15708 0
M  V30 29197 C 2644.29 2.90797 4.44534 0
M  V30 29198 C 2643.33 4.12412 4.52308 0
M  V30 29199 N 2642.46 4.06397 5.72526 0
M  V30 29200 H 2647.3 2.57492 1.50006 0
M  V30 29201 H 2644.84 1.27693 0.730275 0
M  V30 29202 H 2646.8 1.68705 3.81569 0
M  V30 29203 H 2645.43 0.771361 3.13448 0
M  V30 29204 H 2644.48 3.03863 2.28849 0
M  V30 29205 H 2645.79 3.84855 3.17313 0
M  V30 29206 H 2644.95 2.89959 5.32925 0
M  V30 29207 H 2643.69 1.9855 4.45454 0
M  V30 29208 H 2642.69 4.13523 3.62324 0
M  V30 29209 H 2643.92 5.0582 4.53125 0
M  V30 29210 H 2641.86 3.16972 5.74338 0
M  V30 29211 H 2641.78 4.90083 5.75634 0
M  V30 29212 H 2643.05 4.09621 6.63197 0
M  V30 29213 N 2647.28 -0.776847 1.37123 0
M  V30 29214 C 2648.52 -1.53749 1.32246 0
M  V30 29215 C 2648.86 -1.9397 -0.0944404 0
M  V30 29216 O 2648.13 -1.63682 -1.05065 0
M  V30 29217 C 2648.41 -2.80603 2.25686 0
M  V30 29218 C 2648.27 -2.46669 3.76131 0
M  V30 29219 C 2649.59 -3.82505 2.17664 0
M  V30 29220 H 2646.71 -0.557782 0.481714 0
M  V30 29221 H 2649.35 -0.891583 1.67782 0
M  V30 29222 H 2647.5 -3.3572 1.95511 0
M  V30 29223 H 2649.17 -1.97506 4.1688 0
M  V30 29224 H 2647.41 -1.79436 3.9495 0
M  V30 29225 H 2648.08 -3.37326 4.36939 0
M  V30 29226 H 2650.56 -3.36869 2.44251 0
M  V30 29227 H 2649.44 -4.68995 2.85193 0
M  V30 29228 H 2649.7 -4.26394 1.16793 0
M  V30 29229 N 2648.76 -1.2161 -1.00244 0
M  V30 29230 C 2649.7 -0.97765 -2.09071 0
M  V30 29231 C 2650.67 0.0972679 -1.65815 0
M  V30 29232 O 2651.86 -0.050378 -1.90733 0
M  V30 29233 C 2649 -0.551193 -3.4067 0
M  V30 29234 C 2648.11 -1.69583 -3.97323 0
M  V30 29235 C 2647.25 -1.21829 -5.17041 0
M  V30 29236 C 2646.28 -2.33509 -5.65809 0
M  V30 29237 N 2645.42 -1.86871 -6.76775 0
M  V30 29238 H 2650.26 -1.90928 -2.28802 0
M  V30 29239 H 2647.8 -0.951471 -1.12185 0
M  V30 29240 H 2649.76 -0.28517 -4.16224 0
M  V30 29241 H 2648.39 0.343432 -3.20968 0
M  V30 29242 H 2647.44 -2.07642 -3.1873 0
M  V30 29243 H 2648.75 -2.53625 -4.29507 0
M  V30 29244 H 2647.9 -0.909081 -5.9985 0
M  V30 29245 H 2646.64 -0.347954 -4.86457 0
M  V30 29246 H 2645.65 -2.6523 -4.81594 0
M  V30 29247 H 2646.87 -3.21043 -5.98421 0
M  V30 29248 H 2644.82 -1.02185 -6.47992 0
M  V30 29249 H 2644.74 -2.64484 -7.08226 0
M  V30 29250 H 2646 -1.58991 -7.63113 0
M  V30 29251 N 2650.23 1.19778 -1.02425 0
M  V30 29252 C 2651.16 2.25074 -0.621609 0
M  V30 29253 C 2652.14 1.66091 0.367119 0
M  V30 29254 O 2653.33 1.92573 0.250858 0
M  V30 29255 C 2650.46 3.47284 0.0331216 0
M  V30 29256 C 2649.41 4.1891 -0.877397 0
M  V30 29257 C 2648.74 5.34628 -0.0880236 0
M  V30 29258 C 2650.04 4.74215 -2.189 0
M  V30 29259 H 2651.73 2.59008 -1.50183 0
M  V30 29260 H 2649.28 1.24501 -0.723569 0
M  V30 29261 H 2651.23 4.20134 0.326414 0
M  V30 29262 H 2649.96 3.12536 0.948109 0
M  V30 29263 H 2648.62 3.47936 -1.15481 0
M  V30 29264 H 2648.26 4.96124 0.828854 0
M  V30 29265 H 2647.96 5.83482 -0.694461 0
M  V30 29266 H 2649.49 6.10277 0.198636 0
M  V30 29267 H 2650.9 5.38844 -1.95755 0
M  V30 29268 H 2649.3 5.33537 -2.74696 0
M  V30 29269 H 2650.37 3.92536 -2.84681 0
M  V30 29270 N 2651.71 0.801501 1.35697 0
M  V30 29271 C 2652.64 0.166069 2.28598 0
M  V30 29272 C 2653.66 -0.631694 1.50045 0
M  V30 29273 O 2654.85 -0.46489 1.7234 0
M  V30 29274 C 2651.95 -0.787393 3.29626 0
M  V30 29275 C 2651.12 -0.0370941 4.37384 0
M  V30 29276 C 2650.18 -0.908284 5.18302 0
M  V30 29277 O 2649.2 -0.361089 5.68054 0
M  V30 29278 N 2650.41 -2.23103 5.35915 0
M  V30 29279 H 2653.17 0.96412 2.83769 0
M  V30 29280 H 2650.73 0.656495 1.47992 0
M  V30 29281 H 2652.72 -1.37432 3.8065 0
M  V30 29282 H 2651.29 -1.48627 2.75007 0
M  V30 29283 H 2650.51 0.731003 3.87363 0
M  V30 29284 H 2651.8 0.480198 5.06529 0
M  V30 29285 H 2651.2 -2.69959 4.9713 0
M  V30 29286 H 2649.76 -2.76731 5.90138 0
M  V30 29287 N 2653.19 -1.47521 0.554558 0
M  V30 29288 C 2654.1 -2.33764 -0.197824 0
M  V30 29289 C 2655.12 -1.48027 -0.91455 0
M  V30 29290 O 2656.29 -1.80961 -0.884036 0
M  V30 29291 C 2653.36 -3.24667 -1.21622 0
M  V30 29292 C 2652.42 -4.26293 -0.507208 0
M  V30 29293 C 2651.65 -5.12853 -1.47709 0
M  V30 29294 O 2651.87 -5.01819 -2.71171 0
M  V30 29295 O 2650.81 -5.93484 -1.00303 0
M  V30 29296 H 2654.63 -2.99395 0.509543 0
M  V30 29297 H 2652.22 -1.46037 0.315202 0
M  V30 29298 H 2654.1 -3.80826 -1.80415 0
M  V30 29299 H 2652.78 -2.61668 -1.90556 0
M  V30 29300 H 2651.68 -3.73902 0.121844 0
M  V30 29301 H 2653.02 -4.91999 0.14063 0
M  V30 29302 N 2654.67 -0.290879 -1.54892 0
M  V30 29303 C 2655.6 0.631451 -2.1929 0
M  V30 29304 C 2656.58 1.14049 -1.15895 0
M  V30 29305 O 2657.76 1.21055 -1.44492 0
M  V30 29306 C 2654.89 1.86286 -2.8287 0
M  V30 29307 C 2653.94 1.48794 -3.99703 0
M  V30 29308 S 2654.77 0.552551 -5.32642 0
M  V30 29309 C 2655.92 1.79198 -5.99699 0
M  V30 29310 H 2656.16 0.0843269 -2.9718 0
M  V30 29311 H 2653.69 -0.0750581 -1.54217 0
M  V30 29312 H 2655.65 2.56959 -3.20129 0
M  V30 29313 H 2654.31 2.38114 -2.04843 0
M  V30 29314 H 2653.5 2.40466 -4.42936 0
M  V30 29315 H 2653.1 0.861257 -3.63948 0
M  V30 29316 H 2655.4 2.73389 -6.19891 0
M  V30 29317 H 2656.34 1.40239 -6.94074 0
M  V30 29318 H 2656.75 1.9641 -5.29229 0
M  V30 29319 N 2656.15 1.57589 -0.0184203 0
M  V30 29320 C 2657.06 2.13017 0.982906 0
M  V30 29321 C 2658.07 1.07981 1.36441 0
M  V30 29322 O 2659.25 1.39982 1.448 0
M  V30 29323 C 2656.31 2.63756 2.25019 0
M  V30 29324 C 2655.37 3.83465 1.93011 0
M  V30 29325 C 2654.61 4.31775 3.13698 0
M  V30 29326 O 2654.83 3.79312 4.26003 0
M  V30 29327 O 2653.76 5.23737 2.9662 0
M  V30 29328 H 2657.59 2.98831 0.541656 0
M  V30 29329 H 2655.17 1.48034 0.201539 0
M  V30 29330 H 2657.06 2.96507 2.99435 0
M  V30 29331 H 2655.73 1.8103 2.68346 0
M  V30 29332 H 2654.64 3.55657 1.16013 0
M  V30 29333 H 2655.97 4.6732 1.54508 0
M  V30 29334 N 2657.62 -0.254594 1.5553 0
M  V30 29335 C 2658.87 -0.981762 1.76652 0
M  V30 29336 C 2659.19 -1.86144 0.580996 0
M  V30 29337 O 2658.46 -1.91699 -0.403503 0
M  V30 29338 H 2657.04 -0.365487 0.651482 0
M  V30 29339 H 2659.7 -0.274392 1.92959 0
M  V30 29340 H 2658.8 -1.60798 2.67489 0
M  V30 29341 N 2659.1 -1.48777 -0.519925 0
M  V30 29342 C 2660.33 -1.60984 -1.29968 0
M  V30 29343 C 2660.74 -0.273917 -1.86802 0
M  V30 29344 O 2660.1 0.738164 -1.66905 0
M  V30 29345 C 2660.15 -2.6642 -2.44342 0
M  V30 29346 O 2659.87 -3.94828 -1.89848 0
M  V30 29347 C 2661.37 -2.89159 -3.36009 0
M  V30 29348 H 2658.59 -0.542503 -0.394882 0
M  V30 29349 H 2661.14 -1.94677 -0.62618 0
M  V30 29350 H 2659.29 -2.35557 -3.07557 0
M  V30 29351 H 2659.71 -4.52755 -2.6479 0
M  V30 29352 H 2661.18 -3.6671 -4.12586 0
M  V30 29353 H 2661.66 -1.98358 -3.91855 0
M  V30 29354 H 2662.26 -3.21364 -2.78577 0
M  V30 29355 N 2660.58 0.769564 -1.37534 0
M  V30 29356 C 2661.83 1.53046 -1.33059 0
M  V30 29357 C 2662.16 1.94018 0.0841524 0
M  V30 29358 O 2661.43 1.64236 1.04195 0
M  V30 29359 C 2661.72 2.79402 -2.27171 0
M  V30 29360 C 2661.57 2.44671 -3.77434 0
M  V30 29361 C 2662.89 3.81346 -2.1969 0
M  V30 29362 H 2660.01 0.55522 -0.484665 0
M  V30 29363 H 2662.65 0.882673 -1.68252 0
M  V30 29364 H 2660.8 3.34678 -1.97288 0
M  V30 29365 H 2662.47 1.95293 -4.17922 0
M  V30 29366 H 2660.71 1.77339 -3.95896 0
M  V30 29367 H 2661.39 3.35004 -4.38721 0
M  V30 29368 H 2663.86 3.35569 -2.46034 0
M  V30 29369 H 2662.74 4.67476 -2.87676 0
M  V30 29370 H 2663 4.25769 -1.19052 0
M  V30 29371 N 2662.06 1.22139 0.995977 0
M  V30 29372 C 2663.01 0.988723 2.0855 0
M  V30 29373 C 2663.98 -0.0884729 1.65864 0
M  V30 29374 O 2665.16 0.0604924 1.90704 0
M  V30 29375 C 2662.3 0.569251 3.40373 0
M  V30 29376 C 2661.41 1.71688 3.96418 0
M  V30 29377 C 2660.55 1.24569 5.16387 0
M  V30 29378 C 2659.59 2.36507 5.64563 0
M  V30 29379 N 2658.72 1.90457 6.75774 0
M  V30 29380 H 2663.56 1.92139 2.27787 0
M  V30 29381 H 2661.1 0.957408 1.11679 0
M  V30 29382 H 2663.06 0.307239 4.16067 0
M  V30 29383 H 2661.69 -0.326406 3.21146 0
M  V30 29384 H 2660.74 2.0933 3.17624 0
M  V30 29385 H 2662.05 2.55899 4.28156 0
M  V30 29386 H 2661.21 0.940879 5.9936 0
M  V30 29387 H 2659.95 0.373747 4.86266 0
M  V30 29388 H 2658.95 2.67781 4.80181 0
M  V30 29389 H 2660.18 3.24212 5.9671 0
M  V30 29390 H 2658.12 1.0562 6.47441 0
M  V30 29391 H 2658.04 2.68236 7.06814 0
M  V30 29392 H 2659.31 1.63036 7.6226 0
M  V30 29393 N 2663.54 -1.19233 1.03059 0
M  V30 29394 C 2664.76 -1.93457 0.747604 0
M  V30 29395 C 2665.19 -1.75081 -0.687617 0
M  V30 29396 O 2664.54 -1.05425 -1.47497 0
M  V30 29397 C 2664.59 -3.43217 1.10611 0
M  V30 29398 O 2663.7 -4.11782 0.225743 0
M  V30 29399 H 2663.04 -0.603894 0.276057 0
M  V30 29400 H 2665.57 -1.51261 1.37773 0
M  V30 29401 H 2665.58 -3.93889 1.06373 0
M  V30 29402 H 2664.25 -3.55913 2.15171 0
M  V30 29403 H 2662.83 -3.71465 0.32686 0
M  V30 29404 N 2665.01 -0.808686 -1.3527 0
M  V30 29405 C 2665.96 -0.218523 -2.29763 0
M  V30 29406 C 2666.93 0.648625 -1.52912 0
M  V30 29407 O 2668.12 0.593265 -1.81342 0
M  V30 29408 C 2665.26 0.625222 -3.39389 0
M  V30 29409 C 2664.37 -0.262592 -4.31201 0
M  V30 29410 C 2663.5 0.589359 -5.2792 0
M  V30 29411 C 2662.54 -0.298724 -6.11371 0
M  V30 29412 N 2661.68 0.51332 -7.00221 0
M  V30 29413 H 2666.52 -1.02973 -2.79644 0
M  V30 29414 H 2664.06 -0.519328 -1.37628 0
M  V30 29415 H 2666.02 1.12959 -4.01617 0
M  V30 29416 H 2664.65 1.40168 -2.9078 0
M  V30 29417 H 2663.7 -0.885078 -3.6996 0
M  V30 29418 H 2665.01 -0.946057 -4.89746 0
M  V30 29419 H 2664.16 1.15878 -5.95531 0
M  V30 29420 H 2662.9 1.30638 -4.69878 0
M  V30 29421 H 2661.91 -0.880396 -5.42705 0
M  V30 29422 H 2663.13 -1.01364 -6.71492 0
M  V30 29423 H 2661.08 1.21428 -6.44664 0
M  V30 29424 H 2661 -0.112055 -7.55917 0
M  V30 29425 H 2662.26 1.06595 -7.72177 0
M  V30 29426 N 2666.49 1.47225 -0.562374 0
M  V30 29427 C 2667.72 2.06551 -0.0451982 0
M  V30 29428 C 2668.13 1.41475 1.25624 0
M  V30 29429 O 2667.47 0.507092 1.76562 0
M  V30 29430 C 2667.54 3.5885 0.216005 0
M  V30 29431 C 2667.2 4.45997 -0.996769 0
M  V30 29432 C 2668.2 4.83794 -1.90367 0
M  V30 29433 C 2665.88 4.87436 -1.2129 0
M  V30 29434 C 2667.88 5.61834 -3.01033 0
M  V30 29435 C 2665.56 5.6524 -2.32265 0
M  V30 29436 C 2666.56 6.02351 -3.21967 0
M  V30 29437 O 2666.25 6.78586 -4.31017 0
M  V30 29438 H 2665.98 0.674489 -0.0451764 0
M  V30 29439 H 2668.53 1.90142 -0.776876 0
M  V30 29440 H 2666.76 3.73491 1.00205 0
M  V30 29441 H 2668.45 4.00177 0.679193 0
M  V30 29442 H 2669.22 4.52375 -1.74876 0
M  V30 29443 H 2665.1 4.58014 -0.523848 0
M  V30 29444 H 2668.64 5.90719 -3.71075 0
M  V30 29445 H 2664.54 5.96072 -2.47726 0
M  V30 29446 H 2665.31 6.96986 -4.2913 0
M  V30 29447 N 2667.97 0.299089 1.54736 0
M  V30 29448 C 2668.92 -0.577859 2.23449 0
M  V30 29449 C 2669.89 -1.13106 1.21639 0
M  V30 29450 O 2671.07 -1.17594 1.50254 0
M  V30 29451 C 2668.21 -1.74479 2.97743 0
M  V30 29452 C 2667.33 -1.22316 4.14322 0
M  V30 29453 C 2666.46 -2.3538 4.76203 0
M  V30 29454 C 2665.5 -1.80341 5.8493 0
M  V30 29455 N 2664.64 -2.86971 6.40775 0
M  V30 29456 H 2669.48 0.0147069 2.97996 0
M  V30 29457 H 2667.01 0.0190272 1.47088 0
M  V30 29458 H 2668.97 -2.43108 3.39049 0
M  V30 29459 H 2667.6 -2.30901 2.25576 0
M  V30 29460 H 2666.65 -0.429183 3.77971 0
M  V30 29461 H 2667.97 -0.780222 4.9266 0
M  V30 29462 H 2667.12 -3.1196 5.20352 0
M  V30 29463 H 2665.86 -2.83 3.97193 0
M  V30 29464 H 2664.86 -1.02249 5.40208 0
M  V30 29465 H 2666.09 -1.33628 6.65823 0
M  V30 29466 H 2664.03 -3.33928 5.64649 0
M  V30 29467 H 2663.95 -2.47167 7.14454 0
M  V30 29468 H 2665.22 -3.63454 6.89581 0
M  V30 29469 N 2669.45 -1.57577 0.0267774 0
M  V30 29470 C 2670.41 -2.08998 -0.940879 0
M  V30 29471 C 2671.41 -1.00457 -1.25559 0
M  V30 29472 O 2672.6 -1.26625 -1.19632 0
M  V30 29473 C 2669.73 -2.55387 -2.2581 0
M  V30 29474 H 2670.93 -2.95777 -0.495576 0
M  V30 29475 H 2668.48 -1.54727 -0.221214 0
M  V30 29476 H 2669.21 -1.71931 -2.74973 0
M  V30 29477 H 2669 -3.34682 -2.0428 0
M  V30 29478 H 2670.49 -2.95403 -2.95173 0
M  V30 29479 N 2670.93 0.246342 -1.55663 0
M  V30 29480 C 2672.15 0.996061 -1.81916 0
M  V30 29481 C 2672.58 1.78142 -0.603906 0
M  V30 29482 O 2671.93 1.75702 0.44706 0
M  V30 29483 C 2671.98 1.9092 -3.05912 0
M  V30 29484 O 2671.09 3.001 -2.82866 0
M  V30 29485 H 2670.43 0.283396 -0.600486 0
M  V30 29486 H 2672.96 0.267163 -2.02848 0
M  V30 29487 H 2672.97 2.32374 -3.3536 0
M  V30 29488 H 2671.64 1.33176 -3.94001 0
M  V30 29489 H 2670.22 2.6277 -2.64587 0
M  V30 29490 N 2672.4 1.4905 0.512027 0
M  V30 29491 C 2673.65 1.57229 1.2634 0
M  V30 29492 C 2673.97 0.259189 1.93875 0
M  V30 29493 O 2675.17 0.219405 2.70612 0
M  V30 29494 C 2673.63 2.77366 2.29338 0
M  V30 29495 C 2673.24 4.15391 1.67792 0
M  V30 29496 C 2674.98 2.94869 3.05373 0
M  V30 29497 C 2672.89 5.26765 2.68836 0
M  V30 29498 H 2671.82 0.58539 0.475221 0
M  V30 29499 H 2674.47 1.75418 0.53859 0
M  V30 29500 H 2672.85 2.52649 3.04934 0
M  V30 29501 H 2674.02 4.50201 0.982636 0
M  V30 29502 H 2672.34 4.03155 1.04187 0
M  V30 29503 H 2674.94 3.75245 3.80914 0
M  V30 29504 H 2675.28 2.05006 3.62323 0
M  V30 29505 H 2675.81 3.19573 2.36892 0
M  V30 29506 H 2672.55 6.18651 2.16681 0
M  V30 29507 H 2672.07 4.96422 3.36638 0
M  V30 29508 H 2673.75 5.55636 3.31478 0
M  V30 29509 N 2673.88 -0.762259 1.3794 0
M  V30 29510 C 2675.11 -1.55145 1.36886 0
M  V30 29511 C 2675.53 -1.8875 -0.0435016 0
M  V30 29512 O 2674.88 -1.52148 -1.00783 0
M  V30 29513 C 2674.93 -2.85592 2.21629 0
M  V30 29514 O 2674.65 -2.53423 3.57363 0
M  V30 29515 C 2676.16 -3.79776 2.2866 0
M  V30 29516 H 2673.38 -0.480335 0.468529 0
M  V30 29517 H 2675.92 -0.944047 1.81406 0
M  V30 29518 H 2674.07 -3.42731 1.80594 0
M  V30 29519 H 2674.49 -3.37025 4.01889 0
M  V30 29520 H 2675.96 -4.68283 2.92259 0
M  V30 29521 H 2676.44 -4.19589 1.29774 0
M  V30 29522 H 2677.05 -3.28563 2.70049 0
M  V30 29523 N 2675.36 -1.22666 -0.989486 0
M  V30 29524 C 2676.32 -1.00109 -2.06181 0
M  V30 29525 C 2677.32 0.0337443 -1.60765 0
M  V30 29526 O 2678.51 -0.205102 -1.72988 0
M  V30 29527 C 2675.65 -0.512849 -3.3702 0
M  V30 29528 H 2676.84 -1.9526 -2.27626 0
M  V30 29529 H 2674.39 -1.04582 -1.16156 0
M  V30 29530 H 2675.13 0.44286 -3.21262 0
M  V30 29531 H 2674.91 -1.25949 -3.71321 0
M  V30 29532 H 2676.4 -0.375388 -4.15909 0
M  V30 29533 N 2676.84 1.18685 -1.0369 0
M  V30 29534 C 2677.77 2.24402 -0.645446 0
M  V30 29535 C 2678.75 1.66471 0.349482 0
M  V30 29536 O 2679.94 1.92828 0.230419 0
M  V30 29537 C 2677.07 3.473 -0.00371441 0
M  V30 29538 C 2676.02 4.17956 -0.921779 0
M  V30 29539 C 2675.35 5.34504 -0.144723 0
M  V30 29540 C 2676.65 4.71867 -2.23918 0
M  V30 29541 H 2678.34 2.57401 -1.52922 0
M  V30 29542 H 2675.89 1.23726 -0.736733 0
M  V30 29543 H 2677.84 4.20456 0.281835 0
M  V30 29544 H 2676.56 3.13524 0.914908 0
M  V30 29545 H 2675.22 3.46692 -1.19165 0
M  V30 29546 H 2674.87 4.96975 0.776186 0
M  V30 29547 H 2674.57 5.82712 -0.756308 0
M  V30 29548 H 2676.09 6.10453 0.133897 0
M  V30 29549 H 2677.51 5.36737 -2.01459 0
M  V30 29550 H 2675.9 5.30594 -2.80339 0
M  V30 29551 H 2676.97 3.89495 -2.88829 0
M  V30 29552 N 2678.32 0.815849 1.34839 0
M  V30 29553 C 2679.23 0.234503 2.33425 0
M  V30 29554 C 2680.24 -0.627384 1.62296 0
M  V30 29555 O 2681.42 -0.536953 1.9411 0
M  V30 29556 C 2678.48 -0.599789 3.41472 0
M  V30 29557 C 2677.55 0.283671 4.28362 0
M  V30 29558 C 2676.78 -0.510897 5.31249 0
M  V30 29559 O 2677 -1.7448 5.43059 0
M  V30 29560 O 2675.94 0.103075 6.01812 0
M  V30 29561 H 2679.76 1.05029 2.84961 0
M  V30 29562 H 2677.35 0.577834 1.37773 0
M  V30 29563 H 2679.23 -1.07468 4.07466 0
M  V30 29564 H 2677.9 -1.39302 2.92193 0
M  V30 29565 H 2676.81 0.805901 3.65316 0
M  V30 29566 H 2678.14 1.04108 4.81064 0
M  V30 29567 N 2679.8 -1.46924 0.570174 0
M  V30 29568 C 2680.76 -2.28642 -0.159893 0
M  V30 29569 C 2681.76 -1.37686 -0.830614 0
M  V30 29570 O 2682.95 -1.60189 -0.684487 0
M  V30 29571 C 2680.08 -3.17729 -1.23535 0
M  V30 29572 H 2681.27 -2.94661 0.558087 0
M  V30 29573 H 2678.83 -1.52828 0.32763 0
M  V30 29574 H 2679.56 -2.56429 -1.98531 0
M  V30 29575 H 2679.35 -3.84683 -0.759058 0
M  V30 29576 H 2680.84 -3.79267 -1.74775 0
M  V30 29577 N 2681.27 -0.307291 -1.54575 0
M  V30 29578 C 2682.22 0.566001 -2.23752 0
M  V30 29579 C 2683.19 1.1246 -1.22237 0
M  V30 29580 O 2684.38 1.16796 -1.50875 0
M  V30 29581 C 2681.52 1.72897 -2.98665 0
M  V30 29582 C 2680.63 1.20117 -4.14965 0
M  V30 29583 C 2679.76 2.32851 -4.77445 0
M  V30 29584 C 2678.8 1.77236 -5.85879 0
M  V30 29585 N 2677.94 2.83569 -6.42287 0
M  V30 29586 H 2682.78 -0.0305102 -2.97984 0
M  V30 29587 H 2680.32 -0.0268273 -1.47076 0
M  V30 29588 H 2682.27 2.41307 -3.40333 0
M  V30 29589 H 2680.9 2.29702 -2.26797 0
M  V30 29590 H 2679.96 0.409132 -3.78193 0
M  V30 29591 H 2681.27 0.754084 -4.93067 0
M  V30 29592 H 2680.42 3.09196 -5.21999 0
M  V30 29593 H 2679.16 2.80889 -3.98689 0
M  V30 29594 H 2678.17 0.993831 -5.40743 0
M  V30 29595 H 2679.39 1.30095 -6.66522 0
M  V30 29596 H 2677.34 3.30929 -5.66412 0
M  V30 29597 H 2677.25 2.43375 -7.15755 0
M  V30 29598 H 2678.52 3.59792 -6.91498 0
M  V30 29599 N 2682.75 1.57561 -0.0351337 0
M  V30 29600 C 2684 1.91224 0.64157 0
M  V30 29601 C 2684.31 0.913791 1.72943 0
M  V30 29602 O 2685.52 1.14189 2.46319 0
M  V30 29603 C 2683.98 3.39572 1.19243 0
M  V30 29604 C 2683.58 4.47789 0.137538 0
M  V30 29605 C 2685.33 3.82294 1.8453 0
M  V30 29606 C 2683.23 5.87238 0.700375 0
M  V30 29607 H 2682.16 0.713632 0.243405 0
M  V30 29608 H 2684.82 1.8322 -0.101414 0
M  V30 29609 H 2683.2 3.42528 1.98722 0
M  V30 29610 H 2684.37 4.56401 -0.635233 0
M  V30 29611 H 2682.69 4.14307 -0.416928 0
M  V30 29612 H 2685.28 4.83838 2.27607 0
M  V30 29613 H 2685.63 3.17677 2.69048 0
M  V30 29614 H 2686.16 3.81786 1.11732 0
M  V30 29615 H 2682.9 6.55413 -0.106808 0
M  V30 29616 H 2682.42 5.82221 1.4415 0
M  V30 29617 H 2684.1 6.35995 1.18826 0
M  V30 29618 N 2684.23 -0.238084 1.55791 0
M  V30 29619 C 2685.19 -1.27832 1.90241 0
M  V30 29620 C 2686.19 -1.40639 0.779577 0
M  V30 29621 O 2687.38 -1.39188 1.04749 0
M  V30 29622 C 2684.51 -2.65471 2.13864 0
M  V30 29623 H 2685.71 -0.984984 2.83263 0
M  V30 29624 H 2683.26 -0.477772 1.48819 0
M  V30 29625 H 2684 -2.9993 1.23339 0
M  V30 29626 H 2683.78 -2.57555 2.95648 0
M  V30 29627 H 2685.27 -3.40566 2.4167 0
M  V30 29628 N 2685.71 -1.4932 -0.504115 0
M  V30 29629 C 2686.64 -1.61875 -1.62262 0
M  V30 29630 C 2687.65 -0.5016 -1.5488 0
M  V30 29631 O 2688.84 -0.773525 -1.60869 0
M  V30 29632 C 2685.94 -1.55656 -3.01039 0
M  V30 29633 C 2685.11 -2.82851 -3.33637 0
M  V30 29634 C 2684.17 -2.69727 -4.51812 0
M  V30 29635 O 2683.2 -3.43658 -4.53749 0
M  V30 29636 N 2684.4 -1.81064 -5.5154 0
M  V30 29637 H 2687.17 -2.58342 -1.5192 0
M  V30 29638 H 2684.73 -1.46369 -0.691928 0
M  V30 29639 H 2686.72 -1.44534 -3.7801 0
M  V30 29640 H 2685.29 -0.6706 -3.05322 0
M  V30 29641 H 2684.51 -3.08347 -2.45593 0
M  V30 29642 H 2685.8 -3.67183 -3.52213 0
M  V30 29643 H 2685.2 -1.20251 -5.52771 0
M  V30 29644 H 2683.75 -1.75867 -6.27626 0
M  V30 29645 N 2687.19 0.754933 -1.38342 0
M  V30 29646 C 2688.12 1.88225 -1.3818 0
M  V30 29647 C 2689.1 1.68284 -0.247902 0
M  V30 29648 O 2690.28 1.88896 -0.450784 0
M  V30 29649 C 2687.41 3.25734 -1.20477 0
M  V30 29650 C 2686.37 3.60274 -2.31056 0
M  V30 29651 C 2685.69 4.96505 -1.9846 0
M  V30 29652 C 2686.99 3.65289 -3.73312 0
M  V30 29653 H 2688.69 1.88618 -2.32516 0
M  V30 29654 H 2686.23 0.906062 -1.11922 0
M  V30 29655 H 2688.18 4.04252 -1.18989 0
M  V30 29656 H 2686.91 3.25817 -0.226023 0
M  V30 29657 H 2685.57 2.84074 -2.31728 0
M  V30 29658 H 2685.22 4.93147 -0.990728 0
M  V30 29659 H 2684.92 5.20584 -2.72519 0
M  V30 29660 H 2686.44 5.77404 -1.98588 0
M  V30 29661 H 2687.85 4.33923 -3.74678 0
M  V30 29662 H 2686.25 4.00875 -4.46564 0
M  V30 29663 H 2687.32 2.65549 -4.05724 0
M  V30 29664 N 2688.66 1.23189 0.982967 0
M  V30 29665 C 2689.57 1.02743 2.10905 0
M  V30 29666 C 2690.59 -0.0272883 1.73979 0
M  V30 29667 O 2691.77 0.167605 2.00701 0
M  V30 29668 C 2688.83 0.618364 3.41141 0
M  V30 29669 C 2687.89 1.74784 3.92109 0
M  V30 29670 C 2687.12 1.35819 5.16129 0
M  V30 29671 O 2687.35 0.241301 5.69889 0
M  V30 29672 O 2686.28 2.17834 5.61099 0
M  V30 29673 H 2690.11 1.97112 2.31042 0
M  V30 29674 H 2687.69 1.01871 1.09282 0
M  V30 29675 H 2689.57 0.401056 4.19487 0
M  V30 29676 H 2688.25 -0.296364 3.2234 0
M  V30 29677 H 2687.16 2.01976 3.14891 0
M  V30 29678 H 2688.49 2.64079 4.15359 0
M  V30 29679 N 2690.14 -1.18133 1.04318 0
M  V30 29680 C 2691.05 -2.25504 0.646916 0
M  V30 29681 C 2692.07 -1.70881 -0.327977 0
M  V30 29682 O 2693.24 -2.00573 -0.182273 0
M  V30 29683 C 2690.31 -3.46695 0.0186273 0
M  V30 29684 C 2689.37 -4.16441 1.04285 0
M  V30 29685 C 2688.6 -5.31846 0.444445 0
M  V30 29686 O 2688.83 -5.65466 -0.748636 0
M  V30 29687 O 2687.76 -5.90332 1.17439 0
M  V30 29688 H 2691.59 -2.61669 1.54152 0
M  V30 29689 H 2689.17 -1.25264 0.81421 0
M  V30 29690 H 2691.05 -4.20098 -0.330994 0
M  V30 29691 H 2689.73 -3.12347 -0.84976 0
M  V30 29692 H 2688.63 -3.45095 1.44431 0
M  V30 29693 H 2689.97 -4.54795 1.88208 0
M  V30 29694 N 2691.62 -0.822988 -1.34405 0
M  V30 29695 C 2692.55 -0.202415 -2.28304 0
M  V30 29696 C 2693.57 0.607743 -1.51031 0
M  V30 29697 O 2694.75 0.437414 -1.73058 0
M  V30 29698 C 2691.85 0.734853 -3.30837 0
M  V30 29699 C 2691.03 -0.0324946 -4.37388 0
M  V30 29700 C 2690.09 0.825711 -5.19681 0
M  V30 29701 O 2689.11 0.270671 -5.68556 0
M  V30 29702 N 2690.31 2.14549 -5.39397 0
M  V30 29703 H 2693.08 -1.00914 -2.82199 0
M  V30 29704 H 2690.64 -0.679956 -1.46929 0
M  V30 29705 H 2692.63 1.31359 -3.82788 0
M  V30 29706 H 2691.2 1.44233 -2.77337 0
M  V30 29707 H 2690.42 -0.792537 -3.86151 0
M  V30 29708 H 2691.71 -0.560722 -5.05701 0
M  V30 29709 H 2691.11 2.62016 -5.01362 0
M  V30 29710 H 2689.67 2.67307 -5.94466 0
M  V30 29711 N 2693.1 1.4662 -0.577957 0
M  V30 29712 C 2694.03 2.33044 0.145876 0
M  V30 29713 C 2695.01 1.45058 0.888387 0
M  V30 29714 O 2696.19 1.73883 0.864782 0
M  V30 29715 C 2693.32 3.27243 1.16316 0
M  V30 29716 C 2692.28 4.24633 0.535793 0
M  V30 29717 C 2691.6 5.08306 1.6592 0
M  V30 29718 C 2692.9 5.19665 -0.523953 0
M  V30 29719 H 2694.6 2.93813 -0.575688 0
M  V30 29720 H 2692.14 1.41285 -0.278297 0
M  V30 29721 H 2694.1 3.86556 1.67786 0
M  V30 29722 H 2692.82 2.64571 1.91494 0
M  V30 29723 H 2691.48 3.66576 0.0422115 0
M  V30 29724 H 2691.13 4.42022 2.40053 0
M  V30 29725 H 2690.83 5.74257 1.2451 0
M  V30 29726 H 2692.35 5.70482 2.17676 0
M  V30 29727 H 2693.77 5.73222 -0.0945067 0
M  V30 29728 H 2692.16 5.93933 -0.858105 0
M  V30 29729 H 2693.23 4.63885 -1.41205 0
M  V30 29730 N 2694.58 0.315484 1.5441 0
M  V30 29731 C 2695.85 -0.343364 1.92563 0
M  V30 29732 C 2696.23 -1.70533 1.24426 0
M  V30 29733 O 2695.58 -2.25232 0.385091 0
M  V30 29734 C 2695.79 -0.443626 3.46169 0
M  V30 29735 C 2697.14 -0.707709 4.18661 0
M  V30 29736 O 2698.16 -0.526868 3.52282 0
M  V30 29737 O 2697.02 -1.05603 5.362 0
M  V30 29738 H 2694.12 -0.194538 0.803794 0
M  V30 29739 H 2696.66 0.364606 1.65737 0
M  V30 29740 H 2695.43 0.51324 3.8792 0
M  V30 29741 H 2695.06 -1.19949 3.79075 0
M  V30 29742 N 2696.05 -1.5754 0.0434891 0
M  V30 29743 C 2697 -2.12251 -0.951427 0
M  V30 29744 C 2698 -1.05247 -1.32738 0
M  V30 29745 O 2699.2 -1.23665 -1.30793 0
M  V30 29746 H 2695.58 -0.678309 -0.324656 0
M  V30 29747 H 2697.55 -2.94758 -0.464803 0
M  V30 29748 C 2696.3 -2.6763 -2.21967 0
M  V30 29749 H 2695.62 -3.49623 -1.93917 0
M  V30 29750 H 2697.06 -3.09541 -2.89759 0
M  V30 29751 C 2695.52 -1.61044 -2.95917 0
M  V30 29752 O 2696.05 -1.01869 -3.88569 0
M  V30 29753 N 2694.26 -1.32746 -2.58509 0
M  V30 29754 H 2693.8 -1.81054 -1.83241 0
M  V30 29755 H 2693.76 -0.616586 -3.08295 0
M  V30 29756 N 2697.53 0.229818 -1.55915 0
M  V30 29757 C 2698.44 1.3059 -1.94894 0
M  V30 29758 C 2699.46 1.51734 -0.851631 0
M  V30 29759 O 2700.63 1.65025 -1.1545 0
M  V30 29760 C 2697.7 2.63725 -2.25056 0
M  V30 29761 C 2696.76 2.50954 -3.48311 0
M  V30 29762 C 2695.99 3.7774 -3.77025 0
M  V30 29763 O 2696.22 4.80389 -3.07542 0
M  V30 29764 O 2695.15 3.75348 -4.70529 0
M  V30 29765 H 2698.98 1.0052 -2.86582 0
M  V30 29766 H 2696.56 0.432 -1.43018 0
M  V30 29767 H 2698.44 3.42367 -2.45688 0
M  V30 29768 H 2697.12 2.93492 -1.36543 0
M  V30 29769 H 2696.03 1.7054 -3.32967 0
M  V30 29770 H 2697.36 2.26128 -4.37181 0
M  V30 29771 N 2699.01 1.49585 0.49619 0
M  V30 29772 C 2700.24 1.63031 1.27391 0
M  V30 29773 C 2700.65 0.303601 1.86343 0
M  V30 29774 O 2700.01 -0.711517 1.68059 0
M  V30 29775 C 2700.06 2.70273 2.40072 0
M  V30 29776 O 2699.78 3.97799 1.83542 0
M  V30 29777 C 2701.28 2.94468 3.31366 0
M  V30 29778 H 2698.5 0.548716 0.386201 0
M  V30 29779 H 2701.05 1.95649 0.595129 0
M  V30 29780 H 2699.2 2.4042 3.03771 0
M  V30 29781 H 2699.62 4.5691 2.57553 0
M  V30 29782 H 2701.09 3.73228 4.067 0
M  V30 29783 H 2701.57 2.04567 3.8865 0
M  V30 29784 H 2702.17 3.25756 2.73429 0
M  V30 29785 N 2700.49 -0.747586 1.3874 0
M  V30 29786 C 2701.44 -1.86144 1.36452 0
M  V30 29787 C 2702.41 -1.64554 0.226127 0
M  V30 29788 O 2703.59 -1.86136 0.419293 0
M  V30 29789 C 2700.73 -3.23514 1.20136 0
M  V30 29790 C 2699.84 -3.56895 2.43413 0
M  V30 29791 C 2698.98 -4.83601 2.19781 0
M  V30 29792 C 2698.02 -5.09786 3.38799 0
M  V30 29793 N 2697.15 -6.2769 3.14564 0
M  V30 29794 H 2701.99 -1.87434 2.31673 0
M  V30 29795 H 2699.53 -0.916043 1.15096 0
M  V30 29796 H 2701.49 -4.02793 1.0869 0
M  V30 29797 H 2700.12 -3.21535 0.285509 0
M  V30 29798 H 2699.17 -2.72414 2.65509 0
M  V30 29799 H 2700.48 -3.7217 3.321 0
M  V30 29800 H 2699.64 -5.70835 2.05506 0
M  V30 29801 H 2698.38 -4.70475 1.28469 0
M  V30 29802 H 2697.38 -4.21019 3.53586 0
M  V30 29803 H 2698.61 -5.24805 4.30995 0
M  V30 29804 H 2696.55 -6.15876 2.25904 0
M  V30 29805 H 2696.47 -6.43493 3.96802 0
M  V30 29806 H 2697.74 -7.17796 3.03956 0
M  V30 29807 N 2701.97 -1.23709 -0.97642 0
M  V30 29808 C 2702.88 -1.0386 -2.10357 0
M  V30 29809 C 2703.89 0.0180614 -1.73991 0
M  V30 29810 O 2705.07 -0.178247 -2.0061 0
M  V30 29811 C 2702.13 -0.636447 -3.40808 0
M  V30 29812 C 2701.19 -1.76861 -3.91176 0
M  V30 29813 C 2700.43 -1.38555 -5.15401 0
M  V30 29814 O 2700.65 -0.27152 -5.69753 0
M  V30 29815 O 2699.58 -2.20806 -5.59936 0
M  V30 29816 H 2703.41 -1.98335 -2.29994 0
M  V30 29817 H 2701 -1.0245 -1.0874 0
M  V30 29818 H 2702.88 -0.423296 -4.19269 0
M  V30 29819 H 2701.55 0.279265 -3.22493 0
M  V30 29820 H 2700.46 -2.03643 -3.13816 0
M  V30 29821 H 2701.79 -2.66278 -4.13953 0
M  V30 29822 N 2703.44 1.17579 -1.04943 0
M  V30 29823 C 2704.86 1.3978 -0.770307 0
M  V30 29824 C 2705.06 1.91187 0.636383 0
M  V30 29825 O 2704.12 2.10188 1.39919 0
M  V30 29826 C 2705.43 2.39077 -1.82381 0
M  V30 29827 C 2706.98 2.52788 -1.84573 0
M  V30 29828 C 2707.45 3.55356 -2.88939 0
M  V30 29829 N 2708.94 3.62872 -2.87886 0
M  V30 29830 C 2709.68 4.41986 -3.65289 0
M  V30 29831 N 2709.17 5.24635 -4.5247 0
M  V30 29832 N 2710.97 4.36835 -3.5374 0
M  V30 29833 H 2703.12 0.825403 -1.95706 0
M  V30 29834 H 2705.38 0.425207 -0.847292 0
M  V30 29835 H 2705.09 2.08371 -2.83327 0
M  V30 29836 H 2704.96 3.38546 -1.66333 0
M  V30 29837 H 2707.35 2.82805 -0.842929 0
M  V30 29838 H 2707.43 1.53402 -2.04698 0
M  V30 29839 H 2707.07 3.26078 -3.89404 0
M  V30 29840 H 2707 4.5444 -2.66067 0
M  V30 29841 H 2709.49 3.0386 -2.24671 0
M  V30 29842 H 2709.81 5.82178 -5.08221 0
M  V30 29843 H 2708.15 5.24025 -4.56533 0
M  V30 29844 H 2711.34 3.71318 -2.85027 0
M  V30 29845 H 2711.52 4.98248 -4.1431 0
M  V30 29846 N 2704.92 0.830104 1.33967 0
M  V30 29847 C 2705.85 0.21452 2.28194 0
M  V30 29848 C 2706.87 -0.599725 1.51351 0
M  V30 29849 O 2708.06 -0.42823 1.73287 0
M  V30 29850 C 2705.16 -0.717298 3.31222 0
M  V30 29851 C 2704.33 0.0556899 4.37365 0
M  V30 29852 C 2703.39 -0.79814 5.20112 0
M  V30 29853 O 2702.41 -0.240516 5.68692 0
M  V30 29854 N 2703.62 -2.11685 5.40527 0
M  V30 29855 H 2706.38 1.0241 2.8166 0
M  V30 29856 H 2703.94 0.687739 1.46567 0
M  V30 29857 H 2705.93 -1.29327 3.8348 0
M  V30 29858 H 2704.5 -1.4276 2.78098 0
M  V30 29859 H 2703.72 0.813004 3.85725 0
M  V30 29860 H 2705.01 0.587533 5.05396 0
M  V30 29861 H 2704.41 -2.59354 5.02745 0
M  V30 29862 H 2702.97 -2.64151 5.95875 0
M  V30 29863 N 2706.4 -1.46311 0.585725 0
M  V30 29864 C 2707.36 -2.28798 -0.135633 0
M  V30 29865 C 2708.36 -1.38559 -0.815964 0
M  V30 29866 O 2709.55 -1.60906 -0.667459 0
M  V30 29867 C 2706.69 -3.19022 -1.20158 0
M  V30 29868 H 2707.88 -2.94053 0.589308 0
M  V30 29869 H 2705.43 -1.52472 0.343821 0
M  V30 29870 H 2706.17 -2.58521 -1.958 0
M  V30 29871 H 2705.95 -3.85466 -0.718214 0
M  V30 29872 H 2707.44 -3.81099 -1.70743 0
M  V30 29873 N 2707.88 -0.323668 -1.54241 0
M  V30 29874 C 2708.84 0.529563 -2.22998 0
M  V30 29875 C 2709.84 1.04345 -1.22347 0
M  V30 29876 O 2711.03 0.935863 -1.46926 0
M  V30 29877 C 2708.16 1.73557 -2.93412 0
M  V30 29878 H 2709.36 -0.0715045 -2.99815 0
M  V30 29879 H 2706.91 -0.0747533 -1.56121 0
M  V30 29880 H 2707.65 2.37587 -2.20733 0
M  V30 29881 H 2707.43 1.37449 -3.67219 0
M  V30 29882 H 2708.92 2.34122 -3.45799 0
M  V30 29883 N 2709.36 1.57515 -0.0518432 0
M  V30 29884 C 2710.6 1.94588 0.625678 0
M  V30 29885 C 2710.96 0.930082 1.67969 0
M  V30 29886 O 2712.16 1.18778 2.41133 0
M  V30 29887 C 2710.43 3.36449 1.20568 0
M  V30 29888 S 2711.99 3.95478 1.90111 0
M  V30 29889 H 2708.81 0.680678 0.205422 0
M  V30 29890 H 2711.41 1.95126 -0.12094 0
M  V30 29891 H 2710.12 4.08178 0.42645 0
M  V30 29892 H 2709.65 3.39409 1.9891 0
M  V30 29893 H 2711.66 3.80759 3.18178 0
M  V30 29894 N 2710.84 -0.221546 1.56035 0
M  V30 29895 C 2711.78 -1.27456 1.92415 0
M  V30 29896 C 2712.75 -1.46575 0.781349 0
M  V30 29897 O 2713.94 -1.60143 1.03724 0
M  V30 29898 C 2711.08 -2.61991 2.24622 0
M  V30 29899 C 2710.19 -2.5067 3.51836 0
M  V30 29900 C 2709.33 -3.77729 3.73489 0
M  V30 29901 C 2708.36 -3.61131 4.94217 0
M  V30 29902 N 2707.5 -4.80139 5.1226 0
M  V30 29903 H 2712.34 -0.957306 2.82205 0
M  V30 29904 H 2709.88 -0.46139 1.39677 0
M  V30 29905 H 2711.84 -3.40335 2.41304 0
M  V30 29906 H 2710.47 -2.91812 1.38005 0
M  V30 29907 H 2709.52 -1.63761 3.43346 0
M  V30 29908 H 2710.83 -2.34327 4.40332 0
M  V30 29909 H 2709.98 -4.64516 3.90268 0
M  V30 29910 H 2708.72 -3.96998 2.83273 0
M  V30 29911 H 2707.73 -2.72728 4.77388 0
M  V30 29912 H 2708.95 -3.43332 5.85918 0
M  V30 29913 H 2706.9 -4.99722 4.24987 0
M  V30 29914 H 2706.82 -4.66522 5.94889 0
M  V30 29915 H 2708.08 -5.68353 5.33475 0
M  V30 29916 N 2712.31 -1.49846 -0.48825 0
M  V30 29917 C 2713.25 -1.63587 -1.60536 0
M  V30 29918 C 2714.26 -0.517999 -1.54339 0
M  V30 29919 O 2715.45 -0.790544 -1.6004 0
M  V30 29920 C 2712.55 -1.5884 -2.99371 0
M  V30 29921 C 2711.72 -2.86374 -3.30619 0
M  V30 29922 C 2710.78 -2.74504 -4.48925 0
M  V30 29923 O 2709.81 -3.48451 -4.50078 0
M  V30 29924 N 2711.01 -1.86904 -5.49588 0
M  V30 29925 H 2713.77 -2.59938 -1.49171 0
M  V30 29926 H 2711.33 -1.47095 -0.676365 0
M  V30 29927 H 2713.33 -1.48536 -3.76456 0
M  V30 29928 H 2711.9 -0.702946 -3.04594 0
M  V30 29929 H 2711.12 -3.10934 -2.42309 0
M  V30 29930 H 2712.4 -3.70898 -3.48299 0
M  V30 29931 H 2711.8 -1.26107 -5.51465 0
M  V30 29932 H 2710.36 -1.82514 -6.25725 0
M  V30 29933 N 2713.79 0.740218 -1.39135 0
M  V30 29934 C 2715.04 1.50189 -1.36276 0
M  V30 29935 C 2715.37 1.94152 0.0429794 0
M  V30 29936 O 2714.65 1.6641 1.00688 0
M  V30 29937 C 2714.93 2.74521 -2.33046 0
M  V30 29938 C 2714.78 2.3661 -3.82539 0
M  V30 29939 C 2716.1 3.766 -2.27729 0
M  V30 29940 H 2713.22 0.544814 -0.496333 0
M  V30 29941 H 2715.86 0.846785 -1.70087 0
M  V30 29942 H 2714.01 3.30418 -2.04343 0
M  V30 29943 H 2715.68 1.86384 -4.2197 0
M  V30 29944 H 2713.93 1.68902 -3.99568 0
M  V30 29945 H 2714.6 3.25622 -4.45729 0
M  V30 29946 H 2717.07 3.30274 -2.53097 0
M  V30 29947 H 2715.95 4.61268 -2.97528 0
M  V30 29948 H 2716.21 4.23148 -1.28057 0
M  V30 29949 N 2715.27 1.24225 0.969846 0
M  V30 29950 C 2716.69 1.00718 1.23807 0
M  V30 29951 C 2716.89 -0.285323 1.9947 0
M  V30 29952 O 2715.94 -1.00203 2.31766 0
M  V30 29953 C 2717.25 2.22083 2.0273 0
M  V30 29954 C 2718.8 2.26685 2.1583 0
M  V30 29955 C 2719.28 3.47666 2.98148 0
M  V30 29956 N 2720.77 3.4797 3.05731 0
M  V30 29957 C 2721.5 4.38238 3.69777 0
M  V30 29958 N 2721 5.38758 4.3556 0
M  V30 29959 N 2722.79 4.25955 3.66768 0
M  V30 29960 H 2714.94 2.07286 0.463257 0
M  V30 29961 H 2717.21 0.909526 0.267332 0
M  V30 29962 H 2716.91 3.15938 1.54519 0
M  V30 29963 H 2716.79 2.24027 3.03466 0
M  V30 29964 H 2719.17 1.33363 2.63246 0
M  V30 29965 H 2719.25 2.28769 1.14449 0
M  V30 29966 H 2718.9 4.41301 2.51427 0
M  V30 29967 H 2718.83 3.42825 3.99723 0
M  V30 29968 H 2721.32 2.75247 2.58936 0
M  V30 29969 H 2721.63 6.03874 4.82241 0
M  V30 29970 H 2719.98 5.42646 4.34235 0
M  V30 29971 H 2723.17 3.46662 3.14552 0
M  V30 29972 H 2723.34 4.96504 4.16398 0
M  V30 29973 N 2716.75 -1.1702 1.05565 0
M  V30 29974 C 2718.16 -1.39369 0.777709 0
M  V30 29975 C 2718.36 -1.91522 -0.626235 0
M  V30 29976 O 2717.42 -2.10927 -1.38803 0
M  V30 29977 C 2718.73 -2.38106 1.83646 0
M  V30 29978 C 2720.28 -2.51805 1.85911 0
M  V30 29979 C 2720.76 -3.53819 2.9082 0
M  V30 29980 N 2722.25 -3.6134 2.89806 0
M  V30 29981 C 2722.98 -4.40042 3.67628 0
M  V30 29982 N 2722.48 -5.22229 4.55246 0
M  V30 29983 N 2724.27 -4.34952 3.56052 0
M  V30 29984 H 2716.42 -0.815013 1.96141 0
M  V30 29985 H 2718.68 -0.420707 0.849535 0
M  V30 29986 H 2718.39 -2.06866 2.84428 0
M  V30 29987 H 2718.26 -3.37659 1.68126 0
M  V30 29988 H 2720.65 -2.82354 0.857915 0
M  V30 29989 H 2720.73 -1.52314 2.05509 0
M  V30 29990 H 2720.38 -3.24008 3.91128 0
M  V30 29991 H 2720.31 -4.53023 2.68473 0
M  V30 29992 H 2722.8 -3.02665 2.2628 0
M  V30 29993 H 2723.11 -5.79475 5.11301 0
M  V30 29994 H 2721.46 -5.21597 4.59306 0
M  V30 29995 H 2724.65 -3.69801 2.86992 0
M  V30 29996 H 2724.82 -4.96044 4.16947 0
M  V30 29997 N 2718.23 -0.837197 -1.33524 0
M  V30 29998 C 2719.45 -0.44553 -2.02046 0
M  V30 29999 C 2719.87 0.952759 -1.62997 0
M  V30 30000 O 2719.23 1.61891 -0.842475 0
M  V30 30001 C 2719.28 -0.554639 -3.5722 0
M  V30 30002 O 2719 -1.89783 -3.94859 0
M  V30 30003 C 2720.5 -0.159711 -4.43012 0
M  V30 30004 H 2717.72 -0.177059 -0.647218 0
M  V30 30005 H 2720.26 -1.12931 -1.7049 0
M  V30 30006 H 2718.42 0.08121 -3.87315 0
M  V30 30007 H 2718.83 -1.88217 -4.89566 0
M  V30 30008 H 2720.31 -0.287107 -5.51253 0
M  V30 30009 H 2720.78 0.898213 -4.29917 0
M  V30 30010 H 2721.39 -0.769929 -4.18273 0
M  V30 30011 N 2719.7 1.45999 -0.593476 0
M  V30 30012 C 2720.61 2.34207 0.135776 0
M  V30 30013 C 2721.63 1.504 0.874982 0
M  V30 30014 O 2722.81 1.83241 0.835746 0
M  V30 30015 C 2719.87 3.27778 1.12971 0
M  V30 30016 C 2718.93 4.27488 0.394006 0
M  V30 30017 C 2718.16 5.16589 1.34059 0
M  V30 30018 O 2718.39 5.08832 2.57771 0
M  V30 30019 O 2717.32 5.95934 0.845322 0
M  V30 30020 H 2721.15 2.97939 -0.588743 0
M  V30 30021 H 2718.73 1.4515 -0.35381 0
M  V30 30022 H 2720.61 3.85476 1.70254 0
M  V30 30023 H 2719.29 2.66628 1.83551 0
M  V30 30024 H 2718.2 3.73447 -0.220934 0
M  V30 30025 H 2719.53 4.91453 -0.271026 0
M  V30 30026 N 2721.18 0.331843 1.54067 0
M  V30 30027 C 2722.13 -0.530332 2.24624 0
M  V30 30028 C 2723.1 -1.10501 1.24011 0
M  V30 30029 O 2724.28 -1.14381 1.52714 0
M  V30 30030 C 2721.42 -1.68124 3.01377 0
M  V30 30031 C 2720.54 -1.135 4.16823 0
M  V30 30032 C 2719.67 -2.25226 4.81089 0
M  V30 30033 C 2718.71 -1.67893 5.88624 0
M  V30 30034 N 2717.85 -2.73315 6.46717 0
M  V30 30035 H 2722.69 0.077913 2.97898 0
M  V30 30036 H 2720.23 0.0502224 1.47014 0
M  V30 30037 H 2722.18 -2.35862 3.44129 0
M  V30 30038 H 2720.81 -2.26065 2.30423 0
M  V30 30039 H 2719.87 -0.348913 3.78796 0
M  V30 30040 H 2721.18 -0.675546 4.94204 0
M  V30 30041 H 2720.33 -3.00852 5.26852 0
M  V30 30042 H 2719.07 -2.74511 4.03107 0
M  V30 30043 H 2718.08 -0.907678 5.42256 0
M  V30 30044 H 2719.3 -1.19475 6.68508 0
M  V30 30045 H 2717.25 -3.21876 5.71605 0
M  V30 30046 H 2717.16 -2.31957 7.19536 0
M  V30 30047 H 2718.43 -3.48745 6.97135 0
M  V30 30048 N 2722.66 -1.57485 0.0601958 0
M  V30 30049 C 2723.61 -2.12056 -0.911082 0
M  V30 30050 C 2724.58 -1.03016 -1.30296 0
M  V30 30051 O 2725.76 -1.30614 -1.39085 0
M  V30 30052 C 2722.9 -2.67733 -2.17746 0
M  V30 30053 C 2722.02 -3.9089 -1.83926 0
M  V30 30054 C 2721.15 -4.3485 -3.05088 0
M  V30 30055 C 2720.19 -5.50685 -2.67232 0
M  V30 30056 N 2719.33 -5.89656 -3.81116 0
M  V30 30057 H 2724.17 -2.94751 -0.438829 0
M  V30 30058 H 2721.7 -1.45665 -0.20497 0
M  V30 30059 H 2723.66 -2.98116 -2.91861 0
M  V30 30060 H 2722.29 -1.87821 -2.62532 0
M  V30 30061 H 2721.34 -3.67042 -0.999223 0
M  V30 30062 H 2722.66 -4.75055 -1.52066 0
M  V30 30063 H 2721.81 -4.66834 -3.87494 0
M  V30 30064 H 2720.55 -3.49515 -3.40133 0
M  V30 30065 H 2719.55 -5.18364 -1.83245 0
M  V30 30066 H 2720.78 -6.37743 -2.33369 0
M  V30 30067 H 2718.72 -5.07273 -4.15945 0
M  V30 30068 H 2718.64 -6.68534 -3.52985 0
M  V30 30069 H 2719.91 -6.26258 -4.64134 0
M  V30 30070 N 2724.14 0.213268 -1.5615 0
M  V30 30071 C 2725.07 1.26738 -1.96111 0
M  V30 30072 C 2726.05 1.48449 -0.830475 0
M  V30 30073 O 2727.23 1.60493 -1.09342 0
M  V30 30074 C 2724.36 2.61547 -2.28497 0
M  V30 30075 C 2723.32 2.54479 -3.44129 0
M  V30 30076 C 2722.64 3.93393 -3.62141 0
M  V30 30077 C 2723.94 2.08548 -4.78858 0
M  V30 30078 H 2725.64 0.935384 -2.84413 0
M  V30 30079 H 2723.18 0.448516 -1.36837 0
M  V30 30080 H 2725.14 3.35455 -2.55045 0
M  V30 30081 H 2723.86 2.96451 -1.37057 0
M  V30 30082 H 2722.52 1.83027 -3.17642 0
M  V30 30083 H 2722.17 4.25619 -2.68063 0
M  V30 30084 H 2721.87 3.89544 -4.3992 0
M  V30 30085 H 2723.39 4.68951 -3.91046 0
M  V30 30086 H 2724.81 2.72204 -5.04557 0
M  V30 30087 H 2723.2 2.1574 -5.59979 0
M  V30 30088 H 2724.27 1.03802 -4.73659 0
M  V30 30089 N 2725.62 1.50103 0.480296 0
M  V30 30090 C 2726.56 1.68293 1.57943 0
M  V30 30091 C 2727.53 0.524251 1.5761 0
M  V30 30092 O 2728.72 0.75374 1.75281 0
M  V30 30093 C 2725.86 1.77462 2.95975 0
M  V30 30094 C 2724.97 3.04771 3.06167 0
M  V30 30095 C 2724.11 3.04792 4.35058 0
M  V30 30096 C 2723.15 4.26593 4.38958 0
M  V30 30097 N 2722.28 4.24406 5.59307 0
M  V30 30098 H 2727.12 2.62134 1.41738 0
M  V30 30099 H 2724.66 1.29951 0.689281 0
M  V30 30100 H 2726.62 1.80759 3.76008 0
M  V30 30101 H 2725.25 0.870691 3.10836 0
M  V30 30102 H 2724.3 3.10989 2.19066 0
M  V30 30103 H 2725.61 3.94756 3.04909 0
M  V30 30104 H 2724.77 3.06767 5.2343 0
M  V30 30105 H 2723.5 2.12622 4.38912 0
M  V30 30106 H 2722.51 4.24841 3.48985 0
M  V30 30107 H 2723.73 5.1998 4.36804 0
M  V30 30108 H 2721.68 3.35084 5.63963 0
M  V30 30109 H 2721.6 5.08148 5.59751 0
M  V30 30110 H 2722.87 4.30513 6.4983 0
M  V30 30111 N 2727.09 -0.732829 1.39526 0
M  V30 30112 C 2728.37 -1.48441 1.27376 0
M  V30 30113 C 2728.75 -2.10783 -0.115688 0
M  V30 30114 O 2728.1 -1.98768 -1.12709 0
M  V30 30115 C 2728.31 -2.53407 2.3997 0
M  V30 30116 C 2729.66 -3.19729 2.7939 0
M  V30 30117 O 2730.68 -2.63721 2.39436 0
M  V30 30118 O 2729.54 -4.21079 3.4836 0
M  V30 30119 H 2726.63 -0.659276 0.499283 0
M  V30 30120 H 2729.18 -0.766469 1.51405 0
M  V30 30121 H 2727.95 -2.05736 3.32849 0
M  V30 30122 H 2727.58 -3.32758 2.17618 0
M  V30 30123 N 2728.57 -1.24737 -0.963244 0
M  V30 30124 C 2729.82 -1.09134 -1.70931 0
M  V30 30125 C 2730.15 0.368239 -1.90677 0
M  V30 30126 O 2729.43 1.2719 -1.47149 0
M  V30 30127 C 2729.71 -1.83664 -3.09741 0
M  V30 30128 C 2729.56 -3.37399 -2.97459 0
M  V30 30129 C 2730.88 -1.61289 -4.0948 0
M  V30 30130 H 2728 -0.397849 -0.620391 0
M  V30 30131 H 2730.64 -1.53461 -1.12025 0
M  V30 30132 H 2728.79 -1.45986 -3.60028 0
M  V30 30133 H 2730.46 -3.84701 -2.54564 0
M  V30 30134 H 2728.71 -3.65551 -2.3357 0
M  V30 30135 H 2729.38 -3.84752 -3.95815 0
M  V30 30136 H 2731.85 -1.94073 -3.68069 0
M  V30 30137 H 2730.73 -2.15886 -5.04662 0
M  V30 30138 H 2730.99 -0.552179 -4.38638 0
M  V30 30139 N 2730.05 1.16459 -1.06184 0
M  V30 30140 C 2730.98 2.22982 -0.6929 0
M  V30 30141 C 2731.96 1.67175 0.314092 0
M  V30 30142 O 2733.15 1.93274 0.189465 0
M  V30 30143 C 2730.28 3.47214 -0.077381 0
M  V30 30144 C 2729.23 4.15907 -1.01023 0
M  V30 30145 C 2728.56 5.34077 -0.258067 0
M  V30 30146 C 2729.86 4.67011 -2.33876 0
M  V30 30147 H 2731.55 2.54099 -1.58347 0
M  V30 30148 H 2729.1 1.22136 -0.762812 0
M  V30 30149 H 2731.05 4.2096 0.192586 0
M  V30 30150 H 2729.77 3.15394 0.848199 0
M  V30 30151 H 2728.43 3.44086 -1.26492 0
M  V30 30152 H 2728.08 4.9851 0.670596 0
M  V30 30153 H 2727.78 5.80977 -0.87974 0
M  V30 30154 H 2729.3 6.106 0.00438055 0
M  V30 30155 H 2730.72 5.32343 -2.12799 0
M  V30 30156 H 2729.12 5.24528 -2.91531 0
M  V30 30157 H 2730.19 3.8328 -2.97025 0
M  V30 30158 N 2731.53 0.844266 1.33079 0
M  V30 30159 C 2732.46 0.296533 2.31609 0
M  V30 30160 C 2733.44 -0.598679 1.59216 0
M  V30 30161 O 2734.62 -0.521101 1.87078 0
M  V30 30162 C 2731.75 -0.524702 3.43314 0
M  V30 30163 C 2730.71 0.275181 4.27114 0
M  V30 30164 C 2730.03 -0.670143 5.30484 0
M  V30 30165 C 2731.33 1.49522 5.0044 0
M  V30 30166 H 2733.03 1.11981 2.7767 0
M  V30 30167 H 2730.57 0.539923 1.33495 0
M  V30 30168 H 2732.53 -0.918226 4.11274 0
M  V30 30169 H 2731.25 -1.38124 2.95955 0
M  V30 30170 H 2729.91 0.65033 3.60786 0
M  V30 30171 H 2729.56 -1.52324 4.79381 0
M  V30 30172 H 2729.26 -0.13902 5.87436 0
M  V30 30173 H 2730.78 -1.06107 6.0131 0
M  V30 30174 H 2732.2 1.17456 5.61139 0
M  V30 30175 H 2730.59 1.96353 5.67068 0
M  V30 30176 H 2731.66 2.2621 4.28902 0
M  V30 30177 N 2733.01 -1.45682 0.60121 0
M  V30 30178 C 2733.94 -2.28645 -0.159405 0
M  V30 30179 C 2734.95 -1.39584 -0.837858 0
M  V30 30180 O 2736.14 -1.64017 -0.704316 0
M  V30 30181 C 2733.24 -3.15149 -1.24636 0
M  V30 30182 C 2732.41 -4.32449 -0.656258 0
M  V30 30183 C 2731.47 -5.0021 -1.63328 0
M  V30 30184 O 2730.5 -5.57211 -1.16207 0
M  V30 30185 N 2731.7 -4.9891 -2.96764 0
M  V30 30186 H 2734.47 -2.94564 0.552452 0
M  V30 30187 H 2732.03 -1.55799 0.44025 0
M  V30 30188 H 2734.02 -3.57346 -1.89964 0
M  V30 30189 H 2732.59 -2.51182 -1.86082 0
M  V30 30190 H 2731.81 -3.93812 0.174949 0
M  V30 30191 H 2733.1 -5.08224 -0.242122 0
M  V30 30192 H 2732.49 -4.53879 -3.37654 0
M  V30 30193 H 2731.05 -5.4499 -3.57532 0
M  V30 30194 N 2734.48 -0.340009 -1.53889 0
M  V30 30195 C 2735.73 0.257967 -2.01153 0
M  V30 30196 C 2736.06 1.50485 -1.22752 0
M  V30 30197 O 2735.34 1.91946 -0.314189 0
M  V30 30198 C 2735.62 0.575654 -3.55469 0
M  V30 30199 C 2735.47 -0.683074 -4.44583 0
M  V30 30200 C 2736.79 1.3867 -4.17683 0
M  V30 30201 H 2733.91 0.0922863 -0.731199 0
M  V30 30202 H 2736.55 -0.459846 -1.84351 0
M  V30 30203 H 2734.7 1.18718 -3.69917 0
M  V30 30204 H 2736.38 -1.32109 -4.41978 0
M  V30 30205 H 2734.62 -1.30868 -4.13589 0
M  V30 30206 H 2735.29 -0.416098 -5.50429 0
M  V30 30207 H 2737.77 0.869633 -4.06911 0
M  V30 30208 H 2736.64 1.57773 -5.25736 0
M  V30 30209 H 2736.9 2.38775 -3.72074 0
M  V30 30210 N 2735.96 1.57451 -0.0685468 0
M  V30 30211 C 2737.24 1.84759 0.642134 0
M  V30 30212 C 2737.62 0.960377 1.87989 0
M  V30 30213 O 2736.97 0.0258296 2.28485 0
M  V30 30214 C 2737.18 3.34874 0.982888 0
M  V30 30215 C 2738.53 4.02306 1.35777 0
M  V30 30216 O 2739.55 3.396 1.07471 0
M  V30 30217 O 2738.41 5.12899 1.88672 0
M  V30 30218 H 2735.5 0.763161 0.318612 0
M  V30 30219 H 2738.05 1.6941 -0.0992313 0
M  V30 30220 H 2736.82 3.91163 0.103652 0
M  V30 30221 H 2736.44 3.55474 1.78112 0
M  V30 30222 N 2737.44 -0.204984 1.56261 0
M  V30 30223 C 2738.72 -0.952203 1.70858 0
M  V30 30224 C 2739.1 -2.01774 0.620536 0
M  V30 30225 O 2738.45 -2.25485 -0.369995 0
M  V30 30226 C 2738.66 -1.54761 3.1281 0
M  V30 30227 C 2740 -2.03354 3.72736 0
M  V30 30228 O 2741.03 -1.64623 3.15876 0
M  V30 30229 O 2739.89 -2.74592 4.72506 0
M  V30 30230 H 2736.98 -0.445883 0.696504 0
M  V30 30231 H 2739.53 -0.19546 1.68571 0
M  V30 30232 H 2738.3 -0.779064 3.83466 0
M  V30 30233 H 2737.92 -2.36946 3.19284 0
M  V30 30234 N 2738.92 -1.50356 -0.472329 0
M  V30 30235 C 2739.83 -1.71913 -1.59634 0
M  V30 30236 C 2740.85 -0.602224 -1.63246 0
M  V30 30237 O 2742.02 -0.880401 -1.81138 0
M  V30 30238 C 2739.09 -1.80748 -2.95857 0
M  V30 30239 C 2738.15 -3.04476 -3.02643 0
M  V30 30240 C 2737.38 -3.12879 -4.32368 0
M  V30 30241 O 2737.6 -2.28108 -5.22803 0
M  V30 30242 O 2736.54 -4.05595 -4.44721 0
M  V30 30243 H 2740.36 -2.67192 -1.44369 0
M  V30 30244 H 2737.95 -1.34437 -0.651694 0
M  V30 30245 H 2739.83 -1.88746 -3.76767 0
M  V30 30246 H 2738.51 -0.886524 -3.11324 0
M  V30 30247 H 2737.41 -3.01979 -2.20816 0
M  V30 30248 H 2738.75 -3.96145 -2.92112 0
M  V30 30249 N 2740.4 0.725419 -1.39912 0
M  V30 30250 C 2741.81 1.03222 -1.21726 0
M  V30 30251 C 2742.01 2.01318 -0.0855578 0
M  V30 30252 O 2741.07 2.46218 0.559717 0
M  V30 30253 C 2742.38 1.58534 -2.55514 0
M  V30 30254 C 2743.93 1.70568 -2.62442 0
M  V30 30255 C 2744.41 2.29287 -3.96474 0
M  V30 30256 N 2745.9 2.36685 -3.98164 0
M  V30 30257 C 2746.63 2.8308 -4.98652 0
M  V30 30258 N 2746.13 3.29299 -6.09536 0
M  V30 30259 N 2747.92 2.82375 -4.86025 0
M  V30 30260 H 2740.07 0.0750107 -2.12268 0
M  V30 30261 H 2742.33 0.0958901 -0.943138 0
M  V30 30262 H 2742.04 0.93919 -3.38928 0
M  V30 30263 H 2741.91 2.57203 -2.7591 0
M  V30 30264 H 2744.3 2.34303 -1.79405 0
M  V30 30265 H 2744.38 0.705254 -2.45886 0
M  V30 30266 H 2744.03 1.66177 -4.79945 0
M  V30 30267 H 2743.96 3.30025 -4.10355 0
M  V30 30268 H 2746.45 2.0403 -3.18088 0
M  V30 30269 H 2746.76 3.63238 -6.82113 0
M  V30 30270 H 2745.11 3.27283 -6.13116 0
M  V30 30271 H 2748.3 2.45596 -3.98497 0
M  V30 30272 H 2748.47 3.18216 -5.64484 0
M  V30 30273 N 2741.88 1.25246 0.956615 0
M  V30 30274 C 2743.29 1.02025 1.22732 0
M  V30 30275 C 2743.49 -0.264151 1.99761 0
M  V30 30276 O 2742.55 -0.977395 2.32816 0
M  V30 30277 C 2743.86 2.24221 2.00363 0
M  V30 30278 C 2745.41 2.28962 2.13414 0
M  V30 30279 C 2745.88 3.50809 2.94444 0
M  V30 30280 N 2747.37 3.51193 3.02023 0
M  V30 30281 C 2748.11 4.42135 3.65108 0
M  V30 30282 N 2747.61 5.43347 4.29821 0
M  V30 30283 N 2749.4 4.29821 3.62229 0
M  V30 30284 H 2741.55 2.07766 0.441246 0
M  V30 30285 H 2743.81 0.91231 0.25767 0
M  V30 30286 H 2743.52 3.17559 1.51159 0
M  V30 30287 H 2743.39 2.27233 3.01073 0
M  V30 30288 H 2745.78 1.36148 2.61816 0
M  V30 30289 H 2745.86 2.2997 1.12016 0
M  V30 30290 H 2745.5 4.43943 2.46733 0
M  V30 30291 H 2745.43 3.47046 3.96064 0
M  V30 30292 H 2747.93 2.77977 2.56002 0
M  V30 30293 H 2748.24 6.08955 4.75809 0
M  V30 30294 H 2746.58 5.47221 4.28455 0
M  V30 30295 H 2749.77 3.49979 3.10857 0
M  V30 30296 H 2749.95 5.00893 4.11109 0
M  V30 30297 N 2743.35 -1.15894 1.068 0
M  V30 30298 C 2744.3 -2.22513 0.677565 0
M  V30 30299 C 2745.3 -1.66559 -0.308964 0
M  V30 30300 O 2746.5 -1.79164 -0.173277 0
M  V30 30301 H 2742.88 -0.724638 0.201007 0
M  V30 30302 H 2744.85 -2.52728 1.58654 0
M  V30 30303 C 2743.6 -3.47595 0.0854764 0
M  V30 30304 H 2742.92 -3.90968 0.835713 0
M  V30 30305 H 2744.36 -4.23734 -0.150125 0
M  V30 30306 C 2742.82 -3.15845 -1.17234 0
M  V30 30307 O 2743.35 -3.32123 -2.25959 0
M  V30 30308 N 2741.55 -2.69933 -1.07631 0
M  V30 30309 H 2741.1 -2.56887 -0.191514 0
M  V30 30310 H 2741.06 -2.49063 -1.91872 0
M  V30 30311 N 2744.83 -0.851312 -1.32629 0
M  V30 30312 C 2745.79 -0.298581 -2.27247 0
M  V30 30313 C 2746.79 0.53982 -1.51468 0
M  V30 30314 O 2747.98 0.351813 -1.7061 0
M  V30 30315 C 2745.12 0.577945 -3.35965 0
M  V30 30316 H 2746.31 -1.13364 -2.77648 0
M  V30 30317 H 2743.86 -0.62538 -1.43243 0
M  V30 30318 H 2744.6 1.43495 -2.90826 0
M  V30 30319 H 2744.38 -0.0221229 -3.92094 0
M  V30 30320 H 2745.87 0.957554 -4.06473 0
M  V30 30321 N 2746.31 1.45361 -0.608928 0
M  V30 30322 C 2747.22 2.34338 0.110928 0
M  V30 30323 C 2748.24 1.51319 0.858981 0
M  V30 30324 O 2749.41 1.84117 0.816264 0
M  V30 30325 C 2746.48 3.28958 1.09488 0
M  V30 30326 C 2745.54 4.27882 0.348643 0
M  V30 30327 C 2744.77 5.17981 1.28573 0
M  V30 30328 O 2744.99 5.11538 2.5236 0
M  V30 30329 O 2743.93 5.96798 0.782067 0
M  V30 30330 H 2747.75 2.97298 -0.62031 0
M  V30 30331 H 2745.34 1.44767 -0.369185 0
M  V30 30332 H 2747.22 3.8726 1.66156 0
M  V30 30333 H 2745.9 2.6856 1.80713 0
M  V30 30334 H 2744.8 3.73192 -0.260531 0
M  V30 30335 H 2746.14 4.91138 -0.323135 0
M  V30 30336 N 2747.79 0.348166 1.53706 0
M  V30 30337 C 2748.72 -0.540907 2.22726 0
M  V30 30338 C 2749.73 -1.06025 1.23541 0
M  V30 30339 O 2750.92 -0.969614 1.49869 0
M  V30 30340 C 2748.02 -1.75763 2.8976 0
M  V30 30341 C 2747.19 -1.37278 4.15299 0
M  V30 30342 C 2746.25 -2.44967 4.65701 0
M  V30 30343 O 2745.28 -2.08082 5.29802 0
M  V30 30344 N 2746.48 -3.76292 4.42023 0
M  V30 30345 H 2749.25 0.0502119 2.99658 0
M  V30 30346 H 2746.81 0.172508 1.60978 0
M  V30 30347 H 2748.8 -2.47247 3.20392 0
M  V30 30348 H 2747.37 -2.25601 2.16386 0
M  V30 30349 H 2746.59 -0.488515 3.91161 0
M  V30 30350 H 2747.88 -1.0917 4.9695 0
M  V30 30351 H 2747.28 -4.09044 3.90768 0
M  V30 30352 H 2745.83 -4.43932 4.7725 0
M  V30 30353 N 2749.27 -1.57412 0.0768958 0
M  V30 30354 C 2750.5 -1.97724 -0.599065 0
M  V30 30355 C 2750.9 -0.954195 -1.63376 0
M  V30 30356 O 2750.25 0.0668383 -1.83578 0
M  V30 30357 C 2750.31 -3.34361 -1.32073 0
M  V30 30358 C 2749.97 -4.54887 -0.438905 0
M  V30 30359 C 2750.97 -5.19001 0.305583 0
M  V30 30360 C 2748.65 -5.00992 -0.36229 0
M  V30 30361 C 2750.65 -6.27574 1.11486 0
M  V30 30362 C 2748.34 -6.09436 0.450651 0
M  V30 30363 C 2749.33 -6.72591 1.18789 0
M  V30 30364 O 2749.02 -7.78946 1.98741 0
M  V30 30365 H 2748.75 -0.65512 -0.166714 0
M  V30 30366 H 2751.31 -2.04871 0.147373 0
M  V30 30367 H 2749.54 -3.23843 -2.11335 0
M  V30 30368 H 2751.23 -3.59243 -1.88943 0
M  V30 30369 H 2751.99 -4.84324 0.256015 0
M  V30 30370 H 2747.87 -4.51609 -0.925753 0
M  V30 30371 H 2751.42 -6.768 1.69079 0
M  V30 30372 H 2747.31 -6.43547 0.501764 0
M  V30 30373 H 2748.08 -7.95848 1.91228 0
M  V30 30374 N 2750.74 0.196695 -1.56368 0
M  V30 30375 C 2751.69 1.24378 -1.94419 0
M  V30 30376 C 2752.66 1.45313 -0.804569 0
M  V30 30377 O 2753.85 1.58473 -1.06259 0
M  V30 30378 C 2750.99 2.58384 -2.28761 0
M  V30 30379 C 2750.1 2.45041 -3.55779 0
M  V30 30380 C 2749.23 3.71739 -3.79451 0
M  V30 30381 C 2748.27 3.53223 -4.999 0
M  V30 30382 N 2747.41 4.71929 -5.19834 0
M  V30 30383 H 2752.25 0.912288 -2.83692 0
M  V30 30384 H 2749.79 0.43911 -1.40393 0
M  V30 30385 H 2751.75 3.36453 -2.46688 0
M  V30 30386 H 2750.38 2.8958 -1.4263 0
M  V30 30387 H 2749.43 1.58278 -3.45908 0
M  V30 30388 H 2750.74 2.27292 -4.44004 0
M  V30 30389 H 2749.89 4.58249 -3.97609 0
M  V30 30390 H 2748.63 3.92441 -2.89553 0
M  V30 30391 H 2747.64 2.65098 -4.81667 0
M  V30 30392 H 2748.86 3.33968 -5.91306 0
M  V30 30393 H 2746.81 4.92897 -4.32884 0
M  V30 30394 H 2746.73 4.56999 -6.02236 0
M  V30 30395 H 2747.99 5.59794 -5.42449 0
M  V30 30396 N 2752.22 1.50604 0.464349 0
M  V30 30397 C 2753.5 1.52452 1.22547 0
M  V30 30398 C 2753.88 0.273072 2.09326 0
M  V30 30399 O 2753.23 -0.743204 2.16076 0
M  V30 30400 C 2753.44 2.82397 2.05069 0
M  V30 30401 C 2754.79 3.33317 2.6303 0
M  V30 30402 O 2755.81 2.83764 2.15305 0
M  V30 30403 O 2754.67 4.19715 3.50003 0
M  V30 30404 H 2751.76 0.611785 0.55646 0
M  V30 30405 H 2754.31 1.62899 0.47562 0
M  V30 30406 H 2753.08 3.6495 1.41163 0
M  V30 30407 H 2752.7 2.74985 2.87174 0
M  V30 30408 N 2753.7 -0.717989 1.40295 0
M  V30 30409 C 2754.63 -1.84281 1.36284 0
M  V30 30410 C 2755.65 -1.60568 0.26865 0
M  V30 30411 O 2756.83 -1.70487 0.528827 0
M  V30 30412 C 2753.93 -3.20638 1.09747 0
M  V30 30413 C 2753.11 -3.71567 2.30774 0
M  V30 30414 C 2752.17 -4.86532 2.00433 0
M  V30 30415 O 2751.19 -4.99308 2.73277 0
M  V30 30416 N 2752.39 -5.72154 0.980825 0
M  V30 30417 H 2755.16 -1.88221 2.33223 0
M  V30 30418 H 2752.72 -0.899429 1.34618 0
M  V30 30419 H 2754.71 -3.95141 0.874391 0
M  V30 30420 H 2753.28 -3.11861 0.214826 0
M  V30 30421 H 2752.5 -2.88223 2.68926 0
M  V30 30422 H 2753.79 -4.02329 3.11462 0
M  V30 30423 H 2753.19 -5.64439 0.377474 0
M  V30 30424 H 2751.75 -6.46651 0.817651 0
M  V30 30425 N 2755.18 -1.25752 -0.94996 0
M  V30 30426 C 2756.14 -1.06618 -2.02892 0
M  V30 30427 C 2757.14 -0.0174188 -1.60791 0
M  V30 30428 O 2758.33 -0.260033 -1.72248 0
M  V30 30429 C 2755.46 -0.61981 -3.35218 0
M  V30 30430 H 2756.66 -2.02403 -2.21298 0
M  V30 30431 H 2754.21 -1.08225 -1.1277 0
M  V30 30432 H 2754.94 0.340429 -3.22508 0
M  V30 30433 H 2754.73 -1.37698 -3.67126 0
M  V30 30434 H 2756.22 -0.507516 -4.14505 0
M  V30 30435 N 2756.66 1.15326 -1.07413 0
M  V30 30436 C 2757.93 1.82229 -0.710764 0
M  V30 30437 C 2758.31 1.95078 0.806697 0
M  V30 30438 O 2757.66 1.50271 1.72136 0
M  V30 30439 C 2757.87 3.18541 -1.42592 0
M  V30 30440 C 2759.22 3.94171 -1.57843 0
M  V30 30441 O 2760.24 3.28097 -1.38674 0
M  V30 30442 O 2759.1 5.12635 -1.89389 0
M  V30 30443 H 2756.2 0.787355 -0.252984 0
M  V30 30444 H 2758.74 1.22432 -1.1751 0
M  V30 30445 H 2757.51 3.04291 -2.46013 0
M  V30 30446 H 2757.14 3.86025 -0.9524 0
M  V30 30447 N 2758.13 0.858334 1.32176 0
M  V30 30448 C 2759.08 0.303647 2.28794 0
M  V30 30449 C 2760.05 -0.591426 1.55214 0
M  V30 30450 O 2761.24 -0.525553 1.83419 0
M  V30 30451 C 2758.38 -0.49883 3.41476 0
M  V30 30452 C 2757.49 0.422448 4.2993 0
M  V30 30453 C 2756.62 -0.393018 5.29744 0
M  V30 30454 C 2755.66 0.525425 6.09841 0
M  V30 30455 N 2754.8 -0.253084 7.01644 0
M  V30 30456 H 2759.64 1.13281 2.75629 0
M  V30 30457 H 2757.18 0.570049 1.35605 0
M  V30 30458 H 2759.14 -0.979755 4.05533 0
M  V30 30459 H 2757.77 -1.29279 2.95782 0
M  V30 30460 H 2756.82 1.02178 3.6642 0
M  V30 30461 H 2758.13 1.12717 4.85897 0
M  V30 30462 H 2757.28 -0.936951 5.99421 0
M  V30 30463 H 2756.02 -1.13109 4.74402 0
M  V30 30464 H 2755.03 1.08121 5.39064 0
M  V30 30465 H 2756.25 1.26216 6.67268 0
M  V30 30466 H 2754.2 -0.974181 6.48726 0
M  V30 30467 H 2754.12 0.392531 7.5498 0
M  V30 30468 H 2755.38 -0.778625 7.75602 0
M  V30 30469 N 2759.61 -1.45036 0.616628 0
M  V30 30470 C 2760.58 -2.29035 -0.087071 0
M  V30 30471 C 2761.58 -1.40259 -0.78639 0
M  V30 30472 O 2762.77 -1.62285 -0.633178 0
M  V30 30473 C 2759.9 -3.21499 -1.13364 0
M  V30 30474 H 2761.09 -2.92737 0.651549 0
M  V30 30475 H 2758.64 -1.51708 0.376085 0
M  V30 30476 H 2759.38 -2.62616 -1.90272 0
M  V30 30477 H 2759.16 -3.86903 -0.63629 0
M  V30 30478 H 2760.65 -3.84635 -1.6262 0
M  V30 30479 N 2761.09 -0.356312 -1.53519 0
M  V30 30480 C 2762.32 0.239925 -2.06008 0
M  V30 30481 C 2762.74 1.4242 -1.22874 0
M  V30 30482 O 2762.1 1.79629 -0.245547 0
M  V30 30483 C 2762.15 0.620524 -3.55221 0
M  V30 30484 O 2761.25 1.71896 -3.74867 0
M  V30 30485 H 2760.59 0.0371261 -0.662961 0
M  V30 30486 H 2763.12 -0.514229 -1.98032 0
M  V30 30487 H 2763.13 0.894127 -3.98082 0
M  V30 30488 H 2761.81 -0.24548 -4.15175 0
M  V30 30489 H 2760.38 1.44163 -3.43906 0
M  V30 30490 N 2762.57 1.57369 -0.0852427 0
M  V30 30491 C 2763.8 1.98326 0.589425 0
M  V30 30492 C 2764.21 0.964059 1.62331 0
M  V30 30493 O 2763.57 -0.0476075 1.82438 0
M  V30 30494 C 2763.62 3.39349 1.24598 0
M  V30 30495 O 2763.34 4.37366 0.253455 0
M  V30 30496 C 2764.84 3.95255 2.00719 0
M  V30 30497 H 2762.06 0.651945 0.158772 0
M  V30 30498 H 2764.61 2.0386 -0.16162 0
M  V30 30499 H 2762.76 3.3486 1.94802 0
M  V30 30500 H 2763.17 5.1945 0.726115 0
M  V30 30501 H 2764.65 4.9611 2.4203 0
M  V30 30502 H 2765.13 3.32532 2.86913 0
M  V30 30503 H 2765.73 4.03187 1.35353 0
M  V30 30504 N 2764.05 -0.188399 1.5647 0
M  V30 30505 C 2765.46 -0.539505 1.50205 0
M  V30 30506 C 2765.66 -1.85518 0.786472 0
M  V30 30507 O 2764.72 -2.50204 0.339758 0
M  V30 30508 C 2766.03 -0.588051 2.94894 0
M  V30 30509 C 2767.58 -0.676426 3.05603 0
M  V30 30510 C 2768.05 -0.756022 4.51717 0
M  V30 30511 N 2769.55 -0.819371 4.55895 0
M  V30 30512 C 2770.28 -0.90124 5.66273 0
M  V30 30513 N 2769.78 -0.944998 6.86325 0
M  V30 30514 N 2771.57 -0.938946 5.54202 0
M  V30 30515 H 2763.72 0.674529 2.01405 0
M  V30 30516 H 2765.98 0.241119 0.916824 0
M  V30 30517 H 2765.69 0.309695 3.50334 0
M  V30 30518 H 2765.56 -1.44045 3.48613 0
M  V30 30519 H 2767.95 -1.5646 2.50208 0
M  V30 30520 H 2768.03 0.202307 2.54999 0
M  V30 30521 H 2767.68 0.127829 5.07739 0
M  V30 30522 H 2767.61 -1.65065 5.00061 0
M  V30 30523 H 2770.1 -0.794529 3.69453 0
M  V30 30524 H 2770.41 -1.00817 7.66196 0
M  V30 30525 H 2768.75 -0.913562 6.8897 0
M  V30 30526 H 2771.95 -0.901644 4.59334 0
M  V30 30527 H 2772.12 -0.99929 6.40249 0
M  V30 30528 N 2765.53 -1.50848 -0.456355 0
M  V30 30529 C 2766.46 -1.73722 -1.56022 0
M  V30 30530 C 2767.44 -0.586501 -1.59669 0
M  V30 30531 O 2768.62 -0.827216 -1.75701 0
M  V30 30532 C 2765.75 -1.84488 -2.94247 0
M  V30 30533 C 2764.71 -2.99791 -3.05466 0
M  V30 30534 C 2764.03 -2.95717 -4.45483 0
M  V30 30535 C 2765.33 -4.4007 -2.8131 0
M  V30 30536 H 2767.03 -2.66148 -1.37133 0
M  V30 30537 H 2764.57 -1.28073 -0.658277 0
M  V30 30538 H 2766.52 -1.99074 -3.71413 0
M  V30 30539 H 2765.25 -0.886946 -3.14326 0
M  V30 30540 H 2763.91 -2.8488 -2.30736 0
M  V30 30541 H 2763.56 -1.9774 -4.62502 0
M  V30 30542 H 2763.26 -3.73133 -4.53923 0
M  V30 30543 H 2764.78 -3.12371 -5.24649 0
M  V30 30544 H 2766.19 -4.55431 -3.48218 0
M  V30 30545 H 2764.59 -5.19048 -3.01179 0
M  V30 30546 H 2765.66 -4.51421 -1.77052 0
M  V30 30547 N 2767 0.710538 -1.40674 0
M  V30 30548 C 2767.95 1.8246 -1.4134 0
M  V30 30549 C 2768.92 1.63896 -0.269676 0
M  V30 30550 O 2770.11 1.84959 -0.468496 0
M  V30 30551 C 2767.25 3.20215 -1.28671 0
M  V30 30552 C 2766.36 3.50316 -2.5279 0
M  V30 30553 C 2765.49 4.77604 -2.32526 0
M  V30 30554 C 2764.53 5.00624 -3.52196 0
M  V30 30555 N 2763.67 6.19129 -3.31095 0
M  V30 30556 H 2768.51 1.81226 -2.36561 0
M  V30 30557 H 2766.05 0.885205 -1.17484 0
M  V30 30558 H 2768 3.9977 -1.19331 0
M  V30 30559 H 2766.63 3.20665 -0.370658 0
M  V30 30560 H 2765.69 2.65278 -2.72638 0
M  V30 30561 H 2767 3.63235 -3.41851 0
M  V30 30562 H 2766.15 5.65186 -2.20568 0
M  V30 30563 H 2764.89 4.66904 -1.40898 0
M  V30 30564 H 2763.9 4.11496 -3.64625 0
M  V30 30565 H 2765.12 5.13193 -4.44758 0
M  V30 30566 H 2763.07 6.0967 -2.42154 0
M  V30 30567 H 2762.98 6.32747 -4.13724 0
M  V30 30568 H 2764.25 7.09485 -3.2288 0
M  V30 30569 N 2768.48 1.26254 0.943277 0
M  V30 30570 C 2769.41 1.0342 2.04541 0
M  V30 30571 C 2770.43 -0.00466249 1.62799 0
M  V30 30572 O 2771.62 0.235177 1.76944 0
M  V30 30573 C 2768.72 0.54373 3.3451 0
M  V30 30574 C 2767.89 1.65135 4.0503 0
M  V30 30575 C 2766.95 1.15929 5.13271 0
M  V30 30576 O 2765.97 1.85595 5.38092 0
M  V30 30577 N 2767.18 0.00659483 5.805 0
M  V30 30578 H 2769.94 1.98323 2.24695 0
M  V30 30579 H 2767.5 1.17612 1.11262 0
M  V30 30580 H 2769.49 0.198774 4.04212 0
M  V30 30581 H 2768.06 -0.311656 3.11043 0
M  V30 30582 H 2767.28 2.16735 3.29271 0
M  V30 30583 H 2768.57 2.39516 4.48898 0
M  V30 30584 H 2767.97 -0.575248 5.62768 0
M  V30 30585 H 2766.53 -0.279302 6.51201 0
M  V30 30586 N 2769.96 -1.14755 1.08024 0
M  V30 30587 C 2770.89 -2.21852 0.728287 0
M  V30 30588 C 2771.87 -1.67654 -0.287457 0
M  V30 30589 O 2773.06 -1.93551 -0.158693 0
M  V30 30590 C 2770.19 -3.47047 0.13261 0
M  V30 30591 C 2769.14 -4.14247 1.07627 0
M  V30 30592 C 2768.47 -5.33599 0.343001 0
M  V30 30593 C 2769.77 -4.63231 2.41276 0
M  V30 30594 H 2771.46 -2.51548 1.6237 0
M  V30 30595 H 2769.01 -1.20907 0.782146 0
M  V30 30596 H 2770.96 -4.21213 -0.125591 0
M  V30 30597 H 2769.68 -3.16703 -0.797915 0
M  V30 30598 H 2768.34 -3.4203 1.3195 0
M  V30 30599 H 2767.99 -4.99514 -0.591203 0
M  V30 30600 H 2767.69 -5.79504 0.972057 0
M  V30 30601 H 2769.21 -6.1053 0.0927611 0
M  V30 30602 H 2770.63 -5.28891 2.21241 0
M  V30 30603 H 2769.02 -5.19824 2.99839 0
M  V30 30604 H 2770.09 -3.78506 3.03086 0
M  V30 30605 N 2771.44 -0.865331 -1.31719 0
M  V30 30606 C 2772.38 -0.315776 -2.2863 0
M  V30 30607 C 2773.35 0.583186 -1.55525 0
M  V30 30608 O 2774.54 0.515818 -1.83695 0
M  V30 30609 C 2771.68 0.480713 -3.41736 0
M  V30 30610 C 2770.79 -0.445242 -4.29699 0
M  V30 30611 C 2769.93 0.364919 -5.29945 0
M  V30 30612 C 2768.97 -0.557759 -6.09553 0
M  V30 30613 N 2768.1 0.215871 -7.01768 0
M  V30 30614 H 2772.94 -1.14741 -2.75024 0
M  V30 30615 H 2770.48 -0.577233 -1.35301 0
M  V30 30616 H 2772.44 0.958235 -4.06046 0
M  V30 30617 H 2771.07 1.27709 -2.96463 0
M  V30 30618 H 2770.12 -1.04119 -3.65873 0
M  V30 30619 H 2771.43 -1.15292 -4.85293 0
M  V30 30620 H 2770.59 0.905149 -5.9991 0
M  V30 30621 H 2769.33 1.10592 -4.74996 0
M  V30 30622 H 2768.33 -1.10978 -5.38483 0
M  V30 30623 H 2769.56 -1.29753 -6.66589 0
M  V30 30624 H 2767.5 0.939764 -6.49234 0
M  V30 30625 H 2767.42 -0.432564 -7.54761 0
M  V30 30626 H 2768.69 0.737482 -7.76004 0
M  V30 30627 N 2772.92 1.44707 -0.624311 0
M  V30 30628 C 2774.33 1.56955 -0.28935 0
M  V30 30629 C 2774.53 1.61297 1.2077 0
M  V30 30630 O 2773.59 1.55231 1.99147 0
M  V30 30631 C 2774.9 2.84445 -0.975265 0
M  V30 30632 C 2776.45 2.98147 -0.952762 0
M  V30 30633 C 2776.92 4.2843 -1.61901 0
M  V30 30634 N 2778.41 4.35228 -1.58528 0
M  V30 30635 C 2779.15 5.3474 -2.06979 0
M  V30 30636 N 2778.65 6.40697 -2.6359 0
M  V30 30637 N 2780.44 5.26205 -1.97648 0
M  V30 30638 H 2772.59 1.40132 -1.59615 0
M  V30 30639 H 2774.85 0.67107 -0.669604 0
M  V30 30640 H 2774.56 2.87197 -2.03004 0
M  V30 30641 H 2774.43 3.73752 -0.508815 0
M  V30 30642 H 2776.82 2.94952 0.0935162 0
M  V30 30643 H 2776.9 2.10206 -1.45764 0
M  V30 30644 H 2776.54 4.32384 -2.6647 0
M  V30 30645 H 2776.47 5.15216 -1.08902 0
M  V30 30646 H 2778.97 3.5927 -1.17189 0
M  V30 30647 H 2779.28 7.12903 -2.9831 0
M  V30 30648 H 2777.62 6.41401 -2.67637 0
M  V30 30649 H 2780.81 4.42339 -1.53147 0
M  V30 30650 H 2780.99 6.03606 -2.35719 0
M  V30 30651 N 2774.39 0.364449 1.53328 0
M  V30 30652 C 2775.33 -0.517253 2.23287 0
M  V30 30653 C 2776.34 -1.04709 1.24659 0
M  V30 30654 O 2777.53 -0.953664 1.50889 0
M  V30 30655 C 2774.63 -1.7268 2.91607 0
M  V30 30656 C 2773.8 -1.32865 4.16732 0
M  V30 30657 C 2772.86 -2.40014 4.68273 0
M  V30 30658 O 2771.89 -2.02452 5.31979 0
M  V30 30659 N 2773.09 -3.71583 4.45989 0
M  V30 30660 H 2775.85 0.0819918 2.99588 0
M  V30 30661 H 2773.41 0.189572 1.60786 0
M  V30 30662 H 2775.41 -2.43835 3.22997 0
M  V30 30663 H 2773.98 -2.23294 2.18766 0
M  V30 30664 H 2773.2 -0.447 3.91657 0
M  V30 30665 H 2774.48 -1.03893 4.9808 0
M  V30 30666 H 2773.88 -4.04877 3.95084 0
M  V30 30667 H 2772.44 -4.38845 4.81932 0
M  V30 30668 N 2775.87 -1.57322 0.0935872 0
M  V30 30669 C 2776.8 -2.16966 -0.863024 0
M  V30 30670 C 2777.78 -1.10258 -1.29527 0
M  V30 30671 O 2778.97 -1.38389 -1.36243 0
M  V30 30672 C 2776.1 -2.74878 -2.12272 0
M  V30 30673 C 2775.05 -3.86945 -1.82915 0
M  V30 30674 C 2774.38 -4.31553 -3.15699 0
M  V30 30675 C 2775.68 -5.1021 -1.11728 0
M  V30 30676 H 2777.37 -2.97153 -0.366093 0
M  V30 30677 H 2774.92 -1.42937 -0.174647 0
M  V30 30678 H 2776.87 -3.15255 -2.79629 0
M  V30 30679 H 2775.59 -1.91943 -2.64245 0
M  V30 30680 H 2774.25 -3.47105 -1.17955 0
M  V30 30681 H 2773.9 -3.4551 -3.65557 0
M  V30 30682 H 2773.6 -5.07109 -2.9684 0
M  V30 30683 H 2775.13 -4.74562 -3.84217 0
M  V30 30684 H 2776.54 -5.47765 -1.69193 0
M  V30 30685 H 2774.94 -5.91185 -1.03053 0
M  V30 30686 H 2776.01 -4.84797 -0.0997966 0
M  V30 30687 N 2777.35 0.180099 -1.56568 0
M  V30 30688 C 2778.26 1.24323 -1.9895 0
M  V30 30689 C 2779.28 1.48948 -0.899473 0
M  V30 30690 O 2780.45 1.61269 -1.20642 0
M  V30 30691 C 2777.52 2.56431 -2.33332 0
M  V30 30692 C 2776.58 2.39746 -3.56118 0
M  V30 30693 C 2775.81 3.65554 -3.88852 0
M  V30 30694 O 2776.03 4.70362 -3.2267 0
M  V30 30695 O 2774.97 3.60188 -4.82232 0
M  V30 30696 H 2778.79 0.913514 -2.89635 0
M  V30 30697 H 2776.38 0.386281 -1.4432 0
M  V30 30698 H 2778.26 3.34378 -2.56456 0
M  V30 30699 H 2776.94 2.89 -1.45811 0
M  V30 30700 H 2775.84 1.5986 -3.38224 0
M  V30 30701 H 2777.18 2.12105 -4.44153 0
M  V30 30702 N 2778.83 1.51088 0.448349 0
M  V30 30703 C 2779.74 1.74431 1.56879 0
M  V30 30704 C 2780.75 0.628118 1.62267 0
M  V30 30705 O 2781.93 0.909107 1.79714 0
M  V30 30706 C 2778.99 1.85431 2.92944 0
M  V30 30707 C 2778.06 3.09252 2.97761 0
M  V30 30708 C 2777.29 3.19718 4.27336 0
M  V30 30709 O 2777.51 2.36396 5.19108 0
M  V30 30710 O 2776.45 4.12618 4.38212 0
M  V30 30711 H 2780.27 2.69455 1.40099 0
M  V30 30712 H 2777.86 1.35457 0.630223 0
M  V30 30713 H 2779.74 1.94716 3.73716 0
M  V30 30714 H 2778.41 0.935941 3.09874 0
M  V30 30715 H 2777.32 3.05454 2.15984 0
M  V30 30716 H 2778.65 4.00743 2.85773 0
M  V30 30717 N 2780.31 -0.703068 1.41049 0
M  V30 30718 C 2781.27 -1.79882 1.42039 0
M  V30 30719 C 2782.27 -1.57741 0.312181 0
M  V30 30720 O 2783.46 -1.64552 0.571701 0
M  V30 30721 C 2780.59 -3.18152 1.22443 0
M  V30 30722 H 2781.78 -1.80398 2.39575 0
M  V30 30723 H 2779.34 -0.909955 1.27081 0
M  V30 30724 H 2780.07 -3.23279 0.257169 0
M  V30 30725 H 2779.86 -3.35624 2.02729 0
M  V30 30726 H 2781.35 -3.98153 1.25953 0
M  V30 30727 N 2781.78 -1.26752 -0.936569 0
M  V30 30728 C 2782.69 -1.105 -2.06947 0
M  V30 30729 C 2783.71 -0.0373016 -1.7396 0
M  V30 30730 O 2784.89 -0.241979 -1.99941 0
M  V30 30731 C 2781.95 -0.74455 -3.38611 0
M  V30 30732 C 2781.01 -1.89216 -3.85352 0
M  V30 30733 C 2780.25 -1.54882 -5.10732 0
M  V30 30734 O 2780.47 -0.452645 -5.68601 0
M  V30 30735 O 2779.4 -2.38509 -5.52628 0
M  V30 30736 H 2783.23 -2.05551 -2.23567 0
M  V30 30737 H 2780.81 -1.05857 -1.05426 0
M  V30 30738 H 2782.7 -0.556469 -4.1771 0
M  V30 30739 H 2781.37 0.176525 -3.23218 0
M  V30 30740 H 2780.28 -2.13524 -3.07178 0
M  V30 30741 H 2781.61 -2.79313 -4.05272 0
M  V30 30742 N 2783.26 1.1418 -1.08631 0
M  V30 30743 C 2784.17 2.22948 -0.730165 0
M  V30 30744 C 2785.19 1.71981 0.26433 0
M  V30 30745 O 2786.36 2.01112 0.107706 0
M  V30 30746 C 2783.43 3.46387 -0.147288 0
M  V30 30747 C 2782.49 4.12284 -1.19669 0
M  V30 30748 C 2781.72 5.2983 -0.64153 0
M  V30 30749 O 2781.95 5.67855 0.538251 0
M  V30 30750 O 2780.88 5.85567 -1.39267 0
M  V30 30751 H 2784.71 2.55768 -1.63757 0
M  V30 30752 H 2782.29 1.22155 -0.860139 0
M  V30 30753 H 2784.17 4.21037 0.174849 0
M  V30 30754 H 2782.85 3.15286 0.733248 0
M  V30 30755 H 2781.76 3.39497 -1.57139 0
M  V30 30756 H 2783.09 4.47496 -2.04958 0
M  V30 30757 N 2784.74 0.872304 1.31258 0
M  V30 30758 C 2785.65 0.333295 2.3222 0
M  V30 30759 C 2786.67 -0.557984 1.64811 0
M  V30 30760 O 2787.84 -0.454141 1.96213 0
M  V30 30761 C 2784.91 -0.454419 3.43709 0
M  V30 30762 C 2783.97 0.465099 4.26773 0
M  V30 30763 C 2783.2 -0.285116 5.32938 0
M  V30 30764 O 2783.42 -1.5129 5.4997 0
M  V30 30765 O 2782.36 0.358232 6.00833 0
M  V30 30766 H 2786.18 1.17021 2.8025 0
M  V30 30767 H 2783.77 0.635748 1.35198 0
M  V30 30768 H 2785.65 -0.90089 4.11658 0
M  V30 30769 H 2784.33 -1.26784 2.97838 0
M  V30 30770 H 2783.23 0.960119 3.6157 0
M  V30 30771 H 2784.57 1.24418 4.76215 0
M  V30 30772 N 2786.22 -1.44374 0.631976 0
M  V30 30773 C 2787.18 -2.29114 -0.0627739 0
M  V30 30774 C 2788.18 -1.41085 -0.771469 0
M  V30 30775 O 2789.37 -1.62948 -0.61593 0
M  V30 30776 C 2786.5 -3.22683 -1.09947 0
M  V30 30777 H 2787.7 -2.92029 0.682561 0
M  V30 30778 H 2785.25 -1.513 0.392154 0
M  V30 30779 H 2785.98 -2.64619 -1.87476 0
M  V30 30780 H 2785.77 -3.87556 -0.595218 0
M  V30 30781 H 2787.26 -3.86339 -1.58532 0
M  V30 30782 N 2787.7 -0.372575 -1.53133 0
M  V30 30783 C 2788.63 0.505405 -2.23558 0
M  V30 30784 C 2789.64 1.04046 -1.25213 0
M  V30 30785 O 2790.83 0.945649 -1.51393 0
M  V30 30786 C 2787.93 1.71131 -2.92519 0
M  V30 30787 C 2787.1 1.30654 -4.17431 0
M  V30 30788 C 2786.16 2.37527 -4.69539 0
M  V30 30789 O 2785.19 1.99627 -5.33046 0
M  V30 30790 N 2786.39 3.69212 -4.47954 0
M  V30 30791 H 2789.16 -0.0978785 -2.9954 0
M  V30 30792 H 2786.72 -0.198096 -1.60684 0
M  V30 30793 H 2788.71 2.42118 -3.24285 0
M  V30 30794 H 2787.28 2.2213 -2.19948 0
M  V30 30795 H 2786.5 0.426223 -3.91889 0
M  V30 30796 H 2787.79 1.0125 -4.98624 0
M  V30 30797 H 2787.18 4.02776 -3.97226 0
M  V30 30798 H 2785.74 4.36283 -4.84252 0
M  V30 30799 N 2789.17 1.5727 -0.101929 0
M  V30 30800 C 2790.59 1.57554 0.254712 0
M  V30 30801 C 2790.79 1.11355 1.67935 0
M  V30 30802 O 2789.85 0.793124 2.3972 0
M  V30 30803 C 2791.16 3.00677 0.0369221 0
M  V30 30804 C 2792.71 3.12827 0.104144 0
M  V30 30805 C 2793.18 4.5792 -0.085737 0
M  V30 30806 N 2794.67 4.6319 -0.0311313 0
M  V30 30807 C 2795.41 5.73195 -0.1532 0
M  V30 30808 N 2794.9 6.92011 -0.330485 0
M  V30 30809 N 2796.7 5.62021 -0.0939841 0
M  V30 30810 H 2788.85 1.85607 -1.03266 0
M  V30 30811 H 2791.11 0.857008 -0.405266 0
M  V30 30812 H 2790.82 3.38702 -0.947314 0
M  V30 30813 H 2790.69 3.69126 0.77627 0
M  V30 30814 H 2793.08 2.74671 1.07889 0
M  V30 30815 H 2793.16 2.46956 -0.666806 0
M  V30 30816 H 2792.8 4.96771 -1.05738 0
M  V30 30817 H 2792.73 5.2186 0.70499 0
M  V30 30818 H 2795.22 3.77759 0.103075 0
M  V30 30819 H 2795.54 7.71685 -0.414956 0
M  V30 30820 H 2793.88 6.94034 -0.366241 0
M  V30 30821 H 2797.07 4.6808 0.0434346 0
M  V30 30822 H 2797.25 6.47714 -0.192563 0
M  V30 30823 N 2790.65 -0.171793 1.56661 0
M  V30 30824 C 2791.62 -1.19648 1.95492 0
M  V30 30825 C 2792.62 -1.37206 0.838525 0
M  V30 30826 O 2793.81 -1.3462 1.10558 0
M  V30 30827 C 2790.94 -2.56162 2.24931 0
M  V30 30828 H 2792.13 -0.863956 2.87186 0
M  V30 30829 H 2789.68 -0.414223 1.50711 0
M  V30 30830 H 2790.42 -2.94429 1.35949 0
M  V30 30831 H 2790.2 -2.44784 3.06306 0
M  V30 30832 H 2791.69 -3.3001 2.55897 0
M  V30 30833 N 2792.13 -1.51324 -0.44033 0
M  V30 30834 C 2793.08 -1.72991 -1.55489 0
M  V30 30835 C 2794.07 -0.596166 -1.58563 0
M  V30 30836 O 2795.28 -0.777471 -1.62343 0
M  V30 30837 H 2791.65 -0.546542 -0.516522 0
M  V30 30838 H 2793.62 -2.66426 -1.34387 0
M  V30 30839 C 2792.37 -1.86936 -2.93173 0
M  V30 30840 H 2791.7 -2.73579 -2.91538 0
M  V30 30841 H 2793.14 -2.0611 -3.70533 0
M  V30 30842 C 2791.6 -0.628423 -3.30987 0
M  V30 30843 O 2792.13 0.218297 -4.01106 0
M  V30 30844 N 2790.33 -0.47339 -2.86718 0
M  V30 30845 H 2789.88 -1.16349 -2.29828 0
M  V30 30846 H 2789.84 0.355672 -3.12382 0
M  V30 30847 N 2793.61 0.695578 -1.41419 0
M  V30 30848 C 2794.57 1.79126 -1.42991 0
M  V30 30849 C 2795.57 1.57573 -0.320542 0
M  V30 30850 O 2796.76 1.64246 -0.580419 0
M  V30 30851 C 2793.89 3.17498 -1.24128 0
M  V30 30852 H 2795.09 1.79125 -2.40529 0
M  V30 30853 H 2792.64 0.903203 -1.27562 0
M  V30 30854 H 2793.37 3.23138 -0.274309 0
M  V30 30855 H 2793.16 3.34544 -2.04506 0
M  V30 30856 H 2794.65 3.97479 -1.28063 0
M  V30 30857 N 2795.09 1.27247 0.929833 0
M  V30 30858 C 2796.31 1.16377 1.71672 0
M  V30 30859 C 2796.74 -0.275991 1.86064 0
M  V30 30860 O 2796.1 -1.1999 1.35912 0
M  V30 30861 C 2796.14 1.85008 3.09523 0
M  V30 30862 O 2795.25 1.1466 3.9614 0
M  V30 30863 H 2794.59 0.404873 0.526283 0
M  V30 30864 H 2797.12 1.68278 1.16378 0
M  V30 30865 H 2797.13 1.92283 3.59849 0
M  V30 30866 H 2795.8 2.89744 2.98364 0
M  V30 30867 H 2794.38 1.15439 3.54582 0
M  V30 30868 N 2796.57 -1.13603 1.09235 0
M  V30 30869 C 2797.98 -1.36825 0.821654 0
M  V30 30870 C 2798.18 -1.93417 -0.564987 0
M  V30 30871 O 2797.24 -2.15236 -1.32022 0
M  V30 30872 C 2798.55 -2.32143 1.91128 0
M  V30 30873 C 2800.1 -2.45763 1.93828 0
M  V30 30874 C 2800.57 -3.44388 3.01929 0
M  V30 30875 N 2802.06 -3.51937 3.01155 0
M  V30 30876 C 2802.8 -4.28124 3.81442 0
M  V30 30877 N 2802.3 -5.07481 4.7163 0
M  V30 30878 N 2804.09 -4.23405 3.69709 0
M  V30 30879 H 2796.24 -0.7522 1.98635 0
M  V30 30880 H 2798.5 -0.393467 0.862489 0
M  V30 30881 H 2798.21 -1.97712 2.90865 0
M  V30 30882 H 2798.08 -3.32139 1.78783 0
M  V30 30883 H 2800.47 -2.79482 0.947309 0
M  V30 30884 H 2800.55 -1.45699 2.10251 0
M  V30 30885 H 2800.19 -3.11401 4.01238 0
M  V30 30886 H 2800.12 -4.44252 2.8275 0
M  V30 30887 H 2802.62 -2.95313 2.35794 0
M  V30 30888 H 2802.93 -5.62915 5.29478 0
M  V30 30889 H 2801.27 -5.0672 4.75667 0
M  V30 30890 H 2804.46 -3.60484 2.98612 0
M  V30 30891 H 2804.64 -4.82528 4.32517 0
M  V30 30892 N 2798.04 -0.879253 -1.30793 0
M  V30 30893 C 2799.46 -0.572456 -1.4898 0
M  V30 30894 C 2799.66 0.891204 -1.8072 0
M  V30 30895 O 2798.72 1.6728 -1.89139 0
M  V30 30896 C 2800.03 -1.48067 -2.61718 0
M  V30 30897 C 2801.58 -1.4837 -2.756 0
M  V30 30898 C 2802.05 -2.3777 -3.91445 0
M  V30 30899 N 2803.54 -2.35702 -3.98747 0
M  V30 30900 C 2804.28 -3.01591 -4.87678 0
M  V30 30901 N 2803.77 -3.76685 -5.81447 0
M  V30 30902 N 2805.57 -2.90852 -4.81 0
M  V30 30903 H 2797.72 -1.82619 -1.08462 0
M  V30 30904 H 2799.98 -0.781378 -0.536799 0
M  V30 30905 H 2799.69 -2.52259 -2.45068 0
M  V30 30906 H 2799.56 -1.18603 -3.58069 0
M  V30 30907 H 2801.95 -0.449321 -2.91659 0
M  V30 30908 H 2802.03 -1.81862 -1.79888 0
M  V30 30909 H 2801.67 -3.4129 -3.76143 0
M  V30 30910 H 2801.6 -2.01597 -4.86483 0
M  V30 30911 H 2804.09 -1.81127 -3.31665 0
M  V30 30912 H 2804.41 -4.24066 -6.46056 0
M  V30 30913 H 2802.75 -3.80792 -5.81397 0
M  V30 30914 H 2805.94 -2.31718 -4.06724 0
M  V30 30915 H 2806.12 -3.4248 -5.50101 0
M  V30 30916 N 2799.52 1.44037 -0.639624 0
M  V30 30917 C 2800.47 2.30721 0.0602053 0
M  V30 30918 C 2801.44 1.43972 0.828326 0
M  V30 30919 O 2802.62 1.72863 0.807663 0
M  V30 30920 C 2799.76 3.2937 1.03002 0
M  V30 30921 C 2798.88 4.3122 0.259426 0
M  V30 30922 C 2798.01 5.16958 1.22182 0
M  V30 30923 C 2797.05 6.1051 0.440871 0
M  V30 30924 N 2796.19 6.88917 1.35416 0
M  V30 30925 H 2801.03 2.90022 -0.684918 0
M  V30 30926 H 2798.56 1.42887 -0.349534 0
M  V30 30927 H 2800.52 3.8506 1.60576 0
M  V30 30928 H 2799.15 2.7175 1.74217 0
M  V30 30929 H 2798.2 3.77935 -0.432383 0
M  V30 30930 H 2799.52 4.97582 -0.348435 0
M  V30 30931 H 2798.67 5.77206 1.86863 0
M  V30 30932 H 2797.41 4.5069 1.8636 0
M  V30 30933 H 2796.41 5.49362 -0.219376 0
M  V30 30934 H 2797.64 6.78816 -0.196311 0
M  V30 30935 H 2795.59 6.25311 1.98299 0
M  V30 30936 H 2795.5 7.5175 0.800525 0
M  V30 30937 H 2796.77 7.53683 1.98954 0
M  V30 30938 N 2801 0.380691 1.52933 0
M  V30 30939 C 2801.93 -0.450227 2.29118 0
M  V30 30940 C 2802.91 -1.07094 1.32155 0
M  V30 30941 O 2804.1 -1.08534 1.6104 0
M  V30 30942 C 2801.23 -1.58226 3.09163 0
M  V30 30943 C 2800.18 -1.08802 4.1394 0
M  V30 30944 C 2799.51 -2.31146 4.82157 0
M  V30 30945 C 2800.81 -0.162055 5.22049 0
M  V30 30946 H 2802.5 0.185413 2.98825 0
M  V30 30947 H 2800.05 0.0906139 1.43715 0
M  V30 30948 H 2802 -2.1703 3.61215 0
M  V30 30949 H 2800.72 -2.24535 2.37174 0
M  V30 30950 H 2799.38 -0.52257 3.62856 0
M  V30 30951 H 2799.03 -2.95946 4.06724 0
M  V30 30952 H 2798.73 -1.98742 5.5297 0
M  V30 30953 H 2800.25 -2.90609 5.37009 0
M  V30 30954 H 2801.67 -0.658026 5.69511 0
M  V30 30955 H 2800.06 0.0718177 6.00057 0
M  V30 30956 H 2801.13 0.791522 4.78396 0
M  V30 30957 N 2802.48 -1.57214 0.110268 0
M  V30 30958 C 2803.41 -2.11904 -0.87346 0
M  V30 30959 C 2804.42 -1.05973 -1.23586 0
M  V30 30960 O 2805.61 -1.33373 -1.18633 0
M  V30 30961 C 2802.71 -2.59646 -2.178 0
M  V30 30962 C 2801.88 -3.8958 -1.98863 0
M  V30 30963 C 2800.94 -4.23011 -3.12966 0
M  V30 30964 O 2799.97 -4.91978 -2.86263 0
M  V30 30965 N 2801.17 -3.7963 -4.3916 0
M  V30 30966 H 2803.94 -2.96934 -0.406265 0
M  V30 30967 H 2801.5 -1.61729 -0.0744086 0
M  V30 30968 H 2803.49 -2.79047 -2.93112 0
M  V30 30969 H 2802.06 -1.79545 -2.55896 0
M  V30 30970 H 2801.28 -3.79176 -1.07793 0
M  V30 30971 H 2802.57 -4.74556 -1.83504 0
M  V30 30972 H 2801.97 -3.23988 -4.63733 0
M  V30 30973 H 2800.52 -4.04156 -5.11372 0
M  V30 30974 N 2803.96 0.163482 -1.5675 0
M  V30 30975 C 2805.37 0.515541 -1.51044 0
M  V30 30976 C 2805.57 1.84243 -0.815887 0
M  V30 30977 O 2804.63 2.49632 -0.37952 0
M  V30 30978 C 2805.94 0.541062 -2.95792 0
M  V30 30979 C 2807.49 0.627722 -3.06641 0
M  V30 30980 C 2807.96 0.684062 -4.52863 0
M  V30 30981 N 2809.45 0.746738 -4.57141 0
M  V30 30982 C 2810.19 0.811037 -5.67635 0
M  V30 30983 N 2809.69 0.83569 -6.87741 0
M  V30 30984 N 2811.48 0.850658 -5.55626 0
M  V30 30985 H 2803.63 -0.706485 -2.00306 0
M  V30 30986 H 2805.89 -0.255675 -0.912872 0
M  V30 30987 H 2805.6 -0.365391 -3.49797 0
M  V30 30988 H 2805.47 1.38481 -3.5086 0
M  V30 30989 H 2807.86 1.5246 -2.52666 0
M  V30 30990 H 2807.94 -0.24285 -2.54645 0
M  V30 30991 H 2807.58 -0.208589 -5.07471 0
M  V30 30992 H 2807.51 1.57089 -5.02624 0
M  V30 30993 H 2810.01 0.735652 -3.7067 0
M  V30 30994 H 2810.32 0.886144 -7.67703 0
M  V30 30995 H 2808.66 0.803837 -6.90336 0
M  V30 30996 H 2811.85 0.828454 -4.60711 0
M  V30 30997 H 2812.03 0.897305 -6.41757 0
M  V30 30998 N 2805.43 1.51555 0.432299 0
M  V30 30999 C 2806.34 1.76085 1.5502 0
M  V30 31000 C 2807.36 0.645294 1.61592 0
M  V30 31001 O 2808.54 0.928117 1.7874 0
M  V30 31002 C 2805.6 1.88528 2.90961 0
M  V30 31003 C 2804.66 3.12393 2.94464 0
M  V30 31004 C 2803.89 3.24233 4.23921 0
M  V30 31005 O 2804.12 2.41889 5.16571 0
M  V30 31006 O 2803.05 4.17243 4.33811 0
M  V30 31007 H 2806.88 2.70925 1.37234 0
M  V30 31008 H 2804.46 1.36118 0.615821 0
M  V30 31009 H 2806.34 1.98669 3.7163 0
M  V30 31010 H 2805.02 0.968755 3.08864 0
M  V30 31011 H 2803.93 3.07727 2.12732 0
M  V30 31012 H 2805.26 4.03751 2.81507 0
M  V30 31013 N 2806.91 -0.688069 1.41786 0
M  V30 31014 C 2807.84 -1.81418 1.47003 0
M  V30 31015 C 2808.82 -1.66909 0.32791 0
M  V30 31016 O 2810.01 -1.8653 0.540395 0
M  V30 31017 C 2807.14 -3.19615 1.35881 0
M  V30 31018 C 2806.09 -3.48839 2.47982 0
M  V30 31019 C 2805.42 -4.86471 2.21923 0
M  V30 31020 C 2806.72 -3.47061 3.90315 0
M  V30 31021 H 2808.41 -1.7731 2.4125 0
M  V30 31022 H 2805.96 -0.851631 1.16117 0
M  V30 31023 H 2807.91 -3.98114 1.38141 0
M  V30 31024 H 2806.63 -3.24368 0.381217 0
M  V30 31025 H 2805.29 -2.72694 2.45017 0
M  V30 31026 H 2804.94 -4.87858 1.22489 0
M  V30 31027 H 2804.64 -5.06989 2.97046 0
M  V30 31028 H 2806.17 -5.67271 2.25911 0
M  V30 31029 H 2807.58 -4.15553 3.94954 0
M  V30 31030 H 2805.98 -3.79112 4.65182 0
M  V30 31031 H 2807.05 -2.45889 4.17932 0
M  V30 31032 N 2808.39 -1.27739 -0.923072 0
M  V30 31033 C 2809.3 -1.12688 -2.05763 0
M  V30 31034 C 2810.32 -0.0557503 -1.73911 0
M  V30 31035 O 2811.49 -0.263172 -1.99673 0
M  V30 31036 C 2808.56 -0.780422 -3.37802 0
M  V30 31037 C 2807.62 -1.93293 -3.83323 0
M  V30 31038 C 2806.85 -1.6029 -5.09061 0
M  V30 31039 O 2807.07 -0.512928 -5.68089 0
M  V30 31040 O 2806.01 -2.44357 -5.50067 0
M  V30 31041 H 2809.83 -2.07911 -2.21375 0
M  V30 31042 H 2807.42 -1.06969 -1.04297 0
M  V30 31043 H 2809.3 -0.600742 -4.17096 0
M  V30 31044 H 2807.98 0.142234 -3.23387 0
M  V30 31045 H 2806.88 -2.1677 -3.04896 0
M  V30 31046 H 2808.22 -2.83595 -4.02287 0
M  V30 31047 N 2809.87 1.13022 -1.09836 0
M  V30 31048 C 2811.15 1.80681 -0.749257 0
M  V30 31049 C 2811.53 1.96746 0.765137 0
M  V30 31050 O 2810.87 1.53889 1.6891 0
M  V30 31051 C 2811.08 3.15445 -1.49316 0
M  V30 31052 C 2812.43 3.90734 -1.66169 0
M  V30 31053 O 2813.46 3.25082 -1.45603 0
M  V30 31054 O 2812.31 5.08502 -2.0022 0
M  V30 31055 H 2809.41 0.781812 -0.269628 0
M  V30 31056 H 2811.95 1.19912 -1.2008 0
M  V30 31057 H 2810.73 2.99005 -2.52412 0
M  V30 31058 H 2810.35 3.83918 -1.03407 0
M  V30 31059 N 2811.35 0.886177 1.30325 0
M  V30 31060 C 2812.31 0.358726 2.26375 0
M  V30 31061 C 2813.31 -0.499471 1.52846 0
M  V30 31062 O 2814.5 -0.306455 1.71483 0
M  V30 31063 C 2811.63 -0.488666 3.37379 0
M  V30 31064 H 2812.82 1.20686 2.74545 0
M  V30 31065 H 2810.38 0.663138 1.41535 0
M  V30 31066 H 2811.11 -1.35734 2.94528 0
M  V30 31067 H 2810.9 0.126072 3.91897 0
M  V30 31068 H 2812.39 -0.849448 4.08869 0
M  V30 31069 N 2812.82 -1.43695 0.647253 0
M  V30 31070 C 2814.05 -2.06235 0.165787 0
M  V30 31071 C 2814.47 -1.48478 -1.16617 0
M  V30 31072 O 2813.82 -0.613792 -1.71869 0
M  V30 31073 C 2813.88 -3.61446 0.0622286 0
M  V30 31074 O 2813.6 -4.17055 1.34153 0
M  V30 31075 C 2815.1 -4.4105 -0.446025 0
M  V30 31076 H 2812.32 -0.665319 0.0871275 0
M  V30 31077 H 2814.86 -1.843 0.886216 0
M  V30 31078 H 2813.02 -3.82588 -0.608727 0
M  V30 31079 H 2813.43 -5.10662 1.19684 0
M  V30 31080 H 2814.9 -5.50017 -0.467454 0
M  V30 31081 H 2815.38 -4.13648 -1.4762 0
M  V30 31082 H 2815.99 -4.24865 0.192233 0
M  V30 31083 N 2814.3 -0.388796 -1.52729 0
M  V30 31084 C 2815.21 0.453952 -2.30166 0
M  V30 31085 C 2816.23 1.07194 -1.3706 0
M  V30 31086 O 2817.4 1.07787 -1.70129 0
M  V30 31087 C 2814.47 1.56623 -3.09306 0
M  V30 31088 C 2813.53 0.973393 -4.18119 0
M  V30 31089 C 2812.76 2.03266 -4.93476 0
M  V30 31090 O 2812.99 3.24764 -4.68919 0
M  V30 31091 O 2811.92 1.65024 -5.78836 0
M  V30 31092 H 2815.75 -0.176869 -3.03185 0
M  V30 31093 H 2813.33 -0.152527 -1.48619 0
M  V30 31094 H 2815.21 2.2124 -3.58651 0
M  V30 31095 H 2813.89 2.18202 -2.39101 0
M  V30 31096 H 2812.8 0.290491 -3.7297 0
M  V30 31097 H 2814.13 0.401822 -4.90557 0
M  V30 31098 N 2815.78 1.57153 -0.118604 0
M  V30 31099 C 2817.01 1.99532 0.547225 0
M  V30 31100 C 2817.42 0.998275 1.6025 0
M  V30 31101 O 2816.78 -0.00889898 1.82498 0
M  V30 31102 C 2816.83 3.41915 1.17372 0
M  V30 31103 O 2816.55 4.37805 0.160626 0
M  V30 31104 C 2818.05 3.99424 1.9229 0
M  V30 31105 H 2815.27 0.655166 0.144908 0
M  V30 31106 H 2817.82 2.03472 -0.204826 0
M  V30 31107 H 2815.97 3.38916 1.87655 0
M  V30 31108 H 2816.39 5.20873 0.615769 0
M  V30 31109 H 2817.86 5.01132 2.31453 0
M  V30 31110 H 2818.34 3.38543 2.79795 0
M  V30 31111 H 2818.94 4.05967 1.2677 0
M  V30 31112 N 2817.26 -0.155167 1.56834 0
M  V30 31113 C 2818.22 -1.17568 1.9675 0
M  V30 31114 C 2819.22 -1.36309 0.85303 0
M  V30 31115 O 2820.41 -1.3344 1.1198 0
M  V30 31116 C 2817.54 -2.53761 2.27635 0
M  V30 31117 H 2818.74 -0.833448 2.88086 0
M  V30 31118 H 2816.29 -0.398215 1.51142 0
M  V30 31119 H 2817.02 -2.9297 1.39065 0
M  V30 31120 H 2816.81 -2.41522 3.08885 0
M  V30 31121 H 2818.3 -3.27277 2.59383 0
M  V30 31122 N 2818.74 -1.51782 -0.424256 0
M  V30 31123 C 2820.01 -1.55648 -1.18462 0
M  V30 31124 C 2820.39 -0.328475 -2.08529 0
M  V30 31125 O 2819.74 0.685654 -2.1797 0
M  V30 31126 C 2819.95 -2.87734 -1.97509 0
M  V30 31127 C 2821.3 -3.40174 -2.541 0
M  V30 31128 O 2822.32 -2.89373 -2.07706 0
M  V30 31129 O 2821.18 -4.28847 -3.38752 0
M  V30 31130 H 2818.28 -0.626324 -0.540044 0
M  V30 31131 H 2820.82 -1.64102 -0.432263 0
M  V30 31132 H 2819.59 -3.68565 -1.31437 0
M  V30 31133 H 2819.22 -2.82503 -2.79782 0
M  V30 31134 N 2820.21 0.68054 -1.42149 0
M  V30 31135 C 2821.18 1.77599 -1.44883 0
M  V30 31136 C 2822.18 1.57224 -0.337236 0
M  V30 31137 O 2823.37 1.63621 -0.597807 0
M  V30 31138 C 2820.5 3.16164 -1.27489 0
M  V30 31139 H 2821.69 1.76564 -2.42415 0
M  V30 31140 H 2819.25 0.889622 -1.28512 0
M  V30 31141 H 2819.98 3.22829 -0.308567 0
M  V30 31142 H 2819.77 3.32356 -2.08043 0
M  V30 31143 H 2821.26 3.96098 -1.32272 0
M  V30 31144 N 2821.69 1.28226 0.916285 0
M  V30 31145 C 2822.63 1.06257 2.01952 0
M  V30 31146 C 2823.6 -0.0205698 1.62587 0
M  V30 31147 O 2824.79 0.126857 1.88073 0
M  V30 31148 C 2821.91 0.614199 3.33084 0
M  V30 31149 C 2820.96 1.69361 3.91432 0
M  V30 31150 S 2821.79 3.28895 4.22598 0
M  V30 31151 C 2822.95 2.85886 5.56795 0
M  V30 31152 H 2823.18 1.99663 2.20277 0
M  V30 31153 H 2820.72 1.12186 1.06083 0
M  V30 31154 H 2822.67 0.362202 4.08899 0
M  V30 31155 H 2821.33 -0.299981 3.12664 0
M  V30 31156 H 2820.53 1.33145 4.86095 0
M  V30 31157 H 2820.13 1.89827 3.22245 0
M  V30 31158 H 2822.42 2.31899 6.36576 0
M  V30 31159 H 2823.36 3.79337 5.97921 0
M  V30 31160 H 2823.77 2.24678 5.17861 0
M  V30 31161 N 2823.17 -1.12438 1.10433 0
M  V30 31162 C 2824.12 -2.20244 0.748012 0
M  V30 31163 C 2825.11 -1.67457 -0.255819 0
M  V30 31164 O 2826.32 -1.79625 -0.116189 0
M  V30 31165 H 2822.69 -0.717876 0.223959 0
M  V30 31166 H 2824.66 -2.47553 1.66614 0
M  V30 31167 C 2823.41 -3.47147 0.196018 0
M  V30 31168 H 2822.74 -3.88111 0.959674 0
M  V30 31169 H 2824.18 -4.23997 -0.0152408 0
M  V30 31170 C 2822.64 -3.19414 -1.07126 0
M  V30 31171 O 2823.17 -3.39143 -2.15278 0
M  V30 31172 N 2821.37 -2.73221 -0.989892 0
M  V30 31173 H 2820.92 -2.57366 -0.10969 0
M  V30 31174 H 2820.88 -2.55041 -1.83851 0
M  V30 31175 N 2824.65 -0.893076 -1.29853 0
M  V30 31176 C 2826.07 -0.588225 -1.48365 0
M  V30 31177 C 2826.27 0.871986 -1.81655 0
M  V30 31178 O 2825.32 1.65265 -1.90903 0
M  V30 31179 C 2826.63 -1.50835 -2.60133 0
M  V30 31180 C 2828.18 -1.51284 -2.74011 0
M  V30 31181 C 2828.66 -2.41909 -3.88901 0
M  V30 31182 N 2830.15 -2.39918 -3.96224 0
M  V30 31183 C 2830.88 -3.06747 -4.84452 0
M  V30 31184 N 2830.38 -3.8283 -5.77419 0
M  V30 31185 N 2832.17 -2.95938 -4.77888 0
M  V30 31186 H 2824.32 -1.83759 -1.06519 0
M  V30 31187 H 2826.59 -0.787027 -0.528481 0
M  V30 31188 H 2826.29 -2.54844 -2.42379 0
M  V30 31189 H 2826.17 -1.22394 -3.56791 0
M  V30 31190 H 2828.55 -0.48023 -2.91166 0
M  V30 31191 H 2828.63 -1.8376 -1.77949 0
M  V30 31192 H 2828.28 -3.4526 -3.72502 0
M  V30 31193 H 2828.21 -2.06746 -4.84318 0
M  V30 31194 H 2830.7 -1.84634 -3.29725 0
M  V30 31195 H 2831.01 -4.30894 -6.41522 0
M  V30 31196 H 2829.36 -3.86938 -5.77325 0
M  V30 31197 H 2832.55 -2.36019 -4.04244 0
M  V30 31198 H 2832.72 -3.48296 -5.46438 0
M  V30 31199 N 2826.13 1.4335 -0.654865 0
M  V30 31200 C 2827.04 2.34572 0.0363191 0
M  V30 31201 C 2828.05 1.53975 0.810405 0
M  V30 31202 O 2829.23 1.86621 0.757275 0
M  V30 31203 C 2826.29 3.32274 0.989675 0
M  V30 31204 C 2825.36 4.28775 0.212339 0
M  V30 31205 C 2824.59 5.2181 1.12028 0
M  V30 31206 O 2824.81 5.19307 2.35958 0
M  V30 31207 O 2823.75 5.98984 0.591805 0
M  V30 31208 H 2827.57 2.95174 -0.714579 0
M  V30 31209 H 2825.16 1.43519 -0.415055 0
M  V30 31210 H 2827.04 3.9235 1.53752 0
M  V30 31211 H 2825.71 2.74174 1.72077 0
M  V30 31212 H 2824.62 3.72174 -0.379127 0
M  V30 31213 H 2825.95 4.89861 -0.479224 0
M  V30 31214 N 2827.61 0.39689 1.52521 0
M  V30 31215 C 2828.85 -0.183133 2.01971 0
M  V30 31216 C 2829.18 -1.45825 1.28253 0
M  V30 31217 O 2828.46 -1.90647 0.385212 0
M  V30 31218 C 2828.74 -0.443328 3.57361 0
M  V30 31219 C 2828.6 0.847608 4.41742 0
M  V30 31220 C 2829.91 -1.23072 4.22541 0
M  V30 31221 H 2827.03 -0.0650847 0.734121 0
M  V30 31222 H 2829.68 0.52795 1.82518 0
M  V30 31223 H 2827.83 -1.04907 3.74068 0
M  V30 31224 H 2829.5 1.48422 4.36771 0
M  V30 31225 H 2827.74 1.46128 4.08447 0
M  V30 31226 H 2828.41 0.620099 5.48506 0
M  V30 31227 H 2830.89 -0.718012 4.09858 0
M  V30 31228 H 2829.76 -1.38152 5.3123 0
M  V30 31229 H 2830.02 -2.24802 3.80679 0
M  V30 31230 N 2829.08 -1.57088 0.126936 0
M  V30 31231 C 2830.31 -2.00249 -0.539935 0
M  V30 31232 C 2830.73 -1.00621 -1.58925 0
M  V30 31233 O 2830.09 0.0209812 -1.81288 0
M  V30 31234 C 2830.14 -3.42252 -1.13559 0
M  V30 31235 O 2829.24 -3.45551 -2.25097 0
M  V30 31236 H 2828.58 -0.650316 -0.134108 0
M  V30 31237 H 2831.11 -2.03438 0.217753 0
M  V30 31238 H 2831.12 -3.8063 -1.46919 0
M  V30 31239 H 2829.8 -4.14277 -0.367049 0
M  V30 31240 H 2828.38 -3.18999 -1.93117 0
M  V30 31241 N 2830.56 0.146848 -1.56914 0
M  V30 31242 C 2831.79 0.878353 -1.87882 0
M  V30 31243 C 2832.21 1.73941 -0.715975 0
M  V30 31244 O 2831.57 1.78189 0.334416 0
M  V30 31245 C 2831.62 1.71078 -3.17434 0
M  V30 31246 O 2830.72 2.81504 -3.01379 0
M  V30 31247 H 2830.06 0.244633 -0.617293 0
M  V30 31248 H 2832.59 0.137618 -2.04137 0
M  V30 31249 H 2832.6 2.10576 -3.49459 0
M  V30 31250 H 2831.28 1.07849 -4.01673 0
M  V30 31251 H 2829.85 2.45411 -2.80763 0
M  V30 31252 N 2832.04 1.52005 0.4162 0
M  V30 31253 C 2832.97 1.77797 1.51362 0
M  V30 31254 C 2833.95 0.628628 1.58058 0
M  V30 31255 O 2835.14 0.873509 1.73446 0
M  V30 31256 C 2832.27 1.92224 2.89253 0
M  V30 31257 C 2831.22 3.07785 2.9741 0
M  V30 31258 C 2830.55 3.07424 4.37486 0
M  V30 31259 C 2831.85 4.47374 2.69543 0
M  V30 31260 H 2833.54 2.69691 1.30028 0
M  V30 31261 H 2831.09 1.29773 0.624089 0
M  V30 31262 H 2833.04 2.08851 3.66004 0
M  V30 31263 H 2831.76 0.969972 3.11864 0
M  V30 31264 H 2830.42 2.90897 2.23102 0
M  V30 31265 H 2830.07 2.09933 4.57097 0
M  V30 31266 H 2829.77 3.85037 4.4387 0
M  V30 31267 H 2831.29 3.26171 5.16183 0
M  V30 31268 H 2832.71 4.64503 3.3602 0
M  V30 31269 H 2831.1 5.26851 2.87312 0
M  V30 31270 H 2832.17 4.55956 1.65021 0
M  V30 31271 N 2833.52 -0.672992 1.42508 0
M  V30 31272 C 2834.46 -1.78649 1.46127 0
M  V30 31273 C 2835.43 -1.63124 0.313036 0
M  V30 31274 O 2836.62 -1.83652 0.51737 0
M  V30 31275 C 2833.76 -3.16691 1.37116 0
M  V30 31276 C 2832.87 -3.4349 2.61989 0
M  V30 31277 C 2832.01 -4.71271 2.45107 0
M  V30 31278 C 2831.05 -4.9111 3.65345 0
M  V30 31279 N 2830.18 -6.10133 3.47394 0
M  V30 31280 H 2835.02 -1.7489 2.41283 0
M  V30 31281 H 2832.56 -0.853745 1.1979 0
M  V30 31282 H 2834.52 -3.96465 1.29888 0
M  V30 31283 H 2833.15 -3.19569 0.455546 0
M  V30 31284 H 2832.2 -2.57956 2.79576 0
M  V30 31285 H 2833.51 -3.54043 3.51361 0
M  V30 31286 H 2832.67 -5.59139 2.35475 0
M  V30 31287 H 2831.41 -4.63004 1.53227 0
M  V30 31288 H 2830.41 -4.01684 3.75407 0
M  V30 31289 H 2831.64 -5.01221 4.58208 0
M  V30 31290 H 2829.58 -6.03036 2.58233 0
M  V30 31291 H 2829.5 -6.21555 4.30355 0
M  V30 31292 H 2830.77 -7.00675 3.41578 0
M  V30 31293 N 2835 -1.2871 -0.909472 0
M  V30 31294 C 2835.94 -1.1287 -2.03379 0
M  V30 31295 C 2836.94 -0.0468372 -1.69335 0
M  V30 31296 O 2838.14 -0.205922 -1.78818 0
M  V30 31297 H 2834.52 -0.34836 -0.666445 0
M  V30 31298 H 2836.49 -2.0808 -2.13881 0
M  V30 31299 C 2835.24 -0.811801 -3.3809 0
M  V30 31300 H 2834.56 -1.63626 -3.64783 0
M  V30 31301 H 2836 -0.740942 -4.17476 0
M  V30 31302 C 2834.46 0.48462 -3.33396 0
M  V30 31303 O 2834.99 1.51364 -3.72091 0
M  V30 31304 N 2833.2 0.486911 -2.86492 0
M  V30 31305 H 2832.74 -0.350922 -2.55199 0
M  V30 31306 H 2832.7 1.35435 -2.83734 0
M  V30 31307 N 2836.47 1.1185 -1.11028 0
M  V30 31308 C 2837.42 2.17764 -0.764701 0
M  V30 31309 C 2838.39 1.64023 0.261825 0
M  V30 31310 O 2839.58 1.90288 0.139715 0
M  V30 31311 C 2836.72 3.44464 -0.209377 0
M  V30 31312 C 2835.83 4.12229 -1.29194 0
M  V30 31313 C 2834.96 5.26599 -0.697616 0
M  V30 31314 C 2834 5.86241 -1.76033 0
M  V30 31315 N 2833.14 6.92014 -1.18581 0
M  V30 31316 H 2837.98 2.4667 -1.67206 0
M  V30 31317 H 2835.52 1.21098 -0.835086 0
M  V30 31318 H 2837.47 4.16996 0.130526 0
M  V30 31319 H 2836.1 3.15956 0.661195 0
M  V30 31320 H 2835.16 3.37814 -1.74887 0
M  V30 31321 H 2836.47 4.52618 -2.09615 0
M  V30 31322 H 2835.62 6.0592 -0.307518 0
M  V30 31323 H 2834.36 4.87505 0.137958 0
M  V30 31324 H 2833.37 5.05602 -2.15979 0
M  V30 31325 H 2834.59 6.27404 -2.59886 0
M  V30 31326 H 2832.54 6.54945 -0.37181 0
M  V30 31327 H 2832.45 7.31034 -1.92678 0
M  V30 31328 H 2833.72 7.75149 -0.822466 0
M  V30 31329 N 2837.95 0.89995 1.29378 0
M  V30 31330 C 2838.88 0.3945 2.30143 0
M  V30 31331 C 2839.86 -0.530611 1.61612 0
M  V30 31332 O 2841.05 -0.441286 1.8912 0
M  V30 31333 C 2838.18 -0.378619 3.4523 0
M  V30 31334 C 2837.13 0.456087 4.25563 0
M  V30 31335 C 2836.46 -0.444544 5.32849 0
M  V30 31336 C 2837.76 1.70613 4.93648 0
M  V30 31337 H 2839.45 1.23657 2.7267 0
M  V30 31338 H 2837 0.596057 1.31085 0
M  V30 31339 H 2838.95 -0.742964 4.14799 0
M  V30 31340 H 2837.67 -1.25448 3.01547 0
M  V30 31341 H 2836.33 0.802767 3.57703 0
M  V30 31342 H 2835.98 -1.31854 4.85411 0
M  V30 31343 H 2835.68 0.110257 5.87497 0
M  V30 31344 H 2837.21 -0.805076 6.05269 0
M  V30 31345 H 2838.62 1.41151 5.55652 0
M  V30 31346 H 2837.02 2.20227 5.58229 0
M  V30 31347 H 2838.09 2.44197 4.18922 0
M  V30 31348 N 2839.43 -1.43001 0.662458 0
M  V30 31349 C 2840.85 -1.56133 0.330862 0
M  V30 31350 C 2841.05 -1.64443 -1.16451 0
M  V30 31351 O 2840.1 -1.60456 -1.94962 0
M  V30 31352 C 2841.42 -2.81759 1.05034 0
M  V30 31353 C 2842.96 -2.95516 1.03148 0
M  V30 31354 C 2843.44 -4.23987 1.73203 0
M  V30 31355 N 2844.93 -4.30872 1.70011 0
M  V30 31356 C 2845.66 -5.29065 2.21084 0
M  V30 31357 N 2845.16 -6.33483 2.80484 0
M  V30 31358 N 2846.95 -5.2078 2.1153 0
M  V30 31359 H 2839.1 -1.35851 1.63274 0
M  V30 31360 H 2841.37 -0.65308 0.687161 0
M  V30 31361 H 2841.07 -2.81714 2.10547 0
M  V30 31362 H 2840.95 -3.72272 0.60773 0
M  V30 31363 H 2843.33 -2.95096 -0.015282 0
M  V30 31364 H 2843.42 -2.06267 1.51286 0
M  V30 31365 H 2843.06 -4.25167 2.7784 0
M  V30 31366 H 2842.99 -5.12148 1.22524 0
M  V30 31367 H 2845.48 -3.56037 1.26673 0
M  V30 31368 H 2845.79 -7.04743 3.17107 0
M  V30 31369 H 2844.14 -6.3408 2.84549 0
M  V30 31370 H 2847.33 -4.38123 1.64821 0
M  V30 31371 H 2847.5 -5.97145 2.51639 0
M  V30 31372 N 2840.91 -0.404973 -1.52308 0
M  V30 31373 C 2842.32 -0.0556535 -1.59503 0
M  V30 31374 C 2842.52 1.43154 -1.41807 0
M  V30 31375 O 2841.58 2.19789 -1.24293 0
M  V30 31376 C 2842.89 -0.546853 -2.95686 0
M  V30 31377 C 2844.44 -0.504467 -3.08908 0
M  V30 31378 C 2844.92 -0.972109 -4.47565 0
M  V30 31379 N 2846.41 -0.928759 -4.53793 0
M  V30 31380 C 2847.14 -1.26183 -5.59344 0
M  V30 31381 N 2846.64 -1.66616 -6.72466 0
M  V30 31382 N 2848.43 -1.18207 -5.4953 0
M  V30 31383 H 2840.58 -1.37299 -1.62058 0
M  V30 31384 H 2842.85 -0.563764 -0.762151 0
M  V30 31385 H 2842.55 -1.58614 -3.13902 0
M  V30 31386 H 2842.43 0.0457242 -3.77172 0
M  V30 31387 H 2844.81 0.525768 -2.90379 0
M  V30 31388 H 2844.89 -1.13305 -2.29338 0
M  V30 31389 H 2844.54 -2.00065 -4.66837 0
M  V30 31390 H 2844.47 -0.320384 -5.25624 0
M  V30 31391 H 2846.96 -0.631434 -3.72587 0
M  V30 31392 H 2847.27 -1.90353 -7.4899 0
M  V30 31393 H 2845.62 -1.70516 -6.73758 0
M  V30 31394 H 2848.81 -0.865092 -4.60037 0
M  V30 31395 H 2848.98 -1.44496 -6.31684 0
M  V30 31396 N 2842.39 1.57018 -0.135265 0
M  V30 31397 C 2843.63 1.95356 0.517735 0
M  V30 31398 C 2843.96 1.02045 1.66168 0
M  V30 31399 O 2843.23 0.0797687 1.95738 0
M  V30 31400 H 2841.81 0.721301 0.194252 0
M  V30 31401 H 2844.47 1.93787 -0.208017 0
M  V30 31402 H 2843.56 2.98793 0.901622 0
M  V30 31403 N 2843.86 -0.138524 1.5699 0
M  V30 31404 C 2845.14 -0.87888 1.74743 0
M  V30 31405 C 2845.52 -1.9896 0.705557 0
M  V30 31406 O 2844.87 -2.26851 -0.274026 0
M  V30 31407 C 2845.08 -1.41355 3.19092 0
M  V30 31408 C 2846.43 -1.87362 3.81026 0
M  V30 31409 O 2847.45 -1.51078 3.22574 0
M  V30 31410 O 2846.31 -2.54304 4.83727 0
M  V30 31411 H 2843.4 -0.41594 0.714788 0
M  V30 31412 H 2845.95 -0.123787 1.69248 0
M  V30 31413 H 2844.72 -0.615722 3.86425 0
M  V30 31414 H 2844.35 -2.23191 3.29047 0
M  V30 31415 N 2845.34 -1.52224 -0.408133 0
M  V30 31416 C 2846.27 -1.78598 -1.50416 0
M  V30 31417 C 2847.25 -0.637002 -1.57722 0
M  V30 31418 O 2848.44 -0.882695 -1.7298 0
M  V30 31419 C 2845.57 -1.93756 -2.88229 0
M  V30 31420 C 2844.52 -3.09358 -2.95773 0
M  V30 31421 C 2843.85 -3.0974 -4.3585 0
M  V30 31422 C 2845.15 -4.48797 -2.67167 0
M  V30 31423 H 2846.84 -2.70376 -1.28596 0
M  V30 31424 H 2844.39 -1.30103 -0.617198 0
M  V30 31425 H 2846.34 -2.10789 -3.64892 0
M  V30 31426 H 2845.07 -0.986497 -3.11345 0
M  V30 31427 H 2843.72 -2.92076 -2.21556 0
M  V30 31428 H 2843.37 -2.12354 -4.55977 0
M  V30 31429 H 2843.07 -3.87385 -4.41822 0
M  V30 31430 H 2844.6 -3.28904 -5.14446 0
M  V30 31431 H 2846.01 -4.66279 -3.33552 0
M  V30 31432 H 2844.41 -5.28367 -2.84514 0
M  V30 31433 H 2845.48 -4.56825 -1.62601 0
M  V30 31434 N 2846.82 0.665425 -1.42863 0
M  V30 31435 C 2848.23 1.24629 -1.39012 0
M  V30 31436 C 2848.58 1.96002 -0.0880629 0
M  V30 31437 O 2847.71 2.00551 0.812912 0
M  V30 31438 C 2848.3 2.26666 -2.51809 0
M  V30 31439 C 2846.86 2.80258 -2.51262 0
M  V30 31440 C 2846.01 1.54716 -2.30127 0
M  V30 31441 H 2848.96 0.45821 -1.51941 0
M  V30 31442 H 2848.98 3.08594 -2.22598 0
M  V30 31443 H 2848.49 1.74691 -3.46561 0
M  V30 31444 H 2846.59 3.36329 -1.60355 0
M  V30 31445 H 2846.71 3.28635 -3.4862 0
M  V30 31446 H 2845.07 1.81624 -1.78563 0
M  V30 31447 H 2845.85 1.04693 -3.26947 0
M  V30 31448 N 2848.3 1.29191 0.902633 0
M  V30 31449 C 2849.55 1.16992 1.65285 0
M  V30 31450 C 2849.87 -0.279198 1.92486 0
M  V30 31451 O 2849.13 -1.2184 1.53145 0
M  V30 31452 C 2849.43 1.9255 3.01097 0
M  V30 31453 C 2849.09 3.42286 2.93515 0
M  V30 31454 C 2847.76 3.83122 2.91155 0
M  V30 31455 C 2850.11 4.37715 2.82939 0
M  V30 31456 C 2847.44 5.17709 2.76034 0
M  V30 31457 C 2849.79 5.72389 2.69358 0
M  V30 31458 C 2848.45 6.12486 2.65362 0
M  V30 31459 H 2847.72 0.428104 0.60482 0
M  V30 31460 H 2850.37 1.60094 1.05081 0
M  V30 31461 H 2848.67 1.4203 3.6515 0
M  V30 31462 H 2850.37 1.80518 3.5807 0
M  V30 31463 H 2846.96 3.09825 2.96153 0
M  V30 31464 H 2851.14 4.07121 2.83842 0
M  V30 31465 H 2846.4 5.4789 2.71343 0
M  V30 31466 H 2850.57 6.45986 2.60145 0
M  V30 31467 H 2848.2 7.16722 2.53403 0
M  V30 31468 N 2849.78 -1.1126 1.1162 0
M  V30 31469 C 2851.02 -1.83309 0.867495 0
M  V30 31470 C 2851.36 -1.84525 -0.605333 0
M  V30 31471 O 2850.63 -1.29968 -1.44702 0
M  V30 31472 C 2850.91 -3.30397 1.43213 0
M  V30 31473 C 2850.77 -3.37565 2.97271 0
M  V30 31474 C 2852.09 -4.26526 1.08461 0
M  V30 31475 H 2849.2 -0.665537 0.31659 0
M  V30 31476 H 2851.85 -1.30452 1.38139 0
M  V30 31477 H 2850 -3.75541 0.995048 0
M  V30 31478 H 2851.67 -3.00965 3.49596 0
M  V30 31479 H 2849.91 -2.77727 3.33242 0
M  V30 31480 H 2850.58 -4.41099 3.31867 0
M  V30 31481 H 2853.06 -3.89571 1.46196 0
M  V30 31482 H 2851.93 -5.27824 1.50643 0
M  V30 31483 H 2852.2 -4.421 -0.00436797 0
M  V30 31484 N 2851.25 -0.906798 -1.28899 0
M  V30 31485 C 2852.5 -0.537155 -1.95557 0
M  V30 31486 C 2852.83 0.915552 -1.71264 0
M  V30 31487 O 2852.11 1.65011 -1.02964 0
M  V30 31488 C 2852.39 -0.838707 -3.50197 0
M  V30 31489 C 2852.24 -2.34364 -3.83919 0
M  V30 31490 C 2853.56 -0.330065 -4.38861 0
M  V30 31491 H 2850.68 -0.19663 -0.710286 0
M  V30 31492 H 2853.32 -1.13478 -1.5239 0
M  V30 31493 H 2851.47 -0.330092 -3.87095 0
M  V30 31494 H 2853.15 -2.92234 -3.56928 0
M  V30 31495 H 2851.39 -2.80147 -3.3121 0
M  V30 31496 H 2852.06 -2.50519 -4.91878 0
M  V30 31497 H 2854.54 -0.765681 -4.08995 0
M  V30 31498 H 2853.41 -0.5702 -5.4593 0
M  V30 31499 H 2853.67 0.769435 -4.35353 0
M  V30 31500 N 2852.73 1.42648 -0.670032 0
M  V30 31501 C 2854.14 1.84764 -0.26815 0
M  V30 31502 C 2854.49 1.56088 1.18874 0
M  V30 31503 O 2853.62 1.01828 1.90945 0
M  V30 31504 C 2854.21 3.35384 -0.479899 0
M  V30 31505 C 2852.77 3.76168 -0.132182 0
M  V30 31506 C 2851.92 2.6626 -0.774658 0
M  V30 31507 H 2854.87 1.32562 -0.872532 0
M  V30 31508 H 2854.89 3.79545 0.269455 0
M  V30 31509 H 2854.4 3.56224 -1.54033 0
M  V30 31510 H 2852.51 3.60936 0.924987 0
M  V30 31511 H 2852.62 4.75705 -0.569377 0
M  V30 31512 H 2850.98 2.53862 -0.206398 0
M  V30 31513 H 2851.77 2.89924 -1.83844 0
M  V30 31514 N 2854.21 0.413044 1.52091 0
M  V30 31515 C 2855.63 0.0641116 1.59471 0
M  V30 31516 C 2855.83 -1.42399 1.42565 0
M  V30 31517 O 2854.88 -2.19127 1.25457 0
M  V30 31518 C 2856.2 0.562526 2.95391 0
M  V30 31519 C 2857.74 0.520842 3.08636 0
M  V30 31520 C 2858.22 0.995831 4.47043 0
M  V30 31521 N 2859.71 0.952812 4.53294 0
M  V30 31522 C 2860.45 1.29148 5.58667 0
M  V30 31523 N 2859.94 1.7018 6.71573 0
M  V30 31524 N 2861.73 1.2112 5.48896 0
M  V30 31525 H 2853.89 1.38156 1.61328 0
M  V30 31526 H 2856.15 0.567798 0.75915 0
M  V30 31527 H 2855.85 1.60277 3.13056 0
M  V30 31528 H 2855.73 -0.0257212 3.77191 0
M  V30 31529 H 2858.12 -0.510361 2.90653 0
M  V30 31530 H 2858.2 1.14519 2.28733 0
M  V30 31531 H 2857.84 2.02538 4.65769 0
M  V30 31532 H 2857.77 0.348255 5.25447 0
M  V30 31533 H 2860.26 0.651184 3.72247 0
M  V30 31534 H 2860.57 1.94323 7.4797 0
M  V30 31535 H 2858.92 1.74087 6.72844 0
M  V30 31536 H 2862.11 0.889477 4.59571 0
M  V30 31537 H 2862.28 1.47844 6.30909 0
M  V30 31538 N 2855.69 -1.56945 0.143591 0
M  V30 31539 C 2857.11 -1.58174 -0.212849 0
M  V30 31540 C 2857.31 -1.15768 -1.64924 0
M  V30 31541 O 2856.36 -0.856402 -2.37533 0
M  V30 31542 C 2857.67 -3.0067 0.0428101 0
M  V30 31543 C 2859.22 -3.12993 -0.0211671 0
M  V30 31544 C 2859.7 -4.57531 0.207116 0
M  V30 31545 N 2861.19 -4.62944 0.153927 0
M  V30 31546 C 2861.92 -5.72588 0.305119 0
M  V30 31547 N 2861.42 -6.90892 0.513844 0
M  V30 31548 N 2863.21 -5.61575 0.242961 0
M  V30 31549 H 2855.36 -1.82804 1.08151 0
M  V30 31550 H 2857.63 -0.845962 0.427846 0
M  V30 31551 H 2857.33 -3.36071 1.03678 0
M  V30 31552 H 2857.21 -3.71054 -0.67813 0
M  V30 31553 H 2859.59 -2.77435 -1.00569 0
M  V30 31554 H 2859.67 -2.45101 0.732047 0
M  V30 31555 H 2859.32 -4.93793 1.18872 0
M  V30 31556 H 2859.25 -5.23545 -0.566381 0
M  V30 31557 H 2861.74 -3.779 -0.00288224 0
M  V30 31558 H 2862.05 -7.70314 0.619409 0
M  V30 31559 H 2860.4 -6.92819 0.550123 0
M  V30 31560 H 2863.59 -4.6803 0.0806838 0
M  V30 31561 H 2863.76 -6.46976 0.364226 0
M  V30 31562 N 2857.17 0.130197 -1.57061 0
M  V30 31563 C 2858.1 1.19025 -1.947 0
M  V30 31564 C 2859.08 1.40694 -0.815099 0
M  V30 31565 O 2860.26 1.55032 -1.07226 0
M  V30 31566 C 2857.39 2.54617 -2.23356 0
M  V30 31567 C 2856.44 2.49442 -3.45949 0
M  V30 31568 S 2857.27 1.94497 -4.9893 0
M  V30 31569 C 2858.42 3.31783 -5.30727 0
M  V30 31570 H 2858.66 0.869222 -2.84309 0
M  V30 31571 H 2856.19 0.336504 -1.50688 0
M  V30 31572 H 2858.15 3.32638 -2.40545 0
M  V30 31573 H 2856.81 2.83902 -1.34381 0
M  V30 31574 H 2856 3.49295 -3.6333 0
M  V30 31575 H 2855.6 1.79537 -3.28089 0
M  V30 31576 H 2857.9 4.27957 -5.25223 0
M  V30 31577 H 2858.84 3.1924 -6.32053 0
M  V30 31578 H 2859.25 3.29695 -4.58216 0
M  V30 31579 N 2858.65 1.52438 0.400055 0
M  V30 31580 C 2859.61 1.75795 1.47067 0
M  V30 31581 C 2860.61 0.627882 1.48035 0
M  V30 31582 O 2861.8 0.895843 1.494 0
M  V30 31583 C 2858.93 1.84863 2.86424 0
M  V30 31584 H 2860.12 2.7138 1.27644 0
M  V30 31585 H 2857.68 1.42992 0.631116 0
M  V30 31586 H 2858.41 0.912249 3.11205 0
M  V30 31587 H 2858.2 2.67026 2.87123 0
M  V30 31588 H 2859.69 2.04645 3.6402 0
M  V30 31589 N 2860.12 -0.657839 1.43214 0
M  V30 31590 C 2861.54 -0.972969 1.26513 0
M  V30 31591 C 2861.74 -2.00681 0.181512 0
M  V30 31592 O 2860.8 -2.48608 -0.441606 0
M  V30 31593 C 2862.11 -1.46163 2.62787 0
M  V30 31594 C 2863.66 -1.57852 2.70281 0
M  V30 31595 C 2864.13 -2.1011 4.06962 0
M  V30 31596 N 2865.62 -2.17419 4.09003 0
M  V30 31597 C 2866.36 -2.58966 5.1159 0
M  V30 31598 N 2865.85 -2.99842 6.24553 0
M  V30 31599 N 2867.65 -2.58865 4.98944 0
M  V30 31600 H 2859.8 0.0263503 2.12384 0
M  V30 31601 H 2862.06 -0.0507825 0.946639 0
M  V30 31602 H 2861.77 -0.776413 3.43023 0
M  V30 31603 H 2861.64 -2.43746 2.87867 0
M  V30 31604 H 2864.03 -2.25476 1.9038 0
M  V30 31605 H 2864.11 -0.587135 2.48971 0
M  V30 31606 H 2863.75 -1.43089 4.87327 0
M  V30 31607 H 2863.68 -3.10071 4.25633 0
M  V30 31608 H 2866.17 -1.88621 3.27461 0
M  V30 31609 H 2866.49 -3.3028 6.98667 0
M  V30 31610 H 2864.83 -2.97658 6.28032 0
M  V30 31611 H 2868.02 -2.26304 4.09761 0
M  V30 31612 H 2868.2 -2.90922 5.79024 0
M  V30 31613 N 2861.6 -1.29668 -0.895769 0
M  V30 31614 C 2862.55 -1.15132 -2.00033 0
M  V30 31615 C 2863.52 -0.0436111 -1.66043 0
M  V30 31616 O 2864.7 -0.211844 -1.8962 0
M  V30 31617 C 2861.84 -0.837929 -3.34773 0
M  V30 31618 C 2860.96 -2.02646 -3.81521 0
M  V30 31619 C 2860.09 -1.6521 -5.04855 0
M  V30 31620 C 2859.13 -2.80622 -5.43983 0
M  V30 31621 N 2858.27 -2.43555 -6.58502 0
M  V30 31622 H 2863.11 -2.09632 -2.11798 0
M  V30 31623 H 2860.64 -1.04313 -1.03717 0
M  V30 31624 H 2862.6 -0.636896 -4.1231 0
M  V30 31625 H 2861.23 0.0701746 -3.22724 0
M  V30 31626 H 2860.28 -2.33908 -2.99985 0
M  V30 31627 H 2861.6 -2.89113 -4.06467 0
M  V30 31628 H 2860.75 -1.41419 -5.89988 0
M  V30 31629 H 2859.49 -0.758977 -4.81758 0
M  V30 31630 H 2858.49 -3.05091 -4.57383 0
M  V30 31631 H 2859.72 -3.70605 -5.6906 0
M  V30 31632 H 2857.67 -1.56735 -6.37001 0
M  V30 31633 H 2857.58 -3.23555 -6.83263 0
M  V30 31634 H 2858.85 -2.23093 -7.46893 0
M  V30 31635 N 2863.08 1.10667 -1.12208 0
M  V30 31636 C 2864.33 1.82216 -0.874176 0
M  V30 31637 C 2864.65 1.85485 0.601703 0
M  V30 31638 O 2863.92 1.33118 1.43723 0
M  V30 31639 H 2862.5 0.674791 -0.320416 0
M  V30 31640 H 2865.16 1.33915 -1.41608 0
M  V30 31641 H 2864.26 2.85819 -1.25354 0
M  V30 31642 N 2864.56 0.913621 1.28416 0
M  V30 31643 C 2865.52 0.406663 2.25563 0
M  V30 31644 C 2866.52 -0.466938 1.53871 0
M  V30 31645 O 2867.71 -0.270012 1.72095 0
M  V30 31646 C 2864.84 -0.416993 3.3834 0
M  V30 31647 H 2866.04 1.26482 2.71923 0
M  V30 31648 H 2863.59 0.693011 1.40097 0
M  V30 31649 H 2864.32 -1.29456 2.97341 0
M  V30 31650 H 2864.11 0.209171 3.91542 0
M  V30 31651 H 2865.6 -0.76253 4.10579 0
M  V30 31652 N 2866.04 -1.4229 0.677588 0
M  V30 31653 C 2867.28 -2.01102 0.200613 0
M  V30 31654 C 2867.6 -1.5386 -1.198 0
M  V30 31655 O 2866.87 -0.761471 -1.80495 0
M  V30 31656 H 2865.45 -0.743601 0.0711765 0
M  V30 31657 H 2868.12 -1.74168 0.874721 0
M  V30 31658 H 2867.21 -3.11432 0.204055 0
M  V30 31659 N 2867.51 -0.421104 -1.5187 0
M  V30 31660 C 2868.79 0.209896 -1.94471 0
M  V30 31661 C 2869.17 1.61556 -1.35878 0
M  V30 31662 O 2868.52 2.22044 -0.539333 0
M  V30 31663 C 2868.73 0.204103 -3.48403 0
M  V30 31664 C 2870.08 0.417622 -4.22541 0
M  V30 31665 O 2871.1 0.282937 -3.55075 0
M  V30 31666 O 2869.96 0.684144 -5.42201 0
M  V30 31667 H 2867.05 0.138704 -0.815285 0
M  V30 31668 H 2869.6 -0.477913 -1.62831 0
M  V30 31669 H 2868.37 -0.77925 -3.83462 0
M  V30 31670 H 2867.99 0.935508 -3.86438 0
M  V30 31671 N 2868.99 1.56866 -0.151912 0
M  V30 31672 C 2870.24 1.95894 0.496986 0
M  V30 31673 C 2870.56 1.03802 1.65076 0
M  V30 31674 O 2869.83 0.100525 1.95642 0
M  V30 31675 H 2868.41 0.723321 0.18659 0
M  V30 31676 H 2871.07 1.93555 -0.228559 0
M  V30 31677 H 2870.17 2.99732 0.86988 0
M  V30 31678 N 2870.47 -0.121866 1.57128 0
M  V30 31679 C 2871.7 -0.848351 1.89256 0
M  V30 31680 C 2872.12 -1.7278 0.743557 0
M  V30 31681 O 2871.48 -1.78699 -0.306025 0
M  V30 31682 C 2871.53 -1.66007 3.20116 0
M  V30 31683 O 2870.63 -2.76673 3.05819 0
M  V30 31684 H 2869.97 -0.234782 0.621107 0
M  V30 31685 H 2872.5 -0.105124 2.0433 0
M  V30 31686 H 2872.51 -2.0499 3.52765 0
M  V30 31687 H 2871.19 -1.01445 4.03338 0
M  V30 31688 H 2869.76 -2.40913 2.84632 0
M  V30 31689 N 2871.95 -1.52648 -0.391965 0
M  V30 31690 C 2873.23 -1.58125 -1.15133 0
M  V30 31691 C 2873.61 -0.372633 -2.07785 0
M  V30 31692 O 2872.95 0.639265 -2.19376 0
M  V30 31693 C 2873.16 -2.91859 -1.91362 0
M  V30 31694 C 2874.51 -3.45487 -2.46827 0
M  V30 31695 O 2875.54 -2.93713 -2.01521 0
M  V30 31696 O 2874.39 -4.35936 -3.29579 0
M  V30 31697 H 2871.49 -0.637638 -0.526637 0
M  V30 31698 H 2874.03 -1.64982 -0.397357 0
M  V30 31699 H 2872.81 -3.7127 -1.2359 0
M  V30 31700 H 2872.43 -2.88374 -2.73727 0
M  V30 31701 N 2873.43 0.650235 -1.43561 0
M  V30 31702 C 2874.34 1.79204 -1.51404 0
M  V30 31703 C 2875.35 1.69318 -0.400925 0
M  V30 31704 O 2876.53 1.90434 -0.655491 0
M  V30 31705 C 2873.59 3.15498 -1.43743 0
M  V30 31706 C 2872.65 3.37159 -2.65749 0
M  V30 31707 C 2871.89 4.6695 -2.58444 0
M  V30 31708 O 2872.11 5.465 -1.63384 0
M  V30 31709 O 2871.04 4.90395 -3.48993 0
M  V30 31710 H 2874.87 1.75542 -2.47828 0
M  V30 31711 H 2872.46 0.809089 -1.25595 0
M  V30 31712 H 2874.34 3.96782 -1.41923 0
M  V30 31713 H 2873.01 3.19744 -0.504544 0
M  V30 31714 H 2871.92 2.55627 -2.7314 0
M  V30 31715 H 2873.25 3.37761 -3.5802 0
M  V30 31716 N 2874.9 1.30141 0.88888 0
M  V30 31717 C 2875.81 1.18104 2.02703 0
M  V30 31718 C 2876.83 0.10184 1.73702 0
M  V30 31719 O 2878.01 0.316019 1.98905 0
M  V30 31720 C 2875.07 0.86971 3.35614 0
M  V30 31721 C 2874.13 2.03388 3.78063 0
M  V30 31722 C 2873.37 1.7373 5.04632 0
M  V30 31723 O 2873.59 0.663366 5.66529 0
M  V30 31724 O 2872.52 2.58855 5.43395 0
M  V30 31725 H 2876.35 2.13707 2.15784 0
M  V30 31726 H 2873.93 1.09697 1.01424 0
M  V30 31727 H 2875.82 0.711116 4.15357 0
M  V30 31728 H 2874.49 -0.0564433 3.23651 0
M  V30 31729 H 2873.4 2.24777 2.99042 0
M  V30 31730 H 2874.73 2.94162 3.94626 0
M  V30 31731 N 2876.38 -1.1007 1.12794 0
M  V30 31732 C 2877.63 -1.82379 0.886889 0
M  V30 31733 C 2877.96 -1.85156 -0.585728 0
M  V30 31734 O 2877.24 -1.31495 -1.43315 0
M  V30 31735 C 2877.52 -3.28859 1.46709 0
M  V30 31736 C 2877.37 -3.34393 3.00835 0
M  V30 31737 C 2878.69 -4.25351 1.12979 0
M  V30 31738 H 2875.81 -0.662142 0.323631 0
M  V30 31739 H 2878.45 -1.28979 1.39515 0
M  V30 31740 H 2876.6 -3.74464 1.03482 0
M  V30 31741 H 2878.27 -2.9724 3.52769 0
M  V30 31742 H 2876.52 -2.74177 3.36169 0
M  V30 31743 H 2877.19 -4.37554 3.36527 0
M  V30 31744 H 2879.66 -3.87999 1.5032 0
M  V30 31745 H 2878.54 -5.26196 1.56232 0
M  V30 31746 H 2878.8 -4.4208 0.0425229 0
M  V30 31747 N 2877.86 -0.920419 -1.2793 0
M  V30 31748 C 2879.14 -0.475721 -1.89727 0
M  V30 31749 C 2879.52 1.04584 -1.83372 0
M  V30 31750 O 2878.87 1.89683 -1.27408 0
M  V30 31751 C 2879.08 -1.0136 -3.33957 0
M  V30 31752 C 2880.42 -1.0697 -4.10905 0
M  V30 31753 O 2881.45 -0.962707 -3.42944 0
M  V30 31754 O 2880.31 -1.23352 -5.32397 0
M  V30 31755 H 2877.4 -0.151859 -0.812938 0
M  V30 31756 H 2879.95 -1.01164 -1.3625 0
M  V30 31757 H 2878.72 -2.05752 -3.32839 0
M  V30 31758 H 2878.34 -0.458898 -3.94943 0
M  V30 31759 N 2879.34 1.41929 -0.685124 0
M  V30 31760 C 2880.59 2.00993 -0.211275 0
M  V30 31761 C 2880.91 1.54494 1.18982 0
M  V30 31762 O 2880.18 0.771032 1.80089 0
M  V30 31763 H 2878.76 0.743213 -0.075119 0
M  V30 31764 H 2881.42 1.73702 -0.883946 0
M  V30 31765 H 2880.52 3.1132 -0.220568 0
M  V30 31766 N 2880.82 0.429152 1.51644 0
M  V30 31767 C 2881.76 -0.386406 2.27542 0
M  V30 31768 C 2882.73 -1.02391 1.30788 0
M  V30 31769 O 2883.92 -1.04437 1.59679 0
M  V30 31770 C 2881.06 -1.48617 3.11459 0
M  V30 31771 C 2880.17 -0.867617 4.23198 0
M  V30 31772 C 2879.31 -1.94175 4.94439 0
M  V30 31773 C 2878.35 -1.30119 5.9811 0
M  V30 31774 N 2877.48 -2.31633 6.6279 0
M  V30 31775 H 2882.32 0.267207 2.968 0
M  V30 31776 H 2879.86 0.143616 1.46397 0
M  V30 31777 H 2881.82 -2.13499 3.58433 0
M  V30 31778 H 2880.45 -2.10953 2.44333 0
M  V30 31779 H 2879.5 -0.107306 3.80249 0
M  V30 31780 H 2880.81 -0.359883 4.975 0
M  V30 31781 H 2879.97 -2.66738 5.44918 0
M  V30 31782 H 2878.7 -2.48319 4.19749 0
M  V30 31783 H 2877.71 -0.560986 5.46931 0
M  V30 31784 H 2878.93 -0.767185 6.74753 0
M  V30 31785 H 2876.88 -2.84872 5.90918 0
M  V30 31786 H 2876.8 -1.85728 7.32831 0
M  V30 31787 H 2878.07 -3.03704 7.17903 0
M  V30 31788 N 2882.29 -1.56783 0.160229 0
M  V30 31789 C 2883.26 -2.1622 -0.760367 0
M  V30 31790 C 2884.26 -1.10737 -1.16593 0
M  V30 31791 O 2885.45 -1.36308 -1.0847 0
M  V30 31792 C 2882.58 -2.73606 -2.03353 0
M  V30 31793 H 2883.77 -2.98913 -0.24312 0
M  V30 31794 H 2881.33 -1.56045 -0.0892864 0
M  V30 31795 H 2882.06 -1.94616 -2.59413 0
M  V30 31796 H 2881.85 -3.50791 -1.7518 0
M  V30 31797 H 2883.34 -3.19356 -2.69075 0
M  V30 31798 N 2883.77 0.113531 -1.57191 0
M  V30 31799 C 2885.05 0.850968 -1.76119 0
M  V30 31800 C 2885.43 1.97812 -0.73712 0
M  V30 31801 O 2884.78 2.27258 0.237902 0
M  V30 31802 C 2884.99 1.3626 -3.21301 0
M  V30 31803 C 2886.34 1.81276 -3.83958 0
M  V30 31804 O 2887.36 1.45927 -3.24937 0
M  V30 31805 O 2886.22 2.46576 -4.87711 0
M  V30 31806 H 2883.31 0.404516 -0.721315 0
M  V30 31807 H 2885.86 0.0968458 -1.69423 0
M  V30 31808 H 2884.63 0.554167 -3.87356 0
M  V30 31809 H 2884.25 2.17928 -3.32556 0
M  V30 31810 N 2885.25 1.52854 0.383864 0
M  V30 31811 C 2886.5 1.67816 1.12616 0
M  V30 31812 C 2886.82 0.423174 1.90353 0
M  V30 31813 O 2886.09 -0.562521 1.8765 0
M  V30 31814 H 2884.67 0.618609 0.418727 0
M  V30 31815 H 2887.33 1.89985 0.434917 0
M  V30 31816 H 2886.43 2.53094 1.8262 0
M  V30 31817 N 2886.73 -0.642612 1.43904 0
M  V30 31818 C 2887.69 -1.73696 1.49541 0
M  V30 31819 C 2888.69 -1.56275 0.378803 0
M  V30 31820 O 2889.88 -1.61979 0.640978 0
M  V30 31821 C 2887.01 -3.12672 1.35826 0
M  V30 31822 H 2888.21 -1.70075 2.47011 0
M  V30 31823 H 2885.76 -0.855237 1.30826 0
M  V30 31824 H 2886.5 -3.21897 0.394051 0
M  V30 31825 H 2886.28 -3.26723 2.16782 0
M  V30 31826 H 2887.77 -3.92452 1.42727 0
M  V30 31827 N 2888.21 -1.30611 -0.881966 0
M  V30 31828 C 2889.12 -1.19178 -2.02074 0
M  V30 31829 C 2890.13 -0.11105 -1.73645 0
M  V30 31830 O 2891.31 -0.326563 -1.98735 0
M  V30 31831 C 2888.37 -0.887496 -3.35148 0
M  V30 31832 C 2887.44 -2.0539 -3.76979 0
M  V30 31833 C 2886.67 -1.76404 -5.03704 0
M  V30 31834 O 2886.89 -0.693401 -5.6617 0
M  V30 31835 O 2885.83 -2.61733 -5.42014 0
M  V30 31836 H 2889.65 -2.14849 -2.14648 0
M  V30 31837 H 2887.24 -1.10233 -1.00841 0
M  V30 31838 H 2889.12 -0.733133 -4.14974 0
M  V30 31839 H 2887.79 0.0392785 -3.23676 0
M  V30 31840 H 2886.7 -2.2636 -2.97845 0
M  V30 31841 H 2888.03 -2.9625 -3.93061 0
M  V30 31842 N 2889.69 1.0947 -1.13376 0
M  V30 31843 C 2890.65 2.14271 -0.813677 0
M  V30 31844 C 2891.65 1.59827 0.176648 0
M  V30 31845 O 2892.84 1.74127 -0.0503747 0
M  V30 31846 C 2889.97 3.40247 -0.210957 0
M  V30 31847 H 2891.16 2.44096 -1.74233 0
M  V30 31848 H 2888.72 1.25001 -0.938326 0
M  V30 31849 H 2889.45 3.16048 0.726942 0
M  V30 31850 H 2889.24 3.81054 -0.924115 0
M  V30 31851 H 2890.73 4.176 -0.00384943 0
M  V30 31852 N 2891.16 0.92719 1.2744 0
M  V30 31853 C 2892.11 0.424499 2.26863 0
M  V30 31854 C 2893.08 -0.508319 1.58131 0
M  V30 31855 O 2894.27 -0.427587 1.85947 0
M  V30 31856 C 2891.41 -0.317119 3.4364 0
M  V30 31857 C 2890.52 0.64975 4.27086 0
M  V30 31858 C 2889.65 -0.11166 5.31083 0
M  V30 31859 C 2888.69 0.847949 6.06198 0
M  V30 31860 N 2887.83 0.119198 7.01999 0
M  V30 31861 H 2892.67 1.27732 2.69237 0
M  V30 31862 H 2890.21 0.64113 1.32393 0
M  V30 31863 H 2892.16 -0.763413 4.10156 0
M  V30 31864 H 2890.79 -1.13419 3.02219 0
M  V30 31865 H 2889.85 1.21457 3.60489 0
M  V30 31866 H 2891.16 1.38315 4.79239 0
M  V30 31867 H 2890.31 -0.617894 6.03545 0
M  V30 31868 H 2889.05 -0.87803 4.79731 0
M  V30 31869 H 2888.06 1.36544 5.32575 0
M  V30 31870 H 2889.28 1.61409 6.59639 0
M  V30 31871 H 2887.23 -0.628936 6.52978 0
M  V30 31872 H 2887.14 0.792178 7.51838 0
M  V30 31873 H 2888.41 -0.3664 7.78638 0
M  V30 31874 N 2892.64 -1.41564 0.692641 0
M  V30 31875 C 2894.05 -1.84314 0.297511 0
M  V30 31876 C 2894.4 -1.57959 -1.16376 0
M  V30 31877 O 2893.53 -1.04853 -1.89301 0
M  V30 31878 C 2894.12 -3.34578 0.533195 0
M  V30 31879 C 2892.68 -3.7591 0.19201 0
M  V30 31880 C 2891.83 -2.64994 0.816919 0
M  V30 31881 H 2894.78 -1.31157 0.893511 0
M  V30 31882 H 2894.8 -3.79925 -0.209039 0
M  V30 31883 H 2894.31 -3.53728 1.5968 0
M  V30 31884 H 2892.41 -3.62362 -0.867448 0
M  V30 31885 H 2892.53 -4.74739 0.644986 0
M  V30 31886 H 2890.89 -2.53502 0.246759 0
M  V30 31887 H 2891.67 -2.86963 1.88434 0
M  V30 31888 N 2894.12 -0.437188 -1.51415 0
M  V30 31889 C 2895.08 0.362689 -2.26312 0
M  V30 31890 C 2896.08 0.949824 -1.2975 0
M  V30 31891 O 2897.27 0.824298 -1.53463 0
M  V30 31892 C 2894.4 1.51314 -3.05478 0
M  V30 31893 H 2895.6 -0.293703 -2.98458 0
M  V30 31894 H 2893.15 -0.190354 -1.55137 0
M  V30 31895 H 2893.89 2.20559 -2.37748 0
M  V30 31896 H 2893.67 1.09831 -3.76403 0
M  V30 31897 H 2895.16 2.07827 -3.62212 0
M  V30 31898 N 2895.6 1.56696 -0.168541 0
M  V30 31899 C 2896.51 2.21415 0.775396 0
M  V30 31900 C 2897.52 1.20494 1.25527 0
M  V30 31901 O 2898.7 1.53146 1.30798 0
M  V30 31902 C 2895.76 2.84002 1.98855 0
M  V30 31903 C 2894.83 4.00116 1.55583 0
M  V30 31904 C 2894.06 4.59709 2.71116 0
M  V30 31905 O 2894.28 4.18189 3.8791 0
M  V30 31906 O 2893.22 5.49624 2.4535 0
M  V30 31907 H 2897.04 3.02633 0.254363 0
M  V30 31908 H 2894.63 1.49281 0.0595245 0
M  V30 31909 H 2896.51 3.23698 2.69811 0
M  V30 31910 H 2895.18 2.05783 2.4987 0
M  V30 31911 H 2894.09 3.65095 0.81586 0
M  V30 31912 H 2895.42 4.79919 1.09263 0
M  V30 31913 O 2897.11 0.0305918 1.61471 0
M  V30 31914 H 2897.81 -0.581772 1.84757 0
M  V30 END ATOM
M  V30 BEGIN BOND
M  V30 END BOND
M  V30 END CTAB
M  END
$$$$
