drugbank_target|P54219 Chromaffin granule amine transporter (DB00206; DB00368; DB01363; DB01442; DB01577)
 OpenBabel12092120573D

  0  0  0     0  0            999 V3000
M  V30 BEGIN CTAB
M  V30 COUNTS 7975 8072 0 0 0
M  V30 BEGIN ATOM
M  V30 1 H -0.908 1.98254 -0.117106 0
M  V30 2 N 0 1.576 0 0
M  V30 3 C 0.933 2.03868 1.02534 0
M  V30 4 C 1.911 0.928543 1.3348 0
M  V30 5 O 3.095 1.19667 1.45644 0
M  V30 6 C 0.222 2.43627 2.35294 0
M  V30 7 C -0.732 3.65373 2.2001 0
M  V30 8 S 0.101 5.13292 1.52614 0
M  V30 9 C 1.257 5.56322 2.86805 0
M  V30 10 H 1.49 2.90518 0.631377 0
M  V30 11 H -0.977 1.52953 0.210867 0
M  V30 12 H 0.981 2.67203 3.11629 0
M  V30 13 H -0.358 1.57376 2.7183 0
M  V30 14 H -1.165 3.90944 3.18086 0
M  V30 15 H -1.563 3.418 1.51819 0
M  V30 16 H 0.729 5.58782 3.83104 0
M  V30 17 H 1.672 6.56266 2.65933 0
M  V30 18 H 2.08 4.83886 2.90714 0
M  V30 19 N 1.4781 -0.272755 1.55222 0
M  V30 20 C 2.4081 -1.34136 1.91127 0
M  V30 21 C 3.3891 -1.51513 0.773168 0
M  V30 22 O 4.5741 -1.64552 1.03132 0
M  V30 23 C 1.7041 -2.70083 2.1834 0
M  V30 24 C 0.6581 -2.67437 3.34158 0
M  V30 25 C -0.0159 -4.06938 3.46851 0
M  V30 26 C 1.2841 -2.26686 4.70543 0
M  V30 27 H 2.9781 -1.04333 2.80633 0
M  V30 28 H 0.5241 -0.500454 1.35024 0
M  V30 29 H 2.4771 -3.44952 2.42046 0
M  V30 30 H 1.2011 -3.01469 1.25634 0
M  V30 31 H -0.1399 -1.95026 3.1042 0
M  V30 32 H -0.4919 -4.35547 2.51611 0
M  V30 33 H -0.7919 -4.06062 4.2472 0
M  V30 34 H 0.7321 -4.83545 3.72849 0
M  V30 35 H 2.1461 -2.91277 4.93792 0
M  V30 36 H 0.5431 -2.36971 5.5133 0
M  V30 37 H 1.6131 -1.21818 4.69349 0
M  V30 38 N 2.9562 -1.48159 -0.537278 0
M  V30 39 C 4.3722 -1.34118 -0.865129 0
M  V30 40 C 4.5722 -0.346678 -1.98495 0
M  V30 41 O 3.6282 0.234715 -2.51407 0
M  V30 42 C 4.9412 -2.73963 -1.23954 0
M  V30 43 C 6.4892 -2.82397 -1.34984 0
M  V30 44 C 6.9642 -4.22928 -1.75772 0
M  V30 45 N 8.4552 -4.25566 -1.82887 0
M  V30 46 C 9.1902 -5.31235 -2.15817 0
M  V30 47 N 8.6862 -6.47189 -2.47222 0
M  V30 48 N 10.4792 -5.18624 -2.16761 0
M  V30 49 H 2.6302 -2.1144 0.201715 0
M  V30 50 H 4.8932 -0.947598 0.0275949 0
M  V30 51 H 4.5992 -3.48264 -0.490381 0
M  V30 52 H 4.4732 -3.0702 -2.19132 0
M  V30 53 H 6.8602 -2.08356 -2.08978 0
M  V30 54 H 6.9412 -2.5297 -0.379448 0
M  V30 55 H 6.5852 -4.97482 -1.02341 0
M  V30 56 H 6.5152 -4.49794 -2.73848 0
M  V30 57 H 9.0062 -3.41924 -1.60924 0
M  V30 58 H 9.3192 -7.23564 -2.71433 0
M  V30 59 H 7.6642 -6.50476 -2.44757 0
M  V30 60 H 10.8552 -4.27056 -1.91679 0
M  V30 61 H 11.0282 -6.01078 -2.42093 0
M  V30 62 N 4.4343 0.785586 -1.36625 0
M  V30 63 C 5.6623 1.57448 -1.3423 0
M  V30 64 C 6.0773 1.88649 0.0755653 0
M  V30 65 O 5.4343 1.50414 1.03354 0
M  V30 66 C 5.4853 2.89316 -2.16745 0
M  V30 67 O 5.2063 2.59459 -3.53005 0
M  V30 68 C 6.7073 3.83606 -2.22174 0
M  V30 69 H 3.9273 0.488226 -0.4603 0
M  V30 70 H 6.4713 0.974733 -1.79775 0
M  V30 71 H 4.6263 3.4575 -1.74745 0
M  V30 72 H 5.0403 3.43804 -3.96105 0
M  V30 73 H 6.5143 4.73181 -2.8426 0
M  V30 74 H 6.9913 4.21734 -1.22627 0
M  V30 75 H 7.5973 3.33104 -2.64427 0
M  V30 76 N 5.9124 1.20967 1.01018 0
M  V30 77 C 7.1614 1.01796 1.74128 0
M  V30 78 C 7.4744 -0.449691 1.90361 0
M  V30 79 O 8.6804 -0.76068 2.60626 0
M  V30 80 C 7.1364 1.7727 3.13215 0
M  V30 81 C 6.7444 3.28171 3.04972 0
M  V30 82 C 8.4884 1.66489 3.90489 0
M  V30 83 C 6.3954 3.96156 4.39107 0
M  V30 84 H 5.3254 0.377276 0.652824 0
M  V30 85 H 7.9764 1.44651 1.12909 0
M  V30 86 H 6.3584 1.27205 3.75013 0
M  V30 87 H 7.5324 3.85499 2.52443 0
M  V30 88 H 5.8474 3.39437 2.41188 0
M  V30 89 H 8.4444 2.14617 4.89738 0
M  V30 90 H 8.7874 0.6222 4.11624 0
M  V30 91 H 9.3204 2.14003 3.35332 0
M  V30 92 H 6.0594 5.00604 4.23174 0
M  V30 93 H 5.5794 3.43617 4.91617 0
M  V30 94 H 7.2584 4.00774 5.07926 0
M  V30 95 N 7.3905 -1.2043 1.01659 0
M  V30 96 C 8.3205 -2.25466 0.607226 0
M  V30 97 C 9.3015 -1.65853 -0.377716 0
M  V30 98 O 10.4865 -1.92409 -0.263149 0
M  V30 99 C 7.6165 -3.47256 -0.0552949 0
M  V30 100 C 6.5705 -4.19462 0.850632 0
M  V30 101 C 5.8965 -5.34673 0.0538859 0
M  V30 102 C 7.1965 -4.75603 2.15868 0
M  V30 103 H 8.8905 -2.59962 1.48526 0
M  V30 104 H 6.4365 -1.2496 0.715605 0
M  V30 105 H 8.3895 -4.19917 -0.353233 0
M  V30 106 H 7.1135 -3.11924 -0.968045 0
M  V30 107 H 5.7725 -3.48667 1.13257 0
M  V30 108 H 5.4205 -4.95585 -0.860514 0
M  V30 109 H 5.1205 -5.83913 0.657192 0
M  V30 110 H 6.6445 -6.10138 -0.237598 0
M  V30 111 H 8.0585 -5.40083 1.92311 0
M  V30 112 H 6.4555 -5.3528 2.71284 0
M  V30 113 H 7.5255 -3.94346 2.82169 0
M  V30 114 N 8.8686 -0.792821 -1.36206 0
M  V30 115 C 10.1456 -0.290627 -1.93429 0
M  V30 116 C 10.5256 1.21773 -1.72437 0
M  V30 117 O 9.8736 2.0108 -1.08531 0
M  V30 118 C 10.0836 -0.686973 -3.42172 0
M  V30 119 C 11.4316 -0.668643 -4.19302 0
M  V30 120 O 12.4556 -0.627658 -3.50626 0
M  V30 121 O 11.3146 -0.714597 -5.41808 0
M  V30 122 H 8.4086 -0.0727927 -0.82379 0
M  V30 123 H 10.9546 -0.875593 -1.45367 0
M  V30 124 H 9.7266 -1.72711 -3.51122 0
M  V30 125 H 9.3496 -0.0760733 -3.97527 0
M  V30 126 N 10.3467 1.47872 -0.545128 0
M  V30 127 C 11.3097 2.28337 0.198717 0
M  V30 128 C 12.3097 1.36255 0.853888 0
M  V30 129 O 13.4997 1.59003 0.711606 0
M  V30 130 C 10.6317 3.15585 1.28915 0
M  V30 131 H 11.8247 2.95567 -0.507941 0
M  V30 132 H 9.3777 1.53362 -0.301616 0
M  V30 133 H 10.1127 2.53019 2.02859 0
M  V30 134 H 9.8977 3.83337 0.824309 0
M  V30 135 H 11.3877 3.76243 1.81194 0
M  V30 136 N 11.8248 0.280983 1.55075 0
M  V30 137 C 13.2358 -0.215629 1.85451 0
M  V30 138 C 13.5868 -1.54991 1.203 0
M  V30 139 O 12.7118 -2.10699 0.493435 0
M  V30 140 C 13.3068 -0.398026 3.36454 0
M  V30 141 C 11.8658 -0.838866 3.66933 0
M  V30 142 C 11.0128 0.064458 2.77225 0
M  V30 143 H 13.9638 0.502601 1.50531 0
M  V30 144 H 13.9848 -1.23569 3.59876 0
M  V30 145 H 13.4968 0.573241 3.83843 0
M  V30 146 H 11.5978 -1.8214 3.25048 0
M  V30 147 H 11.7108 -0.672123 4.74362 0
M  V30 148 H 10.0748 -0.452863 2.50642 0
M  V30 149 H 10.8578 1.03172 3.2743 0
M  V30 150 N 13.3029 -1.57598 0.00835791 0
M  V30 151 C 14.2349 -2.05811 -1.00868 0
M  V30 152 C 15.2479 -0.977579 -1.30182 0
M  V30 153 O 16.4369 -1.25421 -1.27011 0
M  V30 154 C 13.5369 -2.45016 -2.34137 0
M  V30 155 C 12.7099 -3.75903 -2.23643 0
M  V30 156 C 11.7689 -4.01884 -3.3967 0
M  V30 157 O 10.7949 -4.72433 -3.17483 0
M  V30 158 N 11.9969 -3.50432 -4.62793 0
M  V30 159 H 14.7619 -2.93684 -0.597458 0
M  V30 160 H 12.3229 -1.60909 -0.178852 0
M  V30 161 H 14.3149 -2.59506 -3.10546 0
M  V30 162 H 12.8849 -1.62618 -2.66972 0
M  V30 163 H 12.1049 -3.7141 -1.32091 0
M  V30 164 H 13.3929 -4.61695 -2.13812 0
M  V30 165 H 12.7909 -2.93317 -4.83716 0
M  V30 166 H 11.3479 -3.70236 -5.3644 0
M  V30 167 N 14.781 0.264519 -1.55364 0
M  V30 168 C 16.197 0.61215 -1.47394 0
M  V30 169 C 16.397 1.89134 -0.695018 0
M  V30 170 O 15.453 2.51563 -0.217275 0
M  V30 171 C 16.766 0.731235 -2.91674 0
M  V30 172 C 18.314 0.82473 -3.01939 0
M  V30 173 C 18.789 0.975522 -4.4749 0
M  V30 174 N 20.28 1.04083 -4.51354 0
M  V30 175 C 21.015 1.17646 -5.61201 0
M  V30 176 N 20.511 1.27874 -6.80896 0
M  V30 177 N 22.304 1.20823 -5.48961 0
M  V30 178 H 14.455 -0.575456 -2.04456 0
M  V30 179 H 16.718 -0.196099 -0.927496 0
M  V30 180 H 16.424 -0.138392 -3.51428 0
M  V30 181 H 16.298 1.60883 -3.41169 0
M  V30 182 H 18.685 1.68482 -2.42276 0
M  V30 183 H 18.766 -0.0776479 -2.55682 0
M  V30 184 H 18.41 0.120058 -5.07758 0
M  V30 185 H 18.34 1.89268 -4.91412 0
M  V30 186 H 20.831 0.973846 -3.65136 0
M  V30 187 H 21.144 1.38081 -7.60364 0
M  V30 188 H 19.489 1.24863 -6.83692 0
M  V30 189 H 22.68 1.12469 -4.54388 0
M  V30 190 H 22.853 1.31049 -6.3461 0
M  V30 191 N 16.2591 1.48442 0.529413 0
M  V30 192 C 17.1891 1.65902 1.64313 0
M  V30 193 C 18.1701 0.507897 1.6234 0
M  V30 194 O 19.3551 0.740503 1.79528 0
M  V30 195 C 16.4851 1.69911 3.02898 0
M  V30 196 C 15.4391 2.8453 3.19729 0
M  V30 197 C 14.7651 2.73629 4.59381 0
M  V30 198 C 16.0651 4.25821 3.02447 0
M  V30 199 H 17.7591 2.5914 1.49955 0
M  V30 200 H 15.3051 1.24709 0.719982 0
M  V30 201 H 17.2581 1.80715 3.80684 0
M  V30 202 H 15.9821 0.732524 3.18279 0
M  V30 203 H 14.6411 2.73283 2.44361 0
M  V30 204 H 14.2891 1.74938 4.71599 0
M  V30 205 H 13.9891 3.50541 4.71588 0
M  V30 206 H 15.5131 2.86401 5.39265 0
M  V30 207 H 16.9271 4.37898 3.70024 0
M  V30 208 H 15.3241 5.03735 3.26146 0
M  V30 209 H 16.3941 4.42244 1.98867 0
M  V30 210 N 17.7372 -0.778329 1.37039 0
M  V30 211 C 18.6672 -1.90546 1.34962 0
M  V30 212 C 19.6482 -1.68681 0.219274 0
M  V30 213 O 20.8332 -1.89634 0.418624 0
M  V30 214 C 17.9632 -3.27734 1.14925 0
M  V30 215 C 16.9172 -3.64147 2.24902 0
M  V30 216 C 16.2432 -4.99806 1.89996 0
M  V30 217 C 17.5432 -3.71579 3.67051 0
M  V30 218 H 19.2372 -1.92541 2.29277 0
M  V30 219 H 16.7832 -0.924948 1.10366 0
M  V30 220 H 18.7362 -4.06215 1.12104 0
M  V30 221 H 17.4602 -3.26154 0.170631 0
M  V30 222 H 16.1192 -2.8797 2.26868 0
M  V30 223 H 15.7672 -4.94759 0.906796 0
M  V30 224 H 15.4672 -5.25139 2.63634 0
M  V30 225 H 16.9912 -5.80694 1.88749 0
M  V30 226 H 18.4052 -4.40227 3.67251 0
M  V30 227 H 16.8022 -4.08405 4.39688 0
M  V30 228 H 17.8722 -2.72404 4.01154 0
M  V30 229 N 19.2153 -1.21501 -1.00376 0
M  V30 230 C 20.1623 -0.975387 -2.09177 0
M  V30 231 C 21.1323 0.0990615 -1.65804 0
M  V30 232 O 22.3173 -0.0483147 -1.90739 0
M  V30 233 C 19.4573 -0.547507 -3.40729 0
M  V30 234 C 18.5703 -1.69153 -3.97506 0
M  V30 235 C 17.7053 -1.2127 -5.17172 0
M  V30 236 C 16.7443 -2.32897 -5.66061 0
M  V30 237 N 15.8813 -1.86138 -6.76976 0
M  V30 238 H 20.7213 -1.9068 -2.29009 0
M  V30 239 H 18.2583 -0.950257 -1.12288 0
M  V30 240 H 20.2163 -0.280667 -4.16255 0
M  V30 241 H 18.8463 0.346904 -3.20931 0
M  V30 242 H 17.8983 -2.07298 -3.18954 0
M  V30 243 H 19.2103 -2.5316 -4.29781 0
M  V30 244 H 18.3643 -0.902591 -5.99948 0
M  V30 245 H 17.1033 -0.342692 -4.86495 0
M  V30 246 H 16.1083 -2.64709 -4.81881 0
M  V30 247 H 17.3333 -3.20396 -5.98768 0
M  V30 248 H 15.2793 -1.01484 -6.48103 0
M  V30 249 H 15.1963 -2.63717 -7.08512 0
M  V30 250 H 16.4643 -1.58165 -7.63285 0
M  V30 251 N 20.6934 1.19889 -1.02296 0
M  V30 252 C 21.6034 2.26571 -0.608508 0
M  V30 253 C 22.6194 1.70299 0.356964 0
M  V30 254 O 23.7954 2.00235 0.216326 0
M  V30 255 C 20.8604 3.46677 0.0402814 0
M  V30 256 C 19.9214 4.18153 -0.97194 0
M  V30 257 C 19.1544 5.32525 -0.354016 0
M  V30 258 O 19.3774 5.64112 0.844604 0
M  V30 259 O 18.3114 5.92242 -1.07391 0
M  V30 260 H 22.1374 2.64251 -1.49684 0
M  V30 261 H 19.7224 1.26629 -0.792809 0
M  V30 262 H 21.6044 4.19475 0.402324 0
M  V30 263 H 20.2794 3.10858 0.902707 0
M  V30 264 H 19.1864 3.47499 -1.38546 0
M  V30 265 H 20.5194 4.57927 -1.80454 0
M  V30 266 N 22.1715 0.800033 1.35784 0
M  V30 267 C 23.4195 0.376597 1.9856 0
M  V30 268 C 23.7405 -1.05812 1.63795 0
M  V30 269 O 23.0105 -1.73103 0.917171 0
M  V30 270 H 21.5905 0.136261 0.734467 0
M  V30 271 H 24.2525 1.02442 1.65806 0
M  V30 272 H 23.3485 0.477002 3.08433 0
M  V30 273 N 23.6496 -1.47581 0.552962 0
M  V30 274 C 25.0656 -1.5818 0.212424 0
M  V30 275 C 25.2656 -1.55213 -1.28496 0
M  V30 276 O 24.3216 -1.45329 -2.06484 0
M  V30 277 C 25.6346 -2.88865 0.835318 0
M  V30 278 C 27.1826 -3.0244 0.806156 0
M  V30 279 C 27.6576 -4.35819 1.40804 0
M  V30 280 N 29.1486 -4.42444 1.37103 0
M  V30 281 C 29.8836 -5.44202 1.80641 0
M  V30 282 N 29.3796 -6.52795 2.32015 0
M  V30 283 N 31.1726 -5.35222 1.71738 0
M  V30 284 H 23.3236 -1.47753 1.52587 0
M  V30 285 H 25.5866 -0.702941 0.636064 0
M  V30 286 H 25.2926 -2.9676 1.88749 0
M  V30 287 H 25.1666 -3.7579 0.325848 0
M  V30 288 H 27.5536 -2.94144 -0.237317 0
M  V30 289 H 27.6346 -2.17068 1.35334 0
M  V30 290 H 27.2786 -4.44871 2.45056 0
M  V30 291 H 27.2086 -5.19916 0.836338 0
M  V30 292 H 29.6996 -3.6456 0.995202 0
M  V30 293 H 30.0126 -7.26609 2.63171 0
M  V30 294 H 28.3576 -6.53696 2.36023 0
M  V30 295 H 31.5486 -4.49284 1.31382 0
M  V30 296 H 31.7216 -6.14389 2.05987 0
M  V30 297 N 25.1277 -0.289203 -1.54924 0
M  V30 298 C 26.0907 0.579144 -2.21762 0
M  V30 299 C 27.0907 1.07047 -1.1999 0
M  V30 300 O 28.2807 0.968384 -1.44803 0
M  V30 301 C 25.4127 1.80055 -2.8947 0
M  V30 302 H 26.6057 -0.00464908 -2.999 0
M  V30 303 H 24.1587 -0.0399306 -1.56249 0
M  V30 304 H 24.8937 2.42449 -2.15381 0
M  V30 305 H 24.6787 1.45602 -3.64064 0
M  V30 306 H 26.1687 2.41773 -3.40493 0
M  V30 307 N 26.6058 1.57591 -0.0167156 0
M  V30 308 C 27.8308 1.9598 0.67872 0
M  V30 309 C 28.2558 0.892546 1.65575 0
M  V30 310 O 27.6138 -0.147772 1.80697 0
M  V30 311 C 27.6618 3.33468 1.37227 0
M  V30 312 O 26.7658 3.28954 2.48722 0
M  V30 313 H 26.1068 0.639339 0.17928 0
M  V30 314 H 28.6368 2.04463 -0.0748802 0
M  V30 315 H 28.6468 3.69417 1.7319 0
M  V30 316 H 27.3218 4.10694 0.656007 0
M  V30 317 H 25.8988 3.04705 2.14963 0
M  V30 318 N 28.0839 -0.256276 1.55502 0
M  V30 319 C 29.4999 -0.604325 1.47716 0
M  V30 320 C 29.6999 -1.88763 0.705039 0
M  V30 321 O 28.7559 -2.51445 0.230613 0
M  V30 322 C 30.0689 -0.715756 2.92057 0
M  V30 323 C 31.6169 -0.808706 3.02372 0
M  V30 324 C 32.0919 -0.951777 4.48001 0
M  V30 325 N 33.5829 -1.01688 4.519 0
M  V30 326 C 34.3179 -1.14668 5.61817 0
M  V30 327 N 33.8139 -1.24261 6.81565 0
M  V30 328 N 35.6069 -1.1791 5.49594 0
M  V30 329 H 27.7579 0.586291 2.04148 0
M  V30 330 H 30.0209 0.201015 0.926443 0
M  V30 331 H 29.7269 0.157027 3.51349 0
M  V30 332 H 29.6009 -1.59071 3.42018 0
M  V30 333 H 31.9879 -1.67195 2.43166 0
M  V30 334 H 32.0689 0.0912063 2.55637 0
M  V30 335 H 31.7129 -0.0931291 5.07815 0
M  V30 336 H 31.6429 -1.86659 4.92408 0
M  V30 337 H 34.1339 -0.954468 3.65648 0
M  V30 338 H 34.4469 -1.34046 7.61086 0
M  V30 339 H 32.7919 -1.21236 6.84344 0
M  V30 340 H 35.9829 -1.10057 4.54978 0
M  V30 341 H 36.1559 -1.27681 6.35296 0
M  V30 342 N 29.562 -1.4872 -0.521534 0
M  V30 343 C 30.494 -1.59968 -1.64143 0
M  V30 344 C 31.507 -0.483463 -1.55456 0
M  V30 345 O 32.696 -0.75467 -1.61762 0
M  V30 346 C 29.796 -1.52127 -3.02838 0
M  V30 347 C 28.969 -2.78932 -3.36921 0
M  V30 348 C 28.028 -2.64428 -4.54933 0
M  V30 349 O 27.054 -3.38331 -4.57735 0
M  V30 350 N 28.256 -1.74606 -5.53618 0
M  V30 351 H 31.021 -2.56548 -1.54929 0
M  V30 352 H 28.582 -1.45551 -0.708988 0
M  V30 353 H 30.574 -1.40106 -3.79674 0
M  V30 354 H 29.144 -0.634868 -3.06085 0
M  V30 355 H 28.364 -3.05455 -2.4918 0
M  V30 356 H 29.652 -3.63041 -3.56481 0
M  V30 357 H 29.05 -1.13782 -5.54139 0
M  V30 358 H 27.607 -1.6852 -6.29638 0
M  V30 359 N 31.0401 0.771051 -1.3745 0
M  V30 360 C 31.9701 1.89827 -1.3597 0
M  V30 361 C 32.9511 1.68562 -0.228216 0
M  V30 362 O 34.1361 1.8941 -0.428675 0
M  V30 363 C 31.2661 3.2712 -1.16662 0
M  V30 364 C 30.2201 3.6295 -2.2683 0
M  V30 365 C 29.5461 4.98791 -1.92644 0
M  V30 366 C 30.8461 3.69627 -3.69017 0
M  V30 367 H 32.5401 1.91323 -2.30295 0
M  V30 368 H 30.0861 0.919082 -1.10855 0
M  V30 369 H 32.0391 4.05615 -1.14256 0
M  V30 370 H 30.7631 3.26059 -0.187926 0
M  V30 371 H 29.4221 2.86763 -2.28392 0
M  V30 372 H 29.0701 4.94271 -0.933021 0
M  V30 373 H 28.7701 5.23733 -2.66416 0
M  V30 374 H 30.2941 5.79685 -1.91826 0
M  V30 375 H 31.7081 4.38273 -3.69581 0
M  V30 376 H 30.1051 4.06067 -4.41848 0
M  V30 377 H 31.1751 2.70273 -4.02592 0
M  V30 378 N 32.5182 1.22032 0.997298 0
M  V30 379 C 33.7642 1.04376 1.73878 0
M  V30 380 C 34.0972 -0.420716 1.89588 0
M  V30 381 O 33.3722 -1.31202 1.43583 0
M  V30 382 C 33.6552 1.75047 3.14691 0
M  V30 383 C 33.5082 3.29062 3.06656 0
M  V30 384 C 34.8272 1.49928 4.13775 0
M  V30 385 H 31.9462 0.380578 0.631133 0
M  V30 386 H 34.5882 1.50312 1.16217 0
M  V30 387 H 32.7382 1.35996 3.63919 0
M  V30 388 H 34.4102 3.7753 2.65083 0
M  V30 389 H 32.6532 3.58967 2.43568 0
M  V30 390 H 33.3242 3.73683 4.06282 0
M  V30 391 H 35.8002 1.83842 3.73285 0
M  V30 392 H 34.6762 2.01878 5.10428 0
M  V30 393 H 34.9372 0.430929 4.39995 0
M  V30 394 N 33.9963 -1.19345 1.0293 0
M  V30 395 C 34.9263 -2.2481 0.631105 0
M  V30 396 C 35.9073 -1.66245 -0.360104 0
M  V30 397 O 37.0923 -1.92677 -0.242726 0
M  V30 398 C 34.2223 -3.47295 -0.0184607 0
M  V30 399 C 33.1763 -4.18536 0.895073 0
M  V30 400 C 32.5023 -5.34586 0.110592 0
M  V30 401 C 33.8023 -4.73287 2.209 0
M  V30 402 H 35.4963 -2.58372 1.51275 0
M  V30 403 H 33.0423 -1.24194 0.728818 0
M  V30 404 H 34.9953 -4.20268 -0.308675 0
M  V30 405 H 33.7193 -3.12933 -0.934907 0
M  V30 406 H 32.3783 -3.47446 1.16949 0
M  V30 407 H 32.0263 -4.96469 -0.807902 0
M  V30 408 H 31.7263 -5.83183 0.719087 0
M  V30 409 H 33.2503 -6.10355 -0.172871 0
M  V30 410 H 34.6643 -5.38013 1.98028 0
M  V30 411 H 33.0613 -5.32373 2.76946 0
M  V30 412 H 34.1313 -3.91331 2.86336 0
M  V30 413 N 35.4744 -0.807222 -1.35358 0
M  V30 414 C 36.7204 -0.388463 -1.99045 0
M  V30 415 C 37.0534 1.04184 -1.63888 0
M  V30 416 O 36.3284 1.72292 -0.902535 0
M  V30 417 C 36.6114 -0.572783 -3.55515 0
M  V30 418 C 36.4644 -2.04807 -4.00468 0
M  V30 419 C 37.7834 0.00114064 -4.401 0
M  V30 420 H 34.9024 -0.142619 -0.723069 0
M  V30 421 H 37.5444 -1.01687 -1.60498 0
M  V30 422 H 35.6944 -0.0378425 -3.88482 0
M  V30 423 H 37.3664 -2.64544 -3.77908 0
M  V30 424 H 35.6094 -2.54427 -3.51353 0
M  V30 425 H 36.2804 -2.12792 -5.09337 0
M  V30 426 H 38.7564 -0.455716 -4.13597 0
M  V30 427 H 37.6324 -0.157737 -5.48673 0
M  V30 428 H 37.8934 1.09488 -4.28328 0
M  V30 429 N 36.9525 1.47285 -0.560781 0
M  V30 430 C 38.1985 2.02764 -0.0381184 0
M  V30 431 C 38.5315 1.43384 1.30976 0
M  V30 432 O 37.8065 0.590733 1.85312 0
M  V30 433 C 38.0895 3.60064 0.0511427 0
M  V30 434 C 37.9425 4.2987 -1.32408 0
M  V30 435 C 39.2615 4.33439 0.762795 0
M  V30 436 H 36.3805 0.736841 -0.0153264 0
M  V30 437 H 39.0225 1.75675 -0.723759 0
M  V30 438 H 37.1725 3.83274 0.635065 0
M  V30 439 H 38.8445 4.17989 -1.95148 0
M  V30 440 H 37.0875 3.90085 -1.8978 0
M  V30 441 H 37.7585 5.38478 -1.21431 0
M  V30 442 H 40.2345 4.15243 0.266965 0
M  V30 443 H 39.1105 5.43124 0.794221 0
M  V30 444 H 39.3715 4.02915 1.81966 0
M  V30 445 N 38.4306 0.297415 1.54768 0
M  V30 446 C 39.6766 -0.313376 2.00364 0
M  V30 447 C 40.0096 -1.53815 1.18553 0
M  V30 448 O 39.2846 -1.92739 0.261103 0
M  V30 449 C 39.5676 -0.673525 3.53745 0
M  V30 450 C 39.4206 0.560133 4.46299 0
M  V30 451 C 40.7396 -1.50143 4.13697 0
M  V30 452 H 37.8586 -0.112428 0.728374 0
M  V30 453 H 40.5006 0.4088 1.8555 0
M  V30 454 H 38.6506 -1.28881 3.665 0
M  V30 455 H 40.3226 1.19863 4.45455 0
M  V30 456 H 38.5656 1.19405 4.17043 0
M  V30 457 H 39.2366 0.26405 5.51368 0
M  V30 458 H 41.7126 -0.981588 4.04356 0
M  V30 459 H 40.5886 -1.72221 5.21182 0
M  V30 460 H 40.8496 -2.48952 3.65343 0
M  V30 461 N 39.9087 -1.5758 0.0250728 0
M  V30 462 C 41.1557 -1.91633 -0.654444 0
M  V30 463 C 41.4837 -0.901103 -1.72367 0
M  V30 464 O 40.7387 0.0905647 -1.9549 0
M  V30 465 C 41.0377 -3.32421 -1.31268 0
M  V30 466 C 40.7037 -4.49344 -0.374223 0
M  V30 467 C 39.3657 -4.8106 -0.115911 0
M  V30 468 C 41.7177 -5.20498 0.270432 0
M  V30 469 C 39.0457 -5.8129 0.79493 0
M  V30 470 C 41.3977 -6.21699 1.1693 0
M  V30 471 C 40.0617 -6.51859 1.43655 0
M  V30 472 H 39.3317 -0.701236 -0.239478 0
M  V30 473 H 41.9787 -1.91307 0.0859734 0
M  V30 474 H 40.2837 -3.28989 -2.12775 0
M  V30 475 H 41.9807 -3.56038 -1.84494 0
M  V30 476 H 38.5707 -4.24579 -0.58573 0
M  V30 477 H 42.7547 -4.96229 0.0839194 0
M  V30 478 H 38.0107 -6.03005 1.00973 0
M  V30 479 H 42.1847 -6.75955 1.67504 0
M  V30 480 H 39.8117 -7.2934 2.144 0
M  V30 481 N 41.3868 0.248026 -1.55636 0
M  V30 482 C 42.6328 0.97767 -1.77678 0
M  V30 483 C 42.9658 1.85016 -0.590135 0
M  V30 484 O 42.2408 1.90095 0.411611 0
M  V30 485 C 42.5238 1.83914 -3.09593 0
M  V30 486 C 42.3768 0.99491 -4.38659 0
M  V30 487 C 43.6958 2.82183 -3.37729 0
M  V30 488 H 40.8148 0.354005 -0.646413 0
M  V30 489 H 43.4568 0.248253 -1.88371 0
M  V30 490 H 41.6068 2.46104 -3.00608 0
M  V30 491 H 43.2788 0.391789 -4.59633 0
M  V30 492 H 41.5218 0.299231 -4.32767 0
M  V30 493 H 42.1928 1.63145 -5.2734 0
M  V30 494 H 44.6688 2.30129 -3.4667 0
M  V30 495 H 43.5448 3.39582 -4.31249 0
M  V30 496 H 43.8058 3.58588 -2.58586 0
M  V30 497 N 42.8649 1.48995 0.513639 0
M  V30 498 C 43.8279 1.64229 1.59879 0
M  V30 499 C 44.8279 0.514696 1.5234 0
M  V30 500 O 46.0179 0.78087 1.55718 0
M  V30 501 C 43.1499 1.62783 2.99524 0
M  V30 502 H 44.3429 2.61004 1.47705 0
M  V30 503 H 41.8959 1.37837 0.736936 0
M  V30 504 H 42.6309 0.675461 3.17188 0
M  V30 505 H 42.4159 2.4466 3.06404 0
M  V30 506 H 43.9059 1.76669 3.78388 0
M  V30 507 N 44.343 -0.763751 1.37857 0
M  V30 508 C 45.273 -1.89103 1.36975 0
M  V30 509 C 46.254 -1.68439 0.237152 0
M  V30 510 O 47.439 -1.8918 0.438713 0
M  V30 511 C 44.569 -3.26496 1.18395 0
M  V30 512 C 43.523 -3.61741 2.28751 0
M  V30 513 C 42.849 -4.97762 1.95286 0
M  V30 514 C 44.149 -3.67665 3.70972 0
M  V30 515 H 45.843 -1.90099 2.31307 0
M  V30 516 H 43.389 -0.91319 1.11341 0
M  V30 517 H 45.342 -4.05003 1.16406 0
M  V30 518 H 44.066 -3.25955 0.205215 0
M  V30 519 H 42.725 -2.85547 2.29909 0
M  V30 520 H 42.373 -4.93769 0.959221 0
M  V30 521 H 42.073 -5.22313 2.69189 0
M  V30 522 H 43.597 -5.7866 1.94898 0
M  V30 523 H 45.011 -4.36307 3.719 0
M  V30 524 H 43.408 -4.03718 4.43995 0
M  V30 525 H 44.478 -2.68134 4.0402 0
M  V30 526 N 45.8211 -1.22559 -0.990812 0
M  V30 527 C 46.7511 -1.0218 -2.09956 0
M  V30 528 C 47.7321 0.0579394 -1.70001 0
M  V30 529 O 48.9171 -0.104684 -1.93918 0
M  V30 530 C 46.0471 -0.601023 -3.4206 0
M  V30 531 C 45.0011 -1.62694 -3.95872 0
M  V30 532 C 44.3271 -1.06193 -5.24049 0
M  V30 533 C 45.6271 -3.01743 -4.2632 0
M  V30 534 H 47.3211 -1.94916 -2.27262 0
M  V30 535 H 44.8671 -0.938566 -1.09211 0
M  V30 536 H 46.8201 -0.445561 -4.19038 0
M  V30 537 H 45.5441 0.362005 -3.24588 0
M  V30 538 H 44.2031 -1.77021 -3.21028 0
M  V30 539 H 43.8511 -0.0901903 -5.02919 0
M  V30 540 H 43.5511 -1.74732 -5.61019 0
M  V30 541 H 45.0751 -0.918092 -6.03658 0
M  V30 542 H 46.4891 -2.90777 -4.94087 0
M  V30 543 H 44.8861 -3.67425 -4.74467 0
M  V30 544 H 45.9561 -3.51518 -3.34011 0
M  V30 545 N 47.2992 1.18797 -1.03562 0
M  V30 546 C 48.2292 2.24472 -0.643019 0
M  V30 547 C 49.2102 1.66433 0.351283 0
M  V30 548 O 50.3952 1.92803 0.232505 0
M  V30 549 C 47.5252 3.473 4.24935e-05 0
M  V30 550 C 46.4792 4.18055 -0.917257 0
M  V30 551 C 45.8052 5.34519 -0.138941 0
M  V30 552 C 47.1052 4.72109 -2.23407 0
M  V30 553 H 48.7992 2.57566 -1.52643 0
M  V30 554 H 46.3452 1.23806 -0.735394 0
M  V30 555 H 48.2982 4.20426 0.286383 0
M  V30 556 H 47.0222 3.13424 0.918299 0
M  V30 557 H 45.6812 3.46821 -1.1879 0
M  V30 558 H 45.3292 4.96891 0.781562 0
M  V30 559 H 45.0292 5.82794 -0.750005 0
M  V30 560 H 46.5532 6.10438 0.1405 0
M  V30 561 H 47.9672 5.36955 -2.00879 0
M  V30 562 H 46.3642 5.30897 -2.79765 0
M  V30 563 H 47.4342 3.89807 -2.88407 0
M  V30 564 N 48.7773 0.814389 1.34928 0
M  V30 565 C 50.0543 0.321363 1.92942 0
M  V30 566 C 50.4343 -1.19014 1.74353 0
M  V30 567 O 49.7823 -1.99328 1.11716 0
M  V30 568 C 49.9923 0.741323 3.41036 0
M  V30 569 C 51.3403 0.735266 4.18185 0
M  V30 570 O 52.3643 0.68336 3.49584 0
M  V30 571 O 51.2233 0.800703 5.40602 0
M  V30 572 H 48.3173 0.0858893 0.822528 0
M  V30 573 H 50.8633 0.898609 1.43955 0
M  V30 574 H 49.6353 1.78276 3.4833 0
M  V30 575 H 49.2583 0.139307 3.97356 0
M  V30 576 N 50.2554 -1.46986 0.568584 0
M  V30 577 C 51.2034 -2.31858 -0.185649 0
M  V30 578 C 52.1974 -1.43624 -0.898249 0
M  V30 579 O 53.4034 -1.60327 -0.818242 0
M  V30 580 H 49.7784 -0.747866 -0.0787399 0
M  V30 581 H 51.7494 -2.93303 0.549191 0
M  V30 582 C 50.4984 -3.26513 -1.19519 0
M  V30 583 H 49.8214 -3.94377 -0.656285 0
M  V30 584 H 51.2614 -3.88707 -1.6936 0
M  V30 585 C 49.7204 -2.50847 -2.24894 0
M  V30 586 O 50.2504 -2.26119 -3.32014 0
M  V30 587 N 48.4564 -2.11656 -1.99124 0
M  V30 588 H 48.0034 -2.31966 -1.12024 0
M  V30 589 H 47.9614 -1.61347 -2.69842 0
M  V30 590 N 51.7335 -0.305618 -1.54608 0
M  V30 591 C 52.6665 0.610536 -2.19881 0
M  V30 592 C 53.6445 1.1294 -1.16976 0
M  V30 593 O 54.8285 1.19673 -1.45638 0
M  V30 594 C 51.9555 1.83583 -2.84631 0
M  V30 595 C 51.0015 1.4498 -4.01102 0
M  V30 596 S 51.8345 0.501793 -5.33144 0
M  V30 597 C 52.9905 1.73478 -6.01379 0
M  V30 598 H 53.2235 0.0560177 -2.97247 0
M  V30 599 H 50.7565 -0.0897434 -1.54139 0
M  V30 600 H 52.7145 2.53898 -3.22562 0
M  V30 601 H 51.3755 2.36152 -2.07102 0
M  V30 602 H 50.5685 2.36236 -4.45206 0
M  V30 603 H 50.1705 0.826553 -3.64752 0
M  V30 604 H 52.4625 2.67473 -6.22467 0
M  V30 605 H 53.4055 1.33622 -6.95378 0
M  V30 606 H 53.8135 1.9136 -5.31076 0
M  V30 607 N 53.2116 1.57565 -0.0334293 0
M  V30 608 C 54.1416 2.13511 0.945265 0
M  V30 609 C 55.1226 1.05231 1.33643 0
M  V30 610 O 56.3076 1.33084 1.41429 0
M  V30 611 C 53.4376 2.6657 2.22616 0
M  V30 612 C 52.3916 3.79676 1.97561 0
M  V30 613 C 51.7176 4.1918 3.31952 0
M  V30 614 C 53.0176 5.0557 1.31135 0
M  V30 615 H 54.7116 2.95538 0.479325 0
M  V30 616 H 52.2576 1.42166 0.229115 0
M  V30 617 H 54.2106 3.04344 2.91466 0
M  V30 618 H 52.9346 1.8171 2.71384 0
M  V30 619 H 51.5936 3.42347 1.31127 0
M  V30 620 H 51.2416 3.31296 3.78487 0
M  V30 621 H 50.9416 4.95402 3.15992 0
M  V30 622 H 52.4656 4.59541 4.02063 0
M  V30 623 H 53.8796 5.40903 1.89992 0
M  V30 624 H 52.2766 5.86818 1.25559 0
M  V30 625 H 53.3466 4.84062 0.284894 0
M  V30 626 N 54.6897 -0.239769 1.55765 0
M  V30 627 C 55.9367 -0.966801 1.7793 0
M  V30 628 C 56.2647 -1.85046 0.599015 0
M  V30 629 O 55.5197 -1.91197 -0.417395 0
M  V30 630 C 55.8187 -1.852 3.05672 0
M  V30 631 C 55.4847 -1.1231 4.36689 0
M  V30 632 C 54.1467 -0.921689 4.72291 0
M  V30 633 C 56.4987 -0.607019 5.17653 0
M  V30 634 C 53.8267 -0.191996 5.86386 0
M  V30 635 C 56.1787 0.109241 6.32506 0
M  V30 636 C 54.8427 0.322073 6.66723 0
M  V30 637 H 54.1127 -0.353778 0.651093 0
M  V30 638 H 56.7597 -0.23634 1.90036 0
M  V30 639 H 55.0647 -2.64975 2.8861 0
M  V30 640 H 56.7617 -2.41635 3.20021 0
M  V30 641 H 53.3517 -1.29004 4.08725 0
M  V30 642 H 57.5357 -0.750153 4.90598 0
M  V30 643 H 52.7917 -0.0166949 6.11398 0
M  V30 644 H 56.9657 0.516737 6.9448 0
M  V30 645 H 54.5927 0.88944 7.54979 0
M  V30 646 N 56.1678 -1.49265 -0.50573 0
M  V30 647 C 57.3958 -1.62215 -1.28429 0
M  V30 648 C 57.8108 -0.291697 -1.86533 0
M  V30 649 O 57.1678 0.722233 -1.67601 0
M  V30 650 C 57.2188 -2.68735 -2.41793 0
M  V30 651 O 56.9398 -3.96619 -1.86078 0
M  V30 652 C 58.4408 -2.92346 -3.3324 0
M  V30 653 H 55.6608 -0.546239 -0.389697 0
M  V30 654 H 58.2048 -1.95265 -0.607609 0
M  V30 655 H 56.3598 -2.38476 -3.053 0
M  V30 656 H 56.7738 -4.55256 -2.60465 0
M  V30 657 H 58.2478 -3.70623 -4.09075 0
M  V30 658 H 58.7248 -2.02081 -3.89948 0
M  V30 659 H 59.3308 -3.24003 -2.75503 0
M  V30 660 N 57.6459 0.756429 -1.3826 0
M  V30 661 C 58.8919 1.51772 -1.34511 0
M  V30 662 C 59.2249 1.94089 0.0656691 0
M  V30 663 O 58.4999 1.65221 1.02626 0
M  V30 664 C 58.7829 2.77226 -2.29821 0
M  V30 665 C 58.6359 2.41065 -3.79747 0
M  V30 666 C 59.9549 3.79236 -2.23312 0
M  V30 667 H 57.0739 0.550578 -0.489931 0
M  V30 668 H 59.7159 0.866607 -1.69086 0
M  V30 669 H 57.8659 3.32784 -2.00467 0
M  V30 670 H 59.5379 1.91303 -4.19763 0
M  V30 671 H 57.7809 1.7356 -3.97567 0
M  V30 672 H 58.4519 3.3081 -4.41892 0
M  V30 673 H 60.9279 3.3321 -2.49219 0
M  V30 674 H 59.8039 4.64714 -2.92116 0
M  V30 675 H 60.0649 4.24615 -1.23102 0
M  V30 676 N 59.124 1.23083 0.984299 0
M  V30 677 C 60.37 1.06214 1.72761 0
M  V30 678 C 60.703 -0.400584 1.90024 0
M  V30 679 O 59.978 -1.29672 1.44967 0
M  V30 680 C 60.261 1.78375 3.12817 0
M  V30 681 C 60.114 3.32296 3.03149 0
M  V30 682 C 61.433 1.54309 4.12161 0
M  V30 683 H 58.552 0.387251 0.627061 0
M  V30 684 H 61.194 1.51536 1.14616 0
M  V30 685 H 59.344 1.39848 3.62457 0
M  V30 686 H 61.016 3.8032 2.61064 0
M  V30 687 H 59.259 3.6153 2.39747 0
M  V30 688 H 59.93 3.77972 4.02295 0
M  V30 689 H 62.406 1.87791 3.71314 0
M  V30 690 H 61.282 2.07281 5.08258 0
M  V30 691 H 61.543 0.477572 4.39513 0
M  V30 692 N 60.6021 -1.18246 1.0419 0
M  V30 693 C 61.8481 -1.88536 0.747122 0
M  V30 694 C 62.1811 -1.80223 -0.723409 0
M  V30 695 O 61.4561 -1.20337 -1.52804 0
M  V30 696 C 61.7391 -3.38968 1.21544 0
M  V30 697 C 61.5921 -3.56084 2.74816 0
M  V30 698 C 62.9111 -4.32648 0.806482 0
M  V30 699 H 60.0301 -0.684619 0.272883 0
M  V30 700 H 62.6721 -1.39113 1.29413 0
M  V30 701 H 60.8221 -3.8119 0.750081 0
M  V30 702 H 62.4941 -3.22946 3.29399 0
M  V30 703 H 60.7371 -2.98699 3.14582 0
M  V30 704 H 61.4081 -4.61639 3.02644 0
M  V30 705 H 63.8841 -3.98211 1.20695 0
M  V30 706 H 62.7601 -5.36462 1.1619 0
M  V30 707 H 63.0211 -4.41146 -0.29029 0
M  V30 708 N 62.0802 -0.821533 -1.34494 0
M  V30 709 C 63.4912 -0.467956 -1.8074 0
M  V30 710 C 63.8422 1.01151 -1.68116 0
M  V30 711 O 62.9672 1.78707 -1.22036 0
M  V30 712 C 63.5622 -0.842627 -3.28154 0
M  V30 713 C 62.1212 -0.541439 -3.72485 0
M  V30 714 C 61.2682 -1.06028 -2.56229 0
M  V30 715 H 64.2192 -1.01183 -1.22261 0
M  V30 716 H 64.2402 -0.145876 -3.8022 0
M  V30 717 H 63.7522 -1.91945 -3.37311 0
M  V30 718 H 61.8532 0.526034 -3.68868 0
M  V30 719 H 61.9662 -1.08453 -4.66663 0
M  V30 720 H 60.3302 -0.481892 -2.501 0
M  V30 721 H 61.1132 -2.14352 -2.68157 0
M  V30 722 N 63.5583 1.46682 -0.576371 0
M  V30 723 C 64.8073 2.01619 -0.0572825 0
M  V30 724 C 65.1203 1.45417 1.30818 0
M  V30 725 O 66.3263 1.92133 1.91825 0
M  V30 726 C 64.7823 3.59863 -0.0518371 0
M  V30 727 C 64.3903 4.25059 -1.41523 0
M  V30 728 C 66.1343 4.2248 0.413639 0
M  V30 729 C 64.0413 5.75364 -1.36785 0
M  V30 730 H 62.9713 0.753794 -0.0176448 0
M  V30 731 H 65.6223 1.68481 -0.727076 0
M  V30 732 H 64.0043 3.90048 0.683994 0
M  V30 733 H 65.1783 4.06491 -2.17029 0
M  V30 734 H 63.4933 3.7451 -1.8202 0
M  V30 735 H 66.0903 5.3265 0.467779 0
M  V30 736 H 66.4333 3.90976 1.42982 0
M  V30 737 H 66.9663 3.96897 -0.267929 0
M  V30 738 H 63.7053 6.11518 -2.36063 0
M  V30 739 H 63.2253 5.96214 -0.654895 0
M  V30 740 H 64.9043 6.37955 -1.07805 0
M  V30 741 N 65.0364 0.313813 1.54444 0
M  V30 742 C 66.2824 -0.292108 2.00685 0
M  V30 743 C 66.6154 -1.52548 1.20177 0
M  V30 744 O 65.8904 -1.92452 0.281531 0
M  V30 745 C 66.1734 -0.635968 3.5444 0
M  V30 746 C 66.0264 0.607437 4.4568 0
M  V30 747 C 67.3454 -1.45747 4.15266 0
M  V30 748 H 64.4644 -0.104697 0.729526 0
M  V30 749 H 67.1064 0.428457 1.85106 0
M  V30 750 H 65.2564 -1.24986 3.67846 0
M  V30 751 H 66.9284 1.24581 4.44159 0
M  V30 752 H 65.1714 1.23822 4.15753 0
M  V30 753 H 65.8424 0.322515 5.51057 0
M  V30 754 H 68.3184 -0.938645 4.05375 0
M  V30 755 H 67.1944 -1.66683 5.2298 0
M  V30 756 H 67.4554 -2.45063 3.67963 0
M  V30 757 N 66.5145 -1.57545 0.0417849 0
M  V30 758 C 67.9255 -1.80011 -0.495259 0
M  V30 759 C 68.2765 -0.953199 -1.71489 0
M  V30 760 O 67.4015 -0.167138 -2.15754 0
M  V30 761 C 67.9965 -3.26482 -0.905265 0
M  V30 762 C 66.5555 -3.499 -1.38734 0
M  V30 763 C 65.7025 -2.74979 -0.358056 0
M  V30 764 H 68.6535 -1.56425 0.267736 0
M  V30 765 H 68.6745 -3.36887 -1.76882 0
M  V30 766 H 68.1865 -3.88096 -0.017401 0
M  V30 767 H 66.2875 -2.93553 -2.29471 0
M  V30 768 H 66.4005 -4.58615 -1.38598 0
M  V30 769 H 64.7645 -2.40834 -0.828912 0
M  V30 770 H 65.5475 -3.39315 0.521561 0
M  V30 771 N 67.9926 0.231505 -1.5589 0
M  V30 772 C 69.2206 0.974505 -1.82513 0
M  V30 773 C 69.6356 1.78344 -0.619591 0
M  V30 774 O 68.9926 1.77792 0.411848 0
M  V30 775 C 69.0436 1.90007 -3.07538 0
M  V30 776 O 68.7646 1.12385 -4.2344 0
M  V30 777 C 70.2656 2.75779 -3.47075 0
M  V30 778 H 67.4856 0.286065 -0.606966 0
M  V30 779 H 70.0296 0.249739 -2.02969 0
M  V30 780 H 68.1846 2.57891 -2.89086 0
M  V30 781 H 68.5986 1.75125 -4.944 0
M  V30 782 H 70.0726 3.36443 -4.37619 0
M  V30 783 H 70.5496 3.47672 -2.68367 0
M  V30 784 H 71.1556 2.13323 -3.67931 0
M  V30 785 N 69.4707 1.49531 0.497807 0
M  V30 786 C 70.7177 1.59179 1.25173 0
M  V30 787 C 71.0457 0.279932 1.92475 0
M  V30 788 O 70.3007 -0.732383 1.81479 0
M  V30 789 C 70.5997 2.70252 2.33878 0
M  V30 790 C 70.2657 4.11644 1.84012 0
M  V30 791 C 68.9277 4.50121 1.70132 0
M  V30 792 C 71.2797 5.00121 1.46725 0
M  V30 793 C 68.6077 5.74845 1.17348 0
M  V30 794 C 70.9597 6.25366 0.95392 0
M  V30 795 C 69.6237 6.6267 0.801538 0
M  V30 796 H 68.8937 0.582478 0.45804 0
M  V30 797 H 71.5407 1.83373 0.551948 0
M  V30 798 H 69.8457 2.40041 3.09657 0
M  V30 799 H 71.5427 2.74925 2.9192 0
M  V30 800 H 68.1327 3.81274 1.95775 0
M  V30 801 H 72.3167 4.71048 1.56294 0
M  V30 802 H 67.5727 6.02444 1.04264 0
M  V30 803 H 71.7467 6.93301 0.656225 0
M  V30 804 H 69.3737 7.59197 0.390351 0
M  V30 805 N 70.9488 -0.749086 1.3866 0
M  V30 806 C 71.8788 -1.8764 1.38973 0
M  V30 807 C 72.8598 -1.68178 0.255004 0
M  V30 808 O 74.0448 -1.88704 0.458754 0
M  V30 809 C 71.1748 -3.25222 1.21851 0
M  V30 810 C 70.1288 -3.59295 2.32575 0
M  V30 811 C 69.4548 -4.95663 2.00555 0
M  V30 812 C 70.7548 -3.63709 3.7485 0
M  V30 813 H 72.4488 -1.87635 2.3331 0
M  V30 814 H 69.9948 -0.901329 1.12303 0
M  V30 815 H 71.9478 -4.03746 1.20695 0
M  V30 816 H 70.6718 -3.25719 0.239775 0
M  V30 817 H 69.3308 -2.83093 2.32925 0
M  V30 818 H 68.9788 -4.92724 1.01154 0
M  V30 819 H 68.6788 -5.19429 2.74714 0
M  V30 820 H 70.2028 -5.7656 2.01024 0
M  V30 821 H 71.6168 -4.32338 3.76506 0
M  V30 822 H 70.0138 -3.98986 4.48252 0
M  V30 823 H 71.0838 -2.63834 4.06841 0
M  V30 824 N 72.4269 -1.23603 -0.977757 0
M  V30 825 C 73.6569 -1.09487 -1.75203 0
M  V30 826 C 74.0649 0.356321 -1.85814 0
M  V30 827 O 73.4079 1.25816 -1.33851 0
M  V30 828 C 73.4699 -1.64905 -3.19447 0
M  V30 829 C 73.1339 -3.13688 -3.32338 0
M  V30 830 C 74.1309 -4.10953 -3.18455 0
M  V30 831 C 71.8159 -3.53449 -3.56902 0
M  V30 832 C 73.8099 -5.45962 -3.28944 0
M  V30 833 C 71.4969 -4.88602 -3.6703 0
M  V30 834 C 72.4949 -5.84668 -3.53062 0
M  V30 835 O 72.1829 -7.17365 -3.62826 0
M  V30 836 H 71.9149 -0.38367 -0.556573 0
M  V30 837 H 74.4689 -1.6398 -1.23693 0
M  V30 838 H 72.6989 -1.04835 -3.72218 0
M  V30 839 H 74.3879 -1.46226 -3.78646 0
M  V30 840 H 75.1539 -3.81577 -2.99372 0
M  V30 841 H 71.0329 -2.79188 -3.66844 0
M  V30 842 H 74.5769 -6.20925 -3.17958 0
M  V30 843 H 70.4739 -5.17653 -3.85623 0
M  V30 844 H 71.2419 -7.2515 -3.79605 0
M  V30 845 N 73.905 1.17692 -1.04816 0
M  V30 846 C 75.182 1.83768 -0.669963 0
M  V30 847 C 75.562 1.93232 0.849986 0
M  V30 848 O 74.91 1.46397 1.75443 0
M  V30 849 C 75.12 3.21641 -1.35455 0
M  V30 850 C 76.468 3.97592 -1.49017 0
M  V30 851 O 77.492 3.31107 -1.31326 0
M  V30 852 O 76.351 5.16729 -1.77914 0
M  V30 853 H 73.445 0.792799 -0.235368 0
M  V30 854 H 75.991 1.25021 -1.14751 0
M  V30 855 H 74.763 3.097 -2.39168 0
M  V30 856 H 74.386 3.88052 -0.866107 0
M  V30 857 N 75.3831 0.828654 1.34056 0
M  V30 858 C 76.3161 0.199763 2.27324 0
M  V30 859 C 77.2941 -0.647168 1.49166 0
M  V30 860 O 78.4781 -0.609661 1.78369 0
M  V30 861 C 75.6051 -0.720455 3.30949 0
M  V30 862 C 74.6511 0.0496888 4.26471 0
M  V30 863 S 75.4841 1.40072 5.16856 0
M  V30 864 C 76.6401 0.485527 6.24014 0
M  V30 865 H 76.8731 0.990478 2.80316 0
M  V30 866 H 74.4061 0.624857 1.41191 0
M  V30 867 H 76.3641 -1.24581 3.91139 0
M  V30 868 H 75.0251 -1.48474 2.76793 0
M  V30 869 H 74.2181 -0.650104 4.9979 0
M  V30 870 H 73.8201 0.505779 3.70564 0
M  V30 871 H 76.1121 -0.320672 6.76741 0
M  V30 872 H 77.0551 1.18856 6.98054 0
M  V30 873 H 77.4631 0.0714109 5.64455 0
M  V30 874 N 76.8612 -1.46375 0.584142 0
M  V30 875 C 77.7712 -2.34115 -0.150728 0
M  V30 876 C 78.7872 -1.49838 -0.884567 0
M  V30 877 O 79.9632 -1.82704 -0.847429 0
M  V30 878 C 77.0282 -3.2705 -1.15062 0
M  V30 879 C 76.0892 -4.27228 -0.421293 0
M  V30 880 C 75.3222 -5.15722 -1.37355 0
M  V30 881 O 75.5452 -5.07176 -2.61014 0
M  V30 882 O 74.4792 -5.95383 -0.883355 0
M  V30 883 H 78.3052 -2.98309 0.569708 0
M  V30 884 H 75.8902 -1.45373 0.344535 0
M  V30 885 H 77.7722 -3.84381 -1.72712 0
M  V30 886 H 76.4472 -2.65451 -1.8525 0
M  V30 887 H 75.3542 -3.7358 0.197085 0
M  V30 888 H 76.6872 -4.91616 0.239641 0
M  V30 889 N 78.3393 -0.321999 -1.54275 0
M  V30 890 C 79.5863 0.281044 -2.0054 0
M  V30 891 C 79.9143 1.52265 -1.21019 0
M  V30 892 O 79.1693 1.93687 -0.279982 0
M  V30 893 C 79.4683 0.661769 -3.5122 0
M  V30 894 C 79.1343 -0.480482 -4.48333 0
M  V30 895 C 77.7963 -0.794005 -4.74604 0
M  V30 896 C 80.1483 -1.24783 -5.06042 0
M  V30 897 C 77.4763 -1.87763 -5.55844 0
M  V30 898 C 79.8283 -2.32153 -5.88462 0
M  V30 899 C 78.4923 -2.64089 -6.13036 0
M  V30 900 H 77.7623 0.102841 -0.733829 0
M  V30 901 H 80.4093 -0.445453 -1.86247 0
M  V30 902 H 78.7143 1.46867 -3.63232 0
M  V30 903 H 80.4113 1.13989 -3.84457 0
M  V30 904 H 77.0013 -0.226039 -4.28004 0
M  V30 905 H 81.1853 -1.01887 -4.85729 0
M  V30 906 H 76.4413 -2.12954 -5.73115 0
M  V30 907 H 80.6153 -2.92057 -6.32199 0
M  V30 908 H 78.2423 -3.48185 -6.75775 0
M  V30 909 N 79.8174 1.5752 -0.0501392 0
M  V30 910 C 80.7644 2.1147 0.924603 0
M  V30 911 C 81.7344 1.02182 1.30951 0
M  V30 912 O 82.9194 1.29723 1.39916 0
M  V30 913 C 80.0594 2.66337 2.19451 0
M  V30 914 C 79.1724 3.89708 1.86418 0
M  V30 915 C 78.3074 4.32893 3.07859 0
M  V30 916 C 77.3464 5.48967 2.70742 0
M  V30 917 N 76.4834 5.87211 3.84874 0
M  V30 918 H 81.3234 2.94465 0.457639 0
M  V30 919 H 78.8604 1.45531 0.214266 0
M  V30 920 H 80.8184 2.96247 2.93758 0
M  V30 921 H 79.4484 1.86141 2.63726 0
M  V30 922 H 78.5004 3.66396 1.02264 0
M  V30 923 H 79.8124 4.74074 1.55096 0
M  V30 924 H 78.9664 4.6435 3.90466 0
M  V30 925 H 77.7054 3.47336 3.42358 0
M  V30 926 H 76.7104 5.17183 1.86551 0
M  V30 927 H 77.9354 6.3624 2.37436 0
M  V30 928 H 75.8814 5.04607 4.19175 0
M  V30 929 H 75.7984 6.66266 3.57247 0
M  V30 930 H 77.0664 6.23282 4.68123 0
M  V30 931 N 81.2955 -0.223234 1.56011 0
M  V30 932 C 82.2055 -1.29766 1.95443 0
M  V30 933 C 83.2215 -1.51373 0.858028 0
M  V30 934 O 84.3975 -1.64536 1.16146 0
M  V30 935 C 81.4625 -2.62772 2.26167 0
M  V30 936 C 80.5235 -2.49482 3.49367 0
M  V30 937 C 79.7565 -3.76145 3.78616 0
M  V30 938 O 79.9795 -4.79087 3.09568 0
M  V30 939 O 78.9135 -3.73358 4.72109 0
M  V30 940 H 82.7395 -0.99309 2.87004 0
M  V30 941 H 80.3245 -0.425958 1.43199 0
M  V30 942 H 82.2065 -3.41327 2.47131 0
M  V30 943 H 80.8815 -2.92913 1.37781 0
M  V30 944 H 79.7885 -1.69133 3.33684 0
M  V30 945 H 81.1215 -2.2428 4.38131 0
M  V30 946 N 82.7736 -1.49793 -0.48987 0
M  V30 947 C 84.0196 -1.60078 -1.24511 0
M  V30 948 C 84.3526 -0.291608 -1.91998 0
M  V30 949 O 83.6276 0.705647 -1.81248 0
M  V30 950 C 83.9106 -2.76791 -2.30345 0
M  V30 951 C 83.7636 -4.17535 -1.67286 0
M  V30 952 C 85.0826 -2.89111 -3.31817 0
M  V30 953 H 82.2016 -0.582645 -0.451324 0
M  V30 954 H 84.8436 -1.82117 -0.541612 0
M  V30 955 H 82.9936 -2.5813 -2.90346 0
M  V30 956 H 84.6656 -4.4774 -1.11026 0
M  V30 957 H 82.9086 -4.22665 -0.976577 0
M  V30 958 H 83.5796 -4.95094 -2.44103 0
M  V30 959 H 86.0556 -3.06133 -2.81819 0
M  V30 960 H 84.9316 -3.72433 -4.03219 0
M  V30 961 H 85.1926 -1.9893 -3.94815 0
M  V30 962 N 84.2517 0.741722 -1.39055 0
M  V30 963 C 85.1997 1.87702 -1.3737 0
M  V30 964 C 86.1937 1.67427 -0.257812 0
M  V30 965 O 87.3997 1.7485 -0.427489 0
M  V30 966 H 83.7747 0.617757 -0.428812 0
M  V30 967 H 85.7457 1.86239 -2.33147 0
M  V30 968 C 84.4947 3.25315 -1.22741 0
M  V30 969 H 83.8177 3.41509 -2.07873 0
M  V30 970 H 85.2577 4.04964 -1.25618 0
M  V30 971 C 83.7167 3.36838 0.0647316 0
M  V30 972 O 84.2467 3.88073 1.03741 0
M  V30 973 N 82.4527 2.90329 0.125544 0
M  V30 974 H 81.9997 2.48823 -0.666682 0
M  V30 975 H 81.9577 2.98418 0.989639 0
M  V30 976 N 85.7298 1.2412 0.971189 0
M  V30 977 C 86.9548 1.10667 1.75407 0
M  V30 978 C 87.3798 -0.337048 1.85056 0
M  V30 979 O 86.7378 -1.24396 1.31892 0
M  V30 980 C 86.7858 1.74726 3.15441 0
M  V30 981 O 85.8898 1.01566 3.99697 0
M  V30 982 H 85.2308 0.387341 0.539317 0
M  V30 983 H 87.7608 1.64358 1.2185 0
M  V30 984 H 87.7708 1.80341 3.6598 0
M  V30 985 H 86.4458 2.79773 3.07734 0
M  V30 986 H 85.0228 1.03713 3.58187 0
M  V30 987 N 87.2079 -1.17134 1.05439 0
M  V30 988 C 88.4329 -1.91913 0.786396 0
M  V30 989 C 88.8579 -1.7643 -0.652234 0
M  V30 990 O 88.2159 -1.08372 -1.45345 0
M  V30 991 C 88.2639 -3.40921 1.17497 0
M  V30 992 O 87.3679 -4.11244 0.308589 0
M  V30 993 H 86.7089 -0.598215 0.288158 0
M  V30 994 H 89.2389 -1.48457 1.4079 0
M  V30 995 H 89.2489 -3.91668 1.14281 0
M  V30 996 H 87.9239 -3.5151 2.22292 0
M  V30 997 H 86.5009 -3.70731 0.40157 0
M  V30 998 N 88.686 -0.835752 -1.33615 0
M  V30 999 C 89.616 -0.281739 -2.31794 0
M  V30 1000 C 90.597 0.608833 -1.58831 0
M  V30 1001 O 91.782 0.533035 -1.86741 0
M  V30 1002 C 88.912 0.546612 -3.42971 0
M  V30 1003 C 87.866 -0.247904 -4.27281 0
M  V30 1004 C 87.192 0.704001 -5.30045 0
M  V30 1005 C 88.492 -1.46324 -5.01385 0
M  V30 1006 H 90.186 -1.10206 -2.78379 0
M  V30 1007 H 87.732 -0.531388 -1.33837 0
M  V30 1008 H 89.685 0.944467 -4.1068 0
M  V30 1009 H 88.409 1.40011 -2.95067 0
M  V30 1010 H 87.068 -0.627281 -3.61194 0
M  V30 1011 H 86.716 1.55381 -4.78399 0
M  V30 1012 H 86.416 0.176524 -5.87335 0
M  V30 1013 H 87.94 1.09944 -6.0062 0
M  V30 1014 H 89.354 -1.13871 -5.61877 0
M  V30 1015 H 87.751 -1.92728 -5.6831 0
M  V30 1016 H 88.821 -2.23467 -4.30338 0
M  V30 1017 N 90.1641 1.46063 -0.591896 0
M  V30 1018 C 91.1141 2.27458 0.157172 0
M  V30 1019 C 92.0981 1.3641 0.853301 0
M  V30 1020 O 93.2901 1.60517 0.74588 0
M  V30 1021 C 90.4191 3.22956 1.16423 0
M  V30 1022 C 89.5051 4.2149 0.469742 0
M  V30 1023 N 89.8961 5.03519 -0.479839 0
M  V30 1024 C 88.1941 4.40161 0.719319 0
M  V30 1025 C 88.8951 5.74904 -0.886591 0
M  V30 1026 N 87.8711 5.43097 -0.233731 0
M  V30 1027 H 91.6731 2.88272 -0.572392 0
M  V30 1028 H 89.1871 1.57024 -0.414375 0
M  V30 1029 H 91.1841 3.79986 1.71513 0
M  V30 1030 H 89.8441 2.63701 1.89451 0
M  V30 1031 H 90.8551 5.1078 -0.855823 0
M  V30 1032 H 87.5321 3.92046 1.43548 0
M  V30 1033 H 88.9221 6.50844 -1.66888 0
M  V30 1034 N 91.6422 0.330177 1.54103 0
M  V30 1035 C 92.5722 -0.525353 2.27513 0
M  V30 1036 C 93.5532 -1.11383 1.2856 0
M  V30 1037 O 94.7382 -1.13773 1.57383 0
M  V30 1038 C 91.8682 -1.6831 3.03791 0
M  V30 1039 C 90.8222 -1.2236 4.10137 0
M  V30 1040 C 90.1482 -2.46882 4.74293 0
M  V30 1041 C 91.4482 -0.333697 5.21233 0
M  V30 1042 H 93.1422 0.087013 2.99274 0
M  V30 1043 H 90.6882 0.0432893 1.43935 0
M  V30 1044 H 92.6412 -2.28795 3.5388 0
M  V30 1045 H 91.3652 -2.32216 2.29659 0
M  V30 1046 H 90.0242 -0.64165 3.60941 0
M  V30 1047 H 89.6722 -3.09165 3.96769 0
M  V30 1048 H 89.3722 -2.16825 5.46133 0
M  V30 1049 H 90.8962 -3.08117 5.27159 0
M  V30 1050 H 92.3102 -0.845013 5.67038 0
M  V30 1051 H 90.7072 -0.125612 5.99969 0
M  V30 1052 H 91.7772 0.633724 4.80741 0
M  V30 1053 N 93.1203 -1.57491 0.0584922 0
M  V30 1054 C 94.3683 -1.92597 -0.612436 0
M  V30 1055 C 94.6893 -0.938162 -1.70949 0
M  V30 1056 O 93.9593 0.0158301 -1.95894 0
M  V30 1057 H 92.5393 -0.710964 -0.229214 0
M  V30 1058 H 95.2013 -1.94571 0.113218 0
M  V30 1059 H 94.2973 -2.94038 -1.04633 0
M  V30 1060 N 94.5984 0.214957 -1.56127 0
M  V30 1061 C 95.5484 1.27006 -1.8935 0
M  V30 1062 C 96.5324 1.41969 -0.757202 0
M  V30 1063 O 97.7244 1.44673 -1.01973 0
M  V30 1064 C 94.8534 2.61911 -2.2194 0
M  V30 1065 C 93.9394 2.50822 -3.41978 0
M  V30 1066 N 94.3304 2.09391 -4.60423 0
M  V30 1067 C 92.6284 2.81765 -3.45723 0
M  V30 1068 C 93.3294 2.09712 -5.42582 0
M  V30 1069 N 92.3054 2.50454 -4.82466 0
M  V30 1070 H 96.1074 0.940734 -2.78437 0
M  V30 1071 H 93.6214 0.423492 -1.56781 0
M  V30 1072 H 95.6184 3.38096 -2.43919 0
M  V30 1073 H 94.2784 2.95684 -1.34169 0
M  V30 1074 H 95.2894 1.80416 -4.85459 0
M  V30 1075 H 91.9664 3.19865 -2.68314 0
M  V30 1076 H 93.3564 1.79748 -6.4741 0
M  V30 1077 N 96.0765 1.50051 0.48192 0
M  V30 1078 C 97.0395 1.67584 1.5636 0
M  V30 1079 C 98.0395 0.546894 1.51214 0
M  V30 1080 O 99.2295 0.813725 1.54026 0
M  V30 1081 C 96.3615 1.691 2.96003 0
M  V30 1082 H 97.5545 2.64078 1.42136 0
M  V30 1083 H 95.1075 1.39369 0.707533 0
M  V30 1084 H 95.8425 0.742589 3.15684 0
M  V30 1085 H 95.6275 2.51105 3.01146 0
M  V30 1086 H 97.1175 1.84656 3.74556 0
M  V30 1087 N 97.5546 -0.734337 1.39446 0
M  V30 1088 C 98.8026 -1.49096 1.36436 0
M  V30 1089 C 99.1236 -1.94961 -0.0388255 0
M  V30 1090 O 98.3936 -1.69033 -0.990191 0
M  V30 1091 H 96.9736 -0.5531 0.502085 0
M  V30 1092 H 99.6356 -0.871725 1.74319 0
M  V30 1093 H 98.7316 -2.37276 2.02747 0
M  V30 1094 N 99.0327 -1.24633 -0.964593 0
M  V30 1095 C 100.258 -1.11596 -1.74818 0
M  V30 1096 C 100.683 0.32723 -1.85232 0
M  V30 1097 O 100.041 1.23695 -1.32549 0
M  V30 1098 C 100.089 -1.76397 -3.1451 0
M  V30 1099 O 99.1927 -1.03685 -3.99153 0
M  V30 1100 H 98.5337 -0.390196 -0.537255 0
M  V30 1101 H 101.064 -1.65002 -1.20977 0
M  V30 1102 H 101.074 -1.8228 -3.65018 0
M  V30 1103 H 99.7487 -2.81401 -3.06246 0
M  V30 1104 H 98.3257 -1.05611 -3.57632 0
M  V30 1105 N 100.511 1.16574 -1.06058 0
M  V30 1106 C 101.736 1.91493 -0.796562 0
M  V30 1107 C 102.161 1.76773 0.642868 0
M  V30 1108 O 101.519 1.09142 1.44768 0
M  V30 1109 C 101.567 3.40293 -1.19303 0
M  V30 1110 O 100.671 4.11074 -0.330394 0
M  V30 1111 H 100.012 0.596678 -0.291326 0
M  V30 1112 H 102.542 1.47708 -1.41575 0
M  V30 1113 H 102.552 3.91057 -1.16356 0
M  V30 1114 H 101.227 3.50326 -2.24153 0
M  V30 1115 H 99.8038 3.70513 -0.421225 0
M  V30 1116 N 101.989 0.842826 1.3317 0
M  V30 1117 C 103.4 0.496651 1.79973 0
M  V30 1118 C 103.751 -0.984641 1.69703 0
M  V30 1119 O 102.876 -1.76743 1.24863 0
M  V30 1120 C 103.471 0.894727 3.26772 0
M  V30 1121 C 102.03 0.600629 3.71577 0
M  V30 1122 C 101.177 1.10091 2.5451 0
M  V30 1123 H 104.128 1.03116 1.20635 0
M  V30 1124 H 104.149 0.206347 3.7994 0
M  V30 1125 H 103.661 1.97287 3.34215 0
M  V30 1126 H 101.762 -0.467284 3.69658 0
M  V30 1127 H 101.875 1.15863 4.64879 0
M  V30 1128 H 100.239 0.52162 2.49301 0
M  V30 1129 H 101.022 2.18591 2.64713 0
M  V30 1130 N 103.467 -1.45747 0.599634 0
M  V30 1131 C 104.417 -2.27538 -0.145107 0
M  V30 1132 C 105.401 -1.3686 -0.846055 0
M  V30 1133 O 106.593 -1.6091 -0.737357 0
M  V30 1134 C 103.722 -3.23569 -1.14708 0
M  V30 1135 C 102.808 -4.21734 -0.447383 0
M  V30 1136 N 103.199 -5.03257 0.506535 0
M  V30 1137 C 101.497 -4.40536 -0.695966 0
M  V30 1138 C 102.198 -5.74426 0.917068 0
M  V30 1139 N 101.174 -5.42966 0.26253 0
M  V30 1140 H 104.976 -2.87965 0.587672 0
M  V30 1141 H 102.49 -1.56803 0.422697 0
M  V30 1142 H 104.487 -3.8089 -1.69495 0
M  V30 1143 H 103.147 -2.64702 -1.8805 0
M  V30 1144 H 104.158 -5.10319 0.882899 0
M  V30 1145 H 100.835 -3.92802 -1.41467 0
M  V30 1146 H 102.225 -6.4995 1.70338 0
M  V30 1147 N 104.945 -0.338344 -1.53925 0
M  V30 1148 C 105.908 0.508299 -2.23493 0
M  V30 1149 C 106.908 1.03175 -1.23335 0
M  V30 1150 O 108.098 0.921826 -1.47811 0
M  V30 1151 C 105.23 1.70754 -2.95052 0
M  V30 1152 H 106.423 -0.100058 -2.99733 0
M  V30 1153 H 103.976 -0.0896198 -1.56043 0
M  V30 1154 H 104.711 2.35474 -2.22986 0
M  V30 1155 H 104.496 1.33946 -3.68512 0
M  V30 1156 H 105.986 2.30818 -3.48013 0
M  V30 1157 N 106.423 1.57458 -0.0668435 0
M  V30 1158 C 107.353 2.15468 0.899764 0
M  V30 1159 C 108.334 1.08042 1.31381 0
M  V30 1160 O 109.519 1.36054 1.38574 0
M  V30 1161 C 106.649 2.71232 2.16911 0
M  V30 1162 C 105.603 3.83781 1.89463 0
M  V30 1163 C 104.929 4.26127 3.22986 0
M  V30 1164 C 106.229 5.08238 1.20381 0
M  V30 1165 H 107.923 2.96488 0.416529 0
M  V30 1166 H 105.469 1.4262 0.198908 0
M  V30 1167 H 107.422 3.10458 2.84945 0
M  V30 1168 H 106.146 1.87426 2.67468 0
M  V30 1169 H 104.805 3.45051 1.23836 0
M  V30 1170 H 104.453 3.39249 3.71374 0
M  V30 1171 H 104.153 5.01993 3.05413 0
M  V30 1172 H 105.677 4.67966 3.92225 0
M  V30 1173 H 107.091 5.44811 1.78475 0
M  V30 1174 H 105.488 5.89349 1.13083 0
M  V30 1175 H 106.558 4.84558 0.182153 0
M  V30 1176 N 107.901 -0.206675 1.56239 0
M  V30 1177 C 108.864 -1.23976 1.92776 0
M  V30 1178 C 109.864 -1.39041 0.807729 0
M  V30 1179 O 111.054 -1.37051 1.0753 0
M  V30 1180 C 108.186 -2.61112 2.19165 0
M  V30 1181 H 109.379 -0.927764 2.85189 0
M  V30 1182 H 106.932 -0.447718 1.4975 0
M  V30 1183 H 107.667 -2.97386 1.29352 0
M  V30 1184 H 107.452 -2.51552 3.00772 0
M  V30 1185 H 108.942 -3.35633 2.48476 0
M  V30 1186 N 109.379 -1.50304 -0.473955 0
M  V30 1187 C 110.604 -1.65175 -1.25427 0
M  V30 1188 C 111.029 -0.333673 -1.85117 0
M  V30 1189 O 110.387 0.702114 -1.67153 0
M  V30 1190 C 110.435 -2.74295 -2.34082 0
M  V30 1191 O 109.539 -2.35349 -3.38651 0
M  V30 1192 H 108.88 -0.551944 -0.369126 0
M  V30 1193 H 111.41 -1.96662 -0.564364 0
M  V30 1194 H 111.42 -2.97285 -2.79438 0
M  V30 1195 H 110.095 -3.69959 -1.90008 0
M  V30 1196 H 108.672 -2.22794 -2.99027 0
M  V30 1197 N 110.857 0.726932 -1.39834 0
M  V30 1198 C 112.268 1.30558 -1.3346 0
M  V30 1199 C 112.619 1.962 -0.00273003 0
M  V30 1200 O 111.744 1.96826 0.899371 0
M  V30 1201 C 112.339 2.37404 -2.41713 0
M  V30 1202 C 110.898 2.90921 -2.38835 0
M  V30 1203 C 110.045 1.64578 -2.2318 0
M  V30 1204 H 112.996 0.523862 -1.49804 0
M  V30 1205 H 113.017 3.17984 -2.08966 0
M  V30 1206 H 112.529 1.89599 -3.38635 0
M  V30 1207 H 110.63 3.42985 -1.45575 0
M  V30 1208 H 110.743 3.43487 -3.33997 0
M  V30 1209 H 109.107 1.89219 -1.70494 0
M  V30 1210 H 109.89 1.18814 -3.22084 0
M  V30 1211 N 112.336 1.25143 0.95797 0
M  V30 1212 C 113.299 1.05321 2.03569 0
M  V30 1213 C 114.299 0.007152 1.60798 0
M  V30 1214 O 115.489 0.24903 1.72411 0
M  V30 1215 C 112.621 0.598394 3.35607 0
M  V30 1216 H 113.814 2.00986 2.22586 0
M  V30 1217 H 111.367 1.07502 1.13459 0
M  V30 1218 H 112.102 -0.361014 3.22284 0
M  V30 1219 H 111.887 1.35351 3.67998 0
M  V30 1220 H 113.377 0.48104 4.1482 0
M  V30 1221 N 113.814 -1.1601 1.06675 0
M  V30 1222 C 115.061 -1.86633 0.785781 0
M  V30 1223 C 115.389 -1.81929 -0.687896 0
M  V30 1224 O 114.644 -1.23253 -1.52011 0
M  V30 1225 C 114.943 -3.35547 1.23057 0
M  V30 1226 C 114.609 -3.60448 2.70902 0
M  V30 1227 C 113.271 -3.66954 3.11285 0
M  V30 1228 C 115.623 -3.7071 3.66365 0
M  V30 1229 C 112.951 -3.81225 4.45965 0
M  V30 1230 C 115.303 -3.86503 5.00797 0
M  V30 1231 C 113.967 -3.91252 5.40813 0
M  V30 1232 H 113.237 -0.682937 0.287538 0
M  V30 1233 H 115.884 -1.37146 1.33654 0
M  V30 1234 H 114.189 -3.87193 0.59907 0
M  V30 1235 H 115.886 -3.88583 0.990163 0
M  V30 1236 H 112.476 -3.56021 2.38636 0
M  V30 1237 H 116.66 -3.64991 3.36296 0
M  V30 1238 H 111.916 -3.83155 4.76447 0
M  V30 1239 H 116.09 -3.93385 5.74649 0
M  V30 1240 H 113.717 -4.02062 6.45174 0
M  V30 1241 N 115.292 -0.849877 -1.32721 0
M  V30 1242 C 116.517 -0.463856 -2.02146 0
M  V30 1243 C 116.942 0.930449 -1.63476 0
M  V30 1244 O 116.3 1.61033 -0.832952 0
M  V30 1245 C 116.348 -0.604955 -3.55489 0
M  V30 1246 O 115.452 0.36425 -4.10788 0
M  V30 1247 H 114.793 -0.187046 -0.637111 0
M  V30 1248 H 117.323 -1.14775 -1.69375 0
M  V30 1249 H 117.333 -0.490696 -4.05038 0
M  V30 1250 H 116.008 -1.62174 -3.82978 0
M  V30 1251 H 114.585 0.206628 -3.72327 0
M  V30 1252 N 116.77 1.45427 -0.607355 0
M  V30 1253 C 117.998 2.06614 -0.108814 0
M  V30 1254 C 118.413 1.45204 1.2067 0
M  V30 1255 O 117.77 0.566132 1.73497 0
M  V30 1256 C 117.821 3.61481 0.0375347 0
M  V30 1257 O 117.542 4.20598 -1.22593 0
M  V30 1258 C 119.043 4.39652 0.567561 0
M  V30 1259 H 116.263 0.66747 -0.0687351 0
M  V30 1260 H 118.807 1.86675 -0.835022 0
M  V30 1261 H 116.962 3.80762 0.714068 0
M  V30 1262 H 117.376 5.1377 -1.05547 0
M  V30 1263 H 118.85 5.48518 0.61905 0
M  V30 1264 H 119.327 4.09417 1.58978 0
M  V30 1265 H 119.933 4.25234 -0.0749202 0
M  V30 1266 N 118.248 0.346503 1.53744 0
M  V30 1267 C 119.497 -0.250122 2.00143 0
M  V30 1268 C 119.81 -1.51418 1.23822 0
M  V30 1269 O 121.016 -2.18823 1.60713 0
M  V30 1270 C 119.472 -0.496252 3.56462 0
M  V30 1271 C 119.08 0.752077 4.41642 0
M  V30 1272 C 120.824 -1.05157 4.11269 0
M  V30 1273 C 118.731 0.476583 5.89477 0
M  V30 1274 H 117.661 -0.0972409 0.747703 0
M  V30 1275 H 120.312 0.46229 1.77581 0
M  V30 1276 H 118.694 -1.26944 3.75102 0
M  V30 1277 H 119.868 1.5266 4.34778 0
M  V30 1278 H 118.183 1.22925 3.97842 0
M  V30 1279 H 120.78 -1.27269 5.19333 0
M  V30 1280 H 121.123 -2.00799 3.64672 0
M  V30 1281 H 121.656 -0.339019 3.96353 0
M  V30 1282 H 118.395 1.4028 6.40314 0
M  V30 1283 H 117.915 -0.259794 5.99237 0
M  V30 1284 H 119.594 0.0949315 6.4693 0
M  V30 1285 N 119.726 -1.57421 0.075193 0
M  V30 1286 C 120.973 -1.93618 -0.593146 0
M  V30 1287 C 121.301 -0.955484 -1.69413 0
M  V30 1288 O 120.556 0.0283251 -1.9568 0
M  V30 1289 C 120.855 -3.36428 -1.20626 0
M  V30 1290 C 120.521 -4.50307 -0.231078 0
M  V30 1291 C 119.183 -4.81186 0.0371936 0
M  V30 1292 C 121.535 -5.19374 0.435888 0
M  V30 1293 C 118.863 -5.78466 0.979461 0
M  V30 1294 C 121.215 -6.17665 1.3665 0
M  V30 1295 C 119.879 -6.46958 1.6432 0
M  V30 1296 H 119.149 -0.708499 -0.217047 0
M  V30 1297 H 121.796 -1.90937 0.146793 0
M  V30 1298 H 120.101 -3.35592 -2.02201 0
M  V30 1299 H 121.798 -3.61727 -1.73073 0
M  V30 1300 H 118.388 -4.26227 -0.450357 0
M  V30 1301 H 122.572 -4.95711 0.241748 0
M  V30 1302 H 117.828 -5.99487 1.20106 0
M  V30 1303 H 122.002 -6.70284 1.88924 0
M  V30 1304 H 119.629 -7.2215 2.37494 0
M  V30 1305 N 121.204 0.198386 -1.56346 0
M  V30 1306 C 122.429 0.939682 -1.84891 0
M  V30 1307 C 122.854 1.76202 -0.658369 0
M  V30 1308 O 122.212 1.76993 0.392851 0
M  V30 1309 C 122.26 1.81428 -3.11635 0
M  V30 1310 O 121.364 2.91265 -2.91956 0
M  V30 1311 H 120.705 0.264807 -0.608912 0
M  V30 1312 H 123.235 0.204695 -2.03573 0
M  V30 1313 H 123.245 2.21958 -3.42343 0
M  V30 1314 H 121.92 1.21004 -3.97908 0
M  V30 1315 H 120.497 2.54514 -2.72538 0
M  V30 1316 N 122.682 1.50554 0.465978 0
M  V30 1317 C 123.929 1.61798 1.21768 0
M  V30 1318 C 124.257 0.320696 1.91838 0
M  V30 1319 O 123.512 -0.693724 1.82992 0
M  V30 1320 C 123.811 2.75152 2.28093 0
M  V30 1321 C 123.477 4.15454 1.75239 0
M  V30 1322 C 122.139 4.53628 1.60546 0
M  V30 1323 C 124.491 5.03121 1.36083 0
M  V30 1324 C 121.819 5.77204 1.05128 0
M  V30 1325 C 124.171 6.27249 0.821056 0
M  V30 1326 C 122.835 6.64221 0.660795 0
M  V30 1327 H 122.105 0.592063 0.445582 0
M  V30 1328 H 124.752 1.84503 0.512927 0
M  V30 1329 H 123.057 2.46556 3.04496 0
M  V30 1330 H 124.754 2.81055 2.86023 0
M  V30 1331 H 121.344 3.85341 1.87644 0
M  V30 1332 H 125.528 4.74257 1.46267 0
M  V30 1333 H 120.784 6.0452 0.91462 0
M  V30 1334 H 124.958 6.94537 0.509018 0
M  V30 1335 H 122.585 7.59854 0.229226 0
M  V30 1336 N 124.16 -0.719506 1.40217 0
M  V30 1337 C 125.407 -1.47933 1.38283 0
M  V30 1338 C 125.735 -1.94493 -0.0161536 0
M  V30 1339 O 124.99 -1.68224 -0.999956 0
M  V30 1340 C 125.289 -2.72271 2.31524 0
M  V30 1341 C 124.955 -2.44496 3.78857 0
M  V30 1342 C 123.617 -2.36631 4.18998 0
M  V30 1343 C 125.969 -2.21104 4.71977 0
M  V30 1344 C 123.297 -2.03437 5.503 0
M  V30 1345 C 125.649 -1.89423 6.03574 0
M  V30 1346 C 124.313 -1.80038 6.42762 0
M  V30 1347 H 123.583 -0.541325 0.506012 0
M  V30 1348 H 126.23 -0.824502 1.72842 0
M  V30 1349 H 124.535 -3.42572 1.90137 0
M  V30 1350 H 126.232 -3.30348 2.27313 0
M  V30 1351 H 122.822 -2.51503 3.47051 0
M  V30 1352 H 127.006 -2.26139 4.41786 0
M  V30 1353 H 122.262 -1.94705 5.79569 0
M  V30 1354 H 126.436 -1.70336 6.75247 0
M  V30 1355 H 124.063 -1.54083 7.44421 0
M  V30 1356 N 125.638 -1.25649 -0.95132 0
M  V30 1357 C 126.586 -1.06118 -2.06982 0
M  V30 1358 C 127.58 0.00889169 -1.69398 0
M  V30 1359 O 128.786 -0.146988 -1.79399 0
M  V30 1360 H 125.161 -0.326248 -0.677544 0
M  V30 1361 H 127.132 -2.00932 -2.2061 0
M  V30 1362 C 125.881 -0.700145 -3.40578 0
M  V30 1363 H 125.204 -1.51537 -3.69968 0
M  V30 1364 H 126.644 -0.603211 -4.19687 0
M  V30 1365 C 125.103 0.59403 -3.31622 0
M  V30 1366 O 125.633 1.63522 -3.66911 0
M  V30 1367 N 123.839 0.58089 -2.84735 0
M  V30 1368 H 123.386 -0.266783 -2.56215 0
M  V30 1369 H 123.344 1.44695 -2.79125 0
M  V30 1370 N 127.117 1.15442 -1.07289 0
M  V30 1371 C 128.065 2.22225 -0.686952 0
M  V30 1372 C 129.059 1.66688 0.30193 0
M  V30 1373 O 130.265 1.79236 0.165712 0
M  V30 1374 H 126.64 0.723783 -0.204064 0
M  V30 1375 H 128.611 2.52056 -1.5972 0
M  V30 1376 C 127.36 3.47556 -0.100149 0
M  V30 1377 H 126.683 3.90612 -0.852211 0
M  V30 1378 H 128.123 4.23794 0.132235 0
M  V30 1379 C 126.582 3.16337 1.159 0
M  V30 1380 O 127.112 3.33074 2.24555 0
M  V30 1381 N 125.318 2.70385 1.06491 0
M  V30 1382 H 124.865 2.56966 0.180668 0
M  V30 1383 H 124.823 2.49871 1.90819 0
M  V30 1384 N 128.595 0.856903 1.32268 0
M  V30 1385 C 129.543 0.291987 2.3076 0
M  V30 1386 C 130.537 -0.585857 1.58947 0
M  V30 1387 O 131.743 -0.47341 1.73663 0
M  V30 1388 H 128.118 0.075721 0.748178 0
M  V30 1389 H 130.089 1.13687 2.75895 0
M  V30 1390 C 128.838 -0.502869 3.44044 0
M  V30 1391 H 128.161 0.163328 3.99466 0
M  V30 1392 H 129.601 -0.863691 4.1511 0
M  V30 1393 C 128.06 -1.68898 2.91505 0
M  V30 1394 O 128.59 -2.78811 2.89184 0
M  V30 1395 N 126.796 -1.51679 2.47875 0
M  V30 1396 H 126.343 -0.622666 2.49961 0
M  V30 1397 H 126.301 -2.31184 2.13076 0
M  V30 1398 N 130.073 -1.45103 0.615059 0
M  V30 1399 C 131.301 -2.06553 0.11977 0
M  V30 1400 C 131.716 -1.45842 -1.19898 0
M  V30 1401 O 131.073 -0.575325 -1.73194 0
M  V30 1402 C 131.124 -3.61495 -0.018364 0
M  V30 1403 O 130.845 -4.19942 1.24822 0
M  V30 1404 C 132.346 -4.39947 -0.544237 0
M  V30 1405 H 129.566 -0.667096 0.0722739 0
M  V30 1406 H 132.11 -1.8623 0.84491 0
M  V30 1407 H 130.265 -3.81135 -0.693865 0
M  V30 1408 H 130.679 -5.13204 1.0827 0
M  V30 1409 H 132.153 -5.48838 -0.589953 0
M  V30 1410 H 132.63 -4.10255 -1.56805 0
M  V30 1411 H 133.236 -4.25188 0.0974703 0
M  V30 1412 N 131.551 -0.354651 -1.53558 0
M  V30 1413 C 132.797 0.238797 -2.01389 0
M  V30 1414 C 133.13 1.49309 -1.2418 0
M  V30 1415 O 132.405 1.91638 -0.332457 0
M  V30 1416 C 132.688 0.541771 -3.56001 0
M  V30 1417 C 132.541 -0.725388 -4.43912 0
M  V30 1418 C 133.86 1.34685 -4.18984 0
M  V30 1419 H 130.979 0.0853177 -0.732045 0
M  V30 1420 H 133.621 -0.477384 -1.83905 0
M  V30 1421 H 131.771 1.15189 -3.71031 0
M  V30 1422 H 133.443 -1.36313 -4.407 0
M  V30 1423 H 131.686 -1.34801 -4.12324 0
M  V30 1424 H 132.357 -0.468505 -5.50008 0
M  V30 1425 H 134.833 0.830837 -4.07721 0
M  V30 1426 H 133.709 1.52759 -5.27215 0
M  V30 1427 H 133.97 2.35221 -3.74331 0
M  V30 1428 N 133.029 1.57378 -0.0835403 0
M  V30 1429 C 133.992 2.12252 0.864959 0
M  V30 1430 C 134.992 1.04916 1.21858 0
M  V30 1431 O 136.182 1.30853 1.14991 0
M  V30 1432 C 133.314 2.63358 2.16461 0
M  V30 1433 H 134.507 2.97371 0.388676 0
M  V30 1434 H 132.06 1.55423 0.165317 0
M  V30 1435 H 132.795 1.81727 2.686 0
M  V30 1436 H 132.58 3.41826 1.92087 0
M  V30 1437 H 134.07 3.05847 2.84337 0
M  V30 1438 N 134.507 -0.190092 1.56449 0
M  V30 1439 C 135.753 -0.911052 1.81184 0
M  V30 1440 C 136.086 -1.82699 0.658396 0
M  V30 1441 O 135.361 -1.91491 -0.340775 0
M  V30 1442 C 135.644 -1.72297 3.16205 0
M  V30 1443 C 135.497 -0.831419 4.42049 0
M  V30 1444 C 136.816 -2.69454 3.47969 0
M  V30 1445 H 133.935 -0.32977 0.659106 0
M  V30 1446 H 136.577 -0.178169 1.89163 0
M  V30 1447 H 134.727 -2.34778 3.09534 0
M  V30 1448 H 136.399 -0.220929 4.60771 0
M  V30 1449 H 134.642 -0.138406 4.33579 0
M  V30 1450 H 135.313 -1.43461 5.33032 0
M  V30 1451 H 137.789 -2.17104 3.54972 0
M  V30 1452 H 136.665 -3.23342 4.43555 0
M  V30 1453 H 136.926 -3.48744 2.71717 0
M  V30 1454 N 135.985 -1.50799 -0.457987 0
M  V30 1455 C 136.895 -1.73426 -1.57989 0
M  V30 1456 C 137.911 -0.617745 -1.62665 0
M  V30 1457 O 139.087 -0.897614 -1.80291 0
M  V30 1458 C 136.152 -1.83557 -2.94122 0
M  V30 1459 C 135.213 -3.07345 -2.99729 0
M  V30 1460 C 134.446 -3.16983 -4.29368 0
M  V30 1461 O 134.669 -2.33077 -5.20607 0
M  V30 1462 O 133.603 -4.09812 -4.40837 0
M  V30 1463 H 137.429 -2.68555 -1.41817 0
M  V30 1464 H 135.014 -1.35052 -0.638859 0
M  V30 1465 H 136.896 -1.92326 -3.74952 0
M  V30 1466 H 135.571 -0.916137 -3.10465 0
M  V30 1467 H 134.478 -3.04068 -2.1793 0
M  V30 1468 H 135.811 -3.9891 -2.88326 0
M  V30 1469 N 137.463 0.71206 -1.40597 0
M  V30 1470 C 138.373 1.8562 -1.43466 0
M  V30 1471 C 139.389 1.70902 -0.326902 0
M  V30 1472 O 140.565 1.93105 -0.572043 0
M  V30 1473 C 137.63 3.21451 -1.29884 0
M  V30 1474 C 136.691 3.48398 -2.50833 0
M  V30 1475 C 135.924 4.77749 -2.3789 0
M  V30 1476 O 136.147 5.53089 -1.39459 0
M  V30 1477 O 135.081 5.05111 -3.27333 0
M  V30 1478 H 138.907 1.86155 -2.39958 0
M  V30 1479 H 136.492 0.86295 -1.21957 0
M  V30 1480 H 138.374 4.02579 -1.24531 0
M  V30 1481 H 137.049 3.21636 -0.364997 0
M  V30 1482 H 135.956 2.67265 -2.61763 0
M  V30 1483 H 137.289 3.53014 -3.4299 0
M  V30 1484 N 138.941 1.26152 0.944643 0
M  V30 1485 C 140.166 1.14363 1.7302 0
M  V30 1486 C 140.591 -0.29772 1.85729 0
M  V30 1487 O 139.949 -1.2157 1.34501 0
M  V30 1488 C 139.997 1.81378 3.11664 0
M  V30 1489 O 139.101 1.10022 3.97453 0
M  V30 1490 H 138.442 0.398694 0.53098 0
M  V30 1491 H 140.972 1.66906 1.18337 0
M  V30 1492 H 140.982 1.88064 3.62072 0
M  V30 1493 H 139.657 2.86237 3.0173 0
M  V30 1494 H 138.234 1.11287 3.55907 0
M  V30 1495 N 140.419 -1.14872 1.07899 0
M  V30 1496 C 141.665 -1.86064 0.806725 0
M  V30 1497 C 141.998 -1.82434 -0.665706 0
M  V30 1498 O 141.273 -1.25138 -1.48899 0
M  V30 1499 C 141.556 -3.34929 1.32267 0
M  V30 1500 C 141.409 -3.47161 2.86006 0
M  V30 1501 C 142.728 -4.29863 0.943717 0
M  V30 1502 H 139.847 -0.675591 0.294526 0
M  V30 1503 H 142.489 -1.34925 1.33773 0
M  V30 1504 H 140.639 -3.78611 0.870974 0
M  V30 1505 H 142.311 -3.12302 3.39507 0
M  V30 1506 H 140.554 -2.88539 3.23925 0
M  V30 1507 H 141.225 -4.51777 3.17177 0
M  V30 1508 H 143.701 -3.9417 1.33302 0
M  V30 1509 H 142.577 -5.32494 1.33198 0
M  V30 1510 H 142.838 -4.41846 -0.149796 0
M  V30 1511 N 141.898 -0.863906 -1.31812 0
M  V30 1512 C 143.309 -0.52522 -1.7916 0
M  V30 1513 C 143.66 0.957518 -1.71248 0
M  V30 1514 O 142.785 1.74734 -1.27659 0
M  V30 1515 C 143.38 -0.9466 -3.25307 0
M  V30 1516 C 141.939 -0.659668 -3.70574 0
M  V30 1517 C 141.086 -1.14126 -2.52726 0
M  V30 1518 H 144.037 -1.05022 -1.1898 0
M  V30 1519 H 144.058 -0.266766 -3.79564 0
M  V30 1520 H 143.57 -2.02579 -3.31034 0
M  V30 1521 H 141.671 0.408416 -3.70355 0
M  V30 1522 H 141.784 -1.23245 -4.62977 0
M  V30 1523 H 140.148 -0.561216 -2.4844 0
M  V30 1524 H 140.931 -2.22775 -2.61201 0
M  V30 1525 N 143.376 1.44774 -0.622745 0
M  V30 1526 C 144.601 2.06999 -0.128968 0
M  V30 1527 C 145.026 1.4617 1.1839 0
M  V30 1528 O 144.384 0.560007 1.72434 0
M  V30 1529 C 144.432 3.60595 -0.0188351 0
M  V30 1530 O 143.536 3.99398 1.02739 0
M  V30 1531 H 142.877 0.659047 -0.0809544 0
M  V30 1532 H 145.407 1.85784 -0.85705 0
M  V30 1533 H 145.417 4.07627 0.174476 0
M  V30 1534 H 144.092 4.04252 -0.977384 0
M  V30 1535 H 142.669 3.64011 0.809326 0
M  V30 1536 N 144.854 0.36279 1.53368 0
M  V30 1537 C 146.102 -0.227326 2.00817 0
M  V30 1538 C 146.423 -1.49511 1.25186 0
M  V30 1539 O 145.693 -1.92482 0.364348 0
M  V30 1540 H 144.273 -0.0869923 0.741917 0
M  V30 1541 H 146.935 0.488381 1.88682 0
M  V30 1542 H 146.031 -0.456273 3.08747 0
M  V30 1543 N 146.332 -1.57332 0.0918853 0
M  V30 1544 C 147.581 -1.93412 -0.572249 0
M  V30 1545 C 147.894 -0.975515 -1.69538 0
M  V30 1546 O 149.1 -1.22991 -2.42045 0
M  V30 1547 C 147.556 -3.43648 -1.0693 0
M  V30 1548 C 147.164 -4.47994 0.0239049 0
M  V30 1549 C 148.908 -3.88695 -1.70635 0
M  V30 1550 C 146.815 -5.89381 -0.488319 0
M  V30 1551 H 145.745 -0.721939 -0.217532 0
M  V30 1552 H 148.396 -1.82735 0.167369 0
M  V30 1553 H 146.778 -3.49466 -1.8625 0
M  V30 1554 H 147.952 -4.53815 0.799277 0
M  V30 1555 H 146.267 -4.12536 0.565946 0
M  V30 1556 H 148.864 -4.91725 -2.10025 0
M  V30 1557 H 149.207 -3.27166 -2.57426 0
M  V30 1558 H 149.74 -3.85564 -0.979023 0
M  V30 1559 H 146.479 -6.54602 0.342906 0
M  V30 1560 H 145.999 -5.87037 -1.23077 0
M  V30 1561 H 147.678 -6.39863 -0.958317 0
M  V30 1562 N 147.81 0.181792 -1.56548 0
M  V30 1563 C 148.773 1.20894 -1.94724 0
M  V30 1564 C 149.773 1.37738 -0.829747 0
M  V30 1565 O 150.963 1.35323 -1.09697 0
M  V30 1566 C 148.095 2.57593 -2.23291 0
M  V30 1567 H 149.288 0.882275 -2.86629 0
M  V30 1568 H 146.841 0.423838 -1.50444 0
M  V30 1569 H 147.576 2.95291 -1.34067 0
M  V30 1570 H 147.361 2.46735 -3.04736 0
M  V30 1571 H 148.851 3.31637 -2.53785 0
M  V30 1572 N 149.288 1.51039 0.449983 0
M  V30 1573 C 150.534 1.64287 1.19923 0
M  V30 1574 C 150.889 0.348701 1.89214 0
M  V30 1575 O 150.182 -0.654751 1.80065 0
M  V30 1576 C 150.376 2.77556 2.25161 0
M  V30 1577 C 150.205 4.17862 1.66198 0
M  V30 1578 C 148.975 4.83976 1.45243 0
M  V30 1579 C 151.173 5.01388 1.14519 0
M  V30 1580 N 149.155 6.08433 0.817437 0
M  V30 1581 C 150.526 6.16743 0.634705 0
M  V30 1582 C 152.581 4.87008 1.03574 0
M  V30 1583 C 151.284 7.19295 0.0255452 0
M  V30 1584 C 153.31 5.89757 0.440489 0
M  V30 1585 C 152.672 7.04375 -0.0595112 0
M  V30 1586 H 148.771 0.655161 0.426952 0
M  V30 1587 H 151.355 1.88228 0.49781 0
M  V30 1588 H 149.526 2.553 2.92706 0
M  V30 1589 H 151.258 2.80049 2.92155 0
M  V30 1590 H 148.013 4.41627 1.71063 0
M  V30 1591 H 148.437 6.75017 0.517747 0
M  V30 1592 H 153.079 3.9866 1.4082 0
M  V30 1593 H 150.797 8.07302 -0.359071 0
M  V30 1594 H 154.383 5.80698 0.35788 0
M  V30 1595 H 153.263 7.82521 -0.512882 0
M  V30 1596 N 150.766 -0.704594 1.40972 0
M  V30 1597 C 151.699 -1.82861 1.36518 0
M  V30 1598 C 152.677 -1.6091 0.23382 0
M  V30 1599 O 153.861 -1.83778 0.419271 0
M  V30 1600 C 150.988 -3.1939 1.12729 0
M  V30 1601 C 150.034 -3.60148 2.28463 0
M  V30 1602 S 150.867 -3.65994 3.90907 0
M  V30 1603 C 152.023 -5.05264 3.69403 0
M  V30 1604 H 152.256 -1.86361 2.3164 0
M  V30 1605 H 149.789 -0.872439 1.27389 0
M  V30 1606 H 151.747 -3.98211 0.996893 0
M  V30 1607 H 150.408 -3.1351 0.192427 0
M  V30 1608 H 149.601 -4.59309 2.07489 0
M  V30 1609 H 149.203 -2.88612 2.37863 0
M  V30 1610 H 151.495 -5.92504 3.28551 0
M  V30 1611 H 152.438 -5.31278 4.68134 0
M  V30 1612 H 152.846 -4.76377 3.02862 0
M  V30 1613 N 152.244 -1.26651 -0.937939 0
M  V30 1614 C 153.192 -1.08308 -2.05845 0
M  V30 1615 C 154.186 -0.0090757 -1.69398 0
M  V30 1616 O 155.392 -0.166007 -1.79233 0
M  V30 1617 H 151.767 -0.333416 -0.674046 0
M  V30 1618 H 153.738 -2.03261 -2.18467 0
M  V30 1619 C 152.487 -0.736229 -3.39816 0
M  V30 1620 H 151.81 -1.55453 -3.6834 0
M  V30 1621 H 153.25 -0.64769 -4.19024 0
M  V30 1622 C 151.709 0.558824 -3.32233 0
M  V30 1623 O 152.239 1.59621 -3.68624 0
M  V30 1624 N 150.445 0.550657 -2.85335 0
M  V30 1625 H 149.992 -0.293943 -2.55917 0
M  V30 1626 H 149.95 1.41726 -2.80644 0
M  V30 1627 N 153.722 1.14298 -1.08507 0
M  V30 1628 C 154.999 1.81544 -0.728088 0
M  V30 1629 C 155.379 1.95838 0.78808 0
M  V30 1630 O 154.727 1.51904 1.70697 0
M  V30 1631 C 154.937 3.17169 -1.45619 0
M  V30 1632 C 156.285 3.9265 -1.61591 0
M  V30 1633 O 157.309 3.26762 -1.41793 0
M  V30 1634 O 156.168 5.10807 -1.94263 0
M  V30 1635 H 153.262 0.78491 -0.260471 0
M  V30 1636 H 155.808 1.21307 -1.18671 0
M  V30 1637 H 154.58 3.01934 -2.489 0
M  V30 1638 H 154.203 3.851 -0.989124 0
M  V30 1639 N 155.201 0.870884 1.31352 0
M  V30 1640 C 156.429 0.49677 2.00848 0
M  V30 1641 C 156.844 -0.910998 1.65367 0
M  V30 1642 O 156.201 -1.59696 0.883374 0
M  V30 1643 C 156.252 0.645308 3.55694 0
M  V30 1644 O 155.973 1.99764 3.89905 0
M  V30 1645 C 157.474 0.272326 4.42463 0
M  V30 1646 H 154.694 0.193462 0.642506 0
M  V30 1647 H 157.238 1.1723 1.67563 0
M  V30 1648 H 155.393 0.0173176 3.87396 0
M  V30 1649 H 155.807 2.00607 4.84621 0
M  V30 1650 H 157.281 0.427208 5.50344 0
M  V30 1651 H 157.758 -0.788587 4.32062 0
M  V30 1652 H 158.364 0.876054 4.1618 0
M  V30 1653 N 156.679 -1.44442 0.630414 0
M  V30 1654 C 157.642 -2.29107 -0.0652523 0
M  V30 1655 C 158.642 -1.41002 -0.772995 0
M  V30 1656 O 159.832 -1.62881 -0.617692 0
M  V30 1657 C 156.964 -3.22564 -1.10296 0
M  V30 1658 H 158.157 -2.92103 0.679401 0
M  V30 1659 H 155.71 -1.51343 0.390517 0
M  V30 1660 H 156.445 -2.64416 -1.87762 0
M  V30 1661 H 156.23 -3.87491 -0.59941 0
M  V30 1662 H 157.72 -3.86167 -1.5895 0
M  V30 1663 N 158.157 -0.370918 -1.53173 0
M  V30 1664 C 159.382 0.220293 -2.06227 0
M  V30 1665 C 159.807 1.41243 -1.24225 0
M  V30 1666 O 159.165 1.79387 -0.262645 0
M  V30 1667 C 159.213 0.586663 -3.55796 0
M  V30 1668 O 158.317 1.68317 -3.76488 0
M  V30 1669 H 157.658 0.0308099 -0.663285 0
M  V30 1670 H 160.188 -0.533068 -1.97534 0
M  V30 1671 H 160.198 0.85617 -3.98916 0
M  V30 1672 H 158.873 -0.285013 -4.14922 0
M  V30 1673 H 157.45 1.40881 -3.45264 0
M  V30 1674 N 159.635 1.57281 -0.100228 0
M  V30 1675 C 160.863 1.98879 0.570509 0
M  V30 1676 C 161.278 0.979476 1.61405 0
M  V30 1677 O 160.635 -0.0302288 1.82475 0
M  V30 1678 C 160.686 3.4052 1.2136 0
M  V30 1679 O 160.407 4.37588 0.211786 0
M  V30 1680 C 161.908 3.97149 1.96945 0
M  V30 1681 H 159.128 0.653428 0.152555 0
M  V30 1682 H 161.672 2.03697 -0.18103 0
M  V30 1683 H 159.827 3.367 1.91603 0
M  V30 1684 H 160.241 5.20118 0.676607 0
M  V30 1685 H 161.715 4.98393 2.37294 0
M  V30 1686 H 162.192 3.3525 2.83733 0
M  V30 1687 H 162.798 4.04458 1.31506 0
M  V30 1688 N 161.113 -0.173488 1.56642 0
M  V30 1689 C 162.362 -0.888758 1.81063 0
M  V30 1690 C 162.675 -1.83506 0.67712 0
M  V30 1691 O 163.881 -2.59254 0.806206 0
M  V30 1692 C 162.337 -1.63091 3.20826 0
M  V30 1693 C 161.945 -0.728357 4.4204 0
M  V30 1694 C 163.689 -2.33454 3.54541 0
M  V30 1695 C 161.596 -1.47062 5.72823 0
M  V30 1696 H 160.526 -0.335618 0.675186 0
M  V30 1697 H 163.177 -0.141712 1.82952 0
M  V30 1698 H 161.559 -2.42263 3.13248 0
M  V30 1699 H 162.733 0.0262449 4.60793 0
M  V30 1700 H 161.048 -0.134492 4.16183 0
M  V30 1701 H 163.645 -2.89578 4.49498 0
M  V30 1702 H 163.988 -3.08687 2.79317 0
M  V30 1703 H 164.521 -1.61227 3.63663 0
M  V30 1704 H 161.26 -0.760658 6.51072 0
M  V30 1705 H 160.78 -2.1986 5.58052 0
M  V30 1706 H 162.459 -2.01868 6.14702 0
M  V30 1707 N 162.591 -1.51276 -0.441967 0
M  V30 1708 C 164.002 -1.56244 -1.02199 0
M  V30 1709 C 164.353 -0.383149 -1.92422 0
M  V30 1710 O 163.478 0.500613 -2.1053 0
M  V30 1711 C 164.073 -2.83162 -1.86024 0
M  V30 1712 C 162.632 -2.90716 -2.39084 0
M  V30 1713 C 161.779 -2.50858 -1.18175 0
M  V30 1714 H 164.73 -1.5712 -0.223416 0
M  V30 1715 H 164.751 -2.66663 -2.71425 0
M  V30 1716 H 164.263 -3.68974 -1.20331 0
M  V30 1717 H 162.364 -2.09323 -3.08244 0
M  V30 1718 H 162.477 -3.94266 -2.72198 0
M  V30 1719 H 160.841 -2.03951 -1.52565 0
M  V30 1720 H 161.624 -3.3901 -0.541001 0
M  V30 1721 N 164.069 0.697108 -1.41344 0
M  V30 1722 C 165.48 1.27697 -1.36199 0
M  V30 1723 C 165.831 1.9615 -0.0443463 0
M  V30 1724 O 164.956 1.98689 0.857419 0
M  V30 1725 C 165.551 2.32223 -2.46694 0
M  V30 1726 C 164.11 2.8579 -2.44952 0
M  V30 1727 C 163.257 1.59807 -2.26621 0
M  V30 1728 H 166.208 0.491968 -1.50882 0
M  V30 1729 H 166.229 3.1348 -2.15664 0
M  V30 1730 H 165.741 1.82373 -3.42581 0
M  V30 1731 H 163.842 3.3982 -1.52817 0
M  V30 1732 H 163.955 3.36325 -3.41207 0
M  V30 1733 H 162.319 1.8556 -1.7447 0
M  V30 1734 H 163.102 1.11956 -3.24532 0
M  V30 1735 N 165.547 1.27147 0.931209 0
M  V30 1736 C 166.958 1.12044 1.49342 0
M  V30 1737 C 167.309 -0.295795 1.93957 0
M  V30 1738 O 166.434 -1.18835 1.80852 0
M  V30 1739 C 167.029 2.02781 2.71414 0
M  V30 1740 C 165.588 1.91794 3.2387 0
M  V30 1741 C 164.735 1.95543 1.96617 0
M  V30 1742 H 167.686 1.40091 0.745672 0
M  V30 1743 H 167.707 1.58156 3.46074 0
M  V30 1744 H 167.219 3.05848 2.38911 0
M  V30 1745 H 165.32 0.916992 3.6114 0
M  V30 1746 H 165.433 2.77852 3.90302 0
M  V30 1747 H 163.797 1.39722 2.12955 0
M  V30 1748 H 164.58 3.00259 1.66432 0
M  V30 1749 N 167.025 -1.13721 1.09112 0
M  V30 1750 C 167.988 -2.17222 0.731241 0
M  V30 1751 C 168.988 -1.59035 -0.237566 0
M  V30 1752 O 170.178 -1.74192 -0.0161704 0
M  V30 1753 C 167.31 -3.40804 0.0808443 0
M  V30 1754 H 168.503 -2.50573 1.64783 0
M  V30 1755 H 166.056 -1.28493 0.889897 0
M  V30 1756 H 166.791 -3.1304 -0.847127 0
M  V30 1757 H 166.576 -3.84306 0.777896 0
M  V30 1758 H 168.066 -4.1731 -0.155657 0
M  V30 1759 N 168.503 -0.877838 -1.30888 0
M  V30 1760 C 169.731 -0.507414 -2.00581 0
M  V30 1761 C 170.146 0.902216 -1.65848 0
M  V30 1762 O 169.503 1.59225 -0.891831 0
M  V30 1763 C 169.554 -0.664162 -3.55347 0
M  V30 1764 O 169.275 -2.01829 -3.8884 0
M  V30 1765 C 170.776 -0.295787 -4.42312 0
M  V30 1766 H 167.996 -0.196866 -0.641471 0
M  V30 1767 H 170.54 -1.18117 -1.66939 0
M  V30 1768 H 168.695 -0.0378619 -3.87381 0
M  V30 1769 H 169.109 -2.03174 -4.8355 0
M  V30 1770 H 170.583 -0.456388 -5.5011 0
M  V30 1771 H 171.06 0.765663 -4.32475 0
M  V30 1772 H 171.666 -0.898113 -4.15709 0
M  V30 1773 N 169.982 1.44106 -0.638065 0
M  V30 1774 C 170.892 2.34513 0.0637334 0
M  V30 1775 C 171.908 1.53018 0.828346 0
M  V30 1776 O 173.084 1.85723 0.779036 0
M  V30 1777 C 170.149 3.31095 1.02844 0
M  V30 1778 C 169.21 4.28497 0.26244 0
M  V30 1779 C 168.443 5.20465 1.1812 0
M  V30 1780 O 168.666 5.16514 2.42011 0
M  V30 1781 O 167.6 5.98251 0.661774 0
M  V30 1782 H 171.426 2.95989 -0.68003 0
M  V30 1783 H 169.011 1.43994 -0.398252 0
M  V30 1784 H 170.893 3.90526 1.58327 0
M  V30 1785 H 169.568 2.72144 1.7527 0
M  V30 1786 H 168.475 3.72592 -0.335602 0
M  V30 1787 H 169.808 4.90388 -0.421936 0
M  V30 1788 N 171.46 0.379036 1.52974 0
M  V30 1789 C 172.423 -0.448865 2.24762 0
M  V30 1790 C 173.423 -0.998689 1.26027 0
M  V30 1791 O 174.613 -0.882313 1.50203 0
M  V30 1792 C 171.745 -1.62872 2.99476 0
M  V30 1793 H 172.938 0.179491 2.99362 0
M  V30 1794 H 170.491 0.13096 1.5575 0
M  V30 1795 H 171.226 -2.29479 2.29151 0
M  V30 1796 H 171.011 -1.24128 3.71934 0
M  V30 1797 H 172.501 -2.2151 3.5401 0
M  V30 1798 N 172.938 -1.57226 0.108567 0
M  V30 1799 C 174.187 -1.94008 -0.551703 0
M  V30 1800 C 174.5 -0.993442 -1.68494 0
M  V30 1801 O 175.706 -1.25551 -2.40726 0
M  V30 1802 C 174.162 -3.44763 -1.03279 0
M  V30 1803 C 173.77 -4.47943 0.0714193 0
M  V30 1804 C 175.514 -3.90483 -1.66503 0
M  V30 1805 C 173.421 -5.89865 -0.425779 0
M  V30 1806 H 172.351 -0.724206 -0.209863 0
M  V30 1807 H 175.002 -1.82547 0.186741 0
M  V30 1808 H 173.384 -3.51422 -1.82533 0
M  V30 1809 H 174.558 -4.52942 0.847365 0
M  V30 1810 H 172.873 -4.11913 0.609669 0
M  V30 1811 H 175.47 -4.93925 -2.04798 0
M  V30 1812 H 175.813 -3.29877 -2.53942 0
M  V30 1813 H 176.346 -3.86581 -0.938074 0
M  V30 1814 H 173.085 -6.54202 0.412316 0
M  V30 1815 H 172.605 -5.88309 -1.16843 0
M  V30 1816 H 174.284 -6.40844 -0.890397 0
M  V30 1817 N 174.416 0.165178 -1.56732 0
M  V30 1818 C 175.641 0.900253 -1.86843 0
M  V30 1819 C 176.066 1.74766 -0.695596 0
M  V30 1820 O 175.424 1.77786 0.35522 0
M  V30 1821 C 175.472 1.74777 -3.15413 0
M  V30 1822 O 174.576 2.85007 -2.98068 0
M  V30 1823 H 173.917 0.251832 -0.614391 0
M  V30 1824 H 176.447 0.161468 -2.03962 0
M  V30 1825 H 176.457 2.14646 -3.46974 0
M  V30 1826 H 175.132 1.12537 -4.00385 0
M  V30 1827 H 173.709 2.48676 -2.77875 0
M  V30 1828 N 175.894 1.51508 0.433938 0
M  V30 1829 C 176.857 1.72473 1.50949 0
M  V30 1830 C 177.857 0.594725 1.49398 0
M  V30 1831 O 179.047 0.862315 1.5136 0
M  V30 1832 C 176.179 1.78431 2.90474 0
M  V30 1833 H 177.372 2.68467 1.33662 0
M  V30 1834 H 174.925 1.41549 0.662836 0
M  V30 1835 H 175.66 0.842645 3.13161 0
M  V30 1836 H 175.445 2.60558 2.93005 0
M  V30 1837 H 176.935 1.96479 3.68491 0
M  V30 1838 N 177.372 -0.689602 1.41712 0
M  V30 1839 C 178.322 -1.79571 1.40493 0
M  V30 1840 C 179.306 -1.58473 0.278409 0
M  V30 1841 O 180.498 -1.69204 0.519532 0
M  V30 1842 C 177.627 -3.17923 1.29536 0
M  V30 1843 C 176.713 -3.44695 2.47075 0
M  V30 1844 N 177.104 -3.42132 3.72531 0
M  V30 1845 C 175.402 -3.75269 2.41017 0
M  V30 1846 C 176.103 -3.67976 4.50521 0
M  V30 1847 N 175.079 -3.88014 3.80718 0
M  V30 1848 H 178.881 -1.75961 2.35404 0
M  V30 1849 H 176.395 -0.889839 1.35851 0
M  V30 1850 H 178.392 -3.97167 1.26745 0
M  V30 1851 H 177.052 -3.22741 0.356153 0
M  V30 1852 H 178.063 -3.22375 4.05333 0
M  V30 1853 H 174.74 -3.87421 1.55599 0
M  V30 1854 H 176.13 -3.7208 5.59469 0
M  V30 1855 N 178.85 -1.27639 -0.924453 0
M  V30 1856 C 179.797 -1.10644 -2.0255 0
M  V30 1857 C 180.767 -0.00658438 -1.66099 0
M  V30 1858 O 181.952 -0.16952 -1.90045 0
M  V30 1859 C 179.092 -0.76309 -3.36557 0
M  V30 1860 C 178.205 -1.94091 -3.85944 0
M  V30 1861 C 177.34 -1.53914 -5.08413 0
M  V30 1862 C 176.379 -2.68425 -5.50104 0
M  V30 1863 N 175.516 -2.28815 -6.63768 0
M  V30 1864 H 180.356 -2.04858 -2.16419 0
M  V30 1865 H 177.893 -1.01974 -1.06017 0
M  V30 1866 H 179.851 -0.544822 -4.13627 0
M  V30 1867 H 178.481 0.142102 -3.22487 0
M  V30 1868 H 177.533 -2.27162 -3.05125 0
M  V30 1869 H 178.845 -2.7998 -4.12811 0
M  V30 1870 H 177.999 -1.28231 -5.92994 0
M  V30 1871 H 176.738 -0.651391 -4.8333 0
M  V30 1872 H 175.743 -2.94819 -4.64071 0
M  V30 1873 H 176.968 -3.57826 -5.7718 0
M  V30 1874 H 174.914 -1.42495 -6.40337 0
M  V30 1875 H 174.831 -3.08242 -6.90306 0
M  V30 1876 H 176.099 -2.06387 -7.51681 0
M  V30 1877 N 180.328 1.1314 -1.09713 0
M  V30 1878 C 181.276 2.20717 -0.733934 0
M  V30 1879 C 182.27 1.6729 0.266506 0
M  V30 1880 O 183.476 1.79547 0.127656 0
M  V30 1881 H 179.851 0.719292 -0.21937 0
M  V30 1882 H 181.822 2.48611 -1.6503 0
M  V30 1883 C 180.571 3.47265 -0.173849 0
M  V30 1884 H 179.894 3.88716 -0.934873 0
M  V30 1885 H 181.334 4.23979 0.0423126 0
M  V30 1886 C 179.793 3.18724 1.09164 0
M  V30 1887 O 180.323 3.37762 2.17439 0
M  V30 1888 N 178.529 2.72583 1.00732 0
M  V30 1889 H 178.076 2.57291 0.126121 0
M  V30 1890 H 178.034 2.53862 1.85476 0
M  V30 1891 N 181.806 0.884767 1.30421 0
M  V30 1892 C 182.754 0.340869 2.30089 0
M  V30 1893 C 183.748 -0.55201 1.60154 0
M  V30 1894 O 184.954 -0.436467 1.74628 0
M  V30 1895 H 181.329 0.0915739 0.746404 0
M  V30 1896 H 183.3 1.19513 2.73421 0
M  V30 1897 C 182.049 -0.429779 3.45034 0
M  V30 1898 H 181.372 0.248024 3.9903 0
M  V30 1899 H 182.812 -0.775445 4.16849 0
M  V30 1900 C 181.271 -1.62677 2.95022 0
M  V30 1901 O 181.801 -2.72614 2.95033 0
M  V30 1902 N 180.007 -1.46387 2.51036 0
M  V30 1903 H 179.554 -0.569506 2.51226 0
M  V30 1904 H 179.512 -2.26612 2.17932 0
M  V30 1905 N 183.284 -1.43765 0.645699 0
M  V30 1906 C 184.524 -2.03776 0.159542 0
M  V30 1907 C 184.888 -1.49792 -1.2011 0
M  V30 1908 O 186.089 -2.01398 -1.78023 0
M  V30 1909 C 184.36 -3.57036 0.161251 0
M  V30 1910 S 185.919 -4.3804 -0.258159 0
M  V30 1911 H 182.737 -0.707717 0.0682454 0
M  V30 1912 H 185.339 -1.75941 0.852352 0
M  V30 1913 H 184.043 -3.9383 1.15439 0
M  V30 1914 H 183.574 -3.89503 -0.552339 0
M  V30 1915 H 185.589 -4.7302 -1.49889 0
M  V30 1916 N 184.763 -0.387143 -1.52771 0
M  V30 1917 C 185.693 0.440551 -2.29306 0
M  V30 1918 C 186.674 1.06535 -1.32606 0
M  V30 1919 O 187.859 1.07853 -1.61497 0
M  V30 1920 C 184.989 1.56919 -3.09829 0
M  V30 1921 C 183.943 1.07054 -4.14395 0
M  V30 1922 C 183.269 2.29109 -4.83129 0
M  V30 1923 C 184.569 0.140015 -5.22112 0
M  V30 1924 H 186.263 -0.198026 -2.98744 0
M  V30 1925 H 183.809 -0.09668 -1.43675 0
M  V30 1926 H 185.762 2.15503 -3.62128 0
M  V30 1927 H 184.486 2.23532 -2.3812 0
M  V30 1928 H 183.145 0.507247 -3.63074 0
M  V30 1929 H 182.793 2.94227 -4.0797 0
M  V30 1930 H 182.493 1.96406 -5.53804 0
M  V30 1931 H 184.017 2.88339 -5.38231 0
M  V30 1932 H 185.431 0.633978 -5.69784 0
M  V30 1933 H 183.828 -0.0971485 -6.00021 0
M  V30 1934 H 184.898 -0.811711 -4.78058 0
M  V30 1935 N 186.241 1.57166 -0.116904 0
M  V30 1936 C 187.173 2.12271 0.864507 0
M  V30 1937 C 188.186 1.06494 1.23138 0
M  V30 1938 O 189.375 1.33873 1.18069 0
M  V30 1939 C 186.475 2.60564 2.16702 0
M  V30 1940 C 185.648 3.90416 1.97216 0
M  V30 1941 C 184.707 4.24329 3.11178 0
M  V30 1942 O 183.733 4.93182 2.84184 0
M  V30 1943 N 184.935 3.8148 4.37554 0
M  V30 1944 H 187.7 2.97102 0.393726 0
M  V30 1945 H 185.261 1.61759 0.0675805 0
M  V30 1946 H 187.253 2.80282 2.91932 0
M  V30 1947 H 185.823 1.80623 2.55135 0
M  V30 1948 H 185.043 3.79627 1.06192 0
M  V30 1949 H 186.331 4.75327 1.81499 0
M  V30 1950 H 185.729 3.25943 4.62361 0
M  V30 1951 H 184.286 4.06311 5.09661 0
M  V30 1952 N 187.719 -0.156864 1.56817 0
M  V30 1953 C 188.967 -0.869404 1.82444 0
M  V30 1954 C 189.288 -1.82147 0.69623 0
M  V30 1955 O 188.558 -1.93847 -0.28287 0
M  V30 1956 H 187.138 -0.324043 0.673056 0
M  V30 1957 H 189.8 -0.153224 1.94297 0
M  V30 1958 H 188.896 -1.43761 2.77019 0
M  V30 1959 N 189.197 -1.51736 -0.425897 0
M  V30 1960 C 190.425 -1.68794 -1.1965 0
M  V30 1961 C 190.84 -0.390164 -1.84725 0
M  V30 1962 O 190.197 0.632376 -1.71194 0
M  V30 1963 C 190.248 -2.81174 -2.27208 0
M  V30 1964 O 189.969 -4.05925 -1.64793 0
M  V30 1965 C 191.47 -3.09599 -3.17275 0
M  V30 1966 H 188.69 -0.566128 -0.360194 0
M  V30 1967 H 191.234 -1.98211 -0.503249 0
M  V30 1968 H 189.389 -2.54324 -2.9223 0
M  V30 1969 H 189.803 -4.68423 -2.35967 0
M  V30 1970 H 191.277 -3.91786 -3.88854 0
M  V30 1971 H 191.754 -2.22468 -3.78688 0
M  V30 1972 H 192.36 -3.38151 -2.57941 0
M  V30 1973 N 190.675 0.682077 -1.42076 0
M  V30 1974 C 191.923 1.4393 -1.41876 0
M  V30 1975 C 192.244 1.94971 -0.0335599 0
M  V30 1976 O 191.514 1.72591 0.926773 0
M  V30 1977 H 190.094 0.534085 -0.522267 0
M  V30 1978 H 192.756 0.806427 -1.77434 0
M  V30 1979 H 191.852 2.29588 -2.11414 0
M  V30 1980 N 192.153 1.28127 0.917671 0
M  V30 1981 C 193.4 1.15052 1.66641 0
M  V30 1982 C 193.728 -0.301677 1.92146 0
M  V30 1983 O 192.983 -1.23622 1.51711 0
M  V30 1984 C 193.282 1.89018 3.03327 0
M  V30 1985 C 192.948 3.38832 2.97496 0
M  V30 1986 C 191.61 3.79693 2.95613 0
M  V30 1987 C 193.962 4.34378 2.88036 0
M  V30 1988 C 191.29 5.14447 2.82066 0
M  V30 1989 C 193.642 5.69201 2.7603 0
M  V30 1990 C 192.306 6.09343 2.72502 0
M  V30 1991 H 191.576 0.421006 0.609783 0
M  V30 1992 H 194.223 1.58855 1.06945 0
M  V30 1993 H 192.528 1.37752 3.66785 0
M  V30 1994 H 194.225 1.76321 3.60156 0
M  V30 1995 H 190.815 3.06342 2.99754 0
M  V30 1996 H 194.999 4.03775 2.88581 0
M  V30 1997 H 190.255 5.44681 2.77728 0
M  V30 1998 H 194.429 6.42901 2.67678 0
M  V30 1999 H 192.056 7.13712 2.61762 0
M  V30 2000 N 193.631 -1.12557 1.10312 0
M  V30 2001 C 194.561 -2.20341 0.772798 0
M  V30 2002 C 195.542 -1.68198 -0.25365 0
M  V30 2003 O 196.727 -1.93831 -0.119699 0
M  V30 2004 C 193.857 -3.46709 0.202443 0
M  V30 2005 C 192.811 -4.11996 1.15943 0
M  V30 2006 C 192.137 -5.328 0.450345 0
M  V30 2007 C 193.437 -4.5828 2.50552 0
M  V30 2008 H 195.131 -2.48229 1.674 0
M  V30 2009 H 192.677 -1.19308 0.806326 0
M  V30 2010 H 194.63 -4.2138 -0.0407752 0
M  V30 2011 H 193.354 -3.18245 -0.734001 0
M  V30 2012 H 192.013 -3.39305 1.38808 0
M  V30 2013 H 191.661 -5.00602 -0.490531 0
M  V30 2014 H 191.361 -5.7743 1.08851 0
M  V30 2015 H 192.885 -6.10219 0.215642 0
M  V30 2016 H 194.299 -5.2433 2.31843 0
M  V30 2017 H 192.696 -5.13683 3.10242 0
M  V30 2018 H 193.766 -3.72329 3.10643 0
M  V30 2019 N 195.109 -0.891671 -1.2995 0
M  V30 2020 C 196.019 -0.367691 -2.31701 0
M  V30 2021 C 197.035 0.533486 -1.6562 0
M  V30 2022 O 198.211 0.424997 -1.96865 0
M  V30 2023 C 195.276 0.403406 -3.44345 0
M  V30 2024 C 194.337 -0.528328 -4.26037 0
M  V30 2025 C 193.57 0.206063 -5.33302 0
M  V30 2026 O 193.793 1.43119 -5.52153 0
M  V30 2027 O 192.727 -0.447281 -6.00236 0
M  V30 2028 H 196.553 -1.21163 -2.78484 0
M  V30 2029 H 194.138 -0.655725 -1.34241 0
M  V30 2030 H 196.02 0.839753 -4.12948 0
M  V30 2031 H 194.695 1.22354 -2.99685 0
M  V30 2032 H 193.602 -1.01362 -3.60106 0
M  V30 2033 H 194.935 -1.31465 -4.74318 0
M  V30 2034 N 196.587 1.43421 -0.653314 0
M  V30 2035 C 197.497 2.34568 0.0388565 0
M  V30 2036 C 198.513 1.53888 0.81207 0
M  V30 2037 O 199.689 1.86539 0.759294 0
M  V30 2038 C 196.754 3.32167 0.993269 0
M  V30 2039 C 195.815 4.28751 0.216977 0
M  V30 2040 C 195.048 5.21688 1.12593 0
M  V30 2041 O 195.271 5.19052 2.36519 0
M  V30 2042 O 194.205 5.98919 0.598284 0
M  V30 2043 H 198.031 2.95251 -0.711386 0
M  V30 2044 H 195.616 1.43564 -0.413502 0
M  V30 2045 H 197.498 3.92183 1.54176 0
M  V30 2046 H 196.173 2.73987 1.72374 0
M  V30 2047 H 195.08 3.72215 -0.375101 0
M  V30 2048 H 196.413 4.89913 -0.473924 0
M  V30 2049 N 198.065 0.39524 1.52563 0
M  V30 2050 C 198.975 -0.444232 2.30356 0
M  V30 2051 C 199.991 -1.06615 1.37511 0
M  V30 2052 O 201.167 -1.07067 1.70583 0
M  V30 2053 C 198.232 -1.55315 3.09964 0
M  V30 2054 C 197.293 -0.955734 4.18526 0
M  V30 2055 C 196.526 -2.01181 4.9433 0
M  V30 2056 O 196.749 -3.22781 4.70285 0
M  V30 2057 O 195.683 -1.62579 5.79527 0
M  V30 2058 H 199.509 0.189667 3.03107 0
M  V30 2059 H 197.094 0.1588 1.48554 0
M  V30 2060 H 198.976 -2.19724 3.59582 0
M  V30 2061 H 197.651 -2.17191 2.4002 0
M  V30 2062 H 196.558 -0.274743 3.7309 0
M  V30 2063 H 197.891 -0.381109 4.90722 0
M  V30 2064 N 199.544 -1.57102 0.125237 0
M  V30 2065 C 200.793 -1.94582 -0.531095 0
M  V30 2066 C 201.106 -1.01126 -1.6743 0
M  V30 2067 O 202.312 -1.28097 -2.39381 0
M  V30 2068 C 200.768 -3.45839 -0.996164 0
M  V30 2069 C 200.376 -4.47842 0.118926 0
M  V30 2070 C 202.12 -3.92227 -1.62352 0
M  V30 2071 C 200.027 -5.90284 -0.363192 0
M  V30 2072 H 198.957 -0.726391 -0.20217 0
M  V30 2073 H 201.608 -1.82339 0.206092 0
M  V30 2074 H 199.99 -3.53338 -1.78796 0
M  V30 2075 H 201.164 -4.52018 0.895358 0
M  V30 2076 H 199.479 -4.11243 0.653324 0
M  V30 2077 H 202.076 -4.96069 -1.99548 0
M  V30 2078 H 202.419 -3.32552 -2.50429 0
M  V30 2079 H 202.952 -3.87554 -0.897019 0
M  V30 2080 H 199.691 -6.53728 0.481679 0
M  V30 2081 H 199.211 -5.89515 -1.10597 0
M  V30 2082 H 200.89 -6.41752 -0.822377 0
M  V30 2083 N 201.022 0.148545 -1.56898 0
M  V30 2084 C 202.25 0.876389 -1.87422 0
M  V30 2085 C 202.665 1.74809 -0.713256 0
M  V30 2086 O 202.022 1.79725 0.317025 0
M  V30 2087 C 202.073 1.73438 -3.17178 0
M  V30 2088 O 201.794 0.897809 -4.28802 0
M  V30 2089 C 203.295 2.56993 -3.61205 0
M  V30 2090 H 200.515 0.253489 -0.621277 0
M  V30 2091 H 203.059 0.141798 -2.04008 0
M  V30 2092 H 201.214 2.42205 -3.0235 0
M  V30 2093 H 201.628 1.48672 -5.02988 0
M  V30 2094 H 203.102 3.12773 -4.54838 0
M  V30 2095 H 203.579 3.32958 -2.86419 0
M  V30 2096 H 204.185 1.9352 -3.78722 0
M  V30 2097 N 202.5 1.5196 0.417844 0
M  V30 2098 C 203.916 1.40569 0.755816 0
M  V30 2099 C 204.116 0.503316 1.95113 0
M  V30 2100 O 203.172 -0.0341925 2.52477 0
M  V30 2101 C 204.485 2.82947 1.01791 0
M  V30 2102 C 206.033 2.92231 1.12116 0
M  V30 2103 C 206.508 4.35559 1.41608 0
M  V30 2104 N 207.999 4.38753 1.48491 0
M  V30 2105 C 208.734 5.46705 1.7292 0
M  V30 2106 N 208.23 6.64788 1.95011 0
M  V30 2107 N 210.023 5.34209 1.74863 0
M  V30 2108 H 202.174 2.09168 -0.369098 0
M  V30 2109 H 204.437 0.942409 -0.102809 0
M  V30 2110 H 204.143 3.5106 0.212081 0
M  V30 2111 H 204.017 3.23462 1.94042 0
M  V30 2112 H 206.404 2.24304 1.9176 0
M  V30 2113 H 206.485 2.55185 0.177225 0
M  V30 2114 H 206.129 5.04042 0.624848 0
M  V30 2115 H 206.059 4.70133 2.37239 0
M  V30 2116 H 208.55 3.5363 1.33244 0
M  V30 2117 H 208.863 7.42845 2.13076 0
M  V30 2118 H 207.208 6.67869 1.92293 0
M  V30 2119 H 210.399 4.40937 1.57137 0
M  V30 2120 H 210.572 6.18415 1.93563 0
M  V30 2121 N 203.978 -0.674533 1.42435 0
M  V30 2122 C 205.224 -1.43671 1.43131 0
M  V30 2123 C 205.557 -1.94142 0.0476021 0
M  V30 2124 O 204.832 -1.70924 -0.928188 0
M  V30 2125 C 205.115 -2.63355 2.45594 0
M  V30 2126 C 204.968 -2.18514 3.93156 0
M  V30 2127 C 206.287 -3.65571 2.45043 0
M  V30 2128 H 203.406 -0.521077 0.521198 0
M  V30 2129 H 206.048 -0.766551 1.7385 0
M  V30 2130 H 204.198 -3.2053 2.19528 0
M  V30 2131 H 205.87 -1.66504 4.30202 0
M  V30 2132 H 204.113 -1.50086 4.07009 0
M  V30 2133 H 204.784 -3.04484 4.60428 0
M  V30 2134 H 207.26 -3.18113 2.68223 0
M  V30 2135 H 206.136 -4.46893 3.18713 0
M  V30 2136 H 206.397 -4.16716 1.47649 0
M  V30 2137 N 205.456 -1.28612 -0.910864 0
M  V30 2138 C 206.704 -1.15705 -1.65701 0
M  V30 2139 C 207.025 0.29416 -1.92769 0
M  V30 2140 O 206.295 1.20331 -1.54588 0
M  V30 2141 H 204.875 -0.425216 -0.614167 0
M  V30 2142 H 207.537 -1.61381 -1.0928 0
M  V30 2143 H 206.633 -1.6988 -2.61815 0
M  V30 2144 N 206.934 1.1197 -1.10907 0
M  V30 2145 C 208.18 1.8386 -0.855773 0
M  V30 2146 C 208.513 1.84134 0.617103 0
M  V30 2147 O 207.788 1.29041 1.45529 0
M  V30 2148 C 208.071 3.31305 -1.411 0
M  V30 2149 C 207.924 3.39456 -2.9511 0
M  V30 2150 C 209.243 4.2721 -1.05736 0
M  V30 2151 H 206.362 0.667545 -0.312334 0
M  V30 2152 H 209.004 1.31331 -1.37303 0
M  V30 2153 H 207.154 3.76169 -0.97105 0
M  V30 2154 H 208.826 3.03191 -3.47668 0
M  V30 2155 H 207.069 2.79849 -3.31462 0
M  V30 2156 H 207.74 4.43209 -3.29044 0
M  V30 2157 H 210.216 3.90497 -1.43706 0
M  V30 2158 H 209.092 5.28775 -1.47269 0
M  V30 2159 H 209.353 4.42088 0.0325958 0
M  V30 2160 N 208.412 0.89855 1.29475 0
M  V30 2161 C 209.342 0.39201 2.30186 0
M  V30 2162 C 210.323 -0.532359 1.61555 0
M  V30 2163 O 211.508 -0.443331 1.89072 0
M  V30 2164 C 208.638 -0.382353 3.45189 0
M  V30 2165 C 207.592 0.451483 4.25612 0
M  V30 2166 C 206.918 -0.450307 5.328 0
M  V30 2167 C 208.218 1.70079 4.93832 0
M  V30 2168 H 209.912 1.23362 2.72804 0
M  V30 2169 H 207.458 0.594638 1.31149 0
M  V30 2170 H 209.411 -0.747451 4.14718 0
M  V30 2171 H 208.135 -1.25774 3.01411 0
M  V30 2172 H 206.794 0.798897 3.57789 0
M  V30 2173 H 206.442 -1.32379 4.85268 0
M  V30 2174 H 206.142 0.103902 5.87508 0
M  V30 2175 H 207.666 -0.811623 6.05182 0
M  V30 2176 H 209.08 1.40549 5.55805 0
M  V30 2177 H 207.477 2.19623 5.58467 0
M  V30 2178 H 208.547 2.43744 4.19186 0
M  V30 2179 N 209.89 -1.43072 0.660911 0
M  V30 2180 C 211.137 -2.01721 0.177445 0
M  V30 2181 C 211.465 -1.5218 -1.21126 0
M  V30 2182 O 210.72 -0.708659 -1.82419 0
M  V30 2183 C 211.019 -3.57103 0.145563 0
M  V30 2184 C 210.685 -4.26021 1.47705 0
M  V30 2185 C 209.347 -4.44563 1.84165 0
M  V30 2186 C 211.699 -4.64983 2.35458 0
M  V30 2187 C 209.027 -4.99334 3.0803 0
M  V30 2188 C 211.379 -5.21127 3.58622 0
M  V30 2189 C 210.043 -5.37884 3.95268 0
M  V30 2190 H 209.313 -0.73815 0.0649317 0
M  V30 2191 H 211.96 -1.71446 0.853144 0
M  V30 2192 H 210.265 -3.86965 -0.61361 0
M  V30 2193 H 211.962 -4.00248 -0.2455 0
M  V30 2194 H 208.552 -4.11939 1.18339 0
M  V30 2195 H 212.736 -4.50343 2.08579 0
M  V30 2196 H 207.992 -5.10493 3.36462 0
M  V30 2197 H 212.166 -5.50262 4.26831 0
M  V30 2198 H 209.793 -5.80089 4.91325 0
M  V30 2199 N 211.368 -0.403325 -1.52352 0
M  V30 2200 C 212.331 0.413051 -2.25447 0
M  V30 2201 C 213.331 0.978513 -1.276 0
M  V30 2202 O 214.521 0.858305 -1.51587 0
M  V30 2203 C 211.653 1.58087 -3.02029 0
M  V30 2204 H 212.846 -0.227094 -2.99039 0
M  V30 2205 H 210.399 -0.155722 -1.55522 0
M  V30 2206 H 211.134 2.25804 -2.32772 0
M  V30 2207 H 210.919 1.18195 -3.73861 0
M  V30 2208 H 212.409 2.1585 -3.57489 0
M  V30 2209 N 212.846 1.57033 -0.133567 0
M  V30 2210 C 214.071 2.00475 0.531477 0
M  V30 2211 C 214.496 1.01291 1.58499 0
M  V30 2212 O 213.854 -0.0133279 1.81295 0
M  V30 2213 C 213.902 3.42729 1.12113 0
M  V30 2214 O 213.006 3.46498 2.23636 0
M  V30 2215 H 212.347 0.650876 0.131362 0
M  V30 2216 H 214.877 2.03344 -0.22634 0
M  V30 2217 H 214.887 3.81246 1.4531 0
M  V30 2218 H 213.562 4.14428 0.349557 0
M  V30 2219 H 212.139 3.19811 1.91769 0
M  V30 2220 N 214.325 -0.140222 1.56975 0
M  V30 2221 C 215.272 -1.17292 1.98774 0
M  V30 2222 C 216.242 -1.4232 0.856408 0
M  V30 2223 O 217.427 -1.54541 1.119 0
M  V30 2224 C 214.567 -2.49973 2.37923 0
M  V30 2225 C 213.68 -2.32062 3.64378 0
M  V30 2226 C 212.815 -3.57825 3.926 0
M  V30 2227 C 211.854 -3.3498 5.12303 0
M  V30 2228 N 210.991 -4.52891 5.36502 0
M  V30 2229 H 215.831 -0.809472 2.86795 0
M  V30 2230 H 213.368 -0.388237 1.41884 0
M  V30 2231 H 215.326 -3.27346 2.58652 0
M  V30 2232 H 213.956 -2.84252 1.52972 0
M  V30 2233 H 213.008 -1.45711 3.51387 0
M  V30 2234 H 214.32 -2.11145 4.51906 0
M  V30 2235 H 213.474 -4.43624 4.13863 0
M  V30 2236 H 212.213 -3.81753 3.03506 0
M  V30 2237 H 211.218 -2.4757 4.90906 0
M  V30 2238 H 212.443 -3.12444 6.02956 0
M  V30 2239 H 210.389 -4.76979 4.50363 0
M  V30 2240 H 210.306 -4.35001 6.18312 0
M  V30 2241 H 211.574 -5.39884 5.62268 0
M  V30 2242 N 215.803 -1.52179 -0.40978 0
M  V30 2243 C 216.766 -1.74853 -1.48186 0
M  V30 2244 C 217.766 -0.618417 -1.48433 0
M  V30 2245 O 218.956 -0.886286 -1.49969 0
M  V30 2246 C 216.088 -1.8303 -2.87598 0
M  V30 2247 H 217.281 -2.70559 -1.29374 0
M  V30 2248 H 214.834 -1.42586 -0.640233 0
M  V30 2249 H 215.569 -0.89236 -3.11781 0
M  V30 2250 H 215.354 -2.65187 -2.88822 0
M  V30 2251 H 216.844 -2.02316 -3.65319 0
M  V30 2252 N 217.281 0.66697 -1.42791 0
M  V30 2253 C 218.527 1.4291 -1.43891 0
M  V30 2254 C 218.86 1.94114 -0.0578972 0
M  V30 2255 O 218.135 1.71414 0.91911 0
M  V30 2256 C 218.418 2.62049 -2.46987 0
M  V30 2257 C 218.271 2.16426 -3.94309 0
M  V30 2258 C 219.59 3.64266 -2.46978 0
M  V30 2259 H 216.709 0.518306 -0.523954 0
M  V30 2260 H 219.351 0.757321 -1.74255 0
M  V30 2261 H 217.501 3.19361 -2.21225 0
M  V30 2262 H 219.173 1.64221 -4.31079 0
M  V30 2263 H 217.416 1.47925 -4.078 0
M  V30 2264 H 218.087 3.02038 -4.62036 0
M  V30 2265 H 220.563 3.16686 -2.69906 0
M  V30 2266 H 219.439 4.45196 -3.21079 0
M  V30 2267 H 219.7 4.15927 -1.49857 0
M  V30 2268 N 218.759 1.29093 0.90403 0
M  V30 2269 C 219.692 1.08176 2.00931 0
M  V30 2270 C 220.67 -0.005083 1.62599 0
M  V30 2271 O 221.854 0.144765 1.87943 0
M  V30 2272 C 218.981 0.645897 3.32484 0
M  V30 2273 C 218.027 1.73081 3.89801 0
M  V30 2274 S 218.86 3.32905 4.19446 0
M  V30 2275 C 220.016 2.91176 5.54046 0
M  V30 2276 H 220.249 2.01752 2.18365 0
M  V30 2277 H 217.782 1.13191 1.0501 0
M  V30 2278 H 219.74 0.401131 4.08535 0
M  V30 2279 H 218.401 -0.270188 3.12936 0
M  V30 2280 H 217.594 1.37768 4.84805 0
M  V30 2281 H 217.196 1.92888 3.20422 0
M  V30 2282 H 219.488 2.37952 6.34338 0
M  V30 2283 H 220.431 3.85014 5.94281 0
M  V30 2284 H 220.839 2.296 5.15698 0
M  V30 2285 N 220.237 -1.11381 1.11499 0
M  V30 2286 C 221.169 -2.17207 0.731704 0
M  V30 2287 C 222.182 -1.61066 -0.236957 0
M  V30 2288 O 223.371 -1.78489 -0.0197591 0
M  V30 2289 C 220.471 -3.38846 0.0607624 0
M  V30 2290 C 219.644 -4.24451 1.0564 0
M  V30 2291 C 218.703 -5.24562 0.4149 0
M  V30 2292 O 217.729 -5.59071 1.069 0
M  V30 2293 N 218.931 -5.74651 -0.821943 0
M  V30 2294 H 221.696 -2.50699 1.64225 0
M  V30 2295 H 219.257 -1.26908 1.00529 0
M  V30 2296 H 221.249 -4.02911 -0.380139 0
M  V30 2297 H 219.819 -3.03411 -0.752376 0
M  V30 2298 H 219.039 -3.56833 1.67524 0
M  V30 2299 H 220.327 -4.78486 1.72998 0
M  V30 2300 H 219.725 -5.48797 -1.37252 0
M  V30 2301 H 218.282 -6.40549 -1.20582 0
M  V30 2302 N 221.715 -0.905404 -1.28997 0
M  V30 2303 C 222.645 -0.404212 -2.29975 0
M  V30 2304 C 223.626 0.523784 -1.61835 0
M  V30 2305 O 224.811 0.433298 -1.89304 0
M  V30 2306 C 221.941 0.364042 -3.45387 0
M  V30 2307 C 220.895 -0.474048 -4.25367 0
M  V30 2308 C 220.221 0.422045 -5.33032 0
M  V30 2309 C 221.521 -1.72696 -4.92923 0
M  V30 2310 H 223.215 -1.24807 -2.72146 0
M  V30 2311 H 220.761 -0.601585 -1.30832 0
M  V30 2312 H 222.714 0.725447 -4.15109 0
M  V30 2313 H 221.438 1.24174 -3.02074 0
M  V30 2314 H 220.097 -0.81786 -3.57361 0
M  V30 2315 H 219.745 1.29804 -4.85963 0
M  V30 2316 H 219.445 -0.135057 -5.87445 0
M  V30 2317 H 220.969 0.779517 -6.05604 0
M  V30 2318 H 222.383 -1.43495 -5.55051 0
M  V30 2319 H 220.78 -2.22582 -5.57295 0
M  V30 2320 H 221.85 -2.45964 -4.17887 0
M  V30 2321 N 223.193 1.4272 -0.668489 0
M  V30 2322 C 224.123 2.335 -0.000100175 0
M  V30 2323 C 225.104 1.50328 0.795964 0
M  V30 2324 O 226.289 1.78949 0.754385 0
M  V30 2325 C 223.419 3.33874 0.956302 0
M  V30 2326 C 222.373 4.27152 0.269278 0
M  V30 2327 C 221.699 5.17684 1.33818 0
M  V30 2328 C 222.999 5.15373 -0.847805 0
M  V30 2329 H 224.693 2.89639 -0.758244 0
M  V30 2330 H 222.239 1.39269 -0.366079 0
M  V30 2331 H 224.192 3.9629 1.43292 0
M  V30 2332 H 222.916 2.76025 1.74579 0
M  V30 2333 H 221.575 3.66123 -0.187042 0
M  V30 2334 H 221.223 4.56165 2.1195 0
M  V30 2335 H 220.923 5.80918 0.883659 0
M  V30 2336 H 222.447 5.82974 1.81586 0
M  V30 2337 H 223.861 5.7151 -0.452681 0
M  V30 2338 H 222.258 5.87407 -1.22773 0
M  V30 2339 H 223.328 4.5415 -1.69929 0
M  V30 2340 N 224.671 0.411399 1.52136 0
M  V30 2341 C 225.917 -0.163888 2.02137 0
M  V30 2342 C 226.25 -1.44597 1.29636 0
M  V30 2343 O 225.525 -1.90272 0.403353 0
M  V30 2344 C 225.808 -0.40927 3.57767 0
M  V30 2345 C 225.661 0.889643 4.40914 0
M  V30 2346 C 226.98 -1.19042 4.23694 0
M  V30 2347 H 224.099 -0.0580896 0.734707 0
M  V30 2348 H 226.741 0.54531 1.82007 0
M  V30 2349 H 224.891 -1.0134 3.7505 0
M  V30 2350 H 226.563 1.52575 4.35337 0
M  V30 2351 H 224.806 1.50011 4.07037 0
M  V30 2352 H 225.477 0.672314 5.4789 0
M  V30 2353 H 227.953 -0.678942 4.10524 0
M  V30 2354 H 226.829 -1.33086 5.32522 0
M  V30 2355 H 227.09 -2.21166 3.82803 0
M  V30 2356 N 226.149 -1.5696 0.141893 0
M  V30 2357 C 227.097 -2.17784 -0.816874 0
M  V30 2358 C 228.091 -1.1334 -1.25899 0
M  V30 2359 O 229.297 -1.316 -1.22806 0
M  V30 2360 H 225.672 -0.697278 -0.281615 0
M  V30 2361 H 227.643 -2.97087 -0.279621 0
M  V30 2362 C 226.392 -2.80983 -2.04802 0
M  V30 2363 H 225.715 -3.61062 -1.7168 0
M  V30 2364 H 227.155 -3.2705 -2.69841 0
M  V30 2365 C 225.614 -1.79228 -2.8527 0
M  V30 2366 O 226.144 -1.25962 -3.8144 0
M  V30 2367 N 224.35 -1.48647 -2.49704 0
M  V30 2368 H 223.897 -1.92155 -1.71564 0
M  V30 2369 H 223.855 -0.808115 -3.03837 0
M  V30 2370 N 227.627 0.131896 -1.57047 0
M  V30 2371 C 229.038 0.690407 -1.73465 0
M  V30 2372 C 229.389 1.8094 -0.758629 0
M  V30 2373 O 228.514 2.16282 0.0713813 0
M  V30 2374 C 229.109 1.25916 -3.14532 0
M  V30 2375 C 227.668 1.76409 -3.32501 0
M  V30 2376 C 226.815 0.658579 -2.69366 0
M  V30 2377 H 229.766 -0.0939144 -1.58422 0
M  V30 2378 H 229.787 2.12892 -3.15369 0
M  V30 2379 H 229.299 0.444515 -3.85546 0
M  V30 2380 H 227.4 2.60391 -2.66509 0
M  V30 2381 H 227.513 1.88241 -4.4057 0
M  V30 2382 H 225.877 1.08899 -2.30246 0
M  V30 2383 H 226.66 -0.14487 -3.42994 0
M  V30 2384 N 229.106 1.52395 0.401703 0
M  V30 2385 C 230.353 1.66817 1.14796 0
M  V30 2386 C 230.681 0.401772 1.90305 0
M  V30 2387 O 229.936 -0.615487 1.85769 0
M  V30 2388 C 230.235 2.84578 2.16217 0
M  V30 2389 C 229.901 4.22513 1.5746 0
M  V30 2390 C 228.563 4.60029 1.41161 0
M  V30 2391 C 230.915 5.0844 1.14622 0
M  V30 2392 C 228.243 5.81144 0.80552 0
M  V30 2393 C 230.595 6.30167 0.55428 0
M  V30 2394 C 229.259 6.66426 0.378482 0
M  V30 2395 H 228.529 0.610428 0.420069 0
M  V30 2396 H 231.176 1.86512 0.434212 0
M  V30 2397 H 229.481 2.59248 2.93764 0
M  V30 2398 H 231.178 2.92933 2.73845 0
M  V30 2399 H 227.768 3.92953 1.71132 0
M  V30 2400 H 231.952 4.80034 1.26021 0
M  V30 2401 H 227.208 6.07855 0.657399 0
M  V30 2402 H 231.382 6.96071 0.213983 0
M  V30 2403 H 229.009 7.60143 -0.0932606 0
M  V30 2404 N 230.584 -0.659388 1.43143 0
M  V30 2405 C 231.83 -1.42145 1.44647 0
M  V30 2406 C 232.163 -1.9408 0.0681907 0
M  V30 2407 O 231.438 -1.71899 -0.910007 0
M  V30 2408 C 231.721 -2.60735 2.48373 0
M  V30 2409 C 231.574 -2.14332 3.95451 0
M  V30 2410 C 232.893 -3.62951 2.48906 0
M  V30 2411 H 230.012 -0.51552 0.526696 0
M  V30 2412 H 232.654 -0.748069 1.74654 0
M  V30 2413 H 230.804 -3.18184 2.22916 0
M  V30 2414 H 232.476 -1.61932 4.31944 0
M  V30 2415 H 230.719 -1.4576 4.08578 0
M  V30 2416 H 231.39 -2.99583 4.63631 0
M  V30 2417 H 233.866 -3.1525 2.71582 0
M  V30 2418 H 232.742 -4.43487 3.23435 0
M  V30 2419 H 233.003 -4.15126 1.52061 0
M  V30 2420 N 232.062 -1.29571 -0.897171 0
M  V30 2421 C 233.31 -1.17456 -1.64464 0
M  V30 2422 C 233.631 0.273698 -1.9307 0
M  V30 2423 O 232.901 1.18684 -1.55855 0
M  V30 2424 H 231.481 -0.431706 -0.609622 0
M  V30 2425 H 234.143 -1.62531 -1.07562 0
M  V30 2426 H 233.239 -1.72648 -2.59998 0
M  V30 2427 N 233.54 1.10788 -1.12088 0
M  V30 2428 C 234.951 1.64181 -0.88891 0
M  V30 2429 C 235.302 1.87508 0.577498 0
M  V30 2430 O 234.427 1.61434 1.44112 0
M  V30 2431 C 235.022 2.98257 -1.60712 0
M  V30 2432 C 233.581 3.4853 -1.42139 0
M  V30 2433 C 232.728 2.23208 -1.6454 0
M  V30 2434 H 235.679 0.943368 -1.27618 0
M  V30 2435 H 235.7 3.65552 -1.05604 0
M  V30 2436 H 235.212 2.81246 -2.67436 0
M  V30 2437 H 233.313 3.70692 -0.376552 0
M  V30 2438 H 233.426 4.26882 -2.17505 0
M  V30 2439 H 231.79 2.31169 -1.06925 0
M  V30 2440 H 232.573 2.08733 -2.72554 0
M  V30 2441 N 235.018 0.912232 1.28515 0
M  V30 2442 C 235.948 0.416403 2.29757 0
M  V30 2443 C 236.929 -0.515194 1.6211 0
M  V30 2444 O 238.114 -0.423253 1.89532 0
M  V30 2445 C 235.244 -0.34572 3.45575 0
M  V30 2446 C 234.198 0.496599 4.25109 0
M  V30 2447 C 233.524 -0.393771 5.33248 0
M  V30 2448 C 234.824 1.75307 4.92001 0
M  V30 2449 H 236.518 1.26249 2.7148 0
M  V30 2450 H 234.064 0.608515 1.30511 0
M  V30 2451 H 236.017 -0.703422 4.15488 0
M  V30 2452 H 234.741 -1.2257 3.02728 0
M  V30 2453 H 233.4 0.8368 3.56922 0
M  V30 2454 H 233.048 -1.27225 4.86644 0
M  V30 2455 H 232.748 0.166209 5.87365 0
M  V30 2456 H 234.272 -0.747389 6.06009 0
M  V30 2457 H 235.686 1.46437 5.54283 0
M  V30 2458 H 234.083 2.25534 5.56106 0
M  V30 2459 H 235.153 2.48176 4.16577 0
M  V30 2460 N 236.496 -1.42363 0.676048 0
M  V30 2461 C 237.724 -2.05859 0.207268 0
M  V30 2462 C 238.139 -1.50796 -1.13605 0
M  V30 2463 O 237.496 -0.648265 -1.70598 0
M  V30 2464 C 237.547 -3.61248 0.134975 0
M  V30 2465 O 237.268 -4.1427 1.42521 0
M  V30 2466 C 238.769 -4.41859 -0.357151 0
M  V30 2467 H 235.989 -0.663431 0.100503 0
M  V30 2468 H 238.533 -1.82479 0.923136 0
M  V30 2469 H 236.688 -3.83735 -0.531588 0
M  V30 2470 H 237.102 -5.0815 1.29939 0
M  V30 2471 H 238.576 -5.50847 -0.356641 0
M  V30 2472 H 239.053 -4.16536 -1.39264 0
M  V30 2473 H 239.659 -4.24392 0.27772 0
M  V30 2474 N 237.974 -0.419461 -1.51915 0
M  V30 2475 C 238.922 0.415502 -2.28859 0
M  V30 2476 C 239.916 1.03674 -1.3397 0
M  V30 2477 O 241.122 0.973757 -1.51387 0
M  V30 2478 H 237.497 0.152786 -0.736315 0
M  V30 2479 H 239.468 -0.254531 -2.97312 0
M  V30 2480 C 238.217 1.51425 -3.12995 0
M  V30 2481 H 237.54 1.04556 -3.85886 0
M  V30 2482 H 238.98 2.07208 -3.6992 0
M  V30 2483 C 237.439 2.48745 -2.27217 0
M  V30 2484 O 237.969 3.52871 -1.9195 0
M  V30 2485 N 236.175 2.19202 -1.90785 0
M  V30 2486 H 235.722 1.34556 -2.19664 0
M  V30 2487 H 235.68 2.84561 -1.33687 0
M  V30 2488 N 239.452 1.56882 -0.150215 0
M  V30 2489 C 240.868 1.58263 0.20617 0
M  V30 2490 C 241.068 1.16464 1.64434 0
M  V30 2491 O 240.124 0.866422 2.3717 0
M  V30 2492 C 241.437 3.00649 -0.0555025 0
M  V30 2493 C 242.985 3.12999 0.00795388 0
M  V30 2494 C 243.46 4.5744 -0.226429 0
M  V30 2495 N 244.951 4.62875 -0.173469 0
M  V30 2496 C 245.686 5.72454 -0.329288 0
M  V30 2497 N 245.182 6.90669 -0.543005 0
M  V30 2498 N 246.975 5.61467 -0.266666 0
M  V30 2499 H 239.126 1.82345 -1.08922 0
M  V30 2500 H 241.389 0.844149 -0.431413 0
M  V30 2501 H 241.095 3.3563 -1.05096 0
M  V30 2502 H 240.969 3.71337 0.66246 0
M  V30 2503 H 243.356 2.77857 0.993966 0
M  V30 2504 H 243.437 2.4479 -0.742388 0
M  V30 2505 H 243.081 4.93287 -1.20956 0
M  V30 2506 H 243.011 5.2378 0.544274 0
M  V30 2507 H 245.502 3.77898 -0.0130709 0
M  V30 2508 H 245.815 7.70045 -0.651922 0
M  V30 2509 H 244.16 6.92581 -0.579366 0
M  V30 2510 H 247.351 4.67992 -0.100441 0
M  V30 2511 H 247.524 6.46816 -0.391535 0
M  V30 2512 N 240.93 -0.123565 1.57115 0
M  V30 2513 C 242.179 -0.830704 1.83799 0
M  V30 2514 C 242.492 -1.81259 0.735158 0
M  V30 2515 O 243.698 -2.56558 0.888278 0
M  V30 2516 C 242.154 -1.52802 3.25852 0
M  V30 2517 C 241.762 -0.587356 4.44133 0
M  V30 2518 C 243.506 -2.22056 3.61789 0
M  V30 2519 C 241.413 -1.28764 5.77212 0
M  V30 2520 H 240.343 -0.313967 0.685522 0
M  V30 2521 H 242.994 -0.0834359 1.8331 0
M  V30 2522 H 241.376 -2.32175 3.20797 0
M  V30 2523 H 242.55 0.172829 4.60476 0
M  V30 2524 H 240.865 -0.00201892 4.164 0
M  V30 2525 H 243.462 -2.75131 4.58483 0
M  V30 2526 H 243.805 -2.99644 2.88997 0
M  V30 2527 H 244.338 -1.49576 3.68608 0
M  V30 2528 H 241.077 -0.55314 6.53162 0
M  V30 2529 H 240.597 -2.01995 5.64764 0
M  V30 2530 H 242.276 -1.8221 6.20813 0
M  V30 2531 N 242.408 -1.52605 -0.393616 0
M  V30 2532 C 243.656 -1.67093 -1.13685 0
M  V30 2533 C 243.977 -0.411011 -1.90619 0
M  V30 2534 O 243.247 0.574491 -1.87287 0
M  V30 2535 H 241.827 -0.615923 -0.422668 0
M  V30 2536 H 244.489 -1.89704 -0.447039 0
M  V30 2537 H 243.585 -2.51922 -1.84232 0
M  V30 2538 N 243.887 0.651787 -1.4349 0
M  V30 2539 C 245.117 1.43728 -1.48411 0
M  V30 2540 C 245.525 1.8893 -0.10103 0
M  V30 2541 O 244.868 1.60182 0.899307 0
M  V30 2542 C 244.93 2.70411 -2.36893 0
M  V30 2543 C 244.594 2.4714 -3.8441 0
M  V30 2544 C 245.591 2.10271 -4.75481 0
M  V30 2545 C 243.276 2.6142 -4.28912 0
M  V30 2546 C 245.27 1.87982 -6.0905 0
M  V30 2547 C 242.957 2.38746 -5.62533 0
M  V30 2548 C 243.955 2.02083 -6.5242 0
M  V30 2549 O 243.643 1.79647 -7.8357 0
M  V30 2550 H 243.375 0.447962 -0.506267 0
M  V30 2551 H 245.929 0.80624 -1.88915 0
M  V30 2552 H 244.159 3.36079 -1.91278 0
M  V30 2553 H 245.848 3.32364 -2.33 0
M  V30 2554 H 246.614 1.98814 -4.42378 0
M  V30 2555 H 242.493 2.88931 -3.59222 0
M  V30 2556 H 246.037 1.5929 -6.7917 0
M  V30 2557 H 241.934 2.49806 -5.95203 0
M  V30 2558 H 242.702 1.9406 -7.95162 0
M  V30 2559 N 245.365 1.30045 0.890287 0
M  V30 2560 C 246.315 1.12592 1.9826 0
M  V30 2561 C 247.299 0.0426021 1.60844 0
M  V30 2562 O 248.491 0.265346 1.75 0
M  V30 2563 C 245.62 0.814301 3.33503 0
M  V30 2564 C 244.706 1.93761 3.7725 0
M  V30 2565 N 245.097 3.18232 3.93143 0
M  V30 2566 C 243.395 1.83277 4.06602 0
M  V30 2567 C 244.096 3.9158 4.30163 0
M  V30 2568 N 243.072 3.19591 4.3973 0
M  V30 2569 H 246.874 2.07003 2.08631 0
M  V30 2570 H 244.388 1.21307 1.07974 0
M  V30 2571 H 246.385 0.67029 4.11476 0
M  V30 2572 H 245.045 -0.121797 3.24471 0
M  V30 2573 H 246.056 3.53581 3.78419 0
M  V30 2574 H 242.733 0.97001 4.06075 0
M  V30 2575 H 244.123 4.98744 4.50226 0
M  V30 2576 N 246.843 -1.10192 1.12674 0
M  V30 2577 C 248.092 -1.81573 0.8783 0
M  V30 2578 C 248.405 -1.86249 -0.597557 0
M  V30 2579 O 249.611 -2.5386 -0.962681 0
M  V30 2580 C 248.067 -3.26149 1.52167 0
M  V30 2581 C 247.675 -3.29763 3.03249 0
M  V30 2582 C 249.419 -4.0234 1.3536 0
M  V30 2583 C 247.326 -4.68815 3.60508 0
M  V30 2584 H 246.256 -0.680394 0.324931 0
M  V30 2585 H 248.907 -1.23902 1.35353 0
M  V30 2586 H 247.289 -3.83832 0.974104 0
M  V30 2587 H 248.463 -2.8189 3.6452 0
M  V30 2588 H 246.778 -2.67059 3.19481 0
M  V30 2589 H 249.375 -5.05058 1.75559 0
M  V30 2590 H 249.718 -4.15235 0.297554 0
M  V30 2591 H 250.251 -3.51079 1.87052 0
M  V30 2592 H 246.99 -4.61121 4.65884 0
M  V30 2593 H 246.51 -5.17045 3.04014 0
M  V30 2594 H 248.189 -5.37785 3.59717 0
M  V30 2595 N 248.321 -0.919034 -1.28029 0
M  V30 2596 C 249.732 -0.600735 -1.76771 0
M  V30 2597 C 250.083 0.884024 -1.75156 0
M  V30 2598 O 249.208 1.69163 -1.34956 0
M  V30 2599 C 249.803 -1.08372 -3.21 0
M  V30 2600 C 248.362 -0.816248 -3.67443 0
M  V30 2601 C 247.509 -1.24742 -2.47658 0
M  V30 2602 H 250.46 -1.09974 -1.14418 0
M  V30 2603 H 250.481 -0.427512 -3.78091 0
M  V30 2604 H 249.993 -2.16437 -3.22144 0
M  V30 2605 H 248.094 0.250968 -3.71754 0
M  V30 2606 H 248.207 -1.4277 -4.57333 0
M  V30 2607 H 246.571 -0.666083 -2.45836 0
M  V30 2608 H 247.354 -2.33653 -2.51518 0
M  V30 2609 N 249.799 1.42003 -0.683588 0
M  V30 2610 C 250.732 2.28166 0.039592 0
M  V30 2611 C 251.71 1.41562 0.799942 0
M  V30 2612 O 252.894 1.70997 0.793248 0
M  V30 2613 C 250.021 3.21575 1.06335 0
M  V30 2614 C 249.067 4.24643 0.397562 0
M  V30 2615 S 249.9 5.2869 -0.851296 0
M  V30 2616 C 251.056 6.25666 0.171166 0
M  V30 2617 H 251.289 2.89153 -0.691229 0
M  V30 2618 H 248.822 1.46962 -0.473435 0
M  V30 2619 H 250.78 3.75928 1.6489 0
M  V30 2620 H 249.441 2.59707 1.76667 0
M  V30 2621 H 248.634 4.90223 1.17035 0
M  V30 2622 H 248.236 3.73824 -0.114611 0
M  V30 2623 H 250.528 6.69653 1.02819 0
M  V30 2624 H 251.471 7.06666 -0.450397 0
M  V30 2625 H 251.879 5.62095 0.520578 0
M  V30 2626 N 251.277 0.427512 1.51691 0
M  V30 2627 C 252.524 -0.142229 2.02 0
M  V30 2628 C 252.852 -1.43566 1.31221 0
M  V30 2629 O 252.107 -1.91298 0.412744 0
M  V30 2630 C 252.406 -0.418249 3.54944 0
M  V30 2631 C 252.072 0.788187 4.43958 0
M  V30 2632 C 250.734 1.11906 4.68007 0
M  V30 2633 C 253.086 1.59347 4.96244 0
M  V30 2634 C 250.414 2.25608 5.41588 0
M  V30 2635 C 252.766 2.7214 5.71072 0
M  V30 2636 C 251.43 3.05692 5.93387 0
M  V30 2637 H 250.7 -0.0520451 0.73917 0
M  V30 2638 H 253.347 0.572697 1.82736 0
M  V30 2639 H 251.652 -1.21496 3.72486 0
M  V30 2640 H 253.349 -0.872339 3.91397 0
M  V30 2641 H 249.939 0.520344 4.2543 0
M  V30 2642 H 254.123 1.35106 4.77556 0
M  V30 2643 H 249.379 2.51929 5.57083 0
M  V30 2644 H 253.553 3.34914 6.10578 0
M  V30 2645 H 251.18 3.9391 6.50184 0
M  V30 2646 N 252.755 -1.56801 0.158532 0
M  V30 2647 C 253.718 -2.16138 -0.762705 0
M  V30 2648 C 254.718 -1.1061 -1.16713 0
M  V30 2649 O 255.908 -1.36191 -1.08617 0
M  V30 2650 C 253.04 -2.73386 -2.03649 0
M  V30 2651 H 254.233 -2.98886 -0.246354 0
M  V30 2652 H 251.786 -1.56035 -0.0909744 0
M  V30 2653 H 252.521 -1.94335 -2.59623 0
M  V30 2654 H 252.306 -3.50601 -1.75559 0
M  V30 2655 H 253.796 -3.19065 -2.6942 0
M  V30 2656 N 254.233 0.115231 -1.57178 0
M  V30 2657 C 255.481 0.820727 -1.84685 0
M  V30 2658 C 255.802 1.80237 -0.744279 0
M  V30 2659 O 255.072 1.94529 0.231375 0
M  V30 2660 H 253.652 0.306084 -0.681411 0
M  V30 2661 H 256.314 0.101656 -1.94635 0
M  V30 2662 H 255.41 1.36366 -2.80733 0
M  V30 2663 N 255.711 1.52812 0.385517 0
M  V30 2664 C 256.958 1.68026 1.1302 0
M  V30 2665 C 257.286 0.421934 1.89868 0
M  V30 2666 O 256.541 -0.595749 1.86412 0
M  V30 2667 C 256.84 2.86856 2.13187 0
M  V30 2668 C 256.506 4.24159 1.5297 0
M  V30 2669 C 255.168 4.61501 1.36274 0
M  V30 2670 C 257.52 5.09627 1.09223 0
M  V30 2671 C 254.848 5.81966 0.743837 0
M  V30 2672 C 257.2 6.30719 0.487411 0
M  V30 2673 C 255.864 6.6679 0.307777 0
M  V30 2674 H 255.134 0.614849 0.413571 0
M  V30 2675 H 257.781 1.86962 0.414405 0
M  V30 2676 H 256.086 2.6235 2.90998 0
M  V30 2677 H 257.783 2.95821 2.70722 0
M  V30 2678 H 254.373 3.94746 1.66954 0
M  V30 2679 H 258.557 4.81343 1.20922 0
M  V30 2680 H 253.813 6.08519 0.592891 0
M  V30 2681 H 257.987 6.96259 0.140143 0
M  V30 2682 H 255.614 7.60001 -0.173879 0
M  V30 2683 N 257.189 -0.644168 1.43834 0
M  V30 2684 C 258.435 -1.40603 1.46146 0
M  V30 2685 C 258.768 -1.93997 0.0887717 0
M  V30 2686 O 258.043 -1.72854 -0.891724 0
M  V30 2687 C 258.326 -2.58086 2.51124 0
M  V30 2688 C 258.179 -2.10126 3.97702 0
M  V30 2689 C 259.498 -3.60291 2.52742 0
M  V30 2690 H 256.617 -0.509905 0.532134 0
M  V30 2691 H 259.259 -0.729502 1.75437 0
M  V30 2692 H 257.409 -3.15801 2.26278 0
M  V30 2693 H 259.081 -1.57342 4.33637 0
M  V30 2694 H 257.324 -1.41419 4.10101 0
M  V30 2695 H 257.995 -2.94649 4.66783 0
M  V30 2696 H 260.471 -3.12352 2.7491 0
M  V30 2697 H 259.347 -4.40032 3.28121 0
M  V30 2698 H 259.608 -4.1349 1.56455 0
M  V30 2699 N 258.668 -1.30515 -0.883378 0
M  V30 2700 C 259.917 -1.18795 -1.63005 0
M  V30 2701 C 260.23 0.255923 -1.93919 0
M  V30 2702 O 261.436 0.494654 -2.66956 0
M  V30 2703 C 259.892 -2.07878 -2.93794 0
M  V30 2704 C 259.5 -3.57184 -2.70414 0
M  V30 2705 C 261.244 -2.04924 -3.71761 0
M  V30 2706 C 259.151 -4.38317 -3.97029 0
M  V30 2707 H 258.081 -0.441031 -0.611562 0
M  V30 2708 H 260.732 -1.55275 -0.977854 0
M  V30 2709 H 259.114 -1.64283 -3.60315 0
M  V30 2710 H 260.288 -4.08937 -2.12384 0
M  V30 2711 H 258.603 -3.61976 -2.0582 0
M  V30 2712 H 261.2 -2.62792 -4.65665 0
M  V30 2713 H 261.543 -1.0331 -4.03277 0
M  V30 2714 H 262.076 -2.46649 -3.12104 0
M  V30 2715 H 258.815 -5.40632 -3.70671 0
M  V30 2716 H 258.335 -3.91326 -4.54559 0
M  V30 2717 H 260.014 -4.49834 -4.65036 0
M  V30 2718 N 260.146 1.09593 -1.13257 0
M  V30 2719 C 261.079 2.15451 -0.752061 0
M  V30 2720 C 262.057 1.60493 0.260913 0
M  V30 2721 O 263.241 1.8788 0.152819 0
M  V30 2722 C 260.368 3.38506 -0.114594 0
M  V30 2723 C 259.414 4.12183 -1.09579 0
M  V30 2724 S 260.247 4.6661 -2.62745 0
M  V30 2725 C 261.403 5.92966 -2.00354 0
M  V30 2726 H 261.636 2.47395 -1.64872 0
M  V30 2727 H 259.169 1.21515 -0.952545 0
M  V30 2728 H 261.127 4.09757 0.246808 0
M  V30 2729 H 259.788 3.04784 0.759309 0
M  V30 2730 H 258.981 5.00445 -0.597545 0
M  V30 2731 H 258.583 3.46785 -1.40057 0
M  V30 2732 H 260.875 6.63882 -1.35156 0
M  V30 2733 H 261.818 6.47467 -2.86691 0
M  V30 2734 H 262.226 5.45405 -1.4558 0
M  V30 2735 N 261.624 0.925811 1.2754 0
M  V30 2736 C 262.871 0.565255 1.94451 0
M  V30 2737 C 263.199 -0.89316 1.7278 0
M  V30 2738 O 262.454 -1.65213 1.04895 0
M  V30 2739 C 262.753 0.835296 3.47502 0
M  V30 2740 C 262.419 2.27515 3.89291 0
M  V30 2741 C 261.081 2.66879 4.00411 0
M  V30 2742 C 263.433 3.21158 4.10496 0
M  V30 2743 C 260.761 3.99014 4.30122 0
M  V30 2744 C 263.113 4.52871 4.4169 0
M  V30 2745 C 261.777 4.92072 4.51023 0
M  V30 2746 H 261.047 0.206841 0.711546 0
M  V30 2747 H 263.694 1.16942 1.51647 0
M  V30 2748 H 261.999 0.148442 3.91519 0
M  V30 2749 H 263.696 0.535322 3.97411 0
M  V30 2750 H 260.286 1.95976 3.81171 0
M  V30 2751 H 264.47 2.9195 4.01346 0
M  V30 2752 H 259.726 4.2907 4.35556 0
M  V30 2753 H 263.9 5.25436 4.57045 0
M  V30 2754 H 261.527 5.9449 4.738 0
M  V30 2755 N 263.102 -1.41638 0.69111 0
M  V30 2756 C 264.032 -2.3347 0.037248 0
M  V30 2757 C 265.013 -1.51575 -0.771947 0
M  V30 2758 O 266.198 -1.80126 -0.72582 0
M  V30 2759 C 263.328 -3.35354 -0.903064 0
M  V30 2760 C 262.282 -4.27526 -0.201288 0
M  V30 2761 C 261.608 -5.19747 -1.25565 0
M  V30 2762 C 262.908 -5.13959 0.929689 0
M  V30 2763 H 264.602 -2.88397 0.804227 0
M  V30 2764 H 262.148 -1.38669 0.388189 0
M  V30 2765 H 264.101 -3.98519 -1.36969 0
M  V30 2766 H 262.825 -2.78767 -1.70166 0
M  V30 2767 H 261.484 -3.65779 0.245265 0
M  V30 2768 H 261.132 -4.59479 -2.04666 0
M  V30 2769 H 260.832 -5.8225 -0.791128 0
M  V30 2770 H 262.356 -5.85789 -1.72288 0
M  V30 2771 H 263.77 -5.70718 0.543546 0
M  V30 2772 H 262.167 -5.85379 1.32103 0
M  V30 2773 H 263.237 -4.51389 1.77133 0
M  V30 2774 N 264.58 -0.43555 -1.51462 0
M  V30 2775 C 265.805 0.132627 -2.06976 0
M  V30 2776 C 266.23 1.35848 -1.30104 0
M  V30 2777 O 265.588 1.78112 -0.338493 0
M  V30 2778 C 265.636 0.43523 -3.57964 0
M  V30 2779 O 264.74 1.52198 -3.83288 0
M  V30 2780 H 264.081 0.00265 -0.663995 0
M  V30 2781 H 266.611 -0.616369 -1.95095 0
M  V30 2782 H 266.621 0.686206 -4.02188 0
M  V30 2783 H 265.296 -0.460739 -4.1334 0
M  V30 2784 H 263.873 1.2611 -3.50928 0
M  V30 2785 N 266.058 1.56714 -0.166846 0
M  V30 2786 C 267.286 2.0112 0.485644 0
M  V30 2787 C 267.701 1.04705 1.57106 0
M  V30 2788 O 267.058 0.0471923 1.82439 0
M  V30 2789 C 267.109 3.45361 1.06808 0
M  V30 2790 O 266.83 4.38092 0.0259995 0
M  V30 2791 C 268.331 4.05145 1.79924 0
M  V30 2792 H 265.551 0.65931 0.124704 0
M  V30 2793 H 268.095 2.02746 -0.267262 0
M  V30 2794 H 266.25 3.44524 1.7715 0
M  V30 2795 H 266.664 5.22519 0.455398 0
M  V30 2796 H 268.138 5.08009 2.15942 0
M  V30 2797 H 268.615 3.46982 2.69258 0
M  V30 2798 H 269.221 4.09672 1.14234 0
M  V30 2799 N 267.536 -0.106894 1.57237 0
M  V30 2800 C 268.782 -0.81373 1.85759 0
M  V30 2801 C 269.115 -1.78952 0.754315 0
M  V30 2802 O 268.39 -1.93029 -0.23879 0
M  V30 2803 C 268.673 -1.55293 3.24894 0
M  V30 2804 C 268.526 -0.595929 4.45835 0
M  V30 2805 C 269.845 -2.5063 3.61763 0
M  V30 2806 H 266.964 -0.294369 0.67566 0
M  V30 2807 H 269.606 -0.0776472 1.89841 0
M  V30 2808 H 267.756 -2.1804 3.21544 0
M  V30 2809 H 269.428 0.0236262 4.61294 0
M  V30 2810 H 267.671 0.0916191 4.33703 0
M  V30 2811 H 268.342 -1.15004 5.39887 0
M  V30 2812 H 270.818 -1.97982 3.65981 0
M  V30 2813 H 269.694 -2.99376 4.60071 0
M  V30 2814 H 269.955 -3.3385 2.89821 0
M  V30 2815 N 269.014 -1.53014 -0.377408 0
M  V30 2816 C 269.947 -1.73382 -1.48371 0
M  V30 2817 C 270.925 -0.581879 -1.51832 0
M  V30 2818 O 272.109 -0.81307 -1.70063 0
M  V30 2819 C 269.236 -1.80192 -2.8679 0
M  V30 2820 C 268.282 -3.02056 -3.01105 0
M  V30 2821 S 269.115 -4.61811 -2.71093 0
M  V30 2822 C 270.271 -4.71453 -4.11683 0
M  V30 2823 H 270.504 -2.66946 -1.30872 0
M  V30 2824 H 268.037 -1.43453 -0.571012 0
M  V30 2825 H 269.995 -1.84802 -3.6655 0
M  V30 2826 H 268.656 -0.877008 -3.01608 0
M  V30 2827 H 267.849 -3.03396 -4.02451 0
M  V30 2828 H 267.451 -2.95498 -2.29253 0
M  V30 2829 H 269.743 -4.50781 -5.0577 0
M  V30 2830 H 270.686 -5.73487 -4.15353 0
M  V30 2831 H 271.094 -4.00189 -3.98132 0
M  V30 2832 N 270.492 0.636531 -1.44174 0
M  V30 2833 C 271.739 1.39619 -1.46672 0
M  V30 2834 C 272.067 1.94257 -0.0972691 0
M  V30 2835 O 271.322 1.73768 0.900175 0
M  V30 2836 C 271.621 2.58309 -2.47005 0
M  V30 2837 C 271.287 2.21992 -3.92467 0
M  V30 2838 C 269.949 2.118 -4.32081 0
M  V30 2839 C 272.301 1.9321 -4.84065 0
M  V30 2840 C 269.629 1.71007 -5.61225 0
M  V30 2841 C 271.981 1.53911 -6.13591 0
M  V30 2842 C 270.645 1.42257 -6.52165 0
M  V30 2843 H 269.915 0.510902 -0.536712 0
M  V30 2844 H 272.562 0.722328 -1.77355 0
M  V30 2845 H 270.867 3.30903 -2.09786 0
M  V30 2846 H 272.564 3.16533 -2.46186 0
M  V30 2847 H 269.154 2.30841 -3.61124 0
M  V30 2848 H 273.338 1.99997 -4.54219 0
M  V30 2849 H 268.594 1.60583 -5.89935 0
M  V30 2850 H 272.768 1.30677 -6.8403 0
M  V30 2851 H 270.395 1.10419 -7.52138 0
M  V30 2852 N 271.97 1.30982 0.876444 0
M  V30 2853 C 272.933 1.18054 1.96459 0
M  V30 2854 C 273.933 0.109399 1.60427 0
M  V30 2855 O 275.123 0.358173 1.70478 0
M  V30 2856 C 272.255 0.810616 3.31122 0
M  V30 2857 H 273.448 2.14735 2.09354 0
M  V30 2858 H 271.001 1.145 1.06392 0
M  V30 2859 H 271.736 -0.155322 3.23928 0
M  V30 2860 H 271.521 1.58481 3.58645 0
M  V30 2861 H 273.011 0.743876 4.10921 0
M  V30 2862 N 273.449 -1.08991 1.13837 0
M  V30 2863 C 274.696 -1.81258 0.902882 0
M  V30 2864 C 275.024 -1.85936 -0.570803 0
M  V30 2865 O 274.279 -1.3267 -1.43865 0
M  V30 2866 C 274.578 -3.27042 1.44147 0
M  V30 2867 C 274.244 -3.4249 2.93276 0
M  V30 2868 C 272.906 -3.46414 3.33992 0
M  V30 2869 C 275.258 -3.4666 3.892 0
M  V30 2870 C 272.586 -3.52091 4.69307 0
M  V30 2871 C 274.938 -3.53872 5.24364 0
M  V30 2872 C 273.602 -3.56066 5.646 0
M  V30 2873 H 272.872 -0.663268 0.330388 0
M  V30 2874 H 275.519 -1.28368 1.42105 0
M  V30 2875 H 273.824 -3.82599 0.844097 0
M  V30 2876 H 275.521 -3.81499 1.23528 0
M  V30 2877 H 272.111 -3.40124 2.60794 0
M  V30 2878 H 276.295 -3.42865 3.58828 0
M  V30 2879 H 271.551 -3.52079 4.9985 0
M  V30 2880 H 275.725 -3.56043 5.98503 0
M  V30 2881 H 273.352 -3.60218 6.69438 0
M  V30 2882 N 274.927 -0.932562 -1.27047 0
M  V30 2883 C 276.152 -0.591474 -1.98787 0
M  V30 2884 C 276.577 0.824601 -1.69062 0
M  V30 2885 O 275.935 1.5541 -0.933677 0
M  V30 2886 C 275.983 -0.829808 -3.50922 0
M  V30 2887 O 275.087 0.102266 -4.12273 0
M  V30 2888 H 274.428 -0.227185 -0.623926 0
M  V30 2889 H 276.958 -1.25314 -1.61733 0
M  V30 2890 H 276.968 -0.747292 -4.01098 0
M  V30 2891 H 275.643 -1.86201 -3.7189 0
M  V30 2892 H 274.22 -0.0305761 -3.72887 0
M  V30 2893 N 276.405 1.4127 -0.698611 0
M  V30 2894 C 277.653 2.00782 -0.230409 0
M  V30 2895 C 277.974 1.5562 1.17505 0
M  V30 2896 O 277.244 0.78815 1.79346 0
M  V30 2897 H 275.824 0.742464 -0.0821944 0
M  V30 2898 H 278.486 1.72852 -0.90045 0
M  V30 2899 H 277.582 3.11095 -0.25021 0
M  V30 2900 N 277.883 0.443576 1.51229 0
M  V30 2901 C 279.111 -0.11929 2.06556 0
M  V30 2902 C 279.526 -1.35921 1.31038 0
M  V30 2903 O 278.883 -1.78675 0.371704 0
M  V30 2904 C 278.934 -0.435228 3.5887 0
M  V30 2905 O 278.655 0.755486 4.31537 0
M  V30 2906 C 280.156 -1.04808 4.30732 0
M  V30 2907 H 277.376 -0.0051584 0.67098 0
M  V30 2908 H 279.92 0.624453 1.94733 0
M  V30 2909 H 278.075 -1.12887 3.70588 0
M  V30 2910 H 278.489 0.483491 5.22267 0
M  V30 2911 H 279.963 -1.2191 5.3837 0
M  V30 2912 H 280.44 -2.03081 3.89429 0
M  V30 2913 H 281.046 -0.393637 4.23474 0
M  V30 2914 N 279.361 -1.56624 0.175154 0
M  V30 2915 C 280.591 -2.01082 -0.474283 0
M  V30 2916 C 280.999 -1.05447 -1.57091 0
M  V30 2917 O 280.342 -0.0480595 -1.83637 0
M  V30 2918 C 280.404 -3.41963 -1.10911 0
M  V30 2919 C 280.068 -4.56742 -0.153666 0
M  V30 2920 C 281.065 -5.16076 0.629448 0
M  V30 2921 C 278.75 -5.02277 -0.0483776 0
M  V30 2922 C 280.744 -6.19377 1.50501 0
M  V30 2923 C 278.431 -6.05427 0.830768 0
M  V30 2924 C 279.429 -6.63849 1.60605 0
M  V30 2925 O 279.117 -7.64998 2.47049 0
M  V30 2926 H 278.849 -0.664261 -0.125432 0
M  V30 2927 H 281.403 -2.03549 0.275163 0
M  V30 2928 H 279.633 -3.36422 -1.90676 0
M  V30 2929 H 281.322 -3.70352 -1.66114 0
M  V30 2930 H 282.088 -4.81776 0.558297 0
M  V30 2931 H 277.967 -4.56513 -0.641611 0
M  V30 2932 H 281.511 -6.64906 2.1106 0
M  V30 2933 H 277.408 -6.39151 0.903107 0
M  V30 2934 H 278.176 -7.82336 2.40607 0
M  V30 2935 N 280.839 0.0985539 -1.57292 0
M  V30 2936 C 282.067 0.816318 -1.90115 0
M  V30 2937 C 282.482 1.72451 -0.768509 0
M  V30 2938 O 281.839 1.80643 0.259687 0
M  V30 2939 C 281.89 1.63259 -3.22535 0
M  V30 2940 O 281.611 0.760934 -4.31441 0
M  V30 2941 C 283.112 2.45372 -3.69199 0
M  V30 2942 H 280.332 0.233595 -0.629027 0
M  V30 2943 H 282.876 0.0768229 -2.04356 0
M  V30 2944 H 281.031 2.32463 -3.09903 0
M  V30 2945 H 281.445 1.32595 -5.07463 0
M  V30 2946 H 282.919 2.98144 -4.64558 0
M  V30 2947 H 283.396 3.23677 -2.96867 0
M  V30 2948 H 284.002 1.81373 -3.84687 0
M  V30 2949 N 282.317 1.53212 0.369288 0
M  V30 2950 C 283.247 1.82365 1.45826 0
M  V30 2951 C 284.228 0.676907 1.56051 0
M  V30 2952 O 285.413 0.926401 1.70679 0
M  V30 2953 C 282.543 2.01023 2.83208 0
M  V30 2954 C 281.497 3.1678 2.8781 0
M  V30 2955 C 280.823 3.20724 4.27832 0
M  V30 2956 C 282.123 4.55447 2.55667 0
M  V30 2957 H 283.817 2.73559 1.21678 0
M  V30 2958 H 281.363 1.3163 0.583911 0
M  V30 2959 H 283.316 2.20001 3.59413 0
M  V30 2960 H 282.04 1.06536 3.08736 0
M  V30 2961 H 280.699 2.97616 2.14056 0
M  V30 2962 H 280.347 2.23882 4.50429 0
M  V30 2963 H 280.047 3.98496 4.31827 0
M  V30 2964 H 281.571 3.41881 5.05915 0
M  V30 2965 H 282.985 4.74611 3.21586 0
M  V30 2966 H 281.382 5.35432 2.70984 0
M  V30 2967 H 282.452 4.60812 1.5093 0
M  V30 2968 N 283.795 -0.628877 1.44509 0
M  V30 2969 C 284.725 -1.75187 1.54376 0
M  V30 2970 C 285.706 -1.65411 0.396618 0
M  V30 2971 O 286.891 -1.84137 0.617031 0
M  V30 2972 C 284.021 -3.13725 1.48976 0
M  V30 2973 C 282.975 -3.38291 2.62189 0
M  V30 2974 C 282.301 -4.76883 2.41841 0
M  V30 2975 C 283.601 -3.30632 4.04326 0
M  V30 2976 H 285.295 -1.67187 2.48373 0
M  V30 2977 H 282.841 -0.802909 1.19538 0
M  V30 2978 H 284.794 -3.92064 1.54478 0
M  V30 2979 H 283.518 -3.22515 0.514961 0
M  V30 2980 H 282.177 -2.62334 2.56079 0
M  V30 2981 H 281.825 -4.82378 1.42548 0
M  V30 2982 H 281.525 -4.94278 3.17747 0
M  V30 2983 H 283.049 -5.57449 2.49165 0
M  V30 2984 H 284.463 -3.98873 4.11793 0
M  V30 2985 H 282.86 -3.59561 4.80454 0
M  V30 2986 H 283.93 -2.28404 4.27738 0
M  V30 2987 N 285.273 -1.31445 -0.869486 0
M  V30 2988 C 286.52 -1.21158 -1.62256 0
M  V30 2989 C 286.848 0.230155 -1.93133 0
M  V30 2990 O 286.103 1.17906 -1.56194 0
M  V30 2991 C 286.402 -2.00145 -2.96102 0
M  V30 2992 C 286.068 -3.4964 -2.84715 0
M  V30 2993 C 284.73 -3.90403 -2.81317 0
M  V30 2994 C 287.082 -4.44769 -2.71716 0
M  V30 2995 C 284.41 -5.24561 -2.62778 0
M  V30 2996 C 286.762 -5.79054 -2.54714 0
M  V30 2997 C 285.426 -6.19037 -2.49699 0
M  V30 2998 H 284.696 -0.443348 -0.593737 0
M  V30 2999 H 287.343 -1.62715 -1.00976 0
M  V30 3000 H 285.648 -1.5127 -3.6142 0
M  V30 3001 H 287.345 -1.89566 -3.53363 0
M  V30 3002 H 283.935 -3.17256 -2.88178 0
M  V30 3003 H 288.119 -4.14208 -2.73397 0
M  V30 3004 H 283.375 -5.54613 -2.57321 0
M  V30 3005 H 287.549 -6.52393 -2.43632 0
M  V30 3006 H 285.176 -7.22935 -2.35093 0
M  V30 3007 N 286.751 1.08385 -1.14413 0
M  V30 3008 C 287.997 1.81044 -0.913834 0
M  V30 3009 C 288.33 1.86004 0.558209 0
M  V30 3010 O 287.605 1.33606 1.4135 0
M  V30 3011 C 287.888 3.26648 -1.51569 0
M  V30 3012 C 287.741 3.29895 -3.0576 0
M  V30 3013 C 289.06 4.23629 -1.19273 0
M  V30 3014 H 286.179 0.65727 -0.333414 0
M  V30 3015 H 288.821 1.26896 -1.41412 0
M  V30 3016 H 286.971 3.72889 -1.09023 0
M  V30 3017 H 288.643 2.91977 -3.57137 0
M  V30 3018 H 286.886 2.69163 -3.40197 0
M  V30 3019 H 287.557 4.32516 -3.42977 0
M  V30 3020 H 290.033 3.85727 -1.56057 0
M  V30 3021 H 288.909 5.23822 -1.64017 0
M  V30 3022 H 289.17 4.41968 -0.108068 0
M  V30 3023 N 288.23 0.939286 1.26551 0
M  V30 3024 C 289.193 0.451987 2.24699 0
M  V30 3025 C 290.193 -0.435869 1.5478 0
M  V30 3026 O 291.383 -0.235314 1.72603 0
M  V30 3027 C 288.515 -0.348801 3.39111 0
M  V30 3028 H 289.708 1.3193 2.69322 0
M  V30 3029 H 287.261 0.721072 1.38673 0
M  V30 3030 H 287.996 -1.23444 2.99887 0
M  V30 3031 H 287.781 0.287945 3.91041 0
M  V30 3032 H 289.271 -0.679726 4.12031 0
M  V30 3033 N 289.708 -1.40897 0.706093 0
M  V30 3034 C 291.124 -1.55042 0.37869 0
M  V30 3035 C 291.324 -1.67944 -1.11342 0
M  V30 3036 O 290.38 -1.66372 -1.89938 0
M  V30 3037 C 291.693 -2.78398 1.13643 0
M  V30 3038 C 293.241 -2.92206 1.12181 0
M  V30 3039 C 293.716 -4.18463 1.86152 0
M  V30 3040 N 295.207 -4.25443 1.83173 0
M  V30 3041 C 295.942 -5.2202 2.37239 0
M  V30 3042 N 295.438 -6.24563 2.99821 0
M  V30 3043 N 297.231 -5.14033 2.27435 0
M  V30 3044 H 289.382 -1.30769 1.67372 0
M  V30 3045 H 291.645 -0.631653 0.706907 0
M  V30 3046 H 291.351 -2.7511 2.19106 0
M  V30 3047 H 291.225 -3.70228 0.721853 0
M  V30 3048 H 293.612 -2.95004 0.0754171 0
M  V30 3049 H 293.693 -2.01521 1.57554 0
M  V30 3050 H 293.337 -4.16427 2.90776 0
M  V30 3051 H 293.267 -5.08141 1.38206 0
M  V30 3052 H 295.758 -3.51976 1.37556 0
M  V30 3053 H 296.071 -6.94665 3.38616 0
M  V30 3054 H 294.416 -6.25035 3.03902 0
M  V30 3055 H 297.607 -4.3285 1.78208 0
M  V30 3056 H 297.78 -5.89129 2.69873 0
M  V30 3057 N 291.186 -0.45159 -1.50991 0
M  V30 3058 C 292.414 0.108334 -2.06616 0
M  V30 3059 C 292.829 1.35224 -1.31757 0
M  V30 3060 O 292.186 1.78475 -0.381174 0
M  V30 3061 C 292.237 0.41619 -3.59096 0
M  V30 3062 O 291.958 -0.778361 -4.3113 0
M  V30 3063 C 293.459 1.02523 -4.31282 0
M  V30 3064 H 290.679 0.00159995 -0.670998 0
M  V30 3065 H 293.223 -0.634771 -1.94399 0
M  V30 3066 H 291.378 1.10921 -3.71181 0
M  V30 3067 H 291.792 -0.511181 -5.22003 0
M  V30 3068 H 293.266 1.19053 -5.39009 0
M  V30 3069 H 293.743 2.01013 -3.905 0
M  V30 3070 H 294.349 0.371173 -4.23677 0
M  V30 3071 N 292.664 1.56529 -0.183458 0
M  V30 3072 C 293.594 2.21549 0.737456 0
M  V30 3073 C 294.575 1.17489 1.23005 0
M  V30 3074 O 295.76 1.45959 1.281 0
M  V30 3075 C 292.89 2.86575 1.96194 0
M  V30 3076 C 291.844 3.96778 1.60473 0
M  V30 3077 C 291.17 4.48911 2.90487 0
M  V30 3078 C 292.47 5.15767 0.823497 0
M  V30 3079 H 294.164 2.98761 0.195453 0
M  V30 3080 H 291.71 1.43702 0.0925686 0
M  V30 3081 H 293.663 3.30739 2.61131 0
M  V30 3082 H 292.387 2.06749 2.52828 0
M  V30 3083 H 291.046 3.53286 0.978997 0
M  V30 3084 H 290.694 3.65862 3.45186 0
M  V30 3085 H 290.394 5.23265 2.67335 0
M  V30 3086 H 291.918 4.95771 3.56432 0
M  V30 3087 H 293.332 5.56549 1.37571 0
M  V30 3088 H 291.729 5.96114 0.690551 0
M  V30 3089 H 292.799 4.84574 -0.177782 0
M  V30 3090 N 294.142 -0.090211 1.57342 0
M  V30 3091 C 295.074 -1.13541 1.99101 0
M  V30 3092 C 296.087 -1.3604 0.894258 0
M  V30 3093 O 297.276 -1.34606 1.17233 0
M  V30 3094 C 294.376 -2.49001 2.29895 0
M  V30 3095 C 293.549 -2.46712 3.61182 0
M  V30 3096 C 292.608 -3.64136 3.79857 0
M  V30 3097 O 291.634 -3.46405 4.51655 0
M  V30 3098 N 292.836 -4.83802 3.20806 0
M  V30 3099 H 295.601 -0.779942 2.89373 0
M  V30 3100 H 293.162 -0.279125 1.59476 0
M  V30 3101 H 295.154 -3.26166 2.39578 0
M  V30 3102 H 293.724 -2.76619 1.45605 0
M  V30 3103 H 292.944 -1.55058 3.62423 0
M  V30 3104 H 294.232 -2.42265 4.4742 0
M  V30 3105 H 293.63 -5.01112 2.62494 0
M  V30 3106 H 292.187 -5.58543 3.35966 0
M  V30 3107 N 295.62 -1.53406 -0.361157 0
M  V30 3108 C 296.868 -1.69467 -1.10115 0
M  V30 3109 C 297.189 -0.451352 -1.89705 0
M  V30 3110 O 296.459 0.534636 -1.88463 0
M  V30 3111 H 295.039 -0.624749 -0.409508 0
M  V30 3112 H 297.701 -1.90609 -0.406699 0
M  V30 3113 H 296.797 -2.55774 -1.78847 0
M  V30 3114 N 297.098 0.621204 -1.44841 0
M  V30 3115 C 298.347 1.37658 -1.47422 0
M  V30 3116 C 298.66 1.95264 -0.114629 0
M  V30 3117 O 299.866 2.71494 -0.0180199 0
M  V30 3118 C 298.322 2.49285 -2.59586 0
M  V30 3119 C 297.93 1.98149 -4.01797 0
M  V30 3120 C 299.674 3.26409 -2.71399 0
M  V30 3121 C 297.581 3.07178 -5.05367 0
M  V30 3122 H 296.511 0.517344 -0.548517 0
M  V30 3123 H 299.162 0.667257 -1.70938 0
M  V30 3124 H 297.544 3.22839 -2.29328 0
M  V30 3125 H 298.718 1.31395 -4.41669 0
M  V30 3126 H 297.033 1.33812 -3.94314 0
M  V30 3127 H 299.63 4.07706 -3.45948 0
M  V30 3128 H 299.973 3.76535 -1.77559 0
M  V30 3129 H 300.506 2.5995 -3.01116 0
M  V30 3130 H 297.245 2.61985 -6.00869 0
M  V30 3131 H 296.765 3.72542 -4.70077 0
M  V30 3132 H 298.444 3.71789 -5.29511 0
M  V30 3133 N 298.576 1.31904 0.862503 0
M  V30 3134 C 299.824 1.21776 1.61292 0
M  V30 3135 C 300.145 -0.222413 1.93727 0
M  V30 3136 O 299.415 -1.1451 1.58947 0
M  V30 3137 H 297.995 0.447717 0.597962 0
M  V30 3138 H 300.657 1.65326 1.03215 0
M  V30 3139 H 299.753 1.7948 2.5533 0
M  V30 3140 N 300.054 -1.07777 1.14986 0
M  V30 3141 C 301.279 -1.84558 0.946213 0
M  V30 3142 C 301.704 -1.81323 -0.500362 0
M  V30 3143 O 301.062 -1.20301 -1.35637 0
M  V30 3144 C 301.11 -3.29736 1.45968 0
M  V30 3145 O 300.214 -4.07149 0.65601 0
M  V30 3146 H 299.555 -0.571641 0.33782 0
M  V30 3147 H 302.085 -1.35991 1.52865 0
M  V30 3148 H 302.095 -3.80574 1.47063 0
M  V30 3149 H 300.77 -3.31406 2.51283 0
M  V30 3150 H 299.347 -3.65994 0.714322 0
M  V30 3151 N 301.532 -0.945985 -1.26051 0
M  V30 3152 C 302.757 -0.612525 -1.98149 0
M  V30 3153 C 303.182 0.806623 -1.69927 0
M  V30 3154 O 302.54 1.54411 -0.950108 0
M  V30 3155 C 302.588 -0.866981 -3.50023 0
M  V30 3156 O 301.692 0.0585333 -4.12358 0
M  V30 3157 H 301.033 -0.23379 -0.621481 0
M  V30 3158 H 303.563 -1.27023 -1.60395 0
M  V30 3159 H 303.573 -0.789792 -4.00283 0
M  V30 3160 H 302.248 -1.90135 -3.69894 0
M  V30 3161 H 300.825 -0.0701241 -3.72834 0
M  V30 3162 N 303.011 1.40521 -0.713556 0
M  V30 3163 C 304.258 2.00923 -0.25219 0
M  V30 3164 C 304.586 1.56571 1.15395 0
M  V30 3165 O 303.841 0.775874 1.79663 0
M  V30 3166 C 304.14 3.56317 -0.278 0
M  V30 3167 C 303.806 4.20246 -1.63415 0
M  V30 3168 C 302.468 4.37422 -2.00538 0
M  V30 3169 C 304.82 4.55923 -2.52554 0
M  V30 3170 C 302.148 4.87558 -3.2635 0
M  V30 3171 C 304.5 5.07458 -3.77716 0
M  V30 3172 C 303.164 5.22843 -4.14959 0
M  V30 3173 H 302.434 0.735231 -0.0922829 0
M  V30 3174 H 305.081 1.68161 -0.916188 0
M  V30 3175 H 303.386 3.88976 0.469567 0
M  V30 3176 H 305.083 4.00883 0.0967819 0
M  V30 3177 H 301.673 4.07263 -1.33546 0
M  V30 3178 H 305.857 4.42291 -2.25149 0
M  V30 3179 H 301.113 4.97654 -3.55176 0
M  V30 3180 H 305.287 5.34041 -4.4696 0
M  V30 3181 H 302.914 5.61454 -5.12516 0
M  V30 3182 N 304.489 0.459591 1.5075 0
M  V30 3183 C 305.714 -0.0996819 2.0716 0
M  V30 3184 C 306.139 -1.33761 1.32249 0
M  V30 3185 O 305.497 -1.77551 0.366786 0
M  V30 3186 C 305.545 -0.378226 3.58611 0
M  V30 3187 O 304.649 -1.46081 3.85661 0
M  V30 3188 H 303.99 0.00791392 0.663953 0
M  V30 3189 H 306.52 0.647329 1.9409 0
M  V30 3190 H 306.53 -0.622135 4.03229 0
M  V30 3191 H 305.205 0.526439 4.12555 0
M  V30 3192 H 303.782 -1.20511 3.5289 0
M  V30 3193 N 305.967 -1.56429 0.191757 0
M  V30 3194 C 307.192 -2.02309 -0.456706 0
M  V30 3195 C 307.617 -1.07103 -1.5463 0
M  V30 3196 O 306.975 -0.0539677 -1.8122 0
M  V30 3197 C 307.023 -3.46654 -0.993159 0
M  V30 3198 O 306.127 -3.54559 -2.10622 0
M  V30 3199 H 305.468 -0.655303 -0.107114 0
M  V30 3200 H 307.998 -2.02364 0.301653 0
M  V30 3201 H 308.008 -3.86377 -1.31061 0
M  V30 3202 H 306.683 -4.1544 -0.195504 0
M  V30 3203 H 305.26 -3.26708 -1.79767 0
M  V30 3204 N 307.445 0.0818655 -1.57387 0
M  V30 3205 C 308.691 0.784074 -1.8703 0
M  V30 3206 C 309.024 1.77729 -0.782689 0
M  V30 3207 O 308.299 1.93384 0.208051 0
M  V30 3208 C 308.582 1.50105 -3.27323 0
M  V30 3209 C 308.435 0.524925 -4.46727 0
M  V30 3210 C 309.754 2.44843 -3.65705 0
M  V30 3211 H 306.873 0.283582 -0.680257 0
M  V30 3212 H 309.515 0.0474352 -1.89941 0
M  V30 3213 H 307.665 2.12897 -3.24972 0
M  V30 3214 H 309.337 -0.0970111 -4.61198 0
M  V30 3215 H 307.58 -0.160606 -4.33503 0
M  V30 3216 H 308.251 1.064 -5.41648 0
M  V30 3217 H 310.727 1.92135 -3.69085 0
M  V30 3218 H 309.603 2.92018 -4.64776 0
M  V30 3219 H 309.864 3.29197 -2.95096 0
M  V30 3220 N 308.923 1.53595 0.353017 0
M  V30 3221 C 309.886 1.80232 1.41594 0
M  V30 3222 C 310.886 0.673081 1.46035 0
M  V30 3223 O 312.076 0.941335 1.46576 0
M  V30 3224 C 309.208 1.93578 2.80607 0
M  V30 3225 H 310.401 2.75174 1.19244 0
M  V30 3226 H 307.954 1.44864 0.586872 0
M  V30 3227 H 308.689 1.00746 3.08254 0
M  V30 3228 H 308.474 2.75724 2.78781 0
M  V30 3229 H 309.964 2.15735 3.57558 0
M  V30 3230 N 310.401 -0.613514 1.45168 0
M  V30 3231 C 311.649 -1.36997 1.48581 0
M  V30 3232 C 311.97 -1.94589 0.126545 0
M  V30 3233 O 311.24 -1.76816 -0.843372 0
M  V30 3234 H 309.82 -0.508558 0.547154 0
M  V30 3235 H 312.482 -0.720853 1.81079 0
M  V30 3236 H 311.578 -2.1924 2.22127 0
M  V30 3237 N 311.879 -1.3236 -0.855495 0
M  V30 3238 C 312.809 -1.23833 -1.97958 0
M  V30 3239 C 313.79 -0.122361 -1.69659 0
M  V30 3240 O 314.975 -0.30939 -1.9172 0
M  V30 3241 C 312.105 -0.959772 -3.33775 0
M  V30 3242 C 311.059 -2.03689 -3.76424 0
M  V30 3243 C 310.385 -1.61075 -5.09862 0
M  V30 3244 C 311.685 -3.4518 -3.9198 0
M  V30 3245 H 313.379 -2.1788 -2.0535 0
M  V30 3246 H 310.925 -1.04891 -0.986605 0
M  V30 3247 H 312.878 -0.886678 -4.11966 0
M  V30 3248 H 311.602 0.0163404 -3.26596 0
M  V30 3249 H 310.261 -2.10012 -3.00484 0
M  V30 3250 H 309.909 -0.622107 -4.99138 0
M  V30 3251 H 309.609 -2.33143 -5.39368 0
M  V30 3252 H 311.133 -1.55201 -5.90546 0
M  V30 3253 H 312.547 -3.4145 -4.60526 0
M  V30 3254 H 310.944 -4.1559 -4.32903 0
M  V30 3255 H 312.014 -3.84903 -2.94919 0
M  V30 3256 N 313.357 1.07166 -1.15556 0
M  V30 3257 C 314.605 1.79443 -0.929764 0
M  V30 3258 C 314.926 1.87246 0.544414 0
M  V30 3259 O 314.196 1.37473 1.39564 0
M  V30 3260 H 312.776 0.664625 -0.341003 0
M  V30 3261 H 315.438 1.29499 -1.45657 0
M  V30 3262 H 314.534 2.81832 -1.34079 0
M  V30 3263 N 314.835 0.952656 1.25548 0
M  V30 3264 C 315.768 0.415525 2.24385 0
M  V30 3265 C 316.746 -0.502046 1.54655 0
M  V30 3266 O 317.93 -0.436875 1.83368 0
M  V30 3267 C 315.057 -0.401734 3.36309 0
M  V30 3268 C 314.103 0.455949 4.24056 0
M  V30 3269 S 314.936 1.88698 5.01152 0
M  V30 3270 C 316.092 1.07809 6.16545 0
M  V30 3271 H 316.325 1.25315 2.69599 0
M  V30 3272 H 313.858 0.756587 1.34592 0
M  V30 3273 H 315.816 -0.867329 4.01233 0
M  V30 3274 H 314.477 -1.21416 2.89684 0
M  V30 3275 H 313.67 -0.170776 5.03711 0
M  V30 3276 H 313.272 0.856675 3.64056 0
M  V30 3277 H 315.564 0.325816 6.76716 0
M  V30 3278 H 316.507 1.84849 6.83547 0
M  V30 3279 H 316.915 0.60909 5.61204 0
M  V30 3280 N 316.313 -1.40141 0.720998 0
M  V30 3281 C 317.243 -2.33339 0.0867621 0
M  V30 3282 C 318.224 -1.53178 -0.739622 0
M  V30 3283 O 319.409 -1.81625 -0.687449 0
M  V30 3284 C 316.539 -3.37194 -0.831728 0
M  V30 3285 C 315.493 -4.27857 -0.110558 0
M  V30 3286 C 314.819 -5.22294 -1.14513 0
M  V30 3287 C 316.119 -5.11872 1.0385 0
M  V30 3288 H 317.813 -2.86626 0.865219 0
M  V30 3289 H 315.359 -1.37814 0.417516 0
M  V30 3290 H 317.312 -4.01335 -1.28485 0
M  V30 3291 H 316.036 -2.82314 -1.64214 0
M  V30 3292 H 314.695 -3.65176 0.322797 0
M  V30 3293 H 314.343 -4.63717 -1.94874 0
M  V30 3294 H 314.043 -5.83797 -0.667446 0
M  V30 3295 H 315.567 -5.89312 -1.59824 0
M  V30 3296 H 316.981 -5.69436 0.664482 0
M  V30 3297 H 315.378 -5.82445 1.4449 0
M  V30 3298 H 316.448 -4.4753 1.86668 0
M  V30 3299 N 317.792 -0.46758 -1.50504 0
M  V30 3300 C 318.755 0.317059 -2.26996 0
M  V30 3301 C 319.755 0.923513 -1.31635 0
M  V30 3302 O 320.945 0.793239 -1.55091 0
M  V30 3303 C 318.077 1.45134 -3.08462 0
M  V30 3304 H 319.27 -0.353723 -2.97807 0
M  V30 3305 H 316.823 -0.221545 -1.54722 0
M  V30 3306 H 317.558 2.15728 -2.4214 0
M  V30 3307 H 317.343 1.02232 -3.78538 0
M  V30 3308 H 318.833 2.00493 -3.66323 0
M  V30 3309 N 319.27 1.56325 -0.20005 0
M  V30 3310 C 320.495 2.02548 0.44597 0
M  V30 3311 C 320.92 1.07922 1.5406 0
M  V30 3312 O 320.278 0.0635775 1.81188 0
M  V30 3313 C 320.326 3.47175 0.974761 0
M  V30 3314 O 319.43 3.55671 2.08739 0
M  V30 3315 H 318.771 0.655862 0.103638 0
M  V30 3316 H 321.301 2.02201 -0.312381 0
M  V30 3317 H 321.311 3.87067 1.2901 0
M  V30 3318 H 319.986 4.15538 0.17347 0
M  V30 3319 H 318.563 3.27657 1.78032 0
M  V30 3320 N 320.748 -0.0735177 1.57428 0
M  V30 3321 C 321.994 -0.774145 1.87443 0
M  V30 3322 C 322.327 -1.77311 0.792103 0
M  V30 3323 O 321.602 -1.93492 -0.197793 0
M  V30 3324 C 321.885 -1.48367 3.28115 0
M  V30 3325 C 321.738 -0.501227 4.46999 0
M  V30 3326 C 323.057 -2.429 3.66998 0
M  V30 3327 H 320.176 -0.279971 0.681752 0
M  V30 3328 H 322.818 -0.0373616 1.89963 0
M  V30 3329 H 320.968 -2.11171 3.26097 0
M  V30 3330 H 322.64 0.121468 4.6114 0
M  V30 3331 H 320.883 0.183593 4.33411 0
M  V30 3332 H 321.554 -1.03526 5.42205 0
M  V30 3333 H 324.03 -1.90175 3.70098 0
M  V30 3334 H 322.906 -2.89549 4.66318 0
M  V30 3335 H 323.167 -3.27628 2.96837 0
M  V30 3336 N 322.226 -1.5378 -0.344866 0
M  V30 3337 C 323.456 -1.74646 -1.10374 0
M  V30 3338 C 323.864 -0.48491 -1.8288 0
M  V30 3339 O 323.207 0.553062 -1.75177 0
M  V30 3340 C 323.269 -2.87145 -2.16306 0
M  V30 3341 C 322.933 -4.26795 -1.63386 0
M  V30 3342 C 323.93 -5.08412 -1.08688 0
M  V30 3343 C 321.615 -4.73276 -1.68272 0
M  V30 3344 C 323.609 -6.34609 -0.595792 0
M  V30 3345 C 321.296 -5.99446 -1.18776 0
M  V30 3346 C 322.294 -6.79946 -0.645215 0
M  V30 3347 O 321.982 -8.03745 -0.157626 0
M  V30 3348 H 321.714 -0.587112 -0.335075 0
M  V30 3349 H 324.268 -2.01403 -0.403252 0
M  V30 3350 H 322.498 -2.55909 -2.89909 0
M  V30 3351 H 324.187 -2.95992 -2.77747 0
M  V30 3352 H 324.953 -4.73666 -1.04236 0
M  V30 3353 H 320.832 -4.10677 -2.09442 0
M  V30 3354 H 324.376 -6.97389 -0.171654 0
M  V30 3355 H 320.273 -6.33687 -1.22928 0
M  V30 3356 H 321.041 -8.18038 -0.275037 0
M  V30 3357 N 323.704 0.605807 -1.45491 0
M  V30 3358 C 324.932 1.39136 -1.5313 0
M  V30 3359 C 325.347 1.88082 -0.164507 0
M  V30 3360 O 324.704 1.62316 0.834247 0
M  V30 3361 C 324.755 2.59463 -2.51716 0
M  V30 3362 O 324.476 2.12551 -3.83084 0
M  V30 3363 C 325.977 3.52301 -2.6907 0
M  V30 3364 H 323.197 0.425849 -0.51855 0
M  V30 3365 H 325.741 0.73865 -1.90694 0
M  V30 3366 H 323.896 3.20772 -2.17219 0
M  V30 3367 H 324.31 2.90744 -4.36541 0
M  V30 3368 H 325.784 4.33271 -3.42024 0
M  V30 3369 H 326.261 4.02757 -1.75167 0
M  V30 3370 H 326.867 2.96845 -3.04571 0
M  V30 3371 N 325.182 1.32811 0.848464 0
M  V30 3372 C 326.459 1.14334 1.58704 0
M  V30 3373 C 326.839 -0.293948 2.09043 0
M  V30 3374 O 326.187 -1.29153 1.88499 0
M  V30 3375 C 326.397 2.17626 2.72837 0
M  V30 3376 C 327.745 2.51282 3.42261 0
M  V30 3377 O 328.769 2.16219 2.83068 0
M  V30 3378 O 327.628 3.11413 4.49093 0
M  V30 3379 H 324.722 0.441601 0.699226 0
M  V30 3380 H 327.268 1.44362 0.892053 0
M  V30 3381 H 326.04 3.14211 2.3321 0
M  V30 3382 H 325.663 1.88628 3.50008 0
M  V30 3383 N 326.66 -1.06551 1.16123 0
M  V30 3384 C 327.937 -1.76097 0.85142 0
M  V30 3385 C 328.317 -2.00802 -0.6513 0
M  V30 3386 O 327.665 -1.63302 -1.59827 0
M  V30 3387 C 327.875 -3.06384 1.67122 0
M  V30 3388 C 329.223 -3.80585 1.88255 0
M  V30 3389 O 330.247 -3.16218 1.63966 0
M  V30 3390 O 329.106 -4.96212 2.2899 0
M  V30 3391 H 326.2 -0.765102 0.313923 0
M  V30 3392 H 328.746 -1.12844 1.26745 0
M  V30 3393 H 327.518 -2.84071 2.69108 0
M  V30 3394 H 327.141 -3.77371 1.25206 0
M  V30 3395 N 328.138 -0.959301 -1.25041 0
M  V30 3396 C 329.088 -0.453888 -2.23436 0
M  V30 3397 C 330.072 0.459461 -1.542 0
M  V30 3398 O 331.264 0.291752 -1.74579 0
M  V30 3399 C 328.393 0.262667 -3.42294 0
M  V30 3400 C 327.479 -0.669022 -4.1879 0
M  V30 3401 N 327.87 -1.80267 -4.72586 0
M  V30 3402 C 326.168 -0.47814 -4.4343 0
M  V30 3403 C 326.869 -2.38475 -5.3057 0
M  V30 3404 N 325.845 -1.67078 -5.17287 0
M  V30 3405 H 329.647 -1.319 -2.6264 0
M  V30 3406 H 327.161 -0.817358 -1.40332 0
M  V30 3407 H 329.158 0.641911 -4.11929 0
M  V30 3408 H 327.818 1.12432 -3.04613 0
M  V30 3409 H 328.829 -2.18442 -4.69578 0
M  V30 3410 H 325.506 0.340249 -4.16111 0
M  V30 3411 H 326.896 -3.34094 -5.8295 0
M  V30 3412 N 329.616 1.39756 -0.72842 0
M  V30 3413 C 330.526 2.34444 -0.0855374 0
M  V30 3414 C 331.542 1.57976 0.729356 0
M  V30 3415 O 332.718 1.90301 0.659346 0
M  V30 3416 C 329.783 3.36965 0.815798 0
M  V30 3417 C 328.844 4.29299 -0.0105996 0
M  V30 3418 C 328.077 5.26923 0.84781 0
M  V30 3419 O 328.3 5.30859 2.08673 0
M  V30 3420 O 327.234 6.01249 0.279969 0
M  V30 3421 H 331.06 2.91065 -0.866892 0
M  V30 3422 H 328.645 1.4117 -0.48902 0
M  V30 3423 H 330.527 3.99804 1.33171 0
M  V30 3424 H 329.202 2.82739 1.57608 0
M  V30 3425 H 328.109 3.69703 -0.571877 0
M  V30 3426 H 329.442 4.86712 -0.73295 0
M  V30 3427 N 331.094 0.475555 1.50254 0
M  V30 3428 C 332.51 0.12997 1.5907 0
M  V30 3429 C 332.71 -1.36385 1.48328 0
M  V30 3430 O 331.766 -2.13754 1.34407 0
M  V30 3431 C 333.079 0.684139 2.92814 0
M  V30 3432 C 334.627 0.647965 3.0622 0
M  V30 3433 C 335.102 1.17975 4.42545 0
M  V30 3434 N 336.593 1.13936 4.48969 0
M  V30 3435 C 337.328 1.52129 5.52851 0
M  V30 3436 N 336.824 1.97793 6.63965 0
M  V30 3437 N 338.617 1.43704 5.4342 0
M  V30 3438 H 330.768 1.44706 1.55479 0
M  V30 3439 H 333.031 0.598691 0.735033 0
M  V30 3440 H 332.737 1.73079 3.06164 0
M  V30 3441 H 332.611 0.130204 3.76975 0
M  V30 3442 H 334.998 -0.38979 2.92514 0
M  V30 3443 H 335.079 1.23876 2.23805 0
M  V30 3444 H 334.723 2.21616 4.57 0
M  V30 3445 H 334.653 0.565138 5.23559 0
M  V30 3446 H 337.144 0.804488 3.69238 0
M  V30 3447 H 337.457 2.25072 7.39299 0
M  V30 3448 H 335.802 2.01749 6.65073 0
M  V30 3449 H 338.993 1.07867 4.55502 0
M  V30 3450 H 339.166 1.73794 6.24259 0
M  V30 3451 N 332.573 -1.56217 0.208337 0
M  V30 3452 C 333.821 -1.97558 -0.426076 0
M  V30 3453 C 334.142 -1.09683 -1.61229 0
M  V30 3454 O 333.412 -0.170956 -1.95153 0
M  V30 3455 H 331.992 -0.729575 -0.160405 0
M  V30 3456 H 334.654 -1.92606 0.298155 0
M  V30 3457 H 333.75 -3.02672 -0.761312 0
M  V30 3458 N 334.051 0.0651679 -1.57465 0
M  V30 3459 C 335.467 0.420105 -1.53972 0
M  V30 3460 C 335.667 1.78782 -0.929474 0
M  V30 3461 O 334.723 2.46771 -0.534839 0
M  V30 3462 C 336.036 0.355084 -2.98596 0
M  V30 3463 C 337.584 0.434792 -3.09965 0
M  V30 3464 C 338.059 0.399609 -4.56253 0
M  V30 3465 N 339.55 0.459488 -4.60915 0
M  V30 3466 C 340.285 0.454584 -5.71595 0
M  V30 3467 N 339.781 0.404102 -6.9162 0
M  V30 3468 N 341.574 0.501635 -5.59857 0
M  V30 3469 H 333.725 -0.830328 -1.95498 0
M  V30 3470 H 335.988 -0.312244 -0.895102 0
M  V30 3471 H 335.694 -0.583357 -3.46828 0
M  V30 3472 H 335.568 1.16275 -3.58831 0
M  V30 3473 H 337.955 1.36366 -2.61703 0
M  V30 3474 H 338.036 -0.40157 -2.52628 0
M  V30 3475 H 337.68 -0.525436 -5.05175 0
M  V30 3476 H 337.61 1.25359 -5.11461 0
M  V30 3477 H 340.101 0.502482 -3.74544 0
M  V30 3478 H 340.414 0.404468 -7.71741 0
M  V30 3479 H 338.759 0.37069 -6.94011 0
M  V30 3480 H 341.95 0.538812 -4.64989 0
M  V30 3481 H 342.123 0.494345 -6.46112 0
M  V30 3482 N 335.529 1.53961 0.336706 0
M  V30 3483 C 336.492 1.81724 1.39675 0
M  V30 3484 C 337.492 0.688532 1.45313 0
M  V30 3485 O 338.682 0.956829 1.45569 0
M  V30 3486 C 335.814 1.96543 2.78538 0
M  V30 3487 H 337.007 2.76424 1.16318 0
M  V30 3488 H 334.56 1.45478 0.571474 0
M  V30 3489 H 335.295 1.0401 3.07168 0
M  V30 3490 H 335.08 2.78665 2.75841 0
M  V30 3491 H 336.57 2.19516 3.5525 0
M  V30 3492 N 337.007 -0.598083 1.45811 0
M  V30 3493 C 337.94 -1.7223 1.49706 0
M  V30 3494 C 338.918 -1.58732 0.352535 0
M  V30 3495 O 340.102 -1.80162 0.554438 0
M  V30 3496 C 337.229 -3.10148 1.3611 0
M  V30 3497 C 336.275 -3.42209 2.54549 0
M  V30 3498 S 337.108 -3.35989 4.16979 0
M  V30 3499 C 338.264 -4.76471 4.05865 0
M  V30 3500 H 338.497 -1.68665 2.44826 0
M  V30 3501 H 336.03 -0.775541 1.33509 0
M  V30 3502 H 337.988 -3.8972 1.28953 0
M  V30 3503 H 336.649 -3.11219 0.424451 0
M  V30 3504 H 335.842 -4.42652 2.40988 0
M  V30 3505 H 335.444 -2.70173 2.58617 0
M  V30 3506 H 337.736 -5.665 3.71596 0
M  V30 3507 H 338.679 -4.95089 5.06253 0
M  V30 3508 H 339.087 -4.52599 3.37364 0
M  V30 3509 N 338.485 -1.33259 -0.841409 0
M  V30 3510 C 339.733 -1.24326 -1.59334 0
M  V30 3511 C 340.054 0.191564 -1.94057 0
M  V30 3512 O 339.324 1.11967 -1.60749 0
M  V30 3513 H 337.904 -0.457174 -0.590763 0
M  V30 3514 H 340.566 -1.66947 -1.00571 0
M  V30 3515 H 339.662 -1.8352 -2.52442 0
M  V30 3516 N 339.963 1.05934 -1.16686 0
M  V30 3517 C 341.191 1.8249 -0.974929 0
M  V30 3518 C 341.606 1.82679 0.476861 0
M  V30 3519 O 340.963 1.2486 1.33103 0
M  V30 3520 C 341.014 3.28943 -1.49929 0
M  V30 3521 O 340.735 3.28886 -2.89423 0
M  V30 3522 C 342.236 4.22215 -1.35089 0
M  V30 3523 H 339.456 0.575295 -0.345365 0
M  V30 3524 H 342 1.33631 -1.548 0
M  V30 3525 H 340.155 3.751 -0.968423 0
M  V30 3526 H 340.569 4.20493 -3.13506 0
M  V30 3527 H 342.043 5.22987 -1.76603 0
M  V30 3528 H 342.52 4.38195 -0.296935 0
M  V30 3529 H 343.126 3.81907 -1.87155 0
M  V30 3530 N 341.441 0.965919 1.2453 0
M  V30 3531 C 342.404 0.499547 2.2369 0
M  V30 3532 C 343.404 -0.40294 1.5567 0
M  V30 3533 O 344.594 -0.19865 1.73064 0
M  V30 3534 C 341.726 -0.276792 3.39774 0
M  V30 3535 H 342.919 1.37613 2.66463 0
M  V30 3536 H 340.472 0.750324 1.37112 0
M  V30 3537 H 341.207 -1.17055 3.02438 0
M  V30 3538 H 340.992 0.370826 3.90343 0
M  V30 3539 H 342.482 -0.592175 4.1338 0
M  V30 3540 N 342.919 -1.39368 0.735821 0
M  V30 3541 C 343.849 -2.33234 0.111506 0
M  V30 3542 C 344.83 -1.53954 -0.723334 0
M  V30 3543 O 346.015 -1.82344 -0.668147 0
M  V30 3544 C 343.145 -3.38057 -0.795917 0
M  V30 3545 C 342.099 -4.2795 -0.065172 0
M  V30 3546 C 341.425 -5.23479 -1.08967 0
M  V30 3547 C 342.725 -5.10741 1.09273 0
M  V30 3548 H 344.419 -2.85692 0.895571 0
M  V30 3549 H 341.965 -1.37364 0.432109 0
M  V30 3550 H 343.918 -4.02675 -1.24221 0
M  V30 3551 H 342.642 -2.8404 -1.61211 0
M  V30 3552 H 341.301 -3.64813 0.361511 0
M  V30 3553 H 340.949 -4.65758 -1.89944 0
M  V30 3554 H 340.649 -5.84472 -0.605489 0
M  V30 3555 H 342.173 -5.90974 -1.53565 0
M  V30 3556 H 343.587 -5.68699 0.724841 0
M  V30 3557 H 341.984 -5.8088 1.50659 0
M  V30 3558 H 343.054 -4.45525 1.91404 0
M  V30 3559 N 344.397 -0.483516 -1.5 0
M  V30 3560 C 345.645 0.067027 -2.01989 0
M  V30 3561 C 345.966 1.3909 -1.36671 0
M  V30 3562 O 345.236 1.88978 -0.516152 0
M  V30 3563 H 343.816 0.0277606 -0.746484 0
M  V30 3564 H 346.478 -0.636773 -1.84204 0
M  V30 3565 H 345.574 0.209484 -3.11396 0
M  V30 3566 N 345.875 1.56104 -0.216619 0
M  V30 3567 C 347.123 1.97781 0.415593 0
M  V30 3568 C 347.444 1.10536 1.60645 0
M  V30 3569 O 346.714 0.181303 1.95059 0
M  V30 3570 H 345.294 0.730415 0.156534 0
M  V30 3571 H 347.956 1.92445 -0.308366 0
M  V30 3572 H 347.052 3.03072 0.74525 0
M  V30 3573 N 347.353 -0.0568162 1.57498 0
M  V30 3574 C 348.283 -1.06593 2.0775 0
M  V30 3575 C 349.264 -1.39448 0.974082 0
M  V30 3576 O 350.449 -1.48815 1.24771 0
M  V30 3577 C 347.579 -2.37509 2.5339 0
M  V30 3578 C 346.533 -2.1897 3.67745 0
M  V30 3579 C 345.859 -3.55402 3.99492 0
M  V30 3580 C 347.159 -1.59859 4.97235 0
M  V30 3581 H 348.853 -0.647706 2.9231 0
M  V30 3582 H 346.399 -0.310116 1.40621 0
M  V30 3583 H 348.352 -3.08409 2.87162 0
M  V30 3584 H 347.076 -2.8134 1.65878 0
M  V30 3585 H 345.735 -1.50508 3.3428 0
M  V30 3586 H 345.383 -3.9683 3.09088 0
M  V30 3587 H 345.083 -3.43831 4.76502 0
M  V30 3588 H 346.607 -4.27708 4.35773 0
M  V30 3589 H 348.021 -2.20642 5.29141 0
M  V30 3590 H 346.418 -1.58942 5.78669 0
M  V30 3591 H 347.488 -0.561506 4.81638 0
M  V30 3592 N 348.832 -1.54138 -0.328536 0
M  V30 3593 C 349.795 -1.82462 -1.38709 0
M  V30 3594 C 350.795 -0.696229 -1.44946 0
M  V30 3595 O 351.985 -0.964535 -1.4506 0
M  V30 3596 C 349.117 -1.98018 -2.77492 0
M  V30 3597 H 350.31 -2.77037 -1.14851 0
M  V30 3598 H 347.863 -1.45779 -0.563751 0
M  V30 3599 H 348.598 -1.05637 -3.06613 0
M  V30 3600 H 348.383 -2.80124 -2.74359 0
M  V30 3601 H 349.873 -2.21396 -3.54081 0
M  V30 3602 N 350.31 0.590341 -1.46126 0
M  V30 3603 C 351.24 1.71032 -1.58966 0
M  V30 3604 C 352.221 1.64302 -0.440335 0
M  V30 3605 O 353.406 1.82436 -0.665634 0
M  V30 3606 C 350.536 3.09665 -1.57241 0
M  V30 3607 C 349.49 3.31221 -2.71066 0
M  V30 3608 C 348.816 4.70303 -2.54399 0
M  V30 3609 C 350.116 3.19796 -4.1295 0
M  V30 3610 H 351.81 1.60543 -2.52718 0
M  V30 3611 H 349.356 0.770933 -1.21625 0
M  V30 3612 H 351.309 3.87831 -1.64819 0
M  V30 3613 H 350.033 3.21036 -0.600289 0
M  V30 3614 H 348.692 2.55452 -2.62944 0
M  V30 3615 H 348.34 4.78429 -1.55288 0
M  V30 3616 H 348.04 4.85679 -3.30741 0
M  V30 3617 H 349.564 5.50647 -2.63857 0
M  V30 3618 H 350.978 3.87815 -4.22223 0
M  V30 3619 H 349.375 3.46696 -4.89818 0
M  V30 3620 H 350.445 2.16983 -4.33643 0
M  V30 3621 N 351.788 1.33704 0.83433 0
M  V30 3622 C 353.036 1.25169 1.58673 0
M  V30 3623 C 353.357 -0.18127 1.94156 0
M  V30 3624 O 352.627 -1.11113 1.6134 0
M  V30 3625 H 351.207 0.4603 0.58833 0
M  V30 3626 H 353.869 1.67478 0.996847 0
M  V30 3627 H 352.965 1.84856 2.51465 0
M  V30 3628 N 353.266 -1.05314 1.17247 0
M  V30 3629 C 354.196 -2.1498 0.911362 0
M  V30 3630 C 355.177 -1.69471 -0.146169 0
M  V30 3631 O 356.362 -1.942 0.003812 0
M  V30 3632 C 353.492 -3.4472 0.422528 0
M  V30 3633 C 352.446 -4.03789 1.4191 0
M  V30 3634 C 351.772 -5.28858 0.788274 0
M  V30 3635 C 353.072 -4.41418 2.7919 0
M  V30 3636 H 354.766 -2.3708 1.82848 0
M  V30 3637 H 352.312 -1.13938 0.880569 0
M  V30 3638 H 354.265 -4.20787 0.227289 0
M  V30 3639 H 352.989 -3.22269 -0.530123 0
M  V30 3640 H 351.648 -3.2979 1.60106 0
M  V30 3641 H 351.296 -5.02709 -0.171173 0
M  V30 3642 H 350.996 -5.69338 1.45353 0
M  V30 3643 H 352.52 -6.07612 0.603282 0
M  V30 3644 H 353.934 -5.08524 2.64719 0
M  V30 3645 H 352.331 -4.92913 3.42282 0
M  V30 3646 H 353.401 -3.51819 3.33693 0
M  V30 3647 N 354.744 -0.972509 -1.24016 0
M  V30 3648 C 355.674 -0.525548 -2.27509 0
M  V30 3649 C 356.655 0.437262 -1.64384 0
M  V30 3650 O 357.84 0.332343 -1.91335 0
M  V30 3651 C 354.97 0.180448 -3.46831 0
M  V30 3652 C 353.924 -0.698859 -4.22256 0
M  V30 3653 C 353.25 0.138903 -5.3452 0
M  V30 3654 C 354.55 -1.98582 -4.83076 0
M  V30 3655 H 356.244 -1.39058 -2.65148 0
M  V30 3656 H 353.79 -0.67009 -1.27459 0
M  V30 3657 H 355.743 0.504387 -4.18371 0
M  V30 3658 H 354.467 1.07987 -3.08231 0
M  V30 3659 H 353.126 -1.00614 -3.52523 0
M  V30 3660 H 352.774 1.03862 -4.9216 0
M  V30 3661 H 352.474 -0.446259 -5.85903 0
M  V30 3662 H 353.998 0.457404 -6.08884 0
M  V30 3663 H 355.412 -1.72715 -5.46665 0
M  V30 3664 H 353.809 -2.5181 -5.44713 0
M  V30 3665 H 354.879 -2.67769 -4.04262 0
M  V30 3666 N 356.222 1.38976 -0.743202 0
M  V30 3667 C 357.468 2.0064 -0.295189 0
M  V30 3668 C 357.801 1.5885 1.11716 0
M  V30 3669 O 357.076 0.821181 1.76315 0
M  V30 3670 C 357.359 3.578 -0.406318 0
M  V30 3671 C 357.212 4.09586 -1.85903 0
M  V30 3672 C 358.531 4.39616 0.206439 0
M  V30 3673 H 355.65 0.728935 -0.108733 0
M  V30 3674 H 358.292 1.65067 -0.940897 0
M  V30 3675 H 356.442 3.88235 0.143419 0
M  V30 3676 H 358.114 3.89837 -2.46627 0
M  V30 3677 H 356.357 3.6284 -2.3776 0
M  V30 3678 H 357.028 5.18708 -1.888 0
M  V30 3679 H 359.504 4.15273 -0.262283 0
M  V30 3680 H 358.38 5.48812 0.0983819 0
M  V30 3681 H 358.641 4.22754 1.2935 0
M  V30 3682 N 357.7 0.491464 1.49741 0
M  V30 3683 C 358.948 -0.0563141 2.02022 0
M  V30 3684 C 359.269 -1.38363 1.37407 0
M  V30 3685 O 358.539 -1.88702 0.526166 0
M  V30 3686 H 357.119 -0.0238014 0.746621 0
M  V30 3687 H 359.781 0.646533 1.83864 0
M  V30 3688 H 358.877 -0.192967 3.11503 0
M  V30 3689 N 359.178 -1.55987 0.224894 0
M  V30 3690 C 360.141 -2.19178 -0.670348 0
M  V30 3691 C 361.141 -1.15461 -1.11917 0
M  V30 3692 O 362.331 -1.40675 -1.02743 0
M  V30 3693 C 359.463 -2.81777 -1.9187 0
M  V30 3694 H 360.656 -2.99662 -0.119364 0
M  V30 3695 H 358.209 -1.5628 -0.0247128 0
M  V30 3696 H 358.944 -2.05172 -2.51147 0
M  V30 3697 H 358.729 -3.57732 -1.60531 0
M  V30 3698 H 360.219 -3.30205 -2.55645 0
M  V30 3699 N 360.656 0.0484629 -1.57525 0
M  V30 3700 C 362.067 0.597486 -1.76881 0
M  V30 3701 C 362.418 1.76664 -0.853475 0
M  V30 3702 O 361.543 2.16357 -0.0433656 0
M  V30 3703 C 362.138 1.09066 -3.20765 0
M  V30 3704 C 360.697 1.58535 -3.41385 0
M  V30 3705 C 359.844 0.514868 -2.72478 0
M  V30 3706 H 362.795 -0.177758 -1.57701 0
M  V30 3707 H 362.816 1.95875 -3.2621 0
M  V30 3708 H 362.328 0.239521 -3.8736 0
M  V30 3709 H 360.429 2.45898 -2.79937 0
M  V30 3710 H 360.542 1.64622 -4.49929 0
M  V30 3711 H 358.906 0.965407 -2.35695 0
M  V30 3712 H 359.689 -0.32648 -3.41744 0
M  V30 3713 N 362.134 1.5431 0.320358 0
M  V30 3714 C 363.381 1.72668 1.05792 0
M  V30 3715 C 363.709 0.502084 1.87908 0
M  V30 3716 O 362.964 -0.516149 1.88771 0
M  V30 3717 C 363.263 2.95639 2.00828 0
M  V30 3718 C 362.929 4.30265 1.34843 0
M  V30 3719 C 361.591 4.66865 1.16578 0
M  V30 3720 C 363.943 5.13801 0.875095 0
M  V30 3721 C 361.271 5.84597 0.496336 0
M  V30 3722 C 363.623 6.32219 0.219463 0
M  V30 3723 C 362.287 6.67495 0.0246915 0
M  V30 3724 H 361.557 0.631837 0.387121 0
M  V30 3725 H 364.204 1.88552 0.334735 0
M  V30 3726 H 362.509 2.74456 2.79609 0
M  V30 3727 H 364.206 3.07038 2.57932 0
M  V30 3728 H 360.796 4.01472 1.50061 0
M  V30 3729 H 364.98 4.86039 1.00398 0
M  V30 3730 H 360.236 6.10486 0.334264 0
M  V30 3731 H 364.41 6.96227 -0.155291 0
M  V30 3732 H 362.037 7.5858 -0.496065 0
M  V30 3733 N 363.613 -0.582584 1.46437 0
M  V30 3734 C 364.861 -1.33814 1.51453 0
M  V30 3735 C 365.182 -1.94277 0.167792 0
M  V30 3736 O 364.452 -1.78566 -0.805677 0
M  V30 3737 H 363.032 -0.496838 0.557818 0
M  V30 3738 H 365.694 -0.682281 1.82568 0
M  V30 3739 H 364.79 -2.14479 2.26728 0
M  V30 3740 N 365.091 -1.34144 -0.827227 0
M  V30 3741 C 366.316 -1.29476 -1.62021 0
M  V30 3742 C 366.741 0.129292 -1.87655 0
M  V30 3743 O 366.099 1.08967 -1.449 0
M  V30 3744 C 366.147 -2.08702 -2.94068 0
M  V30 3745 O 365.251 -1.45359 -3.85933 0
M  V30 3746 H 364.592 -0.444881 -0.492927 0
M  V30 3747 H 367.122 -1.76882 -1.02829 0
M  V30 3748 H 367.132 -2.19898 -3.43669 0
M  V30 3749 H 365.807 -3.12241 -2.74734 0
M  V30 3750 H 364.384 -1.42879 -3.44442 0
M  V30 3751 N 366.569 1.04691 -1.17803 0
M  V30 3752 C 367.815 1.78045 -0.970969 0
M  V30 3753 C 368.148 1.87686 0.498751 0
M  V30 3754 O 367.423 1.38035 1.37027 0
M  V30 3755 C 367.706 3.2166 -1.61884 0
M  V30 3756 C 367.559 3.20001 -3.161 0
M  V30 3757 C 368.878 4.1962 -1.3269 0
M  V30 3758 H 365.997 0.64633 -0.354155 0
M  V30 3759 H 368.639 1.22333 -1.45378 0
M  V30 3760 H 366.789 3.69232 -1.20831 0
M  V30 3761 H 368.461 2.80467 -3.66246 0
M  V30 3762 H 366.704 2.58203 -3.48588 0
M  V30 3763 H 367.375 4.21386 -3.56564 0
M  V30 3764 H 369.851 3.80567 -1.68249 0
M  V30 3765 H 368.727 5.18339 -1.80599 0
M  V30 3766 H 368.988 4.414 -0.248622 0
M  V30 3767 N 368.047 0.979072 1.23499 0
M  V30 3768 C 368.98 0.463027 2.23453 0
M  V30 3769 C 369.958 -0.469128 1.55685 0
M  V30 3770 O 371.142 -0.397882 1.84253 0
M  V30 3771 C 368.269 -0.330308 3.37086 0
M  V30 3772 C 367.315 0.545795 4.22993 0
M  V30 3773 S 368.148 1.99285 4.97037 0
M  V30 3774 C 369.304 1.20862 6.1412 0
M  V30 3775 H 369.537 1.31005 2.6688 0
M  V30 3776 H 367.07 0.784965 1.32957 0
M  V30 3777 H 369.028 -0.782027 4.02982 0
M  V30 3778 H 367.689 -1.15244 2.92194 0
M  V30 3779 H 366.882 -0.0638928 5.03959 0
M  V30 3780 H 366.484 0.933705 3.62157 0
M  V30 3781 H 368.776 0.469284 6.75873 0
M  V30 3782 H 369.719 1.99307 6.79472 0
M  V30 3783 H 370.127 0.727992 5.59786 0
M  V30 3784 N 369.525 -1.3858 0.750561 0
M  V30 3785 C 370.755 -2.04175 0.31564 0
M  V30 3786 C 371.163 -1.56726 -1.05989 0
M  V30 3787 O 370.506 -0.734225 -1.68389 0
M  V30 3788 C 370.568 -3.58585 0.256389 0
M  V30 3789 C 370.232 -4.29077 1.57296 0
M  V30 3790 C 371.229 -4.54656 2.52159 0
M  V30 3791 C 368.914 -4.67324 1.84156 0
M  V30 3792 C 370.908 -5.17512 3.72103 0
M  V30 3793 C 368.595 -5.29905 3.04374 0
M  V30 3794 C 369.593 -5.54933 3.98168 0
M  V30 3795 O 369.281 -6.16212 5.16273 0
M  V30 3796 H 369.013 -0.662742 0.133226 0
M  V30 3797 H 371.567 -1.78313 1.01948 0
M  V30 3798 H 369.797 -3.83406 -0.503677 0
M  V30 3799 H 371.486 -4.05628 -0.148612 0
M  V30 3800 H 372.252 -4.25539 2.32683 0
M  V30 3801 H 368.131 -4.47191 1.11988 0
M  V30 3802 H 371.675 -5.36963 4.45327 0
M  V30 3803 H 367.572 -5.58444 3.23745 0
M  V30 3804 H 368.34 -6.34701 5.16815 0
M  V30 3805 N 371.003 -0.499398 -1.49478 0
M  V30 3806 C 371.913 0.284489 -2.32869 0
M  V30 3807 C 372.929 0.968885 -1.44529 0
M  V30 3808 O 374.105 0.95062 -1.77553 0
M  V30 3809 C 371.17 1.33594 -3.19928 0
M  V30 3810 C 370.231 0.665149 -4.24116 0
M  V30 3811 C 369.464 1.6665 -5.07014 0
M  V30 3812 O 369.687 2.89618 -4.91404 0
M  V30 3813 O 368.621 1.22271 -5.8935 0
M  V30 3814 H 372.447 -0.39802 -3.01081 0
M  V30 3815 H 370.032 -0.260758 -1.47107 0
M  V30 3816 H 371.914 1.94431 -3.73864 0
M  V30 3817 H 370.589 2.0014 -2.54412 0
M  V30 3818 H 369.496 0.0170769 -3.74096 0
M  V30 3819 H 370.829 0.0421555 -4.92182 0
M  V30 3820 N 372.481 1.55866 -0.233164 0
M  V30 3821 C 373.728 1.98603 0.395374 0
M  V30 3822 C 374.056 1.12105 1.58942 0
M  V30 3823 O 373.311 0.168656 1.94972 0
M  V30 3824 C 373.61 3.46856 0.861724 0
M  V30 3825 C 373.276 4.50348 -0.223066 0
M  V30 3826 C 371.938 4.78371 -0.521038 0
M  V30 3827 C 374.29 5.12355 -0.956124 0
M  V30 3828 C 371.618 5.6568 -1.55638 0
M  V30 3829 C 373.97 6.00786 -1.98089 0
M  V30 3830 C 372.634 6.27148 -2.28565 0
M  V30 3831 H 371.904 0.726739 0.144677 0
M  V30 3832 H 374.551 1.88491 -0.338114 0
M  V30 3833 H 372.856 3.5423 1.67418 0
M  V30 3834 H 374.553 3.77302 1.35809 0
M  V30 3835 H 371.143 4.28596 0.0193234 0
M  V30 3836 H 375.327 4.90765 -0.739166 0
M  V30 3837 H 370.583 5.84365 -1.798 0
M  V30 3838 H 374.757 6.4788 -2.55391 0
M  V30 3839 H 372.384 6.94597 -3.08932 0
M  V30 3840 N 373.959 -0.0401083 1.57549 0
M  V30 3841 C 375.205 -0.734211 1.89043 0
M  V30 3842 C 375.538 -1.75591 0.829535 0
M  V30 3843 O 374.813 -1.93868 -0.156706 0
M  V30 3844 C 375.096 -1.41374 3.31188 0
M  V30 3845 C 374.949 -0.406299 4.47961 0
M  V30 3846 C 376.268 -2.35061 3.72068 0
M  V30 3847 H 373.387 -0.265447 0.687537 0
M  V30 3848 H 376.029 0.00294087 1.9 0
M  V30 3849 H 374.179 -2.04206 3.30503 0
M  V30 3850 H 375.851 0.219255 4.60779 0
M  V30 3851 H 374.094 0.275485 4.32924 0
M  V30 3852 H 374.765 -0.920022 5.44279 0
M  V30 3853 H 377.241 -1.82282 3.74049 0
M  V30 3854 H 376.117 -2.79593 4.72355 0
M  V30 3855 H 376.378 -3.21258 3.0372 0
M  V30 3856 N 375.437 -1.54477 -0.31217 0
M  V30 3857 C 376.685 -1.72884 -1.04668 0
M  V30 3858 C 377.006 -0.511477 -1.88173 0
M  V30 3859 O 376.276 0.474407 -1.90069 0
M  V30 3860 H 374.856 -0.637461 -0.389425 0
M  V30 3861 H 377.518 -1.91807 -0.345852 0
M  V30 3862 H 376.614 -2.61334 -1.70619 0
M  V30 3863 N 376.915 0.57481 -1.46744 0
M  V30 3864 C 377.862 1.68329 -1.57905 0
M  V30 3865 C 378.832 1.60625 -0.422927 0
M  V30 3866 O 380.017 1.79721 -0.640711 0
M  V30 3867 C 377.157 3.06665 -1.58274 0
M  V30 3868 C 376.27 3.24935 -2.84678 0
M  V30 3869 C 375.405 4.53566 -2.76499 0
M  V30 3870 C 374.444 4.65207 -3.97806 0
M  V30 3871 N 373.581 5.85172 -3.87967 0
M  V30 3872 H 378.421 1.58127 -2.52587 0
M  V30 3873 H 375.958 0.770552 -1.25303 0
M  V30 3874 H 377.916 3.86745 -1.56473 0
M  V30 3875 H 376.546 3.15745 -0.671194 0
M  V30 3876 H 375.598 2.38405 -2.96424 0
M  V30 3877 H 376.91 3.29403 -3.7456 0
M  V30 3878 H 376.064 5.41885 -2.72848 0
M  V30 3879 H 374.803 4.51548 -1.8427 0
M  V30 3880 H 373.808 3.75304 -4.0178 0
M  V30 3881 H 375.033 4.68997 -4.9114 0
M  V30 3882 H 372.979 5.84137 -2.98529 0
M  V30 3883 H 372.896 5.90943 -4.71511 0
M  V30 3884 H 374.164 6.759 -3.88303 0
M  V30 3885 N 378.394 1.34581 0.820102 0
M  V30 3886 C 379.619 1.30333 1.61332 0
M  V30 3887 C 380.044 -0.119339 1.87721 0
M  V30 3888 O 379.402 -1.08197 1.45475 0
M  V30 3889 C 379.45 2.10258 2.92957 0
M  V30 3890 O 378.554 1.47404 3.85157 0
M  V30 3891 H 377.895 0.447488 0.490561 0
M  V30 3892 H 380.425 1.77425 1.01889 0
M  V30 3893 H 380.435 2.21718 3.42498 0
M  V30 3894 H 379.11 3.13693 2.73074 0
M  V30 3895 H 377.687 1.44703 3.43679 0
M  V30 3896 N 379.872 -1.04064 1.18357 0
M  V30 3897 C 380.835 -2.10243 0.912707 0
M  V30 3898 C 381.835 -1.60477 -0.101928 0
M  V30 3899 O 383.025 -1.73703 0.131517 0
M  V30 3900 C 380.157 -3.38893 0.369387 0
M  V30 3901 H 381.35 -2.35706 1.85426 0
M  V30 3902 H 378.903 -1.20489 0.995594 0
M  V30 3903 H 379.638 -3.19094 -0.578776 0
M  V30 3904 H 379.423 -3.76331 1.1008 0
M  V30 3905 H 380.913 -4.17128 0.198575 0
M  V30 3906 N 381.35 -0.985608 -1.22978 0
M  V30 3907 C 382.761 -0.693593 -1.73338 0
M  V30 3908 C 383.112 0.789935 -1.79595 0
M  V30 3909 O 382.237 1.61771 -1.43733 0
M  V30 3910 C 382.832 -1.25235 -3.14804 0
M  V30 3911 C 381.391 -1.00987 -3.626 0
M  V30 3912 C 380.538 -1.37695 -2.40698 0
M  V30 3913 H 383.489 -1.15884 -1.08428 0
M  V30 3914 H 383.51 -0.627329 -3.75293 0
M  V30 3915 H 383.022 -2.33209 -3.10218 0
M  V30 3916 H 381.123 0.0535565 -3.72562 0
M  V30 3917 H 381.236 -1.66812 -4.49122 0
M  V30 3918 H 379.6 -0.795459 -2.4196 0
M  V30 3919 H 380.383 -2.46657 -2.38779 0
M  V30 3920 N 382.828 1.3818 -0.7579 0
M  V30 3921 C 384.075 2.00019 -0.315985 0
M  V30 3922 C 384.403 1.60163 1.10355 0
M  V30 3923 O 383.658 0.83264 1.77103 0
M  V30 3924 C 383.957 3.55252 -0.391218 0
M  V30 3925 C 383.623 4.14834 -1.76702 0
M  V30 3926 C 382.285 4.30821 -2.14353 0
M  V30 3927 C 384.637 4.47658 -2.66931 0
M  V30 3928 C 381.965 4.76928 -3.41696 0
M  V30 3929 C 384.317 4.95184 -3.93669 0
M  V30 3930 C 382.981 5.09377 -4.31383 0
M  V30 3931 H 382.251 0.731923 -0.115627 0
M  V30 3932 H 384.898 1.65161 -0.969223 0
M  V30 3933 H 383.203 3.90273 0.34558 0
M  V30 3934 H 384.9 4.00988 -0.030805 0
M  V30 3935 H 381.49 4.02808 -1.46435 0
M  V30 3936 H 385.674 4.34904 -2.39106 0
M  V30 3937 H 380.93 4.86103 -3.70829 0
M  V30 3938 H 385.104 5.19551 -4.63724 0
M  V30 3939 H 382.731 5.44865 -5.30119 0
M  V30 3940 N 384.306 0.507319 1.49211 0
M  V30 3941 C 385.236 -0.256939 2.32082 0
M  V30 3942 C 386.217 -0.956609 1.40652 0
M  V30 3943 O 387.402 -0.946788 1.69557 0
M  V30 3944 C 384.532 -1.31802 3.21318 0
M  V30 3945 C 383.486 -0.737855 4.21592 0
M  V30 3946 C 382.812 -1.89992 4.99807 0
M  V30 3947 C 384.112 0.275325 5.21574 0
M  V30 3948 H 385.806 0.434798 2.96226 0
M  V30 3949 H 383.352 0.210546 1.42452 0
M  V30 3950 H 385.305 -1.86045 3.78107 0
M  V30 3951 H 384.029 -2.03903 2.5513 0
M  V30 3952 H 382.688 -0.217126 3.65956 0
M  V30 3953 H 382.336 -2.60877 4.30061 0
M  V30 3954 H 382.036 -1.51777 5.6766 0
M  V30 3955 H 383.56 -2.44657 5.59442 0
M  V30 3956 H 384.974 -0.179193 5.7302 0
M  V30 3957 H 383.371 0.573649 5.97352 0
M  V30 3958 H 384.441 1.18903 4.70096 0
M  V30 3959 N 385.784 -1.5574 0.241426 0
M  V30 3960 C 387.033 -1.97986 -0.385295 0
M  V30 3961 C 387.346 -1.13267 -1.59468 0
M  V30 3962 O 388.552 -1.45501 -2.2922 0
M  V30 3963 C 387.008 -3.52275 -0.736884 0
M  V30 3964 C 386.616 -4.45726 0.450796 0
M  V30 3965 C 388.36 -4.03189 -1.3281 0
M  V30 3966 C 386.267 -5.91352 0.0756662 0
M  V30 3967 H 385.197 -0.739386 -0.147731 0
M  V30 3968 H 387.848 -1.80308 0.340779 0
M  V30 3969 H 386.23 -3.65628 -1.52094 0
M  V30 3970 H 387.404 -4.44131 1.22819 0
M  V30 3971 H 385.719 -4.05264 0.956573 0
M  V30 3972 H 388.316 -5.09505 -1.62201 0
M  V30 3973 H 388.659 -3.50212 -2.25071 0
M  V30 3974 H 389.192 -3.93141 -0.607069 0
M  V30 3975 H 385.931 -6.48354 0.965272 0
M  V30 3976 H 385.451 -5.96095 -0.665635 0
M  V30 3977 H 387.13 -6.46084 -0.344075 0
M  V30 3978 N 387.262 0.0317525 -1.57568 0
M  V30 3979 C 388.192 1.03274 -2.0942 0
M  V30 3980 C 389.173 1.3788 -0.996143 0
M  V30 3981 O 390.358 1.46811 -1.27122 0
M  V30 3982 C 387.488 2.33448 -2.57137 0
M  V30 3983 C 386.442 2.13091 -3.71182 0
M  V30 3984 C 385.768 3.49001 -4.05095 0
M  V30 3985 C 387.068 1.51928 -4.99715 0
M  V30 3986 H 388.762 0.60112 -2.93303 0
M  V30 3987 H 386.308 0.287705 -1.41097 0
M  V30 3988 H 388.261 3.03802 -2.92032 0
M  V30 3989 H 386.985 2.78665 -1.70333 0
M  V30 3990 H 385.644 1.45171 -3.36632 0
M  V30 3991 H 385.292 3.91862 -3.15362 0
M  V30 3992 H 384.992 3.36207 -4.81911 0
M  V30 3993 H 386.516 4.20721 -4.42522 0
M  V30 3994 H 387.93 2.12196 -5.32584 0
M  V30 3995 H 386.327 1.49716 -5.81124 0
M  V30 3996 H 387.397 0.484811 -4.8247 0
M  V30 3997 N 388.74 1.54641 0.303973 0
M  V30 3998 C 389.703 1.84646 1.35789 0
M  V30 3999 C 390.703 0.7192 1.4382 0
M  V30 4000 O 391.893 0.987491 1.43507 0
M  V30 4001 C 389.025 2.02407 2.74307 0
M  V30 4002 H 390.218 2.78829 1.10429 0
M  V30 4003 H 387.771 1.46658 0.540487 0
M  V30 4004 H 388.506 1.10502 3.04893 0
M  V30 4005 H 388.291 2.84453 2.69868 0
M  V30 4006 H 389.781 2.27002 3.50514 0
M  V30 4007 N 390.218 -0.567019 1.47046 0
M  V30 4008 C 391.465 -1.32462 1.53167 0
M  V30 4009 C 391.793 -1.93571 0.189841 0
M  V30 4010 O 391.048 -1.77865 -0.816243 0
M  V30 4011 C 391.347 -2.4623 2.59047 0
M  V30 4012 C 391.013 -2.03014 4.02612 0
M  V30 4013 C 389.675 -1.90944 4.41694 0
M  V30 4014 C 392.027 -1.69895 4.92732 0
M  V30 4015 C 389.355 -1.44035 5.68745 0
M  V30 4016 C 391.707 -1.2446 6.20236 0
M  V30 4017 C 390.371 -1.10979 6.5821 0
M  V30 4018 H 389.641 -0.484713 0.560477 0
M  V30 4019 H 392.288 -0.636888 1.80599 0
M  V30 4020 H 390.593 -3.20517 2.25335 0
M  V30 4021 H 392.29 -3.04427 2.61008 0
M  V30 4022 H 388.88 -2.13348 3.71726 0
M  V30 4023 H 393.064 -1.78098 4.63244 0
M  V30 4024 H 388.32 -1.32254 5.96925 0
M  V30 4025 H 392.494 -0.978924 6.89485 0
M  V30 4026 H 390.121 -0.744078 7.5655 0
M  V30 4027 N 391.696 -1.35014 -0.812953 0
M  V30 4028 C 392.626 -1.30069 -1.93919 0
M  V30 4029 C 393.607 -0.176275 -1.69184 0
M  V30 4030 O 394.792 -0.370227 -1.90638 0
M  V30 4031 C 391.922 -1.06547 -3.30552 0
M  V30 4032 C 390.876 -2.15561 -3.69753 0
M  V30 4033 C 390.202 -1.77214 -5.04479 0
M  V30 4034 C 391.502 -3.57476 -3.808 0
M  V30 4035 H 393.196 -2.24303 -1.98314 0
M  V30 4036 H 390.742 -1.07977 -0.952736 0
M  V30 4037 H 392.695 -1.01729 -4.08937 0
M  V30 4038 H 391.419 -0.0875719 -3.26483 0
M  V30 4039 H 390.078 -2.19466 -2.9365 0
M  V30 4040 H 389.726 -0.780589 -4.96906 0
M  V30 4041 H 389.426 -2.50184 -5.31678 0
M  V30 4042 H 390.95 -1.7391 -5.8531 0
M  V30 4043 H 392.364 -3.55929 -4.4943 0
M  V30 4044 H 390.761 -4.29152 -4.19462 0
M  V30 4045 H 391.831 -3.94091 -2.82525 0
M  V30 4046 N 393.175 1.03435 -1.18907 0
M  V30 4047 C 394.138 2.09756 -0.923844 0
M  V30 4048 C 395.138 1.60528 0.093416 0
M  V30 4049 O 396.328 1.73631 -0.140727 0
M  V30 4050 C 393.46 3.38692 -0.387354 0
M  V30 4051 H 394.653 2.34719 -1.86674 0
M  V30 4052 H 392.206 1.19959 -1.00197 0
M  V30 4053 H 392.941 3.19396 0.561845 0
M  V30 4054 H 392.726 3.75742 -1.12074 0
M  V30 4055 H 394.216 4.17016 -0.220694 0
M  V30 4056 N 394.653 0.992116 1.22453 0
M  V30 4057 C 395.583 0.561677 2.26644 0
M  V30 4058 C 396.564 -0.411055 1.65059 0
M  V30 4059 O 397.749 -0.301861 1.9184 0
M  V30 4060 C 394.879 -0.125247 3.47074 0
M  V30 4061 C 393.833 0.765948 4.21091 0
M  V30 4062 C 393.159 -0.0538484 5.34673 0
M  V30 4063 C 394.459 2.06242 4.79856 0
M  V30 4064 H 396.153 1.43259 2.62902 0
M  V30 4065 H 393.699 0.690283 1.26377 0
M  V30 4066 H 395.652 -0.437764 4.1912 0
M  V30 4067 H 394.376 -1.03069 3.0991 0
M  V30 4068 H 393.035 1.0621 3.50878 0
M  V30 4069 H 392.683 -0.960188 4.9375 0
M  V30 4070 H 392.383 0.539415 5.85119 0
M  V30 4071 H 393.907 -0.360477 6.09535 0
M  V30 4072 H 395.321 1.8139 5.43848 0
M  V30 4073 H 393.718 2.60444 5.40638 0
M  V30 4074 H 394.788 2.74167 3.99951 0
M  V30 4075 N 396.131 -1.37776 0.765217 0
M  V30 4076 C 397.061 -2.32945 0.160953 0
M  V30 4077 C 398.042 -1.55454 -0.690516 0
M  V30 4078 O 399.227 -1.83721 -0.629318 0
M  V30 4079 C 396.357 -3.39669 -0.724031 0
M  V30 4080 C 395.311 -4.27992 0.0256173 0
M  V30 4081 C 394.637 -5.25673 -0.978383 0
M  V30 4082 C 395.937 -5.08309 1.20082 0
M  V30 4083 H 397.631 -2.83728 0.955969 0
M  V30 4084 H 395.177 -1.36416 0.461149 0
M  V30 4085 H 397.13 -4.05219 -1.15652 0
M  V30 4086 H 395.854 -2.87396 -1.5515 0
M  V30 4087 H 394.513 -3.63964 0.438812 0
M  V30 4088 H 394.161 -4.69682 -1.80022 0
M  V30 4089 H 393.861 -5.85625 -0.481378 0
M  V30 4090 H 395.385 -5.94098 -1.40995 0
M  V30 4091 H 396.799 -5.67034 0.845307 0
M  V30 4092 H 395.196 -5.77554 1.62947 0
M  V30 4093 H 396.266 -4.41365 2.00811 0
M  V30 4094 N 397.609 -0.515225 -1.4894 0
M  V30 4095 C 398.886 0.0879088 -1.95402 0
M  V30 4096 C 399.266 1.52745 -1.45712 0
M  V30 4097 O 398.614 2.18238 -0.677093 0
M  V30 4098 C 398.824 -0.0141055 -3.48997 0
M  V30 4099 C 400.172 0.152646 -4.24326 0
M  V30 4100 O 401.196 0.0604025 -3.56149 0
M  V30 4101 O 400.055 0.34384 -5.45417 0
M  V30 4102 H 397.149 0.0874636 -0.822362 0
M  V30 4103 H 399.695 -0.578775 -1.59525 0
M  V30 4104 H 398.467 -1.01745 -3.77841 0
M  V30 4105 H 398.09 0.692091 -3.9153 0
M  V30 4106 N 399.087 1.5561 -0.249682 0
M  V30 4107 C 400.335 1.98618 0.373548 0
M  V30 4108 C 400.656 1.13919 1.58264 0
M  V30 4109 O 399.926 0.222637 1.94631 0
M  V30 4110 H 398.506 0.733571 0.141006 0
M  V30 4111 H 401.168 1.91748 -0.349117 0
M  V30 4112 H 400.264 3.04584 0.680796 0
M  V30 4113 N 400.565 -0.0233959 1.57583 0
M  V30 4114 C 401.528 -1.00693 2.05897 0
M  V30 4115 C 402.528 -1.28693 0.964092 0
M  V30 4116 O 403.718 -1.23602 1.22753 0
M  V30 4117 C 400.85 -2.33825 2.4807 0
M  V30 4118 H 402.043 -0.589476 2.9405 0
M  V30 4119 H 399.596 -0.270354 1.53944 0
M  V30 4120 H 400.331 -2.80307 1.6309 0
M  V30 4121 H 400.116 -2.1483 3.2801 0
M  V30 4122 H 401.606 -3.04426 2.85857 0
M  V30 4123 N 402.043 -1.548 -0.295768 0
M  V30 4124 C 402.973 -1.89115 -1.36959 0
M  V30 4125 C 403.954 -0.75059 -1.52644 0
M  V30 4126 O 405.139 -1.00678 -1.66065 0
M  V30 4127 C 402.269 -2.14307 -2.73295 0
M  V30 4128 C 401.223 -3.30151 -2.72368 0
M  V30 4129 C 400.549 -3.40772 -4.12042 0
M  V30 4130 C 401.849 -4.67126 -2.33646 0
M  V30 4131 H 403.543 -2.79053 -1.08488 0
M  V30 4132 H 401.089 -1.34266 -0.520443 0
M  V30 4133 H 403.042 -2.36898 -3.48507 0
M  V30 4134 H 401.766 -1.21145 -3.03301 0
M  V30 4135 H 400.425 -3.0749 -1.99613 0
M  V30 4136 H 400.073 -2.45117 -4.39234 0
M  V30 4137 H 399.773 -4.18645 -4.12322 0
M  V30 4138 H 401.297 -3.6563 -4.89027 0
M  V30 4139 H 402.711 -4.89414 -2.98575 0
M  V30 4140 H 401.108 -5.47751 -2.45129 0
M  V30 4141 H 402.178 -4.67489 -1.28772 0
M  V30 4142 N 403.521 0.559213 -1.47345 0
M  V30 4143 C 404.453 1.68161 -1.55738 0
M  V30 4144 C 405.466 1.56636 -0.443744 0
M  V30 4145 O 406.655 1.6363 -0.713258 0
M  V30 4146 C 403.755 3.06611 -1.4437 0
M  V30 4147 C 402.928 3.4391 -2.70268 0
M  V30 4148 C 401.987 4.61515 -2.52765 0
M  V30 4149 O 401.013 4.66197 -3.26572 0
M  V30 4150 N 402.215 5.57883 -1.6046 0
M  V30 4151 H 404.98 1.61408 -2.52522 0
M  V30 4152 H 402.541 0.7458 -1.43699 0
M  V30 4153 H 404.533 3.83117 -1.30398 0
M  V30 4154 H 403.103 3.07602 -0.556766 0
M  V30 4155 H 402.323 2.56873 -2.99015 0
M  V30 4156 H 403.611 3.65605 -3.53851 0
M  V30 4157 H 403.009 5.56855 -0.996422 0
M  V30 4158 H 401.566 6.33723 -1.52441 0
M  V30 4159 N 404.999 1.35443 0.805782 0
M  V30 4160 C 405.929 1.31095 1.93226 0
M  V30 4161 C 406.91 0.185244 1.69088 0
M  V30 4162 O 408.095 0.380332 1.90439 0
M  V30 4163 C 405.225 1.08299 3.29983 0
M  V30 4164 C 404.179 2.17519 3.68605 0
M  V30 4165 C 403.505 1.79887 5.03532 0
M  V30 4166 C 404.805 3.5949 3.78898 0
M  V30 4167 H 406.499 2.25352 1.97122 0
M  V30 4168 H 404.045 1.0848 0.946996 0
M  V30 4169 H 405.998 1.03897 4.08391 0
M  V30 4170 H 404.722 0.104885 3.26432 0
M  V30 4171 H 403.381 2.2102 2.92482 0
M  V30 4172 H 403.029 0.80693 4.96485 0
M  V30 4173 H 402.729 2.53001 5.30344 0
M  V30 4174 H 404.253 1.77011 5.84379 0
M  V30 4175 H 405.667 3.58307 4.47536 0
M  V30 4176 H 404.064 4.31371 4.1718 0
M  V30 4177 H 405.134 3.95584 2.80431 0
M  V30 4178 N 406.477 -1.02803 1.19454 0
M  V30 4179 C 407.717 -1.77769 1.00883 0
M  V30 4180 C 408.081 -1.86596 -0.45233 0
M  V30 4181 O 409.282 -2.57895 -0.757877 0
M  V30 4182 C 407.553 -3.16486 1.66046 0
M  V30 4183 S 409.112 -4.07632 1.62424 0
M  V30 4184 H 405.93 -0.611949 0.361993 0
M  V30 4185 H 408.532 -1.23175 1.51816 0
M  V30 4186 H 407.236 -3.0768 2.7159 0
M  V30 4187 H 406.767 -3.76156 1.15196 0
M  V30 4188 H 408.782 -4.91937 0.64903 0
M  V30 4189 N 407.956 -0.998596 -1.21925 0
M  V30 4190 C 409.205 -0.673085 -1.90138 0
M  V30 4191 C 409.518 0.79895 -1.78539 0
M  V30 4192 O 410.724 1.23628 -2.4172 0
M  V30 4193 C 409.18 -1.15339 -3.40918 0
M  V30 4194 C 408.788 -2.65106 -3.61141 0
M  V30 4195 C 410.532 -0.902476 -4.14796 0
M  V30 4196 C 408.439 -3.0671 -5.05651 0
M  V30 4197 H 407.369 -0.248057 -0.712028 0
M  V30 4198 H 410.02 -1.20891 -1.38049 0
M  V30 4199 H 408.402 -0.545658 -3.92223 0
M  V30 4200 H 409.576 -3.31274 -3.20304 0
M  V30 4201 H 407.891 -2.88142 -3.00605 0
M  V30 4202 H 410.488 -1.18895 -5.21314 0
M  V30 4203 H 410.831 0.161349 -4.15987 0
M  V30 4204 H 411.364 -1.47269 -3.69536 0
M  V30 4205 H 408.103 -4.12292 -5.09603 0
M  V30 4206 H 407.623 -2.45249 -5.47369 0
M  V30 4207 H 409.302 -2.9833 -5.74115 0
M  V30 4208 N 409.434 1.37368 -0.772513 0
M  V30 4209 C 410.364 2.32856 -0.173304 0
M  V30 4210 C 411.345 1.55818 0.682262 0
M  V30 4211 O 412.53 1.84052 0.619566 0
M  V30 4212 C 409.66 3.40048 0.706007 0
M  V30 4213 C 408.614 4.27973 -0.0483144 0
M  V30 4214 C 407.94 5.26184 0.950491 0
M  V30 4215 C 409.24 5.07665 -1.22776 0
M  V30 4216 H 410.934 2.83217 -0.971002 0
M  V30 4217 H 408.48 1.3617 -0.468377 0
M  V30 4218 H 410.433 4.05827 1.13501 0
M  V30 4219 H 409.157 2.88214 1.53623 0
M  V30 4220 H 407.816 3.63726 -0.458107 0
M  V30 4221 H 407.464 4.7063 1.77529 0
M  V30 4222 H 407.164 5.85872 0.450314 0
M  V30 4223 H 408.688 5.94838 1.37842 0
M  V30 4224 H 410.102 5.66578 -0.875366 0
M  V30 4225 H 408.499 5.76681 -1.66007 0
M  V30 4226 H 409.569 4.40294 -2.03149 0
M  V30 4227 N 410.912 0.523116 1.48665 0
M  V30 4228 C 411.844 -0.280421 2.27478 0
M  V30 4229 C 412.857 -0.910694 1.34945 0
M  V30 4230 O 414.046 -0.790295 1.60052 0
M  V30 4231 C 411.146 -1.41171 3.08097 0
M  V30 4232 C 410.319 -0.884642 4.28361 0
M  V30 4233 C 409.378 -1.89622 4.90846 0
M  V30 4234 O 408.404 -1.4559 5.50265 0
M  V30 4235 N 409.606 -3.22801 4.82472 0
M  V30 4236 H 412.371 0.395481 2.97079 0
M  V30 4237 H 409.932 0.357018 1.57915 0
M  V30 4238 H 411.924 -2.08645 3.4677 0
M  V30 4239 H 410.494 -1.99139 2.40961 0
M  V30 4240 H 409.714 -0.0341177 3.94185 0
M  V30 4241 H 411.002 -0.511268 5.06225 0
M  V30 4242 H 410.4 -3.61246 4.35336 0
M  V30 4243 H 408.957 -3.85927 5.25265 0
M  V30 4244 N 412.39 -1.55475 0.257931 0
M  V30 4245 C 413.801 -1.8511 -0.243135 0
M  V30 4246 C 414.152 -1.17986 -1.5676 0
M  V30 4247 O 413.277 -0.462102 -2.11409 0
M  V30 4248 C 413.872 -3.35826 -0.447929 0
M  V30 4249 C 412.431 -3.65647 -0.893245 0
M  V30 4250 C 411.578 -2.7729 0.0232965 0
M  V30 4251 H 414.529 -1.51261 0.480199 0
M  V30 4252 H 414.55 -3.58002 -1.28898 0
M  V30 4253 H 414.062 -3.84652 0.516196 0
M  V30 4254 H 412.163 -3.22308 -1.86945 0
M  V30 4255 H 412.276 -4.73312 -0.742469 0
M  V30 4256 H 410.64 -2.49942 -0.490021 0
M  V30 4257 H 411.423 -3.28926 0.982994 0
M  V30 4258 N 413.868 0.0150385 -1.57593 0
M  V30 4259 C 415.093 0.718067 -1.94573 0
M  V30 4260 C 415.518 1.6734 -0.859005 0
M  V30 4261 O 414.876 1.80362 0.184147 0
M  V30 4262 C 414.924 1.43918 -3.30636 0
M  V30 4263 O 414.028 2.55299 -3.23876 0
M  V30 4264 H 413.369 0.192125 -0.635597 0
M  V30 4265 H 415.899 -0.0336708 -2.04572 0
M  V30 4266 H 415.909 1.80598 -3.65853 0
M  V30 4267 H 414.584 0.738619 -4.09289 0
M  V30 4268 H 413.161 2.21058 -3.00312 0
M  V30 4269 N 415.346 1.54954 0.287554 0
M  V30 4270 C 416.293 1.86834 1.35505 0
M  V30 4271 C 417.263 0.718452 1.49758 0
M  V30 4272 O 418.448 0.968358 1.644 0
M  V30 4273 C 415.588 2.13303 2.71286 0
M  V30 4274 C 414.701 3.40883 2.65373 0
M  V30 4275 C 413.836 3.57125 3.93236 0
M  V30 4276 C 412.875 4.78449 3.81776 0
M  V30 4277 N 412.012 4.91426 5.01443 0
M  V30 4278 H 416.852 2.77889 1.07619 0
M  V30 4279 H 414.389 1.37593 0.520241 0
M  V30 4280 H 416.347 2.26646 3.50267 0
M  V30 4281 H 414.977 1.25499 2.97405 0
M  V30 4282 H 414.029 3.36088 1.78182 0
M  V30 4283 H 415.341 4.29993 2.52799 0
M  V30 4284 H 414.495 3.70207 4.80658 0
M  V30 4285 H 413.234 2.66173 4.0866 0
M  V30 4286 H 412.239 4.65386 2.92738 0
M  V30 4287 H 413.464 5.70822 3.67884 0
M  V30 4288 H 411.41 4.03401 5.17304 0
M  V30 4289 H 411.327 5.74559 4.91343 0
M  V30 4290 H 412.595 5.08879 5.90477 0
M  V30 4291 N 416.824 -0.551391 1.4764 0
M  V30 4292 C 418.07 -1.31024 1.54792 0
M  V30 4293 C 418.403 -1.9304 0.211967 0
M  V30 4294 O 417.678 -1.78175 -0.77999 0
M  V30 4295 C 417.961 -2.41593 2.67029 0
M  V30 4296 C 417.814 -1.84408 4.10261 0
M  V30 4297 C 419.133 -3.43488 2.75143 0
M  V30 4298 H 416.252 -0.475031 0.563485 0
M  V30 4299 H 418.894 -0.616454 1.79722 0
M  V30 4300 H 417.044 -3.00772 2.45904 0
M  V30 4301 H 418.716 -1.29445 4.42766 0
M  V30 4302 H 416.959 -1.15051 4.18265 0
M  V30 4303 H 417.63 -2.64367 4.84576 0
M  V30 4304 H 420.106 -2.94236 2.94218 0
M  V30 4305 H 418.982 -4.18274 3.55441 0
M  V30 4306 H 419.243 -4.02703 1.82435 0
M  V30 4307 N 418.302 -1.35869 -0.798587 0
M  V30 4308 C 419.527 -1.32883 -1.59238 0
M  V30 4309 C 419.952 0.0894587 -1.87887 0
M  V30 4310 O 419.31 1.05869 -1.47178 0
M  V30 4311 C 419.358 -2.14892 -2.89575 0
M  V30 4312 O 418.462 -1.53512 -3.82763 0
M  V30 4313 H 417.803 -0.455236 -0.48338 0
M  V30 4314 H 420.333 -1.79024 -0.990539 0
M  V30 4315 H 420.343 -2.27139 -3.38928 0
M  V30 4316 H 419.018 -3.17998 -2.68049 0
M  V30 4317 H 417.595 -1.50153 -3.41334 0
M  V30 4318 N 419.78 1.02168 -1.19998 0
M  V30 4319 C 421.191 1.57135 -1.00825 0
M  V30 4320 C 421.542 1.91276 0.436818 0
M  V30 4321 O 420.667 1.71679 1.3174 0
M  V30 4322 C 421.262 2.85514 -1.82393 0
M  V30 4323 C 419.821 3.37027 -1.67601 0
M  V30 4324 C 418.968 2.10388 -1.80644 0
M  V30 4325 H 421.919 0.846106 -1.34264 0
M  V30 4326 H 421.94 3.56711 -1.32429 0
M  V30 4327 H 421.452 2.60634 -2.87561 0
M  V30 4328 H 419.553 3.66878 -0.650485 0
M  V30 4329 H 419.666 4.09572 -2.4857 0
M  V30 4330 H 418.03 2.22601 -1.23778 0
M  V30 4331 H 418.813 1.8794 -2.87286 0
M  V30 4332 N 421.258 1.00505 1.21394 0
M  V30 4333 C 422.168 0.574806 2.27449 0
M  V30 4334 C 423.184 -0.382206 1.6975 0
M  V30 4335 O 424.36 -0.246027 1.99892 0
M  V30 4336 C 421.425 -0.0917414 3.46579 0
M  V30 4337 C 420.486 0.909758 4.1955 0
M  V30 4338 C 419.719 0.274924 5.32991 0
M  V30 4339 O 419.942 -0.928254 5.62796 0
M  V30 4340 O 418.876 0.985877 5.93771 0
M  V30 4341 H 422.702 1.45744 2.66444 0
M  V30 4342 H 420.287 0.773923 1.27792 0
M  V30 4343 H 422.169 -0.464551 4.18832 0
M  V30 4344 H 420.844 -0.948755 3.09484 0
M  V30 4345 H 419.751 1.33372 3.49518 0
M  V30 4346 H 421.084 1.73636 4.60555 0
M  V30 4347 N 422.737 -1.36956 0.779787 0
M  V30 4348 C 423.962 -2.04283 0.358224 0
M  V30 4349 C 424.387 -1.58422 -1.01411 0
M  V30 4350 O 423.745 -0.748179 -1.65142 0
M  V30 4351 C 423.793 -3.58152 0.419479 0
M  V30 4352 O 422.897 -4.08342 -0.577142 0
M  V30 4353 H 422.238 -0.645967 0.153698 0
M  V30 4354 H 424.768 -1.75108 1.05822 0
M  V30 4355 H 424.778 -4.07041 0.279636 0
M  V30 4356 H 423.453 -3.90886 1.42061 0
M  V30 4357 H 422.03 -3.70751 -0.399755 0
M  V30 4358 N 424.215 -0.530993 -1.48385 0
M  V30 4359 C 425.178 0.220497 -2.28137 0
M  V30 4360 C 426.178 0.866851 -1.35434 0
M  V30 4361 O 427.368 0.726746 -1.58316 0
M  V30 4362 C 424.5 1.31921 -3.1434 0
M  V30 4363 H 425.693 -0.479714 -2.96038 0
M  V30 4364 H 423.246 -0.286968 -1.53643 0
M  V30 4365 H 423.981 2.05264 -2.51072 0
M  V30 4366 H 423.766 0.86085 -3.82533 0
M  V30 4367 H 425.256 1.84776 -3.74497 0
M  V30 4368 N 425.693 1.55336 -0.266172 0
M  V30 4369 C 426.64 2.22172 0.625165 0
M  V30 4370 C 427.61 1.19211 1.15663 0
M  V30 4371 O 428.795 1.47723 1.20758 0
M  V30 4372 C 425.935 2.93972 1.8076 0
M  V30 4373 C 425.048 4.11632 1.31084 0
M  V30 4374 C 424.183 4.71099 2.45436 0
M  V30 4375 C 423.222 5.8097 1.92718 0
M  V30 4376 N 422.359 6.34538 3.00509 0
M  V30 4377 H 427.199 2.9796 0.0485582 0
M  V30 4378 H 424.736 1.47095 0.0122024 0
M  V30 4379 H 426.694 3.33811 2.50251 0
M  V30 4380 H 425.324 2.20623 2.35638 0
M  V30 4381 H 424.376 3.76975 0.509326 0
M  V30 4382 H 425.688 4.90893 0.884633 0
M  V30 4383 H 424.842 5.13612 3.22936 0
M  V30 4384 H 423.581 3.91096 2.91368 0
M  V30 4385 H 422.586 5.37916 1.13695 0
M  V30 4386 H 423.811 6.62836 1.47733 0
M  V30 4387 H 421.757 5.57433 3.45839 0
M  V30 4388 H 421.674 7.09046 2.62279 0
M  V30 4389 H 422.942 6.81709 3.78011 0
M  V30 4390 N 427.171 -0.0066808 1.57599 0
M  V30 4391 C 428.419 -0.691552 1.899 0
M  V30 4392 C 428.74 -1.74682 0.866672 0
M  V30 4393 O 428.01 -1.95661 -0.0968189 0
M  V30 4394 H 426.59 -0.258416 0.700878 0
M  V30 4395 H 429.252 0.0326655 1.94873 0
M  V30 4396 H 428.348 -1.16702 2.8946 0
M  V30 4397 N 428.649 -1.55105 -0.279332 0
M  V30 4398 C 429.877 -1.7943 -1.03017 0
M  V30 4399 C 430.292 -0.564456 -1.80165 0
M  V30 4400 O 429.649 0.466326 -1.76442 0
M  V30 4401 C 429.7 -3.0155 -1.99374 0
M  V30 4402 O 429.421 -4.19784 -1.25352 0
M  V30 4403 C 430.922 -3.3843 -2.86321 0
M  V30 4404 H 428.142 -0.597882 -0.304594 0
M  V30 4405 H 430.686 -2.02105 -0.312035 0
M  V30 4406 H 428.841 -2.81019 -2.66659 0
M  V30 4407 H 429.255 -4.88781 -1.90246 0
M  V30 4408 H 430.729 -4.27066 -3.49741 0
M  V30 4409 H 431.206 -2.57549 -3.5576 0
M  V30 4410 H 431.812 -3.61197 -2.24536 0
M  V30 4411 N 430.127 0.543554 -1.4793 0
M  V30 4412 C 431.538 1.12561 -1.48953 0
M  V30 4413 C 431.889 1.94578 -0.251754 0
M  V30 4414 O 431.014 2.0665 0.642255 0
M  V30 4415 C 431.609 2.04801 -2.69892 0
M  V30 4416 C 430.168 2.58251 -2.73831 0
M  V30 4417 C 429.315 1.34918 -2.42265 0
M  V30 4418 H 432.266 0.32947 -1.55242 0
M  V30 4419 H 432.287 2.88886 -2.47639 0
M  V30 4420 H 431.799 1.4508 -3.59963 0
M  V30 4421 H 429.9 3.21732 -1.87934 0
M  V30 4422 H 430.013 2.98312 -3.74895 0
M  V30 4423 H 428.377 1.66046 -1.93134 0
M  V30 4424 H 429.16 0.769693 -3.3456 0
M  V30 4425 N 431.605 1.3629 0.791371 0
M  V30 4426 C 432.535 1.33137 1.91825 0
M  V30 4427 C 433.516 0.203168 1.68882 0
M  V30 4428 O 434.701 0.400509 1.90025 0
M  V30 4429 C 431.831 1.11793 3.28816 0
M  V30 4430 C 430.785 2.21417 3.66277 0
M  V30 4431 C 430.111 1.85218 5.01596 0
M  V30 4432 C 431.411 3.63489 3.75064 0
M  V30 4433 H 433.105 2.2743 1.9472 0
M  V30 4434 H 430.651 1.09479 0.935437 0
M  V30 4435 H 432.604 1.08222 4.07266 0
M  V30 4436 H 431.328 0.139501 3.26302 0
M  V30 4437 H 429.987 2.2411 2.90121 0
M  V30 4438 H 429.635 0.859544 4.95602 0
M  V30 4439 H 429.335 2.58611 5.27631 0
M  V30 4440 H 430.859 1.832 5.82469 0
M  V30 4441 H 432.273 3.63034 4.43711 0
M  V30 4442 H 430.67 4.35771 4.12582 0
M  V30 4443 H 431.74 3.98536 2.76219 0
M  V30 4444 N 433.083 -1.0153 1.20538 0
M  V30 4445 C 434.33 -1.75149 1.01633 0
M  V30 4446 C 434.658 -1.89189 -0.451399 0
M  V30 4447 O 433.913 -1.41551 -1.35136 0
M  V30 4448 C 434.212 -3.17213 1.64654 0
M  V30 4449 C 433.878 -3.23146 3.14464 0
M  V30 4450 C 432.54 -3.24472 3.55347 0
M  V30 4451 C 434.892 -3.21207 4.10458 0
M  V30 4452 C 432.22 -3.21532 4.90748 0
M  V30 4453 C 434.572 -3.19808 5.45807 0
M  V30 4454 C 433.236 -3.19439 5.86102 0
M  V30 4455 H 432.506 -0.640914 0.3719 0
M  V30 4456 H 435.153 -1.19071 1.49981 0
M  V30 4457 H 433.458 -3.76457 1.08571 0
M  V30 4458 H 435.155 -3.72871 1.4754 0
M  V30 4459 H 431.745 -3.2285 2.81897 0
M  V30 4460 H 435.929 -3.19351 3.79906 0
M  V30 4461 H 431.185 -3.19578 5.21229 0
M  V30 4462 H 435.359 -3.1726 6.19935 0
M  V30 4463 H 432.986 -3.16915 6.90991 0
M  V30 4464 N 434.561 -1.01147 -1.20859 0
M  V30 4465 C 435.494 -0.522108 -2.22147 0
M  V30 4466 C 436.472 0.427686 -1.56874 0
M  V30 4467 O 437.656 0.34889 -1.85243 0
M  V30 4468 C 434.783 0.240819 -3.37843 0
M  V30 4469 C 433.829 -0.657752 -4.21398 0
M  V30 4470 S 434.662 -2.12393 -4.91578 0
M  V30 4471 C 435.818 -1.37102 -6.10699 0
M  V30 4472 H 436.051 -1.38035 -2.63313 0
M  V30 4473 H 433.584 -0.819941 -1.30829 0
M  V30 4474 H 435.542 0.674908 -4.04914 0
M  V30 4475 H 434.203 1.07457 -2.95147 0
M  V30 4476 H 433.396 -0.0697456 -5.03952 0
M  V30 4477 H 432.998 -1.0294 -3.59555 0
M  V30 4478 H 435.29 -0.648315 -6.74391 0
M  V30 4479 H 436.233 -2.17252 -6.73949 0
M  V30 4480 H 436.641 -0.876154 -5.57659 0
M  V30 4481 N 436.039 1.36541 -0.78704 0
M  V30 4482 C 436.969 2.32659 -0.197992 0
M  V30 4483 C 437.95 1.56533 0.665697 0
M  V30 4484 O 439.135 1.84698 0.60001 0
M  V30 4485 C 436.265 3.40778 0.669901 0
M  V30 4486 C 435.219 4.27897 -0.0937039 0
M  V30 4487 C 434.545 5.27163 0.894629 0
M  V30 4488 C 435.845 5.06334 -1.28154 0
M  V30 4489 H 437.539 2.82171 -1.00099 0
M  V30 4490 H 435.085 1.35665 -0.482793 0
M  V30 4491 H 437.038 4.07008 1.09191 0
M  V30 4492 H 435.762 2.89827 1.50558 0
M  V30 4493 H 434.421 3.6322 -0.49666 0
M  V30 4494 H 434.069 4.72486 1.72527 0
M  V30 4495 H 433.769 5.86317 0.388149 0
M  V30 4496 H 435.293 5.96266 1.31525 0
M  V30 4497 H 436.707 5.65617 -0.93541 0
M  V30 4498 H 435.104 5.74888 -1.72115 0
M  V30 4499 H 436.174 4.38114 -2.07807 0
M  V30 4500 N 437.518 0.538854 1.48102 0
M  V30 4501 C 438.448 -0.207654 2.32575 0
M  V30 4502 C 439.429 -0.926559 1.4265 0
M  V30 4503 O 440.614 -0.91061 1.71527 0
M  V30 4504 C 437.744 -1.24957 3.24042 0
M  V30 4505 C 436.698 -0.648263 4.23062 0
M  V30 4506 C 436.024 -1.79348 5.03725 0
M  V30 4507 C 437.324 0.385897 5.20872 0
M  V30 4508 H 439.018 0.497534 2.95237 0
M  V30 4509 H 436.564 0.240715 1.41974 0
M  V30 4510 H 438.517 -1.77983 3.81969 0
M  V30 4511 H 437.241 -1.98446 2.59397 0
M  V30 4512 H 435.9 -0.139452 3.66335 0
M  V30 4513 H 435.548 -2.51696 4.35498 0
M  V30 4514 H 435.248 -1.39702 5.70751 0
M  V30 4515 H 436.772 -2.32735 5.64506 0
M  V30 4516 H 438.186 -0.057607 5.73271 0
M  V30 4517 H 436.583 0.700227 5.96001 0
M  V30 4518 H 437.653 1.28848 4.67468 0
M  V30 4519 N 438.996 -1.55193 0.274407 0
M  V30 4520 C 439.943 -2.225 -0.613374 0
M  V30 4521 C 440.913 -1.19823 -1.15029 0
M  V30 4522 O 442.098 -1.48362 -1.19973 0
M  V30 4523 C 439.238 -2.94927 -1.79199 0
M  V30 4524 C 438.351 -4.12322 -1.28899 0
M  V30 4525 C 437.486 -4.72394 -2.42934 0
M  V30 4526 C 436.525 -5.81984 -1.89634 0
M  V30 4527 N 435.662 -6.36123 -2.9714 0
M  V30 4528 H 440.502 -2.97982 -0.032756 0
M  V30 4529 H 438.039 -1.47099 -0.00440146 0
M  V30 4530 H 439.997 -3.35134 -2.48478 0
M  V30 4531 H 438.627 -2.2187 -2.34465 0
M  V30 4532 H 437.679 -3.7724 -0.489327 0
M  V30 4533 H 438.991 -4.91355 -0.858587 0
M  V30 4534 H 438.145 -5.15317 -3.20208 0
M  V30 4535 H 436.884 -3.92636 -2.8929 0
M  V30 4536 H 435.889 -5.38511 -1.1084 0
M  V30 4537 H 437.114 -6.6361 -1.44215 0
M  V30 4538 H 435.06 -5.59259 -3.42878 0
M  V30 4539 H 434.977 -7.10427 -2.58515 0
M  V30 4540 H 436.245 -6.83704 -3.74391 0
M  V30 4541 N 440.474 -0.00167713 -1.576 0
M  V30 4542 C 441.751 0.719951 -1.81868 0
M  V30 4543 C 442.131 1.91895 -0.879747 0
M  V30 4544 O 441.479 2.28389 0.0711423 0
M  V30 4545 C 441.689 1.12409 -3.30402 0
M  V30 4546 C 443.037 1.52724 -3.96182 0
M  V30 4547 O 444.061 1.21784 -3.34734 0
M  V30 4548 O 442.92 2.10265 -5.04431 0
M  V30 4549 H 440.014 0.350707 -0.748955 0
M  V30 4550 H 442.56 -0.0272597 -1.69678 0
M  V30 4551 H 441.332 0.269532 -3.90371 0
M  V30 4552 H 440.955 1.93035 -3.47596 0
M  V30 4553 N 441.952 1.55251 0.271103 0
M  V30 4554 C 443.363 1.66635 0.842007 0
M  V30 4555 C 443.714 0.594631 1.86972 0
M  V30 4556 O 442.839 -0.263532 2.14789 0
M  V30 4557 C 443.434 3.02082 1.53401 0
M  V30 4558 C 441.993 3.15487 2.05293 0
M  V30 4559 C 441.14 2.62438 0.895631 0
M  V30 4560 H 444.091 1.58629 0.0474117 0
M  V30 4561 H 444.112 2.95176 2.40107 0
M  V30 4562 H 443.624 3.80062 0.785786 0
M  V30 4563 H 441.725 2.42284 2.83071 0
M  V30 4564 H 441.838 4.22075 2.26693 0
M  V30 4565 H 440.202 2.19644 1.28953 0
M  V30 4566 H 440.985 3.42923 0.160878 0
M  V30 4567 N 443.43 -0.535701 1.48216 0
M  V30 4568 C 444.66 -1.3148 1.59363 0
M  V30 4569 C 445.068 -1.8753 0.250844 0
M  V30 4570 O 444.411 -1.66821 -0.769174 0
M  V30 4571 C 444.473 -2.50731 2.57632 0
M  V30 4572 C 444.137 -2.15811 4.02833 0
M  V30 4573 C 445.134 -1.71822 4.90686 0
M  V30 4574 C 442.819 -2.26509 4.48329 0
M  V30 4575 C 444.813 -1.3899 6.22062 0
M  V30 4576 C 442.5 -1.93289 5.79726 0
M  V30 4577 C 443.498 -1.49599 6.66415 0
M  V30 4578 O 443.186 -1.16812 7.95368 0
M  V30 4579 H 442.918 -0.406315 0.540263 0
M  V30 4580 H 445.472 -0.653569 1.94725 0
M  V30 4581 H 443.702 -3.19817 2.1738 0
M  V30 4582 H 445.391 -3.12797 2.58675 0
M  V30 4583 H 446.157 -1.63031 4.56778 0
M  V30 4584 H 442.036 -2.59471 3.81045 0
M  V30 4585 H 445.58 -1.04816 6.89681 0
M  V30 4586 H 441.477 -2.01718 6.13172 0
M  V30 4587 H 442.245 -1.30259 8.08069 0
M  V30 4588 N 444.908 -1.36708 -0.784132 0
M  V30 4589 C 446.157 -1.30559 -1.53744 0
M  V30 4590 C 446.47 0.111374 -1.95283 0
M  V30 4591 O 447.676 0.29527 -2.6989 0
M  V30 4592 C 446.132 -2.29098 -2.77565 0
M  V30 4593 C 445.74 -3.76258 -2.43174 0
M  V30 4594 C 447.484 -2.31936 -3.55536 0
M  V30 4595 C 445.391 -4.6656 -3.63422 0
M  V30 4596 H 444.321 -0.48518 -0.577162 0
M  V30 4597 H 446.972 -1.62101 -0.859981 0
M  V30 4598 H 445.354 -1.90557 -3.47137 0
M  V30 4599 H 446.528 -4.23565 -1.81465 0
M  V30 4600 H 444.843 -3.76246 -1.78403 0
M  V30 4601 H 447.44 -2.9661 -4.44889 0
M  V30 4602 H 447.783 -1.3294 -3.94503 0
M  V30 4603 H 448.316 -2.6912 -2.92949 0
M  V30 4604 H 445.055 -5.66638 -3.29547 0
M  V30 4605 H 444.575 -4.23966 -4.24279 0
M  V30 4606 H 446.254 -4.8309 -4.30387 0
M  V30 4607 N 446.386 1.0089 -1.21074 0
M  V30 4608 C 447.316 2.1145 -0.990523 0
M  V30 4609 C 448.297 1.69897 0.0831699 0
M  V30 4610 O 449.482 1.94052 -0.0758853 0
M  V30 4611 C 446.612 3.42914 -0.550177 0
M  V30 4612 C 445.566 3.98244 -1.56799 0
M  V30 4613 C 444.892 5.25568 -0.984013 0
M  V30 4614 C 446.192 4.30752 -2.95381 0
M  V30 4615 H 447.886 2.3013 -1.91521 0
M  V30 4616 H 445.432 1.10592 -0.92225 0
M  V30 4617 H 447.385 4.19653 -0.383305 0
M  V30 4618 H 446.109 3.24014 0.41015 0
M  V30 4619 H 444.768 3.23621 -1.72236 0
M  V30 4620 H 444.416 5.02998 -0.0155216 0
M  V30 4621 H 444.116 5.63551 -1.66384 0
M  V30 4622 H 445.64 6.04955 -0.828378 0
M  V30 4623 H 447.054 4.98349 -2.8341 0
M  V30 4624 H 445.451 4.79869 -3.60341 0
M  V30 4625 H 446.521 3.39192 -3.46521 0
M  V30 4626 N 447.864 1.01787 1.20321 0
M  V30 4627 C 449.11 0.708985 1.90003 0
M  V30 4628 C 449.443 -0.759572 1.78729 0
M  V30 4629 O 448.718 -1.55198 1.17234 0
M  V30 4630 C 449.001 1.1469 3.41348 0
M  V30 4631 C 448.854 2.67586 3.61549 0
M  V30 4632 C 450.173 0.71915 4.34185 0
M  V30 4633 H 447.292 0.259034 0.689978 0
M  V30 4634 H 449.934 1.26584 1.41692 0
M  V30 4635 H 448.084 0.673128 3.82624 0
M  V30 4636 H 449.756 3.22826 3.29517 0
M  V30 4637 H 447.999 3.085 3.04976 0
M  V30 4638 H 448.67 2.93281 4.67643 0
M  V30 4639 H 451.146 1.12647 4.00562 0
M  V30 4640 H 450.022 1.05358 5.38694 0
M  V30 4641 H 450.283 -0.379111 4.40472 0
M  V30 4642 N 449.342 -1.36122 0.79427 0
M  V30 4643 C 450.305 -2.28309 0.201889 0
M  V30 4644 C 451.305 -1.49041 -0.603603 0
M  V30 4645 O 452.495 -1.68964 -0.423888 0
M  V30 4646 C 449.627 -3.3321 -0.719978 0
M  V30 4647 H 450.82 -2.82208 1.01481 0
M  V30 4648 H 448.373 -1.45768 0.564037 0
M  V30 4649 H 449.108 -2.84475 -1.55706 0
M  V30 4650 H 448.893 -3.91835 -0.144266 0
M  V30 4651 H 450.383 -4.02044 -1.12916 0
M  V30 4652 N 450.82 -0.546701 -1.47814 0
M  V30 4653 C 451.783 0.196287 -2.28358 0
M  V30 4654 C 452.783 0.852437 -1.36346 0
M  V30 4655 O 453.973 0.709913 -1.59078 0
M  V30 4656 C 451.105 1.28579 -3.15722 0
M  V30 4657 H 452.298 -0.511086 -2.95513 0
M  V30 4658 H 449.851 -0.303248 -1.5333 0
M  V30 4659 H 450.586 2.0259 -2.53235 0
M  V30 4660 H 450.371 0.820229 -3.83425 0
M  V30 4661 H 451.861 1.80793 -3.76435 0
M  V30 4662 N 452.299 1.55045 -0.282633 0
M  V30 4663 C 453.547 1.99365 0.331334 0
M  V30 4664 C 453.868 1.1725 1.55812 0
M  V30 4665 O 453.138 0.263871 1.94115 0
M  V30 4666 H 451.718 0.736397 0.125414 0
M  V30 4667 H 454.38 1.90964 -0.389711 0
M  V30 4668 H 453.476 3.0596 0.616036 0
M  V30 4669 N 453.777 0.010035 1.57597 0
M  V30 4670 C 455.002 -0.687021 1.95691 0
M  V30 4671 C 455.427 -1.65952 0.885519 0
M  V30 4672 O 454.785 -1.80633 -0.15543 0
M  V30 4673 C 454.833 -1.3864 3.32884 0
M  V30 4674 O 453.937 -2.50115 3.27897 0
M  V30 4675 H 453.278 -0.181989 0.638573 0
M  V30 4676 H 455.808 0.0662122 2.04493 0
M  V30 4677 H 455.818 -1.74754 3.6868 0
M  V30 4678 H 454.493 -0.673411 4.10412 0
M  V30 4679 H 453.07 -2.16253 3.03791 0
M  V30 4680 N 455.255 -1.55392 -0.262866 0
M  V30 4681 C 456.504 -1.75679 -0.990943 0
M  V30 4682 C 456.817 -0.57097 -1.87081 0
M  V30 4683 O 458.023 -0.656486 -2.63444 0
M  V30 4684 C 456.479 -3.10964 -1.81188 0
M  V30 4685 C 456.087 -4.37146 -0.980188 0
M  V30 4686 C 457.831 -3.40597 -2.53365 0
M  V30 4687 C 455.738 -5.63466 -1.7961 0
M  V30 4688 H 454.668 -0.654868 -0.373716 0
M  V30 4689 H 457.319 -1.81841 -0.246203 0
M  V30 4690 H 455.701 -2.98867 -2.59797 0
M  V30 4691 H 456.875 -4.60187 -0.237558 0
M  V30 4692 H 455.19 -4.14731 -0.372497 0
M  V30 4693 H 457.787 -4.32186 -3.14833 0
M  V30 4694 H 458.13 -2.6119 -3.24169 0
M  V30 4695 H 458.663 -3.53838 -1.81779 0
M  V30 4696 H 455.402 -6.4565 -1.13209 0
M  V30 4697 H 454.922 -5.44552 -2.51443 0
M  V30 4698 H 456.601 -6.02139 -2.36723 0
M  V30 4699 N 456.733 0.527833 -1.48498 0
M  V30 4700 C 457.973 1.29401 -1.58224 0
M  V30 4701 C 458.337 1.90348 -0.251327 0
M  V30 4702 O 459.538 2.67868 -0.223588 0
M  V30 4703 C 457.809 2.35266 -2.69044 0
M  V30 4704 S 459.368 3.2158 -2.98549 0
M  V30 4705 H 456.186 0.440138 -0.558391 0
M  V30 4706 H 458.788 0.601079 -1.8603 0
M  V30 4707 H 457.492 1.88975 -3.64303 0
M  V30 4708 H 457.023 3.09263 -2.43146 0
M  V30 4709 H 459.038 4.35391 -2.38011 0
M  V30 4710 N 458.211 1.37122 0.776871 0
M  V30 4711 C 459.458 1.32047 1.53524 0
M  V30 4712 C 459.786 -0.0965631 1.9426 0
M  V30 4713 O 459.041 -1.06866 1.63945 0
M  V30 4714 C 459.34 2.20068 2.81611 0
M  V30 4715 C 459.006 3.68423 2.59953 0
M  V30 4716 C 457.668 4.08854 2.53755 0
M  V30 4717 C 460.02 4.62431 2.40431 0
M  V30 4718 C 457.348 5.41417 2.26018 0
M  V30 4719 C 459.7 5.95225 2.14219 0
M  V30 4720 C 458.364 6.34767 2.06462 0
M  V30 4721 H 457.634 0.483196 0.561785 0
M  V30 4722 H 460.281 1.69284 0.895268 0
M  V30 4723 H 458.586 1.75809 3.50141 0
M  V30 4724 H 460.283 2.13458 3.39465 0
M  V30 4725 H 456.873 3.36354 2.65638 0
M  V30 4726 H 461.057 4.32057 2.44213 0
M  V30 4727 H 456.313 5.71022 2.18504 0
M  V30 4728 H 460.487 6.67626 1.98112 0
M  V30 4729 H 458.114 7.37413 1.84733 0
M  V30 4730 N 459.689 -1.00246 1.21608 0
M  V30 4731 C 460.652 -2.07233 0.979133 0
M  V30 4732 C 461.652 -1.6072 -0.0508219 0
M  V30 4733 O 462.842 -1.73196 0.186712 0
M  V30 4734 C 459.974 -3.37546 0.477016 0
M  V30 4735 H 461.167 -2.29687 1.92831 0
M  V30 4736 H 458.72 -1.17261 1.03342 0
M  V30 4737 H 459.455 -3.20773 -0.476966 0
M  V30 4738 H 459.24 -3.72638 1.21997 0
M  V30 4739 H 460.73 -4.16285 0.331181 0
M  V30 4740 N 461.167 -1.02423 -1.1978 0
M  V30 4741 C 462.115 -0.594474 -2.24875 0
M  V30 4742 C 463.109 0.370598 -1.65296 0
M  V30 4743 O 464.315 0.239684 -1.78397 0
M  V30 4744 H 460.69 -0.173961 -0.731602 0
M  V30 4745 H 462.661 -1.4916 -2.58445 0
M  V30 4746 C 461.41 0.0436512 -3.47673 0
M  V30 4747 H 460.733 -0.689963 -3.93801 0
M  V30 4748 H 462.173 0.307362 -4.22884 0
M  V30 4749 C 460.632 1.28881 -3.11274 0
M  V30 4750 O 461.162 2.38135 -3.23503 0
M  V30 4751 N 459.368 1.1758 -2.6575 0
M  V30 4752 H 458.915 0.286769 -2.55999 0
M  V30 4753 H 458.873 2.00988 -2.41767 0
M  V30 4754 N 462.645 1.35699 -0.801477 0
M  V30 4755 C 463.578 2.2768 -0.153922 0
M  V30 4756 C 464.556 1.47832 0.67709 0
M  V30 4757 O 465.74 1.77104 0.645474 0
M  V30 4758 C 462.867 3.2943 0.786986 0
M  V30 4759 C 461.913 4.26485 0.0362447 0
M  V30 4760 S 462.746 5.19573 -1.2963 0
M  V30 4761 C 463.902 6.24866 -0.359705 0
M  V30 4762 H 464.135 2.82254 -0.9338 0
M  V30 4763 H 461.668 1.42421 -0.596283 0
M  V30 4764 H 463.626 3.8855 1.32436 0
M  V30 4765 H 462.287 2.73745 1.54021 0
M  V30 4766 H 461.48 4.98378 0.750668 0
M  V30 4767 H 461.082 3.71508 -0.431017 0
M  V30 4768 H 463.374 6.75957 0.456954 0
M  V30 4769 H 464.317 7.00307 -1.04768 0
M  V30 4770 H 464.725 5.64484 0.0423274 0
M  V30 4771 N 464.123 0.554532 1.47522 0
M  V30 4772 C 465.371 0.0294208 2.02079 0
M  V30 4773 C 465.692 -1.32411 1.43151 0
M  V30 4774 O 464.962 -1.863 0.605728 0
M  V30 4775 H 463.542 0.00788672 0.746958 0
M  V30 4776 H 466.204 0.723934 1.80956 0
M  V30 4777 H 465.3 -0.0606745 3.12041 0
M  V30 4778 N 465.601 -1.54893 0.290851 0
M  V30 4779 C 466.847 -2.0023 -0.321867 0
M  V30 4780 C 467.18 -1.179 -1.54316 0
M  V30 4781 O 466.455 -0.25293 -1.92848 0
M  V30 4782 C 466.738 -3.53456 -0.688515 0
M  V30 4783 C 466.591 -4.46532 0.541209 0
M  V30 4784 C 467.91 -4.13057 -1.51895 0
M  V30 4785 H 465.029 -0.727891 -0.115515 0
M  V30 4786 H 467.671 -1.85722 0.400931 0
M  V30 4787 H 465.821 -3.6595 -1.30433 0
M  V30 4788 H 467.493 -4.4596 1.17973 0
M  V30 4789 H 465.736 -4.17545 1.17636 0
M  V30 4790 H 466.407 -5.51475 0.240675 0
M  V30 4791 H 468.883 -4.03937 -0.99872 0
M  V30 4792 H 467.759 -5.20448 -1.74429 0
M  V30 4793 H 468.02 -3.64284 -2.50498 0
M  V30 4794 N 467.08 -0.0183926 -1.57589 0
M  V30 4795 C 468.043 0.951986 -2.08494 0
M  V30 4796 C 469.043 1.26092 -0.997874 0
M  V30 4797 O 470.233 1.20304 -1.25987 0
M  V30 4798 C 467.365 2.27165 -2.54182 0
M  V30 4799 H 468.558 0.511307 -2.95509 0
M  V30 4800 H 466.111 0.229444 -1.54607 0
M  V30 4801 H 466.846 2.75884 -1.70465 0
M  V30 4802 H 466.631 2.06057 -3.33591 0
M  V30 4803 H 468.121 2.9674 -2.93828 0
M  V30 4804 N 468.558 1.5553 0.254621 0
M  V30 4805 C 469.807 1.76202 0.981612 0
M  V30 4806 C 470.12 0.580883 1.86776 0
M  V30 4807 O 471.326 0.670448 2.63092 0
M  V30 4808 C 469.782 3.11921 1.79537 0
M  V30 4809 C 469.39 4.37659 0.956991 0
M  V30 4810 C 471.134 3.41936 2.51555 0
M  V30 4811 C 469.041 5.64411 1.76619 0
M  V30 4812 H 467.971 0.656841 0.370237 0
M  V30 4813 H 470.622 1.81969 0.236556 0
M  V30 4814 H 469.004 3.00241 2.58208 0
M  V30 4815 H 470.178 4.60307 0.21315 0
M  V30 4816 H 468.493 4.14922 0.350497 0
M  V30 4817 H 471.09 4.33849 3.12536 0
M  V30 4818 H 471.433 2.62905 3.22779 0
M  V30 4819 H 471.966 3.54797 1.799 0
M  V30 4820 H 468.705 6.46241 1.09783 0
M  V30 4821 H 468.225 5.45877 2.48551 0
M  V30 4822 H 469.904 6.03386 2.33527 0
M  V30 4823 N 470.036 -0.519951 1.48776 0
M  V30 4824 C 470.966 -1.63253 1.66945 0
M  V30 4825 C 471.947 -1.62014 0.518224 0
M  V30 4826 O 473.132 -1.79053 0.751919 0
M  V30 4827 C 470.262 -3.0181 1.71836 0
M  V30 4828 C 469.216 -3.17911 2.8656 0
M  V30 4829 C 468.542 -4.5763 2.76548 0
M  V30 4830 C 469.842 -2.99729 4.27738 0
M  V30 4831 H 471.536 -1.48302 2.6009 0
M  V30 4832 H 469.082 -0.712026 1.25165 0
M  V30 4833 H 471.035 -3.79525 1.83135 0
M  V30 4834 H 469.759 -3.17806 0.752775 0
M  V30 4835 H 468.418 -2.42616 2.74833 0
M  V30 4836 H 468.066 -4.70476 1.77937 0
M  V30 4837 H 467.766 -4.69346 3.53536 0
M  V30 4838 H 469.29 -5.37431 2.89828 0
M  V30 4839 H 470.704 -3.67228 4.40246 0
M  V30 4840 H 469.101 -3.22932 5.05801 0
M  V30 4841 H 470.171 -1.96047 4.43502 0
M  V30 4842 N 471.514 -1.37532 -0.769588 0
M  V30 4843 C 472.424 -1.35668 -1.91393 0
M  V30 4844 C 473.44 -0.255954 -1.72107 0
M  V30 4845 O 474.616 -0.491704 -1.95305 0
M  V30 4846 C 471.681 -1.16481 -3.26547 0
M  V30 4847 C 470.742 -2.36212 -3.58472 0
M  V30 4848 C 469.975 -2.17932 -4.87177 0
M  V30 4849 O 470.198 -1.1647 -5.58382 0
M  V30 4850 O 469.132 -3.06167 -5.18214 0
M  V30 4851 H 472.958 -2.32055 -1.95918 0
M  V30 4852 H 470.543 -1.18284 -0.912641 0
M  V30 4853 H 472.425 -1.07778 -4.07384 0
M  V30 4854 H 471.1 -0.231687 -3.2287 0
M  V30 4855 H 470.007 -2.50488 -2.77861 0
M  V30 4856 H 471.34 -3.281 -3.66894 0
M  V30 4857 N 472.992 0.995999 -1.22138 0
M  V30 4858 C 474.403 1.54961 -1.04135 0
M  V30 4859 C 474.754 1.92159 0.396147 0
M  V30 4860 O 473.879 1.74435 1.28069 0
M  V30 4861 C 474.474 2.81581 -1.88408 0
M  V30 4862 C 473.033 3.33396 -1.74712 0
M  V30 4863 C 472.18 2.06509 -1.85066 0
M  V30 4864 H 475.131 0.817436 -1.36028 0
M  V30 4865 H 475.152 3.53822 -1.39966 0
M  V30 4866 H 474.664 2.54476 -2.93025 0
M  V30 4867 H 472.765 3.65416 -0.728159 0
M  V30 4868 H 472.878 4.04208 -2.57202 0
M  V30 4869 H 471.242 2.19925 -1.28472 0
M  V30 4870 H 472.025 1.81804 -2.91208 0
M  V30 4871 N 474.47 1.03057 1.19235 0
M  V30 4872 C 475.698 0.747697 1.92917 0
M  V30 4873 C 476.113 -0.69372 1.75593 0
M  V30 4874 O 475.47 -1.47191 1.07894 0
M  V30 4875 C 475.521 1.09159 3.44625 0
M  V30 4876 O 475.242 2.47641 3.61394 0
M  V30 4877 C 476.743 0.831763 4.35427 0
M  V30 4878 H 473.963 0.273453 0.612751 0
M  V30 4879 H 476.507 1.37552 1.51327 0
M  V30 4880 H 474.662 0.508919 3.84043 0
M  V30 4881 H 475.076 2.60499 4.55237 0
M  V30 4882 H 476.55 1.12233 5.4047 0
M  V30 4883 H 477.027 -0.233769 4.38577 0
M  V30 4884 H 477.633 1.39725 4.01693 0
M  V30 4885 N 475.948 -1.35272 0.808662 0
M  V30 4886 C 476.878 -2.32315 0.234981 0
M  V30 4887 C 477.859 -1.57572 -0.64071 0
M  V30 4888 O 479.044 -1.8563 -0.570551 0
M  V30 4889 C 476.174 -3.41801 -0.615601 0
M  V30 4890 C 475.128 -4.27694 0.161767 0
M  V30 4891 C 474.454 -5.28519 -0.810649 0
M  V30 4892 C 475.754 -5.04231 1.36193 0
M  V30 4893 H 477.448 -2.80543 1.04575 0
M  V30 4894 H 474.994 -1.3488 0.504315 0
M  V30 4895 H 476.947 -4.08693 -1.02702 0
M  V30 4896 H 475.671 -2.92186 -1.45928 0
M  V30 4897 H 474.33 -3.62384 0.554382 0
M  V30 4898 H 473.978 -4.75171 -1.64988 0
M  V30 4899 H 473.678 -5.8686 -0.294822 0
M  V30 4900 H 475.202 -5.98283 -1.22023 0
M  V30 4901 H 476.616 -5.64058 1.02528 0
M  V30 4902 H 475.013 -5.72077 1.81239 0
M  V30 4903 H 476.083 -4.34753 2.14751 0
M  V30 4904 N 477.426 -0.562348 -1.47226 0
M  V30 4905 C 478.837 -0.130325 -1.86245 0
M  V30 4906 C 479.188 1.30128 -1.46838 0
M  V30 4907 O 478.313 1.97974 -0.873805 0
M  V30 4908 C 478.908 -0.229738 -3.3802 0
M  V30 4909 C 477.467 0.14728 -3.76112 0
M  V30 4910 C 476.614 -0.574971 -2.71274 0
M  V30 4911 H 479.565 -0.771773 -1.3867 0
M  V30 4912 H 479.586 0.550316 -3.76499 0
M  V30 4913 H 479.098 -1.27178 -3.66671 0
M  V30 4914 H 477.199 1.19023 -3.53078 0
M  V30 4915 H 477.312 -0.214858 -4.78618 0
M  V30 4916 H 475.676 -0.0174756 -2.54694 0
M  V30 4917 H 476.459 -1.61827 -3.02766 0
M  V30 4918 N 478.904 1.54736 -0.299062 0
M  V30 4919 C 480.153 1.99279 0.311549 0
M  V30 4920 C 480.466 1.19107 1.55154 0
M  V30 4921 O 481.672 1.53908 2.23662 0
M  V30 4922 C 480.128 3.54768 0.605632 0
M  V30 4923 C 479.736 4.43746 -0.615914 0
M  V30 4924 C 481.48 4.07841 1.17754 0
M  V30 4925 C 479.387 5.90663 -0.29509 0
M  V30 4926 H 478.317 0.744359 0.120187 0
M  V30 4927 H 480.968 1.78919 -0.407464 0
M  V30 4928 H 479.35 3.71021 1.38419 0
M  V30 4929 H 480.524 4.39267 -1.39218 0
M  V30 4930 H 478.839 4.01434 -1.10633 0
M  V30 4931 H 481.436 5.15174 1.43179 0
M  V30 4932 H 481.779 3.58324 2.11918 0
M  V30 4933 H 482.312 3.95123 0.460739 0
M  V30 4934 H 479.051 6.44325 -1.20524 0
M  V30 4935 H 478.571 5.98155 0.44394 0
M  V30 4936 H 480.25 6.46916 0.104048 0
M  V30 4937 N 480.382 0.0267497 1.57577 0
M  V30 4938 C 481.628 -0.647596 1.92815 0
M  V30 4939 C 481.983 -1.69872 0.903396 0
M  V30 4940 O 481.276 -1.91429 -0.0808881 0
M  V30 4941 C 481.47 -1.30914 3.3256 0
M  V30 4942 C 481.299 -0.323621 4.48534 0
M  V30 4943 C 480.069 0.0756607 5.05243 0
M  V30 4944 C 482.267 0.42112 5.12573 0
M  V30 4945 N 480.249 1.0566 6.04739 0
M  V30 4946 C 481.62 1.25589 6.07147 0
M  V30 4947 C 483.675 0.482077 4.95561 0
M  V30 4948 C 482.378 2.1461 6.86538 0
M  V30 4949 C 484.404 1.35962 5.75559 0
M  V30 4950 C 483.766 2.18217 6.69747 0
M  V30 4951 H 479.865 -0.209357 0.753454 0
M  V30 4952 H 482.449 0.0933695 1.94476 0
M  V30 4953 H 480.62 -2.02026 3.31723 0
M  V30 4954 H 482.352 -1.94033 3.55153 0
M  V30 4955 H 479.107 -0.298294 4.7266 0
M  V30 4956 H 479.531 1.54324 6.59176 0
M  V30 4957 H 484.173 -0.139609 4.22569 0
M  V30 4958 H 481.891 2.77835 7.58837 0
M  V30 4959 H 485.477 1.41105 5.6443 0
M  V30 4960 H 484.357 2.85022 7.3057 0
M  V30 4961 N 481.861 -1.55662 -0.24637 0
M  V30 4962 C 482.794 -1.85332 -1.33143 0
M  V30 4963 C 483.772 -0.708464 -1.46354 0
M  V30 4964 O 484.956 -0.954274 -1.6256 0
M  V30 4965 C 482.083 -2.0385 -2.70487 0
M  V30 4966 C 481.129 -3.26488 -2.74423 0
M  V30 4967 S 481.962 -4.83124 -2.30979 0
M  V30 4968 C 483.118 -5.04647 -3.70246 0
M  V30 4969 H 483.351 -2.77077 -1.07777 0
M  V30 4970 H 480.884 -1.47776 -0.44738 0
M  V30 4971 H 482.842 -2.15202 -3.49569 0
M  V30 4972 H 481.503 -1.12947 -2.9309 0
M  V30 4973 H 480.696 -3.36413 -3.7529 0
M  V30 4974 H 480.298 -3.13864 -2.03385 0
M  V30 4975 H 482.59 -4.92023 -4.65746 0
M  V30 4976 H 483.533 -6.06625 -3.65255 0
M  V30 4977 H 483.941 -4.32491 -3.62784 0
M  V30 4978 N 483.339 0.512053 -1.4905 0
M  V30 4979 C 484.272 1.63209 -1.59493 0
M  V30 4980 C 485.25 1.56407 -0.444481 0
M  V30 4981 O 486.434 1.76623 -0.658535 0
M  V30 4982 C 483.561 3.01685 -1.53961 0
M  V30 4983 C 482.607 3.26786 -2.74068 0
M  V30 4984 S 483.44 3.11107 -4.35859 0
M  V30 4985 C 484.596 4.51997 -4.32954 0
M  V30 4986 H 484.829 1.54104 -2.54243 0
M  V30 4987 H 482.362 0.696382 -1.37804 0
M  V30 4988 H 484.32 3.81538 -1.51455 0
M  V30 4989 H 482.981 3.08215 -0.605178 0
M  V30 4990 H 482.174 4.27849 -2.66386 0
M  V30 4991 H 481.776 2.54635 -2.73928 0
M  V30 4992 H 484.068 5.43871 -4.03993 0
M  V30 4993 H 485.011 4.64731 -5.34257 0
M  V30 4994 H 485.419 4.32159 -3.63178 0
M  V30 4995 N 484.817 1.37938 0.762283 0
M  V30 4996 C 485.749 1.30349 1.88525 0
M  V30 4997 C 486.762 0.217402 1.61342 0
M  V30 4998 O 487.951 0.474291 1.72084 0
M  V30 4999 C 485.051 0.994844 3.23969 0
M  V30 5000 C 484.224 2.18829 3.78725 0
M  V30 5001 C 483.283 1.84844 4.92665 0
M  V30 5002 O 482.309 2.57244 5.07754 0
M  V30 5003 N 483.511 0.798201 5.74986 0
M  V30 5004 H 486.276 2.27114 1.95549 0
M  V30 5005 H 483.837 1.31686 0.941825 0
M  V30 5006 H 485.829 0.748168 3.97724 0
M  V30 5007 H 484.399 0.115446 3.12387 0
M  V30 5008 H 483.619 2.59615 2.96637 0
M  V30 5009 H 484.907 2.98497 4.1204 0
M  V30 5010 H 484.305 0.197611 5.65355 0
M  V30 5011 H 482.862 0.611396 6.48926 0
M  V30 5012 N 486.295 -0.989507 1.22664 0
M  V30 5013 C 487.523 -1.76496 1.07967 0
M  V30 5014 C 487.938 -1.85148 -0.369543 0
M  V30 5015 O 487.295 -1.32408 -1.25596 0
M  V30 5016 C 487.346 -3.19642 1.68853 0
M  V30 5017 O 487.067 -3.11453 3.08105 0
M  V30 5018 C 488.568 -4.13621 1.59475 0
M  V30 5019 H 485.788 -0.55418 0.378319 0
M  V30 5020 H 488.332 -1.24378 1.62328 0
M  V30 5021 H 486.487 -3.68816 1.18547 0
M  V30 5022 H 486.901 -4.01499 3.37489 0
M  V30 5023 H 488.375 -5.11801 2.06795 0
M  V30 5024 H 488.852 -4.35718 0.55191 0
M  V30 5025 H 489.458 -3.70346 2.09103 0
M  V30 5026 N 487.773 -1.03688 -1.18687 0
M  V30 5027 C 488.706 -0.569112 -2.2099 0
M  V30 5028 C 489.684 0.394315 -1.57746 0
M  V30 5029 O 490.868 0.309519 -1.85941 0
M  V30 5030 C 487.995 0.169104 -3.38278 0
M  V30 5031 C 487.041 -0.746989 -4.19908 0
M  V30 5032 S 487.874 -2.22773 -4.86963 0
M  V30 5033 C 489.03 -1.50025 -6.07654 0
M  V30 5034 H 489.263 -1.43589 -2.60326 0
M  V30 5035 H 486.796 -0.847507 -1.29061 0
M  V30 5036 H 488.754 0.588868 -4.06254 0
M  V30 5037 H 487.415 1.01172 -2.9736 0
M  V30 5038 H 486.608 -0.176626 -5.0369 0
M  V30 5039 H 486.21 -1.10543 -3.5729 0
M  V30 5040 H 488.502 -0.791217 -6.72864 0
M  V30 5041 H 489.445 -2.31498 -6.69189 0
M  V30 5042 H 489.853 -0.994245 -5.55675 0
M  V30 5043 N 489.251 1.34841 -0.815825 0
M  V30 5044 C 490.491 2.00321 -0.406297 0
M  V30 5045 C 490.855 1.63293 1.00992 0
M  V30 5046 O 492.056 2.21563 1.52195 0
M  V30 5047 C 490.327 3.52421 -0.594469 0
M  V30 5048 S 491.886 4.37926 -0.276735 0
M  V30 5049 H 488.704 0.694155 -0.153848 0
M  V30 5050 H 491.306 1.64263 -1.06009 0
M  V30 5051 H 490.01 3.76858 -1.625 0
M  V30 5052 H 489.541 3.9333 0.0743157 0
M  V30 5053 H 491.556 4.87743 0.912215 0
M  V30 5054 N 490.729 0.570148 1.46925 0
M  V30 5055 C 491.954 0.0542592 2.07329 0
M  V30 5056 C 492.379 -1.23582 1.41806 0
M  V30 5057 O 491.737 -1.74341 0.497479 0
M  V30 5058 C 491.785 -0.111175 3.60429 0
M  V30 5059 O 490.889 -1.17071 3.95434 0
M  V30 5060 H 490.23 0.0571425 0.661537 0
M  V30 5061 H 492.76 0.789516 1.88753 0
M  V30 5062 H 492.77 -0.321315 4.06733 0
M  V30 5063 H 491.445 0.831012 4.07513 0
M  V30 5064 H 490.022 -0.940029 3.60857 0
M  V30 5065 N 492.207 -1.54576 0.307264 0
M  V30 5066 C 493.618 -1.8579 -0.184121 0
M  V30 5067 C 493.969 -1.22914 -1.52927 0
M  V30 5068 O 493.094 -0.529126 -2.09831 0
M  V30 5069 C 493.689 -3.37081 -0.340862 0
M  V30 5070 C 492.248 -3.68304 -0.776465 0
M  V30 5071 C 491.395 -2.77076 0.111503 0
M  V30 5072 H 494.346 -1.49656 0.528078 0
M  V30 5073 H 494.367 -3.61922 -1.17443 0
M  V30 5074 H 493.879 -3.82815 0.638309 0
M  V30 5075 H 491.98 -3.28092 -1.76596 0
M  V30 5076 H 492.093 -4.75434 -0.591512 0
M  V30 5077 H 490.457 -2.51374 -0.410256 0
M  V30 5078 H 491.24 -3.25632 1.08714 0
M  V30 5079 N 493.685 -0.035106 -1.57561 0
M  V30 5080 C 494.632 0.94474 -2.10578 0
M  V30 5081 C 495.602 1.3192 -1.00927 0
M  V30 5082 O 496.787 1.41147 -1.28382 0
M  V30 5083 C 493.927 2.21982 -2.64231 0
M  V30 5084 C 493.04 1.90128 -3.87911 0
M  V30 5085 C 492.175 3.11975 -4.29936 0
M  V30 5086 C 491.214 2.75968 -5.46359 0
M  V30 5087 N 490.351 3.90459 -5.83512 0
M  V30 5088 H 495.191 0.485717 -2.94015 0
M  V30 5089 H 492.728 0.228143 -1.4532 0
M  V30 5090 H 494.686 2.96572 -2.9343 0
M  V30 5091 H 493.316 2.6549 -1.83616 0
M  V30 5092 H 492.368 1.05755 -3.65404 0
M  V30 5093 H 493.68 1.59613 -4.72573 0
M  V30 5094 H 492.834 3.9488 -4.60603 0
M  V30 5095 H 491.573 3.45657 -3.44053 0
M  V30 5096 H 490.578 1.91478 -5.1538 0
M  V30 5097 H 491.803 2.43497 -6.33945 0
M  V30 5098 H 489.749 4.23971 -5.00584 0
M  V30 5099 H 489.666 3.63588 -6.62827 0
M  V30 5100 H 490.934 4.7405 -6.18787 0
M  V30 5101 N 495.163 1.55791 0.238111 0
M  V30 5102 C 496.409 1.79211 0.962035 0
M  V30 5103 C 496.764 0.605463 1.82625 0
M  V30 5104 O 496.057 -0.40104 1.87356 0
M  V30 5105 C 496.251 3.05869 1.84875 0
M  V30 5106 C 496.08 4.36739 1.07186 0
M  V30 5107 C 494.85 4.99346 0.773424 0
M  V30 5108 C 497.048 5.1237 0.445168 0
M  V30 5109 N 495.03 6.13894 -0.0266037 0
M  V30 5110 C 496.401 6.19613 -0.219023 0
M  V30 5111 C 498.456 4.96622 0.356522 0
M  V30 5112 C 497.159 7.1282 -0.963358 0
M  V30 5113 C 499.185 5.90214 -0.374304 0
M  V30 5114 C 498.547 6.96872 -1.0271 0
M  V30 5115 H 494.646 0.707627 0.332849 0
M  V30 5116 H 497.23 1.93284 0.234368 0
M  V30 5117 H 495.401 2.93108 2.54837 0
M  V30 5118 H 497.133 3.17547 2.5089 0
M  V30 5119 H 493.888 4.60948 1.08738 0
M  V30 5120 H 494.312 6.75727 -0.414968 0
M  V30 5121 H 498.954 4.14232 0.846878 0
M  V30 5122 H 496.672 7.94704 -1.46529 0
M  V30 5123 H 500.258 5.80106 -0.443678 0
M  V30 5124 H 499.138 7.68045 -1.58358 0
M  V30 5125 N 496.642 -0.504142 1.49319 0
M  V30 5126 C 497.574 -1.62265 1.61872 0
M  V30 5127 C 498.587 -1.54881 0.501573 0
M  V30 5128 O 499.776 -1.6087 0.773497 0
M  V30 5129 C 496.876 -3.01042 1.55651 0
M  V30 5130 C 496.049 -3.33642 2.82845 0
M  V30 5131 C 495.108 -4.51816 2.69719 0
M  V30 5132 O 494.134 -4.53755 3.4365 0
M  V30 5133 N 495.336 -5.51543 1.81055 0
M  V30 5134 H 498.101 -1.51924 2.58339 0
M  V30 5135 H 495.662 -0.691954 1.46368 0
M  V30 5136 H 497.654 -3.78013 1.44528 0
M  V30 5137 H 496.224 -3.05323 0.670546 0
M  V30 5138 H 495.444 -2.45598 3.08343 0
M  V30 5139 H 496.732 -3.5222 3.67177 0
M  V30 5140 H 496.13 -5.52774 1.20241 0
M  V30 5141 H 494.687 -6.27629 1.75856 0
M  V30 5142 N 498.12 -1.38341 -0.754957 0
M  V30 5143 C 499.05 -1.38176 -1.88227 0
M  V30 5144 C 500.031 -0.247873 -1.68284 0
M  V30 5145 O 501.216 -0.45075 -1.88896 0
M  V30 5146 C 498.346 -1.20471 -3.25736 0
M  V30 5147 C 497.3 -2.3105 -3.60278 0
M  V30 5148 C 496.626 -1.98452 -4.96509 0
M  V30 5149 C 497.926 -3.73305 -3.65295 0
M  V30 5150 H 499.62 -2.32512 -1.88622 0
M  V30 5151 H 497.166 -1.1192 -0.906082 0
M  V30 5152 H 499.119 -1.18982 -4.04254 0
M  V30 5153 H 497.843 -0.225965 -3.25817 0
M  V30 5154 H 496.502 -2.31723 -2.84078 0
M  V30 5155 H 496.15 -0.990641 -4.93148 0
M  V30 5156 H 495.85 -2.7251 -5.20588 0
M  V30 5157 H 497.374 -1.98578 -5.77407 0
M  V30 5158 H 498.788 -3.7467 -4.3393 0
M  V30 5159 H 497.185 -4.46557 -4.00883 0
M  V30 5160 H 498.255 -4.05719 -2.65556 0
M  V30 5161 N 499.598 0.982988 -1.23187 0
M  V30 5162 C 500.846 1.72052 -1.06031 0
M  V30 5163 C 501.167 1.90769 0.404019 0
M  V30 5164 O 500.437 1.47446 1.28982 0
M  V30 5165 H 499.017 0.637499 -0.389363 0
M  V30 5166 H 501.679 1.18338 -1.54862 0
M  V30 5167 H 500.775 2.7111 -1.54615 0
M  V30 5168 N 501.076 1.04316 1.18135 0
M  V30 5169 C 502.006 0.657299 2.24058 0
M  V30 5170 C 502.987 -0.340678 1.66654 0
M  V30 5171 O 504.172 -0.220223 1.92947 0
M  V30 5172 C 501.302 0.0220715 3.47293 0
M  V30 5173 C 500.256 0.943857 4.17463 0
M  V30 5174 C 499.582 0.172973 5.3442 0
M  V30 5175 C 500.882 2.26409 4.70677 0
M  V30 5176 H 502.576 1.5428 2.56589 0
M  V30 5177 H 500.122 0.743263 1.23335 0
M  V30 5178 H 502.075 -0.259607 4.206 0
M  V30 5179 H 500.799 -0.898323 3.14003 0
M  V30 5180 H 499.458 1.20996 3.46057 0
M  V30 5181 H 499.106 -0.749907 4.97379 0
M  V30 5182 H 498.806 0.787098 5.82304 0
M  V30 5183 H 500.33 -0.101628 6.10515 0
M  V30 5184 H 501.744 2.04294 5.35665 0
M  V30 5185 H 500.141 2.8314 5.29105 0
M  V30 5186 H 501.211 2.90883 3.87962 0
M  V30 5187 N 502.554 -1.34406 0.822964 0
M  V30 5188 C 503.517 -2.2783 0.250271 0
M  V30 5189 C 504.517 -1.50288 -0.571854 0
M  V30 5190 O 505.707 -1.69825 -0.387952 0
M  V30 5191 C 502.839 -3.34663 -0.649137 0
M  V30 5192 H 504.032 -2.79992 1.07444 0
M  V30 5193 H 501.585 -1.44539 0.594829 0
M  V30 5194 H 502.32 -2.87714 -1.49637 0
M  V30 5195 H 502.105 -3.92052 -0.0611199 0
M  V30 5196 H 503.595 -4.04349 -1.04363 0
M  V30 5197 N 504.032 -0.577932 -1.46621 0
M  V30 5198 C 505.279 -0.0616879 -2.02406 0
M  V30 5199 C 505.607 1.29638 -1.44997 0
M  V30 5200 O 504.862 1.86176 -0.60308 0
M  V30 5201 C 505.161 0.0590832 -3.57351 0
M  V30 5202 C 504.827 -1.23077 -4.33777 0
M  V30 5203 C 503.489 -1.58416 -4.54376 0
M  V30 5204 C 505.841 -2.08457 -4.77698 0
M  V30 5205 C 503.169 -2.78943 -5.16147 0
M  V30 5206 C 505.521 -3.28204 -5.408 0
M  V30 5207 C 504.185 -3.63832 -5.59627 0
M  V30 5208 H 503.455 -0.0225732 -0.740656 0
M  V30 5209 H 506.102 -0.753609 -1.76048 0
M  V30 5210 H 504.407 0.834104 -3.82818 0
M  V30 5211 H 506.104 0.474202 -3.98186 0
M  V30 5212 H 502.694 -0.945652 -4.18038 0
M  V30 5213 H 506.878 -1.82459 -4.61544 0
M  V30 5214 H 502.134 -3.06689 -5.28916 0
M  V30 5215 H 506.308 -3.94634 -5.73792 0
M  V30 5216 H 503.935 -4.57315 -6.07262 0
M  V30 5217 N 505.51 1.54411 -0.315457 0
M  V30 5218 C 506.44 2.27002 0.547039 0
M  V30 5219 C 507.421 1.27492 1.12605 0
M  V30 5220 O 508.606 1.5629 1.15269 0
M  V30 5221 C 505.736 3.02171 1.71201 0
M  V30 5222 C 504.69 4.0895 1.26268 0
M  V30 5223 C 504.016 4.71915 2.51396 0
M  V30 5224 C 505.316 5.20891 0.383419 0
M  V30 5225 H 507.01 2.99343 -0.0584517 0
M  V30 5226 H 504.556 1.4397 -0.0295527 0
M  V30 5227 H 506.509 3.51681 2.32161 0
M  V30 5228 H 505.233 2.27433 2.34397 0
M  V30 5229 H 503.892 3.60312 0.676062 0
M  V30 5230 H 503.54 3.93801 3.12937 0
M  V30 5231 H 503.24 5.44039 2.22026 0
M  V30 5232 H 504.764 5.24195 3.13133 0
M  V30 5233 H 506.178 5.66206 0.899082 0
M  V30 5234 H 504.575 5.99821 0.182857 0
M  V30 5235 H 505.645 4.81324 -0.587821 0
M  V30 5236 N 506.988 0.0434614 1.5754 0
M  V30 5237 C 508.399 -0.493343 1.80064 0
M  V30 5238 C 508.75 -1.71388 0.955023 0
M  V30 5239 O 507.875 -2.15736 0.169434 0
M  V30 5240 C 508.47 -0.90179 3.26578 0
M  V30 5241 C 507.029 -1.38362 3.50047 0
M  V30 5242 C 506.176 -0.355129 2.75017 0
M  V30 5243 H 509.127 0.2694 1.56397 0
M  V30 5244 H 509.148 -1.76523 3.37075 0
M  V30 5245 H 508.66 -0.013271 3.88098 0
M  V30 5246 H 506.761 -2.29159 2.93798 0
M  V30 5247 H 506.874 -1.3811 4.58762 0
M  V30 5248 H 505.238 -0.826348 2.40922 0
M  V30 5249 H 506.021 0.525172 3.39259 0
M  V30 5250 N 508.466 -1.55915 -0.229846 0
M  V30 5251 C 509.429 -1.90914 -1.26824 0
M  V30 5252 C 510.429 -0.786999 -1.40225 0
M  V30 5253 O 511.619 -1.05484 -1.38632 0
M  V30 5254 C 508.751 -2.15264 -2.64337 0
M  V30 5255 H 509.944 -2.8378 -0.969998 0
M  V30 5256 H 507.497 -1.49069 -0.4699 0
M  V30 5257 H 508.232 -1.24923 -2.99274 0
M  V30 5258 H 508.017 -2.97005 -2.55989 0
M  V30 5259 H 509.507 -2.43467 -3.39284 0
M  V30 5260 N 509.944 0.496216 -1.49584 0
M  V30 5261 C 511.169 1.27865 -1.63295 0
M  V30 5262 C 511.594 1.85592 -0.306156 0
M  V30 5263 O 510.952 1.66092 0.726851 0
M  V30 5264 C 511 2.38128 -2.7079 0
M  V30 5265 O 510.104 3.42108 -2.30296 0
M  V30 5266 H 509.445 0.377279 -0.546403 0
M  V30 5267 H 511.975 0.593497 -1.95803 0
M  V30 5268 H 511.985 2.8382 -2.93104 0
M  V30 5269 H 510.66 1.95479 -3.67098 0
M  V30 5270 H 509.237 3.02301 -2.18331 0
M  V30 5271 N 511.423 1.38739 0.74761 0
M  V30 5272 C 512.669 1.35475 1.50912 0
M  V30 5273 C 513.002 -0.0533093 1.94127 0
M  V30 5274 O 512.277 -1.01572 1.65871 0
M  V30 5275 C 512.56 2.31582 2.75757 0
M  V30 5276 C 512.413 3.81274 2.38642 0
M  V30 5277 C 513.732 2.25722 3.77806 0
M  V30 5278 H 510.851 0.493427 0.547447 0
M  V30 5279 H 513.493 1.69634 0.855823 0
M  V30 5280 H 511.643 2.02582 3.31501 0
M  V30 5281 H 513.315 4.20972 1.88626 0
M  V30 5282 H 511.558 3.98664 1.71025 0
M  V30 5283 H 512.229 4.4399 3.27989 0
M  V30 5284 H 514.705 2.51336 3.31616 0
M  V30 5285 H 513.581 2.95069 4.62845 0
M  V30 5286 H 513.842 1.25803 4.23823 0
M  V30 5287 N 512.901 -0.976442 1.23707 0
M  V30 5288 C 514.126 -1.75875 1.09922 0
M  V30 5289 C 514.551 -1.84911 -0.34489 0
M  V30 5290 O 513.909 -1.31363 -1.24954 0
M  V30 5291 C 513.957 -3.16179 1.73388 0
M  V30 5292 O 513.061 -4.00124 0.99871 0
M  V30 5293 H 512.402 -0.540954 0.385052 0
M  V30 5294 H 514.932 -1.22546 1.6384 0
M  V30 5295 H 514.942 -3.66741 1.78788 0
M  V30 5296 H 513.617 -3.08917 2.78466 0
M  V30 5297 H 512.194 -3.58624 1.02193 0
M  V30 5298 N 514.379 -1.04941 -1.1758 0
M  V30 5299 C 515.609 -0.777166 -1.91425 0
M  V30 5300 C 516.017 0.670647 -1.76915 0
M  V30 5301 O 515.36 1.46965 -1.10213 0
M  V30 5302 C 515.422 -1.07495 -3.43052 0
M  V30 5303 C 515.086 -2.51844 -3.81345 0
M  V30 5304 C 516.083 -3.50047 -3.844 0
M  V30 5305 C 513.768 -2.86787 -4.12382 0
M  V30 5306 C 515.762 -4.81239 -4.17957 0
M  V30 5307 C 513.449 -4.18182 -4.45608 0
M  V30 5308 C 514.447 -5.15219 -4.48373 0
M  V30 5309 O 514.135 -6.44258 -4.80819 0
M  V30 5310 H 513.867 -0.282209 -0.614275 0
M  V30 5311 H 516.421 -1.40258 -1.50056 0
M  V30 5312 H 514.651 -0.392437 -3.84704 0
M  V30 5313 H 516.34 -0.78912 -3.98155 0
M  V30 5314 H 517.106 -3.24391 -3.60548 0
M  V30 5315 H 512.985 -2.11922 -4.09402 0
M  V30 5316 H 516.529 -5.56974 -4.2003 0
M  V30 5317 H 512.426 -4.43602 -4.68922 0
M  V30 5318 H 513.194 -6.49041 -4.98686 0
M  V30 5319 N 515.857 1.33968 -0.830081 0
M  V30 5320 C 516.787 2.31911 -0.271911 0
M  V30 5321 C 517.768 1.58571 0.61556 0
M  V30 5322 O 518.953 1.86514 0.540946 0
M  V30 5323 C 516.083 3.42737 0.561146 0
M  V30 5324 C 515.037 4.27383 -0.229789 0
M  V30 5325 C 514.363 5.29742 0.726463 0
M  V30 5326 C 515.663 5.02 -1.44197 0
M  V30 5327 H 517.357 2.78844 -1.09025 0
M  V30 5328 H 514.903 1.34061 -0.52571 0
M  V30 5329 H 516.856 4.10276 0.961867 0
M  V30 5330 H 515.58 2.94471 1.41261 0
M  V30 5331 H 514.239 3.61456 -0.611964 0
M  V30 5332 H 513.887 4.77736 1.57408 0
M  V30 5333 H 513.587 5.87255 0.20142 0
M  V30 5334 H 515.111 6.00149 1.12489 0
M  V30 5335 H 516.525 5.62355 -1.11488 0
M  V30 5336 H 514.922 5.69122 -1.90317 0
M  V30 5337 H 515.992 4.31281 -2.2164 0
M  V30 5338 N 517.335 0.585699 1.46312 0
M  V30 5339 C 518.584 0.0701192 2.01578 0
M  V30 5340 C 518.897 -1.29889 1.46247 0
M  V30 5341 O 520.103 -1.90598 1.93351 0
M  V30 5342 C 518.559 0.0747499 3.59822 0
M  V30 5343 C 518.167 1.44226 4.24149 0
M  V30 5344 C 519.911 -0.38673 4.22735 0
M  V30 5345 C 517.818 1.40446 5.74481 0
M  V30 5346 H 516.748 0.0224441 0.753666 0
M  V30 5347 H 519.399 0.737789 1.68015 0
M  V30 5348 H 517.781 -0.659144 3.90476 0
M  V30 5349 H 518.955 2.19612 4.05101 0
M  V30 5350 H 517.27 1.84401 3.73343 0
M  V30 5351 H 519.867 -0.433853 5.32937 0
M  V30 5352 H 520.21 -1.40489 3.91878 0
M  V30 5353 H 520.743 0.293195 3.96718 0
M  V30 5354 H 517.482 2.39952 6.10003 0
M  V30 5355 H 517.002 0.692845 5.95785 0
M  V30 5356 H 518.681 1.11865 6.37256 0
M  V30 5357 N 518.813 -1.54241 0.323641 0
M  V30 5358 C 520.061 -2.00174 -0.278359 0
M  V30 5359 C 520.382 -1.2134 -1.52648 0
M  V30 5360 O 519.652 -0.315244 -1.93347 0
M  V30 5361 H 518.232 -0.739463 -0.105845 0
M  V30 5362 H 520.894 -1.89864 0.440204 0
M  V30 5363 H 519.99 -3.07486 -0.5347 0
M  V30 5364 N 520.291 -0.0518155 -1.57515 0
M  V30 5365 C 521.519 0.631395 -1.9703 0
M  V30 5366 C 521.934 1.64341 -0.92938 0
M  V30 5367 O 521.291 1.82296 0.0863266 0
M  V30 5368 C 521.342 1.31774 -3.36627 0
M  V30 5369 O 521.063 0.346247 -4.3673 0
M  V30 5370 C 522.564 2.09065 -3.90905 0
M  V30 5371 H 519.784 0.172576 -0.648428 0
M  V30 5372 H 522.328 -0.118306 -2.04158 0
M  V30 5373 H 520.483 2.01867 -3.30649 0
M  V30 5374 H 520.897 0.836226 -5.17791 0
M  V30 5375 H 522.371 2.52508 -4.9086 0
M  V30 5376 H 522.848 2.93908 -3.26366 0
M  V30 5377 H 523.454 1.43882 -4.00223 0
M  V30 5378 N 521.769 1.56035 0.221574 0
M  V30 5379 C 522.717 1.93269 1.29421 0
M  V30 5380 C 523.711 0.814727 1.48521 0
M  V30 5381 O 524.917 0.999559 1.49696 0
M  V30 5382 H 521.292 0.614188 0.43391 0
M  V30 5383 H 523.263 2.82773 0.952987 0
M  V30 5384 C 522.012 2.26573 2.63742 0
M  V30 5385 H 521.335 3.12112 2.49853 0
M  V30 5386 H 522.775 2.5651 3.37607 0
M  V30 5387 C 521.234 1.09086 3.1875 0
M  V30 5388 O 521.764 0.351985 4.00155 0
M  V30 5389 N 519.97 0.874693 2.77124 0
M  V30 5390 H 519.517 1.47726 2.11033 0
M  V30 5391 H 519.475 0.0903349 3.1427 0
M  V30 5392 N 523.247 -0.488276 1.49845 0
M  V30 5393 C 524.177 -1.59675 1.70371 0
M  V30 5394 C 525.158 -1.60878 0.552473 0
M  V30 5395 O 526.343 -1.77417 0.78973 0
M  V30 5396 C 523.473 -2.98098 1.782 0
M  V30 5397 C 522.427 -3.11761 2.93239 0
M  V30 5398 C 521.753 -4.51661 2.86193 0
M  V30 5399 C 523.053 -2.90589 4.33999 0
M  V30 5400 H 524.747 -1.42752 2.63177 0
M  V30 5401 H 522.293 -0.685317 1.26647 0
M  V30 5402 H 524.246 -3.75555 1.91144 0
M  V30 5403 H 522.97 -3.16138 0.820018 0
M  V30 5404 H 521.629 -2.36732 2.79917 0
M  V30 5405 H 521.277 -4.66595 1.87877 0
M  V30 5406 H 520.977 -4.61742 3.63412 0
M  V30 5407 H 522.501 -5.31162 3.01163 0
M  V30 5408 H 523.915 -3.57807 4.47936 0
M  V30 5409 H 522.312 -3.1213 5.12538 0
M  V30 5410 H 523.382 -1.86595 4.4756 0
M  V30 5411 N 524.725 -1.39134 -0.740242 0
M  V30 5412 C 525.972 -1.36071 -1.49969 0
M  V30 5413 C 526.3 0.0450245 -1.94448 0
M  V30 5414 O 525.555 1.02482 -1.66721 0
M  V30 5415 C 525.854 -2.27457 -2.75678 0
M  V30 5416 C 525.52 -3.75185 -2.50094 0
M  V30 5417 C 524.182 -4.15439 -2.42825 0
M  V30 5418 C 526.534 -4.68643 -2.28086 0
M  V30 5419 C 523.862 -5.4722 -2.11584 0
M  V30 5420 C 526.214 -6.00695 -1.98363 0
M  V30 5421 C 524.878 -6.40018 -1.8956 0
M  V30 5422 H 524.148 -0.497921 -0.548777 0
M  V30 5423 H 526.795 -1.71599 -0.85007 0
M  V30 5424 H 525.1 -1.8503 -3.45356 0
M  V30 5425 H 526.797 -2.22384 -3.33686 0
M  V30 5426 H 523.387 -3.43279 -2.56627 0
M  V30 5427 H 527.571 -4.3838 -2.32672 0
M  V30 5428 H 522.827 -5.76615 -2.03287 0
M  V30 5429 H 527.001 -6.72644 -1.80341 0
M  V30 5430 H 524.628 -7.42051 -1.65117 0
M  V30 5431 N 526.204 0.969867 -1.24223 0
M  V30 5432 C 527.452 1.70918 -1.0785 0
M  V30 5433 C 527.773 1.91186 0.383763 0
M  V30 5434 O 527.043 1.48806 1.27411 0
M  V30 5435 H 525.623 0.633334 -0.396103 0
M  V30 5436 H 528.285 1.16689 -1.56108 0
M  V30 5437 H 527.381 2.69455 -1.57482 0
M  V30 5438 N 527.682 1.05563 1.17022 0
M  V30 5439 C 528.928 0.769074 1.87652 0
M  V30 5440 C 529.261 -0.702326 1.81055 0
M  V30 5441 O 528.536 -1.5139 1.22112 0
M  V30 5442 C 528.819 1.25492 3.37526 0
M  V30 5443 C 528.672 2.78953 3.52853 0
M  V30 5444 C 529.991 0.856919 4.31677 0
M  V30 5445 H 527.11 0.280854 0.681388 0
M  V30 5446 H 529.752 1.31027 1.37593 0
M  V30 5447 H 527.902 0.794516 3.80289 0
M  V30 5448 H 529.574 3.33146 3.19079 0
M  V30 5449 H 527.817 3.18046 2.95007 0
M  V30 5450 H 528.488 3.08011 4.58076 0
M  V30 5451 H 530.964 1.25334 3.96775 0
M  V30 5452 H 529.84 1.22443 5.35069 0
M  V30 5453 H 530.101 -0.238787 4.41455 0
M  V30 5454 N 529.16 -1.33526 0.837174 0
M  V30 5455 C 530.09 -2.31764 0.284206 0
M  V30 5456 C 531.071 -1.58896 -0.607142 0
M  V30 5457 O 532.256 -1.86798 -0.531047 0
M  V30 5458 C 529.386 -3.43029 -0.542962 0
M  V30 5459 C 528.34 -4.27255 0.252451 0
M  V30 5460 C 527.666 -5.3012 -0.69836 0
M  V30 5461 C 528.966 -5.01229 1.46858 0
M  V30 5462 H 530.66 -2.78262 1.10502 0
M  V30 5463 H 528.206 -1.3378 0.532812 0
M  V30 5464 H 530.159 -4.1078 -0.940096 0
M  V30 5465 H 528.883 -2.95216 -1.39697 0
M  V30 5466 H 527.542 -3.61127 0.631124 0
M  V30 5467 H 527.19 -4.78564 -1.54872 0
M  V30 5468 H 526.89 -5.87353 -0.170274 0
M  V30 5469 H 528.414 -6.00737 -1.09305 0
M  V30 5470 H 529.828 -5.61756 1.14469 0
M  V30 5471 H 528.225 -5.68104 1.93333 0
M  V30 5472 H 529.295 -4.301 2.23924 0
M  V30 5473 N 530.638 -0.59345 -1.46 0
M  V30 5474 C 531.601 0.123538 -2.28867 0
M  V30 5475 C 532.601 0.808628 -1.38989 0
M  V30 5476 O 533.791 0.658945 -1.61256 0
M  V30 5477 C 530.923 1.1847 -3.19653 0
M  V30 5478 H 532.116 -0.604843 -2.93737 0
M  V30 5479 H 529.669 -0.351875 -1.52288 0
M  V30 5480 H 530.404 1.94431 -2.59552 0
M  V30 5481 H 530.189 0.69783 -3.8584 0
M  V30 5482 H 531.679 1.68726 -3.81997 0
M  V30 5483 N 532.116 1.54067 -0.331816 0
M  V30 5484 C 533.064 2.26105 0.54582 0
M  V30 5485 C 534.058 1.27816 1.11173 0
M  V30 5486 O 535.264 1.45565 1.05882 0
M  V30 5487 H 531.639 0.726363 0.194683 0
M  V30 5488 H 533.61 2.98282 -0.083931 0
M  V30 5489 C 532.359 3.03814 1.69092 0
M  V30 5490 H 531.682 3.79269 1.26473 0
M  V30 5491 H 533.122 3.57453 2.28043 0
M  V30 5492 C 531.581 2.12606 2.61343 0
M  V30 5493 O 532.111 1.71437 3.6328 0
M  V30 5494 N 530.317 1.77925 2.29763 0
M  V30 5495 H 529.864 2.11602 1.46909 0
M  V30 5496 H 529.822 1.1718 2.91747 0
M  V30 5497 N 533.594 0.0601682 1.57485 0
M  V30 5498 C 534.541 -0.91112 2.12055 0
M  V30 5499 C 535.511 -1.30298 1.03013 0
M  V30 5500 O 536.696 -1.39087 1.30612 0
M  V30 5501 C 533.836 -2.1775 2.67729 0
M  V30 5502 C 532.949 -1.83933 3.90887 0
M  V30 5503 C 532.084 -3.05096 4.34845 0
M  V30 5504 C 531.123 -2.67241 5.5068 0
M  V30 5505 N 530.26 -3.81127 5.8965 0
M  V30 5506 H 535.1 -0.43888 2.9475 0
M  V30 5507 H 532.637 -0.204995 1.45665 0
M  V30 5508 H 534.595 -2.91866 2.98111 0
M  V30 5509 H 533.225 -2.62535 1.87816 0
M  V30 5510 H 532.277 -0.999287 3.6704 0
M  V30 5511 H 533.589 -1.52074 4.75052 0
M  V30 5512 H 532.743 -3.87502 4.66827 0
M  V30 5513 H 531.482 -3.40139 3.49509 0
M  V30 5514 H 530.487 -1.83254 5.18361 0
M  V30 5515 H 531.712 -2.3338 6.37738 0
M  V30 5516 H 529.658 -4.15954 5.07266 0
M  V30 5517 H 529.575 -3.52997 6.68528 0
M  V30 5518 H 530.843 -4.64145 6.2625 0
M  V30 5519 N 535.072 -1.5615 -0.213296 0
M  V30 5520 C 536.005 -1.88115 -1.29182 0
M  V30 5521 C 536.983 -0.739348 -1.44819 0
M  V30 5522 O 538.167 -0.988541 -1.605 0
M  V30 5523 C 535.294 -2.09541 -2.66102 0
M  V30 5524 C 534.34 -3.32236 -2.67436 0
M  V30 5525 S 535.173 -4.87915 -2.20679 0
M  V30 5526 C 536.329 -5.12387 -3.59458 0
M  V30 5527 H 536.562 -2.793 -1.01876 0
M  V30 5528 H 534.095 -1.48692 -0.415934 0
M  V30 5529 H 536.053 -2.22568 -3.44925 0
M  V30 5530 H 534.714 -1.19138 -2.90628 0
M  V30 5531 H 533.907 -3.44297 -3.6807 0
M  V30 5532 H 533.509 -3.18108 -1.96681 0
M  V30 5533 H 535.801 -5.01791 -4.55205 0
M  V30 5534 H 536.744 -6.14236 -3.52306 0
M  V30 5535 H 537.152 -4.40089 -3.53528 0
M  V30 5536 N 536.55 0.480323 -1.50102 0
M  V30 5537 C 537.798 1.23063 -1.60312 0
M  V30 5538 C 538.119 1.92659 -0.301226 0
M  V30 5539 O 537.389 1.83691 0.680753 0
M  V30 5540 H 535.969 0.457231 -0.590719 0
M  V30 5541 H 538.631 0.554893 -1.86834 0
M  V30 5542 H 537.727 1.9835 -2.40964 0
M  V30 5543 N 538.028 1.39524 0.732853 0
M  V30 5544 C 539.444 1.21176 1.03868 0
M  V30 5545 C 539.644 0.0748448 2.01361 0
M  V30 5546 O 538.7 -0.57281 2.45917 0
M  V30 5547 C 540.013 2.54667 1.59892 0
M  V30 5548 C 541.561 2.6153 1.71962 0
M  V30 5549 C 542.036 3.95248 2.31394 0
M  V30 5550 N 543.527 3.96899 2.38801 0
M  V30 5551 C 544.262 4.97138 2.85729 0
M  V30 5552 N 543.758 6.07775 3.32537 0
M  V30 5553 N 545.551 4.84516 2.84957 0
M  V30 5554 H 537.702 2.12225 0.086304 0
M  V30 5555 H 539.965 0.942614 0.100907 0
M  V30 5556 H 539.671 3.38423 0.95721 0
M  V30 5557 H 539.545 2.74538 2.58668 0
M  V30 5558 H 541.932 1.78156 2.35254 0
M  V30 5559 H 542.013 2.45507 0.718327 0
M  V30 5560 H 541.657 4.79054 1.68729 0
M  V30 5561 H 541.587 4.08593 3.32204 0
M  V30 5562 H 544.078 3.16998 2.05719 0
M  V30 5563 H 544.391 6.8017 3.66862 0
M  V30 5564 H 542.736 6.11366 3.30541 0
M  V30 5565 H 545.927 3.97185 2.47713 0
M  V30 5566 H 546.1 5.62783 3.21215 0
M  V30 5567 N 539.506 -0.963266 1.24736 0
M  V30 5568 C 540.752 -1.71 1.10139 0
M  V30 5569 C 541.107 -1.89089 -0.35541 0
M  V30 5570 O 540.4 -1.44451 -1.25875 0
M  V30 5571 C 540.594 -3.09944 1.7796 0
M  V30 5572 C 540.423 -3.05408 3.30085 0
M  V30 5573 C 539.193 -3.09643 3.99311 0
M  V30 5574 C 541.391 -2.87241 4.26611 0
M  V30 5575 N 539.373 -2.95174 5.3828 0
M  V30 5576 C 540.744 -2.81114 5.52607 0
M  V30 5577 C 542.799 -2.71856 4.17132 0
M  V30 5578 C 541.502 -2.61174 6.70209 0
M  V30 5579 C 543.528 -2.53284 5.34417 0
M  V30 5580 C 542.89 -2.4787 6.59348 0
M  V30 5581 H 538.989 -0.634078 0.457678 0
M  V30 5582 H 541.573 -1.14169 1.57713 0
M  V30 5583 H 539.744 -3.64958 1.32893 0
M  V30 5584 H 541.476 -3.73348 1.56183 0
M  V30 5585 H 538.231 -3.18498 3.50508 0
M  V30 5586 H 538.655 -2.91168 6.11188 0
M  V30 5587 H 543.297 -2.74821 3.21299 0
M  V30 5588 H 541.015 -2.56952 7.6616 0
M  V30 5589 H 544.601 -2.42317 5.28936 0
M  V30 5590 H 543.481 -2.33685 7.48573 0
M  V30 5591 N 540.985 -1.06182 -1.16461 0
M  V30 5592 C 541.915 -0.692861 -2.22984 0
M  V30 5593 C 542.896 0.314122 -1.67174 0
M  V30 5594 O 544.081 0.189499 -1.93273 0
M  V30 5595 C 541.211 -0.07732 -3.47214 0
M  V30 5596 C 540.165 -1.01015 -4.15909 0
M  V30 5597 C 539.491 -0.257973 -5.34077 0
M  V30 5598 C 540.791 -2.33868 -4.67015 0
M  V30 5599 H 542.485 -1.58343 -2.54102 0
M  V30 5600 H 540.031 -0.76279 -1.22137 0
M  V30 5601 H 541.984 0.19266 -4.20959 0
M  V30 5602 H 540.708 0.848254 -3.15392 0
M  V30 5603 H 539.367 -1.26486 -3.44088 0
M  V30 5604 H 539.015 0.670684 -4.98509 0
M  V30 5605 H 538.715 -0.879638 -5.80979 0
M  V30 5606 H 540.239 0.00448788 -6.106 0
M  V30 5607 H 541.653 -2.1279 -5.32347 0
M  V30 5608 H 540.05 -2.91522 -5.24533 0
M  V30 5609 H 541.12 -2.97019 -3.83286 0
M  V30 5610 N 542.463 1.3308 -0.844243 0
M  V30 5611 C 543.703 1.99414 -0.448697 0
M  V30 5612 C 544.067 1.65398 0.975058 0
M  V30 5613 O 545.268 2.24741 1.47461 0
M  V30 5614 C 543.539 3.51081 -0.669089 0
M  V30 5615 S 545.098 4.37241 -0.369564 0
M  V30 5616 H 541.916 0.690736 -0.168538 0
M  V30 5617 H 544.518 1.61977 -1.0947 0
M  V30 5618 H 543.222 3.73326 -1.70457 0
M  V30 5619 H 542.753 3.93399 -0.00913211 0
M  V30 5620 H 544.768 4.89568 0.808552 0
M  V30 5621 N 543.941 0.601185 1.45683 0
M  V30 5622 C 545.166 0.0982245 2.07167 0
M  V30 5623 C 545.591 -1.20546 1.44396 0
M  V30 5624 O 544.949 -1.73247 0.534347 0
M  V30 5625 C 544.997 -0.0346976 3.60583 0
M  V30 5626 O 544.101 -1.08657 3.97828 0
M  V30 5627 H 543.442 0.0711618 0.660176 0
M  V30 5628 H 545.972 0.829376 1.87036 0
M  V30 5629 H 545.982 -0.234969 4.07323 0
M  V30 5630 H 544.657 0.917265 4.05659 0
M  V30 5631 H 543.234 -0.863275 3.6277 0
M  V30 5632 N 545.419 -1.53889 0.339982 0
M  V30 5633 C 546.349 -2.27843 -0.510856 0
M  V30 5634 C 547.33 -1.29267 -1.10563 0
M  V30 5635 O 548.515 -1.58104 -1.12768 0
M  V30 5636 C 545.645 -3.04857 -1.66372 0
M  V30 5637 C 544.599 -4.10907 -1.19746 0
M  V30 5638 C 543.925 -4.75855 -2.43857 0
M  V30 5639 C 545.225 -5.21435 -0.300501 0
M  V30 5640 H 546.919 -2.99212 0.106067 0
M  V30 5641 H 544.465 -1.43904 0.0524533 0
M  V30 5642 H 546.418 -3.5533 -2.26537 0
M  V30 5643 H 545.142 -2.31133 -2.30749 0
M  V30 5644 H 543.801 -3.61342 -0.618654 0
M  V30 5645 H 543.449 -3.9873 -3.06633 0
M  V30 5646 H 543.149 -5.47502 -2.13343 0
M  V30 5647 H 544.673 -5.2911 -3.04754 0
M  V30 5648 H 546.087 -5.67565 -0.80889 0
M  V30 5649 H 544.484 -6.00036 -0.0874076 0
M  V30 5650 H 545.554 -4.80328 0.664321 0
M  V30 5651 N 546.897 -0.0685191 -1.57451 0
M  V30 5652 C 548.146 0.600898 -1.92541 0
M  V30 5653 C 548.459 1.70967 -0.950239 0
M  V30 5654 O 549.665 2.43844 -1.19384 0
M  V30 5655 C 548.121 1.12019 -3.42023 0
M  V30 5656 C 547.729 0.0426028 -4.4798 0
M  V30 5657 C 549.473 1.76386 -3.86119 0
M  V30 5658 C 547.38 0.575759 -5.88591 0
M  V30 5659 H 546.31 0.228225 -0.71863 0
M  V30 5660 H 548.961 -0.140223 -1.82963 0
M  V30 5661 H 547.343 1.91418 -3.46663 0
M  V30 5662 H 548.517 -0.73182 -4.54952 0
M  V30 5663 H 546.832 -0.504642 -4.13331 0
M  V30 5664 H 549.429 2.17302 -4.88553 0
M  V30 5665 H 549.772 2.62255 -3.23308 0
M  V30 5666 H 550.305 1.03615 -3.84069 0
M  V30 5667 H 547.044 -0.245691 -6.55039 0
M  V30 5668 H 546.564 1.31778 -5.85145 0
M  V30 5669 H 548.243 1.0532 -6.3837 0
M  V30 5670 N 548.375 1.56261 0.205012 0
M  V30 5671 C 549.623 1.79684 0.925096 0
M  V30 5672 C 549.944 0.63989 1.84202 0
M  V30 5673 O 549.214 -0.342345 1.92885 0
M  V30 5674 H 547.794 0.662774 0.344587 0
M  V30 5675 H 550.456 1.93734 0.212899 0
M  V30 5676 H 549.552 2.72467 1.52211 0
M  V30 5677 N 549.853 -0.472356 1.50355 0
M  V30 5678 C 550.786 -1.58923 1.63764 0
M  V30 5679 C 551.764 -1.55173 0.485793 0
M  V30 5680 O 552.948 -1.74815 0.705132 0
M  V30 5681 C 550.075 -2.97497 1.61905 0
M  V30 5682 C 549.121 -3.19405 2.82635 0
M  V30 5683 S 549.954 -2.99441 4.43954 0
M  V30 5684 C 551.11 -4.40359 4.44786 0
M  V30 5685 H 551.343 -1.47309 2.58239 0
M  V30 5686 H 548.876 -0.659601 1.39602 0
M  V30 5687 H 550.834 -3.77389 1.61518 0
M  V30 5688 H 549.495 -3.06502 0.686683 0
M  V30 5689 H 548.688 -4.20636 2.77636 0
M  V30 5690 H 548.29 -2.47283 2.80583 0
M  V30 5691 H 550.582 -5.32969 4.1827 0
M  V30 5692 H 551.525 -4.50403 5.46391 0
M  V30 5693 H 551.933 -4.22378 3.74509 0
M  V30 5694 N 551.331 -1.39911 -0.725443 0
M  V30 5695 C 552.261 -1.42138 -1.85254 0
M  V30 5696 C 553.242 -0.283513 -1.67721 0
M  V30 5697 O 554.427 -0.490717 -1.87898 0
M  V30 5698 C 551.557 -1.27354 -3.23107 0
M  V30 5699 C 550.511 -2.3864 -3.55296 0
M  V30 5700 C 549.837 -2.08939 -4.92188 0
M  V30 5701 C 551.137 -3.8097 -3.57295 0
M  V30 5702 H 552.831 -2.36461 -1.83648 0
M  V30 5703 H 550.377 -1.13817 -0.882138 0
M  V30 5704 H 552.33 -1.2753 -4.01639 0
M  V30 5705 H 551.054 -0.295025 -3.25265 0
M  V30 5706 H 549.713 -2.37696 -2.79099 0
M  V30 5707 H 549.361 -1.09502 -4.90936 0
M  V30 5708 H 549.061 -2.83491 -5.14691 0
M  V30 5709 H 550.585 -2.10781 -5.73065 0
M  V30 5710 H 551.999 -3.8379 -4.25885 0
M  V30 5711 H 550.396 -4.5496 -3.9132 0
M  V30 5712 H 551.466 -4.11261 -2.5689 0
M  V30 5713 N 552.809 0.956637 -1.25245 0
M  V30 5714 C 554.055 1.70352 -1.10036 0
M  V30 5715 C 554.388 1.90869 0.358156 0
M  V30 5716 O 553.663 1.47819 1.26411 0
M  V30 5717 C 553.946 3.08766 -1.85298 0
M  V30 5718 C 553.799 2.95672 -3.38966 0
M  V30 5719 C 555.118 4.08622 -1.63451 0
M  V30 5720 H 552.237 0.618279 -0.401123 0
M  V30 5721 H 554.879 1.11212 -1.54051 0
M  V30 5722 H 553.029 3.59252 -1.47887 0
M  V30 5723 H 554.701 2.52527 -3.86041 0
M  V30 5724 H 552.944 2.31634 -3.6678 0
M  V30 5725 H 553.615 3.93776 -3.86839 0
M  V30 5726 H 556.091 3.67038 -1.96015 0
M  V30 5727 H 554.967 5.03514 -2.18551 0
M  V30 5728 H 555.228 4.3834 -0.575357 0
M  V30 5729 N 554.287 1.06798 1.15896 0
M  V30 5730 C 555.533 0.788934 1.86825 0
M  V30 5731 C 555.866 -0.683084 1.8179 0
M  V30 5732 O 555.141 -1.50086 1.23711 0
M  V30 5733 C 555.424 1.29065 3.36176 0
M  V30 5734 C 555.277 2.8268 3.49874 0
M  V30 5735 C 556.596 0.902655 4.30744 0
M  V30 5736 H 553.715 0.288066 0.678371 0
M  V30 5737 H 556.357 1.32479 1.36195 0
M  V30 5738 H 554.507 0.834806 3.79425 0
M  V30 5739 H 556.179 3.36511 3.15528 0
M  V30 5740 H 554.422 3.21157 2.91617 0
M  V30 5741 H 555.093 3.12852 4.54783 0
M  V30 5742 H 557.569 1.29535 3.95424 0
M  V30 5743 H 556.445 1.28111 5.3374 0
M  V30 5744 H 556.706 -0.191951 4.41683 0
M  V30 5745 N 555.766 -1.3263 0.851289 0
M  V30 5746 C 557.014 -1.96978 0.452128 0
M  V30 5747 C 557.335 -1.67715 -0.99482 0
M  V30 5748 O 556.605 -0.98259 -1.69476 0
M  V30 5749 H 555.185 -0.72873 0.164202 0
M  V30 5750 H 557.847 -1.61774 1.08698 0
M  V30 5751 H 556.943 -3.06387 0.594407 0
M  V30 5752 N 557.244 -0.608902 -1.45362 0
M  V30 5753 C 558.472 -0.111013 -2.06602 0
M  V30 5754 C 558.887 1.20516 -1.45332 0
M  V30 5755 O 558.244 1.73437 -0.567978 0
M  V30 5756 C 558.295 0.033688 -3.61484 0
M  V30 5757 O 558.016 -1.23041 -4.20467 0
M  V30 5758 C 559.517 0.562882 -4.39712 0
M  V30 5759 H 556.737 -0.0694453 -0.667397 0
M  V30 5760 H 559.281 -0.837008 -1.86586 0
M  V30 5761 H 557.436 0.710016 -3.80838 0
M  V30 5762 H 557.85 -1.06094 -5.13658 0
M  V30 5763 H 559.324 0.613213 -5.48583 0
M  V30 5764 H 559.801 1.58543 -4.09586 0
M  V30 5765 H 560.407 -0.0794454 -4.25226 0
M  V30 5766 N 558.722 1.53707 -0.348139 0
M  V30 5767 C 559.947 2.05877 0.250883 0
M  V30 5768 C 560.372 1.22115 1.43072 0
M  V30 5769 O 559.73 0.235986 1.79758 0
M  V30 5770 C 559.778 3.54886 0.639416 0
M  V30 5771 O 558.882 3.73948 1.73888 0
M  V30 5772 H 558.223 0.662754 0.040653 0
M  V30 5773 H 560.753 1.98303 -0.503685 0
M  V30 5774 H 560.763 3.97601 0.915295 0
M  V30 5775 H 559.438 4.153 -0.223386 0
M  V30 5776 H 558.015 3.43134 1.45991 0
M  V30 5777 N 560.2 0.0768682 1.57412 0
M  V30 5778 C 561.13 -0.886026 2.16037 0
M  V30 5779 C 562.111 -1.30691 1.08876 0
M  V30 5780 O 563.296 -1.37705 1.36934 0
M  V30 5781 C 560.426 -2.1518 2.72608 0
M  V30 5782 C 559.38 -1.87015 3.8498 0
M  V30 5783 C 558.706 -3.20266 4.28175 0
M  V30 5784 C 560.006 -1.17143 5.08994 0
M  V30 5785 H 561.7 -0.397642 2.96748 0
M  V30 5786 H 559.246 -0.189823 1.42743 0
M  V30 5787 H 561.199 -2.82962 3.12266 0
M  V30 5788 H 559.923 -2.66269 1.89125 0
M  V30 5789 H 558.582 -1.21636 3.45833 0
M  V30 5790 H 558.23 -3.69207 3.41607 0
M  V30 5791 H 557.93 -3.0221 5.03927 0
M  V30 5792 H 559.454 -3.89237 4.70454 0
M  V30 5793 H 560.868 -1.75003 5.45937 0
M  V30 5794 H 559.265 -1.09328 5.90057 0
M  V30 5795 H 560.335 -0.151295 4.84664 0
M  V30 5796 N 561.678 -1.56367 -0.196722 0
M  V30 5797 C 562.608 -1.97442 -1.24655 0
M  V30 5798 C 563.589 -0.846147 -1.47561 0
M  V30 5799 O 564.774 -1.11035 -1.59326 0
M  V30 5800 C 561.904 -2.31253 -2.59112 0
M  V30 5801 C 560.858 -3.46804 -2.50821 0
M  V30 5802 C 560.184 -3.66286 -3.89536 0
M  V30 5803 C 561.484 -4.8104 -2.03465 0
M  V30 5804 H 563.178 -2.85388 -0.905216 0
M  V30 5805 H 560.724 -1.37304 -0.434002 0
M  V30 5806 H 562.677 -2.58583 -3.32736 0
M  V30 5807 H 561.401 -1.40188 -2.94983 0
M  V30 5808 H 560.06 -3.19563 -1.79653 0
M  V30 5809 H 559.708 -2.72555 -4.22756 0
M  V30 5810 H 559.408 -4.4402 -3.84864 0
M  V30 5811 H 560.932 -3.9599 -4.64784 0
M  V30 5812 H 562.346 -5.07411 -2.66846 0
M  V30 5813 H 560.743 -5.62232 -2.09798 0
M  V30 5814 H 561.813 -4.74732 -0.98781 0
M  V30 5815 N 563.156 0.464375 -1.50603 0
M  V30 5816 C 564.396 1.22573 -1.6357 0
M  V30 5817 C 564.76 1.89111 -0.331834 0
M  V30 5818 O 565.961 2.66679 -0.336999 0
M  V30 5819 C 564.232 2.23643 -2.7878 0
M  V30 5820 S 565.791 3.08628 -3.1192 0
M  V30 5821 H 562.609 0.416058 -0.576556 0
M  V30 5822 H 565.211 0.521637 -1.88412 0
M  V30 5823 H 563.915 1.73354 -3.7199 0
M  V30 5824 H 563.446 2.98672 -2.56044 0
M  V30 5825 H 565.461 4.24904 -2.56264 0
M  V30 5826 N 564.634 1.40294 0.718013 0
M  V30 5827 C 565.88 1.38645 1.48005 0
M  V30 5828 C 566.213 -0.0121202 1.94196 0
M  V30 5829 O 565.488 -0.980309 1.67989 0
M  V30 5830 C 565.771 2.37379 2.70782 0
M  V30 5831 C 565.624 3.8625 2.30501 0
M  V30 5832 C 566.943 2.33685 3.72933 0
M  V30 5833 H 564.062 0.504928 0.536858 0
M  V30 5834 H 566.704 1.71411 0.819649 0
M  V30 5835 H 564.854 2.09568 3.27129 0
M  V30 5836 H 566.526 4.24879 1.79655 0
M  V30 5837 H 564.769 4.02202 1.6253 0
M  V30 5838 H 565.44 4.50847 3.18498 0
M  V30 5839 H 567.916 2.58314 3.2621 0
M  V30 5840 H 566.792 3.0482 4.56482 0
M  V30 5841 H 567.053 1.34765 4.21059 0
M  V30 5842 N 566.112 -0.949982 1.2575 0
M  V30 5843 C 567.523 -1.50989 1.09815 0
M  V30 5844 C 567.874 -1.93497 -0.324556 0
M  V30 5845 O 566.999 -1.79068 -1.21506 0
M  V30 5846 C 567.594 -2.74394 1.98729 0
M  V30 5847 C 566.153 -3.26682 1.86965 0
M  V30 5848 C 565.3 -1.99498 1.92603 0
M  V30 5849 H 568.251 -0.766387 1.38968 0
M  V30 5850 H 568.272 -3.48383 1.53001 0
M  V30 5851 H 567.784 -2.43425 3.02268 0
M  V30 5852 H 565.885 -3.62461 0.863279 0
M  V30 5853 H 565.998 -3.94383 2.72027 0
M  V30 5854 H 564.362 -2.15005 1.36546 0
M  V30 5855 H 565.145 -1.70871 2.97755 0
M  V30 5856 N 567.59 -1.07411 -1.15328 0
M  V30 5857 C 568.52 -0.716472 -2.22236 0
M  V30 5858 C 569.501 0.296373 -1.67498 0
M  V30 5859 O 570.686 0.168989 -1.93463 0
M  V30 5860 C 567.816 -0.114142 -3.47112 0
M  V30 5861 C 566.77 -1.05421 -4.14814 0
M  V30 5862 C 566.096 -0.314604 -5.33774 0
M  V30 5863 C 567.396 -2.38808 -4.64508 0
M  V30 5864 H 569.09 -1.61029 -2.52408 0
M  V30 5865 H 566.636 -0.775702 -1.21321 0
M  V30 5866 H 568.589 0.148001 -4.2114 0
M  V30 5867 H 567.313 0.814755 -3.16274 0
M  V30 5868 H 565.972 -1.30128 -3.42728 0
M  V30 5869 H 565.62 0.617772 -4.99192 0
M  V30 5870 H 565.32 -0.941209 -5.80013 0
M  V30 5871 H 566.844 -0.0602747 -6.1057 0
M  V30 5872 H 568.258 -2.18424 -5.3006 0
M  V30 5873 H 566.655 -2.97069 -5.21412 0
M  V30 5874 H 567.725 -3.01067 -3.80114 0
M  V30 5875 N 569.068 1.32177 -0.85831 0
M  V30 5876 C 570.031 2.27086 -0.310588 0
M  V30 5877 C 571.031 1.51751 0.531806 0
M  V30 5878 O 572.221 1.70794 0.34279 0
M  V30 5879 C 569.353 3.36266 0.560179 0
M  V30 5880 H 570.546 2.77045 -1.1483 0
M  V30 5881 H 568.099 1.42911 -0.632942 0
M  V30 5882 H 568.834 2.9158 1.41956 0
M  V30 5883 H 568.619 3.92077 -0.0428473 0
M  V30 5884 H 570.109 4.06974 0.936056 0
M  V30 5885 N 570.547 0.616602 1.45037 0
M  V30 5886 C 571.497 -0.118543 2.27692 0
M  V30 5887 C 572.481 -0.830025 1.37838 0
M  V30 5888 O 573.673 -0.718528 1.6176 0
M  V30 5889 C 570.802 -1.10924 3.24886 0
M  V30 5890 C 569.888 -0.398134 4.22227 0
M  V30 5891 N 570.279 0.565233 5.02632 0
M  V30 5892 C 568.577 -0.644506 4.41319 0
M  V30 5893 C 569.278 0.984043 5.73316 0
M  V30 5894 N 568.254 0.325879 5.42622 0
M  V30 5895 H 572.056 0.621239 2.87259 0
M  V30 5896 H 569.57 0.440968 1.56299 0
M  V30 5897 H 571.567 -1.65038 3.82842 0
M  V30 5898 H 570.227 -1.84948 2.66879 0
M  V30 5899 H 571.238 0.942395 5.09254 0
M  V30 5900 H 567.915 -1.36873 3.94426 0
M  V30 5901 H 569.305 1.77911 6.47918 0
M  V30 5902 N 572.025 -1.5352 0.356285 0
M  V30 5903 C 572.973 -2.26945 -0.50978 0
M  V30 5904 C 573.967 -1.29569 -1.09125 0
M  V30 5905 O 575.173 -1.47231 -1.03552 0
M  V30 5906 H 571.548 -0.729368 -0.183102 0
M  V30 5907 H 573.519 -2.98111 0.131374 0
M  V30 5908 C 572.268 -3.06466 -1.64237 0
M  V30 5909 H 571.591 -3.81233 -1.20423 0
M  V30 5910 H 573.031 -3.61035 -2.22327 0
M  V30 5911 C 571.49 -2.16737 -2.57928 0
M  V30 5912 O 572.02 -1.77195 -3.60507 0
M  V30 5913 N 570.226 -1.81558 -2.26903 0
M  V30 5914 H 569.773 -2.13913 -1.43524 0
M  V30 5915 H 569.731 -1.21806 -2.89846 0
M  V30 5916 N 573.503 -0.0852151 -1.57369 0
M  V30 5917 C 574.752 0.580443 -1.93168 0
M  V30 5918 C 575.065 1.6995 -0.968319 0
M  V30 5919 O 576.271 2.42564 -1.21963 0
M  V30 5920 C 574.727 1.08386 -3.43192 0
M  V30 5921 C 574.335 -0.00491388 -4.48 0
M  V30 5922 C 576.079 1.72281 -3.87968 0
M  V30 5923 C 573.986 0.513299 -5.89168 0
M  V30 5924 H 572.916 0.22059 -0.72101 0
M  V30 5925 H 575.567 -0.159621 -1.82804 0
M  V30 5926 H 573.949 1.8773 -3.48674 0
M  V30 5927 H 575.123 -0.780032 -4.5415 0
M  V30 5928 H 573.438 -0.548453 -4.12772 0
M  V30 5929 H 576.035 2.12108 -4.9083 0
M  V30 5930 H 576.378 2.58811 -3.26071 0
M  V30 5931 H 576.911 0.995359 -3.85146 0
M  V30 5932 H 573.65 -0.315153 -6.54742 0
M  V30 5933 H 573.17 1.25564 -5.8651 0
M  V30 5934 H 574.849 0.985433 -6.39451 0
M  V30 5935 N 574.981 1.5647 0.188427 0
M  V30 5936 C 576.228 1.81013 0.907779 0
M  V30 5937 C 576.556 0.65953 1.82977 0
M  V30 5938 O 575.811 -0.354308 1.92466 0
M  V30 5939 C 576.11 3.11596 1.7505 0
M  V30 5940 C 575.776 4.40145 0.978922 0
M  V30 5941 C 574.438 4.75066 0.765912 0
M  V30 5942 C 576.79 5.19369 0.436498 0
M  V30 5943 C 574.118 5.867 -0.00089868 0
M  V30 5944 C 576.47 6.31805 -0.317136 0
M  V30 5945 C 575.134 6.65303 -0.541103 0
M  V30 5946 H 574.404 0.662373 0.33218 0
M  V30 5947 H 577.051 1.9071 0.173732 0
M  V30 5948 H 575.356 2.97165 2.55343 0
M  V30 5949 H 577.053 3.27793 2.30983 0
M  V30 5950 H 573.643 4.12745 1.15497 0
M  V30 5951 H 577.827 4.92799 0.588449 0
M  V30 5952 H 573.083 6.11122 -0.184329 0
M  V30 5953 H 577.257 6.92406 -0.744788 0
M  V30 5954 H 574.884 7.51646 -1.13718 0
M  V30 5955 N 576.459 -0.456382 1.50847 0
M  V30 5956 C 577.707 -1.20497 1.62249 0
M  V30 5957 C 578.028 -1.92156 0.331839 0
M  V30 5958 O 577.298 -1.84751 -0.651443 0
M  V30 5959 H 575.878 -0.447775 0.597918 0
M  V30 5960 H 578.54 -0.525099 1.87693 0
M  V30 5961 H 577.636 -1.94492 2.44089 0
M  V30 5962 N 577.937 -1.40673 -0.710563 0
M  V30 5963 C 578.867 -1.44095 -1.83736 0
M  V30 5964 C 579.848 -0.301286 -1.67411 0
M  V30 5965 O 581.033 -0.510618 -1.87367 0
M  V30 5966 C 578.163 -1.30773 -3.21738 0
M  V30 5967 C 577.117 -2.42395 -3.52745 0
M  V30 5968 C 576.443 -2.14147 -4.89944 0
M  V30 5969 C 577.743 -3.84738 -3.53234 0
M  V30 5970 H 579.437 -2.38396 -1.81129 0
M  V30 5971 H 576.983 -1.14746 -0.870017 0
M  V30 5972 H 578.936 -1.31783 -4.00264 0
M  V30 5973 H 577.66 -0.329507 -3.24934 0
M  V30 5974 H 576.319 -2.40643 -2.76562 0
M  V30 5975 H 575.967 -1.14703 -4.89747 0
M  V30 5976 H 575.667 -2.88934 -5.11655 0
M  V30 5977 H 577.191 -2.16848 -5.70797 0
M  V30 5978 H 578.605 -3.88286 -4.2179 0
M  V30 5979 H 577.002 -4.59085 -3.86473 0
M  V30 5980 H 578.072 -4.13962 -2.52514 0
M  V30 5981 N 579.415 0.9433 -1.26252 0
M  V30 5982 C 580.664 1.68369 -1.11062 0
M  V30 5983 C 580.977 1.92514 0.346104 0
M  V30 5984 O 582.183 2.64358 0.618646 0
M  V30 5985 C 580.639 3.03171 -1.93946 0
M  V30 5986 C 580.247 2.86782 -3.4418 0
M  V30 5987 C 581.991 3.80916 -1.87359 0
M  V30 5988 C 579.898 4.17044 -4.19319 0
M  V30 5989 H 578.828 0.631469 -0.412023 0
M  V30 5990 H 581.479 1.04922 -1.50544 0
M  V30 5991 H 579.861 3.67587 -1.47296 0
M  V30 5992 H 581.035 2.31229 -3.98585 0
M  V30 5993 H 579.35 2.22482 -3.51981 0
M  V30 5994 H 581.947 4.77417 -2.40784 0
M  V30 5995 H 582.29 4.07658 -0.843857 0
M  V30 5996 H 582.823 3.2327 -2.31821 0
M  V30 5997 H 579.562 3.95487 -5.22753 0
M  V30 5998 H 579.082 4.72319 -3.69696 0
M  V30 5999 H 580.761 4.85513 -4.27651 0
M  V30 6000 N 580.893 1.08022 1.14757 0
M  V30 6001 C 582.141 0.805913 1.85336 0
M  V30 6002 C 582.462 -0.670162 1.83122 0
M  V30 6003 O 581.732 -1.48567 1.2769 0
M  V30 6004 H 580.312 0.295138 0.686223 0
M  V30 6005 H 582.974 1.36538 1.3908 0
M  V30 6006 H 582.07 1.14655 2.90277 0
M  V30 6007 N 582.371 -1.3172 0.865308 0
M  V30 6008 C 583.782 -1.79104 0.527126 0
M  V30 6009 C 584.133 -1.7135 -0.955695 0
M  V30 6010 O 583.258 -1.27845 -1.74598 0
M  V30 6011 C 583.853 -3.25207 0.950061 0
M  V30 6012 C 582.412 -3.70504 0.663611 0
M  V30 6013 C 581.559 -2.52605 1.14395 0
M  V30 6014 H 584.51 -1.18868 1.05148 0
M  V30 6015 H 584.531 -3.79535 0.270805 0
M  V30 6016 H 584.043 -3.30818 2.02931 0
M  V30 6017 H 582.144 -3.70398 -0.404474 0
M  V30 6018 H 582.257 -4.62845 1.23737 0
M  V30 6019 H 580.621 -2.4838 0.563859 0
M  V30 6020 H 581.404 -2.60964 2.23053 0
M  V30 6021 N 583.85 -0.624285 -1.44708 0
M  V30 6022 C 584.798 0.0969952 -2.32398 0
M  V30 6023 C 585.792 0.842762 -1.46949 0
M  V30 6024 O 586.998 0.756436 -1.63334 0
M  V30 6025 H 583.373 0.0501306 -0.750327 0
M  V30 6026 H 585.344 -0.660767 -2.90992 0
M  V30 6027 C 584.093 1.06967 -3.30837 0
M  V30 6028 H 583.416 0.505242 -3.96595 0
M  V30 6029 H 584.856 1.54397 -3.94889 0
M  V30 6030 C 583.315 2.15153 -2.5925 0
M  V30 6031 O 583.845 3.23139 -2.3863 0
M  V30 6032 N 582.051 1.90898 -2.19103 0
M  V30 6033 H 581.598 1.03086 -2.36074 0
M  V30 6034 H 581.556 2.63485 -1.71531 0
M  V30 6035 N 585.328 1.53329 -0.364422 0
M  V30 6036 C 586.291 2.24323 0.470292 0
M  V30 6037 C 587.291 1.25068 1.01067 0
M  V30 6038 O 588.481 1.49354 0.896605 0
M  V30 6039 C 585.613 2.97908 1.65722 0
M  V30 6040 H 586.806 2.9952 -0.150917 0
M  V30 6041 H 584.359 1.55868 -0.116092 0
M  V30 6042 H 585.094 2.2695 2.31655 0
M  V30 6043 H 584.879 3.70732 1.27671 0
M  V30 6044 H 586.369 3.5188 2.24878 0
M  V30 6045 N 586.806 0.0935595 1.57322 0
M  V30 6046 C 588.054 -0.569383 1.93913 0
M  V30 6047 C 588.375 -1.68817 0.976009 0
M  V30 6048 O 587.645 -1.9588 0.0278099 0
M  V30 6049 H 586.225 -0.21332 0.715894 0
M  V30 6050 H 588.887 0.156531 1.9427 0
M  V30 6051 H 587.983 -0.980577 2.96296 0
M  V30 6052 N 588.284 -1.56567 -0.180126 0
M  V30 6053 C 589.214 -1.98753 -1.22553 0
M  V30 6054 C 590.195 -0.86175 -1.46656 0
M  V30 6055 O 591.38 -1.12719 -1.58139 0
M  V30 6056 C 588.51 -2.33988 -2.56645 0
M  V30 6057 C 587.464 -3.49445 -2.47128 0
M  V30 6058 C 586.79 -3.70397 -3.8563 0
M  V30 6059 C 588.09 -4.83171 -1.98352 0
M  V30 6060 H 589.784 -2.86332 -0.874896 0
M  V30 6061 H 587.33 -1.37757 -0.419414 0
M  V30 6062 H 589.283 -2.62097 -3.29974 0
M  V30 6063 H 588.007 -1.43309 -2.93479 0
M  V30 6064 H 586.666 -3.2145 -1.76254 0
M  V30 6065 H 586.314 -2.77023 -4.19842 0
M  V30 6066 H 586.014 -4.48077 -3.80132 0
M  V30 6067 H 587.538 -4.00897 -4.60558 0
M  V30 6068 H 588.952 -5.10213 -2.61449 0
M  V30 6069 H 587.349 -5.64425 -2.03823 0
M  V30 6070 H 588.419 -4.75753 -0.937402 0
M  V30 6071 N 589.762 0.448376 -1.51087 0
M  V30 6072 C 591.01 1.19635 -1.62886 0
M  V30 6073 C 591.331 1.91977 -0.342024 0
M  V30 6074 O 590.601 1.85094 0.641636 0
M  V30 6075 H 589.181 0.444598 -0.600285 0
M  V30 6076 H 591.843 0.515138 -1.87969 0
M  V30 6077 H 590.939 1.93194 -2.45117 0
M  V30 6078 N 591.24 1.41047 0.703093 0
M  V30 6079 C 592.17 1.45067 1.82969 0
M  V30 6080 C 593.151 0.31016 1.67248 0
M  V30 6081 O 594.336 0.520548 1.87093 0
M  V30 6082 C 591.466 1.32478 3.2104 0
M  V30 6083 C 590.42 2.44262 3.51454 0
M  V30 6084 C 589.746 2.16742 4.88801 0
M  V30 6085 C 591.046 3.86606 3.51189 0
M  V30 6086 H 592.74 2.39353 1.79863 0
M  V30 6087 H 590.286 1.15206 0.863919 0
M  V30 6088 H 592.239 1.33904 3.99559 0
M  V30 6089 H 590.963 0.346735 3.24754 0
M  V30 6090 H 589.622 2.42107 2.75282 0
M  V30 6091 H 589.27 1.17299 4.89132 0
M  V30 6092 H 588.97 2.91643 5.10116 0
M  V30 6093 H 590.494 2.19872 5.69639 0
M  V30 6094 H 591.908 3.90517 4.19725 0
M  V30 6095 H 590.305 4.61128 3.84033 0
M  V30 6096 H 591.375 4.15296 2.50315 0
M  V30 6097 N 592.718 -0.936591 1.26751 0
M  V30 6098 C 593.681 -2.01752 1.08761 0
M  V30 6099 C 594.681 -1.60763 0.0344435 0
M  V30 6100 O 595.871 -1.71963 0.278258 0
M  V30 6101 C 593.003 -3.34543 0.655271 0
M  V30 6102 H 594.196 -2.19143 2.04735 0
M  V30 6103 H 591.749 -1.11618 1.09413 0
M  V30 6104 H 592.484 -3.22851 -0.30626 0
M  V30 6105 H 592.269 -3.65647 1.41578 0
M  V30 6106 H 593.759 -4.13944 0.551378 0
M  V30 6107 N 594.196 -1.08629 -1.14182 0
M  V30 6108 C 595.445 -0.812271 -1.84621 0
M  V30 6109 C 595.758 0.664313 -1.83973 0
M  V30 6110 O 596.964 1.05357 -2.50224 0
M  V30 6111 C 595.42 -1.4031 -3.31423 0
M  V30 6112 C 595.028 -2.91164 -3.40481 0
M  V30 6113 C 596.772 -1.20767 -4.06959 0
M  V30 6114 C 594.679 -3.43373 -4.81507 0
M  V30 6115 H 593.609 -0.30019 -0.691666 0
M  V30 6116 H 596.26 -1.30798 -1.28701 0
M  V30 6117 H 594.642 -0.835096 -3.87094 0
M  V30 6118 H 595.816 -3.5412 -2.94848 0
M  V30 6119 H 594.131 -3.09646 -2.78403 0
M  V30 6120 H 596.728 -1.57237 -5.11058 0
M  V30 6121 H 597.071 -0.147664 -4.16038 0
M  V30 6122 H 597.604 -1.74274 -3.57594 0
M  V30 6123 H 594.343 -4.48958 -4.77616 0
M  V30 6124 H 593.863 -2.85176 -5.27669 0
M  V30 6125 H 595.542 -3.40095 -5.50404 0
M  V30 6126 N 595.674 1.31259 -0.872281 0
M  V30 6127 C 596.922 1.96233 -0.483409 0
M  V30 6128 C 597.243 1.69276 0.968012 0
M  V30 6129 O 596.513 1.00943 1.67891 0
M  V30 6130 H 595.093 0.726025 -0.175774 0
M  V30 6131 H 597.755 1.60024 -1.11258 0
M  V30 6132 H 596.851 3.05403 -0.643075 0
M  V30 6133 N 597.152 0.631951 1.44375 0
M  V30 6134 C 598.085 -0.121822 2.27875 0
M  V30 6135 C 599.063 -0.850457 1.38586 0
M  V30 6136 O 600.247 -0.854378 1.68026 0
M  V30 6137 C 597.374 -1.17859 3.17533 0
M  V30 6138 C 596.42 -0.550391 4.22934 0
M  V30 6139 S 597.253 0.660145 5.31415 0
M  V30 6140 C 598.409 -0.396613 6.24642 0
M  V30 6141 H 598.642 0.586537 2.91457 0
M  V30 6142 H 596.175 0.420146 1.48574 0
M  V30 6143 H 598.133 -1.78335 3.69739 0
M  V30 6144 H 596.794 -1.85915 2.53169 0
M  V30 6145 H 595.987 -1.34631 4.85685 0
M  V30 6146 H 595.589 -0.0202306 3.73995 0
M  V30 6147 H 597.881 -1.26893 6.65511 0
M  V30 6148 H 598.824 0.195345 7.0783 0
M  V30 6149 H 599.232 -0.72288 5.59852 0
M  V30 6150 N 598.631 -1.53133 0.372548 0
M  V30 6151 C 599.877 -2.01654 -0.215277 0
M  V30 6152 C 600.21 -1.25914 -1.47849 0
M  V30 6153 O 599.485 -0.3548 -1.91237 0
M  V30 6154 C 599.768 -3.56609 -0.500187 0
M  V30 6155 C 599.621 -4.43036 0.777145 0
M  V30 6156 C 600.94 -4.20528 -1.29786 0
M  V30 6157 H 598.059 -0.732991 -0.0767686 0
M  V30 6158 H 600.701 -1.83335 0.498814 0
M  V30 6159 H 598.851 -3.7235 -1.10852 0
M  V30 6160 H 600.523 -4.39079 1.41447 0
M  V30 6161 H 598.766 -4.10723 1.39604 0
M  V30 6162 H 599.437 -5.49424 0.532662 0
M  V30 6163 H 601.913 -4.08663 -0.783198 0
M  V30 6164 H 600.789 -5.28962 -1.46596 0
M  V30 6165 H 601.05 -3.77051 -2.30836 0
M  V30 6166 N 600.109 -0.101901 -1.5727 0
M  V30 6167 C 601.386 0.602832 -1.86079 0
M  V30 6168 C 601.766 1.85912 -1 0
M  V30 6169 O 601.114 2.28379 -0.0742488 0
M  V30 6170 C 601.324 0.911694 -3.36881 0
M  V30 6171 C 602.672 1.2722 -4.05093 0
M  V30 6172 O 603.696 1.0025 -3.41802 0
M  V30 6173 O 602.555 1.7776 -5.16782 0
M  V30 6174 H 599.649 0.302366 -0.769743 0
M  V30 6175 H 602.195 -0.135113 -1.69161 0
M  V30 6176 H 600.967 0.0207256 -3.91295 0
M  V30 6177 H 600.59 1.70538 -3.59169 0
M  V30 6178 N 601.587 1.56661 0.17182 0
M  V30 6179 C 602.812 1.86459 0.908165 0
M  V30 6180 C 603.237 0.688181 1.75059 0
M  V30 6181 O 602.595 -0.362753 1.77634 0
M  V30 6182 C 602.643 3.14669 1.76112 0
M  V30 6183 O 601.747 2.96858 2.86268 0
M  V30 6184 H 601.088 0.613318 0.254434 0
M  V30 6185 H 603.618 2.03892 0.170113 0
M  V30 6186 H 603.628 3.46061 2.16115 0
M  V30 6187 H 602.303 3.99905 1.14233 0
M  V30 6188 H 600.88 2.76819 2.49852 0
M  V30 6189 N 603.065 -0.440357 1.51323 0
M  V30 6190 C 604.29 -1.21716 1.67928 0
M  V30 6191 C 604.715 -1.84328 0.374826 0
M  V30 6192 O 604.073 -1.68675 -0.664706 0
M  V30 6193 C 604.121 -2.27914 2.79442 0
M  V30 6194 O 603.225 -3.33325 2.42834 0
M  V30 6195 H 602.566 -0.35674 0.560029 0
M  V30 6196 H 605.096 -0.520417 1.97871 0
M  V30 6197 H 605.106 -2.72746 3.03436 0
M  V30 6198 H 603.781 -1.8172 3.741 0
M  V30 6199 H 602.358 -2.9399 2.294 0
M  V30 6200 N 604.543 -1.41418 -0.695603 0
M  V30 6201 C 605.476 -1.3768 -1.81988 0
M  V30 6202 C 606.454 -0.244061 -1.60758 0
M  V30 6203 O 607.638 -0.430965 -1.83507 0
M  V30 6204 C 604.765 -1.1476 -3.18666 0
M  V30 6205 C 603.811 -2.30752 -3.58686 0
M  V30 6206 S 604.644 -3.9323 -3.63498 0
M  V30 6207 C 605.8 -3.72613 -5.02902 0
M  V30 6208 H 606.033 -2.32822 -1.84882 0
M  V30 6209 H 603.566 -1.27942 -0.86431 0
M  V30 6210 H 605.524 -1.02223 -3.97569 0
M  V30 6211 H 604.185 -0.212385 -3.13381 0
M  V30 6212 H 603.378 -2.10409 -4.57978 0
M  V30 6213 H 602.98 -2.39696 -2.87092 0
M  V30 6214 H 605.272 -3.32317 -5.904 0
M  V30 6215 H 606.215 -4.71507 -5.28286 0
M  V30 6216 H 606.623 -3.0589 -4.74438 0
M  V30 6217 N 606.021 0.929856 -1.27246 0
M  V30 6218 C 606.954 2.03069 -1.04106 0
M  V30 6219 C 607.932 1.62556 0.0378417 0
M  V30 6220 O 609.116 1.88197 -0.106869 0
M  V30 6221 C 606.243 3.33718 -0.578778 0
M  V30 6222 C 605.289 3.93209 -1.65193 0
M  V30 6223 S 606.122 4.26068 -3.24386 0
M  V30 6224 C 607.278 5.598 -2.79954 0
M  V30 6225 H 607.511 2.22386 -1.97311 0
M  V30 6226 H 605.044 1.07269 -1.11053 0
M  V30 6227 H 607.002 4.09261 -0.31874 0
M  V30 6228 H 605.663 3.12328 0.333182 0
M  V30 6229 H 604.856 4.87482 -1.27973 0
M  V30 6230 H 604.458 3.24243 -1.86393 0
M  V30 6231 H 606.75 6.39004 -2.25123 0
M  V30 6232 H 607.693 6.01917 -3.72963 0
M  V30 6233 H 608.101 5.20219 -2.19164 0
M  V30 6234 N 607.499 1.09233 1.13605 0
M  V30 6235 C 608.91 0.846839 1.6639 0
M  V30 6236 C 609.261 -0.625031 1.85978 0
M  V30 6237 O 608.386 -1.48173 1.57714 0
M  V30 6238 C 608.981 1.5307 3.0225 0
M  V30 6239 C 607.54 1.33223 3.52035 0
M  V30 6240 C 606.687 1.58806 2.27323 0
M  V30 6241 H 609.638 1.25175 0.975541 0
M  V30 6242 H 609.659 0.96267 3.68121 0
M  V30 6243 H 609.171 2.60192 2.87961 0
M  V30 6244 H 607.272 0.282091 3.71531 0
M  V30 6245 H 607.385 2.0657 4.32279 0
M  V30 6246 H 605.749 1.01007 2.33815 0
M  V30 6247 H 606.532 2.67153 2.15602 0
M  V30 6248 N 608.977 -1.30795 0.87923 0
M  V30 6249 C 610.226 -1.95636 0.490875 0
M  V30 6250 C 610.539 -1.70214 -0.963674 0
M  V30 6251 O 611.745 -2.28991 -1.45861 0
M  V30 6252 C 610.201 -3.50271 0.826929 0
M  V30 6253 C 609.809 -3.84521 2.29886 0
M  V30 6254 C 611.553 -4.21456 0.507494 0
M  V30 6255 C 609.46 -5.32309 2.57685 0
M  V30 6256 H 608.39 -0.732238 0.179841 0
M  V30 6257 H 611.041 -1.48829 1.07341 0
M  V30 6258 H 609.423 -3.9562 0.173542 0
M  V30 6259 H 610.597 -3.50102 2.99609 0
M  V30 6260 H 608.912 -3.26425 2.58526 0
M  V30 6261 H 611.509 -5.30199 0.692293 0
M  V30 6262 H 611.852 -4.12614 -0.552718 0
M  V30 6263 H 612.385 -3.81772 1.11782 0
M  V30 6264 H 609.124 -5.46195 3.62424 0
M  V30 6265 H 608.644 -5.68048 1.92566 0
M  V30 6266 H 610.323 -5.99678 2.42889 0
M  V30 6267 N 610.455 -0.639598 -1.44038 0
M  V30 6268 C 611.388 0.109736 -2.27936 0
M  V30 6269 C 612.366 0.843095 -1.39035 0
M  V30 6270 O 613.55 0.845456 -1.68476 0
M  V30 6271 C 610.677 1.16173 -3.18153 0
M  V30 6272 C 609.723 0.527954 -4.2322 0
M  V30 6273 S 610.556 -0.688318 -5.31058 0
M  V30 6274 C 611.712 0.363481 -6.24844 0
M  V30 6275 H 611.945 -0.601986 -2.91142 0
M  V30 6276 H 609.478 -0.42802 -1.48349 0
M  V30 6277 H 611.436 1.76372 -3.7068 0
M  V30 6278 H 610.097 1.84569 -2.54151 0
M  V30 6279 H 609.29 1.32054 -4.86393 0
M  V30 6280 H 608.892 0.000396444 -3.74 0
M  V30 6281 H 611.184 1.23362 -6.66174 0
M  V30 6282 H 612.127 -0.23288 -7.07717 0
M  V30 6283 H 612.535 0.693179 -5.60228 0
M  V30 6284 N 611.933 1.52934 -0.380664 0
M  V30 6285 C 613.181 2.01069 0.203874 0
M  V30 6286 C 613.502 1.26922 1.4804 0
M  V30 6287 O 612.772 0.386787 1.92044 0
M  V30 6288 H 611.352 0.742882 0.0783279 0
M  V30 6289 H 614.014 1.88099 -0.510368 0
M  V30 6290 H 613.11 3.09258 0.42021 0
M  V30 6291 N 613.412 0.11024 1.57214 0
M  V30 6292 C 614.362 -0.854147 2.11396 0
M  V30 6293 C 615.346 -1.23394 1.03261 0
M  V30 6294 O 616.538 -1.20649 1.2951 0
M  V30 6295 C 613.667 -2.10752 2.70995 0
M  V30 6296 C 612.753 -1.75249 3.86198 0
M  V30 6297 N 613.144 -1.10377 4.9361 0
M  V30 6298 C 611.442 -2.04763 3.96217 0
M  V30 6299 C 612.143 -0.938199 5.74084 0
M  V30 6300 N 611.119 -1.46039 5.23616 0
M  V30 6301 H 614.921 -0.348897 2.91822 0
M  V30 6302 H 612.435 -0.0925071 1.62136 0
M  V30 6303 H 614.432 -2.80801 3.0815 0
M  V30 6304 H 613.092 -2.61829 1.9203 0
M  V30 6305 H 614.103 -0.768785 5.12162 0
M  V30 6306 H 610.78 -2.57948 3.28282 0
M  V30 6307 H 612.17 -0.429678 6.70525 0
M  V30 6308 N 614.89 -1.56749 -0.16351 0
M  V30 6309 C 615.82 -2.00042 -1.20438 0
M  V30 6310 C 616.801 -0.877256 -1.45733 0
M  V30 6311 O 617.986 -1.1439 -1.56935 0
M  V30 6312 C 615.116 -2.36697 -2.54149 0
M  V30 6313 C 614.07 -3.52046 -2.43408 0
M  V30 6314 C 613.396 -3.74466 -3.81679 0
M  V30 6315 C 614.696 -4.85247 -1.93216 0
M  V30 6316 H 616.39 -2.87244 -0.844477 0
M  V30 6317 H 613.936 -1.38194 -0.40478 0
M  V30 6318 H 615.889 -2.65582 -3.27176 0
M  V30 6319 H 614.613 -1.46414 -2.91943 0
M  V30 6320 H 613.272 -3.23301 -1.72834 0
M  V30 6321 H 612.92 -2.81461 -4.1688 0
M  V30 6322 H 612.62 -4.52084 -3.75359 0
M  V30 6323 H 614.144 -4.0576 -4.5628 0
M  V30 6324 H 615.558 -5.12957 -2.56023 0
M  V30 6325 H 613.955 -5.66556 -1.97825 0
M  V30 6326 H 615.025 -4.7672 -0.88689 0
M  V30 6327 N 616.368 0.432326 -1.51554 0
M  V30 6328 C 617.614 1.18309 -1.64714 0
M  V30 6329 C 617.947 1.90745 -0.364696 0
M  V30 6330 O 617.222 1.8381 0.635936 0
M  V30 6331 C 617.505 2.1961 -2.85383 0
M  V30 6332 C 617.358 1.51223 -4.23617 0
M  V30 6333 C 618.677 3.20538 -3.01569 0
M  V30 6334 H 615.796 0.428751 -0.599451 0
M  V30 6335 H 618.438 0.471689 -1.84052 0
M  V30 6336 H 616.588 2.8028 -2.69027 0
M  V30 6337 H 618.26 0.938516 -4.51652 0
M  V30 6338 H 616.503 0.814501 -4.26085 0
M  V30 6339 H 617.174 2.25024 -5.04052 0
M  V30 6340 H 619.65 2.69926 -3.16669 0
M  V30 6341 H 618.526 3.88706 -3.87555 0
M  V30 6342 H 618.787 3.86933 -2.13859 0
M  V30 6343 N 617.846 1.41785 0.688094 0
M  V30 6344 C 619.123 1.32031 1.44316 0
M  V30 6345 C 619.503 -0.0486079 2.11044 0
M  V30 6346 O 618.851 -1.06332 2.02252 0
M  V30 6347 C 619.061 2.47906 2.45649 0
M  V30 6348 C 620.409 2.89415 3.10683 0
M  V30 6349 O 621.433 2.477 2.55975 0
M  V30 6350 O 620.292 3.61573 4.09789 0
M  V30 6351 H 617.386 0.519994 0.643067 0
M  V30 6352 H 619.932 1.53765 0.71794 0
M  V30 6353 H 618.704 3.39222 1.95048 0
M  V30 6354 H 618.327 2.28089 3.25671 0
M  V30 6355 N 619.324 -0.923095 1.27737 0
M  V30 6356 C 620.254 -2.04124 1.13383 0
M  V30 6357 C 621.235 -1.70066 0.0340658 0
M  V30 6358 O 622.42 -1.93068 0.209383 0
M  V30 6359 C 619.55 -3.3831 0.785097 0
M  V30 6360 C 618.504 -3.86496 1.8386 0
M  V30 6361 C 617.83 -5.1754 1.34373 0
M  V30 6362 C 619.13 -4.09381 3.24353 0
M  V30 6363 H 620.824 -2.1639 2.06919 0
M  V30 6364 H 618.37 -1.03976 0.996243 0
M  V30 6365 H 620.323 -4.16016 0.671485 0
M  V30 6366 H 619.047 -3.2607 -0.185969 0
M  V30 6367 H 617.706 -3.10987 1.9412 0
M  V30 6368 H 617.354 -5.01696 0.361989 0
M  V30 6369 H 617.054 -5.50751 2.04811 0
M  V30 6370 H 618.578 -5.97811 1.24315 0
M  V30 6371 H 619.992 -4.77641 3.17067 0
M  V30 6372 H 618.389 -4.53906 3.92542 0
M  V30 6373 H 619.459 -3.14515 3.69064 0
M  V30 6374 N 620.802 -1.09834 -1.13024 0
M  V30 6375 C 622.218 -0.828875 -1.36388 0
M  V30 6376 C 622.418 0.554756 -1.93713 0
M  V30 6377 O 621.474 1.30882 -2.15931 0
M  V30 6378 C 622.787 -1.92352 -2.3113 0
M  V30 6379 C 624.335 -1.95124 -2.44735 0
M  V30 6380 C 624.81 -3.03745 -3.42787 0
M  V30 6381 N 626.301 -3.03012 -3.5034 0
M  V30 6382 C 627.036 -3.83699 -4.26101 0
M  V30 6383 N 626.532 -4.74306 -5.04981 0
M  V30 6384 N 628.325 -3.71942 -4.21445 0
M  V30 6385 H 620.476 -1.99029 -0.74169 0
M  V30 6386 H 622.739 -0.864557 -0.388903 0
M  V30 6387 H 622.445 -2.91906 -1.96172 0
M  V30 6388 H 622.319 -1.80536 -3.3119 0
M  V30 6389 H 624.706 -0.962069 -2.78977 0
M  V30 6390 H 624.787 -2.11018 -1.44586 0
M  V30 6391 H 624.431 -4.02878 -3.09276 0
M  V30 6392 H 624.361 -2.85094 -4.42752 0
M  V30 6393 H 626.852 -2.37352 -2.94062 0
M  V30 6394 H 627.165 -5.32446 -5.60108 0
M  V30 6395 H 625.51 -4.78339 -5.04199 0
M  V30 6396 H 628.701 -3.00513 -3.589 0
M  V30 6397 H 628.874 -4.35062 -4.80235 0
M  V30 6398 N 622.28 1.30327 -0.886154 0
M  V30 6399 C 623.23 2.25668 -0.325248 0
M  V30 6400 C 624.214 1.51318 0.546972 0
M  V30 6401 O 625.406 1.72623 0.391203 0
M  V30 6402 C 622.535 3.40229 0.458167 0
M  V30 6403 C 621.621 4.21933 -0.428208 0
M  V30 6404 N 622.012 4.82129 -1.52921 0
M  V30 6405 C 620.31 4.45439 -0.223535 0
M  V30 6406 C 621.011 5.43351 -2.07714 0
M  V30 6407 N 619.987 5.26002 -1.37195 0
M  V30 6408 H 623.789 2.69759 -1.1665 0
M  V30 6409 H 621.303 1.4478 -0.735691 0
M  V30 6410 H 623.3 4.07579 0.876648 0
M  V30 6411 H 621.96 2.97678 1.29684 0
M  V30 6412 H 622.971 4.81312 -1.91205 0
M  V30 6413 H 619.648 4.13481 0.577875 0
M  V30 6414 H 621.038 6.01118 -3.00178 0
M  V30 6415 N 623.758 0.647228 1.43697 0
M  V30 6416 C 624.986 0.16575 2.06235 0
M  V30 6417 C 625.401 -1.1662 1.48476 0
M  V30 6418 O 624.758 -1.7187 0.613762 0
M  V30 6419 C 624.809 0.0621651 3.61447 0
M  V30 6420 O 624.53 1.34146 4.17057 0
M  V30 6421 C 626.031 -0.446102 4.4105 0
M  V30 6422 H 623.251 0.0871158 0.665321 0
M  V30 6423 H 625.795 0.886183 1.84301 0
M  V30 6424 H 623.95 -0.608794 3.82587 0
M  V30 6425 H 624.364 1.19675 5.10664 0
M  V30 6426 H 625.838 -0.46755 5.50016 0
M  V30 6427 H 626.315 -1.47627 4.13646 0
M  V30 6428 H 626.921 0.192159 4.24866 0
M  V30 6429 N 625.236 -1.5273 0.388769 0
M  V30 6430 C 626.461 -2.0647 -0.19621 0
M  V30 6431 C 626.886 -1.25865 -1.39784 0
M  V30 6432 O 626.244 -0.283562 -1.79069 0
M  V30 6433 C 626.292 -3.56456 -0.5451 0
M  V30 6434 O 625.396 -3.78426 -1.63912 0
M  V30 6435 H 624.737 -0.663599 -0.023067 0
M  V30 6436 H 627.267 -1.96898 0.556084 0
M  V30 6437 H 627.277 -3.99888 -0.809557 0
M  V30 6438 H 625.952 -4.14561 0.333417 0
M  V30 6439 H 624.529 -3.46884 -1.36842 0
M  V30 6440 N 626.714 -0.118576 -1.57153 0
M  V30 6441 C 627.96 0.540326 -1.95469 0
M  V30 6442 C 628.293 1.66356 -1.00196 0
M  V30 6443 O 627.568 1.94461 -0.039104 0
M  V30 6444 C 627.851 1.07342 -3.43729 0
M  V30 6445 C 627.704 -0.0463732 -4.49776 0
M  V30 6446 C 629.023 1.96442 -3.93826 0
M  V30 6447 H 626.142 0.19494 -0.710751 0
M  V30 6448 H 628.784 -0.19405 -1.89006 0
M  V30 6449 H 626.934 1.69925 -3.49368 0
M  V30 6450 H 628.606 -0.681648 -4.56236 0
M  V30 6451 H 626.849 -0.709574 -4.27957 0
M  V30 6452 H 627.52 0.367856 -5.50773 0
M  V30 6453 H 629.996 1.43731 -3.90488 0
M  V30 6454 H 628.872 2.3066 -4.98084 0
M  V30 6455 H 629.133 2.89077 -3.34495 0
M  V30 6456 N 628.193 1.56834 0.155195 0
M  V30 6457 C 629.423 1.86778 0.883044 0
M  V30 6458 C 629.831 0.703824 1.75622 0
M  V30 6459 O 629.174 -0.33581 1.80605 0
M  V30 6460 C 629.236 3.1133 1.79761 0
M  V30 6461 C 628.9 4.43504 1.10242 0
M  V30 6462 C 629.897 5.17859 0.460204 0
M  V30 6463 C 627.582 4.90233 1.09437 0
M  V30 6464 C 629.576 6.37144 -0.180782 0
M  V30 6465 C 627.263 6.09444 0.449569 0
M  V30 6466 C 628.261 6.82744 -0.186888 0
M  V30 6467 O 627.949 7.99692 -0.821486 0
M  V30 6468 H 627.681 0.62352 0.261149 0
M  V30 6469 H 630.235 2.04813 0.155204 0
M  V30 6470 H 628.465 2.89282 2.56618 0
M  V30 6471 H 630.154 3.27587 2.39669 0
M  V30 6472 H 630.92 4.8283 0.458289 0
M  V30 6473 H 626.799 4.33109 1.57917 0
M  V30 6474 H 630.343 6.94296 -0.678154 0
M  V30 6475 H 626.24 6.43936 0.449123 0
M  V30 6476 H 627.008 8.15306 -0.722337 0
M  V30 6477 N 629.671 -0.424282 1.51781 0
M  V30 6478 C 630.919 -1.17028 1.64769 0
M  V30 6479 C 631.24 -1.91409 0.372523 0
M  V30 6480 O 630.51 -1.86091 -0.612108 0
M  V30 6481 H 629.09 -0.434992 0.607282 0
M  V30 6482 H 631.752 -0.485169 1.88765 0
M  V30 6483 H 630.848 -1.8927 2.4816 0
M  V30 6484 N 631.149 -1.42148 -0.680565 0
M  V30 6485 C 632.374 -1.45901 -1.47403 0
M  V30 6486 C 632.799 -0.0700985 -1.87969 0
M  V30 6487 O 632.157 0.930145 -1.55621 0
M  V30 6488 C 632.205 -2.38661 -2.70321 0
M  V30 6489 O 631.309 -1.85399 -3.68376 0
M  V30 6490 H 630.65 -0.494565 -0.443059 0
M  V30 6491 H 633.18 -1.86774 -0.835251 0
M  V30 6492 H 633.19 -2.55046 -3.18458 0
M  V30 6493 H 631.865 -3.39571 -2.40134 0
M  V30 6494 H 630.442 -1.78541 -3.2738 0
M  V30 6495 N 632.627 0.916307 -1.28225 0
M  V30 6496 C 633.873 1.66765 -1.154 0
M  V30 6497 C 634.206 1.91912 0.297251 0
M  V30 6498 O 633.481 1.51766 1.21644 0
M  V30 6499 C 633.764 3.02715 -1.95028 0
M  V30 6500 C 633.617 2.84738 -3.48201 0
M  V30 6501 C 634.936 4.03215 -1.76369 0
M  V30 6502 H 632.055 0.605205 -0.42059 0
M  V30 6503 H 634.697 1.06255 -1.57512 0
M  V30 6504 H 632.847 3.54365 -1.59242 0
M  V30 6505 H 634.519 2.40118 -3.9388 0
M  V30 6506 H 632.762 2.19848 -3.73964 0
M  V30 6507 H 633.433 3.8127 -3.99171 0
M  V30 6508 H 635.909 3.60617 -2.07593 0
M  V30 6509 H 634.785 4.96306 -2.34459 0
M  V30 6510 H 635.046 4.36288 -0.71452 0
M  V30 6511 N 634.105 1.10431 1.1244 0
M  V30 6512 C 635.335 0.867612 1.87499 0
M  V30 6513 C 635.743 -0.585475 1.79913 0
M  V30 6514 O 635.086 -1.41539 1.171 0
M  V30 6515 C 635.148 1.2374 3.37533 0
M  V30 6516 C 634.812 2.69751 3.68895 0
M  V30 6517 C 635.809 3.67988 3.67261 0
M  V30 6518 C 633.494 3.06135 3.98229 0
M  V30 6519 C 635.488 5.00632 3.9452 0
M  V30 6520 C 633.175 4.38967 4.25149 0
M  V30 6521 C 634.173 5.36025 4.23281 0
M  V30 6522 O 633.861 6.66465 4.49533 0
M  V30 6523 H 633.593 0.311196 0.600111 0
M  V30 6524 H 636.147 1.47257 1.43194 0
M  V30 6525 H 634.377 0.575537 3.82393 0
M  V30 6526 H 636.066 0.978187 3.93937 0
M  V30 6527 H 636.832 3.41224 3.44661 0
M  V30 6528 H 632.711 2.31214 3.98825 0
M  V30 6529 H 636.255 5.7638 3.92978 0
M  V30 6530 H 632.152 4.6547 4.47223 0
M  V30 6531 H 632.92 6.72095 4.67152 0
M  V30 6532 N 635.583 -1.29855 0.893053 0
M  V30 6533 C 636.546 -2.26183 0.370687 0
M  V30 6534 C 637.546 -1.53108 -0.491385 0
M  V30 6535 O 638.736 -1.71643 -0.297386 0
M  V30 6536 C 635.868 -3.37633 -0.470827 0
M  V30 6537 H 637.061 -2.73903 1.22135 0
M  V30 6538 H 634.614 -1.41183 0.67061 0
M  V30 6539 H 635.349 -2.95241 -1.34175 0
M  V30 6540 H 635.134 -3.91825 0.146784 0
M  V30 6541 H 636.624 -4.09313 -0.827825 0
M  V30 6542 N 637.061 -0.65484 -1.43351 0
M  V30 6543 C 638.31 -0.166215 -2.01014 0
M  V30 6544 C 638.623 1.22764 -1.52278 0
M  V30 6545 O 639.829 1.81156 -2.02224 0
M  V30 6546 C 638.285 -0.246341 -3.59056 0
M  V30 6547 C 637.893 -1.64299 -4.16785 0
M  V30 6548 C 639.637 0.184597 -4.24098 0
M  V30 6549 C 637.544 -1.67695 -5.67126 0
M  V30 6550 H 636.474 -0.0583769 -0.751737 0
M  V30 6551 H 639.125 -0.817111 -1.64303 0
M  V30 6552 H 637.507 0.472092 -3.93176 0
M  V30 6553 H 638.681 -2.3869 -3.94162 0
M  V30 6554 H 636.996 -2.02004 -3.6412 0
M  V30 6555 H 639.593 0.179088 -5.344 0
M  V30 6556 H 639.936 1.21632 -3.98135 0
M  V30 6557 H 640.469 -0.482141 -3.94867 0
M  V30 6558 H 637.208 -2.68783 -5.9786 0
M  V30 6559 H 636.728 -0.976313 -5.91801 0
M  V30 6560 H 638.407 -1.42142 -6.31193 0
M  V30 6561 N 638.539 1.52521 -0.396863 0
M  V30 6562 C 639.502 2.2527 0.422604 0
M  V30 6563 C 640.502 1.27184 0.983913 0
M  V30 6564 O 641.692 1.51222 0.864723 0
M  V30 6565 C 638.824 3.01356 1.59365 0
M  V30 6566 H 640.017 2.99133 -0.214416 0
M  V30 6567 H 637.57 1.55587 -0.149128 0
M  V30 6568 H 638.305 2.31813 2.26789 0
M  V30 6569 H 638.09 3.73357 1.19779 0
M  V30 6570 H 639.58 3.56571 2.17363 0
M  V30 6571 N 640.017 0.126909 1.57088 0
M  V30 6572 C 641.294 -0.573152 1.87014 0
M  V30 6573 C 641.674 -1.84297 1.02945 0
M  V30 6574 O 641.022 -2.28232 0.110573 0
M  V30 6575 C 641.232 -0.857984 3.38289 0
M  V30 6576 C 642.58 -1.20759 4.07066 0
M  V30 6577 O 643.604 -0.947992 3.43353 0
M  V30 6578 O 642.463 -1.69516 5.19545 0
M  V30 6579 H 639.557 -0.290082 0.774456 0
M  V30 6580 H 642.103 0.162008 1.68925 0
M  V30 6581 H 640.875 0.0415286 3.91278 0
M  V30 6582 H 640.498 -1.64803 3.61837 0
M  V30 6583 N 641.495 -1.56914 -0.146875 0
M  V30 6584 C 642.741 -1.83628 -0.860741 0
M  V30 6585 C 643.074 -0.708528 -1.80813 0
M  V30 6586 O 642.349 0.287838 -1.92358 0
M  V30 6587 C 642.632 -3.20836 -1.63511 0
M  V30 6588 C 642.485 -4.44174 -0.709199 0
M  V30 6589 C 643.804 -3.55268 -2.59756 0
M  V30 6590 H 640.923 -0.667949 -0.311468 0
M  V30 6591 H 643.565 -1.89582 -0.125936 0
M  V30 6592 H 641.715 -3.15891 -2.26153 0
M  V30 6593 H 643.387 -4.61205 -0.0937781 0
M  V30 6594 H 641.63 -4.33796 -0.0187856 0
M  V30 6595 H 642.301 -5.36785 -1.28707 0
M  V30 6596 H 644.777 -3.60824 -2.07232 0
M  V30 6597 H 643.653 -4.52303 -3.10987 0
M  V30 6598 H 643.914 -2.81231 -3.41118 0
M  V30 6599 N 642.974 0.416227 -1.52004 0
M  V30 6600 C 643.937 1.48926 -1.74223 0
M  V30 6601 C 644.937 1.48693 -0.612119 0
M  V30 6602 O 646.127 1.50343 -0.879921 0
M  V30 6603 C 643.259 2.88372 -1.81809 0
M  V30 6604 H 644.452 1.3052 -2.70008 0
M  V30 6605 H 642.005 0.646271 -1.42313 0
M  V30 6606 H 642.74 3.12157 -0.879135 0
M  V30 6607 H 642.525 2.89944 -2.6396 0
M  V30 6608 H 644.015 3.66173 -2.00766 0
M  V30 6609 N 644.452 1.42507 0.673017 0
M  V30 6610 C 645.699 1.43072 1.43306 0
M  V30 6611 C 646.027 0.0478004 1.94441 0
M  V30 6612 O 645.282 -0.944106 1.71421 0
M  V30 6613 C 645.581 2.40351 2.64511 0
M  V30 6614 C 645.247 3.8669 2.31908 0
M  V30 6615 C 643.909 4.26551 2.22728 0
M  V30 6616 C 646.261 4.78991 2.05467 0
M  V30 6617 C 643.589 5.56691 1.85234 0
M  V30 6618 C 645.941 6.09476 1.69477 0
M  V30 6619 C 644.605 6.48334 1.58808 0
M  V30 6620 H 643.875 0.523536 0.524395 0
M  V30 6621 H 646.522 1.75459 0.76723 0
M  V30 6622 H 644.827 2.01297 3.36135 0
M  V30 6623 H 646.524 2.38051 3.22696 0
M  V30 6624 H 643.114 3.55132 2.39956 0
M  V30 6625 H 647.298 4.48982 2.11492 0
M  V30 6626 H 642.554 5.85657 1.75545 0
M  V30 6627 H 646.728 6.80482 1.48043 0
M  V30 6628 H 644.355 7.49084 1.29525 0
M  V30 6629 N 645.93 -0.909495 1.28709 0
M  V30 6630 C 647.17 -1.67344 1.17368 0
M  V30 6631 C 647.534 -1.90058 -0.272419 0
M  V30 6632 O 648.735 -2.63944 -0.508617 0
M  V30 6633 C 647.006 -2.99219 1.95455 0
M  V30 6634 S 648.565 -3.90295 2.00538 0
M  V30 6635 H 645.383 -0.57466 0.418672 0
M  V30 6636 H 647.985 -1.08144 1.62865 0
M  V30 6637 H 646.689 -2.80393 2.9968 0
M  V30 6638 H 646.22 -3.63464 1.50524 0
M  V30 6639 H 648.235 -4.83511 1.11496 0
M  V30 6640 N 647.408 -1.11026 -1.11852 0
M  V30 6641 C 648.341 -0.708501 -2.16923 0
M  V30 6642 C 649.319 0.293196 -1.59935 0
M  V30 6643 O 650.503 0.190641 -1.87533 0
M  V30 6644 C 647.63 -0.0463705 -3.38668 0
M  V30 6645 C 646.676 -1.01252 -4.14307 0
M  V30 6646 S 647.509 -2.53291 -4.71809 0
M  V30 6647 C 648.665 -1.88366 -5.96883 0
M  V30 6648 H 648.898 -1.59854 -2.50667 0
M  V30 6649 H 646.431 -0.927869 -1.2341 0
M  V30 6650 H 648.389 0.329314 -4.09177 0
M  V30 6651 H 647.05 0.820562 -3.03192 0
M  V30 6652 H 646.243 -0.496596 -5.01548 0
M  V30 6653 H 645.845 -1.33042 -3.49537 0
M  V30 6654 H 648.137 -1.21753 -6.6647 0
M  V30 6655 H 649.08 -2.73588 -6.53112 0
M  V30 6656 H 649.488 -1.34562 -5.48227 0
M  V30 6657 N 648.886 1.2938 -0.899927 0
M  V30 6658 C 650.134 1.95164 -0.524924 0
M  V30 6659 C 650.455 1.71292 0.931888 0
M  V30 6660 O 649.725 1.04481 1.65712 0
M  V30 6661 H 648.305 0.722133 -0.191135 0
M  V30 6662 H 650.967 1.57628 -1.14627 0
M  V30 6663 H 650.063 3.0397 -0.707711 0
M  V30 6664 N 650.364 0.662433 1.43002 0
M  V30 6665 C 651.611 0.179591 2.01702 0
M  V30 6666 C 651.939 -1.20964 1.52309 0
M  V30 6667 O 651.194 -1.82343 0.7106 0
M  V30 6668 C 651.493 0.149363 3.57088 0
M  V30 6669 C 651.159 1.48158 4.25864 0
M  V30 6670 C 649.821 1.84638 4.44367 0
M  V30 6671 C 652.173 2.35953 4.64732 0
M  V30 6672 C 649.501 3.08561 4.99006 0
M  V30 6673 C 651.853 3.59176 5.20745 0
M  V30 6674 C 650.517 3.95841 5.37463 0
M  V30 6675 H 649.787 0.0657172 0.73808 0
M  V30 6676 H 652.434 0.854968 1.71355 0
M  V30 6677 H 650.739 -0.609491 3.8703 0
M  V30 6678 H 652.436 -0.241241 4.00274 0
M  V30 6679 H 649.026 1.18777 4.11813 0
M  V30 6680 H 653.21 2.09058 4.50121 0
M  V30 6681 H 648.466 3.37005 5.10135 0
M  V30 6682 H 652.64 4.27417 5.49807 0
M  V30 6683 H 650.267 4.91942 5.79566 0
M  V30 6684 N 651.842 -1.52309 0.404946 0
M  V30 6685 C 652.805 -2.25491 -0.410651 0
M  V30 6686 C 653.805 -1.27704 -0.977154 0
M  V30 6687 O 654.995 -1.51679 -0.856691 0
M  V30 6688 C 652.127 -3.02197 -1.57765 0
M  V30 6689 H 653.32 -2.99015 0.230277 0
M  V30 6690 H 650.873 -1.55506 0.157377 0
M  V30 6691 H 651.608 -2.33013 -2.25556 0
M  V30 6692 H 651.393 -3.73987 -1.17797 0
M  V30 6693 H 652.883 -3.57719 -2.15469 0
M  V30 6694 N 653.32 -0.135238 -1.57019 0
M  V30 6695 C 654.569 0.518694 -1.94917 0
M  V30 6696 C 654.882 1.66783 -1.0219 0
M  V30 6697 O 656.088 2.38561 -1.29619 0
M  V30 6698 C 654.544 0.974123 -3.46466 0
M  V30 6699 C 654.152 -0.147439 -4.47757 0
M  V30 6700 C 655.896 1.59851 -3.93253 0
M  V30 6701 C 653.803 0.325599 -5.90503 0
M  V30 6702 H 652.733 0.19754 -0.727663 0
M  V30 6703 H 655.384 -0.217698 -1.82204 0
M  V30 6704 H 653.766 1.76542 -3.5447 0
M  V30 6705 H 654.94 -0.924122 -4.51438 0
M  V30 6706 H 653.255 -0.679496 -4.10818 0
M  V30 6707 H 655.852 1.96385 -4.9733 0
M  V30 6708 H 656.195 2.48306 -3.3414 0
M  V30 6709 H 656.728 0.872323 -3.88118 0
M  V30 6710 H 653.467 -0.523295 -6.53408 0
M  V30 6711 H 652.987 1.06841 -5.90208 0
M  V30 6712 H 654.666 0.781498 -6.42263 0
M  V30 6713 N 654.798 1.5699 0.138552 0
M  V30 6714 C 656.046 1.83446 0.848053 0
M  V30 6715 C 656.367 0.71744 1.81322 0
M  V30 6716 O 655.637 -0.260228 1.94164 0
M  V30 6717 H 654.217 0.676792 0.316166 0
M  V30 6718 H 656.879 1.94462 0.130538 0
M  V30 6719 H 655.975 2.78677 1.40518 0
M  V30 6720 N 656.276 -0.40816 1.52223 0
M  V30 6721 C 657.687 -0.986929 1.58482 0
M  V30 6722 C 658.038 -1.91521 0.425917 0
M  V30 6723 O 657.163 -2.11593 -0.453593 0
M  V30 6724 C 657.758 -1.7967 2.87235 0
M  V30 6725 C 656.317 -2.32549 2.9597 0
M  V30 6726 C 655.464 -1.12558 2.53428 0
M  V30 6727 H 658.415 -0.188362 1.57578 0
M  V30 6728 H 658.436 -2.65417 2.72642 0
M  V30 6729 H 657.948 -1.12082 3.71563 0
M  V30 6730 H 656.049 -3.03505 2.16137 0
M  V30 6731 H 656.162 -2.63348 4.00231 0
M  V30 6732 H 654.526 -1.47984 2.07299 0
M  V30 6733 H 655.309 -0.465351 3.40131 0
M  V30 6734 N 657.755 -1.42862 -0.66545 0
M  V30 6735 C 658.98 -1.47456 -1.45848 0
M  V30 6736 C 659.405 -0.0900312 -1.87884 0
M  V30 6737 O 658.763 0.913587 -1.56599 0
M  V30 6738 C 658.811 -2.41514 -2.67774 0
M  V30 6739 O 657.915 -1.89296 -3.66389 0
M  V30 6740 H 657.256 -0.499236 -0.437789 0
M  V30 6741 H 659.786 -1.8765 -0.815394 0
M  V30 6742 H 659.796 -2.58409 -3.15735 0
M  V30 6743 H 658.471 -3.42099 -2.36519 0
M  V30 6744 H 657.048 -1.82003 -3.25468 0
M  V30 6745 N 659.233 0.902656 -1.29189 0
M  V30 6746 C 660.461 1.68639 -1.19869 0
M  V30 6747 C 660.876 1.87254 0.241121 0
M  V30 6748 O 660.233 1.40745 1.16177 0
M  V30 6749 C 660.284 3.07251 -1.90471 0
M  V30 6750 O 660.005 2.89488 -3.28829 0
M  V30 6751 C 661.506 4.01653 -1.8759 0
M  V30 6752 H 658.726 0.526802 -0.415596 0
M  V30 6753 H 661.27 1.12901 -1.7051 0
M  V30 6754 H 659.425 3.59774 -1.43672 0
M  V30 6755 H 659.839 3.77296 -3.64346 0
M  V30 6756 H 661.313 4.96339 -2.4156 0
M  V30 6757 H 661.79 4.30881 -0.850756 0
M  V30 6758 H 662.396 3.55061 -2.34119 0
M  V30 6759 N 660.711 1.11618 1.11262 0
M  V30 6760 C 661.959 0.864469 1.82678 0
M  V30 6761 C 662.28 -0.611564 1.85162 0
M  V30 6762 O 661.55 -1.44429 1.32352 0
M  V30 6763 H 660.13 0.316821 0.676486 0
M  V30 6764 H 662.792 1.40894 1.34666 0
M  V30 6765 H 661.888 1.23832 2.86482 0
M  V30 6766 N 662.189 -1.289 0.906776 0
M  V30 6767 C 663.437 -1.94883 0.535266 0
M  V30 6768 C 663.758 -1.71784 -0.922791 0
M  V30 6769 O 663.028 -1.05359 -1.65156 0
M  V30 6770 H 661.608 -0.721109 0.194962 0
M  V30 6771 H 664.27 -1.57018 1.15461 0
M  V30 6772 H 663.366 -3.03591 0.723821 0
M  V30 6773 N 663.667 -0.670007 -1.42649 0
M  V30 6774 C 664.63 0.00204659 -2.292 0
M  V30 6775 C 665.63 0.733817 -1.4308 0
M  V30 6776 O 666.82 0.57254 -1.64522 0
M  V30 6777 C 663.952 1.01359 -3.25483 0
M  V30 6778 H 665.145 -0.759696 -2.90118 0
M  V30 6779 H 662.698 -0.432105 -1.50208 0
M  V30 6780 H 663.433 1.80399 -2.69493 0
M  V30 6781 H 663.218 0.492323 -3.88997 0
M  V30 6782 H 664.708 1.4824 -3.90403 0
M  V30 6783 N 665.145 1.52092 -0.413018 0
M  V30 6784 C 666.394 2.01041 0.16287 0
M  V30 6785 C 666.707 1.30288 1.45892 0
M  V30 6786 O 667.913 1.70075 2.11629 0
M  V30 6787 C 666.369 3.58283 0.340806 0
M  V30 6788 C 665.977 4.37955 -0.943377 0
M  V30 6789 C 667.721 4.15452 0.871774 0
M  V30 6790 C 665.628 5.86847 -0.732417 0
M  V30 6791 H 664.558 0.751224 0.0646414 0
M  V30 6792 H 667.209 1.75404 -0.539059 0
M  V30 6793 H 665.591 3.80266 1.10516 0
M  V30 6794 H 666.765 4.2773 -1.71418 0
M  V30 6795 H 665.08 3.92122 -1.40105 0
M  V30 6796 H 667.677 5.24375 1.0457 0
M  V30 6797 H 668.02 3.73057 1.84755 0
M  V30 6798 H 668.553 3.97452 0.166377 0
M  V30 6799 H 665.292 6.33609 -1.67986 0
M  V30 6800 H 664.812 5.998 -0.000980058 0
M  V30 6801 H 666.491 6.45906 -0.376105 0
M  V30 6802 N 666.623 0.143563 1.56945 0
M  V30 6803 C 667.869 -0.50916 1.96304 0
M  V30 6804 C 668.202 -1.64741 1.0283 0
M  V30 6805 O 667.477 -1.94374 0.0700361 0
M  V30 6806 C 667.76 -1.0186 3.45393 0
M  V30 6807 C 667.613 0.117923 4.49645 0
M  V30 6808 C 668.932 -1.90151 3.96901 0
M  V30 6809 H 666.051 -0.183608 0.713763 0
M  V30 6810 H 668.693 0.224095 1.88674 0
M  V30 6811 H 666.843 -1.64345 3.52027 0
M  V30 6812 H 668.515 0.754145 4.55094 0
M  V30 6813 H 666.758 0.777568 4.26774 0
M  V30 6814 H 667.429 -0.280187 5.51288 0
M  V30 6815 H 669.905 -1.375 3.92725 0
M  V30 6816 H 668.781 -2.22707 5.0169 0
M  V30 6817 H 669.042 -2.83718 3.39052 0
M  V30 6818 N 668.101 -1.57061 -0.130224 0
M  V30 6819 C 669.048 -1.99517 -1.16024 0
M  V30 6820 C 670.018 -0.865452 -1.41771 0
M  V30 6821 O 671.203 -1.12882 -1.53826 0
M  V30 6822 C 668.343 -2.3951 -2.48453 0
M  V30 6823 C 667.456 -3.65848 -2.29737 0
M  V30 6824 C 666.591 -3.9487 -3.55318 0
M  V30 6825 C 665.63 -5.14426 -3.31711 0
M  V30 6826 N 664.767 -5.39375 -4.49466 0
M  V30 6827 H 669.607 -2.87305 -0.791194 0
M  V30 6828 H 667.144 -1.42129 -0.379195 0
M  V30 6829 H 669.102 -2.60731 -3.25692 0
M  V30 6830 H 667.732 -1.54779 -2.83272 0
M  V30 6831 H 666.784 -3.52307 -1.4347 0
M  V30 6832 H 668.096 -4.53241 -2.08263 0
M  V30 6833 H 667.25 -4.16679 -4.4098 0
M  V30 6834 H 665.989 -3.05931 -3.79813 0
M  V30 6835 H 664.994 -4.92473 -2.44439 0
M  V30 6836 H 666.219 -6.04933 -3.08598 0
M  V30 6837 H 664.165 -4.53391 -4.74102 0
M  V30 6838 H 664.082 -6.21069 -4.31055 0
M  V30 6839 H 665.35 -5.65694 -5.36293 0
M  V30 6840 N 669.579 0.400081 -1.52437 0
M  V30 6841 C 670.542 1.4707 -1.75793 0
M  V30 6842 C 671.542 1.48036 -0.627856 0
M  V30 6843 O 672.732 1.49401 -0.895817 0
M  V30 6844 C 669.864 2.86427 -1.84858 0
M  V30 6845 H 671.057 1.27649 -2.71377 0
M  V30 6846 H 668.61 0.631141 -1.42991 0
M  V30 6847 H 669.345 3.11207 -0.912194 0
M  V30 6848 H 669.13 2.87128 -2.6702 0
M  V30 6849 H 670.62 3.64023 -2.04638 0
M  V30 6850 N 671.057 1.43213 0.657864 0
M  V30 6851 C 672.306 1.43871 1.41365 0
M  V30 6852 C 672.619 0.064898 1.95492 0
M  V30 6853 O 673.825 -0.0510796 2.71452 0
M  V30 6854 C 672.281 2.53158 2.55811 0
M  V30 6855 C 671.889 3.96624 2.08311 0
M  V30 6856 C 673.633 2.63004 3.3321 0
M  V30 6857 C 671.54 4.97385 3.1994 0
M  V30 6858 H 670.47 0.535174 0.531136 0
M  V30 6859 H 673.121 1.69185 0.710543 0
M  V30 6860 H 671.503 2.21037 3.2857 0
M  V30 6861 H 672.677 4.38182 1.42593 0
M  V30 6862 H 670.992 3.90781 1.43804 0
M  V30 6863 H 673.589 3.3546 4.16378 0
M  V30 6864 H 673.932 1.67918 3.80932 0
M  V30 6865 H 674.465 2.94403 2.67529 0
M  V30 6866 H 671.204 5.94007 2.77192 0
M  V30 6867 H 670.724 4.60444 3.84385 0
M  V30 6868 H 672.403 5.19877 3.85145 0
M  V30 6869 N 672.536 -0.895792 1.29666 0
M  V30 6870 C 673.784 -1.64339 1.17631 0
M  V30 6871 C 674.105 -1.93099 -0.271643 0
M  V30 6872 O 673.375 -1.55981 -1.18518 0
M  V30 6873 H 671.955 -0.609162 0.432354 0
M  V30 6874 H 674.617 -1.07389 1.62646 0
M  V30 6875 H 673.713 -2.59815 1.72924 0
M  V30 6876 N 674.014 -1.12206 -1.10668 0
M  V30 6877 C 675.261 -0.875875 -1.82578 0
M  V30 6878 C 675.589 0.598342 -1.85068 0
M  V30 6879 O 674.844 1.45818 -1.3052 0
M  V30 6880 C 675.143 -1.39276 -3.29146 0
M  V30 6881 C 674.809 -2.8816 -3.46806 0
M  V30 6882 C 673.471 -3.28813 -3.51334 0
M  V30 6883 C 675.823 -3.8401 -3.52399 0
M  V30 6884 C 673.151 -4.64028 -3.59019 0
M  V30 6885 C 675.503 -5.19053 -3.61617 0
M  V30 6886 C 674.167 -5.59252 -3.64408 0
M  V30 6887 H 673.437 -0.320505 -0.6681 0
M  V30 6888 H 676.084 -1.40184 -1.30464 0
M  V30 6889 H 674.389 -0.787207 -3.8381 0
M  V30 6890 H 676.086 -1.17851 -3.83291 0
M  V30 6891 H 672.676 -2.55716 -3.43958 0
M  V30 6892 H 676.86 -3.53698 -3.48154 0
M  V30 6893 H 672.116 -4.94568 -3.59461 0
M  V30 6894 H 676.29 -5.93152 -3.64889 0
M  V30 6895 H 673.917 -6.64017 -3.70116 0
M  V30 6896 N 675.492 1.28418 -0.913599 0
M  V30 6897 C 676.903 1.77024 -0.593237 0
M  V30 6898 C 677.254 1.74779 0.891441 0
M  V30 6899 O 676.379 1.34237 1.69733 0
M  V30 6900 C 676.974 3.21456 -1.07011 0
M  V30 6901 C 675.533 3.67786 -0.800664 0
M  V30 6902 C 674.68 2.48185 -1.23691 0
M  V30 6903 H 677.631 1.14883 -1.09487 0
M  V30 6904 H 677.652 3.78269 -0.411481 0
M  V30 6905 H 677.164 3.23058 -2.1507 0
M  V30 6906 H 675.265 3.71644 0.266725 0
M  V30 6907 H 675.378 4.57934 -1.4083 0
M  V30 6908 H 673.742 2.46116 -0.655655 0
M  V30 6909 H 674.525 2.52506 -2.32585 0
M  V30 6910 N 676.97 0.677563 1.42291 0
M  V30 6911 C 678.216 0.209962 2.02313 0
M  V30 6912 C 678.571 -1.1714 1.52631 0
M  V30 6913 O 677.864 -1.7756 0.719938 0
M  V30 6914 C 678.058 0.187229 3.56909 0
M  V30 6915 C 677.887 1.56484 4.21595 0
M  V30 6916 C 676.657 2.16329 4.56651 0
M  V30 6917 C 678.855 2.50805 4.49 0
M  V30 6918 N 676.837 3.46842 5.06531 0
M  V30 6919 C 678.208 3.65976 5.00461 0
M  V30 6920 C 680.263 2.493 4.30992 0
M  V30 6921 C 678.966 4.79899 5.35807 0
M  V30 6922 C 680.992 3.62322 4.67415 0
M  V30 6923 C 680.354 4.76221 5.19031 0
M  V30 6924 H 676.453 0.121815 0.772454 0
M  V30 6925 H 679.037 0.891148 1.73109 0
M  V30 6926 H 677.208 -0.46338 3.85626 0
M  V30 6927 H 678.94 -0.293512 4.03634 0
M  V30 6928 H 675.695 1.6879 4.42501 0
M  V30 6929 H 676.119 4.13694 5.35898 0
M  V30 6930 H 680.761 1.62467 3.90339 0
M  V30 6931 H 678.479 5.67406 5.75392 0
M  V30 6932 H 682.065 3.62388 4.55155 0
M  V30 6933 H 680.945 5.62228 5.46689 0
M  V30 6934 N 678.448 -1.51871 0.421078 0
M  V30 6935 C 679.378 -2.30231 -0.389363 0
M  V30 6936 C 680.359 -1.34946 -1.03555 0
M  V30 6937 O 681.544 -1.63859 -1.04229 0
M  V30 6938 C 678.674 -3.13247 -1.49979 0
M  V30 6939 C 677.628 -4.16677 -0.977966 0
M  V30 6940 C 676.954 -4.88112 -2.1829 0
M  V30 6941 C 678.254 -5.22295 -0.0236775 0
M  V30 6942 H 679.948 -2.98229 0.264524 0
M  V30 6943 H 677.494 -1.43424 0.12866 0
M  V30 6944 H 679.447 -3.66838 -2.07383 0
M  V30 6945 H 678.171 -2.4304 -2.18173 0
M  V30 6946 H 676.83 -3.64114 -0.426245 0
M  V30 6947 H 676.478 -4.14423 -2.85066 0
M  V30 6948 H 676.178 -5.58041 -1.84021 0
M  V30 6949 H 677.702 -5.44521 -2.76278 0
M  V30 6950 H 679.116 -5.71055 -0.506899 0
M  V30 6951 H 677.513 -5.99656 0.230782 0
M  V30 6952 H 678.583 -4.76131 0.917999 0
M  V30 6953 N 679.926 -0.151884 -1.56866 0
M  V30 6954 C 680.859 0.824094 -2.128 0
M  V30 6955 C 681.837 1.2391 -1.05286 0
M  V30 6956 O 683.021 1.33433 -1.33146 0
M  V30 6957 C 680.148 2.1072 -2.65169 0
M  V30 6958 C 679.194 1.83774 -3.84876 0
M  V30 6959 S 680.027 1.02436 -5.25611 0
M  V30 6960 C 681.183 2.31855 -5.81373 0
M  V30 6961 H 681.416 0.348456 -2.95251 0
M  V30 6962 H 678.949 0.0624794 -1.54274 0
M  V30 6963 H 680.907 2.84428 -2.95992 0
M  V30 6964 H 679.568 2.55398 -1.8284 0
M  V30 6965 H 678.761 2.78929 -4.19779 0
M  V30 6966 H 678.363 1.18172 -3.5484 0
M  V30 6967 H 680.655 3.27469 -5.93102 0
M  V30 6968 H 681.598 2.01449 -6.7884 0
M  V30 6969 H 682.006 2.42727 -5.09651 0
M  V30 6970 N 681.404 1.57128 0.121893 0
M  V30 6971 C 682.65 1.84974 0.831418 0
M  V30 6972 C 682.983 0.737204 1.79663 0
M  V30 6973 O 682.258 -0.257199 1.92792 0
M  V30 6974 C 682.541 3.23397 1.58386 0
M  V30 6975 C 682.394 4.45246 0.638445 0
M  V30 6976 C 683.713 3.59355 2.54071 0
M  V30 6977 H 680.832 0.67282 0.300803 0
M  V30 6978 H 683.474 1.89759 0.0957587 0
M  V30 6979 H 681.624 3.19449 2.21098 0
M  V30 6980 H 683.296 4.61295 0.0203925 0
M  V30 6981 H 681.539 4.33771 -0.05023 0
M  V30 6982 H 682.21 5.38765 1.20151 0
M  V30 6983 H 684.686 3.64075 2.01465 0
M  V30 6984 H 683.562 4.57193 3.03752 0
M  V30 6985 H 683.823 2.86622 3.36601 0
M  V30 6986 N 682.882 -0.391992 1.52647 0
M  V30 6987 C 684.131 -1.13449 1.6677 0
M  V30 6988 C 684.444 -1.91203 0.412399 0
M  V30 6989 O 685.65 -2.68013 0.433707 0
M  V30 6990 C 684.106 -2.06577 2.9471 0
M  V30 6991 C 683.714 -1.3426 4.27409 0
M  V30 6992 C 685.458 -2.80981 3.18198 0
M  V30 6993 C 683.365 -2.26136 5.46458 0
M  V30 6994 H 682.295 -0.427211 0.621295 0
M  V30 6995 H 684.946 -0.397522 1.79142 0
M  V30 6996 H 683.328 -2.83898 2.76076 0
M  V30 6997 H 684.502 -0.621856 4.56585 0
M  V30 6998 H 682.817 -0.718279 4.10158 0
M  V30 6999 H 685.414 -3.49898 4.04321 0
M  V30 7000 H 685.757 -3.44891 2.33144 0
M  V30 7001 H 686.29 -2.10754 3.37383 0
M  V30 7002 H 683.029 -1.66846 6.33911 0
M  V30 7003 H 682.549 -2.96134 5.21598 0
M  V30 7004 H 684.228 -2.86286 5.80215 0
M  V30 7005 N 684.36 -1.4356 -0.65026 0
M  V30 7006 C 685.588 -1.48779 -1.43779 0
M  V30 7007 C 686.003 -0.106593 -1.88499 0
M  V30 7008 O 685.36 0.883766 -1.59674 0
M  V30 7009 C 685.411 -2.43618 -2.67081 0
M  V30 7010 O 685.132 -3.76367 -2.24231 0
M  V30 7011 C 686.633 -2.5811 -3.60409 0
M  V30 7012 H 683.853 -0.50521 -0.441593 0
M  V30 7013 H 686.397 -1.88332 -0.796941 0
M  V30 7014 H 684.552 -2.07253 -3.273 0
M  V30 7015 H 684.966 -4.27394 -3.0403 0
M  V30 7016 H 686.44 -3.28539 -4.43583 0
M  V30 7017 H 686.917 -1.627 -4.07953 0
M  V30 7018 H 687.523 -2.95298 -3.0607 0
M  V30 7019 N 685.838 0.888903 -1.30139 0
M  V30 7020 C 687.086 1.63713 -1.18501 0
M  V30 7021 C 687.407 1.9324 0.261399 0
M  V30 7022 O 686.677 1.56608 1.17689 0
M  V30 7023 H 685.257 0.606861 -0.435579 0
M  V30 7024 H 687.919 1.06525 -1.63213 0
M  V30 7025 H 687.015 2.58894 -1.743 0
M  V30 7026 N 687.317 1.12792 1.10072 0
M  V30 7027 C 688.563 0.886857 1.82381 0
M  V30 7028 C 688.896 -0.58576 1.85155 0
M  V30 7029 O 688.171 -1.43317 1.31493 0
M  V30 7030 C 688.454 1.46703 3.28862 0
M  V30 7031 C 688.307 3.00829 3.34398 0
M  V30 7032 C 689.626 1.12971 4.25353 0
M  V30 7033 H 686.745 0.32362 0.662148 0
M  V30 7034 H 689.387 1.39513 1.28982 0
M  V30 7035 H 687.537 1.03476 3.74466 0
M  V30 7036 H 689.209 3.52764 2.97247 0
M  V30 7037 H 687.452 3.36164 2.74183 0
M  V30 7038 H 688.123 3.36519 4.3756 0
M  V30 7039 H 690.599 1.50313 3.88001 0
M  V30 7040 H 689.475 1.56223 5.26199 0
M  V30 7041 H 689.736 0.0424452 4.4208 0
M  V30 7042 N 688.795 -1.27931 0.920396 0
M  V30 7043 C 690.044 -1.93975 0.552867 0
M  V30 7044 C 690.357 -1.73193 -0.909035 0
M  V30 7045 O 691.563 -2.33515 -1.38502 0
M  V30 7046 C 690.019 -3.47463 0.937947 0
M  V30 7047 C 689.627 -3.77013 2.42003 0
M  V30 7048 C 691.371 -4.19628 0.64132 0
M  V30 7049 C 689.278 -5.23841 2.74489 0
M  V30 7050 H 688.208 -0.726146 0.203046 0
M  V30 7051 H 690.859 -1.45339 1.12022 0
M  V30 7052 H 689.241 -3.94867 0.299317 0
M  V30 7053 H 690.415 -3.40393 3.10595 0
M  V30 7054 H 688.73 -3.18035 2.6878 0
M  V30 7055 H 691.327 -5.27729 0.860622 0
M  V30 7056 H 691.67 -4.14164 -0.421168 0
M  V30 7057 H 692.203 -3.78022 1.23872 0
M  V30 7058 H 688.942 -5.34388 3.79618 0
M  V30 7059 H 688.462 -5.61634 2.1054 0
M  V30 7060 H 690.141 -5.91647 2.61845 0
M  V30 7061 N 690.273 -0.685099 -1.4193 0
M  V30 7062 C 691.221 -0.00165985 -2.326 0
M  V30 7063 C 692.215 0.779678 -1.50391 0
M  V30 7064 O 693.421 0.68648 -1.66395 0
M  V30 7065 H 689.796 0.0182616 -0.751778 0
M  V30 7066 H 691.767 -0.783592 -2.87928 0
M  V30 7067 C 690.516 0.928385 -3.35077 0
M  V30 7068 H 689.839 0.336578 -3.98381 0
M  V30 7069 H 691.279 1.37509 -4.01083 0
M  V30 7070 C 689.738 2.03964 -2.68142 0
M  V30 7071 O 690.268 3.12727 -2.5212 0
M  V30 7072 N 688.474 1.81433 -2.27003 0
M  V30 7073 H 688.021 0.929807 -2.40234 0
M  V30 7074 H 687.979 2.55973 -1.82552 0
M  V30 7075 N 691.751 1.51645 -0.429126 0
M  V30 7076 C 693 2.01203 0.141538 0
M  V30 7077 C 693.313 1.31828 1.44502 0
M  V30 7078 O 694.519 1.7231 2.09813 0
M  V30 7079 C 692.975 3.58624 0.302786 0
M  V30 7080 C 692.583 4.3693 -0.989775 0
M  V30 7081 C 694.327 4.16353 0.827661 0
M  V30 7082 C 692.234 5.86037 -0.794619 0
M  V30 7083 H 691.164 0.751867 0.05667 0
M  V30 7084 H 693.815 1.74822 -0.557633 0
M  V30 7085 H 692.197 3.81417 1.06476 0
M  V30 7086 H 693.371 4.25887 -1.75945 0
M  V30 7087 H 691.686 3.90614 -1.44256 0
M  V30 7088 H 694.283 5.25455 0.990026 0
M  V30 7089 H 694.626 3.74995 1.80787 0
M  V30 7090 H 695.159 3.97606 0.124213 0
M  V30 7091 H 691.898 6.31792 -1.74697 0
M  V30 7092 H 691.418 5.99765 -0.0645968 0
M  V30 7093 H 693.097 6.45471 -0.444591 0
M  V30 7094 N 693.229 0.160201 1.56784 0
M  V30 7095 C 694.475 -0.48831 1.96833 0
M  V30 7096 C 694.808 -1.63641 1.04571 0
M  V30 7097 O 694.083 -1.94289 0.0906481 0
M  V30 7098 C 694.366 -0.981908 3.46454 0
M  V30 7099 C 694.219 0.165607 4.49495 0
M  V30 7100 C 695.538 -1.85931 3.98896 0
M  V30 7101 H 692.657 -0.176027 0.71567 0
M  V30 7102 H 695.299 0.244093 1.88426 0
M  V30 7103 H 693.449 -1.60602 3.5375 0
M  V30 7104 H 695.121 0.802372 4.54268 0
M  V30 7105 H 693.364 0.822789 4.25926 0
M  V30 7106 H 694.035 -0.221699 5.51555 0
M  V30 7107 H 696.511 -1.33327 3.94161 0
M  V30 7108 H 695.387 -2.17373 5.04024 0
M  V30 7109 H 695.648 -2.80106 3.42042 0
M  V30 7110 N 694.707 -1.5719 -0.113559 0
M  V30 7111 C 695.937 -1.89053 -0.833212 0
M  V30 7112 C 696.345 -0.750139 -1.73694 0
M  V30 7113 O 695.688 0.287808 -1.81431 0
M  V30 7114 C 695.75 -3.15986 -1.71443 0
M  V30 7115 C 695.414 -4.46271 -0.984449 0
M  V30 7116 C 696.411 -5.18897 -0.322741 0
M  V30 7117 C 694.096 -4.92963 -0.964011 0
M  V30 7118 C 696.09 -6.3644 0.349646 0
M  V30 7119 C 693.777 -6.10422 -0.287828 0
M  V30 7120 C 694.775 -6.82009 0.36784 0
M  V30 7121 O 694.463 -7.97233 1.03322 0
M  V30 7122 H 694.195 -0.630225 -0.244526 0
M  V30 7123 H 696.749 -2.05152 -0.100847 0
M  V30 7124 H 694.979 -2.95984 -2.48858 0
M  V30 7125 H 696.668 -3.33826 -2.309 0
M  V30 7126 H 697.434 -4.83875 -0.330114 0
M  V30 7127 H 693.313 -4.37143 -1.46379 0
M  V30 7128 H 696.857 -6.92254 0.861996 0
M  V30 7129 H 692.754 -6.449 -0.278237 0
M  V30 7130 H 693.522 -8.13105 0.938247 0
M  V30 7131 N 696.185 0.383891 -1.52853 0
M  V30 7132 C 697.148 1.45197 -1.77343 0
M  V30 7133 C 698.148 1.47362 -0.643522 0
M  V30 7134 O 699.338 1.48443 -0.911613 0
M  V30 7135 C 696.47 2.8445 -1.87885 0
M  V30 7136 H 697.663 1.24764 -2.72716 0
M  V30 7137 H 695.216 0.615939 -1.43652 0
M  V30 7138 H 695.951 3.10222 -0.94515 0
M  V30 7139 H 695.736 2.8428 -2.70051 0
M  V30 7140 H 697.226 3.61832 -2.08488 0
M  V30 7141 N 697.663 1.43903 0.642637 0
M  V30 7142 C 699.074 1.40975 1.22404 0
M  V30 7143 C 699.425 0.1192 1.95838 0
M  V30 7144 O 698.55 -0.780939 2.01818 0
M  V30 7145 C 699.145 2.5538 2.22636 0
M  V30 7146 C 697.704 2.55684 2.76229 0
M  V30 7147 C 696.851 2.32556 1.51039 0
M  V30 7148 H 699.802 1.5265 0.434006 0
M  V30 7149 H 699.823 2.27474 3.05017 0
M  V30 7150 H 699.335 3.49294 1.69161 0
M  V30 7151 H 697.436 1.65679 3.33738 0
M  V30 7152 H 697.549 3.53799 3.23053 0
M  V30 7153 H 695.913 1.81427 1.78764 0
M  V30 7154 H 696.696 3.28569 0.99484 0
M  V30 7155 N 699.141 -0.881989 1.30609 0
M  V30 7156 C 700.071 -2.00413 1.1982 0
M  V30 7157 C 701.052 -1.69871 0.0881538 0
M  V30 7158 O 702.237 -1.92304 0.2707 0
M  V30 7159 C 699.367 -3.35641 0.89233 0
M  V30 7160 C 698.321 -3.80451 1.96064 0
M  V30 7161 C 697.647 -5.13003 1.5077 0
M  V30 7162 C 698.947 -3.98855 3.37213 0
M  V30 7163 H 700.641 -2.09698 2.13699 0
M  V30 7164 H 698.187 -1.00754 1.02882 0
M  V30 7165 H 700.14 -4.13669 0.803497 0
M  V30 7166 H 698.864 -3.26497 -0.0821381 0
M  V30 7167 H 697.523 -3.04654 2.03916 0
M  V30 7168 H 697.171 -5.0029 0.521417 0
M  V30 7169 H 696.871 -5.43956 2.22229 0
M  V30 7170 H 698.395 -5.93554 1.43271 0
M  V30 7171 H 699.809 -4.67312 3.32103 0
M  V30 7172 H 698.206 -4.41188 4.06784 0
M  V30 7173 H 699.276 -3.02614 3.78883 0
M  V30 7174 N 700.619 -1.13374 -1.09472 0
M  V30 7175 C 701.859 -0.905422 -1.83252 0
M  V30 7176 C 702.223 0.558396 -1.83701 0
M  V30 7177 O 703.424 0.904254 -2.53134 0
M  V30 7178 C 701.695 -1.47658 -3.25472 0
M  V30 7179 S 703.254 -1.38825 -4.16261 0
M  V30 7180 H 700.072 -0.326371 -0.631667 0
M  V30 7181 H 702.674 -1.44517 -1.31663 0
M  V30 7182 H 701.378 -2.53533 -3.22722 0
M  V30 7183 H 700.909 -0.934756 -3.82133 0
M  V30 7184 H 702.924 -0.366379 -4.94846 0
M  V30 7185 N 702.098 1.27442 -0.927168 0
M  V30 7186 C 703.328 1.9821 -0.582775 0
M  V30 7187 C 703.736 1.69361 0.843406 0
M  V30 7188 O 703.079 0.950381 1.57205 0
M  V30 7189 C 703.141 3.52048 -0.728165 0
M  V30 7190 C 702.805 4.04518 -2.12637 0
M  V30 7191 C 703.802 4.17332 -3.10048 0
M  V30 7192 C 701.487 4.38879 -2.44317 0
M  V30 7193 C 703.481 4.6378 -4.37249 0
M  V30 7194 C 701.168 4.85018 -3.71753 0
M  V30 7195 C 702.166 4.97428 -4.68033 0
M  V30 7196 O 701.854 5.42556 -5.93202 0
M  V30 7197 H 701.586 0.639314 -0.219667 0
M  V30 7198 H 704.14 1.63272 -1.24626 0
M  V30 7199 H 702.37 3.86699 -0.00758143 0
M  V30 7200 H 704.059 4.04033 -0.388906 0
M  V30 7201 H 704.825 3.91046 -2.86894 0
M  V30 7202 H 700.704 4.28462 -1.70121 0
M  V30 7203 H 704.248 4.73382 -5.12402 0
M  V30 7204 H 700.145 5.10746 -3.94726 0
M  V30 7205 H 700.913 5.60811 -5.96182 0
M  V30 7206 N 703.576 0.692616 1.41565 0
M  V30 7207 C 704.806 0.230943 2.05305 0
M  V30 7208 C 705.214 -1.12379 1.52209 0
M  V30 7209 O 704.557 -1.71281 0.663968 0
M  V30 7210 C 704.619 0.107894 3.59338 0
M  V30 7211 C 704.283 1.39419 4.35214 0
M  V30 7212 C 705.28 2.33143 4.64694 0
M  V30 7213 C 702.965 1.64674 4.74539 0
M  V30 7214 C 704.959 3.50385 5.32456 0
M  V30 7215 C 702.646 2.82202 5.42038 0
M  V30 7216 C 703.644 3.74881 5.70923 0
M  V30 7217 O 703.332 4.90351 6.37033 0
M  V30 7218 H 703.064 0.105708 0.667684 0
M  V30 7219 H 705.618 0.94488 1.82376 0
M  V30 7220 H 703.848 -0.661785 3.80995 0
M  V30 7221 H 705.537 -0.316213 4.04666 0
M  V30 7222 H 706.303 2.14887 4.34797 0
M  V30 7223 H 702.182 0.934007 4.51439 0
M  V30 7224 H 705.726 4.22743 5.54918 0
M  V30 7225 H 701.623 3.00376 5.71353 0
M  V30 7226 H 702.391 4.90128 6.55528 0
M  V30 7227 N 705.054 -1.51416 0.437162 0
M  V30 7228 C 705.984 -2.30631 -0.364922 0
M  V30 7229 C 706.965 -1.36037 -1.02118 0
M  V30 7230 O 708.15 -1.64956 -1.02485 0
M  V30 7231 C 705.28 -3.1482 -1.46648 0
M  V30 7232 C 704.234 -4.17691 -0.933717 0
M  V30 7233 C 703.56 -4.904 -2.13101 0
M  V30 7234 C 704.86 -5.2229 0.0317201 0
M  V30 7235 H 706.554 -2.97932 0.29614 0
M  V30 7236 H 704.1 -1.4328 0.143865 0
M  V30 7237 H 706.053 -3.69017 -2.03481 0
M  V30 7238 H 704.777 -2.4534 -2.15583 0
M  V30 7239 H 703.436 -3.64545 -0.387602 0
M  V30 7240 H 703.084 -4.17423 -2.80654 0
M  V30 7241 H 702.784 -5.59962 -1.78092 0
M  V30 7242 H 704.308 -5.4742 -2.70487 0
M  V30 7243 H 705.722 -5.7156 -0.446302 0
M  V30 7244 H 704.119 -5.99378 0.29437 0
M  V30 7245 H 705.189 -4.75131 0.968447 0
M  V30 7246 N 706.532 -0.168513 -1.56696 0
M  V30 7247 C 707.948 0.187686 -1.58493 0
M  V30 7248 C 708.148 1.63063 -1.18375 0
M  V30 7249 O 707.204 2.36142 -0.894042 0
M  V30 7250 C 708.517 -0.0905858 -3.00564 0
M  V30 7251 C 710.065 -0.028575 -3.12987 0
M  V30 7252 C 710.54 -0.279799 -4.57145 0
M  V30 7253 N 712.031 -0.227476 -4.62641 0
M  V30 7254 C 712.766 -0.396073 -5.7203 0
M  V30 7255 N 712.262 -0.623572 -6.89988 0
M  V30 7256 N 714.055 -0.332173 -5.61118 0
M  V30 7257 H 706.206 -1.11042 -1.81062 0
M  V30 7258 H 708.469 -0.441235 -0.839056 0
M  V30 7259 H 708.175 -1.09006 -3.34381 0
M  V30 7260 H 708.049 0.619078 -3.72085 0
M  V30 7261 H 710.436 0.961471 -2.78998 0
M  V30 7262 H 710.517 -0.770905 -2.43907 0
M  V30 7263 H 710.161 -1.26704 -4.91842 0
M  V30 7264 H 710.091 0.48311 -5.24379 0
M  V30 7265 H 712.582 -0.0571723 -3.77857 0
M  V30 7266 H 712.895 -0.741745 -7.69232 0
M  V30 7267 H 711.24 -0.660153 -6.91858 0
M  V30 7268 H 714.431 -0.155051 -4.67843 0
M  V30 7269 H 714.604 -0.466994 -6.46315 0
M  V30 7270 N 708.01 1.57248 0.105221 0
M  V30 7271 C 709.235 1.90143 0.828264 0
M  V30 7272 C 709.66 0.761811 1.71983 0
M  V30 7273 O 709.018 -0.287086 1.79013 0
M  V30 7274 C 709.066 3.21856 1.62608 0
M  V30 7275 O 708.17 3.08732 2.7342 0
M  V30 7276 H 707.511 0.623558 0.228192 0
M  V30 7277 H 710.041 2.0443 0.0834826 0
M  V30 7278 H 710.051 3.54916 2.01243 0
M  V30 7279 H 708.726 4.0439 0.971687 0
M  V30 7280 H 707.303 2.87167 2.37886 0
M  V30 7281 N 709.488 -0.375779 1.53054 0
M  V30 7282 C 710.899 -0.95309 1.6054 0
M  V30 7283 C 711.25 -1.90575 0.466446 0
M  V30 7284 O 710.375 -2.12507 -0.408609 0
M  V30 7285 C 710.97 -1.73537 2.90982 0
M  V30 7286 C 709.529 -2.26218 3.00836 0
M  V30 7287 C 708.676 -1.07157 2.55759 0
M  V30 7288 H 711.627 -0.154895 1.57942 0
M  V30 7289 H 711.648 -2.59574 2.78211 0
M  V30 7290 H 711.16 -1.04176 3.73857 0
M  V30 7291 H 709.261 -2.98852 2.22527 0
M  V30 7292 H 709.374 -2.54799 4.05727 0
M  V30 7293 H 707.738 -1.43553 2.10391 0
M  V30 7294 H 708.521 -0.393099 3.41042 0
M  V30 7295 N 710.966 -1.44241 -0.634997 0
M  V30 7296 C 712.377 -1.41622 -1.21655 0
M  V30 7297 C 712.728 -0.129584 -1.95772 0
M  V30 7298 O 711.853 0.770225 -2.02229 0
M  V30 7299 C 712.448 -2.56557 -2.21278 0
M  V30 7300 C 711.007 -2.57145 -2.7487 0
M  V30 7301 C 710.154 -2.33354 -1.49804 0
M  V30 7302 H 713.105 -1.52878 -0.425905 0
M  V30 7303 H 713.126 -2.29089 -3.03807 0
M  V30 7304 H 712.638 -3.50186 -1.67306 0
M  V30 7305 H 710.739 -1.67447 -3.32855 0
M  V30 7306 H 710.852 -3.55507 -3.21172 0
M  V30 7307 H 709.216 -1.82372 -1.77799 0
M  V30 7308 H 709.999 -3.29092 -0.977402 0
M  V30 7309 N 712.444 0.87505 -1.31075 0
M  V30 7310 C 713.407 1.96333 -1.18263 0
M  V30 7311 C 714.407 1.60416 -0.111106 0
M  V30 7312 O 715.597 1.7044 -0.359987 0
M  V30 7313 C 712.729 3.31036 -0.81414 0
M  V30 7314 H 713.922 2.09125 -2.14958 0
M  V30 7315 H 711.475 1.06271 -1.14614 0
M  V30 7316 H 712.21 3.23944 0.151875 0
M  V30 7317 H 711.995 3.58476 -1.58862 0
M  V30 7318 H 713.485 4.10842 -0.748249 0
M  V30 7319 N 713.922 1.13953 1.08869 0
M  V30 7320 C 714.869 0.82213 2.15661 0
M  V30 7321 C 715.839 -0.218274 1.6466 0
M  V30 7322 O 717.024 -0.0892475 1.90591 0
M  V30 7323 C 714.164 0.300572 3.43789 0
M  V30 7324 C 713.277 1.40071 4.08661 0
M  V30 7325 C 712.412 0.836897 5.24566 0
M  V30 7326 C 711.451 1.91504 5.81371 0
M  V30 7327 N 710.588 1.36875 6.88629 0
M  V30 7328 H 715.428 1.73683 2.42153 0
M  V30 7329 H 712.965 0.866879 1.18843 0
M  V30 7330 H 714.923 -0.0199943 4.17195 0
M  V30 7331 H 713.553 -0.577248 3.17597 0
M  V30 7332 H 712.605 1.83776 3.33062 0
M  V30 7333 H 713.917 2.21534 4.46905 0
M  V30 7334 H 713.071 0.467953 6.04893 0
M  V30 7335 H 711.81 -0.00874207 4.87699 0
M  V30 7336 H 710.815 2.29299 4.99702 0
M  V30 7337 H 712.04 2.76419 6.20298 0
M  V30 7338 H 709.986 0.545211 6.5373 0
M  V30 7339 H 709.903 2.1198 7.25672 0
M  V30 7340 H 711.171 1.02756 7.72698 0
M  V30 7341 N 715.4 -1.26948 0.933913 0
M  V30 7342 C 716.31 -2.30366 0.443671 0
M  V30 7343 C 717.326 -1.67284 -0.478745 0
M  V30 7344 O 718.502 -1.98156 -0.360043 0
M  V30 7345 C 715.567 -3.45485 -0.289974 0
M  V30 7346 C 714.628 -4.24069 0.668114 0
M  V30 7347 C 713.861 -5.33691 -0.0306138 0
M  V30 7348 O 714.084 -5.5656 -1.24888 0
M  V30 7349 O 713.018 -5.98441 0.644384 0
M  V30 7350 H 716.844 -2.74349 1.30254 0
M  V30 7351 H 714.429 -1.32012 0.699506 0
M  V30 7352 H 716.311 -4.15486 -0.70353 0
M  V30 7353 H 714.986 -3.03546 -1.12435 0
M  V30 7354 H 713.893 -3.56579 1.13147 0
M  V30 7355 H 715.226 -4.69739 1.46989 0
M  V30 7356 N 716.879 -0.700114 -1.41195 0
M  V30 7357 C 717.789 -0.0382854 -2.34569 0
M  V30 7358 C 718.805 0.761036 -1.56474 0
M  V30 7359 O 719.981 0.697553 -1.88934 0
M  V30 7360 C 717.046 0.883522 -3.35253 0
M  V30 7361 C 716.107 0.0758957 -4.29233 0
M  V30 7362 C 715.34 0.9538 -5.25108 0
M  V30 7363 O 715.563 2.19326 -5.26547 0
M  V30 7364 O 714.497 0.401049 -6.00562 0
M  V30 7365 H 718.323 -0.808073 -2.92752 0
M  V30 7366 H 715.908 -0.460479 -1.42127 0
M  V30 7367 H 717.79 1.41199 -3.9704 0
M  V30 7368 H 716.465 1.63272 -2.79506 0
M  V30 7369 H 715.372 -0.497274 -3.7078 0
M  V30 7370 H 716.705 -0.634741 -4.8809 0
M  V30 7371 N 718.357 1.51182 -0.445186 0
M  V30 7372 C 719.304 2.27939 0.362291 0
M  V30 7373 C 720.274 1.31864 1.01 0
M  V30 7374 O 721.459 1.60776 1.02741 0
M  V30 7375 C 718.599 3.13016 1.45311 0
M  V30 7376 C 717.712 4.24093 0.822757 0
M  V30 7377 C 716.847 4.96467 1.88928 0
M  V30 7378 C 715.886 5.99454 1.23778 0
M  V30 7379 N 715.023 6.65206 2.24602 0
M  V30 7380 H 719.863 2.965 -0.29862 0
M  V30 7381 H 717.4 1.46237 -0.15911 0
M  V30 7382 H 719.358 3.60673 2.09692 0
M  V30 7383 H 717.988 2.46553 2.08354 0
M  V30 7384 H 717.04 3.80341 0.0670364 0
M  V30 7385 H 718.352 4.97853 0.307184 0
M  V30 7386 H 717.506 5.47712 2.60953 0
M  V30 7387 H 716.245 4.22355 2.4386 0
M  V30 7388 H 715.25 5.47494 0.503042 0
M  V30 7389 H 716.475 6.75527 0.695694 0
M  V30 7390 H 714.421 5.93901 2.78599 0
M  V30 7391 H 714.338 7.34756 1.77958 0
M  V30 7392 H 715.606 7.21078 2.96085 0
M  V30 7393 N 719.835 0.176821 1.56605 0
M  V30 7394 C 720.765 -0.746841 2.21234 0
M  V30 7395 C 721.746 -1.23502 1.16967 0
M  V30 7396 O 722.931 -1.28718 1.45414 0
M  V30 7397 C 720.061 -1.97407 2.8574 0
M  V30 7398 C 719.015 -1.62153 3.96094 0
M  V30 7399 C 718.341 -2.92387 4.47676 0
M  V30 7400 C 719.641 -0.845353 5.15413 0
M  V30 7401 H 721.335 -0.208116 2.98676 0
M  V30 7402 H 718.881 -0.0986594 1.43662 0
M  V30 7403 H 720.834 -2.62531 3.2963 0
M  V30 7404 H 719.558 -2.53703 2.05676 0
M  V30 7405 H 718.217 -0.993964 3.52868 0
M  V30 7406 H 717.865 -3.46734 3.64396 0
M  V30 7407 H 717.565 -2.69551 5.22127 0
M  V30 7408 H 719.089 -3.5853 4.94255 0
M  V30 7409 H 720.503 -1.39929 5.55961 0
M  V30 7410 H 718.9 -0.715814 5.95815 0
M  V30 7411 H 719.97 0.157239 4.84645 0
M  V30 7412 N 721.313 -1.57302 -0.09688 0
M  V30 7413 C 722.276 -2.00976 -1.10188 0
M  V30 7414 C 723.276 -0.903009 -1.3305 0
M  V30 7415 O 724.466 -1.16853 -1.29194 0
M  V30 7416 C 721.598 -2.36893 -2.45142 0
M  V30 7417 H 722.791 -2.9098 -0.726003 0
M  V30 7418 H 720.344 -1.52515 -0.341872 0
M  V30 7419 H 721.079 -1.49837 -2.8761 0
M  V30 7420 H 720.864 -3.17632 -2.29897 0
M  V30 7421 H 722.354 -2.71345 -3.1743 0
M  V30 7422 N 722.791 0.367657 -1.53252 0
M  V30 7423 C 724.04 1.10782 -1.68554 0
M  V30 7424 C 724.353 1.90523 -0.442765 0
M  V30 7425 O 725.559 2.6729 -0.47629 0
M  V30 7426 C 724.015 2.01863 -2.97959 0
M  V30 7427 C 723.623 1.27443 -4.29491 0
M  V30 7428 C 725.367 2.75883 -3.22628 0
M  V30 7429 C 723.274 2.17414 -5.49987 0
M  V30 7430 H 722.204 0.417272 -0.628013 0
M  V30 7431 H 724.855 0.368971 -1.79752 0
M  V30 7432 H 723.237 2.7947 -2.80558 0
M  V30 7433 H 724.411 0.549138 -4.57516 0
M  V30 7434 H 722.726 0.652935 -4.11249 0
M  V30 7435 H 725.323 3.43421 -4.09837 0
M  V30 7436 H 725.666 3.41138 -2.38601 0
M  V30 7437 H 726.199 2.0536 -3.40693 0
M  V30 7438 H 722.938 1.5674 -6.36485 0
M  V30 7439 H 722.458 2.87799 -5.26243 0
M  V30 7440 H 724.137 2.77019 -5.84696 0
M  V30 7441 N 724.269 1.44576 0.627338 0
M  V30 7442 C 725.199 1.54562 1.75022 0
M  V30 7443 C 726.18 0.398378 1.65369 0
M  V30 7444 O 727.365 0.61899 1.84071 0
M  V30 7445 C 724.495 1.49309 3.13567 0
M  V30 7446 C 723.449 2.62549 3.38012 0
M  V30 7447 C 722.775 2.42348 4.76625 0
M  V30 7448 C 724.075 4.04678 3.30202 0
M  V30 7449 H 725.769 2.4855 1.66922 0
M  V30 7450 H 723.315 1.19624 0.801636 0
M  V30 7451 H 725.268 1.54895 3.919 0
M  V30 7452 H 723.992 0.518392 3.2246 0
M  V30 7453 H 722.651 2.56358 2.62061 0
M  V30 7454 H 722.299 1.43062 4.82226 0
M  V30 7455 H 721.999 3.18273 4.93939 0
M  V30 7456 H 723.523 2.49758 5.57183 0
M  V30 7457 H 724.937 4.12217 3.98435 0
M  V30 7458 H 723.334 4.80836 3.5905 0
M  V30 7459 H 724.404 4.2798 2.27949 0
M  V30 7460 N 725.747 -0.868086 1.31537 0
M  V30 7461 C 726.972 -1.65926 1.24432 0
M  V30 7462 C 727.397 -1.87169 -0.186936 0
M  V30 7463 O 726.755 -1.4148 -1.13371 0
M  V30 7464 C 726.803 -3.00347 1.9956 0
M  V30 7465 O 725.907 -3.90221 1.33422 0
M  V30 7466 H 725.248 -0.506375 0.429512 0
M  V30 7467 H 727.778 -1.0822 1.73637 0
M  V30 7468 H 727.788 -3.50269 2.09226 0
M  V30 7469 H 726.463 -2.84205 3.03645 0
M  V30 7470 H 725.04 -3.48672 1.32219 0
M  V30 7471 N 727.225 -1.14528 -1.08264 0
M  V30 7472 C 728.157 -0.791325 -2.15106 0
M  V30 7473 C 729.17 0.192449 -1.61659 0
M  V30 7474 O 730.359 -0.0294704 -1.78476 0
M  V30 7475 C 727.459 -0.154183 -3.38549 0
M  V30 7476 C 726.632 -1.17305 -4.21377 0
M  V30 7477 C 725.691 -0.559401 -5.23218 0
M  V30 7478 O 724.717 -1.22277 -5.55911 0
M  V30 7479 N 725.919 0.663159 -5.767 0
M  V30 7480 H 728.684 -1.71076 -2.46075 0
M  V30 7481 H 726.245 -1.0399 -1.24087 0
M  V30 7482 H 728.237 0.268884 -4.03806 0
M  V30 7483 H 726.807 0.668418 -3.0537 0
M  V30 7484 H 726.027 -1.773 -3.52077 0
M  V30 7485 H 727.315 -1.86128 -4.73533 0
M  V30 7486 H 726.713 1.22066 -5.52373 0
M  V30 7487 H 725.27 1.02871 -6.43631 0
M  V30 7488 N 728.703 1.26451 -0.940633 0
M  V30 7489 C 729.98 1.88947 -0.505811 0
M  V30 7490 C 730.36 1.85011 1.01657 0
M  V30 7491 O 729.708 1.30406 1.87634 0
M  V30 7492 C 729.918 3.32304 -1.06654 0
M  V30 7493 C 731.266 4.09153 -1.13486 0
M  V30 7494 O 732.29 3.41371 -1.01708 0
M  V30 7495 O 731.149 5.30369 -1.31797 0
M  V30 7496 H 728.243 0.810422 -0.164759 0
M  V30 7497 H 730.789 1.34625 -1.03316 0
M  V30 7498 H 729.561 3.29527 -2.11015 0
M  V30 7499 H 729.184 3.94164 -0.521603 0
M  V30 7500 N 730.181 0.707592 1.40822 0
M  V30 7501 C 731.421 0.247986 2.0289 0
M  V30 7502 C 731.785 -1.13484 1.54872 0
M  V30 7503 O 732.986 -1.69098 2.08948 0
M  V30 7504 C 731.257 0.316326 3.55997 0
M  V30 7505 S 732.816 -0.0674698 4.38748 0
M  V30 7506 H 729.634 0.09895 0.704081 0
M  V30 7507 H 732.236 0.928039 1.72069 0
M  V30 7508 H 730.94 1.32453 3.88438 0
M  V30 7509 H 730.471 -0.382474 3.91536 0
M  V30 7510 H 732.486 -1.29182 4.79089 0
M  V30 7511 N 731.66 -1.50943 0.453197 0
M  V30 7512 C 733.071 -1.86699 -0.00619892 0
M  V30 7513 C 733.422 -1.3693 -1.40515 0
M  V30 7514 O 732.547 -0.726715 -2.03833 0
M  V30 7515 C 733.142 -3.38795 -0.018025 0
M  V30 7516 C 731.701 -3.74028 -0.421885 0
M  V30 7517 C 730.848 -2.74752 0.375087 0
M  V30 7518 H 733.799 -1.43942 0.668317 0
M  V30 7519 H 733.82 -3.71468 -0.824125 0
M  V30 7520 H 733.332 -3.74988 1.00028 0
M  V30 7521 H 731.433 -3.43431 -1.44521 0
M  V30 7522 H 731.546 -4.78908 -0.135664 0
M  V30 7523 H 729.91 -2.5414 -0.168794 0
M  V30 7524 H 730.693 -3.13787 1.39256 0
M  V30 7525 N 733.138 -0.185124 -1.56509 0
M  V30 7526 C 734.071 0.77877 -2.145 0
M  V30 7527 C 735.049 1.21649 -1.07891 0
M  V30 7528 O 736.233 1.30579 -1.35946 0
M  V30 7529 C 733.36 2.05048 -2.69579 0
M  V30 7530 C 732.406 1.75569 -3.88687 0
M  V30 7531 S 733.239 0.912642 -5.27666 0
M  V30 7532 C 734.395 2.19471 -5.8616 0
M  V30 7533 H 734.628 0.285751 -2.95924 0
M  V30 7534 H 732.161 0.0297417 -1.54371 0
M  V30 7535 H 734.119 2.78085 -3.01958 0
M  V30 7536 H 732.78 2.51462 -1.88216 0
M  V30 7537 H 731.973 2.69962 -4.25601 0
M  V30 7538 H 731.575 1.10619 -3.57267 0
M  V30 7539 H 733.867 3.14815 -5.99915 0
M  V30 7540 H 734.81 1.87005 -6.8296 0
M  V30 7541 H 735.218 2.31862 -5.14685 0
M  V30 7542 N 734.616 1.57351 0.0885366 0
M  V30 7543 C 735.526 2.05858 1.12516 0
M  V30 7544 C 736.542 0.984758 1.43452 0
M  V30 7545 O 737.718 1.29836 1.53963 0
M  V30 7546 C 734.783 2.47882 2.42395 0
M  V30 7547 C 733.844 3.69487 2.18582 0
M  V30 7548 C 733.077 4.09497 3.42268 0
M  V30 7549 O 733.3 3.49536 4.50755 0
M  V30 7550 O 732.234 5.02406 3.31469 0
M  V30 7551 H 736.06 2.94467 0.743146 0
M  V30 7552 H 733.645 1.46326 0.301507 0
M  V30 7553 H 735.527 2.75509 3.18862 0
M  V30 7554 H 734.202 1.62408 2.8001 0
M  V30 7555 H 733.109 3.46967 1.39875 0
M  V30 7556 H 734.442 4.55761 1.85857 0
M  V30 7557 N 736.094 -0.359525 1.53444 0
M  V30 7558 C 737.322 -1.12198 1.73837 0
M  V30 7559 C 737.737 -1.82854 0.470107 0
M  V30 7560 O 737.094 -1.73781 -0.557349 0
M  V30 7561 C 737.145 -2.14769 2.90786 0
M  V30 7562 O 736.866 -1.46989 4.12706 0
M  V30 7563 C 738.367 -3.03514 3.231 0
M  V30 7564 H 735.587 -0.33524 0.581253 0
M  V30 7565 H 738.131 -0.416598 2.00212 0
M  V30 7566 H 736.286 -2.80896 2.66788 0
M  V30 7567 H 736.7 -2.15378 4.78239 0
M  V30 7568 H 738.174 -3.71453 4.08322 0
M  V30 7569 H 738.651 -3.68658 2.38721 0
M  V30 7570 H 739.257 -2.42996 3.49046 0
M  V30 7571 N 737.572 -1.44907 -0.619662 0
M  V30 7572 C 738.988 -1.29046 -0.939107 0
M  V30 7573 C 739.188 -0.23462 -2.00129 0
M  V30 7574 O 738.244 0.37558 -2.49691 0
M  V30 7575 C 739.557 -2.66567 -1.39149 0
M  V30 7576 C 741.105 -2.74368 -1.50635 0
M  V30 7577 C 741.58 -4.12386 -1.99253 0
M  V30 7578 N 743.071 -4.1462 -2.06506 0
M  V30 7579 C 743.806 -5.18272 -2.4532 0
M  V30 7580 N 743.302 -6.32278 -2.83189 0
M  V30 7581 N 745.095 -5.05628 -2.45554 0
M  V30 7582 H 737.246 -2.12239 0.0826135 0
M  V30 7583 H 739.509 -0.947652 -0.0256829 0
M  V30 7584 H 739.215 -3.4496 -0.685254 0
M  V30 7585 H 739.089 -2.94224 -2.36034 0
M  V30 7586 H 741.476 -1.96287 -2.20353 0
M  V30 7587 H 741.557 -2.50439 -0.520963 0
M  V30 7588 H 741.201 -4.90947 -1.30127 0
M  V30 7589 H 741.131 -4.33699 -2.98684 0
M  V30 7590 H 743.622 -3.32343 -1.79878 0
M  V30 7591 H 743.935 -7.07172 -3.11652 0
M  V30 7592 H 742.28 -6.35699 -2.80913 0
M  V30 7593 H 745.471 -4.15613 -2.15367 0
M  V30 7594 H 745.644 -5.86529 -2.75478 0
M  V30 7595 N 739.05 0.861098 -1.31996 0
M  V30 7596 C 739.983 1.97266 -1.14724 0
M  V30 7597 C 740.961 1.62528 -0.0483789 0
M  V30 7598 O 742.145 1.87366 -0.206478 0
M  V30 7599 C 739.272 3.30181 -0.754861 0
M  V30 7600 C 738.318 3.839 -1.85804 0
M  V30 7601 S 739.151 4.08274 -3.46515 0
M  V30 7602 C 740.307 5.44174 -3.09235 0
M  V30 7603 H 740.54 2.11614 -2.08822 0
M  V30 7604 H 738.073 1.01232 -1.16582 0
M  V30 7605 H 740.031 4.06996 -0.535232 0
M  V30 7606 H 738.692 3.13655 0.167155 0
M  V30 7607 H 737.885 4.80013 -1.53633 0
M  V30 7608 H 737.487 3.13907 -2.03318 0
M  V30 7609 H 739.779 6.26172 -2.58679 0
M  V30 7610 H 740.722 5.81301 -4.04345 0
M  V30 7611 H 741.13 5.0787 -2.46431 0
M  V30 7612 N 740.528 1.15101 1.07655 0
M  V30 7613 C 741.758 0.946357 1.83651 0
M  V30 7614 C 742.166 -0.508641 1.82235 0
M  V30 7615 O 741.509 -1.36445 1.22997 0
M  V30 7616 C 741.571 1.37945 3.31981 0
M  V30 7617 C 741.235 2.85155 3.57122 0
M  V30 7618 C 742.232 3.83234 3.51323 0
M  V30 7619 C 739.917 3.2275 3.84887 0
M  V30 7620 C 741.911 5.16914 3.72932 0
M  V30 7621 C 739.598 4.56604 4.06148 0
M  V30 7622 C 740.596 5.53495 4.00165 0
M  V30 7623 O 740.284 6.84931 4.20861 0
M  V30 7624 H 740.016 0.336368 0.586372 0
M  V30 7625 H 742.57 1.53198 1.36819 0
M  V30 7626 H 740.8 0.737205 3.79608 0
M  V30 7627 H 742.489 1.14439 3.89434 0
M  V30 7628 H 743.255 3.55535 3.29878 0
M  V30 7629 H 739.134 2.47921 3.88659 0
M  V30 7630 H 742.678 5.92529 3.68178 0
M  V30 7631 H 738.575 4.84019 4.27078 0
M  V30 7632 H 739.343 6.91304 4.38226 0
M  V30 7633 N 742.006 -1.2595 0.947325 0
M  V30 7634 C 742.969 -2.24407 0.466285 0
M  V30 7635 C 743.969 -1.55054 -0.426005 0
M  V30 7636 O 745.159 -1.7275 -0.224319 0
M  V30 7637 C 742.291 -3.39326 -0.327201 0
M  V30 7638 H 743.484 -2.68477 1.33642 0
M  V30 7639 H 741.037 -1.38211 0.729887 0
M  V30 7640 H 741.772 -3.00667 -1.21532 0
M  V30 7641 H 741.557 -3.9085 0.312839 0
M  V30 7642 H 743.047 -4.12455 -0.653477 0
M  V30 7643 N 743.484 -0.715051 -1.40445 0
M  V30 7644 C 744.712 -0.263959 -2.05209 0
M  V30 7645 C 745.127 1.09403 -1.53871 0
M  V30 7646 O 744.484 1.68746 -0.695064 0
M  V30 7647 C 744.535 -0.234545 -3.60738 0
M  V30 7648 O 744.256 -1.53891 -4.10182 0
M  V30 7649 C 745.757 0.235164 -4.42676 0
M  V30 7650 H 742.977 -0.11876 -0.660407 0
M  V30 7651 H 745.521 -0.973107 -1.79864 0
M  V30 7652 H 743.676 0.425563 -3.85055 0
M  V30 7653 H 744.09 -1.43903 -5.04373 0
M  V30 7654 H 745.564 0.204598 -5.51621 0
M  V30 7655 H 746.041 1.27724 -4.20218 0
M  V30 7656 H 746.647 -0.394649 -4.23465 0
M  V30 7657 N 744.962 1.50701 -0.461195 0
M  V30 7658 C 745.894 2.26124 0.374244 0
M  V30 7659 C 746.907 1.31064 0.965715 0
M  V30 7660 O 748.096 1.56647 0.855801 0
M  V30 7661 C 745.196 3.01996 1.5379 0
M  V30 7662 C 744.369 4.24336 1.06101 0
M  V30 7663 C 743.428 4.82585 2.09756 0
M  V30 7664 O 742.454 5.43775 1.68219 0
M  V30 7665 N 743.656 4.68712 3.42475 0
M  V30 7666 H 746.421 2.9846 -0.2723 0
M  V30 7667 H 743.982 1.59256 -0.291415 0
M  V30 7668 H 745.974 3.37846 2.22806 0
M  V30 7669 H 744.544 2.32521 2.08933 0
M  V30 7670 H 743.764 3.93707 0.197085 0
M  V30 7671 H 745.052 5.03678 0.720156 0
M  V30 7672 H 744.45 4.20026 3.78938 0
M  V30 7673 H 743.007 5.08858 4.07317 0
M  V30 7674 N 746.441 0.193421 1.56409 0
M  V30 7675 C 747.388 -0.728124 2.19014 0
M  V30 7676 C 748.358 -1.21098 1.13686 0
M  V30 7677 O 749.543 -1.27517 1.4193 0
M  V30 7678 C 746.683 -1.94277 2.8522 0
M  V30 7679 C 745.796 -1.50143 4.05069 0
M  V30 7680 C 744.931 -2.67145 4.59137 0
M  V30 7681 C 743.97 -2.19609 5.71348 0
M  V30 7682 N 743.107 -3.29782 6.19829 0
M  V30 7683 H 747.947 -0.187499 2.9741 0
M  V30 7684 H 745.484 -0.0808064 1.46878 0
M  V30 7685 H 747.442 -2.65551 3.21774 0
M  V30 7686 H 746.072 -2.45673 2.09391 0
M  V30 7687 H 745.124 -0.684624 3.74189 0
M  V30 7688 H 746.436 -1.11266 4.86232 0
M  V30 7689 H 745.59 -3.46544 4.97988 0
M  V30 7690 H 744.329 -3.09295 3.77078 0
M  V30 7691 H 743.334 -1.38664 5.32027 0
M  V30 7692 H 744.559 -1.78492 6.55223 0
M  V30 7693 H 742.505 -3.71466 5.40693 0
M  V30 7694 H 742.422 -2.95069 6.96039 0
M  V30 7695 H 743.69 -4.094 6.63334 0
M  V30 7696 N 747.919 -1.57396 -0.0801906 0
M  V30 7697 C 749.33 -1.75642 -0.633002 0
M  V30 7698 C 749.681 -0.817708 -1.78348 0
M  V30 7699 O 748.806 0.000233743 -2.164 0
M  V30 7700 C 749.401 -3.18502 -1.15507 0
M  V30 7701 C 747.96 -3.38121 -1.65381 0
M  V30 7702 C 747.107 -2.71386 -0.569661 0
M  V30 7703 H 750.058 -1.58027 0.145949 0
M  V30 7704 H 750.079 -3.22198 -2.02408 0
M  V30 7705 H 749.591 -3.86799 -0.317515 0
M  V30 7706 H 747.692 -2.74926 -2.51488 0
M  V30 7707 H 747.805 -4.46521 -1.73654 0
M  V30 7708 H 746.169 -2.33702 -1.0127 0
M  V30 7709 H 746.952 -3.42332 0.257561 0
M  V30 7710 N 749.397 0.351382 -1.53633 0
M  V30 7711 C 750.625 1.11275 -1.74429 0
M  V30 7712 C 751.04 1.82602 -0.479798 0
M  V30 7713 O 750.397 1.74074 0.548125 0
M  V30 7714 C 750.448 2.13223 -2.91921 0
M  V30 7715 O 750.169 1.44798 -4.13479 0
M  V30 7716 C 751.67 3.01797 -3.24706 0
M  V30 7717 H 748.89 0.332153 -0.583023 0
M  V30 7718 H 751.434 0.405974 -2.0043 0
M  V30 7719 H 749.589 2.79477 -2.68274 0
M  V30 7720 H 750.003 2.12839 -4.79374 0
M  V30 7721 H 751.477 3.69282 -4.10286 0
M  V30 7722 H 751.954 3.67387 -2.40673 0
M  V30 7723 H 752.56 2.41141 -3.5033 0
M  V30 7724 N 750.875 1.45233 0.611969 0
M  V30 7725 C 751.822 1.5357 1.72293 0
M  V30 7726 C 752.792 0.381912 1.6165 0
M  V30 7727 O 753.977 0.594765 1.81293 0
M  V30 7728 C 751.117 1.50419 3.10593 0
M  V30 7729 C 750.23 2.76316 3.32074 0
M  V30 7730 C 749.365 2.64866 4.60456 0
M  V30 7731 C 748.404 3.85838 4.7518 0
M  V30 7732 N 747.541 3.72949 5.94856 0
M  V30 7733 H 752.381 2.4848 1.64504 0
M  V30 7734 H 749.918 1.23302 0.802191 0
M  V30 7735 H 751.876 1.4658 3.90602 0
M  V30 7736 H 750.506 0.590621 3.17351 0
M  V30 7737 H 749.558 2.90261 2.45872 0
M  V30 7738 H 750.87 3.66055 3.38829 0
M  V30 7739 H 750.024 2.58969 5.48653 0
M  V30 7740 H 748.763 1.72719 4.56092 0
M  V30 7741 H 747.768 3.92099 3.85407 0
M  V30 7742 H 748.993 4.79045 4.81344 0
M  V30 7743 H 746.939 2.83567 5.91545 0
M  V30 7744 H 746.856 4.56319 6.02751 0
M  V30 7745 H 748.124 3.70976 6.85563 0
M  V30 7746 N 752.353 -0.854086 1.3245 0
M  V30 7747 C 753.263 -1.99503 1.23434 0
M  V30 7748 C 754.279 -1.73371 0.147828 0
M  V30 7749 O 755.455 -1.97998 0.368609 0
M  V30 7750 C 752.52 -3.33192 0.958328 0
M  V30 7751 C 751.581 -3.72542 2.13333 0
M  V30 7752 C 750.814 -4.99852 1.8704 0
M  V30 7753 O 751.037 -5.64573 0.813239 0
M  V30 7754 O 749.971 -5.36345 2.73161 0
M  V30 7755 H 753.797 -2.10046 2.1935 0
M  V30 7756 H 751.382 -0.984823 1.12346 0
M  V30 7757 H 753.264 -4.13327 0.820918 0
M  V30 7758 H 751.939 -3.23687 0.0293299 0
M  V30 7759 H 750.846 -2.92981 2.32622 0
M  V30 7760 H 752.179 -3.86694 3.04514 0
M  V30 7761 N 753.831 -1.1567 -1.07043 0
M  V30 7762 C 755.078 -0.933517 -1.79699 0
M  V30 7763 C 755.406 0.539162 -1.86878 0
M  V30 7764 O 754.661 1.41592 -1.35093 0
M  V30 7765 C 754.96 -1.49677 -3.24548 0
M  V30 7766 C 754.626 -2.99047 -3.37463 0
M  V30 7767 C 753.288 -3.39824 -3.40695 0
M  V30 7768 C 755.64 -3.95027 -3.40004 0
M  V30 7769 C 752.968 -4.75215 -3.44075 0
M  V30 7770 C 755.32 -5.30295 -3.44921 0
M  V30 7771 C 753.984 -5.70562 -3.46432 0
M  V30 7772 H 753.254 -0.341598 -0.657565 0
M  V30 7773 H 755.901 -1.44263 -1.25938 0
M  V30 7774 H 754.206 -0.908915 -3.81111 0
M  V30 7775 H 755.903 -1.29986 -3.79348 0
M  V30 7776 H 752.493 -2.6653 -3.35648 0
M  V30 7777 H 756.677 -3.64596 -3.36725 0
M  V30 7778 H 751.933 -5.05754 -3.43545 0
M  V30 7779 H 756.107 -6.0446 -3.45833 0
M  V30 7780 H 753.734 -6.75456 -3.48803 0
M  V30 7781 N 755.309 1.25446 -0.953992 0
M  V30 7782 C 756.72 1.75047 -0.649255 0
M  V30 7783 C 757.071 1.77527 0.835385 0
M  V30 7784 O 756.196 1.39569 1.65377 0
M  V30 7785 C 756.791 3.17889 -1.17183 0
M  V30 7786 C 755.35 3.65052 -0.917267 0
M  V30 7787 C 754.497 2.44124 -1.31525 0
M  V30 7788 H 757.448 1.11342 -1.13087 0
M  V30 7789 H 757.469 3.76768 -0.531616 0
M  V30 7790 H 756.981 3.16052 -2.25239 0
M  V30 7791 H 755.082 3.72305 0.148354 0
M  V30 7792 H 755.195 4.53222 -1.55328 0
M  V30 7793 H 753.559 2.43906 -0.733624 0
M  V30 7794 H 754.342 2.44979 -2.405 0
M  V30 7795 N 756.787 0.722489 1.40064 0
M  V30 7796 C 757.717 0.0892452 2.33329 0
M  V30 7797 C 758.698 -0.737992 1.53257 0
M  V30 7798 O 759.883 -0.685516 1.81698 0
M  V30 7799 C 757.013 -0.828139 3.37282 0
M  V30 7800 C 755.967 -0.106005 4.27869 0
M  V30 7801 C 755.293 -1.13957 5.22415 0
M  V30 7802 C 756.593 1.04395 5.11761 0
M  V30 7803 H 758.287 0.868269 2.86534 0
M  V30 7804 H 755.833 0.418982 1.3777 0
M  V30 7805 H 757.786 -1.28058 4.01471 0
M  V30 7806 H 756.51 -1.63914 2.82489 0
M  V30 7807 H 755.169 0.326683 3.65142 0
M  V30 7808 H 754.817 -1.9438 4.63924 0
M  V30 7809 H 754.517 -0.661233 5.83868 0
M  V30 7810 H 756.041 -1.59197 5.89482 0
M  V30 7811 H 757.455 0.670541 5.69365 0
M  V30 7812 H 755.852 1.4511 5.82291 0
M  V30 7813 H 756.922 1.87144 4.47331 0
M  V30 7814 N 758.265 -1.50454 0.469181 0
M  V30 7815 C 759.513 -2.01916 -0.0862982 0
M  V30 7816 C 759.834 -1.35337 -1.40388 0
M  V30 7817 O 759.104 -0.498096 -1.89462 0
M  V30 7818 H 757.684 -0.746185 -0.0348825 0
M  V30 7819 H 760.346 -1.84804 0.619167 0
M  V30 7820 H 759.442 -3.11182 -0.239189 0
M  V30 7821 N 759.743 -0.201713 -1.56304 0
M  V30 7822 C 760.653 0.728296 -2.23009 0
M  V30 7823 C 761.669 1.22945 -1.23128 0
M  V30 7824 O 762.845 1.27523 -1.55884 0
M  V30 7825 C 759.91 1.92792 -2.88153 0
M  V30 7826 C 758.971 1.47068 -4.03323 0
M  V30 7827 C 758.204 2.61312 -4.65351 0
M  V30 7828 O 758.427 3.7896 -4.26317 0
M  V30 7829 O 757.361 2.33646 -5.54701 0
M  V30 7830 H 761.187 0.190166 -3.03104 0
M  V30 7831 H 758.772 0.0278725 -1.49374 0
M  V30 7832 H 760.654 2.6289 -3.29343 0
M  V30 7833 H 759.329 2.45452 -2.11033 0
M  V30 7834 H 758.236 0.738299 -3.66742 0
M  V30 7835 H 759.569 0.990666 -4.82127 0
M  V30 7836 N 761.222 1.57436 0.0718424 0
M  V30 7837 C 762.499 1.78312 0.804006 0
M  V30 7838 C 762.879 0.789273 1.9579 0
M  V30 7839 O 762.227 -0.177605 2.27809 0
M  V30 7840 C 762.437 3.24798 1.277 0
M  V30 7841 C 763.785 3.88627 1.71039 0
M  V30 7842 O 764.809 3.28689 1.37266 0
M  V30 7843 O 763.668 4.94073 2.33567 0
M  V30 7844 H 760.762 0.73178 0.385262 0
M  V30 7845 H 763.308 1.69621 0.0519219 0
M  V30 7846 H 762.08 3.88688 0.45134 0
M  V30 7847 H 761.703 3.38213 2.0904 0
M  V30 7848 N 762.7 -0.34323 1.53817 0
M  V30 7849 C 763.925 -1.1079 1.75329 0
M  V30 7850 C 764.35 -1.81571 0.491293 0
M  V30 7851 O 763.708 -1.72561 -0.556089 0
M  V30 7852 C 763.756 -2.09681 2.9337 0
M  V30 7853 O 762.86 -3.17207 2.63541 0
M  V30 7854 H 762.201 -0.320402 0.581583 0
M  V30 7855 H 764.731 -0.393525 2.0078 0
M  V30 7856 H 764.741 -2.52897 3.20168 0
M  V30 7857 H 763.416 -1.5756 3.84899 0
M  V30 7858 H 761.993 -2.78806 2.47632 0
M  V30 7859 N 764.178 -1.45556 -0.604258 0
M  V30 7860 C 765.455 -1.40221 -1.36373 0
M  V30 7861 C 765.835 -0.0745195 -2.10968 0
M  V30 7862 O 765.183 0.943594 -2.08107 0
M  V30 7863 C 765.393 -2.61807 -2.30777 0
M  V30 7864 C 766.741 -3.07037 -2.93281 0
M  V30 7865 O 767.765 -2.62203 -2.41097 0
M  V30 7866 O 766.624 -3.8485 -3.88011 0
M  V30 7867 H 763.718 -0.556602 -0.611656 0
M  V30 7868 H 766.264 -1.57689 -0.627069 0
M  V30 7869 H 765.036 -3.50017 -1.74939 0
M  V30 7870 H 764.659 -2.46688 -3.11818 0
M  V30 7871 N 765.656 0.84705 -1.32902 0
M  V30 7872 C 766.566 1.98845 -1.2449 0
M  V30 7873 C 767.582 1.7329 -0.15702 0
M  V30 7874 O 768.758 1.978 -0.379104 0
M  V30 7875 C 765.823 3.32679 -0.975985 0
M  V30 7876 C 764.884 3.71405 -2.15306 0
M  V30 7877 C 764.117 4.98853 -1.89688 0
M  V30 7878 O 764.34 5.64134 -0.843168 0
M  V30 7879 O 763.274 5.34889 -2.76002 0
M  V30 7880 H 767.1 2.0888 -2.2046 0
M  V30 7881 H 764.685 0.978852 -1.12867 0
M  V30 7882 H 766.567 4.12885 -0.842826 0
M  V30 7883 H 765.242 3.23667 -0.0464954 0
M  V30 7884 H 764.149 2.91743 -2.34172 0
M  V30 7885 H 765.482 3.85073 -3.06561 0
M  V30 7886 N 767.134 1.16236 1.06428 0
M  V30 7887 C 768.044 0.881976 2.1739 0
M  V30 7888 C 769.06 -0.145259 1.73393 0
M  V30 7889 O 770.236 0.0310558 2.01376 0
M  V30 7890 C 767.301 0.385496 3.4455 0
M  V30 7891 C 766.362 1.47779 4.03063 0
M  V30 7892 C 765.595 1.0049 5.24154 0
M  V30 7893 O 765.818 -0.145889 5.70213 0
M  V30 7894 O 764.752 1.79265 5.74585 0
M  V30 7895 H 768.578 1.80983 2.43883 0
M  V30 7896 H 766.163 0.942226 1.15942 0
M  V30 7897 H 768.045 0.115536 4.21242 0
M  V30 7898 H 766.72 -0.514369 3.19587 0
M  V30 7899 H 765.627 1.80147 3.27869 0
M  V30 7900 H 766.96 2.35291 4.32318 0
M  V30 7901 N 768.612 -1.24939 0.960631 0
M  V30 7902 C 770.023 -1.74701 0.658529 0
M  V30 7903 C 770.374 -1.77967 -0.825959 0
M  V30 7904 O 769.499 -1.40444 -1.64634 0
M  V30 7905 C 770.094 -3.17263 1.18867 0
M  V30 7906 C 768.653 -3.64561 0.936614 0
M  V30 7907 C 767.8 -2.43423 1.32817 0
M  V30 7908 H 770.751 -1.10741 1.13676 0
M  V30 7909 H 770.772 -3.76481 0.551589 0
M  V30 7910 H 770.284 -3.14854 2.26912 0
M  V30 7911 H 768.385 -3.72378 -0.128608 0
M  V30 7912 H 768.498 -4.52392 1.57729 0
M  V30 7913 H 766.862 -2.43513 0.746548 0
M  V30 7914 H 767.645 -2.437 2.41796 0
M  V30 7915 N 770.09 -0.729906 -1.39679 0
M  V30 7916 C 771.367 -0.202149 -1.94553 0
M  V30 7917 C 771.747 1.29507 -1.66707 0
M  V30 7918 O 771.095 2.05819 -0.992517 0
M  V30 7919 C 771.305 -0.530279 -3.44948 0
M  V30 7920 C 772.653 -0.476808 -4.21914 0
M  V30 7921 O 773.677 -0.467171 -3.53123 0
M  V30 7922 O 772.536 -0.466869 -5.44502 0
M  V30 7923 H 769.63 -0.0351644 -0.826252 0
M  V30 7924 H 772.176 -0.808417 -1.49207 0
M  V30 7925 H 770.948 -1.56526 -3.5863 0
M  V30 7926 H 770.571 0.10522 -3.97461 0
M  V30 7927 N 771.568 1.50203 -0.477153 0
M  V30 7928 C 772.518 2.25561 0.332625 0
M  V30 7929 C 773.502 1.29401 0.956249 0
M  V30 7930 O 774.694 1.54267 0.867795 0
M  V30 7931 C 771.823 3.12984 1.41052 0
M  V30 7932 C 770.909 4.16595 0.79433 0
M  V30 7933 N 771.3 5.05722 -0.0889633 0
M  V30 7934 C 769.598 4.33279 1.0576 0
M  V30 7935 C 770.299 5.80039 -0.439286 0
M  V30 7936 N 769.275 5.43278 0.187018 0
M  V30 7937 H 773.077 2.91836 -0.347718 0
M  V30 7938 H 770.591 1.59759 -0.291686 0
M  V30 7939 H 772.588 3.65582 2.00388 0
M  V30 7940 H 771.248 2.48258 2.09279 0
M  V30 7941 H 772.259 5.15869 -0.458205 0
M  V30 7942 H 768.936 3.79769 1.7344 0
M  V30 7943 H 770.326 6.61802 -1.1605 0
M  V30 7944 N 773.046 0.209999 1.56195 0
M  V30 7945 C 773.956 -0.716459 2.23392 0
M  V30 7946 C 774.972 -1.22291 1.23778 0
M  V30 7947 O 776.148 -1.26694 1.56558 0
M  V30 7948 C 773.213 -1.91261 2.89172 0
M  V30 7949 C 772.274 -1.44927 4.04097 0
M  V30 7950 C 771.507 -2.5884 4.66731 0
M  V30 7951 O 771.73 -3.76693 4.2832 0
M  V30 7952 O 770.664 -2.30701 5.55932 0
M  V30 7953 H 774.49 -0.174089 3.03201 0
M  V30 7954 H 772.075 -0.0199505 1.49387 0
M  V30 7955 H 773.957 -2.6114 3.30733 0
M  V30 7956 H 772.632 -2.4433 2.12331 0
M  V30 7957 H 771.539 -0.718839 3.67129 0
M  V30 7958 H 772.872 -0.965084 4.82646 0
M  V30 7959 N 774.524 -1.57472 -0.0634922 0
M  V30 7960 C 775.434 -2.07621 -1.09227 0
M  V30 7961 C 776.45 -1.00746 -1.41867 0
M  V30 7962 O 777.626 -1.32269 -1.51878 0
M  V30 7963 C 774.691 -2.51707 -2.38421 0
M  V30 7964 C 773.752 -3.72917 -2.12676 0
M  V30 7965 C 772.985 -4.14891 -3.3571 0
M  V30 7966 O 773.208 -3.56663 -4.45137 0
M  V30 7967 O 772.142 -5.07616 -3.23434 0
M  V30 7968 H 775.968 -2.95612 -0.696205 0
M  V30 7969 H 773.553 -1.46787 -0.27819 0
M  V30 7970 H 775.435 -2.80547 -3.14438 0
M  V30 7971 H 774.11 -1.66842 -2.77391 0
M  V30 7972 H 773.017 -3.49148 -1.34337 0
M  V30 7973 H 774.35 -4.5866 -1.78583 0
M  V30 7974 O 776.041 0.206959 -1.60168 0
M  V30 7975 H 776.732 0.846889 -1.74205 0
M  V30 END ATOM
M  V30 BEGIN BOND
M  V30 END BOND
M  V30 END CTAB
M  END
$$$$
