drugbank_target|P53985 Monocarboxylate transporter 1 (DB00119; DB09338)
 OpenBabel12092119363D

  0  0  0     0  0            999 V3000
M  V30 BEGIN CTAB
M  V30 COUNTS 7656 7754 0 0 0
M  V30 BEGIN ATOM
M  V30 1 H -0.908 1.98254 -0.117106 0
M  V30 2 N 0 1.576 0 0
M  V30 3 C 0.933 2.03868 1.02534 0
M  V30 4 C 1.911 0.928543 1.3348 0
M  V30 5 O 3.095 1.19667 1.45644 0
M  V30 6 C 0.222 2.43627 2.35294 0
M  V30 7 C -0.732 3.65373 2.2001 0
M  V30 8 S 0.101 5.13292 1.52614 0
M  V30 9 C 1.257 5.56322 2.86805 0
M  V30 10 H 1.49 2.90518 0.631377 0
M  V30 11 H -0.977 1.52953 0.210867 0
M  V30 12 H 0.981 2.67203 3.11629 0
M  V30 13 H -0.358 1.57376 2.7183 0
M  V30 14 H -1.165 3.90944 3.18086 0
M  V30 15 H -1.563 3.418 1.51819 0
M  V30 16 H 0.729 5.58782 3.83104 0
M  V30 17 H 1.672 6.56266 2.65933 0
M  V30 18 H 2.08 4.83886 2.90714 0
M  V30 19 N 1.4781 -0.272755 1.55222 0
M  V30 20 C 2.8891 -0.84378 1.66545 0
M  V30 21 C 3.2401 -1.87035 0.592641 0
M  V30 22 O 2.3651 -2.14761 -0.265818 0
M  V30 23 C 2.9601 -1.53723 3.01918 0
M  V30 24 C 1.5191 -2.05628 3.15268 0
M  V30 25 C 0.6661 -0.898424 2.62343 0
M  V30 26 H 3.6171 -0.0490998 1.58624 0
M  V30 27 H 3.6381 -2.40421 2.94921 0
M  V30 28 H 3.1501 -0.78983 3.79978 0
M  V30 29 H 1.2511 -2.83329 2.41983 0
M  V30 30 H 1.3641 -2.27142 4.21833 0
M  V30 31 H -0.2719 -1.29186 2.19506 0
M  V30 32 H 0.5111 -0.164528 3.42906 0
M  V30 33 N 2.9562 -1.48159 -0.537278 0
M  V30 34 C 4.3672 -1.49429 -1.11928 0
M  V30 35 C 4.7182 -0.26 -1.9447 0
M  V30 36 O 3.8432 0.633489 -2.0692 0
M  V30 37 C 4.4382 -2.70758 -2.03656 0
M  V30 38 C 2.9972 -2.74923 -2.57088 0
M  V30 39 C 2.1442 -2.42835 -1.3389 0
M  V30 40 H 5.0952 -1.55381 -0.322886 0
M  V30 41 H 5.1162 -2.48861 -2.87834 0
M  V30 42 H 4.6282 -3.60575 -1.43553 0
M  V30 43 H 2.7292 -1.89296 -3.20933 0
M  V30 44 H 2.8422 -3.76157 -2.9672 0
M  V30 45 H 1.2062 -1.93836 -1.65226 0
M  V30 46 H 1.9892 -3.34884 -0.755504 0
M  V30 47 N 4.4343 0.785586 -1.36625 0
M  V30 48 C 5.3973 1.87999 -1.31107 0
M  V30 49 C 6.3973 1.59316 -0.217959 0
M  V30 50 O 7.5873 1.67656 -0.472977 0
M  V30 51 C 4.7193 3.24861 -1.03334 0
M  V30 52 H 5.9123 1.94307 -2.2844 0
M  V30 53 H 3.4653 0.983813 -1.21453 0
M  V30 54 H 4.2003 3.24235 -0.0647432 0
M  V30 55 H 3.9853 3.4707 -1.82441 0
M  V30 56 H 5.4753 4.04929 -1.02088 0
M  V30 57 N 5.9124 1.20967 1.01018 0
M  V30 58 C 7.1584 1.02526 1.74975 0
M  V30 59 C 7.4914 -0.4408 1.89131 0
M  V30 60 O 6.7664 -1.32718 1.42184 0
M  V30 61 C 7.0494 1.71699 3.1653 0
M  V30 62 C 6.9024 3.25791 3.10129 0
M  V30 63 C 8.2214 1.45531 4.15342 0
M  V30 64 H 5.3404 0.373863 0.635134 0
M  V30 65 H 7.9824 1.49071 1.17805 0
M  V30 66 H 6.1324 1.32128 3.65341 0
M  V30 67 H 7.8044 3.74697 2.69072 0
M  V30 68 H 6.0474 3.56363 2.47362 0
M  V30 69 H 6.7184 3.69353 4.10222 0
M  V30 70 H 9.1944 1.79872 3.75213 0
M  V30 71 H 8.0704 1.96453 5.1254 0
M  V30 72 H 8.3314 0.384237 4.40427 0
M  V30 73 N 7.3905 -1.2043 1.01659 0
M  V30 74 C 8.6385 -1.89423 0.704522 0
M  V30 75 C 8.9595 -1.79231 -0.768197 0
M  V30 76 O 8.2295 -1.1947 -1.55254 0
M  V30 77 H 6.8095 -0.701178 0.257602 0
M  V30 78 H 9.4715 -1.4626 1.28818 0
M  V30 79 H 8.5675 -2.96052 0.987916 0
M  V30 80 N 8.8686 -0.792821 -1.36206 0
M  V30 81 C 10.1166 -0.366062 -1.98757 0
M  V30 82 C 10.4376 1.0668 -1.63231 0
M  V30 83 O 9.7076 1.73587 -0.907978 0
M  V30 84 H 8.2876 -0.132364 -0.735179 0
M  V30 85 H 10.9496 -1.01562 -1.66347 0
M  V30 86 H 10.0456 -0.460638 -3.08682 0
M  V30 87 N 10.3467 1.47872 -0.545128 0
M  V30 88 C 11.7577 1.86384 -0.108581 0
M  V30 89 C 12.1087 1.45309 1.31832 0
M  V30 90 O 11.2337 0.850641 1.9898 0
M  V30 91 C 11.8287 3.38265 -0.190274 0
M  V30 92 C 10.3877 3.75914 0.191164 0
M  V30 93 C 9.5347 2.71926 -0.543273 0
M  V30 94 H 12.4857 1.39561 -0.755537 0
M  V30 95 H 12.5067 3.75831 0.594217 0
M  V30 96 H 12.0187 3.6813 -1.2289 0
M  V30 97 H 10.1197 3.51665 1.23136 0
M  V30 98 H 10.2327 4.78836 -0.158987 0
M  V30 99 H 8.5967 2.54697 0.0122495 0
M  V30 100 H 9.3797 3.04634 -1.58282 0
M  V30 101 N 11.8248 0.280983 1.55075 0
M  V30 102 C 13.0708 -0.33461 2.00021 0
M  V30 103 C 13.4038 -1.55063 1.16915 0
M  V30 104 O 12.6788 -1.93006 0.240646 0
M  V30 105 C 12.9618 -0.711007 3.53011 0
M  V30 106 C 12.8148 0.512766 4.46868 0
M  V30 107 C 14.1338 -1.54522 4.12081 0
M  V30 108 H 11.2528 -0.120147 0.727141 0
M  V30 109 H 13.8948 0.389097 1.85973 0
M  V30 110 H 12.0448 -1.32761 3.65112 0
M  V30 111 H 13.7168 1.15131 4.46702 0
M  V30 112 H 11.9598 1.14975 4.18286 0
M  V30 113 H 12.6308 0.205556 5.51617 0
M  V30 114 H 15.1068 -1.02442 4.03293 0
M  V30 115 H 13.9828 -1.77739 5.19327 0
M  V30 116 H 14.2438 -2.52813 3.62682 0
M  V30 117 N 13.3029 -1.57598 0.00835791 0
M  V30 118 C 14.5509 -1.90551 -0.6734 0
M  V30 119 C 14.8719 -0.883301 -1.73847 0
M  V30 120 O 14.1419 0.0781442 -1.95744 0
M  V30 121 H 12.7219 -0.703312 -0.251717 0
M  V30 122 H 15.3839 -1.94833 0.0512592 0
M  V30 123 H 14.4799 -2.9056 -1.13935 0
M  V30 124 N 14.781 0.264519 -1.55364 0
M  V30 125 C 16.011 1.01153 -1.80143 0
M  V30 126 C 16.419 1.80115 -0.579253 0
M  V30 127 O 15.762 1.77813 0.46132 0
M  V30 128 C 15.824 2.01098 -2.97993 0
M  V30 129 C 15.488 1.40995 -4.34706 0
M  V30 130 C 16.485 0.821316 -5.13372 0
M  V30 131 C 14.17 1.43461 -4.81378 0
M  V30 132 C 16.164 0.265339 -6.36847 0
M  V30 133 C 13.851 0.874771 -6.04807 0
M  V30 134 C 14.849 0.291146 -6.82379 0
M  V30 135 O 14.537 -0.260093 -8.03479 0
M  V30 136 H 14.269 0.304125 -0.603725 0
M  V30 137 H 16.823 0.298089 -2.03225 0
M  V30 138 H 15.053 2.76224 -2.70623 0
M  V30 139 H 16.742 2.61997 -3.1002 0
M  V30 140 H 17.508 0.794903 -4.78442 0
M  V30 141 H 13.387 1.87826 -4.21002 0
M  V30 142 H 16.931 -0.190837 -6.97339 0
M  V30 143 H 12.828 0.898452 -6.39217 0
M  V30 144 H 13.596 -0.150265 -8.18362 0
M  V30 145 N 16.2591 1.48442 0.529413 0
M  V30 146 C 17.4871 1.60151 1.30994 0
M  V30 147 C 17.9021 0.261985 1.86973 0
M  V30 148 O 17.2591 -0.748805 1.66431 0
M  V30 149 C 17.3101 2.64854 2.46038 0
M  V30 150 O 17.0311 3.93608 1.92365 0
M  V30 151 C 18.5321 2.87007 3.37849 0
M  V30 152 H 15.7521 0.539971 0.398338 0
M  V30 153 H 18.2961 1.94273 0.638597 0
M  V30 154 H 16.4511 2.33589 3.09055 0
M  V30 155 H 16.8651 4.51055 2.67675 0
M  V30 156 H 18.3391 3.64068 4.14919 0
M  V30 157 H 18.8161 1.95852 3.93114 0
M  V30 158 H 19.4221 3.19579 2.80623 0
M  V30 159 N 17.7372 -0.778329 1.37039 0
M  V30 160 C 19.1482 -1.35421 1.28523 0
M  V30 161 C 19.4992 -1.96075 -0.0700901 0
M  V30 162 O 18.6242 -1.93352 -0.971801 0
M  V30 163 C 19.2192 -2.46211 2.32735 0
M  V30 164 C 17.7782 -2.99585 2.27873 0
M  V30 165 C 16.9252 -1.72748 2.16918 0
M  V30 166 H 19.8762 -0.5791 1.47757 0
M  V30 167 H 19.8972 -3.2552 1.9702 0
M  V30 168 H 19.4092 -2.02036 3.31365 0
M  V30 169 H 17.5102 -3.48152 1.32745 0
M  V30 170 H 17.6232 -3.55646 3.21018 0
M  V30 171 H 15.9872 -1.95416 1.63354 0
M  V30 172 H 16.7702 -1.30686 3.17452 0
M  V30 173 N 19.2153 -1.21501 -1.00376 0
M  V30 174 C 20.6263 -1.03146 -1.55621 0
M  V30 175 C 20.9773 0.408375 -1.91903 0
M  V30 176 O 20.1023 1.29177 -1.73616 0
M  V30 177 C 20.6973 -1.86612 -2.82775 0
M  V30 178 C 19.2563 -1.72586 -3.34501 0
M  V30 179 C 18.4033 -1.83747 -2.07683 0
M  V30 180 H 21.3543 -1.35505 -0.826081 0
M  V30 181 H 21.3753 -1.3771 -3.54706 0
M  V30 182 H 20.8873 -2.91399 -2.56336 0
M  V30 183 H 18.9883 -0.704877 -3.65872 0
M  V30 184 H 19.1013 -2.54623 -4.05837 0
M  V30 185 H 17.4653 -1.27069 -2.20739 0
M  V30 186 H 18.2483 -2.90044 -1.83655 0
M  V30 187 N 20.6934 1.19889 -1.02296 0
M  V30 188 C 21.9704 1.85148 -0.630832 0
M  V30 189 C 22.3504 1.91385 0.890782 0
M  V30 190 O 21.6984 1.42642 1.78509 0
M  V30 191 C 21.9084 3.24442 -1.28602 0
M  V30 192 C 23.2564 4.00663 -1.4055 0
M  V30 193 O 24.2804 3.33818 -1.24273 0
M  V30 194 O 23.1394 5.20387 -1.66913 0
M  V30 195 H 20.2334 0.797613 -0.218499 0
M  V30 196 H 22.7794 1.27427 -1.12074 0
M  V30 197 H 21.5514 3.14704 -2.32545 0
M  V30 198 H 21.1744 3.89802 -0.7836 0
M  V30 199 N 22.1715 0.800033 1.35784 0
M  V30 200 C 23.4195 0.376597 1.9856 0
M  V30 201 C 23.7405 -1.05812 1.63795 0
M  V30 202 O 23.0105 -1.73103 0.917171 0
M  V30 203 H 21.5905 0.136261 0.734467 0
M  V30 204 H 24.2525 1.02442 1.65806 0
M  V30 205 H 23.3485 0.477002 3.08433 0
M  V30 206 N 23.6496 -1.47581 0.552962 0
M  V30 207 C 24.8976 -2.02082 0.0272703 0
M  V30 208 C 25.2186 -1.4301 -1.32563 0
M  V30 209 O 24.4886 -0.603745 -1.86365 0
M  V30 210 H 23.0686 -0.746966 0.00709182 0
M  V30 211 H 25.7306 -1.81033 0.722008 0
M  V30 212 H 24.8266 -3.12034 -0.0639951 0
M  V30 213 N 25.1277 -0.289203 -1.54924 0
M  V30 214 C 26.3737 0.316922 -2.00916 0
M  V30 215 C 26.7287 1.52424 -1.17408 0
M  V30 216 O 26.0217 1.90097 -0.239536 0
M  V30 217 C 26.2157 0.736119 -3.49737 0
M  V30 218 C 26.0447 -0.429036 -4.47649 0
M  V30 219 C 24.8147 -0.917311 -4.96904 0
M  V30 220 C 27.0127 -1.27016 -4.98369 0
M  V30 221 N 24.9947 -2.05046 -5.78644 0
M  V30 222 C 26.3657 -2.25097 -5.77695 0
M  V30 223 C 28.4207 -1.30188 -4.80578 0
M  V30 224 C 27.1237 -3.26114 -6.41126 0
M  V30 225 C 29.1497 -2.30057 -5.44819 0
M  V30 226 C 28.5117 -3.2687 -6.23968 0
M  V30 227 H 24.6107 0.0807535 -0.777819 0
M  V30 228 H 27.1947 -0.416434 -1.90194 0
M  V30 229 H 25.3657 1.43867 -3.60773 0
M  V30 230 H 27.0977 1.32078 -3.82541 0
M  V30 231 H 23.8527 -0.494248 -4.71014 0
M  V30 232 H 24.2767 -2.62108 -6.24202 0
M  V30 233 H 28.9187 -0.567163 -4.18979 0
M  V30 234 H 26.6367 -4.00512 -7.01866 0
M  V30 235 H 30.2227 -2.33271 -5.32988 0
M  V30 236 H 29.1027 -4.02883 -6.72796 0
M  V30 237 N 26.6058 1.57591 -0.0167156 0
M  V30 238 C 27.8538 1.90906 0.663285 0
M  V30 239 C 28.1748 0.892509 1.73376 0
M  V30 240 O 27.4448 -0.0677623 1.95783 0
M  V30 241 H 26.0248 0.704637 0.247983 0
M  V30 242 H 28.6868 1.94803 -0.0615909 0
M  V30 243 H 27.7828 2.9116 1.12393 0
M  V30 244 N 28.0839 -0.256276 1.55502 0
M  V30 245 C 29.3299 -0.982884 1.78076 0
M  V30 246 C 29.6849 -1.83319 0.584109 0
M  V30 247 O 28.9779 -1.86875 -0.422877 0
M  V30 248 C 29.1719 -1.88432 3.03691 0
M  V30 249 C 29.0009 -1.12276 4.35459 0
M  V30 250 C 27.7709 -0.831647 4.98409 0
M  V30 251 C 29.9689 -0.504933 5.11815 0
M  V30 252 N 27.9509 -0.0450423 6.13883 0
M  V30 253 C 29.3219 0.146696 6.19826 0
M  V30 254 C 31.3769 -0.414455 4.96172 0
M  V30 255 C 30.0799 0.880103 7.13895 0
M  V30 256 C 32.1059 0.305398 5.90611 0
M  V30 257 C 31.4679 0.945701 6.98023 0
M  V30 258 H 27.5669 -0.341084 0.703694 0
M  V30 259 H 30.1509 -0.256909 1.92998 0
M  V30 260 H 28.3219 -2.58241 2.90114 0
M  V30 261 H 30.0539 -2.54579 3.14598 0
M  V30 262 H 26.8089 -1.14111 4.59647 0
M  V30 263 H 27.2329 0.336079 6.76165 0
M  V30 264 H 31.8749 -0.895163 4.13215 0
M  V30 265 H 29.5929 1.37244 7.9636 0
M  V30 266 H 33.1789 0.375946 5.80584 0
M  V30 267 H 32.0589 1.49383 7.6984 0
M  V30 268 N 29.562 -1.4872 -0.521534 0
M  V30 269 C 30.525 -1.63379 -1.60748 0
M  V30 270 C 31.525 -0.50661 -1.52611 0
M  V30 271 O 32.715 -0.772601 -1.5613 0
M  V30 272 C 29.847 -1.61192 -3.00383 0
M  V30 273 H 31.04 -2.60217 -1.49087 0
M  V30 274 H 28.593 -1.37444 -0.744235 0
M  V30 275 H 29.328 -0.65863 -3.17541 0
M  V30 276 H 29.113 -2.43032 -3.07698 0
M  V30 277 H 30.603 -1.7466 -3.7932 0
M  V30 278 N 31.0401 0.771051 -1.3745 0
M  V30 279 C 32.2861 1.5319 -1.32894 0
M  V30 280 C 32.6191 1.94008 0.0862511 0
M  V30 281 O 31.8941 1.64124 1.04373 0
M  V30 282 C 32.1771 2.79648 -2.26868 0
M  V30 283 C 32.0301 2.45079 -3.77169 0
M  V30 284 C 33.3491 3.81583 -2.19277 0
M  V30 285 H 30.4681 0.555744 -0.484064 0
M  V30 286 H 33.1101 0.884492 -1.68157 0
M  V30 287 H 31.2601 3.34891 -1.96926 0
M  V30 288 H 32.9321 1.95745 -4.1771 0
M  V30 289 H 31.1751 1.77767 -3.95704 0
M  V30 290 H 31.8461 3.35478 -4.38359 0
M  V30 291 H 34.3221 3.35835 -2.45671 0
M  V30 292 H 33.1981 4.67787 -2.87171 0
M  V30 293 H 33.4591 4.25897 -1.18592 0
M  V30 294 N 32.5182 1.22032 0.997298 0
M  V30 295 C 33.7642 1.04376 1.73878 0
M  V30 296 C 34.0972 -0.420716 1.89588 0
M  V30 297 O 33.3722 -1.31202 1.43583 0
M  V30 298 C 33.6552 1.75047 3.14691 0
M  V30 299 C 33.5082 3.29062 3.06656 0
M  V30 300 C 34.8272 1.49928 4.13775 0
M  V30 301 H 31.9462 0.380578 0.631133 0
M  V30 302 H 34.5882 1.50312 1.16217 0
M  V30 303 H 32.7382 1.35996 3.63919 0
M  V30 304 H 34.4102 3.7753 2.65083 0
M  V30 305 H 32.6532 3.58967 2.43568 0
M  V30 306 H 33.3242 3.73683 4.06282 0
M  V30 307 H 35.8002 1.83842 3.73285 0
M  V30 308 H 34.6762 2.01878 5.10428 0
M  V30 309 H 34.9372 0.430929 4.39995 0
M  V30 310 N 33.9963 -1.19345 1.0293 0
M  V30 311 C 35.2453 -1.88363 0.721256 0
M  V30 312 C 35.5583 -1.80514 -0.753254 0
M  V30 313 O 36.7643 -2.44788 -1.17436 0
M  V30 314 C 35.2203 -3.37872 1.23978 0
M  V30 315 C 34.8283 -3.54278 2.74211 0
M  V30 316 C 36.5723 -4.12365 1.00775 0
M  V30 317 C 34.4793 -4.97682 3.19479 0
M  V30 318 H 33.4093 -0.705484 0.266098 0
M  V30 319 H 36.0603 -1.34928 1.24365 0
M  V30 320 H 34.4423 -3.90707 0.6453 0
M  V30 321 H 35.6163 -3.11769 3.39318 0
M  V30 322 H 33.9313 -2.93174 2.95699 0
M  V30 323 H 36.5283 -5.18119 1.32123 0
M  V30 324 H 36.8713 -4.16263 -0.0554308 0
M  V30 325 H 37.4043 -3.65668 1.56625 0
M  V30 326 H 34.1433 -4.98945 4.25128 0
M  V30 327 H 33.6633 -5.4095 2.591 0
M  V30 328 H 35.3423 -5.66337 3.12845 0
M  V30 329 N 35.4744 -0.807222 -1.35358 0
M  V30 330 C 36.7224 -0.387122 -1.98358 0
M  V30 331 C 37.0434 1.04942 -1.64354 0
M  V30 332 O 36.3134 1.72615 -0.926339 0
M  V30 333 H 34.8934 -0.140154 -0.733734 0
M  V30 334 H 37.5554 -1.0332 -1.6526 0
M  V30 335 H 36.6514 -0.493352 -3.08176 0
M  V30 336 N 36.9525 1.47285 -0.560781 0
M  V30 337 C 37.9155 2.28535 0.174488 0
M  V30 338 C 38.9155 1.37153 0.839388 0
M  V30 339 O 40.1055 1.59748 0.694702 0
M  V30 340 C 37.2375 3.16934 1.25561 0
M  V30 341 H 38.4305 2.95012 -0.539262 0
M  V30 342 H 35.9835 1.53034 -0.317865 0
M  V30 343 H 36.7185 2.55157 2.00164 0
M  V30 344 H 36.5035 3.8419 0.783604 0
M  V30 345 H 37.9935 3.78143 1.77193 0
M  V30 346 N 38.4306 0.297415 1.54768 0
M  V30 347 C 39.6776 -0.312913 2.00068 0
M  V30 348 C 40.0056 -1.54171 1.18582 0
M  V30 349 O 39.2606 -1.94108 0.249133 0
M  V30 350 C 39.5596 -0.717561 3.50123 0
M  V30 351 C 39.2256 0.409095 4.4904 0
M  V30 352 C 37.8876 0.718399 4.75807 0
M  V30 353 C 40.2396 1.16717 5.07963 0
M  V30 354 C 37.5676 1.78896 5.5876 0
M  V30 355 C 39.9196 2.22762 5.92081 0
M  V30 356 C 38.5836 2.54303 6.1716 0
M  V30 357 H 37.8536 -0.114503 0.7321 0
M  V30 358 H 40.5006 0.415767 1.86932 0
M  V30 359 H 38.8056 -1.52627 3.60849 0
M  V30 360 H 40.5026 -1.20091 3.82595 0
M  V30 361 H 37.0926 0.157918 4.28309 0
M  V30 362 H 41.2766 0.941466 4.87289 0
M  V30 363 H 36.5326 2.0381 5.7643 0
M  V30 364 H 40.7066 2.81962 6.36765 0
M  V30 365 H 38.3336 3.3739 6.81229 0
M  V30 366 N 39.9087 -1.5758 0.0250728 0
M  V30 367 C 41.1577 -1.90811 -0.653767 0
M  V30 368 C 41.4707 -0.90273 -1.73523 0
M  V30 369 O 42.6767 -1.12614 -2.47043 0
M  V30 370 C 41.1327 -3.38804 -1.21409 0
M  V30 371 C 40.7407 -4.47692 -0.166126 0
M  V30 372 C 42.4847 -3.81108 -1.86967 0
M  V30 373 C 40.3917 -5.86779 -0.737856 0
M  V30 374 H 39.3217 -0.712063 -0.247956 0
M  V30 375 H 41.9727 -1.83281 0.0897137 0
M  V30 376 H 40.3547 -3.41252 -2.00905 0
M  V30 377 H 41.5287 -4.56797 0.606079 0
M  V30 378 H 39.8437 -4.14565 0.390466 0
M  V30 379 H 42.4407 -4.82375 -2.30692 0
M  V30 380 H 42.7837 -3.15953 -2.71071 0
M  V30 381 H 43.3167 -3.81065 -1.14167 0
M  V30 382 H 40.0557 -6.55468 0.0649577 0
M  V30 383 H 39.5757 -5.81288 -1.47864 0
M  V30 384 H 41.2547 -6.35223 -1.22884 0
M  V30 385 N 41.3868 0.248026 -1.55636 0
M  V30 386 C 42.6118 0.998028 -1.81808 0
M  V30 387 C 43.0368 1.78207 -0.601979 0
M  V30 388 O 42.3948 1.75653 0.448961 0
M  V30 389 C 42.4428 1.9125 -3.05705 0
M  V30 390 O 41.5468 3.00406 -2.82542 0
M  V30 391 H 40.8878 0.284045 -0.600179 0
M  V30 392 H 43.4178 0.269357 -2.02819 0
M  V30 393 H 43.4278 2.32737 -3.35108 0
M  V30 394 H 42.1028 1.33602 -3.93857 0
M  V30 395 H 40.6798 2.63056 -2.64303 0
M  V30 396 N 42.8649 1.48995 0.513639 0
M  V30 397 C 44.1139 1.57093 1.2651 0
M  V30 398 C 44.4269 0.257091 1.93903 0
M  V30 399 O 45.6329 0.216478 2.70636 0
M  V30 400 C 44.0889 2.77118 2.29638 0
M  V30 401 C 43.6969 4.15209 1.68241 0
M  V30 402 C 45.4409 2.94538 3.05692 0
M  V30 403 C 43.3479 5.26474 2.69406 0
M  V30 404 H 42.2779 0.584876 0.475854 0
M  V30 405 H 44.9289 1.7536 0.540487 0
M  V30 406 H 43.3109 2.52319 3.05207 0
M  V30 407 H 44.4849 4.50094 0.987505 0
M  V30 408 H 42.7999 4.03042 1.04623 0
M  V30 409 H 45.3969 3.74832 3.8132 0
M  V30 410 H 45.7399 2.04614 3.62545 0
M  V30 411 H 46.2729 3.19316 2.37238 0
M  V30 412 H 43.0119 6.18417 2.17351 0
M  V30 413 H 42.5319 4.96058 3.37175 0
M  V30 414 H 44.2109 5.55277 3.32078 0
M  V30 415 N 44.343 -0.763751 1.37857 0
M  V30 416 C 45.591 -1.51957 1.33243 0
M  V30 417 C 45.912 -1.94835 -0.0801709 0
M  V30 418 O 45.182 -1.66894 -1.02582 0
M  V30 419 H 43.762 -0.563626 0.49024 0
M  V30 420 H 46.424 -0.908504 1.7243 0
M  V30 421 H 45.52 -2.41523 1.97669 0
M  V30 422 N 45.8211 -1.22559 -0.990812 0
M  V30 423 C 47.0681 -1.05141 -1.73065 0
M  V30 424 C 47.3961 0.413191 -1.9006 0
M  V30 425 O 46.6511 1.32257 -1.44245 0
M  V30 426 C 46.9501 -1.71011 -3.13831 0
M  V30 427 C 46.6161 -3.20911 -3.16745 0
M  V30 428 C 45.2781 -3.61812 -3.17247 0
M  V30 429 C 47.6301 -4.16846 -3.12872 0
M  V30 430 C 44.9581 -4.97127 -3.1158 0
M  V30 431 C 47.3101 -5.5214 -3.08746 0
M  V30 432 C 45.9741 -5.92419 -3.07565 0
M  V30 433 H 45.2441 -0.384738 -0.633291 0
M  V30 434 H 47.8911 -1.5235 -1.16025 0
M  V30 435 H 46.1961 -1.16133 -3.74193 0
M  V30 436 H 47.8931 -1.55023 -3.69823 0
M  V30 437 H 44.4831 -2.88344 -3.17105 0
M  V30 438 H 48.6671 -3.86263 -3.11632 0
M  V30 439 H 43.9231 -5.27562 -3.09012 0
M  V30 440 H 48.0971 -6.26201 -3.04705 0
M  V30 441 H 45.7241 -6.97236 -3.02929 0
M  V30 442 N 47.2992 1.18797 -1.03562 0
M  V30 443 C 48.5242 1.9314 -0.755764 0
M  V30 444 C 48.9492 1.7537 0.68022 0
M  V30 445 O 48.3072 1.06046 1.47051 0
M  V30 446 C 48.3552 3.42747 -1.12058 0
M  V30 447 O 47.4592 4.11683 -0.243124 0
M  V30 448 H 46.8002 0.602724 -0.278604 0
M  V30 449 H 49.3302 1.50678 -1.3841 0
M  V30 450 H 49.3402 3.93437 -1.08035 0
M  V30 451 H 48.0152 3.55002 -2.16672 0
M  V30 452 H 46.5922 3.71323 -0.342539 0
M  V30 453 N 48.7773 0.814389 1.34928 0
M  V30 454 C 50.0073 0.41054 2.0248 0
M  V30 455 C 50.4153 -0.985625 1.61499 0
M  V30 456 O 49.7583 -1.64781 0.811976 0
M  V30 457 C 49.8203 0.423384 3.56998 0
M  V30 458 C 49.4843 1.77141 4.21272 0
M  V30 459 C 50.4813 2.73093 4.42398 0
M  V30 460 C 48.1663 2.05755 4.58225 0
M  V30 461 C 50.1603 3.95838 4.9959 0
M  V30 462 C 47.8473 3.28762 5.1513 0
M  V30 463 C 48.8453 4.23621 5.35755 0
M  V30 464 O 48.5333 5.44456 5.91458 0
M  V30 465 H 48.2653 0.163997 0.655806 0
M  V30 466 H 50.8193 1.10155 1.73364 0
M  V30 467 H 49.0493 -0.324276 3.85338 0
M  V30 468 H 50.7383 0.0407683 4.0588 0
M  V30 469 H 51.5043 2.5228 4.14222 0
M  V30 470 H 47.3833 1.32727 4.4148 0
M  V30 471 H 50.9273 4.69891 5.15605 0
M  V30 472 H 46.8243 3.49443 5.42734 0
M  V30 473 H 47.5923 5.4586 6.09901 0
M  V30 474 N 50.2554 -1.46986 0.568584 0
M  V30 475 C 51.2184 -2.28624 -0.162366 0
M  V30 476 C 52.2184 -1.37596 -0.832103 0
M  V30 477 O 53.4084 -1.60115 -0.68622 0
M  V30 478 C 50.5404 -3.17596 -1.23878 0
M  V30 479 H 51.7334 -2.94722 0.554899 0
M  V30 480 H 49.2864 -1.52863 0.325976 0
M  V30 481 H 50.0214 -2.56214 -1.98808 0
M  V30 482 H 49.8064 -3.846 -0.763219 0
M  V30 483 H 51.2964 -3.79078 -1.75185 0
M  V30 484 N 51.7335 -0.305618 -1.54608 0
M  V30 485 C 52.9805 0.302298 -2.00231 0
M  V30 486 C 53.3085 1.5354 -1.19398 0
M  V30 487 O 52.5635 1.93973 -0.259423 0
M  V30 488 C 52.8625 0.698983 -3.50498 0
M  V30 489 C 52.5285 -0.432903 -4.48817 0
M  V30 490 C 51.1905 -0.743622 -4.75419 0
M  V30 491 C 53.5425 -1.19409 -5.07337 0
M  V30 492 C 50.8705 -1.81857 -5.57804 0
M  V30 493 C 53.2225 -2.25899 -5.90891 0
M  V30 494 C 51.8865 -2.57572 -6.15803 0
M  V30 495 H 51.1565 0.110619 -0.732697 0
M  V30 496 H 53.8035 -0.425674 -1.86709 0
M  V30 497 H 52.1085 1.50711 -3.61654 0
M  V30 498 H 53.8055 1.1806 -3.83227 0
M  V30 499 H 50.3955 -0.18063 -4.28219 0
M  V30 500 H 54.5795 -0.967295 -4.86782 0
M  V30 501 H 49.8355 -2.06864 -5.75341 0
M  V30 502 H 54.0095 -2.85335 -6.35261 0
M  V30 503 H 51.6365 -3.40998 -6.7943 0
M  V30 504 N 53.2116 1.57565 -0.0334293 0
M  V30 505 C 54.6226 1.79746 0.504798 0
M  V30 506 C 54.9736 0.944091 1.71992 0
M  V30 507 O 54.0986 0.155694 2.15839 0
M  V30 508 C 54.6936 3.25997 0.922567 0
M  V30 509 C 53.2526 3.49159 1.40588 0
M  V30 510 C 52.3996 2.74785 0.372633 0
M  V30 511 H 55.3506 1.56565 -0.259436 0
M  V30 512 H 55.3716 3.35945 1.78666 0
M  V30 513 H 54.8836 3.88081 0.0379825 0
M  V30 514 H 52.9846 2.92332 2.31025 0
M  V30 515 H 53.0976 4.57873 1.41028 0
M  V30 516 H 51.4616 2.40391 0.841672 0
M  V30 517 H 52.2446 3.39587 -0.503559 0
M  V30 518 N 54.6897 -0.239769 1.55765 0
M  V30 519 C 55.6367 -1.29696 1.90913 0
M  V30 520 C 56.6067 -1.47478 0.764164 0
M  V30 521 O 57.7917 -1.61345 1.01845 0
M  V30 522 C 54.9317 -2.64598 2.21544 0
M  V30 523 C 54.0447 -2.54765 3.48882 0
M  V30 524 C 53.1797 -3.82069 3.69049 0
M  V30 525 C 52.2187 -3.66883 4.89963 0
M  V30 526 N 51.3557 -4.86094 5.06614 0
M  V30 527 H 56.1957 -0.990224 2.81067 0
M  V30 528 H 53.7327 -0.477684 1.39128 0
M  V30 529 H 55.6907 -3.43132 2.3731 0
M  V30 530 H 54.3207 -2.93405 1.34585 0
M  V30 531 H 53.3727 -1.67763 3.41409 0
M  V30 532 H 54.6847 -2.39457 4.37563 0
M  V30 533 H 53.8387 -4.69046 3.84812 0
M  V30 534 H 52.5777 -4.00282 2.78614 0
M  V30 535 H 51.5827 -2.78289 4.74168 0
M  V30 536 H 52.8077 -3.50157 5.81865 0
M  V30 537 H 50.7537 -5.04655 4.19117 0
M  V30 538 H 50.6707 -4.73443 5.89396 0
M  V30 539 H 51.9387 -5.74549 5.26795 0
M  V30 540 N 56.1678 -1.49265 -0.50573 0
M  V30 541 C 57.3928 -1.62478 -1.28902 0
M  V30 542 C 57.8178 -0.294332 -1.85783 0
M  V30 543 O 57.1758 0.737412 -1.65626 0
M  V30 544 C 57.2238 -2.69268 -2.39848 0
M  V30 545 O 56.3278 -2.28113 -3.43567 0
M  V30 546 H 55.6688 -0.54399 -0.380751 0
M  V30 547 H 58.1988 -1.95421 -0.605952 0
M  V30 548 H 58.2088 -2.91291 -2.85681 0
M  V30 549 H 56.8838 -3.65846 -1.97812 0
M  V30 550 H 55.4608 -2.16401 -3.03685 0
M  V30 551 N 57.6459 0.756429 -1.3826 0
M  V30 552 C 58.8949 1.51082 -1.3363 0
M  V30 553 C 59.2079 1.95467 0.0720068 0
M  V30 554 O 60.4139 2.7043 0.240834 0
M  V30 555 C 58.8699 2.72893 -2.34644 0
M  V30 556 C 58.4779 2.35544 -3.81081 0
M  V30 557 C 60.2219 3.50791 -2.39052 0
M  V30 558 C 58.1289 3.53948 -4.73787 0
M  V30 559 H 57.0589 0.56727 -0.49671 0
M  V30 560 H 59.7099 0.827147 -1.638 0
M  V30 561 H 58.0919 3.43227 -1.97513 0
M  V30 562 H 59.2659 1.72894 -4.27135 0
M  V30 563 H 57.5809 1.70786 -3.79764 0
M  V30 564 H 60.1779 4.38823 -3.05513 0
M  V30 565 H 60.5209 3.91745 -1.40861 0
M  V30 566 H 61.0539 2.87467 -2.74968 0
M  V30 567 H 57.7929 3.18064 -5.73163 0
M  V30 568 H 57.3129 4.15651 -4.32428 0
M  V30 569 H 58.9919 4.20566 -4.91663 0
M  V30 570 N 59.124 1.23083 0.984299 0
M  V30 571 C 60.352 1.08714 1.76037 0
M  V30 572 C 60.767 -0.361691 1.85303 0
M  V30 573 O 60.124 -1.25034 1.32939 0
M  V30 574 C 60.175 1.70206 3.18923 0
M  V30 575 O 59.896 3.09423 3.10144 0
M  V30 576 C 61.397 1.61227 4.12941 0
M  V30 577 H 58.617 0.380664 0.552572 0
M  V30 578 H 61.161 1.62853 1.23689 0
M  V30 579 H 59.316 1.20109 3.6831 0
M  V30 580 H 59.73 3.39188 4.00065 0
M  V30 581 H 61.204 2.08962 5.10919 0
M  V30 582 H 61.681 0.570375 4.35481 0
M  V30 583 H 62.287 2.10671 3.69456 0
M  V30 584 N 60.6021 -1.18246 1.0419 0
M  V30 585 C 61.8481 -1.88536 0.747122 0
M  V30 586 C 62.1811 -1.80223 -0.723409 0
M  V30 587 O 61.4561 -1.20337 -1.52804 0
M  V30 588 C 61.7391 -3.38968 1.21544 0
M  V30 589 C 61.5921 -3.56084 2.74816 0
M  V30 590 C 62.9111 -4.32648 0.806482 0
M  V30 591 H 60.0301 -0.684619 0.272883 0
M  V30 592 H 62.6721 -1.39113 1.29413 0
M  V30 593 H 60.8221 -3.8119 0.750081 0
M  V30 594 H 62.4941 -3.22946 3.29399 0
M  V30 595 H 60.7371 -2.98699 3.14582 0
M  V30 596 H 61.4081 -4.61639 3.02644 0
M  V30 597 H 63.8841 -3.98211 1.20695 0
M  V30 598 H 62.7601 -5.36462 1.1619 0
M  V30 599 H 63.0211 -4.41146 -0.29029 0
M  V30 600 N 62.0802 -0.821533 -1.34494 0
M  V30 601 C 63.3272 -0.408946 -1.98328 0
M  V30 602 C 63.6552 1.02764 -1.65136 0
M  V30 603 O 62.9102 1.73026 -0.914349 0
M  V30 604 C 63.2092 -0.556512 -3.53041 0
M  V30 605 C 62.8752 -1.95861 -4.0614 0
M  V30 606 C 61.5372 -2.34217 -4.20352 0
M  V30 607 C 63.8892 -2.87523 -4.34718 0
M  V30 608 C 61.2172 -3.63572 -4.6047 0
M  V30 609 C 63.5692 -4.1634 -4.76281 0
M  V30 610 C 62.2332 -4.54675 -4.88699 0
M  V30 611 H 61.5032 -0.149644 -0.725732 0
M  V30 612 H 64.1502 -1.04521 -1.6046 0
M  V30 613 H 62.4552 0.163148 -3.9146 0
M  V30 614 H 64.1522 -0.217826 -4.00408 0
M  V30 615 H 60.7422 -1.65066 -3.95539 0
M  V30 616 H 64.9262 -2.59133 -4.23277 0
M  V30 617 H 60.1822 -3.93101 -4.68275 0
M  V30 618 H 64.3562 -4.87455 -4.97354 0
M  V30 619 H 61.9832 -5.54959 -5.19542 0
M  V30 620 N 63.5583 1.46682 -0.576371 0
M  V30 621 C 64.8053 2.02412 -0.0595339 0
M  V30 622 C 65.1333 1.44859 1.29793 0
M  V30 623 O 64.3883 0.601099 1.8624 0
M  V30 624 C 64.6873 3.57345 0.062886 0
M  V30 625 C 64.3533 4.33908 -1.22616 0
M  V30 626 C 63.0153 4.54544 -1.57933 0
M  V30 627 C 65.3673 4.77919 -2.07948 0
M  V30 628 C 62.6953 5.16444 -2.78393 0
M  V30 629 C 65.0473 5.41149 -3.27629 0
M  V30 630 C 63.7113 5.60014 -3.63236 0
M  V30 631 H 62.9813 0.74068 -0.021785 0
M  V30 632 H 65.6283 1.76128 -0.751735 0
M  V30 633 H 63.9333 3.82729 0.838178 0
M  V30 634 H 65.6303 3.98136 0.478439 0
M  V30 635 H 62.2203 4.18138 -0.941202 0
M  V30 636 H 66.4043 4.61738 -1.81967 0
M  V30 637 H 61.6603 5.29242 -3.06126 0
M  V30 638 H 65.8343 5.74211 -3.94023 0
M  V30 639 H 63.4613 6.07748 -4.56669 0
M  V30 640 N 65.0364 0.313813 1.54444 0
M  V30 641 C 65.9834 -0.55655 2.23989 0
M  V30 642 C 66.9534 -1.11943 1.22711 0
M  V30 643 O 68.1384 -1.16158 1.51367 0
M  V30 644 C 65.2784 -1.71635 2.99392 0
M  V30 645 C 64.3914 -1.18364 4.15468 0
M  V30 646 C 63.5264 -2.30834 4.78424 0
M  V30 647 C 62.5654 -1.74762 5.86622 0
M  V30 648 N 61.7024 -2.80855 6.43479 0
M  V30 649 H 66.5424 0.0430893 2.97969 0
M  V30 650 H 64.0794 0.0330359 1.47063 0
M  V30 651 H 66.0374 -2.39868 3.41349 0
M  V30 652 H 64.6674 -2.28742 2.27765 0
M  V30 653 H 63.7194 -0.393163 3.78363 0
M  V30 654 H 65.0314 -0.733262 4.93381 0
M  V30 655 H 64.1854 -3.0699 5.23299 0
M  V30 656 H 62.9244 -2.79204 3.99871 0
M  V30 657 H 61.9294 -0.970995 5.41158 0
M  V30 658 H 63.1544 -1.2728 6.67066 0
M  V30 659 H 61.1004 -3.28535 5.67804 0
M  V30 660 H 61.0174 -2.40351 7.16776 0
M  V30 661 H 62.2854 -3.5687 6.93011 0
M  V30 662 N 66.5145 -1.57545 0.0417849 0
M  V30 663 C 67.4245 -2.14451 -0.951213 0
M  V30 664 C 68.4405 -1.09992 -1.34825 0
M  V30 665 O 69.6165 -1.42114 -1.42708 0
M  V30 666 C 66.6815 -2.67063 -2.21084 0
M  V30 667 C 65.7425 -3.86284 -1.87304 0
M  V30 668 C 64.9755 -4.36378 -3.07261 0
M  V30 669 O 65.1985 -3.85587 -4.20332 0
M  V30 670 O 64.1325 -5.28077 -2.88822 0
M  V30 671 H 67.9585 -2.99601 -0.497287 0
M  V30 672 H 65.5435 -1.48317 -0.179567 0
M  V30 673 H 67.4255 -3.00914 -2.95006 0
M  V30 674 H 66.1005 -1.84989 -2.65633 0
M  V30 675 H 65.0075 -3.57338 -1.10727 0
M  V30 676 H 66.3405 -4.6956 -1.47562 0
M  V30 677 N 67.9926 0.231505 -1.5589 0
M  V30 678 C 69.2416 0.955346 -1.7764 0
M  V30 679 C 69.5546 1.85893 -0.608546 0
M  V30 680 O 70.7606 2.62067 -0.70943 0
M  V30 681 C 69.2166 1.74886 -3.14552 0
M  V30 682 C 68.8246 0.891915 -4.39032 0
M  V30 683 C 70.5686 2.46452 -3.45633 0
M  V30 684 C 68.4756 1.68221 -5.66971 0
M  V30 685 H 67.4056 0.360446 -0.662265 0
M  V30 686 H 70.0566 0.209516 -1.823 0
M  V30 687 H 68.4386 2.53723 -3.04041 0
M  V30 688 H 69.6126 0.144793 -4.60572 0
M  V30 689 H 67.9276 0.288863 -4.15397 0
M  V30 690 H 70.5246 3.06061 -4.38441 0
M  V30 691 H 70.8676 3.18841 -2.67668 0
M  V30 692 H 71.4006 1.74613 -3.57428 0
M  V30 693 H 68.1396 1.00178 -6.478 0
M  V30 694 H 67.6596 2.4042 -5.49507 0
M  V30 695 H 69.3386 2.24544 -6.06786 0
M  V30 696 N 69.4707 1.49531 0.497807 0
M  V30 697 C 70.3807 1.69176 1.62532 0
M  V30 698 C 71.3967 0.5744 1.64246 0
M  V30 699 O 72.5727 0.849497 1.82608 0
M  V30 700 C 69.6377 1.75695 2.98885 0
M  V30 701 C 68.6987 2.9929 3.07773 0
M  V30 702 C 67.9317 3.05488 4.37622 0
M  V30 703 O 68.1547 2.19192 5.26603 0
M  V30 704 O 67.0887 3.9798 4.51548 0
M  V30 705 H 70.9147 2.647 1.48887 0
M  V30 706 H 68.4997 1.3331 0.674441 0
M  V30 707 H 70.3817 1.82317 3.79919 0
M  V30 708 H 69.0567 0.8335 3.12785 0
M  V30 709 H 67.9637 2.98183 2.25915 0
M  V30 710 H 69.2967 3.91125 2.98801 0
M  V30 711 N 70.9488 -0.749086 1.3866 0
M  V30 712 C 72.1968 -1.50535 1.34847 0
M  V30 713 C 72.5178 -1.94909 -0.0595016 0
M  V30 714 O 71.7878 -1.67973 -1.00806 0
M  V30 715 H 70.3678 -0.558395 0.49619 0
M  V30 716 H 73.0298 -0.890165 1.73384 0
M  V30 717 H 72.1258 -2.39413 2.00219 0
M  V30 718 N 72.4269 -1.23603 -0.977757 0
M  V30 719 C 73.6759 -1.06377 -1.71368 0
M  V30 720 C 73.9889 0.399062 -1.91486 0
M  V30 721 O 75.1949 0.691312 -2.62551 0
M  V30 722 C 73.6509 -1.85512 -3.08404 0
M  V30 723 C 73.2589 -3.36141 -2.96164 0
M  V30 724 C 75.0029 -1.76783 -3.85938 0
M  V30 725 C 72.9099 -4.07659 -4.28449 0
M  V30 726 H 71.8399 -0.394452 -0.642591 0
M  V30 727 H 74.4909 -1.47594 -1.09034 0
M  V30 728 H 72.8729 -1.37103 -3.71509 0
M  V30 729 H 74.0469 -3.92056 -2.42133 0
M  V30 730 H 72.3619 -3.45712 -2.32104 0
M  V30 731 H 74.9589 -2.27526 -4.83876 0
M  V30 732 H 75.3019 -0.731116 -4.0983 0
M  V30 733 H 75.8349 -2.22818 -3.2954 0
M  V30 734 H 72.5739 -5.11648 -4.09752 0
M  V30 735 H 72.0939 -3.5653 -4.82334 0
M  V30 736 H 73.7729 -4.141 -4.97122 0
M  V30 737 N 73.905 1.17692 -1.04816 0
M  V30 738 C 75.152 1.87859 -0.75599 0
M  V30 739 C 75.48 1.80812 0.716752 0
M  V30 740 O 74.735 1.20819 1.53952 0
M  V30 741 C 75.034 3.37462 -1.17703 0
M  V30 742 C 74.7 3.64713 -2.65133 0
M  V30 743 C 73.362 3.71859 -3.05408 0
M  V30 744 C 75.714 3.76492 -3.60421 0
M  V30 745 C 73.042 3.88271 -4.39843 0
M  V30 746 C 75.394 3.94421 -4.94585 0
M  V30 747 C 74.058 3.99806 -5.3452 0
M  V30 748 H 73.328 0.687425 -0.276636 0
M  V30 749 H 75.975 1.39255 -1.31455 0
M  V30 750 H 74.28 3.88097 -0.537395 0
M  V30 751 H 75.977 3.90109 -0.928218 0
M  V30 752 H 72.567 3.59772 -2.32942 0
M  V30 753 H 76.751 3.70295 -3.30447 0
M  V30 754 H 72.007 3.90687 -4.70291 0
M  V30 755 H 76.181 4.02477 -5.68318 0
M  V30 756 H 73.808 4.12276 -6.38696 0
M  V30 757 N 75.3831 0.828654 1.34056 0
M  V30 758 C 76.3331 0.226828 2.26869 0
M  V30 759 C 77.3171 -0.612243 1.48796 0
M  V30 760 O 78.5091 -0.465884 1.70759 0
M  V30 761 C 75.6381 -0.605654 3.37915 0
M  V30 762 C 74.7241 0.244361 4.23395 0
M  V30 763 N 75.1151 1.31815 4.88322 0
M  V30 764 C 73.4131 0.0296616 4.4599 0
M  V30 765 C 74.1141 1.83895 5.51867 0
M  V30 766 N 73.0901 1.14196 5.3147 0
M  V30 767 H 76.8921 1.04811 2.74576 0
M  V30 768 H 74.4061 0.67205 1.47842 0
M  V30 769 H 76.4031 -1.05302 4.03382 0
M  V30 770 H 75.0631 -1.42504 2.91758 0
M  V30 771 H 76.0741 1.70099 4.8917 0
M  V30 772 H 72.7511 -0.757097 4.10578 0
M  V30 773 H 74.1411 2.7376 6.136 0
M  V30 774 N 76.8612 -1.46375 0.584142 0
M  V30 775 C 77.8242 -2.28784 -0.138108 0
M  V30 776 C 78.8242 -1.38471 -0.817462 0
M  V30 777 O 80.0142 -1.60833 -0.669199 0
M  V30 778 C 77.1462 -3.18892 -1.20503 0
M  V30 779 H 78.3392 -2.94117 0.586127 0
M  V30 780 H 75.8922 -1.52509 0.342171 0
M  V30 781 H 76.6272 -2.58309 -1.96079 0
M  V30 782 H 76.4122 -3.85388 -0.722384 0
M  V30 783 H 77.9022 -3.80914 -1.71155 0
M  V30 784 N 78.3393 -0.321999 -1.54275 0
M  V30 785 C 79.5673 0.283052 -2.04955 0
M  V30 786 C 79.9823 1.45904 -1.19823 0
M  V30 787 O 79.3393 1.81063 -0.228545 0
M  V30 788 C 79.3903 0.719028 -3.54277 0
M  V30 789 O 79.1113 -0.410175 -4.36176 0
M  V30 790 C 80.6123 1.38705 -4.21041 0
M  V30 791 H 77.8323 0.0584616 -0.668448 0
M  V30 792 H 80.3763 -0.467734 -1.99079 0
M  V30 793 H 78.5313 1.41979 -3.60445 0
M  V30 794 H 78.9453 -0.0669416 -5.24457 0
M  V30 795 H 80.4193 1.64306 -5.2698 0
M  V30 796 H 80.8963 2.33385 -3.72059 0
M  V30 797 H 81.5023 0.728906 -4.19007 0
M  V30 798 N 79.8174 1.5752 -0.0501392 0
M  V30 799 C 81.0454 1.96963 0.633492 0
M  V30 800 C 81.4604 0.927631 1.6444 0
M  V30 801 O 80.8174 -0.0882665 1.82286 0
M  V30 802 C 80.8684 3.36487 1.32132 0
M  V30 803 O 80.5894 4.36693 0.350894 0
M  V30 804 C 82.0904 3.90682 2.09481 0
M  V30 805 H 79.3104 0.648244 0.173266 0
M  V30 806 H 81.8544 2.0417 -0.116134 0
M  V30 807 H 80.0094 3.30434 2.02218 0
M  V30 808 H 80.4234 5.17702 0.841735 0
M  V30 809 H 81.8974 4.90591 2.5303 0
M  V30 810 H 82.3744 3.26053 2.94255 0
M  V30 811 H 82.9804 4.00069 1.44307 0
M  V30 812 N 81.2955 -0.223234 1.56011 0
M  V30 813 C 82.5205 -0.968978 1.83373 0
M  V30 814 C 82.9455 -1.77227 0.630254 0
M  V30 815 O 82.3035 -1.76345 -0.420959 0
M  V30 816 C 82.3515 -1.86363 3.08709 0
M  V30 817 O 81.4555 -2.95873 2.87285 0
M  V30 818 H 80.7965 -0.274461 0.604622 0
M  V30 819 H 83.3265 -0.237056 2.03222 0
M  V30 820 H 83.3365 -2.27376 3.38768 0
M  V30 821 H 82.0115 -1.27319 3.95933 0
M  V30 822 H 80.5885 -2.58818 2.68454 0
M  V30 823 N 82.7736 -1.49793 -0.48987 0
M  V30 824 C 83.6836 -1.70036 -1.61632 0
M  V30 825 C 84.6996 -0.583102 -1.63939 0
M  V30 826 O 85.8756 -0.859169 -1.82154 0
M  V30 827 C 82.9406 -1.77277 -2.97949 0
M  V30 828 C 82.0016 -3.00918 -3.06181 0
M  V30 829 C 81.2346 -3.07804 -4.35996 0
M  V30 830 O 81.4576 -2.21982 -5.25433 0
M  V30 831 O 80.3916 -4.00369 -4.49431 0
M  V30 832 H 84.2176 -2.65486 -1.47482 0
M  V30 833 H 81.8026 -1.33666 -0.667362 0
M  V30 834 H 83.6846 -1.84329 -3.78947 0
M  V30 835 H 82.3596 -0.850076 -3.12339 0
M  V30 836 H 81.2666 -2.99377 -2.2433 0
M  V30 837 H 82.5996 -3.92704 -2.96723 0
M  V30 838 N 84.2517 0.741722 -1.39055 0
M  V30 839 C 85.4977 1.50336 -1.36113 0
M  V30 840 C 85.8307 1.94148 0.0450796 0
M  V30 841 O 85.1057 1.66301 1.00868 0
M  V30 842 C 85.3887 2.74773 -2.32749 0
M  V30 843 C 85.2417 2.37023 -3.82283 0
M  V30 844 C 86.5607 3.76846 -2.27322 0
M  V30 845 H 83.6797 0.545351 -0.495743 0
M  V30 846 H 86.3217 0.848624 -1.69995 0
M  V30 847 H 84.4717 3.30639 -2.03986 0
M  V30 848 H 86.1437 1.8684 -4.21768 0
M  V30 849 H 84.3867 1.69334 -3.99385 0
M  V30 850 H 85.0577 3.26104 -4.45376 0
M  V30 851 H 87.5337 3.30548 -2.5274 0
M  V30 852 H 86.4097 4.6159 -2.97028 0
M  V30 853 H 86.6707 4.23286 -1.27599 0
M  V30 854 N 85.7298 1.2412 0.971189 0
M  V30 855 C 86.9548 1.10667 1.75407 0
M  V30 856 C 87.3798 -0.337048 1.85056 0
M  V30 857 O 86.7378 -1.24396 1.31892 0
M  V30 858 C 86.7858 1.74726 3.15441 0
M  V30 859 O 85.8898 1.01566 3.99697 0
M  V30 860 H 85.2308 0.387341 0.539317 0
M  V30 861 H 87.7608 1.64358 1.2185 0
M  V30 862 H 87.7708 1.80341 3.6598 0
M  V30 863 H 86.4458 2.79773 3.07734 0
M  V30 864 H 85.0228 1.03713 3.58187 0
M  V30 865 N 87.2079 -1.17134 1.05439 0
M  V30 866 C 88.4539 -1.87979 0.776872 0
M  V30 867 C 88.8089 -1.7965 -0.688751 0
M  V30 868 O 88.1019 -1.19535 -1.4974 0
M  V30 869 C 88.2959 -3.36833 1.19491 0
M  V30 870 C 88.1249 -3.59653 2.69963 0
M  V30 871 C 86.8949 -3.76234 3.37307 0
M  V30 872 C 89.0929 -3.59091 3.68182 0
M  V30 873 N 87.0749 -3.86922 4.76618 0
M  V30 874 C 88.4459 -3.75659 4.93235 0
M  V30 875 C 90.5009 -3.42255 3.61616 0
M  V30 876 C 89.2039 -3.77133 6.12506 0
M  V30 877 C 91.2299 -3.45018 4.8033 0
M  V30 878 C 90.5919 -3.62096 6.04207 0
M  V30 879 H 86.6909 -0.705876 0.336546 0
M  V30 880 H 89.2749 -1.40602 1.34682 0
M  V30 881 H 87.4459 -3.82873 0.652884 0
M  V30 882 H 89.1779 -3.95305 0.866966 0
M  V30 883 H 85.9329 -3.76193 2.87708 0
M  V30 884 H 86.3569 -3.96055 5.49062 0
M  V30 885 H 90.9989 -3.27986 2.66805 0
M  V30 886 H 88.7169 -3.90186 7.07659 0
M  V30 887 H 92.3029 -3.33246 4.76905 0
M  V30 888 H 91.1829 -3.64142 6.94529 0
M  V30 889 N 88.686 -0.835752 -1.33615 0
M  V30 890 C 89.935 -0.426289 -1.97144 0
M  V30 891 C 90.248 1.01912 -1.66953 0
M  V30 892 O 91.454 1.53311 -2.24072 0
M  V30 893 C 89.91 -0.711321 -3.52801 0
M  V30 894 C 89.518 -2.1712 -3.91871 0
M  V30 895 C 91.262 -0.368654 -4.22896 0
M  V30 896 C 89.169 -2.40044 -5.40493 0
M  V30 897 H 88.099 -0.15567 -0.737755 0
M  V30 898 H 90.75 -1.0239 -1.52278 0
M  V30 899 H 89.132 -0.0433766 -3.95976 0
M  V30 900 H 90.306 -2.87936 -3.59763 0
M  V30 901 H 88.621 -2.47654 -3.34749 0
M  V30 902 H 91.218 -0.517601 -5.32189 0
M  V30 903 H 91.561 0.688078 -4.10574 0
M  V30 904 H 92.094 -0.991702 -3.8524 0
M  V30 905 H 88.833 -3.44271 -5.57815 0
M  V30 906 H 88.353 -1.73785 -5.74072 0
M  V30 907 H 90.032 -2.23042 -6.0734 0
M  V30 908 N 90.1641 1.46063 -0.591896 0
M  V30 909 C 91.3891 2.07226 -0.0850314 0
M  V30 910 C 91.8141 1.43625 1.21463 0
M  V30 911 O 91.1721 0.523305 1.73583 0
M  V30 912 C 91.2201 3.60554 0.0576567 0
M  V30 913 O 90.3241 3.97128 1.11188 0
M  V30 914 H 89.6651 0.660615 -0.0669568 0
M  V30 915 H 92.1951 1.8756 -0.81745 0
M  V30 916 H 92.2051 4.07165 0.2609 0
M  V30 917 H 90.8801 4.06235 -0.891416 0
M  V30 918 H 89.4571 3.62213 0.886356 0
M  V30 919 N 91.6422 0.330177 1.54103 0
M  V30 920 C 92.8672 -0.274893 2.0557 0
M  V30 921 C 93.2922 -1.44487 1.20437 0
M  V30 922 O 92.6502 -1.80021 0.214991 0
M  V30 923 C 92.6982 -0.68079 3.54115 0
M  V30 924 O 91.8022 -1.7824 3.71893 0
M  V30 925 H 91.1432 -0.0483849 0.662235 0
M  V30 926 H 93.6732 0.480508 1.98878 0
M  V30 927 H 93.6832 -0.961635 3.96505 0
M  V30 928 H 92.3582 0.174903 4.15532 0
M  V30 929 H 90.9352 -1.49985 3.41407 0
M  V30 930 N 93.1203 -1.57491 0.0584922 0
M  V30 931 C 94.3693 -1.92155 -0.613146 0
M  V30 932 C 94.6823 -0.939334 -1.71569 0
M  V30 933 O 95.8883 -1.17829 -2.44599 0
M  V30 934 C 94.3443 -3.41303 -1.14195 0
M  V30 935 C 93.9523 -4.47944 -0.0711265 0
M  V30 936 C 95.6963 -3.84988 -1.78841 0
M  V30 937 C 93.6033 -5.88212 -0.613225 0
M  V30 938 H 92.5333 -0.717162 -0.232796 0
M  V30 939 H 95.1843 -1.83049 0.12857 0
M  V30 940 H 93.5663 -3.45437 -1.93621 0
M  V30 941 H 94.7403 -4.55408 0.702836 0
M  V30 942 H 93.0553 -4.13644 0.478313 0
M  V30 943 H 95.6523 -4.87159 -2.20408 0
M  V30 944 H 95.9953 -3.21632 -2.64308 0
M  V30 945 H 96.5283 -3.83401 -1.06059 0
M  V30 946 H 93.2673 -6.55183 0.203978 0
M  V30 947 H 92.7873 -5.84294 -1.35501 0
M  V30 948 H 94.4663 -6.37687 -1.09383 0
M  V30 949 N 94.5984 0.214957 -1.56127 0
M  V30 950 C 95.5314 1.29382 -1.87977 0
M  V30 951 C 96.5094 1.44897 -0.737807 0
M  V30 952 O 97.6934 1.60605 -0.986833 0
M  V30 953 C 94.8204 2.66325 -2.09258 0
M  V30 954 C 93.8664 2.67789 -3.31951 0
M  V30 955 S 94.6994 2.21198 -4.8768 0
M  V30 956 C 95.8554 3.60003 -5.12004 0
M  V30 957 H 96.0884 1.02173 -2.79192 0
M  V30 958 H 93.6214 0.417516 -1.48648 0
M  V30 959 H 95.5794 3.45162 -2.22201 0
M  V30 960 H 94.2404 2.90755 -1.18829 0
M  V30 961 H 93.4334 3.68436 -3.43906 0
M  V30 962 H 93.0354 1.9702 -3.17898 0
M  V30 963 H 95.3274 4.55739 -5.01307 0
M  V30 964 H 96.2704 3.52959 -6.13861 0
M  V30 965 H 96.6784 3.53996 -4.39712 0
M  V30 966 N 96.0765 1.50051 0.48192 0
M  V30 967 C 97.0065 1.71046 1.58951 0
M  V30 968 C 97.9875 0.559288 1.60642 0
M  V30 969 O 99.1725 0.797243 1.77081 0
M  V30 970 C 96.3025 1.79462 2.97339 0
M  V30 971 C 95.2565 2.94558 3.10515 0
M  V30 972 C 94.5825 2.88105 4.50444 0
M  V30 973 C 95.8825 4.35227 2.88747 0
M  V30 974 H 97.5765 2.6378 1.41635 0
M  V30 975 H 95.1225 1.26936 0.679942 0
M  V30 976 H 97.0755 1.92734 3.74742 0
M  V30 977 H 95.7995 0.833412 3.15788 0
M  V30 978 H 94.4585 2.80918 2.35543 0
M  V30 979 H 94.1065 1.89853 4.65795 0
M  V30 980 H 93.8065 3.65366 4.60197 0
M  V30 981 H 95.3305 3.03412 5.29881 0
M  V30 982 H 96.7445 4.49449 3.55905 0
M  V30 983 H 95.1415 5.13856 3.09955 0
M  V30 984 H 96.2115 4.48347 1.84696 0
M  V30 985 N 97.5546 -0.734337 1.39446 0
M  V30 986 C 98.5176 -1.83004 1.37994 0
M  V30 987 C 99.5176 -1.58397 0.276938 0
M  V30 988 O 100.708 -1.65785 0.534875 0
M  V30 989 C 97.8396 -3.20802 1.1532 0
M  V30 990 H 99.0326 -1.85694 2.35494 0
M  V30 991 H 96.5856 -0.938059 1.25021 0
M  V30 992 H 97.3206 -3.23772 0.185036 0
M  V30 993 H 97.1056 -3.4006 1.95197 0
M  V30 994 H 98.5956 -4.00862 1.17046 0
M  V30 995 N 99.0327 -1.24633 -0.964593 0
M  V30 996 C 100.279 -1.08949 -1.71049 0
M  V30 997 C 100.612 0.370302 -1.90637 0
M  V30 998 O 99.8867 1.27349 -1.47011 0
M  V30 999 C 100.17 -1.83329 -3.0994 0
M  V30 1000 C 100.023 -3.37077 -2.97824 0
M  V30 1001 C 101.342 -1.60846 -4.09654 0
M  V30 1002 H 98.4607 -0.397178 -0.620821 0
M  V30 1003 H 101.103 -1.5334 -1.12191 0
M  V30 1004 H 99.2527 -1.45597 -3.60186 0
M  V30 1005 H 100.925 -3.84425 -2.5498 0
M  V30 1006 H 99.1677 -3.65298 -2.33965 0
M  V30 1007 H 99.8387 -3.84324 -3.96231 0
M  V30 1008 H 102.315 -1.93674 -3.68279 0
M  V30 1009 H 101.191 -2.1534 -5.04896 0
M  V30 1010 H 101.452 -0.547434 -4.38698 0
M  V30 1011 N 100.511 1.16574 -1.06058 0
M  V30 1012 C 101.444 2.19798 -0.61352 0
M  V30 1013 C 102.422 1.58509 0.362453 0
M  V30 1014 O 103.606 1.86527 0.271994 0
M  V30 1015 C 100.733 3.3855 0.100915 0
M  V30 1016 C 99.7788 4.18317 -0.831438 0
M  V30 1017 S 100.612 4.82375 -2.32539 0
M  V30 1018 C 101.768 6.04508 -1.62238 0
M  V30 1019 H 102.001 2.5738 -1.48805 0
M  V30 1020 H 99.5338 1.27327 -0.873338 0
M  V30 1021 H 101.492 4.07358 0.506898 0
M  V30 1022 H 100.153 2.99338 0.951604 0
M  V30 1023 H 99.3458 5.03232 -0.278071 0
M  V30 1024 H 98.9478 3.5499 -1.17719 0
M  V30 1025 H 101.24 6.71133 -0.926622 0
M  V30 1026 H 102.183 6.64389 -2.44934 0
M  V30 1027 H 102.591 5.53559 -1.106 0
M  V30 1028 N 101.989 0.842826 1.3317 0
M  V30 1029 C 103.219 0.453397 2.01564 0
M  V30 1030 C 103.627 -0.951147 1.63554 0
M  V30 1031 O 102.97 -1.63021 0.846746 0
M  V30 1032 C 103.032 0.499013 3.5602 0
M  V30 1033 C 102.696 1.86037 4.1742 0
M  V30 1034 C 103.693 2.82416 4.36506 0
M  V30 1035 C 101.378 2.15428 4.53757 0
M  V30 1036 C 103.372 4.06346 4.91082 0
M  V30 1037 C 101.059 3.39615 5.0804 0
M  V30 1038 C 102.057 4.3489 5.26649 0
M  V30 1039 O 101.745 5.5688 5.79776 0
M  V30 1040 H 101.477 0.177871 0.652179 0
M  V30 1041 H 104.031 1.13808 1.70988 0
M  V30 1042 H 102.261 -0.242467 3.85939 0
M  V30 1043 H 103.95 0.126852 4.05702 0
M  V30 1044 H 104.716 2.6101 4.08777 0
M  V30 1045 H 100.595 1.42061 4.38565 0
M  V30 1046 H 104.139 4.80722 5.05522 0
M  V30 1047 H 100.036 3.60876 5.352 0
M  V30 1048 H 100.804 5.58674 5.98185 0
M  V30 1049 N 103.467 -1.45747 0.599634 0
M  V30 1050 C 104.715 -2.01893 0.0915472 0
M  V30 1051 C 105.036 -1.47155 -1.27946 0
M  V30 1052 O 104.306 -0.66273 -1.84349 0
M  V30 1053 H 102.886 -0.746363 0.0308524 0
M  V30 1054 H 105.548 -1.78645 0.779237 0
M  V30 1055 H 104.644 -3.1208 0.0353086 0
M  V30 1056 N 104.945 -0.338344 -1.53925 0
M  V30 1057 C 106.193 0.259245 -2.0043 0
M  V30 1058 C 106.514 1.51484 -1.22791 0
M  V30 1059 O 105.784 1.93037 -0.33368 0
M  V30 1060 H 104.364 0.0987845 -0.740439 0
M  V30 1061 H 107.026 -0.458302 -1.89435 0
M  V30 1062 H 106.122 0.505334 -3.07982 0
M  V30 1063 N 106.423 1.57458 -0.0668435 0
M  V30 1064 C 107.671 1.92919 0.602214 0
M  V30 1065 C 107.992 0.947215 1.70449 0
M  V30 1066 O 107.262 -0.00544117 1.95899 0
M  V30 1067 H 105.842 0.71217 0.22544 0
M  V30 1068 H 108.504 1.94508 -0.123535 0
M  V30 1069 H 107.6 2.94589 1.03073 0
M  V30 1070 N 107.901 -0.206675 1.56239 0
M  V30 1071 C 109.312 -0.772383 1.69974 0
M  V30 1072 C 109.663 -1.84353 0.671436 0
M  V30 1073 O 108.788 -2.15695 -0.174491 0
M  V30 1074 C 109.383 -1.40779 3.08167 0
M  V30 1075 C 107.942 -1.92072 3.23706 0
M  V30 1076 C 107.089 -0.786347 2.65917 0
M  V30 1077 H 110.04 0.0182223 1.5869 0
M  V30 1078 H 110.061 -2.27696 3.04852 0
M  V30 1079 H 109.573 -0.627958 3.82986 0
M  V30 1080 H 107.674 -2.7281 2.53782 0
M  V30 1081 H 107.787 -2.09046 4.31087 0
M  V30 1082 H 106.151 -1.1976 2.24788 0
M  V30 1083 H 106.934 -0.0189416 3.43295 0
M  V30 1084 N 109.379 -1.50304 -0.473955 0
M  V30 1085 C 110.628 -1.60392 -1.22301 0
M  V30 1086 C 110.941 -0.308411 -1.93153 0
M  V30 1087 O 112.147 -0.288156 -2.69966 0
M  V30 1088 C 110.603 -2.83109 -2.2221 0
M  V30 1089 C 110.211 -4.19524 -1.57173 0
M  V30 1090 C 111.955 -3.0254 -2.97775 0
M  V30 1091 C 109.862 -5.33431 -2.55353 0
M  V30 1092 H 108.792 -0.597286 -0.460179 0
M  V30 1093 H 111.443 -1.76731 -0.493803 0
M  V30 1094 H 109.825 -2.60322 -2.9841 0
M  V30 1095 H 110.999 -4.52554 -0.867824 0
M  V30 1096 H 109.314 -4.05674 -0.939002 0
M  V30 1097 H 111.911 -3.84811 -3.71248 0
M  V30 1098 H 112.254 -2.14154 -3.56992 0
M  V30 1099 H 112.787 -3.25494 -2.28688 0
M  V30 1100 H 109.526 -6.23962 -2.00878 0
M  V30 1101 H 109.046 -5.04823 -3.23904 0
M  V30 1102 H 110.725 -5.63887 -3.17239 0
M  V30 1103 N 110.857 0.726932 -1.39834 0
M  V30 1104 C 112.082 1.52121 -1.40976 0
M  V30 1105 C 112.507 1.88098 -0.00826029 0
M  V30 1106 O 111.865 1.52479 0.980807 0
M  V30 1107 C 111.913 2.78021 -2.29644 0
M  V30 1108 O 111.017 3.74272 -1.73188 0
M  V30 1109 H 110.358 0.45908 -0.479731 0
M  V30 1110 H 112.888 0.896207 -1.83927 0
M  V30 1111 H 112.898 3.26671 -2.44438 0
M  V30 1112 H 111.573 2.51169 -3.31492 0
M  V30 1113 H 110.15 3.33073 -1.6768 0
M  V30 1114 N 112.336 1.25143 0.95797 0
M  V30 1115 C 113.561 1.12521 1.74223 0
M  V30 1116 C 113.986 -0.317402 1.85403 0
M  V30 1117 O 113.344 -1.2299 1.33204 0
M  V30 1118 C 113.392 1.78062 3.1357 0
M  V30 1119 O 112.496 1.058 3.98598 0
M  V30 1120 H 111.837 0.39304 0.535178 0
M  V30 1121 H 114.367 1.65641 1.201 0
M  V30 1122 H 114.377 1.84213 3.64046 0
M  V30 1123 H 113.052 2.83021 3.04749 0
M  V30 1124 H 111.629 1.07506 3.57067 0
M  V30 1125 N 113.814 -1.1601 1.06675 0
M  V30 1126 C 115.063 -1.85973 0.780818 0
M  V30 1127 C 115.376 -1.82819 -0.695444 0
M  V30 1128 O 116.582 -2.484 -1.09589 0
M  V30 1129 C 115.038 -3.33757 1.34665 0
M  V30 1130 C 114.646 -3.45374 2.85343 0
M  V30 1131 C 116.39 -4.0895 1.13843 0
M  V30 1132 C 114.297 -4.87266 3.35151 0
M  V30 1133 H 113.227 -0.696661 0.288407 0
M  V30 1134 H 115.878 -1.30903 1.28595 0
M  V30 1135 H 114.26 -3.88456 0.769274 0
M  V30 1136 H 115.434 -3.00816 3.49065 0
M  V30 1137 H 113.749 -2.83619 3.04876 0
M  V30 1138 H 116.346 -5.13654 1.4854 0
M  V30 1139 H 116.689 -4.16229 0.0770282 0
M  V30 1140 H 117.222 -3.605 1.68179 0
M  V30 1141 H 113.961 -4.85168 4.40786 0
M  V30 1142 H 113.481 -5.32433 2.76179 0
M  V30 1143 H 115.16 -5.56097 3.30704 0
M  V30 1144 N 115.292 -0.849877 -1.32721 0
M  V30 1145 C 116.222 -0.306308 -2.31482 0
M  V30 1146 C 117.203 0.591952 -1.59468 0
M  V30 1147 O 118.388 0.513199 -1.87296 0
M  V30 1148 C 115.518 0.510204 -3.43532 0
M  V30 1149 C 114.472 -0.293209 -4.26994 0
M  V30 1150 C 113.798 0.647743 -5.30762 0
M  V30 1151 C 115.098 -1.51634 -4.99804 0
M  V30 1152 H 116.792 -1.13153 -2.77195 0
M  V30 1153 H 114.338 -0.545553 -1.33266 0
M  V30 1154 H 116.291 0.900856 -4.11658 0
M  V30 1155 H 115.015 1.36874 -2.96535 0
M  V30 1156 H 113.674 -0.665555 -3.60508 0
M  V30 1157 H 113.322 1.50299 -4.8002 0
M  V30 1158 H 113.022 0.11422 -5.87489 0
M  V30 1159 H 114.546 1.03567 -6.01753 0
M  V30 1160 H 115.96 -1.19824 -5.60638 0
M  V30 1161 H 114.357 -1.98745 -5.66234 0
M  V30 1162 H 115.427 -2.28018 -4.27943 0
M  V30 1163 N 116.77 1.45427 -0.607355 0
M  V30 1164 C 118.016 2.0254 -0.102607 0
M  V30 1165 C 118.349 1.47478 1.26348 0
M  V30 1166 O 117.624 0.64939 1.83339 0
M  V30 1167 C 117.907 3.60044 -0.0634347 0
M  V30 1168 C 117.76 4.2544 -1.46017 0
M  V30 1169 C 119.079 4.35646 0.624514 0
M  V30 1170 H 116.198 0.73598 -0.0387607 0
M  V30 1171 H 118.84 1.73284 -0.779282 0
M  V30 1172 H 116.99 3.85101 0.512808 0
M  V30 1173 H 118.662 4.11569 -2.08347 0
M  V30 1174 H 116.905 3.83849 -2.02094 0
M  V30 1175 H 117.576 5.34342 -1.385 0
M  V30 1176 H 120.052 4.15882 0.134723 0
M  V30 1177 H 118.928 5.45376 0.621028 0
M  V30 1178 H 119.189 4.08501 1.69055 0
M  V30 1179 N 118.248 0.346503 1.53744 0
M  V30 1180 C 119.196 -0.52422 2.26616 0
M  V30 1181 C 120.19 -1.09948 1.28871 0
M  V30 1182 O 121.396 -1.04488 1.46568 0
M  V30 1183 H 117.771 -0.187743 0.728187 0
M  V30 1184 H 119.742 0.11239 2.98188 0
M  V30 1185 C 118.491 -1.66186 3.05414 0
M  V30 1186 H 117.814 -1.22848 3.80458 0
M  V30 1187 H 119.254 -2.24622 3.59612 0
M  V30 1188 C 117.713 -2.59302 2.1509 0
M  V30 1189 O 118.243 -3.61628 1.74895 0
M  V30 1190 N 116.449 -2.28055 1.8011 0
M  V30 1191 H 115.996 -1.44883 2.12994 0
M  V30 1192 H 115.954 -2.90615 1.19958 0
M  V30 1193 N 119.726 -1.57421 0.075193 0
M  V30 1194 C 120.673 -2.12915 -0.890843 0
M  V30 1195 C 121.643 -1.04252 -1.29309 0
M  V30 1196 O 122.828 -1.31933 -1.37834 0
M  V30 1197 C 119.968 -2.69795 -2.15186 0
M  V30 1198 C 119.081 -3.92624 -1.80194 0
M  V30 1199 C 118.216 -4.37736 -3.00933 0
M  V30 1200 C 117.255 -5.53205 -2.61974 0
M  V30 1201 N 116.392 -5.9326 -3.75483 0
M  V30 1202 H 121.232 -2.95156 -0.410735 0
M  V30 1203 H 118.769 -1.45854 -0.191086 0
M  V30 1204 H 120.727 -3.00883 -2.89008 0
M  V30 1205 H 119.357 -1.90313 -2.60731 0
M  V30 1206 H 118.409 -3.67977 -0.964218 0
M  V30 1207 H 119.721 -4.76482 -1.47534 0
M  V30 1208 H 118.875 -4.70503 -3.8303 0
M  V30 1209 H 117.614 -3.52739 -3.36789 0
M  V30 1210 H 116.619 -5.20086 -1.783 0
M  V30 1211 H 117.844 -6.39936 -2.27284 0
M  V30 1212 H 115.79 -5.11212 -4.11094 0
M  V30 1213 H 115.707 -6.71865 -3.46602 0
M  V30 1214 H 116.975 -6.30651 -4.58148 0
M  V30 1215 N 121.204 0.198386 -1.56346 0
M  V30 1216 C 122.434 0.934215 -1.84271 0
M  V30 1217 C 122.842 1.77496 -0.655125 0
M  V30 1218 O 122.185 1.7961 0.385488 0
M  V30 1219 C 122.247 1.88278 -3.06254 0
M  V30 1220 C 121.911 1.22431 -4.40295 0
M  V30 1221 C 122.908 0.602839 -5.16393 0
M  V30 1222 C 120.593 1.22915 -4.87029 0
M  V30 1223 C 122.587 -0.0050083 -6.374 0
M  V30 1224 C 120.274 0.617465 -6.07973 0
M  V30 1225 C 121.272 0.00146341 -6.83 0
M  V30 1226 O 120.96 -0.600642 -8.01653 0
M  V30 1227 H 120.692 0.278245 -0.616081 0
M  V30 1228 H 123.246 0.211626 -2.04307 0
M  V30 1229 H 121.476 2.64498 -2.82095 0
M  V30 1230 H 123.165 2.48612 -3.20853 0
M  V30 1231 H 123.931 0.591265 -4.81382 0
M  V30 1232 H 119.81 1.69801 -4.28589 0
M  V30 1233 H 123.354 -0.48643 -6.95902 0
M  V30 1234 H 119.251 0.62653 -6.42452 0
M  V30 1235 H 120.019 -0.497225 -8.16988 0
M  V30 1236 N 122.682 1.50554 0.465978 0
M  V30 1237 C 123.93 1.61479 1.21528 0
M  V30 1238 C 124.251 0.319596 1.92363 0
M  V30 1239 O 123.521 -0.663194 1.84333 0
M  V30 1240 H 122.101 0.595055 0.451573 0
M  V30 1241 H 124.763 1.87355 0.53704 0
M  V30 1242 H 123.859 2.42846 1.96042 0
M  V30 1243 N 124.16 -0.719506 1.40217 0
M  V30 1244 C 125.385 -1.51371 1.4178 0
M  V30 1245 C 125.81 -1.88091 0.0182355 0
M  V30 1246 O 125.168 -1.52997 -0.972707 0
M  V30 1247 C 125.216 -2.768 2.31115 0
M  V30 1248 O 124.32 -3.73349 1.7517 0
M  V30 1249 H 123.661 -0.456529 0.482159 0
M  V30 1250 H 126.191 -0.88644 1.844 0
M  V30 1251 H 126.201 -3.25371 2.46167 0
M  V30 1252 H 124.876 -2.49407 3.3282 0
M  V30 1253 H 123.453 -3.32179 1.69444 0
M  V30 1254 N 125.638 -1.25649 -0.95132 0
M  V30 1255 C 127.054 -1.02542 -1.223 0
M  V30 1256 C 127.254 0.255715 -1.99871 0
M  V30 1257 O 126.31 0.967558 -2.33226 0
M  V30 1258 C 127.623 -2.25065 -1.99415 0
M  V30 1259 C 129.171 -2.29861 -2.12446 0
M  V30 1260 C 129.646 -3.52048 -2.92961 0
M  V30 1261 N 131.137 -3.52465 -3.00538 0
M  V30 1262 C 131.872 -4.43672 -3.63239 0
M  V30 1263 N 131.368 -5.45157 -4.27523 0
M  V30 1264 N 133.161 -4.31346 -3.60412 0
M  V30 1265 H 125.312 -2.07951 -0.432471 0
M  V30 1266 H 127.575 -0.91339 -0.253816 0
M  V30 1267 H 127.281 -3.18194 -1.49817 0
M  V30 1268 H 127.155 -2.28502 -3.00111 0
M  V30 1269 H 129.542 -1.37252 -2.61239 0
M  V30 1270 H 129.623 -2.3044 -1.11044 0
M  V30 1271 H 129.267 -4.44981 -2.44856 0
M  V30 1272 H 129.197 -3.48715 -3.94596 0
M  V30 1273 H 131.688 -2.79056 -2.54826 0
M  V30 1274 H 132.001 -6.10958 -4.73234 0
M  V30 1275 H 130.346 -5.49025 -4.26141 0
M  V30 1276 H 133.537 -3.51288 -3.09377 0
M  V30 1277 H 133.71 -5.02624 -4.0899 0
M  V30 1278 N 127.117 1.15442 -1.07289 0
M  V30 1279 C 128.366 1.85557 -0.790669 0
M  V30 1280 C 128.679 1.83186 0.685739 0
M  V30 1281 O 129.885 2.48977 1.0827 0
M  V30 1282 C 128.341 3.33038 -1.36433 0
M  V30 1283 C 127.949 3.43856 -2.8717 0
M  V30 1284 C 129.693 4.0834 -1.1601 0
M  V30 1285 C 127.6 4.85482 -3.3773 0
M  V30 1286 H 126.53 0.695122 -0.292098 0
M  V30 1287 H 129.181 1.30219 -1.29287 0
M  V30 1288 H 127.563 3.88043 -0.789864 0
M  V30 1289 H 128.737 2.98961 -3.50655 0
M  V30 1290 H 127.052 2.81998 -3.06376 0
M  V30 1291 H 129.649 5.12859 -1.51262 0
M  V30 1292 H 129.992 4.16182 -0.0991007 0
M  V30 1293 H 130.525 3.59603 -1.70089 0
M  V30 1294 H 127.264 4.82823 -4.43353 0
M  V30 1295 H 126.784 5.30961 -2.78999 0
M  V30 1296 H 128.463 5.54335 -3.33648 0
M  V30 1297 N 128.595 0.856903 1.32268 0
M  V30 1298 C 129.841 0.462069 1.97466 0
M  V30 1299 C 130.174 -0.980298 1.67642 0
M  V30 1300 O 129.449 -1.68824 0.965858 0
M  V30 1301 C 129.732 0.704336 3.53145 0
M  V30 1302 C 129.585 2.19529 3.9259 0
M  V30 1303 C 130.904 0.1622 4.39801 0
M  V30 1304 H 128.023 0.169357 0.717278 0
M  V30 1305 H 130.665 1.07574 1.56614 0
M  V30 1306 H 128.815 0.181999 3.88073 0
M  V30 1307 H 130.487 2.78387 3.67829 0
M  V30 1308 H 128.73 2.67292 3.41668 0
M  V30 1309 H 129.401 2.31549 5.01088 0
M  V30 1310 H 131.877 0.608905 4.11621 0
M  V30 1311 H 130.753 0.361265 5.4771 0
M  V30 1312 H 131.014 -0.935158 4.32096 0
M  V30 1313 N 130.073 -1.45103 0.615059 0
M  V30 1314 C 131.006 -2.27717 -0.148408 0
M  V30 1315 C 131.984 -1.37584 -0.866572 0
M  V30 1316 O 133.168 -1.67017 -0.87393 0
M  V30 1317 C 130.295 -3.16136 -1.21557 0
M  V30 1318 C 129.341 -4.22263 -0.599712 0
M  V30 1319 S 130.174 -5.3215 0.598081 0
M  V30 1320 C 131.33 -6.24137 -0.469484 0
M  V30 1321 H 131.563 -2.92121 0.552483 0
M  V30 1322 H 129.096 -1.49054 0.402778 0
M  V30 1323 H 131.054 -3.67633 -1.82638 0
M  V30 1324 H 129.715 -2.50982 -1.88857 0
M  V30 1325 H 128.908 -4.84081 -1.4029 0
M  V30 1326 H 128.51 -3.73945 -0.063876 0
M  V30 1327 H 130.802 -6.63984 -1.34652 0
M  V30 1328 H 131.745 -7.0801 0.112725 0
M  V30 1329 H 132.153 -5.58971 -0.788168 0
M  V30 1330 N 131.551 -0.354651 -1.53558 0
M  V30 1331 C 132.8 0.239504 -2.00273 0
M  V30 1332 C 133.113 1.50759 -1.24623 0
M  V30 1333 O 134.319 2.17968 -1.61871 0
M  V30 1334 C 132.775 0.477341 -3.5672 0
M  V30 1335 C 132.383 -0.775488 -4.41237 0
M  V30 1336 C 134.127 1.02975 -4.11821 0
M  V30 1337 C 132.034 -0.507838 -5.89216 0
M  V30 1338 H 130.964 0.0932743 -0.748208 0
M  V30 1339 H 133.615 -0.471701 -1.77334 0
M  V30 1340 H 131.997 1.24953 -3.7577 0
M  V30 1341 H 133.171 -1.54963 -4.33962 0
M  V30 1342 H 131.486 -1.25033 -3.97185 0
M  V30 1343 H 134.083 1.24513 -5.2 0
M  V30 1344 H 134.426 1.98862 -3.65731 0
M  V30 1345 H 134.959 0.317994 -3.96527 0
M  V30 1346 H 131.698 -1.43674 -6.39561 0
M  V30 1347 H 131.218 0.228011 -5.99366 0
M  V30 1348 H 132.897 -0.129238 -6.46871 0
M  V30 1349 N 133.029 1.57378 -0.0835403 0
M  V30 1350 C 134.275 1.94217 0.583733 0
M  V30 1351 C 134.608 0.964653 1.68547 0
M  V30 1352 O 133.883 -0.00422258 1.945 0
M  V30 1353 C 134.166 3.41253 1.14972 0
M  V30 1354 C 134.019 4.49768 0.0538277 0
M  V30 1355 C 135.338 3.89352 2.05166 0
M  V30 1356 H 132.457 0.706233 0.210724 0
M  V30 1357 H 135.099 1.89392 -0.1519 0
M  V30 1358 H 133.249 3.45496 1.77665 0
M  V30 1359 H 134.921 4.57641 -0.579851 0
M  V30 1360 H 133.164 4.29432 -0.614068 0
M  V30 1361 H 133.835 5.49817 0.490452 0
M  V30 1362 H 136.311 3.87189 1.52393 0
M  V30 1363 H 135.187 4.92822 2.41698 0
M  V30 1364 H 135.448 3.27973 2.96456 0
M  V30 1365 N 134.507 -0.190092 1.56449 0
M  V30 1366 C 135.755 -0.907908 1.80559 0
M  V30 1367 C 136.076 -1.83583 0.657438 0
M  V30 1368 O 135.346 -1.93203 -0.323924 0
M  V30 1369 H 133.926 -0.338247 0.666032 0
M  V30 1370 H 136.588 -0.194403 1.93928 0
M  V30 1371 H 135.684 -1.49604 2.73907 0
M  V30 1372 N 135.985 -1.50799 -0.457987 0
M  V30 1373 C 137.233 -1.62121 -1.2067 0
M  V30 1374 C 137.554 -0.329793 -1.92191 0
M  V30 1375 O 136.824 0.653409 -1.84682 0
M  V30 1376 H 135.404 -0.597441 -0.448411 0
M  V30 1377 H 138.066 -1.87637 -0.527096 0
M  V30 1378 H 137.162 -2.43882 -1.94751 0
M  V30 1379 N 137.463 0.71206 -1.40597 0
M  V30 1380 C 138.703 1.48438 -1.40519 0
M  V30 1381 C 139.067 1.91998 -0.00767611 0
M  V30 1382 O 140.268 2.6854 0.118239 0
M  V30 1383 C 138.539 2.67514 -2.37004 0
M  V30 1384 S 140.098 3.56875 -2.55315 0
M  V30 1385 H 136.916 0.507457 -0.498005 0
M  V30 1386 H 139.518 0.832355 -1.76896 0
M  V30 1387 H 138.222 2.33689 -3.37368 0
M  V30 1388 H 137.753 3.37625 -2.01923 0
M  V30 1389 H 139.768 4.62081 -1.8082 0
M  V30 1390 N 138.941 1.26152 0.944643 0
M  V30 1391 C 139.871 1.09902 2.06019 0
M  V30 1392 C 140.852 0.00519538 1.70099 0
M  V30 1393 O 142.037 0.176583 1.93396 0
M  V30 1394 C 139.167 0.727562 3.39594 0
M  V30 1395 C 138.121 1.77274 3.89561 0
M  V30 1396 C 137.447 1.25569 5.19747 0
M  V30 1397 C 138.747 3.17357 4.14827 0
M  V30 1398 H 140.441 2.03217 2.19871 0
M  V30 1399 H 137.987 0.978452 1.05652 0
M  V30 1400 H 139.94 0.600777 4.17095 0
M  V30 1401 H 138.664 -0.241287 3.25707 0
M  V30 1402 H 137.323 1.88814 3.14237 0
M  V30 1403 H 136.971 0.276783 5.02238 0
M  V30 1404 H 136.671 1.95433 5.54148 0
M  V30 1405 H 138.195 1.1415 5.99835 0
M  V30 1406 H 139.609 3.08914 4.82954 0
M  V30 1407 H 138.006 3.84781 4.60504 0
M  V30 1408 H 139.076 3.63673 3.20734 0
M  V30 1409 N 140.419 -1.14872 1.07899 0
M  V30 1410 C 141.644 -1.90202 0.826926 0
M  V30 1411 C 142.069 -1.77774 -0.614664 0
M  V30 1412 O 141.427 -1.11431 -1.43013 0
M  V30 1413 C 141.475 -3.38352 1.24702 0
M  V30 1414 O 140.579 -4.10497 0.39575 0
M  V30 1415 H 139.92 -0.591968 0.300782 0
M  V30 1416 H 142.45 -1.45437 1.43907 0
M  V30 1417 H 142.46 -3.89156 1.22563 0
M  V30 1418 H 141.135 -3.46715 2.29698 0
M  V30 1419 H 139.712 -3.69796 0.480117 0
M  V30 1420 N 141.898 -0.863906 -1.31812 0
M  V30 1421 C 143.146 -0.470904 -1.96537 0
M  V30 1422 C 143.467 0.978771 -1.68657 0
M  V30 1423 O 142.737 1.6853 -0.998717 0
M  V30 1424 H 141.317 -0.171148 -0.72713 0
M  V30 1425 H 143.979 -1.10236 -1.60729 0
M  V30 1426 H 143.075 -0.623616 -3.05806 0
M  V30 1427 N 143.376 1.44774 -0.622745 0
M  V30 1428 C 144.616 2.04004 -0.127102 0
M  V30 1429 C 144.98 1.47862 1.22478 0
M  V30 1430 O 146.181 1.98541 1.81204 0
M  V30 1431 C 144.452 3.57247 -0.104429 0
M  V30 1432 S 146.011 4.37574 0.327814 0
M  V30 1433 H 142.829 0.708713 -0.0569776 0
M  V30 1434 H 145.431 1.77275 -0.824253 0
M  V30 1435 H 144.135 3.95616 -1.09159 0
M  V30 1436 H 143.666 3.88575 0.614236 0
M  V30 1437 H 145.681 4.70575 1.57395 0
M  V30 1438 N 144.854 0.36279 1.53368 0
M  V30 1439 C 146.102 -0.227326 2.00817 0
M  V30 1440 C 146.423 -1.49511 1.25186 0
M  V30 1441 O 145.693 -1.92482 0.364348 0
M  V30 1442 H 144.273 -0.0869923 0.741917 0
M  V30 1443 H 146.935 0.488381 1.88682 0
M  V30 1444 H 146.031 -0.456273 3.08747 0
M  V30 1445 N 146.332 -1.57332 0.0918853 0
M  V30 1446 C 147.262 -2.16872 -0.865371 0
M  V30 1447 C 148.243 -1.10118 -1.29646 0
M  V30 1448 O 149.428 -1.38242 -1.36392 0
M  V30 1449 C 146.558 -2.74649 -2.12569 0
M  V30 1450 C 145.512 -3.86747 -1.83333 0
M  V30 1451 C 144.838 -4.31212 -3.16166 0
M  V30 1452 C 146.138 -5.10089 -1.1228 0
M  V30 1453 H 147.832 -2.97114 -0.369307 0
M  V30 1454 H 145.378 -1.42918 -0.176194 0
M  V30 1455 H 147.331 -3.14952 -2.7997 0
M  V30 1456 H 146.055 -1.91657 -2.64452 0
M  V30 1457 H 144.714 -3.46978 -1.18331 0
M  V30 1458 H 144.362 -3.45115 -3.6593 0
M  V30 1459 H 144.062 -5.06788 -2.97388 0
M  V30 1460 H 145.586 -4.74146 -3.84731 0
M  V30 1461 H 147 -5.47582 -1.69785 0
M  V30 1462 H 145.397 -5.91073 -1.03693 0
M  V30 1463 H 146.467 -4.84786 -0.105041 0
M  V30 1464 N 147.81 0.181792 -1.56548 0
M  V30 1465 C 149.059 0.898348 -1.8059 0
M  V30 1466 C 149.372 1.83862 -0.667379 0
M  V30 1467 O 150.578 2.59678 -0.792446 0
M  V30 1468 C 149.034 1.64791 -3.19956 0
M  V30 1469 C 148.642 0.751789 -4.41647 0
M  V30 1470 C 150.386 2.35331 -3.53298 0
M  V30 1471 C 148.293 1.50098 -5.72035 0
M  V30 1472 H 147.223 0.339194 -0.673397 0
M  V30 1473 H 149.874 0.151413 -1.82874 0
M  V30 1474 H 148.256 2.43921 -3.11959 0
M  V30 1475 H 149.43 -0.0018076 -4.608 0
M  V30 1476 H 147.745 0.156562 -4.16106 0
M  V30 1477 H 150.342 2.91958 -4.47956 0
M  V30 1478 H 150.685 3.10164 -2.77676 0
M  V30 1479 H 151.218 1.63154 -3.62803 0
M  V30 1480 H 147.957 0.795175 -6.50659 0
M  V30 1481 H 147.477 2.22817 -5.56878 0
M  V30 1482 H 149.156 2.05125 -6.13622 0
M  V30 1483 N 149.288 1.51039 0.449983 0
M  V30 1484 C 150.251 1.70863 1.5277 0
M  V30 1485 C 151.251 0.578846 1.5002 0
M  V30 1486 O 152.441 0.846213 1.52266 0
M  V30 1487 C 149.573 1.75341 2.9235 0
M  V30 1488 H 150.766 2.67034 1.36502 0
M  V30 1489 H 148.319 1.40838 0.677812 0
M  V30 1490 H 149.054 0.809383 3.14037 0
M  V30 1491 H 148.839 2.57436 2.95752 0
M  V30 1492 H 150.329 1.92559 3.70555 0
M  V30 1493 N 150.766 -0.704594 1.40972 0
M  V30 1494 C 151.729 -1.80035 1.41845 0
M  V30 1495 C 152.729 -1.57774 0.310474 0
M  V30 1496 O 153.919 -1.64613 0.56992 0
M  V30 1497 C 151.051 -3.18284 1.22098 0
M  V30 1498 H 152.244 -1.80658 2.3938 0
M  V30 1499 H 149.797 -0.911329 1.26982 0
M  V30 1500 H 150.532 -3.23306 0.253672 0
M  V30 1501 H 150.317 -3.35843 2.02366 0
M  V30 1502 H 151.807 -3.98289 1.25522 0
M  V30 1503 N 152.244 -1.26651 -0.937939 0
M  V30 1504 C 153.469 -1.15279 -1.72411 0
M  V30 1505 C 153.894 0.287866 -1.85884 0
M  V30 1506 O 153.252 1.20855 -1.35143 0
M  V30 1507 C 153.3 -1.83028 -3.10698 0
M  V30 1508 O 152.404 -1.12128 -3.96864 0
M  V30 1509 H 151.745 -0.401504 -0.528858 0
M  V30 1510 H 154.275 -1.67531 -1.1745 0
M  V30 1511 H 154.285 -1.89981 -3.6107 0
M  V30 1512 H 152.96 -2.87833 -3.00208 0
M  V30 1513 H 151.537 -1.13173 -3.55312 0
M  V30 1514 N 153.722 1.14298 -1.08507 0
M  V30 1515 C 154.969 1.85359 -0.815373 0
M  V30 1516 C 155.297 1.83001 0.658865 0
M  V30 1517 O 154.552 1.25655 1.50031 0
M  V30 1518 C 154.851 3.33547 -1.28379 0
M  V30 1519 C 154.517 3.56093 -2.76602 0
M  V30 1520 C 153.179 3.61955 -3.17084 0
M  V30 1521 C 155.531 3.64834 -3.72217 0
M  V30 1522 C 152.859 3.74082 -4.51973 0
M  V30 1523 C 155.211 3.78487 -5.06883 0
M  V30 1524 C 153.875 3.82598 -5.46969 0
M  V30 1525 H 153.145 0.678276 -0.298366 0
M  V30 1526 H 155.792 1.35002 -1.35819 0
M  V30 1527 H 154.097 3.86191 -0.660593 0
M  V30 1528 H 155.794 3.86959 -1.05186 0
M  V30 1529 H 152.384 3.52179 -2.4427 0
M  V30 1530 H 156.568 3.59595 -3.42061 0
M  V30 1531 H 151.824 3.75527 -4.82483 0
M  V30 1532 H 155.998 3.84193 -5.80834 0
M  V30 1533 H 153.625 3.91747 -6.51489 0
M  V30 1534 N 155.201 0.870884 1.31352 0
M  V30 1535 C 156.441 0.488783 1.9847 0
M  V30 1536 C 156.805 -0.941536 1.67329 0
M  V30 1537 O 158.006 -1.42903 2.27667 0
M  V30 1538 C 156.277 0.739688 3.49662 0
M  V30 1539 S 157.836 0.457582 4.36408 0
M  V30 1540 H 154.654 0.18242 0.6872 0
M  V30 1541 H 157.256 1.12711 1.59739 0
M  V30 1542 H 155.96 1.77944 3.69816 0
M  V30 1543 H 155.491 0.0883905 3.93301 0
M  V30 1544 H 157.506 -0.709752 4.91098 0
M  V30 1545 N 156.679 -1.44442 0.630414 0
M  V30 1546 C 157.627 -2.32437 -0.0871428 0
M  V30 1547 C 158.621 -1.47304 -0.836525 0
M  V30 1548 O 159.827 -1.63653 -0.749506 0
M  V30 1549 H 156.202 -0.750533 -0.0469495 0
M  V30 1550 H 158.173 -2.90709 0.673096 0
M  V30 1551 C 156.922 -3.31288 -1.05563 0
M  V30 1552 H 156.245 -3.96805 -0.488426 0
M  V30 1553 H 157.685 -3.9554 -1.52721 0
M  V30 1554 C 156.144 -2.6016 -2.14052 0
M  V30 1555 O 156.674 -2.39997 -3.22124 0
M  V30 1556 N 154.88 -2.19911 -1.89967 0
M  V30 1557 H 154.427 -2.36509 -1.02085 0
M  V30 1558 H 154.385 -1.72646 -2.62756 0
M  V30 1559 N 158.157 -0.370918 -1.53173 0
M  V30 1560 C 159.385 0.217704 -2.05751 0
M  V30 1561 C 159.8 1.42018 -1.24404 0
M  V30 1562 O 159.157 1.80245 -0.286033 0
M  V30 1563 C 159.208 0.605954 -3.56385 0
M  V30 1564 O 158.929 -0.548734 -4.3465 0
M  V30 1565 C 160.43 1.2524 -4.25241 0
M  V30 1566 H 157.65 0.0371659 -0.66997 0
M  V30 1567 H 160.194 -0.530832 -1.9749 0
M  V30 1568 H 158.349 1.3044 -3.6478 0
M  V30 1569 H 158.763 -0.23376 -5.23979 0
M  V30 1570 H 160.237 1.47458 -5.3194 0
M  V30 1571 H 160.714 2.2143 -3.79296 0
M  V30 1572 H 161.32 0.595233 -4.21114 0
M  V30 1573 N 159.635 1.57281 -0.100228 0
M  V30 1574 C 160.881 1.94826 0.563101 0
M  V30 1575 C 161.214 0.982475 1.67514 0
M  V30 1576 O 160.489 0.0164069 1.94493 0
M  V30 1577 C 160.772 3.42453 1.11346 0
M  V30 1578 C 160.625 4.498 0.00612081 0
M  V30 1579 C 161.944 3.91506 2.01024 0
M  V30 1580 H 159.063 0.708428 0.203221 0
M  V30 1581 H 161.705 1.8922 -0.171979 0
M  V30 1582 H 159.855 3.47361 1.7399 0
M  V30 1583 H 161.527 4.57 -0.628357 0
M  V30 1584 H 159.77 4.28756 -0.659581 0
M  V30 1585 H 160.441 5.50306 0.432109 0
M  V30 1586 H 162.917 3.88784 1.48278 0
M  V30 1587 H 161.793 4.95358 2.36457 0
M  V30 1588 H 162.054 3.31099 2.92961 0
M  V30 1589 N 161.113 -0.173488 1.56642 0
M  V30 1590 C 162.045 -1.23935 1.92802 0
M  V30 1591 C 163.058 -1.40589 0.820889 0
M  V30 1592 O 164.247 -1.40631 1.09933 0
M  V30 1593 C 161.347 -2.60837 2.16373 0
M  V30 1594 C 160.52 -2.6551 3.47596 0
M  V30 1595 C 159.579 -3.8376 3.60021 0
M  V30 1596 O 158.605 -3.69859 4.32658 0
M  V30 1597 N 159.807 -5.00127 2.94709 0
M  V30 1598 H 162.572 -0.932236 2.84832 0
M  V30 1599 H 160.133 -0.363268 1.57772 0
M  V30 1600 H 162.125 -3.38407 2.21952 0
M  V30 1601 H 160.695 -2.83948 1.30738 0
M  V30 1602 H 159.915 -1.74052 3.53694 0
M  V30 1603 H 161.203 -2.65641 4.33949 0
M  V30 1604 H 160.601 -5.14322 2.35563 0
M  V30 1605 H 159.158 -5.75567 3.05886 0
M  V30 1606 N 162.591 -1.51276 -0.441967 0
M  V30 1607 C 163.523 -1.68444 -1.55433 0
M  V30 1608 C 164.536 -0.565187 -1.52674 0
M  V30 1609 O 165.725 -0.839356 -1.57534 0
M  V30 1610 C 162.825 -1.67966 -2.94348 0
M  V30 1611 C 161.998 -2.964 -3.21661 0
M  V30 1612 C 161.057 -2.88171 -4.40277 0
M  V30 1613 O 160.083 -3.62119 -4.39157 0
M  V30 1614 N 161.285 -2.03706 -5.43584 0
M  V30 1615 H 164.05 -2.644 -1.41112 0
M  V30 1616 H 161.611 -1.49104 -0.630838 0
M  V30 1617 H 163.603 -1.60035 -3.71713 0
M  V30 1618 H 162.173 -0.796225 -3.0229 0
M  V30 1619 H 161.393 -3.18234 -2.32638 0
M  V30 1620 H 162.681 -3.81427 -3.36736 0
M  V30 1621 H 162.079 -1.42995 -5.47329 0
M  V30 1622 H 160.636 -2.01658 -6.1982 0
M  V30 1623 N 164.069 0.697108 -1.41344 0
M  V30 1624 C 164.999 1.82353 -1.45841 0
M  V30 1625 C 165.98 1.67115 -0.317247 0
M  V30 1626 O 167.165 1.86871 -0.528474 0
M  V30 1627 C 164.295 3.20476 -1.33838 0
M  V30 1628 C 163.249 3.50415 -2.4575 0
M  V30 1629 C 162.575 4.87878 -2.18813 0
M  V30 1630 C 163.875 3.49546 -3.88091 0
M  V30 1631 H 165.569 1.78846 -2.40113 0
M  V30 1632 H 163.115 0.859028 -1.15571 0
M  V30 1633 H 165.068 3.98988 -1.35596 0
M  V30 1634 H 163.792 3.24604 -0.360498 0
M  V30 1635 H 162.451 2.74253 -2.43271 0
M  V30 1636 H 162.099 4.8863 -1.19371 0
M  V30 1637 H 161.799 5.08875 -2.93803 0
M  V30 1638 H 163.323 5.68702 -2.22284 0
M  V30 1639 H 164.737 4.18066 -3.92293 0
M  V30 1640 H 163.134 3.82075 -4.62751 0
M  V30 1641 H 164.204 2.48552 -4.16353 0
M  V30 1642 N 165.547 1.27147 0.931209 0
M  V30 1643 C 166.777 1.15914 1.71019 0
M  V30 1644 C 167.185 -0.287112 1.87009 0
M  V30 1645 O 166.528 -1.20761 1.38429 0
M  V30 1646 C 166.59 1.76647 3.13107 0
M  V30 1647 C 166.254 3.25807 3.20467 0
M  V30 1648 C 167.251 4.22489 3.02983 0
M  V30 1649 C 164.936 3.66452 3.43538 0
M  V30 1650 C 166.93 5.57794 3.08454 0
M  V30 1651 C 164.617 5.01888 3.48643 0
M  V30 1652 C 165.615 5.97369 3.31119 0
M  V30 1653 O 165.303 7.30337 3.35952 0
M  V30 1654 H 165.035 0.404062 0.54195 0
M  V30 1655 H 167.589 1.68457 1.17521 0
M  V30 1656 H 165.819 1.18578 3.68071 0
M  V30 1657 H 167.508 1.60179 3.72958 0
M  V30 1658 H 168.274 3.92425 2.85004 0
M  V30 1659 H 164.153 2.92611 3.5623 0
M  V30 1660 H 167.697 6.32298 2.94694 0
M  V30 1661 H 163.594 5.31609 3.66145 0
M  V30 1662 H 164.362 7.38739 3.5243 0
M  V30 1663 N 167.025 -1.13721 1.09112 0
M  V30 1664 C 168.271 -1.85198 0.826414 0
M  V30 1665 C 168.604 -1.83129 -0.646319 0
M  V30 1666 O 167.879 -1.2671 -1.47563 0
M  V30 1667 C 168.162 -3.33507 1.35812 0
M  V30 1668 C 168.015 -3.44108 2.89672 0
M  V30 1669 C 169.334 -4.28838 0.989256 0
M  V30 1670 H 166.453 -0.67243 0.301675 0
M  V30 1671 H 169.095 -1.33499 1.35197 0
M  V30 1672 H 167.245 -3.77666 0.911082 0
M  V30 1673 H 168.917 -3.08684 3.428 0
M  V30 1674 H 167.16 -2.85087 3.26967 0
M  V30 1675 H 167.831 -4.48388 3.21951 0
M  V30 1676 H 170.307 -3.92734 1.37475 0
M  V30 1677 H 169.183 -5.31051 1.38838 0
M  V30 1678 H 169.444 -4.4198 -0.102924 0
M  V30 1679 N 168.503 -0.877838 -1.30888 0
M  V30 1680 C 169.743 -0.499301 -1.98208 0
M  V30 1681 C 170.107 0.932649 -1.67826 0
M  V30 1682 O 171.308 1.41694 -2.28421 0
M  V30 1683 C 169.579 -0.758221 -3.49265 0
M  V30 1684 S 171.138 -0.480719 -4.36159 0
M  V30 1685 H 167.956 -0.186062 -0.686223 0
M  V30 1686 H 170.558 -1.13556 -1.59139 0
M  V30 1687 H 169.262 -1.79903 -3.68867 0
M  V30 1688 H 168.793 -0.109247 -3.93248 0
M  V30 1689 H 170.808 0.683698 -4.91467 0
M  V30 1690 N 169.982 1.44106 -0.638065 0
M  V30 1691 C 171.231 2.01194 -0.142744 0
M  V30 1692 C 171.544 1.50835 1.24532 0
M  V30 1693 O 172.75 2.00096 1.83504 0
M  V30 1694 C 171.206 3.59319 -0.20442 0
M  V30 1695 C 170.814 4.18674 -1.59423 0
M  V30 1696 C 172.558 4.23854 0.234079 0
M  V30 1697 C 170.465 5.69045 -1.61065 0
M  V30 1698 H 169.395 0.752367 -0.0495998 0
M  V30 1699 H 172.046 1.65246 -0.797881 0
M  V30 1700 H 170.428 3.92598 0.517946 0
M  V30 1701 H 171.602 3.96921 -2.34074 0
M  V30 1702 H 169.917 3.66453 -1.97741 0
M  V30 1703 H 172.514 5.34155 0.241443 0
M  V30 1704 H 172.857 3.96688 1.2627 0
M  V30 1705 H 173.39 3.95403 -0.436025 0
M  V30 1706 H 170.129 6.00956 -2.61787 0
M  V30 1707 H 169.649 5.929 -0.90718 0
M  V30 1708 H 171.328 6.32809 -1.34766 0
M  V30 1709 N 171.46 0.379036 1.52974 0
M  V30 1710 C 172.708 -0.206014 2.01047 0
M  V30 1711 C 173.029 -1.48175 1.26765 0
M  V30 1712 O 172.299 -1.92085 0.384743 0
M  V30 1713 H 170.879 -0.0791184 0.742798 0
M  V30 1714 H 173.541 0.508366 1.88153 0
M  V30 1715 H 172.637 -0.423501 3.09213 0
M  V30 1716 N 172.938 -1.57226 0.108567 0
M  V30 1717 C 174.184 -1.95121 -0.552761 0
M  V30 1718 C 174.517 -0.991345 -1.66991 0
M  V30 1719 O 173.792 -0.0267211 -1.94482 0
M  V30 1720 C 174.075 -3.43039 -1.09528 0
M  V30 1721 C 173.928 -4.49797 0.0177332 0
M  V30 1722 C 175.247 -3.92567 -1.98945 0
M  V30 1723 H 172.366 -0.709496 -0.199461 0
M  V30 1724 H 175.008 -1.89126 0.182011 0
M  V30 1725 H 173.158 -3.48279 -1.72146 0
M  V30 1726 H 174.83 -4.56661 0.652584 0
M  V30 1727 H 173.073 -4.284 0.682309 0
M  V30 1728 H 173.744 -5.50528 -0.402919 0
M  V30 1729 H 176.22 -3.89565 -1.46214 0
M  V30 1730 H 175.096 -4.96605 -2.33827 0
M  V30 1731 H 175.357 -3.32648 -2.91201 0
M  V30 1732 N 174.416 0.165178 -1.56732 0
M  V30 1733 C 175.665 0.879143 -1.81532 0
M  V30 1734 C 175.978 1.83144 -0.686842 0
M  V30 1735 O 177.184 2.58823 -0.819944 0
M  V30 1736 C 175.64 1.61388 -3.21686 0
M  V30 1737 C 175.248 0.704904 -4.4242 0
M  V30 1738 C 176.992 2.3157 -3.55774 0
M  V30 1739 C 174.899 1.44022 -5.73595 0
M  V30 1740 H 173.829 0.332033 -0.676957 0
M  V30 1741 H 176.48 0.132008 -1.83025 0
M  V30 1742 H 174.862 2.40599 -3.14529 0
M  V30 1743 H 176.036 -0.0506815 -4.60772 0
M  V30 1744 H 174.351 0.112419 -4.16248 0
M  V30 1745 H 176.948 2.8719 -4.51028 0
M  V30 1746 H 177.291 3.07201 -2.8095 0
M  V30 1747 H 177.824 1.59297 -3.64513 0
M  V30 1748 H 174.563 0.72612 -6.51466 0
M  V30 1749 H 174.083 2.16898 -5.5921 0
M  V30 1750 H 175.762 1.98606 -6.15764 0
M  V30 1751 N 175.894 1.51508 0.433938 0
M  V30 1752 C 177.142 1.6402 1.18075 0
M  V30 1753 C 177.463 0.360328 1.91642 0
M  V30 1754 O 176.733 -0.623945 1.85698 0
M  V30 1755 H 175.313 0.6045 0.43885 0
M  V30 1756 H 177.975 1.88452 0.497178 0
M  V30 1757 H 177.071 2.46949 1.90847 0
M  V30 1758 N 177.372 -0.689602 1.41712 0
M  V30 1759 C 178.62 -1.4468 1.4111 0
M  V30 1760 C 178.941 -1.94986 0.0232196 0
M  V30 1761 O 178.211 -1.72097 -0.935913 0
M  V30 1762 H 176.791 -0.536847 0.519427 0
M  V30 1763 H 179.453 -0.815825 1.77004 0
M  V30 1764 H 178.549 -2.30706 2.10193 0
M  V30 1765 N 178.85 -1.27639 -0.924453 0
M  V30 1766 C 179.78 -1.13166 -2.04244 0
M  V30 1767 C 180.761 -0.032256 -1.70069 0
M  V30 1768 O 181.946 -0.207328 -1.9309 0
M  V30 1769 C 179.076 -0.781496 -3.38393 0
M  V30 1770 C 178.03 -1.83449 -3.86692 0
M  V30 1771 C 177.356 -1.33822 -5.17683 0
M  V30 1772 C 178.656 -3.23917 -4.09726 0
M  V30 1773 H 180.35 -2.06689 -2.1661 0
M  V30 1774 H 177.896 -0.995136 -1.04082 0
M  V30 1775 H 179.849 -0.667057 -4.16087 0
M  V30 1776 H 178.573 0.189439 -3.2605 0
M  V30 1777 H 177.232 -1.93789 -3.11193 0
M  V30 1778 H 176.88 -0.35665 -5.01734 0
M  V30 1779 H 176.58 -2.04224 -5.50968 0
M  V30 1780 H 178.104 -1.23679 -5.97943 0
M  V30 1781 H 179.518 -3.16559 -4.77978 0
M  V30 1782 H 177.915 -3.92059 -4.54324 0
M  V30 1783 H 178.985 -3.68729 -3.14908 0
M  V30 1784 N 180.328 1.1314 -1.09713 0
M  V30 1785 C 181.576 1.84119 -0.833338 0
M  V30 1786 C 181.897 1.84097 0.642904 0
M  V30 1787 O 181.167 1.29881 1.46655 0
M  V30 1788 H 179.747 0.681766 -0.305293 0
M  V30 1789 H 182.409 1.37038 -1.38588 0
M  V30 1790 H 181.505 2.88543 -1.18951 0
M  V30 1791 N 181.806 0.884767 1.30421 0
M  V30 1792 C 182.736 0.367574 2.30589 0
M  V30 1793 C 183.717 -0.549464 1.60981 0
M  V30 1794 O 184.902 -0.46336 1.88591 0
M  V30 1795 C 182.032 -0.418944 3.44764 0
M  V30 1796 C 180.986 0.406316 4.26067 0
M  V30 1797 C 180.312 -0.506793 5.32293 0
M  V30 1798 C 181.612 1.64832 4.95608 0
M  V30 1799 H 183.306 1.20462 2.74097 0
M  V30 1800 H 180.852 0.580695 1.31772 0
M  V30 1801 H 182.805 -0.791395 4.13902 0
M  V30 1802 H 181.529 -1.28964 3.0006 0
M  V30 1803 H 180.188 0.760903 3.58617 0
M  V30 1804 H 179.836 -1.37519 4.83836 0
M  V30 1805 H 179.536 0.0415828 5.87585 0
M  V30 1806 H 181.06 -0.875764 6.04287 0
M  V30 1807 H 182.474 1.34646 5.57264 0
M  V30 1808 H 180.871 2.13688 5.60765 0
M  V30 1809 H 181.941 2.39284 4.21748 0
M  V30 1810 N 183.284 -1.43765 0.645699 0
M  V30 1811 C 184.247 -2.29163 -0.0409488 0
M  V30 1812 C 185.247 -1.41813 -0.757996 0
M  V30 1813 O 186.437 -1.63527 -0.600382 0
M  V30 1814 C 183.569 -3.23716 -1.06869 0
M  V30 1815 H 184.762 -2.91366 0.710345 0
M  V30 1816 H 182.315 -1.5092 0.406547 0
M  V30 1817 H 183.05 -2.66393 -1.84947 0
M  V30 1818 H 182.835 -3.88105 -0.558277 0
M  V30 1819 H 184.325 -3.87831 -1.54845 0
M  V30 1820 N 184.763 -0.387143 -1.52771 0
M  V30 1821 C 186.01 0.195735 -2.01552 0
M  V30 1822 C 186.338 1.46995 -1.27369 0
M  V30 1823 O 185.593 1.92325 -0.361879 0
M  V30 1824 C 185.892 0.512209 -3.53711 0
M  V30 1825 C 185.558 -0.670202 -4.45891 0
M  V30 1826 C 184.22 -0.994586 -4.70809 0
M  V30 1827 C 186.572 -1.46134 -5.00294 0
M  V30 1828 C 183.9 -2.11169 -5.4738 0
M  V30 1829 C 186.252 -2.56903 -5.78086 0
M  V30 1830 C 184.916 -2.89852 -6.01284 0
M  V30 1831 H 184.186 0.0716246 -0.73753 0
M  V30 1832 H 186.833 -0.524046 -1.8419 0
M  V30 1833 H 185.138 1.31329 -3.69134 0
M  V30 1834 H 186.835 0.975804 -3.88946 0
M  V30 1835 H 183.425 -0.407366 -4.2666 0
M  V30 1836 H 187.609 -1.22397 -4.80971 0
M  V30 1837 H 182.865 -2.3707 -5.63567 0
M  V30 1838 H 187.039 -3.18608 -6.19243 0
M  V30 1839 H 184.666 -3.76533 -6.60399 0
M  V30 1840 N 186.241 1.57166 -0.116904 0
M  V30 1841 C 187.189 2.16457 0.851418 0
M  V30 1842 C 188.183 1.11323 1.27686 0
M  V30 1843 O 189.389 1.2963 1.24884 0
M  V30 1844 H 185.764 0.69271 0.292672 0
M  V30 1845 H 187.735 2.96605 0.32685 0
M  V30 1846 C 186.484 2.77689 2.09246 0
M  V30 1847 H 185.807 3.58285 1.77402 0
M  V30 1848 H 187.247 3.22716 2.7501 0
M  V30 1849 C 185.706 1.74667 2.88085 0
M  V30 1850 O 186.236 1.19877 3.83396 0
M  V30 1851 N 184.442 1.44656 2.52038 0
M  V30 1852 H 183.989 1.89402 1.74599 0
M  V30 1853 H 183.947 0.759675 3.05084 0
M  V30 1854 N 187.719 -0.156864 1.56817 0
M  V30 1855 C 188.649 -1.19589 2.00551 0
M  V30 1856 C 189.63 -1.4536 0.883426 0
M  V30 1857 O 190.815 -1.56449 1.15054 0
M  V30 1858 C 187.945 -2.53143 2.37773 0
M  V30 1859 C 186.899 -2.41913 3.53075 0
M  V30 1860 C 186.225 -3.80088 3.76081 0
M  V30 1861 C 187.525 -1.91157 4.86062 0
M  V30 1862 H 189.219 -0.832293 2.87599 0
M  V30 1863 H 186.765 -0.398918 1.38364 0
M  V30 1864 H 188.718 -3.26047 2.66967 0
M  V30 1865 H 187.442 -2.91319 1.4765 0
M  V30 1866 H 186.101 -1.71462 3.24031 0
M  V30 1867 H 185.749 -4.15683 2.83225 0
M  V30 1868 H 185.449 -3.73439 4.53671 0
M  V30 1869 H 186.973 -4.54556 4.0769 0
M  V30 1870 H 188.387 -2.53846 5.14038 0
M  V30 1871 H 186.784 -1.95422 5.67389 0
M  V30 1872 H 187.854 -0.866673 4.77092 0
M  V30 1873 N 189.197 -1.51736 -0.425897 0
M  V30 1874 C 190.145 -1.74464 -1.53834 0
M  V30 1875 C 191.139 -0.611241 -1.57988 0
M  V30 1876 O 192.345 -0.792899 -1.61596 0
M  V30 1877 H 188.72 -0.551437 -0.511293 0
M  V30 1878 H 190.691 -2.67694 -1.31843 0
M  V30 1879 C 189.44 -1.8972 -2.91379 0
M  V30 1880 H 188.763 -2.76344 -2.88919 0
M  V30 1881 H 190.203 -2.09629 -3.68553 0
M  V30 1882 C 188.662 -0.65992 -3.30374 0
M  V30 1883 O 189.192 0.180083 -4.01296 0
M  V30 1884 N 187.398 -0.500677 -2.86254 0
M  V30 1885 H 186.945 -1.18532 -2.28709 0
M  V30 1886 H 186.903 0.325903 -3.12706 0
M  V30 1887 N 190.675 0.682077 -1.42076 0
M  V30 1888 C 192.086 1.26246 -1.37546 0
M  V30 1889 C 192.437 1.96092 -0.0651481 0
M  V30 1890 O 191.562 1.99587 0.836297 0
M  V30 1891 C 192.157 2.29594 -2.49143 0
M  V30 1892 C 190.716 2.83175 -2.47969 0
M  V30 1893 C 189.863 1.57395 -2.28303 0
M  V30 1894 H 192.814 0.475937 -1.51395 0
M  V30 1895 H 192.835 3.11175 -2.18976 0
M  V30 1896 H 192.347 1.78729 -3.44496 0
M  V30 1897 H 190.448 3.3818 -1.56413 0
M  V30 1898 H 190.561 3.32687 -3.44755 0
M  V30 1899 H 188.925 1.83699 -1.76428 0
M  V30 1900 H 189.708 1.08507 -3.25701 0
M  V30 1901 N 192.153 1.28127 0.917671 0
M  V30 1902 C 193.116 1.11744 2.00115 0
M  V30 1903 C 194.116 0.0583052 1.60694 0
M  V30 1904 O 195.306 0.303755 1.71531 0
M  V30 1905 C 192.438 0.704862 3.33533 0
M  V30 1906 H 193.631 2.07966 2.16079 0
M  V30 1907 H 191.184 1.11058 1.09981 0
M  V30 1908 H 191.919 -0.258299 3.2327 0
M  V30 1909 H 191.704 1.4699 3.63505 0
M  V30 1910 H 193.194 0.612768 4.1308 0
M  V30 1911 N 193.631 -1.12557 1.10312 0
M  V30 1912 C 194.561 -2.20341 0.772798 0
M  V30 1913 C 195.542 -1.68198 -0.25365 0
M  V30 1914 O 196.727 -1.93831 -0.119699 0
M  V30 1915 C 193.857 -3.46709 0.202443 0
M  V30 1916 C 192.811 -4.11996 1.15943 0
M  V30 1917 C 192.137 -5.328 0.450345 0
M  V30 1918 C 193.437 -4.5828 2.50552 0
M  V30 1919 H 195.131 -2.48229 1.674 0
M  V30 1920 H 192.677 -1.19308 0.806326 0
M  V30 1921 H 194.63 -4.2138 -0.0407752 0
M  V30 1922 H 193.354 -3.18245 -0.734001 0
M  V30 1923 H 192.013 -3.39305 1.38808 0
M  V30 1924 H 191.661 -5.00602 -0.490531 0
M  V30 1925 H 191.361 -5.7743 1.08851 0
M  V30 1926 H 192.885 -6.10219 0.215642 0
M  V30 1927 H 194.299 -5.2433 2.31843 0
M  V30 1928 H 192.696 -5.13683 3.10242 0
M  V30 1929 H 193.766 -3.72329 3.10643 0
M  V30 1930 N 195.109 -0.891671 -1.2995 0
M  V30 1931 C 196.337 -0.52866 -2.00032 0
M  V30 1932 C 196.752 0.884574 -1.66795 0
M  V30 1933 O 196.109 1.5827 -0.908669 0
M  V30 1934 C 196.16 -0.701814 -3.54622 0
M  V30 1935 O 195.881 -2.05942 -3.86678 0
M  V30 1936 C 197.382 -0.342683 -4.41973 0
M  V30 1937 H 194.602 -0.203659 -0.639347 0
M  V30 1938 H 197.146 -1.19881 -1.65677 0
M  V30 1939 H 195.301 -0.0789468 -3.8732 0
M  V30 1940 H 195.715 -2.08291 -4.81368 0
M  V30 1941 H 197.189 -0.514709 -5.49595 0
M  V30 1942 H 197.666 0.71975 -4.33262 0
M  V30 1943 H 198.272 -0.942154 -4.14733 0
M  V30 1944 N 196.587 1.43421 -0.653314 0
M  V30 1945 C 197.52 2.2803 0.0879804 0
M  V30 1946 C 198.498 1.39833 0.82979 0
M  V30 1947 O 199.682 1.69275 0.829341 0
M  V30 1948 C 196.809 3.19247 1.13132 0
M  V30 1949 C 195.855 4.23704 0.487546 0
M  V30 1950 S 196.688 5.30377 -0.738961 0
M  V30 1951 C 197.844 6.25162 0.30384 0
M  V30 1952 H 198.077 2.90554 -0.629739 0
M  V30 1953 H 195.61 1.47934 -0.442156 0
M  V30 1954 H 197.568 3.72346 1.72827 0
M  V30 1955 H 196.229 2.55901 1.82136 0
M  V30 1956 H 195.422 4.87631 1.27407 0
M  V30 1957 H 195.024 3.73983 -0.0352915 0
M  V30 1958 H 197.316 6.67321 1.17 0
M  V30 1959 H 198.259 7.07463 -0.300402 0
M  V30 1960 H 198.667 5.60864 0.63969 0
M  V30 1961 N 198.065 0.39524 1.52563 0
M  V30 1962 C 199.314 -0.186321 2.00838 0
M  V30 1963 C 199.627 -1.47402 1.28577 0
M  V30 1964 O 200.833 -2.13599 1.67593 0
M  V30 1965 C 199.289 -0.382595 3.57861 0
M  V30 1966 C 198.897 0.892202 4.39026 0
M  V30 1967 C 200.641 -0.9202 4.14406 0
M  V30 1968 C 198.548 0.66388 5.87662 0
M  V30 1969 H 197.478 -0.0734041 0.750418 0
M  V30 1970 H 200.129 0.518552 1.76021 0
M  V30 1971 H 198.511 -1.14946 3.7895 0
M  V30 1972 H 199.685 1.66414 4.29701 0
M  V30 1973 H 198 1.35519 3.9373 0
M  V30 1974 H 200.597 -1.10683 5.23119 0
M  V30 1975 H 200.94 -1.89096 3.70875 0
M  V30 1976 H 201.473 -0.212751 3.97231 0
M  V30 1977 H 198.212 1.6058 6.35527 0
M  V30 1978 H 197.732 -0.0690193 5.9976 0
M  V30 1979 H 199.411 0.300699 6.46301 0
M  V30 1980 N 199.544 -1.57102 0.125237 0
M  V30 1981 C 200.792 -1.95021 -0.530198 0
M  V30 1982 C 201.113 -1.00982 -1.66816 0
M  V30 1983 O 200.383 -0.0672693 -1.95784 0
M  V30 1984 H 198.963 -0.720046 -0.198853 0
M  V30 1985 H 201.625 -1.93916 0.19564 0
M  V30 1986 H 200.721 -2.98211 -0.920681 0
M  V30 1987 N 201.022 0.148545 -1.56898 0
M  V30 1988 C 201.969 1.18345 -1.98149 0
M  V30 1989 C 202.939 1.42772 -0.848848 0
M  V30 1990 O 204.124 1.55132 -1.11079 0
M  V30 1991 C 201.264 2.51231 -2.36594 0
M  V30 1992 C 200.377 2.33991 -3.63142 0
M  V30 1993 C 199.512 3.59902 -3.90697 0
M  V30 1994 C 198.551 3.37692 -5.1052 0
M  V30 1995 N 197.688 4.5573 -5.34092 0
M  V30 1996 H 202.528 0.82467 -2.86362 0
M  V30 1997 H 200.065 0.395756 -1.41676 0
M  V30 1998 H 202.023 3.28713 -2.56912 0
M  V30 1999 H 200.653 2.85059 -1.51463 0
M  V30 2000 H 199.705 1.47572 -3.50609 0
M  V30 2001 H 201.017 2.13539 -4.5078 0
M  V30 2002 H 200.171 4.45813 -4.11505 0
M  V30 2003 H 198.91 3.83357 -3.01477 0
M  V30 2004 H 197.915 2.5017 -4.89587 0
M  V30 2005 H 199.14 3.15637 -6.0129 0
M  V30 2006 H 197.086 4.79361 -4.47827 0
M  V30 2007 H 197.003 4.38274 -6.15996 0
M  V30 2008 H 198.271 5.42858 -5.59397 0
M  V30 2009 N 202.5 1.5196 0.417844 0
M  V30 2010 C 203.73 1.69181 1.18581 0
M  V30 2011 C 204.138 0.397104 1.84986 0
M  V30 2012 O 203.481 -0.636011 1.72339 0
M  V30 2013 C 203.543 2.76497 2.29759 0
M  V30 2014 C 203.207 4.18514 1.83563 0
M  V30 2015 C 204.204 5.02648 1.32821 0
M  V30 2016 C 201.889 4.64708 1.90661 0
M  V30 2017 C 203.883 6.31044 0.897894 0
M  V30 2018 C 201.57 5.93096 1.47241 0
M  V30 2019 C 202.568 6.76093 0.968891 0
M  V30 2020 O 202.256 8.02078 0.540924 0
M  V30 2021 H 201.988 0.570457 0.362705 0
M  V30 2022 H 204.542 1.99249 0.498885 0
M  V30 2023 H 202.772 2.41786 3.01789 0
M  V30 2024 H 204.461 2.82403 2.91553 0
M  V30 2025 H 205.227 4.68154 1.26716 0
M  V30 2026 H 201.106 4.00216 2.28797 0
M  V30 2027 H 204.65 6.95776 0.504192 0
M  V30 2028 H 200.547 6.271 1.53022 0
M  V30 2029 H 201.315 8.15794 0.66502 0
M  V30 2030 N 203.978 -0.674533 1.42435 0
M  V30 2031 C 205.225 -1.43459 1.42919 0
M  V30 2032 C 205.553 -1.94446 0.0457312 0
M  V30 2033 O 204.808 -1.7132 -0.94593 0
M  V30 2034 C 205.107 -2.64767 2.40069 0
M  V30 2035 C 204.773 -2.3232 3.86443 0
M  V30 2036 C 203.435 -2.23182 4.26314 0
M  V30 2037 C 205.787 -2.05977 4.78773 0
M  V30 2038 C 203.115 -1.85827 5.56494 0
M  V30 2039 C 205.467 -1.70125 6.09295 0
M  V30 2040 C 204.131 -1.59498 6.48164 0
M  V30 2041 H 203.401 -0.524952 0.522978 0
M  V30 2042 H 206.048 -0.769097 1.75377 0
M  V30 2043 H 204.353 -3.36349 2.00939 0
M  V30 2044 H 206.05 -3.22949 2.37707 0
M  V30 2045 H 202.64 -2.40334 3.54877 0
M  V30 2046 H 206.824 -2.11969 4.48757 0
M  V30 2047 H 202.08 -1.76168 5.8547 0
M  V30 2048 H 206.254 -1.48767 6.80324 0
M  V30 2049 H 203.881 -1.30322 7.48946 0
M  V30 2050 N 205.456 -1.28612 -0.910864 0
M  V30 2051 C 206.686 -1.1862 -1.69153 0
M  V30 2052 C 207.094 0.257324 -1.87442 0
M  V30 2053 O 206.437 1.18543 -1.40332 0
M  V30 2054 C 206.499 -1.81606 -3.10257 0
M  V30 2055 C 206.163 -3.30864 -3.15243 0
M  V30 2056 C 207.16 -4.27256 -2.96223 0
M  V30 2057 C 204.845 -3.71871 -3.37664 0
M  V30 2058 C 206.839 -5.62631 -2.99541 0
M  V30 2059 C 204.526 -5.07371 -3.40614 0
M  V30 2060 C 205.524 -6.02561 -3.21573 0
M  V30 2061 O 205.212 -7.35589 -3.2429 0
M  V30 2062 H 204.944 -0.412633 -0.535453 0
M  V30 2063 H 207.498 -1.70306 -1.14827 0
M  V30 2064 H 205.728 -1.24418 -3.66138 0
M  V30 2065 H 207.417 -1.66092 -3.70362 0
M  V30 2066 H 208.183 -3.9691 -2.78725 0
M  V30 2067 H 204.062 -2.98241 -3.5153 0
M  V30 2068 H 207.606 -6.36907 -2.84597 0
M  V30 2069 H 203.503 -5.37366 -3.57642 0
M  V30 2070 H 204.271 -7.44252 -3.40633 0
M  V30 2071 N 206.934 1.1197 -1.10907 0
M  V30 2072 C 207.881 2.17846 -0.762345 0
M  V30 2073 C 208.851 1.63995 0.263599 0
M  V30 2074 O 210.036 1.90273 0.141773 0
M  V30 2075 C 207.176 3.44487 -0.205651 0
M  V30 2076 C 206.289 4.12369 -1.28748 0
M  V30 2077 C 205.424 5.26674 -0.691919 0
M  V30 2078 C 204.463 5.86431 -1.75399 0
M  V30 2079 N 203.6 6.92142 -1.17833 0
M  V30 2080 H 208.44 2.46851 -1.6694 0
M  V30 2081 H 205.977 1.21188 -0.833776 0
M  V30 2082 H 207.935 4.16981 0.135037 0
M  V30 2083 H 206.565 3.15884 0.664613 0
M  V30 2084 H 205.617 3.38003 -1.74522 0
M  V30 2085 H 206.929 4.52844 -2.09125 0
M  V30 2086 H 206.083 6.05953 -0.300963 0
M  V30 2087 H 204.822 4.8749 0.143232 0
M  V30 2088 H 203.827 5.05835 -2.15432 0
M  V30 2089 H 205.052 6.27685 -2.59208 0
M  V30 2090 H 202.998 6.54985 -0.364725 0
M  V30 2091 H 202.915 7.31242 -1.91887 0
M  V30 2092 H 204.183 7.75237 -0.81408 0
M  V30 2093 N 208.412 0.89855 1.29475 0
M  V30 2094 C 209.828 0.594483 1.48115 0
M  V30 2095 C 210.028 -0.86431 1.82022 0
M  V30 2096 O 209.084 -1.64457 1.91599 0
M  V30 2097 C 210.397 1.51932 2.59494 0
M  V30 2098 C 211.945 1.5244 2.7337 0
M  V30 2099 C 212.42 2.43548 3.87877 0
M  V30 2100 N 213.911 2.41589 3.95208 0
M  V30 2101 C 214.646 3.08789 4.83153 0
M  V30 2102 N 214.142 3.85265 5.75798 0
M  V30 2103 N 215.935 2.97952 4.76635 0
M  V30 2104 H 208.086 1.84207 1.05742 0
M  V30 2105 H 210.349 0.789251 0.525154 0
M  V30 2106 H 210.055 2.55865 2.41301 0
M  V30 2107 H 209.929 1.23899 3.56271 0
M  V30 2108 H 212.316 0.492518 2.90961 0
M  V30 2109 H 212.397 1.8451 1.77172 0
M  V30 2110 H 212.041 3.46829 3.71041 0
M  V30 2111 H 211.971 2.08788 4.83441 0
M  V30 2112 H 214.462 1.86025 3.28943 0
M  V30 2113 H 214.775 4.33598 6.39697 0
M  V30 2114 H 213.12 3.89371 5.75687 0
M  V30 2115 H 216.311 2.37723 4.03244 0
M  V30 2116 H 216.484 3.50599 5.44962 0
M  V30 2117 N 209.89 -1.43072 0.660911 0
M  V30 2118 C 211.306 -1.56169 0.329173 0
M  V30 2119 C 211.506 -1.64317 -1.16629 0
M  V30 2120 O 210.562 -1.60245 -1.95135 0
M  V30 2121 C 211.875 -2.81873 1.04729 0
M  V30 2122 C 213.423 -2.95627 1.02828 0
M  V30 2123 C 213.898 -4.24174 1.72744 0
M  V30 2124 N 215.389 -4.31055 1.69545 0
M  V30 2125 C 216.124 -5.29304 2.20511 0
M  V30 2126 N 215.62 -6.33786 2.79799 0
M  V30 2127 N 217.413 -5.21008 2.10966 0
M  V30 2128 H 209.564 -1.36027 1.63127 0
M  V30 2129 H 211.827 -0.653823 0.686454 0
M  V30 2130 H 211.533 -2.81942 2.10242 0
M  V30 2131 H 211.407 -3.72338 0.603702 0
M  V30 2132 H 213.794 -2.95094 -0.0184742 0
M  V30 2133 H 213.875 -2.06431 1.51063 0
M  V30 2134 H 213.519 -4.25467 2.7738 0
M  V30 2135 H 213.449 -5.1228 1.2197 0
M  V30 2136 H 215.94 -3.56174 1.26288 0
M  V30 2137 H 216.253 -7.05086 3.16344 0
M  V30 2138 H 214.598 -6.34387 2.83863 0
M  V30 2139 H 217.789 -4.38301 1.64347 0
M  V30 2140 H 217.962 -5.97416 2.50993 0
M  V30 2141 N 211.368 -0.403325 -1.52352 0
M  V30 2142 C 212.779 0.0675782 -1.86578 0
M  V30 2143 C 213.13 1.44941 -1.32236 0
M  V30 2144 O 212.255 2.06112 -0.659307 0
M  V30 2145 C 212.85 0.129404 -3.38553 0
M  V30 2146 C 211.409 0.544629 -3.72439 0
M  V30 2147 C 210.556 -0.284551 -2.75836 0
M  V30 2148 H 213.507 -0.620631 -1.46061 0
M  V30 2149 H 213.528 0.94581 -3.68558 0
M  V30 2150 H 213.04 -0.87645 -3.78074 0
M  V30 2151 H 211.141 1.55734 -3.38493 0
M  V30 2152 H 211.254 0.293046 -4.78203 0
M  V30 2153 H 209.618 0.252258 -2.53448 0
M  V30 2154 H 210.401 -1.28865 -3.18196 0
M  V30 2155 N 212.846 1.57033 -0.133567 0
M  V30 2156 C 213.776 2.1909 0.807567 0
M  V30 2157 C 214.757 1.13517 1.26681 0
M  V30 2158 O 215.942 1.41809 1.32679 0
M  V30 2159 C 213.072 2.80188 2.05212 0
M  V30 2160 C 212.026 3.91471 1.73015 0
M  V30 2161 C 211.352 4.39443 3.04622 0
M  V30 2162 C 212.652 5.12886 0.987168 0
M  V30 2163 H 214.346 2.97988 0.290403 0
M  V30 2164 H 211.892 1.43335 0.138239 0
M  V30 2165 H 213.845 3.22264 2.71521 0
M  V30 2166 H 212.569 1.98601 2.59278 0
M  V30 2167 H 211.228 3.49993 1.0909 0
M  V30 2168 H 210.876 3.54695 3.56651 0
M  V30 2169 H 210.576 5.14495 2.83847 0
M  V30 2170 H 212.1 4.8418 3.72024 0
M  V30 2171 H 213.514 5.51891 1.55208 0
M  V30 2172 H 211.911 5.93615 0.87985 0
M  V30 2173 H 212.981 4.84894 -0.0235286 0
M  V30 2174 N 214.325 -0.140222 1.56975 0
M  V30 2175 C 215.288 -1.15689 1.97861 0
M  V30 2176 C 216.288 -1.3549 0.865974 0
M  V30 2177 O 217.478 -1.32367 1.13246 0
M  V30 2178 C 214.61 -2.51582 2.30042 0
M  V30 2179 H 215.803 -0.805971 2.88867 0
M  V30 2180 H 213.356 -0.383801 1.51515 0
M  V30 2181 H 214.091 -2.91632 1.41849 0
M  V30 2182 H 213.876 -2.38569 3.11171 0
M  V30 2183 H 215.366 -3.24792 2.62488 0
M  V30 2184 N 215.803 -1.52179 -0.40978 0
M  V30 2185 C 216.751 -1.76086 -1.51975 0
M  V30 2186 C 217.745 -0.627964 -1.57331 0
M  V30 2187 O 218.951 -0.809993 -1.60745 0
M  V30 2188 H 215.326 -0.556829 -0.505416 0
M  V30 2189 H 217.297 -2.69077 -1.28996 0
M  V30 2190 C 216.046 -1.92799 -2.8935 0
M  V30 2191 H 215.369 -2.79392 -2.85972 0
M  V30 2192 H 216.809 -2.13527 -3.66309 0
M  V30 2193 C 215.268 -0.694923 -3.29655 0
M  V30 2194 O 215.798 0.13751 -4.01465 0
M  V30 2195 N 214.004 -0.53101 -2.85707 0
M  V30 2196 H 213.551 -1.20952 -2.27439 0
M  V30 2197 H 213.509 0.292718 -3.13034 0
M  V30 2198 N 217.281 0.66697 -1.42791 0
M  V30 2199 C 218.529 1.42417 -1.43394 0
M  V30 2200 C 218.85 1.94925 -0.0542373 0
M  V30 2201 O 218.12 1.73564 0.908415 0
M  V30 2202 H 216.7 0.528515 -0.527902 0
M  V30 2203 H 219.362 0.787562 -1.78279 0
M  V30 2204 H 218.458 2.27333 -2.13837 0
M  V30 2205 N 218.759 1.29093 0.90403 0
M  V30 2206 C 219.689 1.16401 2.02418 0
M  V30 2207 C 220.67 0.0593085 1.69997 0
M  V30 2208 O 221.855 0.238021 1.92736 0
M  V30 2209 C 218.985 0.835233 3.37107 0
M  V30 2210 C 217.939 1.89578 3.83724 0
M  V30 2211 C 217.265 1.42041 5.15489 0
M  V30 2212 C 218.565 3.30394 4.04521 0
M  V30 2213 H 220.259 2.10109 2.13295 0
M  V30 2214 H 217.805 1.01157 1.02486 0
M  V30 2215 H 219.758 0.733169 4.14973 0
M  V30 2216 H 218.482 -0.137543 3.2631 0
M  V30 2217 H 217.141 1.98715 3.08071 0
M  V30 2218 H 216.789 0.436426 5.01103 0
M  V30 2219 H 216.489 2.12964 5.4765 0
M  V30 2220 H 218.013 1.33176 5.959 0
M  V30 2221 H 219.427 3.24123 4.72882 0
M  V30 2222 H 217.824 3.99237 4.48029 0
M  V30 2223 H 218.894 3.73692 3.09002 0
M  V30 2224 N 220.237 -1.11381 1.11499 0
M  V30 2225 C 221.2 -2.15622 0.777153 0
M  V30 2226 C 222.2 -1.59504 -0.203779 0
M  V30 2227 O 223.39 -1.74188 0.020782 0
M  V30 2228 C 220.522 -3.40556 0.153116 0
M  V30 2229 H 221.715 -2.47021 1.70061 0
M  V30 2230 H 219.268 -1.26577 0.916952 0
M  V30 2231 H 220.003 -3.14767 -0.780536 0
M  V30 2232 H 219.788 -3.8257 0.859238 0
M  V30 2233 H 221.278 -4.17546 -0.0671044 0
M  V30 2234 N 221.715 -0.905404 -1.28997 0
M  V30 2235 C 222.648 -0.331959 -2.25773 0
M  V30 2236 C 223.626 0.559099 -1.52685 0
M  V30 2237 O 224.81 0.50463 -1.8162 0
M  V30 2238 C 221.937 0.526276 -3.34586 0
M  V30 2239 C 220.983 -0.298249 -4.25456 0
M  V30 2240 S 221.816 -1.69968 -5.0781 0
M  V30 2241 C 222.972 -0.848519 -6.20122 0
M  V30 2242 H 223.205 -1.15222 -2.74064 0
M  V30 2243 H 220.738 -0.706112 -1.37308 0
M  V30 2244 H 222.696 1.01565 -3.97737 0
M  V30 2245 H 221.357 1.32084 -2.84978 0
M  V30 2246 H 220.55 0.357607 -5.0273 0
M  V30 2247 H 220.152 -0.720968 -3.66985 0
M  V30 2248 H 222.444 -0.0744325 -6.77459 0
M  V30 2249 H 223.387 -1.59353 -6.89937 0
M  V30 2250 H 223.795 -0.400383 -5.63078 0
M  V30 2251 N 223.193 1.4272 -0.668489 0
M  V30 2252 C 224.156 2.292 0.00448567 0
M  V30 2253 C 225.156 1.43001 0.735339 0
M  V30 2254 O 226.346 1.64461 0.57429 0
M  V30 2255 C 223.478 3.25375 1.01705 0
M  V30 2256 H 224.671 2.90199 -0.756608 0
M  V30 2257 H 222.224 1.50254 -0.430506 0
M  V30 2258 H 222.959 2.69301 1.80686 0
M  V30 2259 H 222.744 3.88944 0.496463 0
M  V30 2260 H 224.234 3.90245 1.48655 0
M  V30 2261 N 224.671 0.411399 1.52136 0
M  V30 2262 C 225.919 -0.163322 2.01439 0
M  V30 2263 C 226.24 -1.45453 1.29879 0
M  V30 2264 O 225.51 -1.91225 0.4254 0
M  V30 2265 H 224.09 -0.0633447 0.744309 0
M  V30 2266 H 226.752 0.548161 1.87033 0
M  V30 2267 H 225.848 -0.357817 3.10042 0
M  V30 2268 N 226.149 -1.5696 0.141893 0
M  V30 2269 C 227.374 -2.00754 -0.520838 0
M  V30 2270 C 227.799 -1.0213 -1.57959 0
M  V30 2271 O 227.157 0.00371324 -1.813 0
M  V30 2272 C 227.205 -3.43318 -1.10294 0
M  V30 2273 O 226.309 -3.47679 -2.21795 0
M  V30 2274 H 225.65 -0.651564 -0.127908 0
M  V30 2275 H 228.18 -2.03221 0.23712 0
M  V30 2276 H 228.19 -3.82012 -1.43287 0
M  V30 2277 H 226.865 -4.14608 -0.327574 0
M  V30 2278 H 225.442 -3.20824 -1.9007 0
M  V30 2279 N 227.627 0.131896 -1.57047 0
M  V30 2280 C 229.038 0.690407 -1.73465 0
M  V30 2281 C 229.389 1.8094 -0.758629 0
M  V30 2282 O 228.514 2.16282 0.0713813 0
M  V30 2283 C 229.109 1.25916 -3.14532 0
M  V30 2284 C 227.668 1.76409 -3.32501 0
M  V30 2285 C 226.815 0.658579 -2.69366 0
M  V30 2286 H 229.766 -0.0939144 -1.58422 0
M  V30 2287 H 229.787 2.12892 -3.15369 0
M  V30 2288 H 229.299 0.444515 -3.85546 0
M  V30 2289 H 227.4 2.60391 -2.66509 0
M  V30 2290 H 227.513 1.88241 -4.4057 0
M  V30 2291 H 225.877 1.08899 -2.30246 0
M  V30 2292 H 226.66 -0.14487 -3.42994 0
M  V30 2293 N 229.106 1.52395 0.401703 0
M  V30 2294 C 230.352 1.67065 1.14966 0
M  V30 2295 C 230.685 0.403052 1.89971 0
M  V30 2296 O 229.96 -0.598774 1.85054 0
M  V30 2297 C 230.243 2.8975 2.13815 0
M  V30 2298 C 230.096 4.26578 1.42658 0
M  V30 2299 C 231.415 3.07965 3.14397 0
M  V30 2300 H 228.534 0.607968 0.416587 0
M  V30 2301 H 231.176 1.84965 0.434511 0
M  V30 2302 H 229.326 2.74619 2.74803 0
M  V30 2303 H 230.998 4.53451 0.847329 0
M  V30 2304 H 229.241 4.27639 0.72849 0
M  V30 2305 H 229.912 5.08483 2.14823 0
M  V30 2306 H 232.388 3.22043 2.63491 0
M  V30 2307 H 231.264 3.95308 3.80819 0
M  V30 2308 H 231.525 2.21611 3.82545 0
M  V30 2309 N 230.584 -0.659388 1.43143 0
M  V30 2310 C 231.831 -1.41935 1.44433 0
M  V30 2311 C 232.159 -1.94387 0.0663522 0
M  V30 2312 O 231.414 -1.72314 -0.927706 0
M  V30 2313 C 231.713 -2.62206 2.42864 0
M  V30 2314 C 231.379 -2.28208 3.88886 0
M  V30 2315 C 230.041 -2.18647 4.28657 0
M  V30 2316 C 232.393 -2.00887 4.8093 0
M  V30 2317 C 229.721 -1.79914 5.58433 0
M  V30 2318 C 232.073 -1.63653 6.11065 0
M  V30 2319 C 230.737 -1.52614 6.49819 0
M  V30 2320 H 230.007 -0.519376 0.528517 0
M  V30 2321 H 232.654 -0.750453 1.76183 0
M  V30 2322 H 230.959 -3.34199 2.04495 0
M  V30 2323 H 232.656 -3.2041 2.41119 0
M  V30 2324 H 229.246 -2.36557 3.57406 0
M  V30 2325 H 233.43 -2.07198 4.5098 0
M  V30 2326 H 228.686 -1.69948 5.87305 0
M  V30 2327 H 232.86 -1.41543 6.81864 0
M  V30 2328 H 230.487 -1.22371 7.50286 0
M  V30 2329 N 232.062 -1.29571 -0.897171 0
M  V30 2330 C 232.992 -1.17473 -2.01798 0
M  V30 2331 C 233.973 -0.068323 -1.69963 0
M  V30 2332 O 235.158 -0.248239 -1.92607 0
M  V30 2333 C 232.288 -0.853099 -3.36659 0
M  V30 2334 C 231.242 -1.9161 -3.82713 0
M  V30 2335 C 230.568 -1.44773 -5.14728 0
M  V30 2336 C 231.868 -3.32535 -4.02763 0
M  V30 2337 H 233.562 -2.11237 -2.12177 0
M  V30 2338 H 231.108 -1.01699 -1.01948 0
M  V30 2339 H 233.061 -0.755165 -4.14578 0
M  V30 2340 H 231.785 0.120236 -3.26379 0
M  V30 2341 H 230.444 -2.00346 -3.07013 0
M  V30 2342 H 230.092 -0.462995 -5.00865 0
M  V30 2343 H 229.792 -2.15865 -5.46513 0
M  V30 2344 H 231.316 -1.36334 -5.95185 0
M  V30 2345 H 232.73 -3.26626 -4.71156 0
M  V30 2346 H 231.127 -4.01607 -4.45905 0
M  V30 2347 H 232.197 -3.75326 -3.07016 0
M  V30 2348 N 233.54 1.10788 -1.12088 0
M  V30 2349 C 234.78 1.84297 -0.883974 0
M  V30 2350 C 235.144 1.83036 0.579797 0
M  V30 2351 O 236.345 2.52061 0.933734 0
M  V30 2352 C 234.616 3.27173 -1.43849 0
M  V30 2353 S 236.175 4.17853 -1.33957 0
M  V30 2354 H 232.993 0.635433 -0.318977 0
M  V30 2355 H 235.595 1.33341 -1.4297 0
M  V30 2356 H 234.299 3.25658 -2.49749 0
M  V30 2357 H 233.83 3.83198 -0.890096 0
M  V30 2358 H 235.845 4.95239 -0.308603 0
M  V30 2359 N 235.018 0.912232 1.28515 0
M  V30 2360 C 236.246 0.560416 1.99166 0
M  V30 2361 C 236.661 -0.857927 1.68182 0
M  V30 2362 O 236.018 -1.56805 0.933733 0
M  V30 2363 C 236.069 0.758142 3.53461 0
M  V30 2364 O 235.79 2.12067 3.83352 0
M  V30 2365 C 237.291 0.412954 4.41372 0
M  V30 2366 H 234.511 0.213805 0.636026 0
M  V30 2367 H 237.055 1.22502 1.63749 0
M  V30 2368 H 235.21 0.140556 3.87145 0
M  V30 2369 H 235.624 2.15923 4.77993 0
M  V30 2370 H 237.098 0.60208 5.48707 0
M  V30 2371 H 237.575 -0.65073 4.34353 0
M  V30 2372 H 238.181 1.00802 4.13182 0
M  V30 2373 N 236.496 -1.42363 0.676048 0
M  V30 2374 C 237.426 -2.33497 0.0124832 0
M  V30 2375 C 238.407 -1.50748 -0.787981 0
M  V30 2376 O 239.592 -1.79346 -0.744884 0
M  V30 2377 C 236.722 -3.34377 -0.938582 0
M  V30 2378 C 235.676 -4.27289 -0.246622 0
M  V30 2379 C 235.002 -5.18386 -1.31071 0
M  V30 2380 C 236.302 -5.14916 0.875125 0
M  V30 2381 H 237.996 -2.89233 0.773593 0
M  V30 2382 H 235.542 -1.39073 0.37346 0
M  V30 2383 H 237.495 -3.97044 -1.41188 0
M  V30 2384 H 236.219 -2.76947 -1.73113 0
M  V30 2385 H 234.878 -3.66018 0.206456 0
M  V30 2386 H 234.526 -4.57282 -2.09528 0
M  V30 2387 H 234.226 -5.81378 -0.852839 0
M  V30 2388 H 235.75 -5.83929 -1.78492 0
M  V30 2389 H 237.164 -5.71262 0.482983 0
M  V30 2390 H 235.561 -5.86747 1.25887 0
M  V30 2391 H 236.631 -4.53242 1.72335 0
M  V30 2392 N 237.974 -0.419461 -1.51915 0
M  V30 2393 C 238.937 0.389116 -2.25873 0
M  V30 2394 C 239.937 0.964924 -1.28631 0
M  V30 2395 O 241.127 0.842179 -1.52489 0
M  V30 2396 C 238.259 1.54874 -3.03689 0
M  V30 2397 H 239.452 -0.258799 -2.98781 0
M  V30 2398 H 237.005 -0.172209 -1.55348 0
M  V30 2399 H 237.74 2.23323 -2.35154 0
M  V30 2400 H 237.525 1.14223 -3.75094 0
M  V30 2401 H 239.015 2.12046 -3.59759 0
M  V30 2402 N 239.452 1.56882 -0.150215 0
M  V30 2403 C 240.863 1.82995 0.370076 0
M  V30 2404 C 241.214 1.06907 1.64515 0
M  V30 2405 O 240.339 0.315369 2.1409 0
M  V30 2406 C 240.934 3.31942 0.678208 0
M  V30 2407 C 239.493 3.58625 1.14301 0
M  V30 2408 C 238.64 2.76792 0.167778 0
M  V30 2409 H 241.591 1.54209 -0.374858 0
M  V30 2410 H 241.612 3.48272 1.53254 0
M  V30 2411 H 241.124 3.87294 -0.249991 0
M  V30 2412 H 239.225 3.08664 2.08704 0
M  V30 2413 H 239.338 4.67073 1.06676 0
M  V30 2414 H 237.702 2.45972 0.661037 0
M  V30 2415 H 238.485 3.34916 -0.754069 0
M  V30 2416 N 240.93 -0.123565 1.57115 0
M  V30 2417 C 241.86 -1.15309 2.03042 0
M  V30 2418 C 242.841 -1.43454 0.914061 0
M  V30 2419 O 244.026 -1.53973 1.18347 0
M  V30 2420 C 241.156 -2.48043 2.43089 0
M  V30 2421 C 240.11 -2.3437 3.58127 0
M  V30 2422 C 239.436 -3.72026 3.84059 0
M  V30 2423 C 240.736 -1.80804 4.90007 0
M  V30 2424 H 242.43 -0.771102 2.893 0
M  V30 2425 H 239.976 -0.369479 1.39179 0
M  V30 2426 H 241.929 -3.20311 2.73823 0
M  V30 2427 H 240.653 -2.88122 1.53796 0
M  V30 2428 H 239.312 -1.64551 3.27595 0
M  V30 2429 H 238.96 -4.09582 2.91979 0
M  V30 2430 H 238.66 -3.63732 4.6149 0
M  V30 2431 H 240.184 -4.45806 4.1724 0
M  V30 2432 H 241.598 -2.42886 5.19307 0
M  V30 2433 H 239.995 -1.83343 5.71407 0
M  V30 2434 H 241.065 -0.76528 4.78823 0
M  V30 2435 N 242.408 -1.52605 -0.393616 0
M  V30 2436 C 243.356 -1.77688 -1.50099 0
M  V30 2437 C 244.35 -0.644615 -1.56656 0
M  V30 2438 O 245.556 -0.826997 -1.59877 0
M  V30 2439 H 241.931 -0.562159 -0.499481 0
M  V30 2440 H 243.902 -2.7043 -1.26135 0
M  V30 2441 C 242.651 -1.95858 -2.87289 0
M  V30 2442 H 241.974 -2.8241 -2.82992 0
M  V30 2443 H 243.414 -2.174 -3.64024 0
M  V30 2444 C 241.873 -0.729848 -3.28899 0
M  V30 2445 O 242.403 0.0949217 -4.01588 0
M  V30 2446 N 240.609 -0.561283 -2.85128 0
M  V30 2447 H 240.156 -1.23357 -2.26143 0
M  V30 2448 H 240.114 0.2595 -3.13327 0
M  V30 2449 N 243.887 0.651787 -1.4349 0
M  V30 2450 C 244.819 1.77725 -1.44729 0
M  V30 2451 C 245.832 1.59141 -0.343231 0
M  V30 2452 O 247.021 1.67835 -0.607751 0
M  V30 2453 C 244.121 3.15172 -1.24579 0
M  V30 2454 C 243.294 3.60402 -2.47849 0
M  V30 2455 C 242.353 4.76656 -2.22902 0
M  V30 2456 O 241.379 4.86022 -2.96263 0
M  V30 2457 N 242.581 5.66958 -1.24656 0
M  V30 2458 H 245.346 1.77141 -2.41746 0
M  V30 2459 H 242.907 0.835678 -1.38665 0
M  V30 2460 H 244.899 3.90634 -1.0577 0
M  V30 2461 H 243.469 3.1052 -0.360015 0
M  V30 2462 H 242.689 2.75369 -2.82073 0
M  V30 2463 H 243.977 3.87368 -3.29884 0
M  V30 2464 H 243.375 5.62065 -0.640265 0
M  V30 2465 H 241.932 6.42135 -1.1183 0
M  V30 2466 N 245.365 1.30045 0.890287 0
M  V30 2467 C 246.611 1.18737 1.64406 0
M  V30 2468 C 246.944 -0.258525 1.92472 0
M  V30 2469 O 246.219 -1.18562 1.54186 0
M  V30 2470 C 246.502 2.01087 2.98724 0
M  V30 2471 C 246.355 3.53867 2.77665 0
M  V30 2472 C 247.674 1.84457 3.9958 0
M  V30 2473 H 244.793 0.432698 0.596608 0
M  V30 2474 H 247.435 1.5962 1.0306 0
M  V30 2475 H 245.585 1.66349 3.51084 0
M  V30 2476 H 247.257 3.98637 2.32133 0
M  V30 2477 H 245.5 3.78318 2.12269 0
M  V30 2478 H 246.171 4.06772 3.7315 0
M  V30 2479 H 248.647 2.14817 3.56361 0
M  V30 2480 H 247.523 2.44411 4.91482 0
M  V30 2481 H 247.784 0.802276 4.3476 0
M  V30 2482 N 246.843 -1.10192 1.12674 0
M  V30 2483 C 248.09 -1.82205 0.883606 0
M  V30 2484 C 248.418 -1.8532 -0.590492 0
M  V30 2485 O 247.673 -1.31137 -1.45264 0
M  V30 2486 C 247.972 -3.28552 1.4067 0
M  V30 2487 C 247.638 -3.45582 2.89627 0
M  V30 2488 C 246.3 -3.49937 3.30299 0
M  V30 2489 C 248.652 -3.50768 3.85501 0
M  V30 2490 C 245.98 -3.57049 4.65546 0
M  V30 2491 C 248.332 -3.59414 5.20581 0
M  V30 2492 C 246.996 -3.62034 5.60792 0
M  V30 2493 H 246.266 -0.666735 0.323334 0
M  V30 2494 H 248.913 -1.29868 1.40736 0
M  V30 2495 H 247.218 -3.83473 0.80347 0
M  V30 2496 H 248.915 -3.82788 1.19475 0
M  V30 2497 H 245.505 -3.42871 2.57172 0
M  V30 2498 H 249.689 -3.46651 3.55171 0
M  V30 2499 H 244.945 -3.57361 4.96088 0
M  V30 2500 H 249.119 -3.62371 5.94693 0
M  V30 2501 H 246.746 -3.67298 6.6558 0
M  V30 2502 N 248.321 -0.919034 -1.28029 0
M  V30 2503 C 249.568 -0.554934 -1.94748 0
M  V30 2504 C 249.896 0.90231 -1.72304 0
M  V30 2505 O 249.151 1.65767 -1.04018 0
M  V30 2506 C 249.45 -0.816855 -3.4794 0
M  V30 2507 C 249.116 -2.25448 -3.90492 0
M  V30 2508 C 247.778 -2.64752 -4.01821 0
M  V30 2509 C 250.13 -3.18977 -4.12193 0
M  V30 2510 C 247.458 -3.96727 -4.32232 0
M  V30 2511 C 249.81 -4.50523 -4.44086 0
M  V30 2512 C 248.474 -4.89673 -4.53626 0
M  V30 2513 H 247.744 -0.203065 -0.712633 0
M  V30 2514 H 250.391 -1.16136 -1.52265 0
M  V30 2515 H 248.696 -0.127677 -3.91592 0
M  V30 2516 H 250.393 -0.514238 -3.97689 0
M  V30 2517 H 246.983 -1.93952 -3.82205 0
M  V30 2518 H 251.167 -2.89817 -4.02889 0
M  V30 2519 H 246.423 -4.26754 -4.37825 0
M  V30 2520 H 250.597 -5.23005 -4.59825 0
M  V30 2521 H 248.224 -5.91969 -4.76946 0
M  V30 2522 N 249.799 1.42003 -0.683588 0
M  V30 2523 C 251.047 2.01015 -0.209101 0
M  V30 2524 C 251.368 1.54365 1.19149 0
M  V30 2525 O 250.638 0.769083 1.80172 0
M  V30 2526 H 249.218 0.743294 -0.074315 0
M  V30 2527 H 251.88 1.73798 -0.882066 0
M  V30 2528 H 250.976 3.11343 -0.2172 0
M  V30 2529 N 251.277 0.427512 1.51691 0
M  V30 2530 C 252.526 -0.143679 2.01188 0
M  V30 2531 C 252.839 -1.44642 1.31674 0
M  V30 2532 O 254.045 -2.09997 1.72086 0
M  V30 2533 C 252.501 -0.306602 3.58592 0
M  V30 2534 C 252.109 0.985125 4.37035 0
M  V30 2535 C 253.853 -0.832091 4.16265 0
M  V30 2536 C 251.76 0.788382 5.86122 0
M  V30 2537 H 250.69 -0.0574701 0.751807 0
M  V30 2538 H 253.341 0.555772 1.74881 0
M  V30 2539 H 251.723 -1.06882 3.81303 0
M  V30 2540 H 252.897 1.75492 4.26074 0
M  V30 2541 H 251.212 1.4384 3.90767 0
M  V30 2542 H 253.809 -0.995617 5.25349 0
M  V30 2543 H 254.152 -1.81186 3.74803 0
M  V30 2544 H 254.685 -0.128444 3.97593 0
M  V30 2545 H 251.424 1.74025 6.31978 0
M  V30 2546 H 250.944 0.0582143 5.99772 0
M  V30 2547 H 252.623 0.437722 6.45518 0
M  V30 2548 N 252.755 -1.56801 0.158532 0
M  V30 2549 C 254.002 -1.9649 -0.489679 0
M  V30 2550 C 254.33 -1.04394 -1.6411 0
M  V30 2551 O 253.585 -0.0754401 -1.95555 0
M  V30 2552 C 253.884 -3.4235 -1.02623 0
M  V30 2553 C 253.55 -4.50899 0.00794526 0
M  V30 2554 C 252.212 -4.80312 0.292207 0
M  V30 2555 C 254.564 -5.16333 0.710584 0
M  V30 2556 C 251.892 -5.72461 1.28472 0
M  V30 2557 C 254.244 -6.09553 1.69199 0
M  V30 2558 C 252.908 -6.37339 1.98383 0
M  V30 2559 H 252.178 -0.719009 -0.179186 0
M  V30 2560 H 254.825 -1.8989 0.247798 0
M  V30 2561 H 253.13 -3.45838 -1.84128 0
M  V30 2562 H 254.827 -3.70393 -1.53656 0
M  V30 2563 H 251.417 -4.28015 -0.22379 0
M  V30 2564 H 255.601 -4.93732 0.504174 0
M  V30 2565 H 250.857 -5.92278 1.51714 0
M  V30 2566 H 255.031 -6.59327 2.24189 0
M  V30 2567 H 252.658 -7.08546 2.7544 0
M  V30 2568 N 254.233 0.115231 -1.57178 0
M  V30 2569 C 255.481 0.820727 -1.84685 0
M  V30 2570 C 255.802 1.80237 -0.744279 0
M  V30 2571 O 255.072 1.94529 0.231375 0
M  V30 2572 H 253.652 0.306084 -0.681411 0
M  V30 2573 H 256.314 0.101656 -1.94635 0
M  V30 2574 H 255.41 1.36366 -2.80733 0
M  V30 2575 N 255.711 1.52812 0.385517 0
M  V30 2576 C 256.957 1.69225 1.12847 0
M  V30 2577 C 257.312 0.42864 1.87564 0
M  V30 2578 O 256.605 -0.57779 1.8268 0
M  V30 2579 C 256.799 2.86856 2.13187 0
M  V30 2580 C 256.628 4.24535 1.48325 0
M  V30 2581 C 255.398 4.89701 1.24585 0
M  V30 2582 C 257.596 5.05794 0.931501 0
M  V30 2583 N 255.578 6.11353 0.558644 0
M  V30 2584 C 256.949 6.1888 0.372552 0
M  V30 2585 C 259.004 4.90963 0.828248 0
M  V30 2586 C 257.707 7.18757 -0.279556 0
M  V30 2587 C 259.733 5.91095 0.189956 0
M  V30 2588 C 259.095 7.03489 -0.358207 0
M  V30 2589 H 255.194 0.67268 0.39878 0
M  V30 2590 H 257.778 1.9017 0.417528 0
M  V30 2591 H 255.949 2.67484 2.81614 0
M  V30 2592 H 257.681 2.92188 2.80014 0
M  V30 2593 H 254.436 4.48485 1.52178 0
M  V30 2594 H 254.86 6.76606 0.230983 0
M  V30 2595 H 259.502 4.04274 1.23784 0
M  V30 2596 H 257.22 8.05052 -0.701152 0
M  V30 2597 H 260.806 5.81694 0.111264 0
M  V30 2598 H 259.686 7.79642 -0.844314 0
M  V30 2599 N 257.189 -0.644168 1.43834 0
M  V30 2600 C 258.605 -0.960875 1.27434 0
M  V30 2601 C 258.805 -2.00499 0.200618 0
M  V30 2602 O 257.861 -2.49018 -0.417906 0
M  V30 2603 C 259.174 -1.43653 2.64167 0
M  V30 2604 C 260.722 -1.55271 2.71772 0
M  V30 2605 C 261.197 -2.06224 4.08944 0
M  V30 2606 N 262.688 -2.13513 4.11055 0
M  V30 2607 C 263.423 -2.54081 5.14033 0
M  V30 2608 N 262.919 -2.9388 6.27381 0
M  V30 2609 N 264.712 -2.54101 5.01387 0
M  V30 2610 H 256.863 0.0465779 2.12349 0
M  V30 2611 H 259.126 -0.0417638 0.94708 0
M  V30 2612 H 258.832 -0.743706 3.43747 0
M  V30 2613 H 258.706 -2.40993 2.90176 0
M  V30 2614 H 261.093 -2.23653 1.92519 0
M  V30 2615 H 261.174 -0.563395 2.49519 0
M  V30 2616 H 260.818 -1.38441 4.88668 0
M  V30 2617 H 260.748 -3.06003 4.28567 0
M  V30 2618 H 263.239 -1.85493 3.29242 0
M  V30 2619 H 263.552 -3.2361 7.01781 0
M  V30 2620 H 261.897 -2.91663 6.30839 0
M  V30 2621 H 265.088 -2.22391 4.11898 0
M  V30 2622 H 265.261 -2.85394 5.81768 0
M  V30 2623 N 258.668 -1.30515 -0.883378 0
M  V30 2624 C 259.916 -1.19194 -1.63209 0
M  V30 2625 C 260.237 0.253205 -1.93349 0
M  V30 2626 O 259.507 1.17025 -1.57105 0
M  V30 2627 H 258.087 -0.438148 -0.605009 0
M  V30 2628 H 260.749 -1.63663 -1.05832 0
M  V30 2629 H 259.845 -1.75396 -2.58153 0
M  V30 2630 N 260.146 1.09593 -1.13257 0
M  V30 2631 C 261.371 1.8604 -0.916732 0
M  V30 2632 C 261.796 1.80504 0.529146 0
M  V30 2633 O 261.154 1.18127 1.37534 0
M  V30 2634 C 261.202 3.32017 -1.40703 0
M  V30 2635 O 260.306 4.08141 -0.591153 0
M  V30 2636 H 259.647 0.576943 -0.328683 0
M  V30 2637 H 262.177 1.38405 -1.50682 0
M  V30 2638 H 262.187 3.82865 -1.4099 0
M  V30 2639 H 260.862 3.35361 -2.45979 0
M  V30 2640 H 259.439 3.67084 -0.656005 0
M  V30 2641 N 261.624 0.925811 1.2754 0
M  V30 2642 C 262.871 0.565255 1.94451 0
M  V30 2643 C 263.199 -0.89316 1.7278 0
M  V30 2644 O 262.454 -1.65213 1.04895 0
M  V30 2645 C 262.753 0.835296 3.47502 0
M  V30 2646 C 262.419 2.27515 3.89291 0
M  V30 2647 C 261.081 2.66879 4.00411 0
M  V30 2648 C 263.433 3.21158 4.10496 0
M  V30 2649 C 260.761 3.99014 4.30122 0
M  V30 2650 C 263.113 4.52871 4.4169 0
M  V30 2651 C 261.777 4.92072 4.51023 0
M  V30 2652 H 261.047 0.206841 0.711546 0
M  V30 2653 H 263.694 1.16942 1.51647 0
M  V30 2654 H 261.999 0.148442 3.91519 0
M  V30 2655 H 263.696 0.535322 3.97411 0
M  V30 2656 H 260.286 1.95976 3.81171 0
M  V30 2657 H 264.47 2.9195 4.01346 0
M  V30 2658 H 259.726 4.2907 4.35556 0
M  V30 2659 H 263.9 5.25436 4.57045 0
M  V30 2660 H 261.527 5.9449 4.738 0
M  V30 2661 N 263.102 -1.41638 0.69111 0
M  V30 2662 C 264.032 -2.3347 0.037248 0
M  V30 2663 C 265.013 -1.51575 -0.771947 0
M  V30 2664 O 266.198 -1.80126 -0.72582 0
M  V30 2665 C 263.328 -3.35354 -0.903064 0
M  V30 2666 C 262.282 -4.27526 -0.201288 0
M  V30 2667 C 261.608 -5.19747 -1.25565 0
M  V30 2668 C 262.908 -5.13959 0.929689 0
M  V30 2669 H 264.602 -2.88397 0.804227 0
M  V30 2670 H 262.148 -1.38669 0.388189 0
M  V30 2671 H 264.101 -3.98519 -1.36969 0
M  V30 2672 H 262.825 -2.78767 -1.70166 0
M  V30 2673 H 261.484 -3.65779 0.245265 0
M  V30 2674 H 261.132 -4.59479 -2.04666 0
M  V30 2675 H 260.832 -5.8225 -0.791128 0
M  V30 2676 H 262.356 -5.85789 -1.72288 0
M  V30 2677 H 263.77 -5.70718 0.543546 0
M  V30 2678 H 262.167 -5.85379 1.32103 0
M  V30 2679 H 263.237 -4.51389 1.77133 0
M  V30 2680 N 264.58 -0.43555 -1.51462 0
M  V30 2681 C 265.829 0.133007 -2.01261 0
M  V30 2682 C 266.142 1.43942 -1.32439 0
M  V30 2683 O 267.348 2.09081 -1.73198 0
M  V30 2684 C 265.804 0.287581 -3.58749 0
M  V30 2685 C 265.412 -1.00829 -4.36506 0
M  V30 2686 C 267.156 0.810004 -4.167 0
M  V30 2687 C 265.063 -0.819454 -5.85695 0
M  V30 2688 H 263.993 0.0534822 -0.752101 0
M  V30 2689 H 266.644 -0.565038 -1.74584 0
M  V30 2690 H 265.026 1.04859 -3.81865 0
M  V30 2691 H 266.2 -1.77749 -4.25138 0
M  V30 2692 H 264.515 -1.45911 -3.89999 0
M  V30 2693 H 267.112 0.967743 -5.2587 0
M  V30 2694 H 267.455 1.79196 -3.75758 0
M  V30 2695 H 267.988 0.107357 -3.97655 0
M  V30 2696 H 264.727 -1.77374 -6.31046 0
M  V30 2697 H 264.247 -0.0900208 -5.99732 0
M  V30 2698 H 265.926 -0.471949 -6.45276 0
M  V30 2699 N 266.058 1.56714 -0.166846 0
M  V30 2700 C 266.988 2.20754 0.760913 0
M  V30 2701 C 267.969 1.16178 1.24244 0
M  V30 2702 O 269.154 1.44592 1.29641 0
M  V30 2703 C 266.284 2.84478 1.99223 0
M  V30 2704 C 265.238 3.95053 1.64672 0
M  V30 2705 C 264.564 4.45805 2.95232 0
M  V30 2706 C 265.864 5.14865 0.878155 0
M  V30 2707 H 267.558 2.98537 0.22713 0
M  V30 2708 H 265.104 1.43596 0.107805 0
M  V30 2709 H 267.057 3.27951 2.64624 0
M  V30 2710 H 265.781 2.04056 2.55007 0
M  V30 2711 H 264.44 3.52228 1.01641 0
M  V30 2712 H 264.088 3.62181 3.49047 0
M  V30 2713 H 263.788 5.204 2.7287 0
M  V30 2714 H 265.312 4.91962 3.6167 0
M  V30 2715 H 266.726 5.55059 1.43466 0
M  V30 2716 H 265.123 5.95348 0.753738 0
M  V30 2717 H 266.193 4.84735 -0.126377 0
M  V30 2718 N 267.536 -0.106894 1.57237 0
M  V30 2719 C 268.784 -0.810921 1.85117 0
M  V30 2720 C 269.105 -1.7984 0.753827 0
M  V30 2721 O 268.375 -1.94649 -0.221056 0
M  V30 2722 H 266.955 -0.302466 0.683025 0
M  V30 2723 H 269.617 -0.0913324 1.94686 0
M  V30 2724 H 268.713 -1.34875 2.81452 0
M  V30 2725 N 269.014 -1.53014 -0.377408 0
M  V30 2726 C 270.262 -1.6829 -1.11906 0
M  V30 2727 C 270.583 -0.431206 -1.90173 0
M  V30 2728 O 269.853 0.554595 -1.87886 0
M  V30 2729 H 268.433 -0.620371 -0.416112 0
M  V30 2730 H 271.095 -1.90167 -0.426893 0
M  V30 2731 H 270.191 -2.53862 -1.8155 0
M  V30 2732 N 270.492 0.636531 -1.44174 0
M  V30 2733 C 271.422 1.76003 -1.53444 0
M  V30 2734 C 272.403 1.65619 -0.387841 0
M  V30 2735 O 273.588 1.84461 -0.607257 0
M  V30 2736 C 270.718 3.14511 -1.4731 0
M  V30 2737 C 269.672 3.39677 -2.60391 0
M  V30 2738 C 268.998 4.78159 -2.39308 0
M  V30 2739 C 270.298 3.32772 -4.02567 0
M  V30 2740 H 271.992 1.68501 -2.47483 0
M  V30 2741 H 269.538 0.809237 -1.19111 0
M  V30 2742 H 271.491 3.92878 -1.52397 0
M  V30 2743 H 270.215 3.22783 -0.49785 0
M  V30 2744 H 268.874 2.63688 -2.54684 0
M  V30 2745 H 268.522 4.83128 -1.39988 0
M  V30 2746 H 268.222 4.95956 -3.15122 0
M  V30 2747 H 269.746 5.58762 -2.46205 0
M  V30 2748 H 271.16 4.01051 -4.09672 0
M  V30 2749 H 269.557 3.62104 -4.7854 0
M  V30 2750 H 270.627 2.30669 -4.2652 0
M  V30 2751 N 271.97 1.30982 0.876444 0
M  V30 2752 C 272.9 1.20668 1.99903 0
M  V30 2753 C 273.881 0.095354 1.69833 0
M  V30 2754 O 275.066 0.27885 1.92188 0
M  V30 2755 C 272.196 0.90655 3.3526 0
M  V30 2756 C 271.15 1.97675 3.79617 0
M  V30 2757 C 270.476 1.52943 5.1236 0
M  V30 2758 C 271.776 3.389 3.97422 0
M  V30 2759 H 273.47 2.14586 2.0879 0
M  V30 2760 H 271.016 1.03308 1.00317 0
M  V30 2761 H 272.969 0.821025 4.13324 0
M  V30 2762 H 271.693 -0.0682969 3.26529 0
M  V30 2763 H 270.352 2.05205 3.03787 0
M  V30 2764 H 270 0.54262 5.00065 0
M  V30 2765 H 269.7 2.24532 5.43009 0
M  V30 2766 H 271.224 1.45786 5.92941 0
M  V30 2767 H 272.638 3.34081 4.659 0
M  V30 2768 H 271.035 4.0865 4.3946 0
M  V30 2769 H 272.105 3.80163 3.01006 0
M  V30 2770 N 273.449 -1.08991 1.13837 0
M  V30 2771 C 274.379 -2.17771 0.842507 0
M  V30 2772 C 275.36 -1.6892 -0.20001 0
M  V30 2773 O 276.545 -1.94113 -0.0579731 0
M  V30 2774 C 273.675 -3.4589 0.312644 0
M  V30 2775 C 272.629 -4.08099 1.28992 0
M  V30 2776 C 271.955 -5.31098 0.619623 0
M  V30 2777 C 273.255 -4.50077 2.65005 0
M  V30 2778 H 274.949 -2.42777 1.75213 0
M  V30 2779 H 272.495 -1.16682 0.843875 0
M  V30 2780 H 274.448 -4.21297 0.0933043 0
M  V30 2781 H 273.172 -3.20419 -0.632382 0
M  V30 2782 H 271.831 -3.34717 1.49533 0
M  V30 2783 H 271.479 -5.0191 -0.33102 0
M  V30 2784 H 271.179 -5.73674 1.27167 0
M  V30 2785 H 272.703 -6.09224 0.409669 0
M  V30 2786 H 274.117 -5.16688 2.48407 0
M  V30 2787 H 272.514 -5.03553 3.26427 0
M  V30 2788 H 273.584 -3.62257 3.22332 0
M  V30 2789 N 274.927 -0.932562 -1.27047 0
M  V30 2790 C 275.875 -0.42603 -2.28665 0
M  V30 2791 C 276.869 0.49219 -1.62092 0
M  V30 2792 O 278.075 0.371355 -1.76128 0
M  V30 2793 H 274.45 -0.119213 -0.742491 0
M  V30 2794 H 276.421 -1.29579 -2.68797 0
M  V30 2795 C 275.17 0.301426 -3.46391 0
M  V30 2796 H 274.493 -0.39595 -3.97834 0
M  V30 2797 H 275.933 0.6202 -4.1944 0
M  V30 2798 C 274.392 1.51616 -3.00856 0
M  V30 2799 O 274.922 2.61476 -3.04948 0
M  V30 2800 N 273.128 1.36969 -2.56296 0
M  V30 2801 H 272.675 0.475873 -2.53166 0
M  V30 2802 H 272.633 2.18368 -2.26192 0
M  V30 2803 N 276.405 1.4127 -0.698611 0
M  V30 2804 C 277.645 2.03044 -0.235062 0
M  V30 2805 C 278.009 1.54146 1.14468 0
M  V30 2806 O 279.21 2.07867 1.70425 0
M  V30 2807 C 277.481 3.56192 -0.293651 0
M  V30 2808 S 279.04 4.38696 0.0954053 0
M  V30 2809 H 275.858 0.704697 -0.0944648 0
M  V30 2810 H 278.46 1.72656 -0.917064 0
M  V30 2811 H 277.164 3.89274 -1.29977 0
M  V30 2812 H 276.695 3.91285 0.407397 0
M  V30 2813 H 278.71 4.78257 1.3223 0
M  V30 2814 N 277.883 0.443576 1.51229 0
M  V30 2815 C 279.123 -0.119889 2.04048 0
M  V30 2816 C 279.487 -1.39418 1.32009 0
M  V30 2817 O 280.688 -2.03829 1.75235 0
M  V30 2818 C 278.959 -0.327233 3.55899 0
M  V30 2819 S 280.518 -0.853208 4.30425 0
M  V30 2820 H 277.336 -0.028921 0.710412 0
M  V30 2821 H 279.938 0.604413 1.85922 0
M  V30 2822 H 278.642 0.606445 4.05895 0
M  V30 2823 H 278.173 -1.07844 3.7833 0
M  V30 2824 H 280.188 -2.13005 4.48155 0
M  V30 2825 N 279.361 -1.56624 0.175154 0
M  V30 2826 C 280.607 -1.9729 -0.469506 0
M  V30 2827 C 280.94 -1.06128 -1.62636 0
M  V30 2828 O 280.215 -0.109183 -1.94193 0
M  V30 2829 C 280.498 -3.47375 -0.948804 0
M  V30 2830 C 280.351 -4.49317 0.208491 0
M  V30 2831 C 281.67 -4.00652 -1.82116 0
M  V30 2832 H 278.789 -0.717317 -0.16919 0
M  V30 2833 H 281.431 -1.88184 0.262062 0
M  V30 2834 H 279.581 -3.55267 -1.57219 0
M  V30 2835 H 281.253 -4.53482 0.845682 0
M  V30 2836 H 279.496 -4.25121 0.863395 0
M  V30 2837 H 280.167 -5.51741 -0.169059 0
M  V30 2838 H 282.643 -3.95416 -1.2956 0
M  V30 2839 H 281.519 -5.06075 -2.12554 0
M  V30 2840 H 281.78 -3.44699 -2.7683 0
M  V30 2841 N 280.839 0.0985539 -1.57292 0
M  V30 2842 C 281.802 1.10402 -2.00858 0
M  V30 2843 C 282.802 1.33146 -0.901593 0
M  V30 2844 O 283.992 1.29318 -1.16716 0
M  V30 2845 C 281.124 2.45394 -2.36632 0
M  V30 2846 H 282.317 0.729099 -2.90902 0
M  V30 2847 H 279.87 0.343495 -1.52479 0
M  V30 2848 H 280.605 2.87769 -1.49531 0
M  V30 2849 H 280.39 2.30235 -3.17387 0
M  V30 2850 H 281.88 3.17718 -2.71007 0
M  V30 2851 N 282.317 1.53212 0.369288 0
M  V30 2852 C 283.565 1.68881 1.11012 0
M  V30 2853 C 283.886 0.441285 1.89941 0
M  V30 2854 O 283.156 -0.544623 1.88177 0
M  V30 2855 H 281.736 0.622569 0.412816 0
M  V30 2856 H 284.398 1.90391 0.416802 0
M  V30 2857 H 283.494 2.54822 1.80201 0
M  V30 2858 N 283.795 -0.628877 1.44509 0
M  V30 2859 C 284.758 -1.72263 1.51188 0
M  V30 2860 C 285.758 -1.55907 0.39367 0
M  V30 2861 O 286.948 -1.61361 0.656377 0
M  V30 2862 C 284.08 -3.11365 1.38798 0
M  V30 2863 H 285.273 -1.67714 2.4862 0
M  V30 2864 H 282.826 -0.842737 1.31634 0
M  V30 2865 H 283.561 -3.21507 0.424693 0
M  V30 2866 H 283.346 -3.24644 2.19884 0
M  V30 2867 H 284.836 -3.91075 1.46458 0
M  V30 2868 N 285.273 -1.31445 -0.869486 0
M  V30 2869 C 286.203 -1.21727 -1.99261 0
M  V30 2870 C 287.184 -0.104359 -1.6978 0
M  V30 2871 O 288.369 -0.289038 -1.92037 0
M  V30 2872 C 285.499 -0.924317 -3.34774 0
M  V30 2873 C 284.453 -1.99685 -3.78563 0
M  V30 2874 C 283.779 -1.55658 -5.11541 0
M  V30 2875 C 285.079 -3.41003 -3.95619 0
M  V30 2876 H 286.773 -2.1569 -2.07649 0
M  V30 2877 H 284.319 -1.03839 -0.997675 0
M  V30 2878 H 286.272 -0.842934 -4.12883 0
M  V30 2879 H 284.996 0.0509793 -3.2656 0
M  V30 2880 H 283.655 -2.06813 -3.02694 0
M  V30 2881 H 283.303 -0.569132 -4.9977 0
M  V30 2882 H 283.003 -2.27409 -5.41811 0
M  V30 2883 H 284.527 -1.48928 -5.92159 0
M  V30 2884 H 285.941 -3.36547 -4.64122 0
M  V30 2885 H 284.338 -4.10975 -4.37286 0
M  V30 2886 H 285.408 -3.81754 -2.98985 0
M  V30 2887 N 286.751 1.08385 -1.14413 0
M  V30 2888 C 287.684 2.14642 -0.774871 0
M  V30 2889 C 288.662 1.60761 0.243876 0
M  V30 2890 O 289.846 1.88031 0.132883 0
M  V30 2891 C 286.973 3.38366 -0.150491 0
M  V30 2892 C 286.019 4.10997 -1.13945 0
M  V30 2893 S 286.852 4.63797 -2.67679 0
M  V30 2894 C 288.008 5.90808 -2.06631 0
M  V30 2895 H 288.241 2.45633 -1.67487 0
M  V30 2896 H 285.774 1.20498 -0.96538 0
M  V30 2897 H 287.732 4.09996 0.203334 0
M  V30 2898 H 286.393 3.05572 0.72694 0
M  V30 2899 H 285.586 4.99783 -0.65059 0
M  V30 2900 H 285.188 3.4528 -1.43727 0
M  V30 2901 H 287.48 6.62411 -1.4219 0
M  V30 2902 H 288.423 6.4439 -2.93542 0
M  V30 2903 H 288.831 5.4383 -1.51357 0
M  V30 2904 N 288.23 0.939286 1.26551 0
M  V30 2905 C 289.646 0.641304 1.46149 0
M  V30 2906 C 289.846 -0.805964 1.84679 0
M  V30 2907 O 288.902 -1.58278 1.96734 0
M  V30 2908 C 290.215 1.6011 2.54529 0
M  V30 2909 C 291.763 1.6106 2.68382 0
M  V30 2910 C 292.238 2.55765 3.79932 0
M  V30 2911 N 293.729 2.5404 3.87322 0
M  V30 2912 C 294.464 3.24004 4.73085 0
M  V30 2913 N 293.96 4.03388 5.63249 0
M  V30 2914 N 295.753 3.12965 4.66914 0
M  V30 2915 H 287.904 1.87478 0.998285 0
M  V30 2916 H 290.167 0.805559 0.499779 0
M  V30 2917 H 289.873 2.63412 2.33039 0
M  V30 2918 H 289.747 1.35171 3.52149 0
M  V30 2919 H 292.134 0.584835 2.89247 0
M  V30 2920 H 292.215 1.90053 1.71212 0
M  V30 2921 H 291.859 3.58458 3.5982 0
M  V30 2922 H 291.789 2.24063 4.76554 0
M  V30 2923 H 294.28 1.96396 3.22858 0
M  V30 2924 H 294.593 4.5373 6.25579 0
M  V30 2925 H 292.938 4.07489 5.63008 0
M  V30 2926 H 296.129 2.50432 3.95476 0
M  V30 2927 H 296.302 3.67759 5.33533 0
M  V30 2928 N 289.708 -1.40897 0.706093 0
M  V30 2929 C 291.119 -1.84023 0.315052 0
M  V30 2930 C 291.47 -1.5906 -1.14866 0
M  V30 2931 O 290.595 -1.06651 -1.88293 0
M  V30 2932 C 291.19 -3.34055 0.565038 0
M  V30 2933 C 289.749 -3.7571 0.227806 0
M  V30 2934 C 288.896 -2.64204 0.842122 0
M  V30 2935 H 291.847 -1.303 0.905963 0
M  V30 2936 H 291.868 -3.80107 -0.172843 0
M  V30 2937 H 291.38 -3.52192 1.63042 0
M  V30 2938 H 289.481 -3.63172 -0.832895 0
M  V30 2939 H 289.594 -4.74103 0.690174 0
M  V30 2940 H 287.958 -2.53255 0.270893 0
M  V30 2941 H 288.741 -2.85155 1.91158 0
M  V30 2942 N 291.186 -0.45159 -1.50991 0
M  V30 2943 C 292.435 0.111653 -2.01391 0
M  V30 2944 C 292.748 1.42529 -1.33959 0
M  V30 2945 O 293.954 2.07232 -1.75405 0
M  V30 2946 C 292.41 0.249514 -3.59034 0
M  V30 2947 C 292.018 -1.05453 -4.35412 0
M  V30 2948 C 293.762 0.765762 -4.17536 0
M  V30 2949 C 291.669 -0.881529 -5.84793 0
M  V30 2950 H 290.599 0.0455022 -0.752626 0
M  V30 2951 H 293.25 -0.583524 -1.73975 0
M  V30 2952 H 291.632 1.00803 -3.82955 0
M  V30 2953 H 292.806 -1.82248 -4.23229 0
M  V30 2954 H 291.121 -1.50039 -3.88429 0
M  V30 2955 H 293.718 0.911913 -5.26866 0
M  V30 2956 H 294.061 1.75201 -3.77638 0
M  V30 2957 H 294.594 0.0651744 -3.97747 0
M  V30 2958 H 291.333 -1.84057 -6.29129 0
M  V30 2959 H 290.853 -0.153625 -5.99603 0
M  V30 2960 H 292.532 -0.540363 -6.4474 0
M  V30 2961 N 292.664 1.56529 -0.183458 0
M  V30 2962 C 293.912 1.96855 0.457452 0
M  V30 2963 C 294.233 1.07104 1.62953 0
M  V30 2964 O 293.503 0.139887 1.954 0
M  V30 2965 H 292.083 0.72693 0.171992 0
M  V30 2966 H 294.745 1.93056 -0.267476 0
M  V30 2967 H 293.841 3.01423 0.809368 0
M  V30 2968 N 294.142 -0.090211 1.57342 0
M  V30 2969 C 295.553 -0.644173 1.75235 0
M  V30 2970 C 295.904 -1.78865 0.806335 0
M  V30 2971 O 295.029 -2.16395 -0.0140128 0
M  V30 2972 C 295.624 -1.17532 3.1776 0
M  V30 2973 C 294.183 -1.67531 3.37061 0
M  V30 2974 C 293.33 -0.58693 2.71017 0
M  V30 2975 H 296.281 0.135884 1.58117 0
M  V30 2976 H 296.302 -2.04455 3.20902 0
M  V30 2977 H 295.814 -0.342138 3.86589 0
M  V30 2978 H 293.915 -2.53234 2.73319 0
M  V30 2979 H 294.028 -1.76493 4.45406 0
M  V30 2980 H 292.392 -1.02756 2.33052 0
M  V30 2981 H 293.175 0.235758 3.4249 0
M  V30 2982 N 295.62 -1.53406 -0.361157 0
M  V30 2983 C 296.567 -1.80156 -1.44265 0
M  V30 2984 C 297.537 -0.646183 -1.53015 0
M  V30 2985 O 298.722 -0.888818 -1.68833 0
M  V30 2986 C 295.862 -2.00116 -2.81154 0
M  V30 2987 C 294.975 -3.27833 -2.81335 0
M  V30 2988 C 294.11 -3.37957 -4.09828 0
M  V30 2989 C 293.149 -4.59689 -4.04168 0
M  V30 2990 N 292.286 -4.66942 -5.24318 0
M  V30 2991 H 297.126 -2.72438 -1.20754 0
M  V30 2992 H 294.663 -1.34954 -0.585296 0
M  V30 2993 H 296.621 -2.09677 -3.60682 0
M  V30 2994 H 295.251 -1.11167 -3.03054 0
M  V30 2995 H 294.303 -3.27204 -1.94014 0
M  V30 2996 H 295.615 -4.17442 -2.73027 0
M  V30 2997 H 294.769 -3.46853 -4.97773 0
M  V30 2998 H 293.508 -2.46372 -4.20894 0
M  V30 2999 H 292.513 -4.50889 -3.14609 0
M  V30 3000 H 293.738 -5.5262 -3.947 0
M  V30 3001 H 291.684 -3.7826 -5.35962 0
M  V30 3002 H 291.601 -5.50462 -5.18197 0
M  V30 3003 H 292.869 -4.80127 -6.14084 0
M  V30 3004 N 297.098 0.621204 -1.44841 0
M  V30 3005 C 298.509 1.20298 -1.42777 0
M  V30 3006 C 298.86 1.95639 -0.148259 0
M  V30 3007 O 297.985 2.02955 0.750892 0
M  V30 3008 C 298.58 2.1882 -2.58657 0
M  V30 3009 C 297.139 2.72403 -2.59756 0
M  V30 3010 C 296.286 1.4757 -2.34773 0
M  V30 3011 H 299.237 0.411297 -1.53278 0
M  V30 3012 H 299.258 3.01607 -2.31977 0
M  V30 3013 H 298.77 1.63957 -3.51766 0
M  V30 3014 H 296.871 3.31242 -1.70615 0
M  V30 3015 H 296.984 3.17765 -3.58556 0
M  V30 3016 H 295.348 1.76051 -1.8406 0
M  V30 3017 H 296.131 0.945954 -3.3001 0
M  V30 3018 N 298.576 1.31904 0.862503 0
M  V30 3019 C 299.804 1.24998 1.64873 0
M  V30 3020 C 300.219 -0.183425 1.87907 0
M  V30 3021 O 299.576 -1.11794 1.44251 0
M  V30 3022 C 299.627 1.99829 3.01248 0
M  V30 3023 O 299.348 3.37575 2.79239 0
M  V30 3024 C 300.849 1.99852 3.95694 0
M  V30 3025 H 298.069 0.431599 0.513773 0
M  V30 3026 H 300.613 1.73901 1.07604 0
M  V30 3027 H 298.768 1.54668 3.55185 0
M  V30 3028 H 299.182 3.75776 3.65914 0
M  V30 3029 H 300.656 2.56709 4.88676 0
M  V30 3030 H 301.133 0.982852 4.28062 0
M  V30 3031 H 301.739 2.44926 3.47694 0
M  V30 3032 N 300.054 -1.07777 1.14986 0
M  V30 3033 C 301.001 -2.14867 0.842672 0
M  V30 3034 C 301.971 -1.6486 -0.202552 0
M  V30 3035 O 303.156 -1.90668 -0.0710568 0
M  V30 3036 C 300.296 -3.43486 0.333363 0
M  V30 3037 C 299.409 -4.07306 1.43965 0
M  V30 3038 C 298.544 -5.23744 0.886914 0
M  V30 3039 C 297.583 -5.79517 1.97043 0
M  V30 3040 N 296.72 -6.87291 1.4344 0
M  V30 3041 H 301.56 -2.40485 1.75986 0
M  V30 3042 H 299.097 -1.1801 0.878179 0
M  V30 3043 H 301.055 -4.17195 0.0198163 0
M  V30 3044 H 299.685 -3.18133 -0.546916 0
M  V30 3045 H 298.737 -3.31293 1.86946 0
M  V30 3046 H 300.049 -4.44771 2.25788 0
M  V30 3047 H 299.203 -6.04419 0.525651 0
M  V30 3048 H 297.942 -4.87685 0.0377957 0
M  V30 3049 H 296.947 -4.97491 2.34057 0
M  V30 3050 H 298.172 -6.17632 2.82325 0
M  V30 3051 H 296.118 -6.5318 0.607567 0
M  V30 3052 H 296.035 -7.23617 2.18895 0
M  V30 3053 H 297.303 -7.71682 1.10124 0
M  V30 3054 N 301.532 -0.945985 -1.26051 0
M  V30 3055 C 302.495 -0.463897 -2.24456 0
M  V30 3056 C 303.495 0.427655 -1.55009 0
M  V30 3057 O 304.685 0.226157 -1.72726 0
M  V30 3058 C 301.817 0.330812 -3.39291 0
M  V30 3059 H 303.01 -1.33357 -2.68619 0
M  V30 3060 H 300.563 -0.728416 -1.38289 0
M  V30 3061 H 301.298 1.21852 -3.00537 0
M  V30 3062 H 301.083 -0.308679 -3.90883 0
M  V30 3063 H 302.573 0.657865 -4.12386 0
M  V30 3064 N 303.011 1.40521 -0.713556 0
M  V30 3065 C 304.259 2.00527 -0.251692 0
M  V30 3066 C 304.58 1.56857 1.15848 0
M  V30 3067 O 303.85 0.807127 1.785 0
M  V30 3068 H 302.43 0.741551 -0.0900646 0
M  V30 3069 H 305.092 1.71887 -0.918733 0
M  V30 3070 H 304.188 3.10813 -0.283192 0
M  V30 3071 N 304.489 0.459591 1.5075 0
M  V30 3072 C 305.436 -0.340524 2.28274 0
M  V30 3073 C 306.406 -0.997371 1.32822 0
M  V30 3074 O 307.591 -1.01202 1.61749 0
M  V30 3075 C 304.731 -1.42317 3.14388 0
M  V30 3076 C 303.844 -0.782251 4.24859 0
M  V30 3077 C 302.979 -1.84182 4.98247 0
M  V30 3078 C 302.018 -1.18053 6.00608 0
M  V30 3079 N 301.155 -2.18244 6.67319 0
M  V30 3080 H 305.995 0.326899 2.96202 0
M  V30 3081 H 303.532 0.173057 1.46078 0
M  V30 3082 H 305.49 -2.06241 3.62658 0
M  V30 3083 H 304.12 -2.05992 2.4853 0
M  V30 3084 H 303.172 -0.0307404 3.80388 0
M  V30 3085 H 304.484 -0.259663 4.98124 0
M  V30 3086 H 303.638 -2.55714 5.50177 0
M  V30 3087 H 302.377 -2.39819 4.24662 0
M  V30 3088 H 301.382 -0.450776 5.47949 0
M  V30 3089 H 302.607 -0.631202 6.7616 0
M  V30 3090 H 300.553 -2.72919 5.96533 0
M  V30 3091 H 300.47 -1.70938 7.36421 0
M  V30 3092 H 301.738 -2.89191 7.23871 0
M  V30 3093 N 305.967 -1.56429 0.191757 0
M  V30 3094 C 307.244 -1.89224 -0.495332 0
M  V30 3095 C 307.624 -1.10478 -1.79883 0
M  V30 3096 O 306.972 -0.204852 -2.2758 0
M  V30 3097 C 307.182 -3.41548 -0.717367 0
M  V30 3098 C 308.53 -4.11711 -1.03823 0
M  V30 3099 O 309.554 -3.4698 -0.805204 0
M  V30 3100 O 308.413 -5.2611 -1.47887 0
M  V30 3101 H 305.507 -0.785788 -0.25781 0
M  V30 3102 H 308.053 -1.68111 0.231721 0
M  V30 3103 H 306.825 -3.90772 0.203287 0
M  V30 3104 H 306.448 -3.68342 -1.497 0
M  V30 3105 N 307.445 0.0818655 -1.57387 0
M  V30 3106 C 308.392 1.09834 -2.0299 0
M  V30 3107 C 309.362 1.39043 -0.908639 0
M  V30 3108 O 310.547 1.50282 -1.17559 0
M  V30 3109 C 307.687 2.40971 -2.47037 0
M  V30 3110 C 306.8 2.18379 -3.7274 0
M  V30 3111 C 305.935 3.43008 -4.0561 0
M  V30 3112 C 304.974 3.15736 -5.24383 0
M  V30 3113 N 304.111 4.32667 -5.52941 0
M  V30 3114 H 308.951 0.702472 -2.89602 0
M  V30 3115 H 306.488 0.33531 -1.43227 0
M  V30 3116 H 308.446 3.1752 -2.70623 0
M  V30 3117 H 307.076 2.78379 -1.63417 0
M  V30 3118 H 306.128 1.32569 -3.56552 0
M  V30 3119 H 307.44 1.94227 -4.59431 0
M  V30 3120 H 306.594 4.27958 -4.30043 0
M  V30 3121 H 305.333 3.70225 -3.17466 0
M  V30 3122 H 304.338 2.2918 -4.99757 0
M  V30 3123 H 305.563 2.8985 -6.14136 0
M  V30 3124 H 303.509 4.59935 -4.67756 0
M  V30 3125 H 303.426 4.11753 -6.34031 0
M  V30 3126 H 304.694 5.18644 -5.81918 0
M  V30 3127 N 308.923 1.53595 0.353017 0
M  V30 3128 C 310.148 1.7462 1.11904 0
M  V30 3129 C 310.573 0.479721 1.8188 0
M  V30 3130 O 309.931 -0.567066 1.72204 0
M  V30 3131 C 309.979 2.92029 2.11545 0
M  V30 3132 O 309.083 2.61516 3.18878 0
M  V30 3133 H 308.424 0.579531 0.324099 0
M  V30 3134 H 310.954 2.00525 0.406301 0
M  V30 3135 H 310.964 3.18551 2.5493 0
M  V30 3136 H 309.639 3.83888 1.60008 0
M  V30 3137 H 308.216 2.45852 2.80377 0
M  V30 3138 N 310.401 -0.613514 1.45168 0
M  V30 3139 C 311.348 -1.72456 1.53387 0
M  V30 3140 C 312.318 -1.6169 0.380191 0
M  V30 3141 O 313.503 -1.81356 0.592836 0
M  V30 3142 C 310.643 -3.10753 1.50088 0
M  V30 3143 C 309.756 -3.32368 2.75963 0
M  V30 3144 C 308.891 -4.60737 2.64376 0
M  V30 3145 C 307.93 -4.7559 3.85332 0
M  V30 3146 N 307.067 -5.95253 3.72315 0
M  V30 3147 H 311.907 -1.64768 2.48305 0
M  V30 3148 H 309.444 -0.803503 1.23216 0
M  V30 3149 H 311.402 -3.90758 1.46164 0
M  V30 3150 H 310.032 -3.17413 0.587243 0
M  V30 3151 H 309.084 -2.4618 2.89999 0
M  V30 3152 H 310.396 -3.39218 3.65695 0
M  V30 3153 H 309.55 -5.48928 2.58385 0
M  V30 3154 H 308.289 -4.56275 1.72233 0
M  V30 3155 H 307.294 -3.85824 3.91688 0
M  V30 3156 H 308.519 -4.81854 4.78533 0
M  V30 3157 H 306.465 -5.91847 2.82937 0
M  V30 3158 H 306.382 -6.03236 4.55677 0
M  V30 3159 H 307.65 -6.85958 3.70246 0
M  V30 3160 N 311.879 -1.3236 -0.855495 0
M  V30 3161 C 312.842 -1.21164 -1.94556 0
M  V30 3162 C 313.842 -0.134908 -1.60233 0
M  V30 3163 O 315.032 -0.385249 -1.69887 0
M  V30 3164 C 312.164 -0.863192 -3.29791 0
M  V30 3165 H 313.357 -2.18038 -2.05911 0
M  V30 3166 H 310.91 -1.16179 -1.04557 0
M  V30 3167 H 311.645 0.103769 -3.24134 0
M  V30 3168 H 311.43 -1.64166 -3.56078 0
M  V30 3169 H 312.92 -0.809156 -4.09686 0
M  V30 3170 N 313.357 1.07166 -1.15556 0
M  V30 3171 C 314.582 1.84053 -0.955988 0
M  V30 3172 C 315.007 1.81586 0.490739 0
M  V30 3173 O 314.365 1.21018 1.34997 0
M  V30 3174 C 314.413 3.28957 -1.47714 0
M  V30 3175 O 313.517 4.06795 -0.677593 0
M  V30 3176 H 312.858 0.569842 -0.340847 0
M  V30 3177 H 315.388 1.35178 -1.53584 0
M  V30 3178 H 315.398 3.79788 -1.4908 0
M  V30 3179 H 314.073 3.30068 -2.53037 0
M  V30 3180 H 312.65 3.6561 -0.733721 0
M  V30 3181 N 314.835 0.952656 1.25548 0
M  V30 3182 C 315.765 0.489287 2.28316 0
M  V30 3183 C 316.746 -0.463359 1.63667 0
M  V30 3184 O 317.931 -0.36274 1.90782 0
M  V30 3185 C 315.061 -0.235603 3.465 0
M  V30 3186 C 314.015 0.631593 4.23314 0
M  V30 3187 C 313.341 -0.223923 5.34231 0
M  V30 3188 C 314.641 1.90871 4.86174 0
M  V30 3189 H 316.335 1.34822 2.67326 0
M  V30 3190 H 313.881 0.649728 1.28509 0
M  V30 3191 H 315.834 -0.570882 4.17515 0
M  V30 3192 H 314.558 -1.12877 3.06474 0
M  V30 3193 H 313.217 0.949929 3.54079 0
M  V30 3194 H 312.865 -1.11678 4.90446 0
M  V30 3195 H 312.565 0.35299 5.86539 0
M  V30 3196 H 314.089 -0.554214 6.0808 0
M  V30 3197 H 315.503 1.63997 5.49343 0
M  V30 3198 H 313.9 2.43112 5.4865 0
M  V30 3199 H 314.97 2.61304 4.08471 0
M  V30 3200 N 316.313 -1.40141 0.720998 0
M  V30 3201 C 317.223 -2.34486 0.0731031 0
M  V30 3202 C 318.239 -1.57587 -0.737723 0
M  V30 3203 O 319.415 -1.89949 -0.669429 0
M  V30 3204 C 316.48 -3.36528 -0.833656 0
M  V30 3205 C 315.541 -4.29298 -0.0121673 0
M  V30 3206 C 314.774 -5.26466 -0.875742 0
M  V30 3207 O 314.997 -5.29745 -2.11485 0
M  V30 3208 O 313.931 -6.01092 -0.31185 0
M  V30 3209 H 317.757 -2.9152 0.851444 0
M  V30 3210 H 315.342 -1.41427 0.481527 0
M  V30 3211 H 317.224 -3.99093 -1.35289 0
M  V30 3212 H 315.899 -2.81899 -1.59105 0
M  V30 3213 H 314.806 -3.70001 0.552262 0
M  V30 3214 H 316.139 -4.87094 0.707129 0
M  V30 3215 N 317.792 -0.46758 -1.50504 0
M  V30 3216 C 318.739 0.328413 -2.28452 0
M  V30 3217 C 319.709 0.990313 -1.33349 0
M  V30 3218 O 320.894 1.00343 -1.62284 0
M  V30 3219 C 318.034 1.40648 -3.15138 0
M  V30 3220 C 317.147 0.759709 -4.25267 0
M  V30 3221 C 316.282 1.81537 -4.99217 0
M  V30 3222 C 315.321 1.14866 -6.01226 0
M  V30 3223 N 314.458 2.14702 -6.68467 0
M  V30 3224 H 319.298 -0.342603 -2.96024 0
M  V30 3225 H 316.835 -0.180801 -1.45985 0
M  V30 3226 H 318.793 2.04315 -3.63746 0
M  V30 3227 H 317.423 2.04671 -2.49619 0
M  V30 3228 H 316.475 0.0105671 -3.80399 0
M  V30 3229 H 317.787 0.233243 -4.98254 0
M  V30 3230 H 316.941 2.52793 -5.51526 0
M  V30 3231 H 315.68 2.37564 -4.25928 0
M  V30 3232 H 314.685 0.42171 -5.4818 0
M  V30 3233 H 315.91 0.595334 -6.76485 0
M  V30 3234 H 313.856 2.69752 -5.97972 0
M  V30 3235 H 313.773 1.6703 -7.37317 0
M  V30 3236 H 315.041 2.85348 -7.25394 0
M  V30 3237 N 319.27 1.56325 -0.20005 0
M  V30 3238 C 320.233 2.18084 0.705132 0
M  V30 3239 C 321.233 1.13666 1.1374 0
M  V30 3240 O 322.423 1.39023 1.04968 0
M  V30 3241 C 319.555 2.78689 1.96329 0
M  V30 3242 H 320.748 2.99435 0.167023 0
M  V30 3243 H 318.301 1.56221 0.0495725 0
M  V30 3244 H 319.036 2.0115 2.5438 0
M  V30 3245 H 318.821 3.55133 1.66202 0
M  V30 3246 H 320.311 3.26096 2.60866 0
M  V30 3247 N 320.748 -0.0735177 1.57428 0
M  V30 3248 C 321.996 -0.771472 1.86796 0
M  V30 3249 C 322.317 -1.78201 0.791804 0
M  V30 3250 O 321.587 -1.95074 -0.179718 0
M  V30 3251 H 320.167 -0.28791 0.689287 0
M  V30 3252 H 322.829 -0.0500161 1.94836 0
M  V30 3253 H 321.925 -1.28874 2.8425 0
M  V30 3254 N 322.226 -1.5378 -0.344866 0
M  V30 3255 C 323.173 -1.81676 -1.42346 0
M  V30 3256 C 324.143 -0.662376 -1.52321 0
M  V30 3257 O 325.328 -0.906675 -1.67881 0
M  V30 3258 C 322.468 -2.03087 -2.79015 0
M  V30 3259 C 321.581 -3.30799 -2.77842 0
M  V30 3260 C 320.716 -3.42285 -4.0622 0
M  V30 3261 C 319.755 -4.6395 -3.9927 0
M  V30 3262 N 318.892 -4.72477 -5.19336 0
M  V30 3263 H 323.732 -2.73703 -1.17858 0
M  V30 3264 H 321.269 -1.35568 -0.570949 0
M  V30 3265 H 323.227 -2.1349 -3.58438 0
M  V30 3266 H 321.857 -1.14375 -3.01858 0
M  V30 3267 H 320.909 -3.29244 -1.90533 0
M  V30 3268 H 322.221 -4.20314 -2.68584 0
M  V30 3269 H 321.375 -3.52113 -4.94066 0
M  V30 3270 H 320.114 -2.50823 -4.18258 0
M  V30 3271 H 319.119 -4.54201 -3.09809 0
M  V30 3272 H 320.344 -5.56775 -3.88817 0
M  V30 3273 H 318.29 -3.83924 -5.3192 0
M  V30 3274 H 318.207 -5.55927 -5.12329 0
M  V30 3275 H 319.475 -4.86613 -6.08957 0
M  V30 3276 N 323.704 0.605807 -1.45491 0
M  V30 3277 C 324.929 1.39625 -1.53361 0
M  V30 3278 C 325.354 1.87351 -0.167645 0
M  V30 3279 O 324.712 1.60243 0.848051 0
M  V30 3280 C 324.76 2.57559 -2.5238 0
M  V30 3281 O 323.864 3.58248 -2.04285 0
M  V30 3282 H 323.205 0.416771 -0.516912 0
M  V30 3283 H 325.735 0.737103 -1.90861 0
M  V30 3284 H 325.745 3.0478 -2.71244 0
M  V30 3285 H 324.42 2.22171 -3.51586 0
M  V30 3286 H 322.997 3.17664 -1.95305 0
M  V30 3287 N 325.182 1.32811 0.848464 0
M  V30 3288 C 326.43 1.23479 1.59991 0
M  V30 3289 C 326.751 -0.201853 1.93952 0
M  V30 3290 O 326.021 -1.12818 1.60153 0
M  V30 3291 H 324.601 0.454034 0.593179 0
M  V30 3292 H 327.263 1.66412 1.01455 0
M  V30 3293 H 326.359 1.82178 2.53412 0
M  V30 3294 N 326.66 -1.06551 1.16123 0
M  V30 3295 C 327.906 -1.79567 0.94252 0
M  V30 3296 C 328.239 -1.86869 -0.528547 0
M  V30 3297 O 327.514 -1.35838 -1.39206 0
M  V30 3298 C 327.797 -3.24195 1.56747 0
M  V30 3299 C 327.65 -3.24989 3.10969 0
M  V30 3300 C 328.969 -4.21678 1.25998 0
M  V30 3301 H 326.088 -0.651883 0.343828 0
M  V30 3302 H 328.73 -1.2463 1.43413 0
M  V30 3303 H 326.88 -3.71107 1.14942 0
M  V30 3304 H 328.552 -2.86258 3.61737 0
M  V30 3305 H 326.795 -2.63716 3.44436 0
M  V30 3306 H 327.466 -4.27005 3.49815 0
M  V30 3307 H 329.942 -3.83196 1.62174 0
M  V30 3308 H 328.818 -5.21146 1.7233 0
M  V30 3309 H 329.079 -4.4174 0.178367 0
M  V30 3310 N 328.138 -0.959301 -1.25041 0
M  V30 3311 C 329.085 -0.482057 -2.2571 0
M  V30 3312 C 330.055 0.467939 -1.59372 0
M  V30 3313 O 331.24 0.380159 -1.86974 0
M  V30 3314 C 328.38 0.229623 -3.44335 0
M  V30 3315 C 327.493 -0.758156 -4.25295 0
M  V30 3316 C 326.628 -0.0234403 -5.31195 0
M  V30 3317 C 325.667 -1.00184 -6.03846 0
M  V30 3318 N 324.804 -0.29769 -7.01469 0
M  V30 3319 H 329.644 -1.34538 -2.65901 0
M  V30 3320 H 327.181 -0.674592 -1.3072 0
M  V30 3321 H 329.139 0.658856 -4.11965 0
M  V30 3322 H 327.769 1.05696 -3.05005 0
M  V30 3323 H 326.821 -1.30586 -3.57284 0
M  V30 3324 H 328.133 -1.50458 -4.75567 0
M  V30 3325 H 327.287 0.464201 -6.04922 0
M  V30 3326 H 326.026 0.755741 -4.81809 0
M  V30 3327 H 325.031 -1.50044 -5.2893 0
M  V30 3328 H 326.256 -1.78133 -6.55321 0
M  V30 3329 H 324.202 0.462668 -6.54366 0
M  V30 3330 H 324.119 -0.983128 -7.4958 0
M  V30 3331 H 325.387 0.16826 -7.79318 0
M  V30 3332 N 329.616 1.39756 -0.72842 0
M  V30 3333 C 330.563 2.30647 -0.0841519 0
M  V30 3334 C 331.533 1.48869 0.7367 0
M  V30 3335 O 332.718 1.77574 0.698015 0
M  V30 3336 C 329.858 3.35165 0.822091 0
M  V30 3337 C 328.971 4.31999 -0.0106663 0
M  V30 3338 C 328.106 5.23585 0.896241 0
M  V30 3339 C 327.145 6.12072 0.0583381 0
M  V30 3340 N 326.282 6.96035 0.920818 0
M  V30 3341 H 331.122 2.85173 -0.864891 0
M  V30 3342 H 328.659 1.40422 -0.438179 0
M  V30 3343 H 330.617 3.94345 1.36189 0
M  V30 3344 H 329.247 2.8211 1.56888 0
M  V30 3345 H 328.299 3.74492 -0.66781 0
M  V30 3346 H 329.611 4.9443 -0.658825 0
M  V30 3347 H 328.765 5.87759 1.50412 0
M  V30 3348 H 327.504 4.61459 1.57819 0
M  V30 3349 H 326.509 5.46916 -0.562389 0
M  V30 3350 H 327.734 6.76261 -0.6203 0
M  V30 3351 H 325.68 6.36485 1.58818 0
M  V30 3352 H 325.597 7.55284 0.32899 0
M  V30 3353 H 326.865 7.64646 1.51447 0
M  V30 3354 N 331.094 0.475555 1.50254 0
M  V30 3355 C 332.371 -0.139685 1.95101 0
M  V30 3356 C 332.751 -1.56555 1.41611 0
M  V30 3357 O 332.099 -2.19956 0.618993 0
M  V30 3358 C 332.309 -0.0784298 3.48912 0
M  V30 3359 C 333.657 -0.265095 4.23772 0
M  V30 3360 O 334.681 -0.154808 3.55863 0
M  V30 3361 O 333.54 -0.488327 5.44314 0
M  V30 3362 H 330.634 -0.109236 0.819754 0
M  V30 3363 H 333.18 0.536276 1.61004 0
M  V30 3364 H 331.952 0.916918 3.80405 0
M  V30 3365 H 331.575 -0.795655 3.89558 0
M  V30 3366 N 332.573 -1.56217 0.208337 0
M  V30 3367 C 333.503 -2.22694 -0.702116 0
M  V30 3368 C 334.484 -1.19432 -1.2112 0
M  V30 3369 O 335.669 -1.47978 -1.25762 0
M  V30 3370 C 332.799 -2.8966 -1.9161 0
M  V30 3371 C 331.753 -3.9928 -1.5414 0
M  V30 3372 C 331.079 -4.53476 -2.83308 0
M  V30 3373 C 332.379 -5.17012 -0.741339 0
M  V30 3374 H 334.073 -2.99034 -0.147898 0
M  V30 3375 H 331.619 -1.43831 -0.0696951 0
M  V30 3376 H 333.572 -3.34852 -2.55836 0
M  V30 3377 H 332.296 -2.10746 -2.49507 0
M  V30 3378 H 330.955 -3.54799 -0.922668 0
M  V30 3379 H 330.603 -3.71308 -3.39322 0
M  V30 3380 H 330.303 -5.27451 -2.58976 0
M  V30 3381 H 331.827 -5.01378 -3.485 0
M  V30 3382 H 333.241 -5.58667 -1.28699 0
M  V30 3383 H 331.638 -5.97137 -0.595627 0
M  V30 3384 H 332.708 -4.8423 0.254851 0
M  V30 3385 N 334.051 0.0651679 -1.57465 0
M  V30 3386 C 335.001 1.0838 -2.00594 0
M  V30 3387 C 335.985 1.34106 -0.889071 0
M  V30 3388 O 337.177 1.34295 -1.15299 0
M  V30 3389 C 334.306 2.39565 -2.45894 0
M  V30 3390 C 333.392 2.17085 -3.64328 0
M  V30 3391 N 333.783 1.64553 -4.78285 0
M  V30 3392 C 332.081 2.4753 -3.71006 0
M  V30 3393 C 332.782 1.57042 -5.60101 0
M  V30 3394 N 331.758 2.03328 -5.04141 0
M  V30 3395 H 335.56 0.671062 -2.86136 0
M  V30 3396 H 333.074 0.27213 -1.60104 0
M  V30 3397 H 335.071 3.13308 -2.75034 0
M  V30 3398 H 333.731 2.81549 -1.61741 0
M  V30 3399 H 334.742 1.33323 -5.00445 0
M  V30 3400 H 331.419 2.92835 -2.9758 0
M  V30 3401 H 332.809 1.17223 -6.61595 0
M  V30 3402 N 335.529 1.53961 0.336706 0
M  V30 3403 C 336.806 1.62171 1.09361 0
M  V30 3404 C 337.186 0.447263 2.06307 0
M  V30 3405 O 336.534 -0.559802 2.21537 0
M  V30 3406 C 336.744 2.98565 1.80721 0
M  V30 3407 C 338.092 3.54157 2.34218 0
M  V30 3408 O 339.116 3.00784 1.90807 0
M  V30 3409 O 337.975 4.47528 3.13657 0
M  V30 3410 H 335.069 0.6562 0.503319 0
M  V30 3411 H 337.615 1.66307 0.33765 0
M  V30 3412 H 336.387 3.75482 1.10132 0
M  V30 3413 H 336.01 2.9805 2.63158 0
M  V30 3414 N 337.007 -0.598083 1.45811 0
M  V30 3415 C 337.97 -1.69018 1.54808 0
M  V30 3416 C 338.97 -1.55037 0.426652 0
M  V30 3417 O 340.16 -1.59932 0.690456 0
M  V30 3418 C 337.292 -3.0835 1.45371 0
M  V30 3419 H 338.485 -1.62403 2.52121 0
M  V30 3420 H 336.038 -0.814626 1.33392 0
M  V30 3421 H 336.773 -3.20534 0.492793 0
M  V30 3422 H 336.558 -3.19907 2.26721 0
M  V30 3423 H 338.048 -3.8788 1.54721 0
M  V30 3424 N 338.485 -1.33259 -0.841409 0
M  V30 3425 C 339.433 -1.23279 -1.97244 0
M  V30 3426 C 340.427 -0.134706 -1.68864 0
M  V30 3427 O 341.633 -0.298501 -1.77508 0
M  V30 3428 H 338.008 -0.382497 -0.647457 0
M  V30 3429 H 339.979 -2.18906 -2.02787 0
M  V30 3430 C 338.728 -0.986268 -3.33419 0
M  V30 3431 H 338.051 -1.82347 -3.55794 0
M  V30 3432 H 339.491 -0.956728 -4.13065 0
M  V30 3433 C 337.95 0.310842 -3.35463 0
M  V30 3434 O 338.48 1.31838 -3.79449 0
M  V30 3435 N 336.686 0.337485 -2.88634 0
M  V30 3436 H 336.233 -0.482967 -2.53032 0
M  V30 3437 H 336.191 1.20518 -2.90384 0
M  V30 3438 N 339.963 1.05934 -1.16686 0
M  V30 3439 C 341.191 1.8249 -0.974929 0
M  V30 3440 C 341.606 1.82679 0.476861 0
M  V30 3441 O 340.963 1.2486 1.33103 0
M  V30 3442 C 341.014 3.28943 -1.49929 0
M  V30 3443 O 340.735 3.28886 -2.89423 0
M  V30 3444 C 342.236 4.22215 -1.35089 0
M  V30 3445 H 339.456 0.575295 -0.345365 0
M  V30 3446 H 342 1.33631 -1.548 0
M  V30 3447 H 340.155 3.751 -0.968423 0
M  V30 3448 H 340.569 4.20493 -3.13506 0
M  V30 3449 H 342.043 5.22987 -1.76603 0
M  V30 3450 H 342.52 4.38195 -0.296935 0
M  V30 3451 H 343.126 3.81907 -1.87155 0
M  V30 3452 N 341.441 0.965919 1.2453 0
M  V30 3453 C 342.718 0.543777 1.87889 0
M  V30 3454 C 343.098 -0.97909 1.87021 0
M  V30 3455 O 342.446 -1.84969 1.3416 0
M  V30 3456 C 342.656 1.13327 3.30088 0
M  V30 3457 C 344.004 1.21707 4.06783 0
M  V30 3458 O 345.028 1.08566 3.39252 0
M  V30 3459 O 343.887 1.42456 5.27606 0
M  V30 3460 H 340.981 0.181054 0.806938 0
M  V30 3461 H 343.527 1.06007 1.32516 0
M  V30 3462 H 342.299 2.17612 3.25209 0
M  V30 3463 H 341.922 0.600911 3.93033 0
M  V30 3464 N 342.919 -1.39368 0.735821 0
M  V30 3465 C 343.849 -2.33234 0.111506 0
M  V30 3466 C 344.83 -1.53954 -0.723334 0
M  V30 3467 O 346.015 -1.82344 -0.668147 0
M  V30 3468 C 343.145 -3.38057 -0.795917 0
M  V30 3469 C 342.099 -4.2795 -0.065172 0
M  V30 3470 C 341.425 -5.23479 -1.08967 0
M  V30 3471 C 342.725 -5.10741 1.09273 0
M  V30 3472 H 344.419 -2.85692 0.895571 0
M  V30 3473 H 341.965 -1.37364 0.432109 0
M  V30 3474 H 343.918 -4.02675 -1.24221 0
M  V30 3475 H 342.642 -2.8404 -1.61211 0
M  V30 3476 H 341.301 -3.64813 0.361511 0
M  V30 3477 H 340.949 -4.65758 -1.89944 0
M  V30 3478 H 340.649 -5.84472 -0.605489 0
M  V30 3479 H 342.173 -5.90974 -1.53565 0
M  V30 3480 H 343.587 -5.68699 0.724841 0
M  V30 3481 H 341.984 -5.8088 1.50659 0
M  V30 3482 H 343.054 -4.45525 1.91404 0
M  V30 3483 N 344.397 -0.483516 -1.5 0
M  V30 3484 C 345.646 0.0689102 -2.01582 0
M  V30 3485 C 345.959 1.39655 -1.36952 0
M  V30 3486 O 347.165 2.03465 -1.79762 0
M  V30 3487 C 345.621 0.173302 -3.59483 0
M  V30 3488 C 345.229 -1.14665 -4.33077 0
M  V30 3489 C 346.973 0.677024 -4.19066 0
M  V30 3490 C 344.88 -1.00537 -5.82792 0
M  V30 3491 H 343.81 0.0295277 -0.753422 0
M  V30 3492 H 346.461 -0.620295 -1.72698 0
M  V30 3493 H 344.843 0.926569 -3.85007 0
M  V30 3494 H 346.017 -1.91184 -4.19268 0
M  V30 3495 H 344.332 -1.58244 -3.85159 0
M  V30 3496 H 346.929 0.799952 -5.28682 0
M  V30 3497 H 347.272 1.67151 -3.81269 0
M  V30 3498 H 347.805 -0.0192083 -3.97795 0
M  V30 3499 H 344.544 -1.9736 -6.25083 0
M  V30 3500 H 344.064 -0.280776 -5.99142 0
M  V30 3501 H 345.743 -0.677 -6.43448 0
M  V30 3502 N 345.875 1.56104 -0.216619 0
M  V30 3503 C 347.123 1.97781 0.415593 0
M  V30 3504 C 347.444 1.10536 1.60645 0
M  V30 3505 O 346.714 0.181303 1.95059 0
M  V30 3506 H 345.294 0.730415 0.156534 0
M  V30 3507 H 347.956 1.92445 -0.308366 0
M  V30 3508 H 347.052 3.03072 0.74525 0
M  V30 3509 N 347.353 -0.0568162 1.57498 0
M  V30 3510 C 348.769 -0.411933 1.54192 0
M  V30 3511 C 348.969 -1.78287 0.938942 0
M  V30 3512 O 348.025 -2.46483 0.547919 0
M  V30 3513 C 349.338 -0.339244 2.9878 0
M  V30 3514 C 350.886 -0.418348 3.10192 0
M  V30 3515 C 351.361 -0.375407 4.56459 0
M  V30 3516 N 352.852 -0.435038 4.61153 0
M  V30 3517 C 353.587 -0.424265 5.71828 0
M  V30 3518 N 353.083 -0.367418 6.91825 0
M  V30 3519 N 354.876 -0.471938 5.60115 0
M  V30 3520 H 347.027 0.840684 1.95055 0
M  V30 3521 H 349.29 0.316987 0.893433 0
M  V30 3522 H 348.996 0.601742 3.46514 0
M  V30 3523 H 348.87 -1.14371 3.59443 0
M  V30 3524 H 351.257 -1.34976 2.62422 0
M  V30 3525 H 351.338 0.414962 2.52412 0
M  V30 3526 H 350.982 0.552219 5.04889 0
M  V30 3527 H 350.912 -1.22645 5.12119 0
M  V30 3528 H 353.403 -0.482612 3.74806 0
M  V30 3529 H 353.716 -0.363535 7.71944 0
M  V30 3530 H 352.061 -0.333879 6.94198 0
M  V30 3531 H 355.252 -0.514145 4.65268 0
M  V30 3532 H 355.425 -0.460073 6.46365 0
M  V30 3533 N 348.832 -1.54138 -0.328536 0
M  V30 3534 C 349.782 -1.79557 -1.4051 0
M  V30 3535 C 350.766 -0.651373 -1.47126 0
M  V30 3536 O 351.958 -0.911226 -1.51742 0
M  V30 3537 C 349.087 -2.02196 -2.77438 0
M  V30 3538 C 348.173 -3.22724 -2.75155 0
M  V30 3539 N 348.564 -4.43881 -2.42494 0
M  V30 3540 C 346.862 -3.24196 -3.06289 0
M  V30 3541 C 347.563 -5.25797 -2.48822 0
M  V30 3542 N 346.539 -4.62862 -2.8506 0
M  V30 3543 H 350.341 -2.70814 -1.1418 0
M  V30 3544 H 347.855 -1.53265 -0.536991 0
M  V30 3545 H 349.852 -2.18546 -3.55026 0
M  V30 3546 H 348.512 -1.12191 -3.04702 0
M  V30 3547 H 349.523 -4.70969 -2.15428 0
M  V30 3548 H 346.2 -2.44208 -3.38627 0
M  V30 3549 H 347.59 -6.32535 -2.26603 0
M  V30 3550 N 350.31 0.590341 -1.46126 0
M  V30 3551 C 351.721 1.17243 -1.45296 0
M  V30 3552 C 352.072 1.95281 -0.189723 0
M  V30 3553 O 351.197 2.04502 0.707674 0
M  V30 3554 C 351.792 2.13284 -2.6324 0
M  V30 3555 C 350.351 2.66832 -2.65476 0
M  V30 3556 C 349.498 1.42557 -2.3785 0
M  V30 3557 H 352.449 0.378692 -1.54116 0
M  V30 3558 H 352.47 2.96619 -2.38323 0
M  V30 3559 H 351.982 1.56459 -3.55165 0
M  V30 3560 H 350.083 3.27548 -1.77603 0
M  V30 3561 H 350.196 3.10088 -3.65215 0
M  V30 3562 H 348.56 1.72107 -1.87753 0
M  V30 3563 H 349.343 0.875741 -3.31942 0
M  V30 3564 N 351.788 1.33704 0.83433 0
M  V30 3565 C 352.735 1.24335 1.94447 0
M  V30 3566 C 353.705 0.120991 1.65659 0
M  V30 3567 O 354.89 0.300035 1.88426 0
M  V30 3568 C 352.03 0.993124 3.30501 0
M  V30 3569 C 351.143 2.20217 3.71657 0
M  V30 3570 C 350.278 1.88572 4.96602 0
M  V30 3571 C 349.317 3.05683 5.30306 0
M  V30 3572 N 348.454 2.73997 6.46429 0
M  V30 3573 H 353.294 2.1928 2.01792 0
M  V30 3574 H 350.831 1.09035 0.987404 0
M  V30 3575 H 352.789 0.828467 4.08892 0
M  V30 3576 H 351.419 0.0803902 3.227 0
M  V30 3577 H 350.471 2.47642 2.88752 0
M  V30 3578 H 351.783 3.07752 3.92543 0
M  V30 3579 H 350.937 1.68776 5.82752 0
M  V30 3580 H 349.676 0.982799 4.77695 0
M  V30 3581 H 348.681 3.26088 4.42659 0
M  V30 3582 H 349.906 3.96737 5.51159 0
M  V30 3583 H 347.852 1.86268 6.28999 0
M  V30 3584 H 347.769 3.55064 6.67432 0
M  V30 3585 H 349.037 2.57679 7.35678 0
M  V30 3586 N 353.266 -1.05314 1.17247 0
M  V30 3587 C 354.198 -2.13023 0.845812 0
M  V30 3588 C 355.211 -1.62096 -0.151246 0
M  V30 3589 O 356.4 -1.78343 0.0748818 0
M  V30 3590 C 353.5 -3.38047 0.240292 0
M  V30 3591 C 352.673 -4.18255 1.27991 0
M  V30 3592 C 351.732 -5.21625 0.692375 0
M  V30 3593 O 350.758 -5.52619 1.36385 0
M  V30 3594 N 351.96 -5.78201 -0.516178 0
M  V30 3595 H 354.725 -2.41642 1.77283 0
M  V30 3596 H 352.286 -1.21401 1.07115 0
M  V30 3597 H 354.278 -4.04359 -0.16603 0
M  V30 3598 H 352.848 -3.06972 -0.590487 0
M  V30 3599 H 352.068 -3.47451 1.86203 0
M  V30 3600 H 353.356 -4.68643 1.98119 0
M  V30 3601 H 352.754 -5.55301 -1.07969 0
M  V30 3602 H 351.311 -6.4604 -0.86458 0
M  V30 3603 N 354.744 -0.972509 -1.24016 0
M  V30 3604 C 355.654 -0.5143 -2.28893 0
M  V30 3605 C 356.67 0.427078 -1.68677 0
M  V30 3606 O 357.846 0.298939 -1.99169 0
M  V30 3607 C 354.911 0.183598 -3.46214 0
M  V30 3608 C 353.972 -0.798202 -4.21814 0
M  V30 3609 C 353.205 -0.133514 -5.33533 0
M  V30 3610 O 353.428 1.07714 -5.60137 0
M  V30 3611 O 352.362 -0.828103 -5.96176 0
M  V30 3612 H 356.188 -1.38629 -2.70214 0
M  V30 3613 H 353.773 -0.739769 -1.29799 0
M  V30 3614 H 355.655 0.575433 -4.17453 0
M  V30 3615 H 354.33 1.03048 -3.0686 0
M  V30 3616 H 353.237 -1.24059 -3.52931 0
M  V30 3617 H 354.57 -1.61364 -4.64997 0
M  V30 3618 N 356.222 1.38976 -0.743202 0
M  V30 3619 C 357.169 2.30544 -0.10861 0
M  V30 3620 C 358.139 1.49642 0.720869 0
M  V30 3621 O 359.324 1.78304 0.679142 0
M  V30 3622 C 356.464 3.36018 0.786496 0
M  V30 3623 C 355.577 4.31963 -0.0564849 0
M  V30 3624 C 354.712 5.24506 0.840657 0
M  V30 3625 C 353.751 6.121 -0.00658363 0
M  V30 3626 N 352.888 6.96973 0.846943 0
M  V30 3627 H 357.728 2.8424 -0.895088 0
M  V30 3628 H 355.265 1.3995 -0.453048 0
M  V30 3629 H 357.223 3.95768 1.31999 0
M  V30 3630 H 355.853 2.83758 1.53887 0
M  V30 3631 H 354.905 3.73763 -0.707492 0
M  V30 3632 H 356.217 4.93703 -0.711229 0
M  V30 3633 H 355.371 5.89322 1.4417 0
M  V30 3634 H 354.11 4.63107 1.52916 0
M  V30 3635 H 353.115 5.46289 -0.620366 0
M  V30 3636 H 354.34 6.75565 -0.691992 0
M  V30 3637 H 352.286 6.38133 1.52059 0
M  V30 3638 H 352.203 7.5559 0.248864 0
M  V30 3639 H 353.471 7.6621 1.43328 0
M  V30 3640 N 357.7 0.491464 1.49741 0
M  V30 3641 C 359.116 0.146835 1.58923 0
M  V30 3642 C 359.316 -1.34804 1.49767 0
M  V30 3643 O 358.372 -2.12317 1.36667 0
M  V30 3644 C 359.685 0.715157 2.92072 0
M  V30 3645 C 361.233 0.680407 3.05515 0
M  V30 3646 C 361.708 1.22663 4.41269 0
M  V30 3647 N 363.199 1.18691 4.47735 0
M  V30 3648 C 363.934 1.57984 5.51207 0
M  V30 3649 N 363.43 2.04824 6.6183 0
M  V30 3650 N 365.223 1.49459 5.41866 0
M  V30 3651 H 357.374 1.46347 1.53936 0
M  V30 3652 H 359.637 0.606453 0.728642 0
M  V30 3653 H 359.343 1.76317 3.04311 0
M  V30 3654 H 359.217 0.17018 3.76816 0
M  V30 3655 H 361.604 -0.358743 2.92911 0
M  V30 3656 H 361.685 1.26242 2.22478 0
M  V30 3657 H 361.329 2.26451 4.54623 0
M  V30 3658 H 361.259 0.620637 5.2293 0
M  V30 3659 H 363.75 0.843605 3.68364 0
M  V30 3660 H 364.063 2.32901 7.3687 0
M  V30 3661 H 362.408 2.08791 6.62896 0
M  V30 3662 H 365.599 1.12692 4.54333 0
M  V30 3663 H 365.772 1.80406 6.22381 0
M  V30 3664 N 359.178 -1.55987 0.224894 0
M  V30 3665 C 360.403 -2.03232 -0.41369 0
M  V30 3666 C 360.828 -1.10359 -1.52323 0
M  V30 3667 O 360.186 -0.092395 -1.81064 0
M  V30 3668 C 360.234 -3.48682 -0.919405 0
M  V30 3669 O 359.338 -3.58947 -2.03054 0
M  V30 3670 H 358.679 -0.657428 -0.0931903 0
M  V30 3671 H 361.209 -2.01679 0.34451 0
M  V30 3672 H 361.219 -3.8907 -1.22835 0
M  V30 3673 H 359.894 -4.15761 -0.107339 0
M  V30 3674 H 358.471 -3.30448 -1.72796 0
M  V30 3675 N 360.656 0.0484629 -1.57525 0
M  V30 3676 C 361.902 0.744226 -1.88651 0
M  V30 3677 C 362.235 1.76029 -0.820212 0
M  V30 3678 O 361.51 1.93782 0.166985 0
M  V30 3679 C 361.793 1.43128 -3.30434 0
M  V30 3680 C 361.646 0.43005 -4.47739 0
M  V30 3681 C 362.965 2.37031 -3.70816 0
M  V30 3682 H 360.084 0.269089 -0.68612 0
M  V30 3683 H 362.726 0.00713532 -1.89999 0
M  V30 3684 H 360.876 2.05956 -3.29415 0
M  V30 3685 H 362.548 -0.194816 -4.60888 0
M  V30 3686 H 360.791 -0.252522 -4.33064 0
M  V30 3687 H 361.462 0.948874 -5.43783 0
M  V30 3688 H 363.938 1.84263 -3.73077 0
M  V30 3689 H 362.814 2.82094 -4.70865 0
M  V30 3690 H 363.075 3.22864 -3.02012 0
M  V30 3691 N 362.134 1.5431 0.320358 0
M  V30 3692 C 363.381 1.72668 1.05792 0
M  V30 3693 C 363.709 0.502084 1.87908 0
M  V30 3694 O 362.964 -0.516149 1.88771 0
M  V30 3695 C 363.263 2.95639 2.00828 0
M  V30 3696 C 362.929 4.30265 1.34843 0
M  V30 3697 C 361.591 4.66865 1.16578 0
M  V30 3698 C 363.943 5.13801 0.875095 0
M  V30 3699 C 361.271 5.84597 0.496336 0
M  V30 3700 C 363.623 6.32219 0.219463 0
M  V30 3701 C 362.287 6.67495 0.0246915 0
M  V30 3702 H 361.557 0.631837 0.387121 0
M  V30 3703 H 364.204 1.88552 0.334735 0
M  V30 3704 H 362.509 2.74456 2.79609 0
M  V30 3705 H 364.206 3.07038 2.57932 0
M  V30 3706 H 360.796 4.01472 1.50061 0
M  V30 3707 H 364.98 4.86039 1.00398 0
M  V30 3708 H 360.236 6.10486 0.334264 0
M  V30 3709 H 364.41 6.96227 -0.155291 0
M  V30 3710 H 362.037 7.5858 -0.496065 0
M  V30 3711 N 363.613 -0.582584 1.46437 0
M  V30 3712 C 364.545 -1.70618 1.53043 0
M  V30 3713 C 365.558 -1.57322 0.418769 0
M  V30 3714 O 366.747 -1.64744 0.687136 0
M  V30 3715 C 363.847 -3.08869 1.39474 0
M  V30 3716 C 363.02 -3.48166 2.64762 0
M  V30 3717 C 362.079 -4.65478 2.4539 0
M  V30 3718 O 361.105 -4.71333 3.19114 0
M  V30 3719 N 362.307 -5.60365 1.51564 0
M  V30 3720 H 365.072 -1.65405 2.49923 0
M  V30 3721 H 362.633 -0.768567 1.42494 0
M  V30 3722 H 364.625 -3.85143 1.24287 0
M  V30 3723 H 363.195 -3.08449 0.507758 0
M  V30 3724 H 362.415 -2.61598 2.9489 0
M  V30 3725 H 363.703 -3.71188 3.4799 0
M  V30 3726 H 363.101 -5.5837 0.907705 0
M  V30 3727 H 361.658 -6.36068 1.4234 0
M  V30 3728 N 365.091 -1.34144 -0.827227 0
M  V30 3729 C 366.319 -1.29325 -1.61501 0
M  V30 3730 C 366.734 0.13354 -1.88327 0
M  V30 3731 O 366.091 1.0793 -1.47164 0
M  V30 3732 C 366.142 -2.07746 -2.95844 0
M  V30 3733 O 365.863 -3.4486 -2.70191 0
M  V30 3734 C 367.364 -2.10273 -3.90256 0
M  V30 3735 H 364.584 -0.445069 -0.50215 0
M  V30 3736 H 367.128 -1.76693 -1.02955 0
M  V30 3737 H 365.283 -1.6403 -3.5096 0
M  V30 3738 H 365.697 -3.85345 -3.55822 0
M  V30 3739 H 367.171 -2.69575 -4.81698 0
M  V30 3740 H 367.648 -1.096 -4.25305 0
M  V30 3741 H 368.254 -2.54059 -3.41078 0
M  V30 3742 N 366.569 1.04691 -1.17803 0
M  V30 3743 C 367.818 1.77176 -0.963931 0
M  V30 3744 C 368.131 1.88888 0.508015 0
M  V30 3745 O 369.337 2.58164 0.840465 0
M  V30 3746 C 367.793 3.18518 -1.67555 0
M  V30 3747 C 367.401 3.14919 -3.18637 0
M  V30 3748 C 369.145 3.95424 -1.54402 0
M  V30 3749 C 367.052 4.51081 -3.82466 0
M  V30 3750 H 365.982 0.664116 -0.357023 0
M  V30 3751 H 368.633 1.17303 -1.4111 0
M  V30 3752 H 367.015 3.78748 -1.15613 0
M  V30 3753 H 368.189 2.64178 -3.77554 0
M  V30 3754 H 366.504 2.51512 -3.31859 0
M  V30 3755 H 369.101 4.96106 -1.99456 0
M  V30 3756 H 369.444 4.13343 -0.495329 0
M  V30 3757 H 369.977 3.41754 -2.0359 0
M  V30 3758 H 366.716 4.38368 -4.87354 0
M  V30 3759 H 366.236 5.01951 -3.28337 0
M  V30 3760 H 367.915 5.2001 -3.84965 0
M  V30 3761 N 368.047 0.979072 1.23499 0
M  V30 3762 C 368.995 0.510604 2.26926 0
M  V30 3763 C 369.989 -0.431691 1.63807 0
M  V30 3764 O 371.195 -0.30573 1.77385 0
M  V30 3765 H 367.57 0.146688 0.737554 0
M  V30 3766 H 369.541 1.39466 2.63803 0
M  V30 3767 C 368.29 -0.172658 3.47271 0
M  V30 3768 H 367.613 0.543331 3.96091 0
M  V30 3769 H 369.053 -0.464101 4.21452 0
M  V30 3770 C 367.512 -1.40345 3.06276 0
M  V30 3771 O 368.042 -2.49978 3.14442 0
M  V30 3772 N 366.248 -1.27362 2.61203 0
M  V30 3773 H 365.795 -0.381584 2.54758 0
M  V30 3774 H 365.753 -2.09822 2.34141 0
M  V30 3775 N 369.525 -1.3858 0.750561 0
M  V30 3776 C 370.457 -2.29057 0.0810714 0
M  V30 3777 C 371.47 -1.47596 -0.686973 0
M  V30 3778 O 372.659 -1.70495 -0.528563 0
M  V30 3779 C 369.759 -3.26475 -0.909247 0
M  V30 3780 C 368.932 -4.36945 -0.199478 0
M  V30 3781 C 367.991 -5.14572 -1.10011 0
M  V30 3782 O 367.017 -5.66321 -0.57177 0
M  V30 3783 N 368.219 -5.27262 -2.42849 0
M  V30 3784 H 370.984 -2.87153 0.858087 0
M  V30 3785 H 368.545 -1.50328 0.60109 0
M  V30 3786 H 370.537 -3.75285 -1.51471 0
M  V30 3787 H 369.107 -2.69298 -1.58736 0
M  V30 3788 H 368.327 -3.8981 0.586664 0
M  V30 3789 H 369.615 -5.07963 0.291783 0
M  V30 3790 H 369.013 -4.86763 -2.88233 0
M  V30 3791 H 367.57 -5.79456 -2.98453 0
M  V30 3792 N 371.003 -0.499398 -1.49478 0
M  V30 3793 C 372.25 0.0456899 -2.02448 0
M  V30 3794 C 372.578 1.37142 -1.37921 0
M  V30 3795 O 371.833 1.89111 -0.503544 0
M  V30 3796 C 372.132 0.248424 -3.56536 0
M  V30 3797 C 371.798 -0.999107 -4.39692 0
M  V30 3798 C 370.46 -1.34108 -4.62135 0
M  V30 3799 C 372.812 -1.82842 -4.88076 0
M  V30 3800 C 370.14 -2.51191 -5.30208 0
M  V30 3801 C 372.492 -2.99076 -5.57437 0
M  V30 3802 C 371.156 -3.33655 -5.78127 0
M  V30 3803 H 370.426 0.0167191 -0.740811 0
M  V30 3804 H 373.073 -0.65923 -1.79795 0
M  V30 3805 H 371.378 1.03586 -3.77859 0
M  V30 3806 H 373.075 0.684605 -3.95113 0
M  V30 3807 H 369.665 -0.722729 -4.22463 0
M  V30 3808 H 373.849 -1.57737 -4.70566 0
M  V30 3809 H 369.105 -2.78221 -5.44429 0
M  V30 3810 H 373.279 -3.63664 -5.93904 0
M  V30 3811 H 370.906 -4.24483 -6.30649 0
M  V30 3812 N 372.481 1.55866 -0.233164 0
M  V30 3813 C 373.411 2.23783 0.666599 0
M  V30 3814 C 374.392 1.21343 1.19205 0
M  V30 3815 O 375.577 1.4996 1.23392 0
M  V30 3816 C 372.707 2.92671 1.86978 0
M  V30 3817 C 371.661 4.01682 1.47768 0
M  V30 3818 C 370.987 4.57926 2.76058 0
M  V30 3819 C 372.287 5.18126 0.658993 0
M  V30 3820 H 373.981 2.99232 0.100306 0
M  V30 3821 H 371.527 1.43924 0.046804 0
M  V30 3822 H 373.48 3.3888 2.50476 0
M  V30 3823 H 372.204 2.14688 2.46123 0
M  V30 3824 H 370.863 3.56222 0.866106 0
M  V30 3825 H 370.511 3.76659 3.33372 0
M  V30 3826 H 370.211 5.31505 2.50552 0
M  V30 3827 H 371.735 5.06859 3.40479 0
M  V30 3828 H 373.149 5.60644 1.19795 0
M  V30 3829 H 371.546 5.98009 0.500552 0
M  V30 3830 H 372.616 4.83763 -0.331856 0
M  V30 3831 N 373.959 -0.0401083 1.57549 0
M  V30 3832 C 375.236 -0.767917 1.79896 0
M  V30 3833 C 375.616 -1.9416 0.82856 0
M  V30 3834 O 374.964 -2.2812 -0.131671 0
M  V30 3835 C 375.174 -1.2113 3.27305 0
M  V30 3836 C 376.522 -1.63175 3.91994 0
M  V30 3837 O 377.546 -1.30616 3.31388 0
M  V30 3838 O 376.405 -2.23565 4.98679 0
M  V30 3839 H 373.499 -0.370441 0.739393 0
M  V30 3840 H 376.045 -0.017737 1.69691 0
M  V30 3841 H 374.817 -0.372937 3.89519 0
M  V30 3842 H 374.44 -2.02183 3.42356 0
M  V30 3843 N 375.437 -1.54477 -0.31217 0
M  V30 3844 C 376.367 -1.87652 -1.38957 0
M  V30 3845 C 377.348 -0.734358 -1.53431 0
M  V30 3846 O 378.533 -0.98911 -1.67123 0
M  V30 3847 C 375.663 -2.11396 -2.75552 0
M  V30 3848 C 374.617 -3.27243 -2.75855 0
M  V30 3849 C 373.943 -3.36382 -4.15633 0
M  V30 3850 C 375.243 -4.64622 -2.38587 0
M  V30 3851 H 376.937 -2.77887 -1.11442 0
M  V30 3852 H 374.483 -1.33707 -0.534655 0
M  V30 3853 H 376.436 -2.33189 -3.51 0
M  V30 3854 H 375.16 -1.17921 -3.04569 0
M  V30 3855 H 373.819 -3.05356 -2.02863 0
M  V30 3856 H 373.467 -2.40445 -4.41809 0
M  V30 3857 H 373.167 -4.14249 -4.1674 0
M  V30 3858 H 374.691 -3.60422 -4.92877 0
M  V30 3859 H 376.105 -4.86219 -3.03749 0
M  V30 3860 H 374.502 -5.45121 -2.50925 0
M  V30 3861 H 375.572 -4.66097 -1.33723 0
M  V30 3862 N 376.915 0.57481 -1.46744 0
M  V30 3863 C 378.143 1.35856 -1.56047 0
M  V30 3864 C 378.558 1.87691 -0.204365 0
M  V30 3865 O 377.915 1.64049 0.79963 0
M  V30 3866 C 377.966 2.54066 -2.57163 0
M  V30 3867 O 377.687 2.04377 -3.87507 0
M  V30 3868 C 379.188 3.46514 -2.76483 0
M  V30 3869 H 376.408 0.414754 -0.527466 0
M  V30 3870 H 378.952 0.698035 -1.92218 0
M  V30 3871 H 377.107 3.16092 -2.23974 0
M  V30 3872 H 377.521 2.81419 -4.4261 0
M  V30 3873 H 378.995 4.25919 -3.51137 0
M  V30 3874 H 379.472 3.98951 -1.83671 0
M  V30 3875 H 380.078 2.90318 -3.10799 0
M  V30 3876 N 378.394 1.34581 0.820102 0
M  V30 3877 C 379.324 1.29038 1.94606 0
M  V30 3878 C 380.305 0.1673 1.69275 0
M  V30 3879 O 381.49 0.360112 1.90832 0
M  V30 3880 C 378.62 1.04793 3.31113 0
M  V30 3881 C 377.574 2.13597 3.70891 0
M  V30 3882 C 376.9 1.74537 5.05412 0
M  V30 3883 C 378.2 3.55451 3.8269 0
M  V30 3884 H 379.894 2.23248 1.99501 0
M  V30 3885 H 377.44 1.0747 0.958449 0
M  V30 3886 H 379.393 0.995592 4.0947 0
M  V30 3887 H 378.117 0.0702565 3.26524 0
M  V30 3888 H 376.776 2.17905 2.9481 0
M  V30 3889 H 376.424 0.754226 4.97313 0
M  V30 3890 H 376.124 2.47361 5.32997 0
M  V30 3891 H 377.648 1.70803 5.86224 0
M  V30 3892 H 379.062 3.5354 4.51312 0
M  V30 3893 H 377.459 4.26922 4.21732 0
M  V30 3894 H 378.529 3.92587 2.84611 0
M  V30 3895 N 379.872 -1.04064 1.18357 0
M  V30 3896 C 381.119 -1.77265 0.978947 0
M  V30 3897 C 381.447 -1.88189 -0.491428 0
M  V30 3898 O 380.702 -1.38653 -1.38108 0
M  V30 3899 C 381.001 -3.20634 1.57888 0
M  V30 3900 C 380.667 -3.29743 3.07539 0
M  V30 3901 C 379.329 -3.31937 3.48384 0
M  V30 3902 C 381.681 -3.29841 4.03552 0
M  V30 3903 C 379.009 -3.3187 4.83818 0
M  V30 3904 C 381.361 -3.31313 5.38901 0
M  V30 3905 C 380.025 -3.31799 5.79194 0
M  V30 3906 H 379.295 -0.648659 0.358222 0
M  V30 3907 H 381.942 -1.22225 1.47422 0
M  V30 3908 H 380.247 -3.78675 1.00561 0
M  V30 3909 H 381.944 -3.75917 1.39598 0
M  V30 3910 H 378.534 -3.28757 2.74986 0
M  V30 3911 H 382.718 -3.27337 3.73047 0
M  V30 3912 H 377.974 -3.30562 5.14333 0
M  V30 3913 H 382.148 -3.30338 6.13066 0
M  V30 3914 H 379.775 -3.315 6.84114 0
M  V30 3915 N 381.35 -0.985608 -1.22978 0
M  V30 3916 C 382.578 -0.675582 -1.95559 0
M  V30 3917 C 382.993 0.758413 -1.72897 0
M  V30 3918 O 382.35 1.51094 -1.02357 0
M  V30 3919 C 382.401 -0.96293 -3.48439 0
M  V30 3920 O 382.122 -2.34057 -3.70336 0
M  V30 3921 C 383.623 -0.669585 -4.38214 0
M  V30 3922 H 380.843 -0.250523 -0.622478 0
M  V30 3923 H 383.387 -1.3184 -1.56328 0
M  V30 3924 H 381.542 -0.366033 -3.85667 0
M  V30 3925 H 381.956 -2.43424 -4.64591 0
M  V30 3926 H 383.43 -0.920967 -5.44263 0
M  V30 3927 H 383.907 0.396383 -4.37408 0
M  V30 3928 H 384.513 -1.2472 -4.06602 0
M  V30 3929 N 382.828 1.3818 -0.7579 0
M  V30 3930 C 383.778 2.27741 -0.108674 0
M  V30 3931 C 384.762 1.45415 0.688709 0
M  V30 3932 O 385.954 1.68108 0.553956 0
M  V30 3933 C 383.083 3.34313 0.780367 0
M  V30 3934 C 382.169 4.24093 -0.0240977 0
M  V30 3935 N 382.56 4.9451 -1.06271 0
M  V30 3936 C 380.858 4.45542 0.202049 0
M  V30 3937 C 381.559 5.60675 -1.54979 0
M  V30 3938 N 380.535 5.36684 -0.864348 0
M  V30 3939 H 384.337 2.79649 -0.904071 0
M  V30 3940 H 381.851 1.51133 -0.594346 0
M  V30 3941 H 383.848 3.97368 1.26114 0
M  V30 3942 H 382.508 2.83962 1.57467 0
M  V30 3943 H 383.519 4.97345 -1.44459 0
M  V30 3944 H 380.196 4.06091 0.96935 0
M  V30 3945 H 381.586 6.26992 -2.41517 0
M  V30 3946 N 384.306 0.507319 1.49211 0
M  V30 3947 C 385.722 0.163682 1.58758 0
M  V30 3948 C 385.922 -1.33208 1.51188 0
M  V30 3949 O 384.978 -2.10855 1.38911 0
M  V30 3950 C 386.291 0.746095 2.91297 0
M  V30 3951 C 387.839 0.712773 3.04776 0
M  V30 3952 C 388.314 1.27336 4.39943 0
M  V30 3953 N 389.805 1.23433 4.46451 0
M  V30 3954 C 390.54 1.63821 5.495 0
M  V30 3955 N 390.036 2.11832 6.5962 0
M  V30 3956 N 391.829 1.55198 5.4025 0
M  V30 3957 H 383.98 1.47972 1.52375 0
M  V30 3958 H 386.243 0.614147 0.722168 0
M  V30 3959 H 385.949 1.79534 3.02424 0
M  V30 3960 H 385.823 0.210137 3.76614 0
M  V30 3961 H 388.21 -0.327656 2.93275 0
M  V30 3962 H 388.291 1.28595 2.21127 0
M  V30 3963 H 387.935 2.3126 4.52196 0
M  V30 3964 H 387.865 0.676066 5.22242 0
M  V30 3965 H 390.356 0.882627 3.67448 0
M  V30 3966 H 390.669 2.40703 7.34358 0
M  V30 3967 H 389.014 2.1581 6.60644 0
M  V30 3968 H 392.205 1.17505 4.53112 0
M  V30 3969 H 392.378 1.86997 6.20432 0
M  V30 3970 N 385.784 -1.5574 0.241426 0
M  V30 3971 C 387.032 -1.98417 -0.384075 0
M  V30 3972 C 387.353 -1.13078 -1.58866 0
M  V30 3973 O 386.623 -0.212312 -1.94746 0
M  V30 3974 H 385.203 -0.732813 -0.144894 0
M  V30 3975 H 387.865 -1.9193 0.338943 0
M  V30 3976 H 386.961 -3.04219 -0.696939 0
M  V30 3977 N 387.262 0.0317525 -1.57568 0
M  V30 3978 C 388.509 0.723104 -1.89149 0
M  V30 3979 C 388.837 1.75504 -0.838377 0
M  V30 3980 O 388.092 1.95037 0.160982 0
M  V30 3981 C 388.391 1.43167 -3.27472 0
M  V30 3982 C 388.057 0.535972 -4.47703 0
M  V30 3983 C 386.719 0.289262 -4.8033 0
M  V30 3984 C 389.071 -0.0826125 -5.21135 0
M  V30 3985 C 386.399 -0.584853 -5.83778 0
M  V30 3986 C 388.751 -0.944414 -6.25511 0
M  V30 3987 C 387.415 -1.20061 -6.56614 0
M  V30 3988 H 386.685 0.264602 -0.692146 0
M  V30 3989 H 389.332 -0.0169496 -1.91492 0
M  V30 3990 H 387.637 2.24497 -3.21105 0
M  V30 3991 H 389.334 1.97209 -3.49155 0
M  V30 3992 H 385.924 0.738414 -4.22191 0
M  V30 3993 H 390.108 0.0950302 -4.96209 0
M  V30 3994 H 385.364 -0.79168 -6.06253 0
M  V30 3995 H 389.538 -1.43026 -6.81554 0
M  V30 3996 H 387.165 -1.87967 -7.36595 0
M  V30 3997 N 388.74 1.54641 0.303973 0
M  V30 3998 C 389.67 1.88386 1.3796 0
M  V30 3999 C 390.651 0.742485 1.5304 0
M  V30 4000 O 391.836 0.997959 1.66597 0
M  V30 4001 C 388.966 2.12854 2.74427 0
M  V30 4002 C 387.92 3.28702 2.74115 0
M  V30 4003 C 387.246 3.38582 4.13844 0
M  V30 4004 C 388.546 4.65881 2.3612 0
M  V30 4005 H 390.24 2.78474 1.09966 0
M  V30 4006 H 387.786 1.33988 0.527556 0
M  V30 4007 H 389.739 2.35047 3.49758 0
M  V30 4008 H 388.463 1.19535 3.03939 0
M  V30 4009 H 387.122 3.06428 2.0124 0
M  V30 4010 H 386.77 2.42784 4.40528 0
M  V30 4011 H 386.47 4.16453 4.14537 0
M  V30 4012 H 387.994 3.63031 4.90959 0
M  V30 4013 H 389.408 4.87823 3.01167 0
M  V30 4014 H 387.805 5.46444 2.48031 0
M  V30 4015 H 388.875 4.66799 1.3125 0
M  V30 4016 N 390.218 -0.567019 1.47046 0
M  V30 4017 C 391.148 -1.68482 1.61667 0
M  V30 4018 C 392.129 -1.6358 0.466418 0
M  V30 4019 O 393.314 -1.81354 0.694574 0
M  V30 4020 C 390.444 -3.07124 1.62148 0
M  V30 4021 C 389.398 -3.26867 2.76301 0
M  V30 4022 C 388.724 -4.66196 2.61849 0
M  V30 4023 C 390.024 -3.13186 4.17986 0
M  V30 4024 H 391.718 -1.56502 2.5524 0
M  V30 4025 H 389.264 -0.751486 1.22836 0
M  V30 4026 H 391.217 -3.8516 1.70968 0
M  V30 4027 H 389.941 -3.2004 0.651287 0
M  V30 4028 H 388.6 -2.51237 2.66975 0
M  V30 4029 H 388.248 -4.75898 1.62879 0
M  V30 4030 H 387.948 -4.80356 3.38425 0
M  V30 4031 H 389.472 -5.46379 2.72584 0
M  V30 4032 H 390.886 -3.81049 4.2834 0
M  V30 4033 H 389.283 -3.3886 4.95272 0
M  V30 4034 H 390.353 -2.10057 4.3704 0
M  V30 4035 N 391.696 -1.35014 -0.812953 0
M  V30 4036 C 392.926 -1.30841 -1.59888 0
M  V30 4037 C 393.334 0.117576 -1.88834 0
M  V30 4038 O 392.677 1.07807 -1.48739 0
M  V30 4039 C 392.739 -2.0412 -2.95931 0
M  V30 4040 C 392.403 -3.53336 -2.89832 0
M  V30 4041 C 393.4 -4.48052 -2.63714 0
M  V30 4042 C 391.085 -3.95894 -3.0915 0
M  V30 4043 C 393.079 -5.833 -2.56982 0
M  V30 4044 C 390.766 -5.31239 -3.0204 0
M  V30 4045 C 391.764 -6.24754 -2.75991 0
M  V30 4046 O 391.452 -7.57617 -2.68833 0
M  V30 4047 H 391.184 -0.451215 -0.50337 0
M  V30 4048 H 393.738 -1.78354 -1.01877 0
M  V30 4049 H 391.968 -1.51235 -3.559 0
M  V30 4050 H 393.657 -1.93107 -3.57022 0
M  V30 4051 H 394.423 -4.16492 -2.48515 0
M  V30 4052 H 390.302 -3.23495 -3.28438 0
M  V30 4053 H 393.846 -6.56263 -2.36569 0
M  V30 4054 H 389.743 -5.62415 -3.16796 0
M  V30 4055 H 390.511 -7.67469 -2.84487 0
M  V30 4056 N 393.175 1.03435 -1.18907 0
M  V30 4057 C 394.105 2.13503 -0.945448 0
M  V30 4058 C 395.086 1.69682 0.119189 0
M  V30 4059 O 396.271 1.94169 -0.034707 0
M  V30 4060 C 393.401 3.44004 -0.477316 0
M  V30 4061 C 392.355 4.0148 -1.48316 0
M  V30 4062 C 391.681 5.27537 -0.872311 0
M  V30 4063 C 392.981 4.36921 -2.86177 0
M  V30 4064 H 394.675 2.34141 -1.86597 0
M  V30 4065 H 392.221 1.12523 -0.898584 0
M  V30 4066 H 394.174 4.20372 -0.294204 0
M  V30 4067 H 392.898 3.23072 0.478786 0
M  V30 4068 H 391.557 3.27201 -1.65332 0
M  V30 4069 H 391.205 5.02917 0.0911752 0
M  V30 4070 H 390.905 5.66954 -1.54393 0
M  V30 4071 H 392.429 6.06576 -0.699871 0
M  V30 4072 H 393.843 5.04248 -2.72776 0
M  V30 4073 H 392.24 4.87405 -3.50081 0
M  V30 4074 H 393.31 3.46466 -3.39248 0
M  V30 4075 N 394.653 0.992116 1.22453 0
M  V30 4076 C 395.878 0.685644 1.95739 0
M  V30 4077 C 396.303 -0.743 1.72804 0
M  V30 4078 O 395.661 -1.50778 1.00676 0
M  V30 4079 C 395.709 0.996293 3.46564 0
M  V30 4080 O 394.813 0.0945512 4.12292 0
M  V30 4081 H 394.154 0.256694 0.612376 0
M  V30 4082 H 396.684 1.32888 1.5557 0
M  V30 4083 H 396.694 0.93781 3.97076 0
M  V30 4084 H 395.369 2.03733 3.62582 0
M  V30 4085 H 393.946 0.208451 3.72317 0
M  V30 4086 N 396.131 -1.37776 0.765217 0
M  V30 4087 C 397.379 -1.99454 0.325943 0
M  V30 4088 C 397.7 -1.61049 -1.09947 0
M  V30 4089 O 396.97 -0.872821 -1.75381 0
M  V30 4090 H 395.55 -0.737697 0.117525 0
M  V30 4091 H 398.212 -1.68359 0.981895 0
M  V30 4092 H 397.308 -3.09547 0.398353 0
M  V30 4093 N 397.609 -0.515225 -1.4894 0
M  V30 4094 C 398.557 0.269115 -2.31038 0
M  V30 4095 C 399.551 0.949443 -1.40292 0
M  V30 4096 O 400.757 0.87551 -1.57273 0
M  V30 4097 H 397.132 0.10565 -0.744542 0
M  V30 4098 H 399.103 -0.443096 -2.95092 0
M  V30 4099 C 397.852 1.31213 -3.21991 0
M  V30 4100 H 397.175 0.798034 -3.91754 0
M  V30 4101 H 398.615 1.83263 -3.82349 0
M  V30 4102 C 397.074 2.33791 -2.42576 0
M  V30 4103 O 397.604 3.3995 -2.14003 0
M  V30 4104 N 395.81 2.06625 -2.0434 0
M  V30 4105 H 395.357 1.20314 -2.27777 0
M  V30 4106 H 395.315 2.75483 -1.51514 0
M  V30 4107 N 399.087 1.5561 -0.249682 0
M  V30 4108 C 400.333 1.99306 0.374841 0
M  V30 4109 C 400.666 1.13767 1.57387 0
M  V30 4110 O 399.941 0.201711 1.93451 0
M  V30 4111 C 400.224 3.51507 0.781986 0
M  V30 4112 C 400.077 4.4781 -0.422629 0
M  V30 4113 C 401.396 4.08884 1.62793 0
M  V30 4114 H 398.515 0.724572 0.134773 0
M  V30 4115 H 401.157 1.86719 -0.351549 0
M  V30 4116 H 399.307 3.62363 1.4009 0
M  V30 4117 H 400.979 4.48931 -1.06108 0
M  V30 4118 H 399.222 4.20518 -1.06524 0
M  V30 4119 H 399.893 5.51919 -0.0943766 0
M  V30 4120 H 402.369 4.01147 1.10547 0
M  V30 4121 H 401.245 5.1564 1.88166 0
M  V30 4122 H 401.506 3.57515 2.60068 0
M  V30 4123 N 400.565 -0.0233959 1.57583 0
M  V30 4124 C 401.814 -0.712133 1.8871 0
M  V30 4125 C 402.127 -1.76217 0.848944 0
M  V30 4126 O 403.333 -2.50389 1.04964 0
M  V30 4127 C 401.789 -1.3177 3.3491 0
M  V30 4128 C 401.397 -0.303715 4.46969 0
M  V30 4129 C 403.141 -1.98598 3.75179 0
M  V30 4130 C 401.048 -0.917945 5.84233 0
M  V30 4131 H 399.978 -0.269735 0.704101 0
M  V30 4132 H 402.629 0.0333114 1.8347 0
M  V30 4133 H 401.011 -2.11304 3.34913 0
M  V30 4134 H 402.185 0.465325 4.58445 0
M  V30 4135 H 400.5 0.2628 4.1557 0
M  V30 4136 H 403.097 -2.45416 4.75053 0
M  V30 4137 H 403.44 -2.80659 3.07468 0
M  V30 4138 H 403.973 -1.25831 3.77374 0
M  V30 4139 H 400.712 -0.136633 6.55358 0
M  V30 4140 H 400.232 -1.65669 5.76467 0
M  V30 4141 H 401.911 -1.4236 6.31144 0
M  V30 4142 N 402.043 -1.548 -0.295768 0
M  V30 4143 C 402.976 -1.81003 -1.38972 0
M  V30 4144 C 403.954 -0.661544 -1.48534 0
M  V30 4145 O 405.138 -0.902074 -1.65514 0
M  V30 4146 C 402.265 -1.95141 -2.76835 0
M  V30 4147 C 401.311 -3.17592 -2.84671 0
M  V30 4148 S 402.144 -4.75531 -2.46232 0
M  V30 4149 C 403.3 -4.92613 -3.86114 0
M  V30 4150 H 403.533 -2.73507 -1.16537 0
M  V30 4151 H 401.066 -1.46278 -0.494168 0
M  V30 4152 H 403.024 -2.03972 -3.56238 0
M  V30 4153 H 401.685 -1.03565 -2.96535 0
M  V30 4154 H 400.878 -3.24303 -3.85803 0
M  V30 4155 H 400.48 -3.07235 -2.13267 0
M  V30 4156 H 402.772 -4.76957 -4.81164 0
M  V30 4157 H 403.715 -5.94698 -3.8437 0
M  V30 4158 H 404.123 -4.2073 -3.76359 0
M  V30 4159 N 403.521 0.559213 -1.47345 0
M  V30 4160 C 404.768 1.31648 -1.53867 0
M  V30 4161 C 405.096 1.93468 -0.200104 0
M  V30 4162 O 404.351 1.78295 0.806799 0
M  V30 4163 C 404.65 2.44853 -2.6035 0
M  V30 4164 C 404.316 2.00876 -4.03683 0
M  V30 4165 C 402.978 1.88599 -4.42701 0
M  V30 4166 C 405.33 1.67279 -4.93626 0
M  V30 4167 C 402.658 1.41017 -5.69501 0
M  V30 4168 C 405.01 1.21169 -6.20887 0
M  V30 4169 C 403.674 1.07487 -6.58789 0
M  V30 4170 H 402.944 0.481734 -0.56304 0
M  V30 4171 H 405.591 0.627301 -1.80934 0
M  V30 4172 H 403.896 3.19318 -2.27032 0
M  V30 4173 H 405.593 3.03039 -2.62619 0
M  V30 4174 H 402.183 2.11374 -3.72853 0
M  V30 4175 H 406.367 1.75638 -4.64182 0
M  V30 4176 H 401.623 1.29086 -5.97618 0
M  V30 4177 H 405.797 0.942345 -6.89995 0
M  V30 4178 H 403.424 0.703946 -7.56934 0
M  V30 4179 N 404.999 1.35443 0.805782 0
M  V30 4180 C 406.246 1.28761 1.56291 0
M  V30 4181 C 406.574 -0.137747 1.94012 0
M  V30 4182 O 405.829 -1.1032 1.61642 0
M  V30 4183 C 406.128 2.14045 2.86216 0
M  V30 4184 C 405.794 3.62826 2.67709 0
M  V30 4185 C 404.456 4.0338 2.6237 0
M  V30 4186 C 406.808 4.57227 2.50186 0
M  V30 4187 C 404.136 5.36501 2.37451 0
M  V30 4188 C 406.488 5.90547 2.26797 0
M  V30 4189 C 405.152 6.30245 2.1988 0
M  V30 4190 H 404.422 0.471171 0.571908 0
M  V30 4191 H 407.069 1.67347 0.930974 0
M  V30 4192 H 405.374 1.68342 3.53791 0
M  V30 4193 H 407.071 2.0621 3.43917 0
M  V30 4194 H 403.661 3.30644 2.72713 0
M  V30 4195 H 407.845 4.2678 2.53323 0
M  V30 4196 H 403.101 5.66259 2.30567 0
M  V30 4197 H 407.275 6.63274 2.12228 0
M  V30 4198 H 404.902 7.33328 2.00333 0
M  V30 4199 N 406.477 -1.02803 1.19454 0
M  V30 4200 C 407.725 -1.75869 0.995722 0
M  V30 4201 C 408.046 -1.89138 -0.474543 0
M  V30 4202 O 407.316 -1.42558 -1.34366 0
M  V30 4203 H 405.896 -0.651511 0.365435 0
M  V30 4204 H 408.558 -1.24004 1.50363 0
M  V30 4205 H 407.654 -2.76661 1.44447 0
M  V30 4206 N 407.956 -0.998596 -1.21925 0
M  V30 4207 C 408.886 -0.573688 -2.26343 0
M  V30 4208 C 409.867 0.402296 -1.65274 0
M  V30 4209 O 411.052 0.291683 -1.91997 0
M  V30 4210 C 408.182 0.106839 -3.47136 0
M  V30 4211 C 407.136 -0.788269 -4.20678 0
M  V30 4212 C 406.462 0.0254927 -5.34694 0
M  V30 4213 C 407.762 -2.08784 -4.78755 0
M  V30 4214 H 409.456 -1.44651 -2.62138 0
M  V30 4215 H 407.002 -0.696975 -1.26009 0
M  V30 4216 H 408.955 0.415531 -4.19346 0
M  V30 4217 H 407.679 1.01424 -3.10452 0
M  V30 4218 H 406.338 -1.08069 -3.50309 0
M  V30 4219 H 405.986 0.933989 -4.94253 0
M  V30 4220 H 405.686 -0.570437 -5.84825 0
M  V30 4221 H 407.21 0.328147 -6.09718 0
M  V30 4222 H 408.624 -1.84272 -5.42878 0
M  V30 4223 H 407.021 -2.63307 -5.39249 0
M  V30 4224 H 408.091 -2.76284 -3.98491 0
M  V30 4225 N 409.434 1.37368 -0.772513 0
M  V30 4226 C 410.681 1.99673 -0.337182 0
M  V30 4227 C 411.009 1.61324 1.0865 0
M  V30 4228 O 410.264 0.851377 1.7621 0
M  V30 4229 C 410.563 3.54817 -0.428876 0
M  V30 4230 C 410.229 4.12936 -1.81092 0
M  V30 4231 C 408.891 4.28523 -2.1891 0
M  V30 4232 C 411.243 4.44801 -2.71664 0
M  V30 4233 C 408.571 4.73277 -3.46735 0
M  V30 4234 C 410.923 4.90981 -3.98899 0
M  V30 4235 C 409.587 5.04773 -4.36761 0
M  V30 4236 H 408.857 0.730656 -0.123384 0
M  V30 4237 H 411.504 1.64124 -0.986686 0
M  V30 4238 H 409.809 3.90618 0.304167 0
M  V30 4239 H 411.506 4.00933 -0.0733334 0
M  V30 4240 H 408.096 4.01233 -1.50699 0
M  V30 4241 H 412.28 4.32344 -2.43706 0
M  V30 4242 H 407.536 4.82142 -3.75964 0
M  V30 4243 H 411.71 5.14603 -4.69208 0
M  V30 4244 H 409.337 5.39211 -5.35868 0
M  V30 4245 N 410.912 0.523116 1.48665 0
M  V30 4246 C 411.875 -0.232592 2.28017 0
M  V30 4247 C 412.875 -0.874021 1.34972 0
M  V30 4248 O 414.065 -0.735132 1.57929 0
M  V30 4249 C 411.197 -1.33586 3.13636 0
M  V30 4250 H 412.39 0.464008 2.96289 0
M  V30 4251 H 409.943 0.278816 1.53793 0
M  V30 4252 H 410.678 -2.06593 2.4998 0
M  V30 4253 H 410.463 -0.881125 3.82071 0
M  V30 4254 H 411.953 -1.86759 3.73511 0
M  V30 4255 N 412.39 -1.55475 0.257931 0
M  V30 4256 C 413.801 -1.8511 -0.243135 0
M  V30 4257 C 414.152 -1.17986 -1.5676 0
M  V30 4258 O 413.277 -0.462102 -2.11409 0
M  V30 4259 C 413.872 -3.35826 -0.447929 0
M  V30 4260 C 412.431 -3.65647 -0.893245 0
M  V30 4261 C 411.578 -2.7729 0.0232965 0
M  V30 4262 H 414.529 -1.51261 0.480199 0
M  V30 4263 H 414.55 -3.58002 -1.28898 0
M  V30 4264 H 414.062 -3.84652 0.516196 0
M  V30 4265 H 412.163 -3.22308 -1.86945 0
M  V30 4266 H 412.276 -4.73312 -0.742469 0
M  V30 4267 H 410.64 -2.49942 -0.490021 0
M  V30 4268 H 411.423 -3.28926 0.982994 0
M  V30 4269 N 413.868 0.0150385 -1.57593 0
M  V30 4270 C 414.798 1.01047 -2.10503 0
M  V30 4271 C 415.779 1.36816 -1.01071 0
M  V30 4272 O 416.964 1.45455 -1.28672 0
M  V30 4273 C 414.094 2.30708 -2.59598 0
M  V30 4274 C 413.048 2.09142 -3.73421 0
M  V30 4275 C 412.374 3.44685 -4.08774 0
M  V30 4276 C 413.674 1.46619 -5.01298 0
M  V30 4277 H 415.368 0.569978 -2.93925 0
M  V30 4278 H 412.914 0.272724 -1.41394 0
M  V30 4279 H 414.867 3.00687 -2.95238 0
M  V30 4280 H 413.591 2.76843 -1.73279 0
M  V30 4281 H 412.25 1.41592 -3.38153 0
M  V30 4282 H 411.898 3.88495 -3.195 0
M  V30 4283 H 411.598 3.31077 -4.8545 0
M  V30 4284 H 413.122 4.16004 -4.4696 0
M  V30 4285 H 414.536 2.06535 -5.34805 0
M  V30 4286 H 412.933 1.43544 -5.82679 0
M  V30 4287 H 414.003 0.433611 -4.82957 0
M  V30 4288 N 415.346 1.54954 0.287554 0
M  V30 4289 C 416.592 1.75132 1.02257 0
M  V30 4290 C 416.925 0.542858 1.86458 0
M  V30 4291 O 416.2 -0.459856 1.88986 0
M  V30 4292 C 416.483 3.04812 1.91733 0
M  V30 4293 C 416.336 4.35985 1.10622 0
M  V30 4294 C 417.655 3.30438 2.90687 0
M  V30 4295 H 414.774 0.637194 0.370341 0
M  V30 4296 H 417.416 1.87678 0.296111 0
M  V30 4297 H 415.566 2.94247 2.53675 0
M  V30 4298 H 417.238 4.58487 0.508636 0
M  V30 4299 H 415.481 4.31865 0.409271 0
M  V30 4300 H 416.152 5.23017 1.76513 0
M  V30 4301 H 418.628 3.40701 2.38877 0
M  V30 4302 H 417.504 4.22467 3.50447 0
M  V30 4303 H 417.765 2.49377 3.65053 0
M  V30 4304 N 416.824 -0.551391 1.4764 0
M  V30 4305 C 418.071 -1.3083 1.54563 0
M  V30 4306 C 418.399 -1.93359 0.210361 0
M  V30 4307 O 417.654 -1.78721 -0.797332 0
M  V30 4308 C 417.953 -2.43469 2.61644 0
M  V30 4309 C 417.619 -1.98732 4.04742 0
M  V30 4310 C 416.281 -1.86248 4.43695 0
M  V30 4311 C 418.633 -1.64659 4.94507 0
M  V30 4312 C 415.961 -1.37995 5.70241 0
M  V30 4313 C 418.313 -1.17875 6.21521 0
M  V30 4314 C 416.977 -1.03992 6.5935 0
M  V30 4315 H 416.247 -0.478741 0.565587 0
M  V30 4316 H 418.894 -0.617697 1.81264 0
M  V30 4317 H 417.199 -3.18109 2.28722 0
M  V30 4318 H 418.896 -3.01642 2.64222 0
M  V30 4319 H 415.486 -2.09393 3.73968 0
M  V30 4320 H 419.67 -1.73174 4.65107 0
M  V30 4321 H 414.926 -1.25915 5.98294 0
M  V30 4322 H 419.1 -0.905739 6.90485 0
M  V30 4323 H 416.727 -0.663794 7.57296 0
M  V30 4324 N 418.302 -1.35869 -0.798587 0
M  V30 4325 C 419.232 -1.32118 -1.92528 0
M  V30 4326 C 420.213 -0.194209 -1.68988 0
M  V30 4327 O 421.398 -0.390426 -1.90235 0
M  V30 4328 C 418.528 -1.10047 -3.29404 0
M  V30 4329 C 417.482 -2.19471 -3.67446 0
M  V30 4330 C 416.808 -1.82555 -5.02571 0
M  V30 4331 C 418.108 -3.61495 -3.76987 0
M  V30 4332 H 419.802 -2.26394 -1.95924 0
M  V30 4333 H 417.348 -1.08981 -0.94123 0
M  V30 4334 H 419.301 -1.06061 -4.07835 0
M  V30 4335 H 418.025 -0.122195 -3.26371 0
M  V30 4336 H 416.684 -2.22568 -2.91306 0
M  V30 4337 H 416.332 -0.833249 -4.9605 0
M  V30 4338 H 416.032 -2.5581 -5.28995 0
M  V30 4339 H 417.556 -1.80108 -5.83432 0
M  V30 4340 H 418.97 -3.60676 -4.4563 0
M  V30 4341 H 417.367 -4.33577 -4.14887 0
M  V30 4342 H 418.437 -3.97065 -2.78329 0
M  V30 4343 N 419.78 1.02168 -1.19998 0
M  V30 4344 C 421.005 1.79833 -1.03319 0
M  V30 4345 C 421.43 1.83504 0.413281 0
M  V30 4346 O 420.788 1.26635 1.29743 0
M  V30 4347 C 420.836 3.22396 -1.61533 0
M  V30 4348 O 419.94 4.03555 -0.849519 0
M  V30 4349 H 419.281 0.554872 -0.364709 0
M  V30 4350 H 421.811 1.28542 -1.59179 0
M  V30 4351 H 421.821 3.73124 -1.65054 0
M  V30 4352 H 420.496 3.19039 -2.66809 0
M  V30 4353 H 419.073 3.62169 -0.888129 0
M  V30 4354 N 421.258 1.00505 1.21394 0
M  V30 4355 C 422.483 0.706367 1.95001 0
M  V30 4356 C 422.908 -0.72463 1.73582 0
M  V30 4357 O 422.266 -1.49702 1.0227 0
M  V30 4358 C 422.314 1.03299 3.45487 0
M  V30 4359 O 421.418 0.138275 4.12168 0
M  V30 4360 H 420.759 0.263175 0.609619 0
M  V30 4361 H 423.289 1.34531 1.54151 0
M  V30 4362 H 423.299 0.979872 3.96059 0
M  V30 4363 H 421.974 2.07567 3.60401 0
M  V30 4364 H 420.551 0.247928 3.72075 0
M  V30 4365 N 422.737 -1.36956 0.779787 0
M  V30 4366 C 423.967 -2.03459 0.358877 0
M  V30 4367 C 424.375 -1.58939 -1.02641 0
M  V30 4368 O 423.718 -0.769777 -1.66794 0
M  V30 4369 C 423.78 -3.5796 0.332393 0
M  V30 4370 C 423.444 -4.25644 1.66362 0
M  V30 4371 C 424.441 -4.49205 2.61746 0
M  V30 4372 C 422.126 -4.63313 1.94027 0
M  V30 4373 C 424.12 -5.09503 3.82996 0
M  V30 4374 C 421.807 -5.2333 3.15546 0
M  V30 4375 C 422.805 -5.46363 4.0985 0
M  V30 4376 O 422.493 -6.05122 5.29228 0
M  V30 4377 H 422.225 -0.659767 0.147254 0
M  V30 4378 H 424.779 -1.76111 1.05708 0
M  V30 4379 H 423.009 -3.84388 -0.422237 0
M  V30 4380 H 424.698 -4.05852 -0.0625389 0
M  V30 4381 H 425.464 -4.20508 2.41657 0
M  V30 4382 H 421.343 -4.44715 1.21448 0
M  V30 4383 H 424.887 -5.27397 4.56617 0
M  V30 4384 H 420.784 -5.51451 3.35517 0
M  V30 4385 H 421.552 -6.23595 5.30161 0
M  V30 4386 N 424.215 -0.530993 -1.48385 0
M  V30 4387 C 425.463 0.00273189 -2.021 0
M  V30 4388 C 425.784 1.34672 -1.41027 0
M  V30 4389 O 425.054 1.8724 -0.576012 0
M  V30 4390 H 423.634 0.00399774 -0.746989 0
M  V30 4391 H 426.296 -0.695054 -1.82085 0
M  V30 4392 H 425.392 0.11031 -3.11905 0
M  V30 4393 N 425.693 1.55336 -0.266172 0
M  V30 4394 C 426.64 2.22172 0.625165 0
M  V30 4395 C 427.61 1.19211 1.15663 0
M  V30 4396 O 428.795 1.47723 1.20758 0
M  V30 4397 C 425.935 2.93972 1.8076 0
M  V30 4398 C 425.048 4.11632 1.31084 0
M  V30 4399 C 424.183 4.71099 2.45436 0
M  V30 4400 C 423.222 5.8097 1.92718 0
M  V30 4401 N 422.359 6.34538 3.00509 0
M  V30 4402 H 427.199 2.9796 0.0485582 0
M  V30 4403 H 424.736 1.47095 0.0122024 0
M  V30 4404 H 426.694 3.33811 2.50251 0
M  V30 4405 H 425.324 2.20623 2.35638 0
M  V30 4406 H 424.376 3.76975 0.509326 0
M  V30 4407 H 425.688 4.90893 0.884633 0
M  V30 4408 H 424.842 5.13612 3.22936 0
M  V30 4409 H 423.581 3.91096 2.91368 0
M  V30 4410 H 422.586 5.37916 1.13695 0
M  V30 4411 H 423.811 6.62836 1.47733 0
M  V30 4412 H 421.757 5.57433 3.45839 0
M  V30 4413 H 421.674 7.09046 2.62279 0
M  V30 4414 H 422.942 6.81709 3.78011 0
M  V30 4415 N 427.171 -0.0066808 1.57599 0
M  V30 4416 C 428.396 -0.707738 1.94951 0
M  V30 4417 C 428.821 -1.66882 0.867868 0
M  V30 4418 O 428.179 -1.80457 -0.17458 0
M  V30 4419 C 428.227 -1.42162 3.31394 0
M  V30 4420 O 427.331 -2.53578 3.25226 0
M  V30 4421 H 426.672 -0.188752 0.636607 0
M  V30 4422 H 429.202 0.0445193 2.04552 0
M  V30 4423 H 429.212 -1.78655 3.66806 0
M  V30 4424 H 427.887 -0.716903 4.09675 0
M  V30 4425 H 426.464 -2.19463 3.01481 0
M  V30 4426 N 428.649 -1.55105 -0.279332 0
M  V30 4427 C 429.581 -1.83952 -1.36727 0
M  V30 4428 C 430.594 -0.723642 -1.45833 0
M  V30 4429 O 431.783 -1.00141 -1.47763 0
M  V30 4430 C 428.883 -1.98183 -2.74912 0
M  V30 4431 C 428.056 -3.28787 -2.88475 0
M  V30 4432 C 427.115 -3.33162 -4.07295 0
M  V30 4433 O 426.141 -4.06576 -3.98353 0
M  V30 4434 N 427.343 -2.60109 -5.18964 0
M  V30 4435 H 430.108 -2.77853 -1.12328 0
M  V30 4436 H 427.669 -1.54945 -0.469442 0
M  V30 4437 H 429.661 -1.98488 -3.52682 0
M  V30 4438 H 428.231 -1.11177 -2.92162 0
M  V30 4439 H 427.451 -3.41075 -1.97641 0
M  V30 4440 H 428.739 -4.14933 -2.94463 0
M  V30 4441 H 428.137 -2.00136 -5.29115 0
M  V30 4442 H 426.694 -2.66143 -5.94988 0
M  V30 4443 N 430.127 0.543554 -1.4793 0
M  V30 4444 C 431.077 1.64527 -1.57844 0
M  V30 4445 C 432.061 1.54869 -0.436408 0
M  V30 4446 O 433.253 1.63119 -0.687101 0
M  V30 4447 C 430.382 3.03281 -1.6086 0
M  V30 4448 C 429.468 3.18093 -2.80495 0
M  V30 4449 N 429.859 3.02923 -4.05057 0
M  V30 4450 C 428.157 3.49121 -2.77543 0
M  V30 4451 C 428.858 3.20791 -4.85251 0
M  V30 4452 N 427.834 3.47749 -4.17818 0
M  V30 4453 H 431.636 1.51388 -2.5191 0
M  V30 4454 H 429.15 0.748671 -1.44113 0
M  V30 4455 H 431.147 3.82403 -1.66054 0
M  V30 4456 H 429.807 3.17521 -0.678996 0
M  V30 4457 H 430.818 2.79966 -4.35705 0
M  V30 4458 H 427.495 3.69804 -1.93781 0
M  V30 4459 H 428.885 3.13915 -5.9406 0
M  V30 4460 N 431.605 1.3629 0.791371 0
M  V30 4461 C 432.835 1.33368 1.57786 0
M  V30 4462 C 433.243 -0.0875188 1.88997 0
M  V30 4463 O 432.586 -1.05427 1.50435 0
M  V30 4464 C 432.648 2.08802 2.92646 0
M  V30 4465 C 432.312 3.57903 2.84174 0
M  V30 4466 C 433.309 4.52191 2.56553 0
M  V30 4467 C 430.994 4.00762 3.02812 0
M  V30 4468 C 432.988 5.87315 2.47669 0
M  V30 4469 C 430.675 5.35977 2.93551 0
M  V30 4470 C 431.673 6.29066 2.66017 0
M  V30 4471 O 431.361 7.61798 2.56746 0
M  V30 4472 H 431.093 0.459166 0.496128 0
M  V30 4473 H 433.647 1.79952 0.990269 0
M  V30 4474 H 431.877 1.56878 3.53449 0
M  V30 4475 H 433.566 1.98762 3.53904 0
M  V30 4476 H 434.332 4.20393 2.41858 0
M  V30 4477 H 430.211 3.2868 3.2325 0
M  V30 4478 H 433.755 6.59943 2.26099 0
M  V30 4479 H 429.652 5.67384 3.07808 0
M  V30 4480 H 430.42 7.71898 2.72242 0
M  V30 4481 N 433.083 -1.0153 1.20538 0
M  V30 4482 C 434.308 -1.79283 1.04271 0
M  V30 4483 C 434.733 -1.8372 -0.403544 0
M  V30 4484 O 434.091 -1.27321 -1.2907 0
M  V30 4485 C 434.139 -3.21535 1.63241 0
M  V30 4486 O 433.243 -4.03099 0.870908 0
M  V30 4487 H 432.584 -0.55293 0.367647 0
M  V30 4488 H 435.114 -1.27696 1.59859 0
M  V30 4489 H 435.124 -3.72243 1.6703 0
M  V30 4490 H 433.799 -3.1762 2.68497 0
M  V30 4491 H 432.376 -3.61693 0.907323 0
M  V30 4492 N 434.561 -1.01147 -1.20859 0
M  V30 4493 C 435.786 -0.716698 -1.94623 0
M  V30 4494 C 436.211 0.715415 -1.73964 0
M  V30 4495 O 435.569 1.49157 -1.03062 0
M  V30 4496 C 435.617 -1.0513 -3.44935 0
M  V30 4497 O 434.721 -0.160131 -4.12089 0
M  V30 4498 H 434.062 -0.266404 -0.608214 0
M  V30 4499 H 436.592 -1.35346 -1.53436 0
M  V30 4500 H 436.602 -1.00086 -3.95533 0
M  V30 4501 H 435.277 -2.09475 -3.59295 0
M  V30 4502 H 433.854 -0.267657 -3.71938 0
M  V30 4503 N 436.039 1.36541 -0.78704 0
M  V30 4504 C 436.949 2.3387 -0.184896 0
M  V30 4505 C 437.965 1.60927 0.661697 0
M  V30 4506 O 439.141 1.92927 0.57804 0
M  V30 4507 C 436.206 3.40122 0.672145 0
M  V30 4508 C 435.267 4.28867 -0.19267 0
M  V30 4509 C 434.5 5.30045 0.623561 0
M  V30 4510 O 434.723 5.39232 1.8597 0
M  V30 4511 O 433.657 6.01895 0.0247068 0
M  V30 4512 H 437.483 2.87126 -0.989562 0
M  V30 4513 H 435.068 1.38969 -0.548455 0
M  V30 4514 H 436.95 4.05093 1.16094 0
M  V30 4515 H 435.625 2.89169 1.45474 0
M  V30 4516 H 434.532 3.66945 -0.728166 0
M  V30 4517 H 435.865 4.83165 -0.938722 0
M  V30 4518 N 437.518 0.538854 1.48102 0
M  V30 4519 C 438.465 -0.219042 2.29758 0
M  V30 4520 C 439.435 -0.925562 1.37922 0
M  V30 4521 O 440.62 -0.924855 1.66886 0
M  V30 4522 C 437.76 -1.25452 3.2149 0
M  V30 4523 C 436.873 -0.555943 4.28408 0
M  V30 4524 C 436.008 -1.57512 5.0731 0
M  V30 4525 C 435.047 -0.860498 6.06021 0
M  V30 4526 N 434.184 -1.82564 6.77949 0
M  V30 4527 H 439.024 0.483449 2.94052 0
M  V30 4528 H 436.561 0.250247 1.44956 0
M  V30 4529 H 438.519 -1.86727 3.7308 0
M  V30 4530 H 437.149 -1.92528 2.591 0
M  V30 4531 H 436.201 0.170938 3.80016 0
M  V30 4532 H 437.513 0.00474616 4.988 0
M  V30 4533 H 436.667 -2.26191 5.62959 0
M  V30 4534 H 435.406 -2.16972 4.36778 0
M  V30 4535 H 434.411 -0.159686 5.49568 0
M  V30 4536 H 435.636 -0.271897 6.78555 0
M  V30 4537 H 433.582 -2.40915 6.10161 0
M  V30 4538 H 433.499 -1.31662 7.44447 0
M  V30 4539 H 434.767 -2.50414 7.38182 0
M  V30 4540 N 438.996 -1.55193 0.274407 0
M  V30 4541 C 440.221 -2.04446 -0.348824 0
M  V30 4542 C 440.646 -1.15149 -1.48735 0
M  V30 4543 O 440.004 -0.149952 -1.80679 0
M  V30 4544 C 440.052 -3.51431 -0.808009 0
M  V30 4545 O 439.156 -3.65225 -1.91531 0
M  V30 4546 H 438.497 -0.66006 -0.0722276 0
M  V30 4547 H 441.027 -2.00481 0.408498 0
M  V30 4548 H 441.037 -3.92781 -1.10395 0
M  V30 4549 H 439.712 -4.15892 0.0249865 0
M  V30 4550 H 438.289 -3.35778 -1.62196 0
M  V30 4551 N 440.474 -0.00167713 -1.576 0
M  V30 4552 C 441.437 0.974046 -2.07473 0
M  V30 4553 C 442.437 1.27143 -0.984444 0
M  V30 4554 O 443.627 1.21633 -1.24703 0
M  V30 4555 C 440.759 2.29849 -2.51759 0
M  V30 4556 H 441.952 0.54262 -2.9495 0
M  V30 4557 H 439.505 0.245829 -1.54355 0
M  V30 4558 H 440.24 2.77677 -1.67529 0
M  V30 4559 H 440.025 2.09584 -3.31386 0
M  V30 4560 H 441.515 2.9984 -2.90664 0
M  V30 4561 N 441.952 1.55251 0.271103 0
M  V30 4562 C 443.199 1.75946 1.00245 0
M  V30 4563 C 443.527 0.561611 1.86215 0
M  V30 4564 O 442.782 -0.455832 1.90317 0
M  V30 4565 C 443.081 3.01879 1.91321 0
M  V30 4566 C 442.747 4.34337 1.21086 0
M  V30 4567 C 441.409 4.70338 1.01666 0
M  V30 4568 C 443.761 5.16325 0.71119 0
M  V30 4569 C 441.089 5.8588 0.310099 0
M  V30 4570 C 443.441 6.32597 0.0182157 0
M  V30 4571 C 442.105 6.67236 -0.18768 0
M  V30 4572 H 441.375 0.643833 0.366824 0
M  V30 4573 H 444.022 1.89521 0.27458 0
M  V30 4574 H 442.327 2.83212 2.70736 0
M  V30 4575 H 444.024 3.15088 2.48033 0
M  V30 4576 H 440.614 4.06043 1.37213 0
M  V30 4577 H 444.798 4.88987 0.848844 0
M  V30 4578 H 440.054 6.1124 0.139873 0
M  V30 4579 H 444.228 6.9538 -0.376711 0
M  V30 4580 H 441.855 7.56618 -0.73715 0
M  V30 4581 N 443.43 -0.535701 1.48216 0
M  V30 4582 C 444.36 -1.65014 1.65204 0
M  V30 4583 C 445.341 -1.62554 0.501011 0
M  V30 4584 O 446.526 -1.7984 0.732886 0
M  V30 4585 C 443.656 -3.03616 1.68626 0
M  V30 4586 C 442.61 -3.20932 2.83172 0
M  V30 4587 C 441.936 -4.60537 2.71679 0
M  V30 4588 C 443.236 -3.04249 4.24535 0
M  V30 4589 H 444.93 -1.51053 2.58502 0
M  V30 4590 H 442.476 -0.725262 1.24402 0
M  V30 4591 H 444.429 -3.81446 1.79099 0
M  V30 4592 H 443.153 -3.18587 0.719026 0
M  V30 4593 H 441.812 -2.45517 2.72244 0
M  V30 4594 H 441.46 -4.72336 1.72937 0
M  V30 4595 H 441.16 -4.73069 3.48538 0
M  V30 4596 H 442.684 -5.40475 2.84112 0
M  V30 4597 H 444.098 -3.71877 4.36326 0
M  V30 4598 H 442.495 -3.28278 5.02348 0
M  V30 4599 H 443.565 -2.00739 4.41397 0
M  V30 4600 N 444.908 -1.36708 -0.784132 0
M  V30 4601 C 445.838 -1.34153 -1.91116 0
M  V30 4602 C 446.819 -0.212121 -1.68772 0
M  V30 4603 O 448.004 -0.410581 -1.8981 0
M  V30 4604 C 445.134 -1.13535 -3.28218 0
M  V30 4605 C 444.088 -2.23356 -3.65097 0
M  V30 4606 C 443.414 -1.87875 -5.00607 0
M  V30 4607 C 444.714 -3.65473 -3.73131 0
M  V30 4608 H 446.408 -2.28459 -1.93512 0
M  V30 4609 H 443.954 -1.09973 -0.929618 0
M  V30 4610 H 445.907 -1.10381 -4.06687 0
M  V30 4611 H 444.631 -0.156804 -3.26223 0
M  V30 4612 H 443.29 -2.25645 -2.88929 0
M  V30 4613 H 442.938 -0.885814 -4.95139 0
M  V30 4614 H 442.638 -2.61406 -5.26252 0
M  V30 4615 H 444.162 -1.86286 -5.81489 0
M  V30 4616 H 445.576 -3.65382 -4.41779 0
M  V30 4617 H 443.973 -4.37953 -4.10265 0
M  V30 4618 H 445.043 -3.99995 -2.74102 0
M  V30 4619 N 446.386 1.0089 -1.21074 0
M  V30 4620 C 447.611 1.78727 -1.05221 0
M  V30 4621 C 448.036 1.83932 0.393795 0
M  V30 4622 O 447.394 1.28004 1.28393 0
M  V30 4623 C 447.442 3.20665 -1.64944 0
M  V30 4624 O 446.546 4.02632 -0.892273 0
M  V30 4625 H 445.887 0.550973 -0.370574 0
M  V30 4626 H 448.417 1.26847 -1.60534 0
M  V30 4627 H 448.427 3.71352 -1.69002 0
M  V30 4628 H 447.102 3.16191 -2.70177 0
M  V30 4629 H 445.679 3.61207 -0.926492 0
M  V30 4630 N 447.864 1.01787 1.20321 0
M  V30 4631 C 449.113 0.703249 1.89043 0
M  V30 4632 C 449.426 -0.770445 1.79787 0
M  V30 4633 O 450.632 -1.19767 2.43656 0
M  V30 4634 C 449.088 1.20749 3.3904 0
M  V30 4635 C 448.696 2.70817 3.56878 0
M  V30 4636 C 450.44 0.968352 4.13308 0
M  V30 4637 C 448.347 3.14716 5.00708 0
M  V30 4638 H 447.277 0.259354 0.707991 0
M  V30 4639 H 449.928 1.23072 1.36108 0
M  V30 4640 H 448.31 0.607989 3.91305 0
M  V30 4641 H 449.484 3.36327 3.14993 0
M  V30 4642 H 447.799 2.92888 2.95983 0
M  V30 4643 H 450.396 1.27173 5.19356 0
M  V30 4644 H 450.739 -0.095149 4.16191 0
M  V30 4645 H 451.272 1.53129 3.67146 0
M  V30 4646 H 448.011 4.20347 5.02979 0
M  V30 4647 H 447.531 2.53927 5.43398 0
M  V30 4648 H 449.21 3.07426 5.69296 0
M  V30 4649 N 449.342 -1.36122 0.79427 0
M  V30 4650 C 450.272 -2.32551 0.210328 0
M  V30 4651 C 451.253 -1.56884 -0.657386 0
M  V30 4652 O 452.438 -1.85014 -0.590207 0
M  V30 4653 C 449.568 -3.41128 -0.651819 0
M  V30 4654 C 448.522 -4.27842 0.116395 0
M  V30 4655 C 447.848 -5.2763 -0.86666 0
M  V30 4656 C 449.148 -5.05647 1.30837 0
M  V30 4657 H 450.842 -2.81636 1.01594 0
M  V30 4658 H 448.388 -1.35407 0.489981 0
M  V30 4659 H 450.341 -4.07581 -1.07031 0
M  V30 4660 H 449.065 -2.90622 -1.49019 0
M  V30 4661 H 447.724 -3.62952 0.515915 0
M  V30 4662 H 447.372 -4.73395 -1.70019 0
M  V30 4663 H 447.072 -5.86514 -0.35705 0
M  V30 4664 H 448.596 -5.96955 -1.28361 0
M  V30 4665 H 450.01 -5.65113 0.965393 0
M  V30 4666 H 448.407 -5.73967 1.75161 0
M  V30 4667 H 449.477 -4.37006 2.10128 0
M  V30 4668 N 450.82 -0.546701 -1.47814 0
M  V30 4669 C 451.783 0.196287 -2.28358 0
M  V30 4670 C 452.783 0.852437 -1.36346 0
M  V30 4671 O 453.973 0.709913 -1.59078 0
M  V30 4672 C 451.105 1.28579 -3.15722 0
M  V30 4673 H 452.298 -0.511086 -2.95513 0
M  V30 4674 H 449.851 -0.303248 -1.5333 0
M  V30 4675 H 450.586 2.0259 -2.53235 0
M  V30 4676 H 450.371 0.820229 -3.83425 0
M  V30 4677 H 451.861 1.80793 -3.76435 0
M  V30 4678 N 452.299 1.55045 -0.282633 0
M  V30 4679 C 453.546 1.9976 0.33199 0
M  V30 4680 C 453.874 1.17105 1.55295 0
M  V30 4681 O 453.129 0.230599 1.94337 0
M  V30 4682 C 453.428 3.49422 0.750938 0
M  V30 4683 C 453.094 4.4941 -0.366228 0
M  V30 4684 C 451.756 4.76471 -0.672964 0
M  V30 4685 C 454.108 5.09054 -1.11864 0
M  V30 4686 C 451.436 5.60442 -1.73556 0
M  V30 4687 C 453.788 5.9418 -2.17102 0
M  V30 4688 C 452.452 6.19558 -2.48402 0
M  V30 4689 H 451.722 0.730974 0.121484 0
M  V30 4690 H 454.369 1.8732 -0.39791 0
M  V30 4691 H 452.674 3.59377 1.56063 0
M  V30 4692 H 454.371 3.81432 1.23736 0
M  V30 4693 H 450.961 4.2844 -0.117041 0
M  V30 4694 H 455.145 4.88165 -0.894925 0
M  V30 4695 H 450.401 5.78349 -1.983 0
M  V30 4696 H 454.575 6.39427 -2.75873 0
M  V30 4697 H 452.202 6.84417 -3.30874 0
M  V30 4698 N 453.777 0.010035 1.57597 0
M  V30 4699 C 455.023 -0.673697 1.91283 0
M  V30 4700 C 455.356 -1.72863 0.884979 0
M  V30 4701 O 454.631 -1.94268 -0.0949487 0
M  V30 4702 C 454.914 -1.30766 3.35518 0
M  V30 4703 C 454.767 -0.263578 4.49027 0
M  V30 4704 C 456.086 -2.23105 3.79358 0
M  V30 4705 H 453.205 -0.243439 0.695634 0
M  V30 4706 H 455.847 0.0633864 1.89894 0
M  V30 4707 H 453.997 -1.93588 3.36832 0
M  V30 4708 H 455.669 0.365738 4.59848 0
M  V30 4709 H 453.912 0.413077 4.31829 0
M  V30 4710 H 454.583 -0.746398 5.4693 0
M  V30 4711 H 457.059 -1.70289 3.79659 0
M  V30 4712 H 455.935 -2.64424 4.81011 0
M  V30 4713 H 456.196 -3.11433 3.13787 0
M  V30 4714 N 455.255 -1.55392 -0.262866 0
M  V30 4715 C 456.532 -1.67204 -1.01499 0
M  V30 4716 C 456.912 -0.545186 -2.03939 0
M  V30 4717 O 456.26 0.453467 -2.23955 0
M  V30 4718 C 456.47 -3.06847 -1.6627 0
M  V30 4719 C 457.818 -3.64928 -2.17054 0
M  V30 4720 O 458.842 -3.09545 -1.76239 0
M  V30 4721 O 457.701 -4.61984 -2.91947 0
M  V30 4722 H 454.795 -0.679467 -0.471438 0
M  V30 4723 H 457.341 -1.67729 -0.257918 0
M  V30 4724 H 456.113 -3.80309 -0.920915 0
M  V30 4725 H 455.736 -3.10266 -2.48638 0
M  V30 4726 N 456.733 0.527833 -1.48498 0
M  V30 4727 C 457.666 1.64892 -1.57753 0
M  V30 4728 C 458.644 1.5687 -0.427867 0
M  V30 4729 O 459.828 1.77311 -0.639764 0
M  V30 4730 C 456.955 3.03301 -1.50752 0
M  V30 4731 C 456.001 3.29675 -2.70586 0
M  V30 4732 S 456.834 3.15712 -4.32535 0
M  V30 4733 C 457.99 4.56564 -4.28136 0
M  V30 4734 H 458.223 1.56792 -2.52594 0
M  V30 4735 H 455.756 0.710959 -1.37057 0
M  V30 4736 H 457.714 3.83123 -1.474 0
M  V30 4737 H 456.375 3.08839 -0.572454 0
M  V30 4738 H 455.568 4.3065 -2.61833 0
M  V30 4739 H 455.17 2.57526 -2.71212 0
M  V30 4740 H 457.462 5.48126 -3.98201 0
M  V30 4741 H 458.405 4.70371 -5.29298 0
M  V30 4742 H 458.813 4.35987 -3.58574 0
M  V30 4743 N 458.211 1.37122 0.776871 0
M  V30 4744 C 459.457 1.32243 1.53752 0
M  V30 4745 C 459.79 -0.0944745 1.9397 0
M  V30 4746 O 459.065 -1.05068 1.6368 0
M  V30 4747 C 459.348 2.25681 2.80607 0
M  V30 4748 C 459.201 3.76127 2.46676 0
M  V30 4749 C 460.52 2.17657 3.82509 0
M  V30 4750 H 457.639 0.481704 0.557791 0
M  V30 4751 H 460.281 1.6778 0.891612 0
M  V30 4752 H 458.431 1.95505 3.35723 0
M  V30 4753 H 460.103 4.16877 1.97513 0
M  V30 4754 H 458.346 3.94946 1.79443 0
M  V30 4755 H 459.017 4.36933 3.37333 0
M  V30 4756 H 461.493 2.44245 3.36873 0
M  V30 4757 H 460.369 2.85185 4.69 0
M  V30 4758 H 460.63 1.16785 4.26396 0
M  V30 4759 N 459.689 -1.00246 1.21608 0
M  V30 4760 C 460.652 -2.07233 0.979133 0
M  V30 4761 C 461.652 -1.6072 -0.0508219 0
M  V30 4762 O 462.842 -1.73196 0.186712 0
M  V30 4763 C 459.974 -3.37546 0.477016 0
M  V30 4764 H 461.167 -2.29687 1.92831 0
M  V30 4765 H 458.72 -1.17261 1.03342 0
M  V30 4766 H 459.455 -3.20773 -0.476966 0
M  V30 4767 H 459.24 -3.72638 1.21997 0
M  V30 4768 H 460.73 -4.16285 0.331181 0
M  V30 4769 N 461.167 -1.02423 -1.1978 0
M  V30 4770 C 462.583 -0.740459 -1.41384 0
M  V30 4771 C 462.783 0.676827 -1.89793 0
M  V30 4772 O 461.839 1.4435 -2.0717 0
M  V30 4773 C 463.152 -1.77264 -2.42895 0
M  V30 4774 C 464.7 -1.79165 -2.56649 0
M  V30 4775 C 465.175 -2.8133 -3.6141 0
M  V30 4776 N 466.666 -2.80118 -3.68901 0
M  V30 4777 C 467.401 -3.55824 -4.49641 0
M  V30 4778 N 466.897 -4.41231 -5.34123 0
M  V30 4779 N 468.69 -3.44387 -4.44246 0
M  V30 4780 H 460.841 -1.9391 -0.866764 0
M  V30 4781 H 463.104 -0.838074 -0.443098 0
M  V30 4782 H 462.81 -2.7884 -2.14339 0
M  V30 4783 H 462.684 -1.59108 -3.42001 0
M  V30 4784 H 465.071 -0.782702 -2.84531 0
M  V30 4785 H 465.152 -2.01396 -1.57713 0
M  V30 4786 H 464.796 -3.82394 -3.34271 0
M  V30 4787 H 464.726 -2.56359 -4.59986 0
M  V30 4788 H 467.217 -2.1817 -3.08562 0
M  V30 4789 H 467.53 -4.95747 -5.92836 0
M  V30 4790 H 465.875 -4.45306 -5.33599 0
M  V30 4791 H 469.066 -2.7708 -3.77285 0
M  V30 4792 H 469.239 -4.0364 -5.06931 0
M  V30 4793 N 462.645 1.35699 -0.801477 0
M  V30 4794 C 464.056 1.81415 -0.441073 0
M  V30 4795 C 464.407 1.66595 1.03636 0
M  V30 4796 O 463.532 1.19369 1.80499 0
M  V30 4797 C 464.127 3.29369 -0.793819 0
M  V30 4798 C 462.686 3.73248 -0.486083 0
M  V30 4799 C 461.833 2.57775 -1.02213 0
M  V30 4800 H 464.784 1.23749 -0.993572 0
M  V30 4801 H 464.805 3.80395 -0.0894158 0
M  V30 4802 H 464.317 3.40123 -1.86917 0
M  V30 4803 H 462.418 3.68046 0.580735 0
M  V30 4804 H 462.531 4.68222 -1.01513 0
M  V30 4805 H 460.895 2.50788 -0.444712 0
M  V30 4806 H 461.678 2.71309 -2.10348 0
M  V30 4807 N 464.123 0.554532 1.47522 0
M  V30 4808 C 465.348 0.0322661 2.07375 0
M  V30 4809 C 465.773 -1.25079 1.40488 0
M  V30 4810 O 465.131 -1.74859 0.47896 0
M  V30 4811 C 465.179 -0.149397 3.6029 0
M  V30 4812 O 464.283 -1.21259 3.9417 0
M  V30 4813 H 463.624 0.0501228 0.662106 0
M  V30 4814 H 466.154 0.769452 1.8958 0
M  V30 4815 H 466.164 -0.364437 4.06369 0
M  V30 4816 H 464.839 0.787743 4.08372 0
M  V30 4817 H 463.416 -0.97825 3.5984 0
M  V30 4818 N 465.601 -1.54893 0.290851 0
M  V30 4819 C 466.534 -2.19289 -0.631489 0
M  V30 4820 C 467.512 -1.15893 -1.14051 0
M  V30 4821 O 468.696 -1.4449 -1.21058 0
M  V30 4822 C 465.823 -2.82866 -1.86291 0
M  V30 4823 C 464.869 -3.997 -1.48801 0
M  V30 4824 S 465.702 -5.32641 -0.552644 0
M  V30 4825 C 466.858 -5.99696 -1.79209 0
M  V30 4826 H 467.091 -2.9718 -0.0843791 0
M  V30 4827 H 464.624 -1.54218 0.075031 0
M  V30 4828 H 466.582 -3.20124 -2.56964 0
M  V30 4829 H 465.243 -2.04839 -2.38117 0
M  V30 4830 H 464.436 -4.42932 -2.40473 0
M  V30 4831 H 464.038 -3.63947 -0.861321 0
M  V30 4832 H 466.33 -6.19886 -2.734 0
M  V30 4833 H 467.273 -6.94071 -1.40251 0
M  V30 4834 H 467.681 -5.29226 -1.96419 0
M  V30 4835 N 467.08 -0.0183926 -1.57589 0
M  V30 4836 C 468.328 0.661253 -1.90976 0
M  V30 4837 C 468.649 1.73281 -0.894353 0
M  V30 4838 O 467.919 1.9579 0.0656788 0
M  V30 4839 H 466.499 0.247233 -0.704901 0
M  V30 4840 H 469.161 -0.0636639 -1.94796 0
M  V30 4841 H 468.257 1.12083 -2.9128 0
M  V30 4842 N 468.558 1.5553 0.254621 0
M  V30 4843 C 469.488 1.9268 1.31897 0
M  V30 4844 C 470.469 0.790797 1.506 0
M  V30 4845 O 471.654 1.05045 1.63337 0
M  V30 4846 C 468.784 2.21477 2.67517 0
M  V30 4847 C 467.738 3.37256 2.63519 0
M  V30 4848 C 467.064 3.51576 4.02862 0
M  V30 4849 C 468.364 4.73157 2.21179 0
M  V30 4850 H 470.058 2.81832 1.01051 0
M  V30 4851 H 467.604 1.35599 0.484662 0
M  V30 4852 H 469.557 2.46055 3.42104 0
M  V30 4853 H 468.281 1.29144 2.99982 0
M  V30 4854 H 466.94 3.12675 1.9139 0
M  V30 4855 H 466.588 2.56676 4.32581 0
M  V30 4856 H 466.288 4.2943 4.01078 0
M  V30 4857 H 467.812 3.78467 4.79161 0
M  V30 4858 H 469.226 4.97158 2.85494 0
M  V30 4859 H 467.623 5.54058 2.30521 0
M  V30 4860 H 468.693 4.70739 1.16332 0
M  V30 4861 N 470.036 -0.519951 1.48776 0
M  V30 4862 C 471.282 -1.27711 1.57536 0
M  V30 4863 C 471.615 -1.92547 0.252866 0
M  V30 4864 O 470.89 -1.7979 -0.742021 0
M  V30 4865 C 471.173 -2.35875 2.72094 0
M  V30 4866 C 471.026 -1.75664 4.1408 0
M  V30 4867 C 472.345 -3.37575 2.82367 0
M  V30 4868 H 469.464 -0.462971 0.573434 0
M  V30 4869 H 472.106 -0.578194 1.80989 0
M  V30 4870 H 470.256 -2.95488 2.52228 0
M  V30 4871 H 471.928 -1.20025 4.45412 0
M  V30 4872 H 470.171 -1.06154 4.20611 0
M  V30 4873 H 470.842 -2.54029 4.90075 0
M  V30 4874 H 473.318 -2.87929 3.00393 0
M  V30 4875 H 472.194 -4.1064 3.64233 0
M  V30 4876 H 472.455 -3.98743 1.90936 0
M  V30 4877 N 471.514 -1.37532 -0.769588 0
M  V30 4878 C 472.477 -1.33292 -1.86456 0
M  V30 4879 C 473.477 -0.236537 -1.59051 0
M  V30 4880 O 474.667 -0.492511 -1.67093 0
M  V30 4881 C 471.799 -1.07118 -3.23633 0
M  V30 4882 H 472.992 -2.30692 -1.91628 0
M  V30 4883 H 470.545 -1.22593 -0.969572 0
M  V30 4884 H 471.28 -0.102578 -3.24138 0
M  V30 4885 H 471.065 -1.86479 -3.44917 0
M  V30 4886 H 472.555 -1.06806 -4.03711 0
M  V30 4887 N 472.992 0.995999 -1.22138 0
M  V30 4888 C 473.94 2.10673 -0.985876 0
M  V30 4889 C 474.934 1.69255 0.0699553 0
M  V30 4890 O 476.14 1.79812 -0.0822176 0
M  V30 4891 H 472.515 0.688865 -0.30161 0
M  V30 4892 H 474.486 2.27711 -1.92848 0
M  V30 4893 C 473.235 3.42881 -0.576909 0
M  V30 4894 H 472.558 3.75191 -1.38101 0
M  V30 4895 H 473.998 4.21589 -0.451518 0
M  V30 4896 C 472.457 3.29265 0.713196 0
M  V30 4897 O 472.987 3.60777 1.76643 0
M  V30 4898 N 471.193 2.82456 0.683162 0
M  V30 4899 H 470.74 2.5701 -0.174242 0
M  V30 4900 H 470.698 2.73727 1.54663 0
M  V30 4901 N 474.47 1.03057 1.19235 0
M  V30 4902 C 475.698 0.747697 1.92917 0
M  V30 4903 C 476.113 -0.69372 1.75593 0
M  V30 4904 O 475.47 -1.47191 1.07894 0
M  V30 4905 C 475.521 1.09159 3.44625 0
M  V30 4906 O 475.242 2.47641 3.61394 0
M  V30 4907 C 476.743 0.831763 4.35427 0
M  V30 4908 H 473.963 0.273453 0.612751 0
M  V30 4909 H 476.507 1.37552 1.51327 0
M  V30 4910 H 474.662 0.508919 3.84043 0
M  V30 4911 H 475.076 2.60499 4.55237 0
M  V30 4912 H 476.55 1.12233 5.4047 0
M  V30 4913 H 477.027 -0.233769 4.38577 0
M  V30 4914 H 477.633 1.39725 4.01693 0
M  V30 4915 N 475.948 -1.35272 0.808662 0
M  V30 4916 C 476.895 -2.29764 0.218482 0
M  V30 4917 C 477.865 -1.52911 -0.648652 0
M  V30 4918 O 479.05 -1.81341 -0.593297 0
M  V30 4919 C 476.19 -3.39388 -0.625282 0
M  V30 4920 C 475.303 -4.31202 0.262516 0
M  V30 4921 C 474.438 -5.27919 -0.589451 0
M  V30 4922 C 473.477 -6.11371 0.298617 0
M  V30 4923 N 472.614 -7.0022 -0.513443 0
M  V30 4924 H 477.454 -2.79645 1.02968 0
M  V30 4925 H 474.991 -1.37629 0.519303 0
M  V30 4926 H 476.949 -4.01615 -1.12966 0
M  V30 4927 H 475.579 -2.90777 -1.40173 0
M  V30 4928 H 474.631 -3.69962 0.885013 0
M  V30 4929 H 475.943 -4.89748 0.945971 0
M  V30 4930 H 475.097 -5.95529 -1.15888 0
M  V30 4931 H 473.836 -4.69875 -1.30647 0
M  V30 4932 H 472.841 -5.42707 0.880301 0
M  V30 4933 H 474.066 -6.71494 1.01352 0
M  V30 4934 H 472.012 -6.44662 -1.21439 0
M  V30 4935 H 471.929 -7.55917 0.111922 0
M  V30 4936 H 473.197 -7.72175 -1.06608 0
M  V30 4937 N 477.426 -0.562348 -1.47226 0
M  V30 4938 C 478.837 -0.130325 -1.86245 0
M  V30 4939 C 479.188 1.30128 -1.46838 0
M  V30 4940 O 478.313 1.97974 -0.873805 0
M  V30 4941 C 478.908 -0.229738 -3.3802 0
M  V30 4942 C 477.467 0.14728 -3.76112 0
M  V30 4943 C 476.614 -0.574971 -2.71274 0
M  V30 4944 H 479.565 -0.771773 -1.3867 0
M  V30 4945 H 479.586 0.550316 -3.76499 0
M  V30 4946 H 479.098 -1.27178 -3.66671 0
M  V30 4947 H 477.199 1.19023 -3.53078 0
M  V30 4948 H 477.312 -0.214858 -4.78618 0
M  V30 4949 H 475.676 -0.0174756 -2.54694 0
M  V30 4950 H 476.459 -1.61827 -3.02766 0
M  V30 4951 N 478.904 1.54736 -0.299062 0
M  V30 4952 C 480.153 1.99279 0.311549 0
M  V30 4953 C 480.466 1.19107 1.55154 0
M  V30 4954 O 481.672 1.53908 2.23662 0
M  V30 4955 C 480.128 3.54768 0.605632 0
M  V30 4956 C 479.736 4.43746 -0.615914 0
M  V30 4957 C 481.48 4.07841 1.17754 0
M  V30 4958 C 479.387 5.90663 -0.29509 0
M  V30 4959 H 478.317 0.744359 0.120187 0
M  V30 4960 H 480.968 1.78919 -0.407464 0
M  V30 4961 H 479.35 3.71021 1.38419 0
M  V30 4962 H 480.524 4.39267 -1.39218 0
M  V30 4963 H 478.839 4.01434 -1.10633 0
M  V30 4964 H 481.436 5.15174 1.43179 0
M  V30 4965 H 481.779 3.58324 2.11918 0
M  V30 4966 H 482.312 3.95123 0.460739 0
M  V30 4967 H 479.051 6.44325 -1.20524 0
M  V30 4968 H 478.571 5.98155 0.44394 0
M  V30 4969 H 480.25 6.46916 0.104048 0
M  V30 4970 N 480.382 0.0267497 1.57577 0
M  V30 4971 C 481.798 -0.32962 1.56159 0
M  V30 4972 C 481.998 -1.73059 1.03213 0
M  V30 4973 O 481.054 -2.43233 0.677804 0
M  V30 4974 C 482.367 -0.18039 3.00158 0
M  V30 4975 C 483.915 -0.253334 3.11973 0
M  V30 4976 C 484.39 -0.132921 4.57807 0
M  V30 4977 N 485.881 -0.189979 4.6281 0
M  V30 4978 C 486.616 -0.120554 5.73273 0
M  V30 4979 N 486.112 -0.000180315 6.928 0
M  V30 4980 N 487.905 -0.174369 5.61829 0
M  V30 4981 H 480.056 0.942896 1.90324 0
M  V30 4982 H 482.319 0.3639 0.875375 0
M  V30 4983 H 482.025 0.784576 3.42837 0
M  V30 4984 H 481.899 -0.951565 3.65 0
M  V30 4985 H 484.286 -1.20876 2.69208 0
M  V30 4986 H 484.367 0.548177 2.49857 0
M  V30 4987 H 484.011 0.819073 5.01252 0
M  V30 4988 H 483.941 -0.953264 5.179 0
M  V30 4989 H 486.432 -0.283257 3.76837 0
M  V30 4990 H 486.745 0.0461666 7.72786 0
M  V30 4991 H 485.09 0.034569 6.94991 0
M  V30 4992 H 488.281 -0.266794 4.67339 0
M  V30 4993 H 488.454 -0.116802 6.47895 0
M  V30 4994 N 481.861 -1.55662 -0.24637 0
M  V30 4995 C 483.272 -1.67953 -0.81539 0
M  V30 4996 C 483.623 -0.624302 -1.86002 0
M  V30 4997 O 482.748 0.229328 -2.15181 0
M  V30 4998 C 483.343 -3.04484 -1.48576 0
M  V30 4999 C 481.902 -3.18713 -2.00248 0
M  V30 5000 C 481.049 -2.6383 -0.853766 0
M  V30 5001 H 484 -1.58685 -0.0221692 0
M  V30 5002 H 484.021 -2.98959 -2.3538 0
M  V30 5003 H 483.533 -3.81264 -0.725222 0
M  V30 5004 H 481.634 -2.46757 -2.79181 0
M  V30 5005 H 481.747 -4.25628 -2.1995 0
M  V30 5006 H 480.111 -2.21667 -1.25442 0
M  V30 5007 H 480.894 -3.43135 -0.106302 0
M  V30 5008 N 483.339 0.512053 -1.4905 0
M  V30 5009 C 484.755 0.84224 -1.35567 0
M  V30 5010 C 484.955 1.97878 -0.380319 0
M  V30 5011 O 484.011 2.51769 0.19201 0
M  V30 5012 C 485.324 1.19286 -2.76028 0
M  V30 5013 C 486.872 1.30171 -2.84648 0
M  V30 5014 C 487.347 1.68568 -4.25851 0
M  V30 5015 N 488.838 1.75638 -4.28609 0
M  V30 5016 C 489.573 2.06769 -5.34821 0
M  V30 5017 N 489.069 2.36201 -6.51292 0
M  V30 5018 N 490.862 2.07927 -5.22229 0
M  V30 5019 H 483.013 -0.237574 -2.11067 0
M  V30 5020 H 485.276 -0.0436747 -0.946993 0
M  V30 5021 H 484.982 0.431199 -3.49047 0
M  V30 5022 H 484.856 2.13889 -3.10695 0
M  V30 5023 H 487.243 2.05411 -2.11873 0
M  V30 5024 H 487.324 0.336457 -2.53578 0
M  V30 5025 H 486.968 0.938824 -4.99148 0
M  V30 5026 H 486.898 2.66174 -4.54377 0
M  V30 5027 H 489.389 1.55097 -3.44606 0
M  V30 5028 H 489.702 2.59112 -7.28066 0
M  V30 5029 H 488.047 2.33681 -6.54536 0
M  V30 5030 H 491.238 1.84403 -4.30248 0
M  V30 5031 H 491.411 2.31856 -6.05101 0
M  V30 5032 N 484.817 1.37938 0.762283 0
M  V30 5033 C 486.066 1.32989 1.51647 0
M  V30 5034 C 486.379 -0.0802922 1.95435 0
M  V30 5035 O 487.585 -0.252295 2.70325 0
M  V30 5036 C 486.041 2.33485 2.73885 0
M  V30 5037 C 485.649 3.80079 2.37157 0
M  V30 5038 C 487.393 2.37563 3.51801 0
M  V30 5039 C 485.3 4.72283 3.55954 0
M  V30 5040 H 484.23 0.494301 0.56937 0
M  V30 5041 H 486.881 1.63448 0.834083 0
M  V30 5042 H 485.263 1.96056 3.44061 0
M  V30 5043 H 486.437 4.26398 1.74704 0
M  V30 5044 H 484.752 3.79037 1.72395 0
M  V30 5045 H 487.349 3.0365 4.40114 0
M  V30 5046 H 487.692 1.39199 3.92338 0
M  V30 5047 H 488.225 2.73747 2.8863 0
M  V30 5048 H 484.964 5.7181 3.2049 0
M  V30 5049 H 484.484 4.30663 4.1748 0
M  V30 5050 H 486.163 4.89876 4.22647 0
M  V30 5051 N 486.295 -0.989507 1.22664 0
M  V30 5052 C 487.227 -2.0824 0.957542 0
M  V30 5053 C 488.24 -1.6267 -0.0651098 0
M  V30 5054 O 489.429 -1.77695 0.169312 0
M  V30 5055 C 486.529 -3.36298 0.419145 0
M  V30 5056 C 485.702 -4.10882 1.49982 0
M  V30 5057 C 484.761 -5.17221 0.967904 0
M  V30 5058 O 483.787 -5.44613 1.65487 0
M  V30 5059 N 484.989 -5.80124 -0.20896 0
M  V30 5060 H 487.754 -2.31904 1.89843 0
M  V30 5061 H 485.315 -1.15552 1.13399 0
M  V30 5062 H 487.307 -4.04671 0.0485451 0
M  V30 5063 H 485.877 -3.09671 -0.426937 0
M  V30 5064 H 485.097 -3.37092 2.04359 0
M  V30 5065 H 486.385 -4.57482 2.22682 0
M  V30 5066 H 485.783 -5.60244 -0.783818 0
M  V30 5067 H 484.34 -6.49715 -0.520913 0
M  V30 5068 N 487.773 -1.03688 -1.18687 0
M  V30 5069 C 489.003 -0.756819 -1.92239 0
M  V30 5070 C 489.411 0.689374 -1.76194 0
M  V30 5071 O 488.754 1.48126 -1.08648 0
M  V30 5072 C 488.816 -1.03851 -3.44173 0
M  V30 5073 C 488.48 -2.47785 -3.83994 0
M  V30 5074 C 489.477 -3.4595 -3.88091 0
M  V30 5075 C 487.162 -2.82397 -4.154 0
M  V30 5076 C 489.156 -4.76779 -4.23038 0
M  V30 5077 C 486.843 -4.13433 -4.50018 0
M  V30 5078 C 487.841 -5.10434 -4.53813 0
M  V30 5079 O 487.529 -6.39122 -4.87625 0
M  V30 5080 H 487.261 -0.275678 -0.617234 0
M  V30 5081 H 489.815 -1.38658 -1.51536 0
M  V30 5082 H 488.045 -0.351612 -3.85098 0
M  V30 5083 H 489.734 -0.746846 -3.9897 0
M  V30 5084 H 490.5 -3.20549 -3.63969 0
M  V30 5085 H 486.379 -2.07568 -4.11627 0
M  V30 5086 H 489.923 -5.52488 -4.25914 0
M  V30 5087 H 485.82 -4.38604 -4.736 0
M  V30 5088 H 486.588 -6.43715 -5.05542 0
M  V30 5089 N 489.251 1.34841 -0.815825 0
M  V30 5090 C 490.498 1.98499 -0.400535 0
M  V30 5091 C 490.826 1.64699 1.03463 0
M  V30 5092 O 490.081 0.907006 1.73412 0
M  V30 5093 C 490.38 3.53273 -0.541541 0
M  V30 5094 C 490.046 4.06966 -1.94138 0
M  V30 5095 C 488.708 4.21341 -2.32433 0
M  V30 5096 C 491.06 4.35933 -2.85677 0
M  V30 5097 C 488.388 4.62007 -3.61617 0
M  V30 5098 C 490.74 4.78042 -4.14317 0
M  V30 5099 C 489.404 4.90622 -4.52599 0
M  V30 5100 H 488.674 0.72636 -0.146566 0
M  V30 5101 H 491.321 1.60902 -1.0384 0
M  V30 5102 H 489.626 3.91387 0.179741 0
M  V30 5103 H 491.323 4.00497 -0.20085 0
M  V30 5104 H 487.913 3.96235 -1.63388 0
M  V30 5105 H 492.097 4.24372 -2.57337 0
M  V30 5106 H 487.353 4.69937 -3.91113 0
M  V30 5107 H 491.527 4.99415 -4.85342 0
M  V30 5108 H 489.154 5.2189 -5.52752 0
M  V30 5109 N 490.729 0.570148 1.46925 0
M  V30 5110 C 491.976 0.0509529 2.02436 0
M  V30 5111 C 492.304 -1.30405 1.44308 0
M  V30 5112 O 491.559 -1.86493 0.593198 0
M  V30 5113 C 491.858 -0.0780336 3.57315 0
M  V30 5114 C 491.524 1.20775 4.34424 0
M  V30 5115 C 490.186 1.56004 4.5521 0
M  V30 5116 C 492.538 2.0592 4.78797 0
M  V30 5117 C 489.866 2.76201 5.17619 0
M  V30 5118 C 492.218 3.25332 5.42533 0
M  V30 5119 C 490.882 3.60859 5.61549 0
M  V30 5120 H 490.152 0.018645 0.740765 0
M  V30 5121 H 492.799 0.744262 1.76445 0
M  V30 5122 H 491.104 -0.854394 3.82371 0
M  V30 5123 H 492.801 -0.495312 3.97929 0
M  V30 5124 H 489.391 0.923469 4.18533 0
M  V30 5125 H 493.575 1.80008 4.62505 0
M  V30 5126 H 488.831 3.0388 5.30535 0
M  V30 5127 H 493.005 3.91586 5.75876 0
M  V30 5128 H 490.632 4.54088 6.09678 0
M  V30 5129 N 492.207 -1.54576 0.307264 0
M  V30 5130 C 493.17 -2.22423 -0.553224 0
M  V30 5131 C 494.17 -1.21231 -1.05639 0
M  V30 5132 O 495.36 -1.45923 -0.951419 0
M  V30 5133 C 492.492 -2.91552 -1.76664 0
M  V30 5134 H 493.685 -2.99874 0.0396484 0
M  V30 5135 H 491.238 -1.56192 0.0581629 0
M  V30 5136 H 491.973 -2.18196 -2.39918 0
M  V30 5137 H 491.758 -3.65738 -1.41343 0
M  V30 5138 H 493.248 -3.43292 -2.37783 0
M  V30 5139 N 493.685 -0.035106 -1.57561 0
M  V30 5140 C 494.648 0.929819 -2.09492 0
M  V30 5141 C 495.648 1.25026 -1.01119 0
M  V30 5142 O 496.838 1.18961 -1.27255 0
M  V30 5143 C 493.97 2.24457 -2.56577 0
M  V30 5144 H 495.163 0.479935 -2.96035 0
M  V30 5145 H 492.716 0.213033 -1.54841 0
M  V30 5146 H 493.451 2.74061 -1.73382 0
M  V30 5147 H 493.236 2.02508 -3.35757 0
M  V30 5148 H 494.726 2.93607 -2.96959 0
M  V30 5149 N 495.163 1.55791 0.238111 0
M  V30 5150 C 496.388 1.8244 0.986432 0
M  V30 5151 C 496.813 0.613314 1.7782 0
M  V30 5152 O 496.171 -0.437767 1.75935 0
M  V30 5153 C 496.219 3.06917 1.893 0
M  V30 5154 O 495.323 2.84449 2.98601 0
M  V30 5155 H 494.664 0.601975 0.280218 0
M  V30 5156 H 497.194 2.02987 0.256437 0
M  V30 5157 H 497.204 3.36583 2.30598 0
M  V30 5158 H 495.879 3.947 1.31091 0
M  V30 5159 H 494.456 2.65972 2.61368 0
M  V30 5160 N 496.642 -0.504142 1.49319 0
M  V30 5161 C 497.888 -1.26033 1.58882 0
M  V30 5162 C 498.221 -1.92268 0.273274 0
M  V30 5163 O 497.496 -1.80567 -0.72291 0
M  V30 5164 C 497.779 -2.32976 2.7458 0
M  V30 5165 C 497.632 -1.71263 4.1592 0
M  V30 5166 C 498.951 -3.34561 2.85932 0
M  V30 5167 H 496.07 -0.456863 0.578312 0
M  V30 5168 H 498.712 -0.558965 1.81592 0
M  V30 5169 H 496.862 -2.92796 2.55348 0
M  V30 5170 H 498.534 -1.15294 4.4666 0
M  V30 5171 H 496.777 -1.01686 4.21714 0
M  V30 5172 H 497.448 -2.48816 4.92742 0
M  V30 5173 H 499.924 -2.84727 3.0343 0
M  V30 5174 H 498.8 -4.06754 3.68568 0
M  V30 5175 H 499.061 -3.96695 1.95154 0
M  V30 5176 N 498.12 -1.38341 -0.754957 0
M  V30 5177 C 499.366 -1.34672 -1.51628 0
M  V30 5178 C 499.699 0.0636036 -1.94096 0
M  V30 5179 O 498.974 1.0245 -1.6533 0
M  V30 5180 C 499.257 -2.30116 -2.76981 0
M  V30 5181 C 499.11 -3.80003 -2.4066 0
M  V30 5182 C 500.429 -2.23715 -3.78998 0
M  V30 5183 H 497.548 -0.490517 -0.550056 0
M  V30 5184 H 500.19 -1.69178 -0.864807 0
M  V30 5185 H 498.34 -2.00821 -3.3257 0
M  V30 5186 H 500.012 -4.19966 -1.90856 0
M  V30 5187 H 498.255 -3.97751 -1.73137 0
M  V30 5188 H 498.926 -4.42244 -3.30339 0
M  V30 5189 H 501.402 -2.49574 -3.32945 0
M  V30 5190 H 500.278 -2.9261 -4.64403 0
M  V30 5191 H 500.539 -1.23554 -4.24484 0
M  V30 5192 N 499.598 0.982988 -1.23187 0
M  V30 5193 C 500.561 2.05649 -1.01198 0
M  V30 5194 C 501.561 1.6078 0.0252464 0
M  V30 5195 O 502.751 1.72878 -0.214243 0
M  V30 5196 C 499.883 3.36744 -0.530656 0
M  V30 5197 H 501.076 2.2659 -1.96461 0
M  V30 5198 H 498.629 1.15602 -1.05195 0
M  V30 5199 H 499.364 3.21492 0.425873 0
M  V30 5200 H 499.149 3.7065 -1.2791 0
M  V30 5201 H 500.639 4.15705 -0.397366 0
M  V30 5202 N 501.076 1.04316 1.18135 0
M  V30 5203 C 502.024 0.630175 2.23901 0
M  V30 5204 C 503.018 -0.344254 1.65865 0
M  V30 5205 O 504.224 -0.211273 1.78756 0
M  V30 5206 H 500.599 0.185578 0.728742 0
M  V30 5207 H 502.57 1.53253 2.56039 0
M  V30 5208 C 501.319 0.011666 3.47698 0
M  V30 5209 H 500.642 0.752526 3.92654 0
M  V30 5210 H 502.082 -0.240046 4.2332 0
M  V30 5211 C 500.541 -1.23913 3.13285 0
M  V30 5212 O 501.071 -2.32959 3.27251 0
M  V30 5213 N 499.277 -1.13338 2.67587 0
M  V30 5214 H 498.824 -0.246006 2.56423 0
M  V30 5215 H 498.782 -1.97116 2.44934 0
M  V30 5216 N 502.554 -1.34406 0.822964 0
M  V30 5217 C 503.802 -1.97892 0.410245 0
M  V30 5218 C 504.123 -1.65567 -1.03017 0
M  V30 5219 O 503.393 -0.94642 -1.71522 0
M  V30 5220 H 501.973 -0.732049 0.148707 0
M  V30 5221 H 504.635 -1.64043 1.05242 0
M  V30 5222 H 503.731 -3.07579 0.529284 0
M  V30 5223 N 504.032 -0.577932 -1.46621 0
M  V30 5224 C 505.278 -0.0617793 -2.02706 0
M  V30 5225 C 505.611 1.29294 -1.44903 0
M  V30 5226 O 504.886 1.8461 -0.61232 0
M  V30 5227 C 505.169 0.00911824 -3.60099 0
M  V30 5228 C 505.022 -1.37416 -4.28295 0
M  V30 5229 C 506.341 0.712159 -4.343 0
M  V30 5230 H 503.46 -0.0239246 -0.736612 0
M  V30 5231 H 506.102 -0.744211 -1.74818 0
M  V30 5232 H 504.252 0.590292 -3.83989 0
M  V30 5233 H 505.924 -2.00013 -4.15683 0
M  V30 5234 H 504.167 -1.94319 -3.87843 0
M  V30 5235 H 504.838 -1.27707 -5.37024 0
M  V30 5236 H 507.314 0.218486 -4.15526 0
M  V30 5237 H 506.19 0.730782 -5.44014 0
M  V30 5238 H 506.451 1.77251 -4.05012 0
M  V30 5239 N 505.51 1.54411 -0.315457 0
M  V30 5240 C 506.75 2.02329 0.290236 0
M  V30 5241 C 507.114 1.19878 1.49977 0
M  V30 5242 O 508.315 1.57562 2.17779 0
M  V30 5243 C 506.586 3.51912 0.623937 0
M  V30 5244 S 508.145 4.21775 1.21044 0
M  V30 5245 H 504.963 0.705499 0.0882739 0
M  V30 5246 H 507.565 1.90328 -0.446694 0
M  V30 5247 H 506.269 4.09546 -0.264624 0
M  V30 5248 H 505.8 3.67977 1.39128 0
M  V30 5249 H 507.815 4.28757 2.49764 0
M  V30 5250 N 506.988 0.0434614 1.5754 0
M  V30 5251 C 507.938 -0.943039 2.07583 0
M  V30 5252 C 508.922 -1.27662 0.979342 0
M  V30 5253 O 510.114 -1.26034 1.24276 0
M  V30 5254 C 507.243 -2.22056 2.61813 0
M  V30 5255 C 506.329 -1.91471 3.78417 0
M  V30 5256 N 506.72 -1.31214 4.88484 0
M  V30 5257 C 505.018 -2.21384 3.87176 0
M  V30 5258 C 505.719 -1.18084 5.69588 0
M  V30 5259 N 504.695 -1.68116 5.16951 0
M  V30 5260 H 508.497 -0.472354 2.90079 0
M  V30 5261 H 506.011 -0.161191 1.61598 0
M  V30 5262 H 508.008 -2.93618 2.95963 0
M  V30 5263 H 506.668 -2.69738 1.80752 0
M  V30 5264 H 507.679 -0.985318 5.08441 0
M  V30 5265 H 504.356 -2.7164 3.17046 0
M  V30 5266 H 505.746 -0.713684 6.68099 0
M  V30 5267 N 508.466 -1.55915 -0.229846 0
M  V30 5268 C 509.399 -1.86734 -1.3117 0
M  V30 5269 C 510.377 -0.723947 -1.45595 0
M  V30 5270 O 511.561 -0.971462 -1.61539 0
M  V30 5271 C 508.688 -2.06707 -2.68309 0
M  V30 5272 C 507.734 -3.2938 -2.70944 0
M  V30 5273 S 508.567 -4.85547 -2.25842 0
M  V30 5274 C 509.723 -5.08546 -3.64873 0
M  V30 5275 H 509.956 -2.78204 -1.04832 0
M  V30 5276 H 507.489 -1.48243 -0.431681 0
M  V30 5277 H 509.447 -2.18898 -3.47267 0
M  V30 5278 H 508.108 -1.16049 -2.91876 0
M  V30 5279 H 507.301 -3.40374 -3.71701 0
M  V30 5280 H 506.903 -3.16004 -2.00044 0
M  V30 5281 H 509.195 -4.96935 -4.60502 0
M  V30 5282 H 510.138 -6.10465 -3.58801 0
M  V30 5283 H 510.546 -4.36314 -3.58176 0
M  V30 5284 N 509.944 0.496216 -1.49584 0
M  V30 5285 C 510.874 1.60576 -1.69521 0
M  V30 5286 C 511.855 1.61169 -0.543933 0
M  V30 5287 O 513.04 1.77834 -0.78031 0
M  V30 5288 C 510.17 2.99038 -1.76616 0
M  V30 5289 C 509.124 3.13312 -2.91581 0
M  V30 5290 C 508.45 4.53172 -2.83794 0
M  V30 5291 C 509.75 2.92886 -4.32452 0
M  V30 5292 H 511.444 1.44146 -2.62416 0
M  V30 5293 H 508.99 0.692024 -1.26282 0
M  V30 5294 H 510.943 3.76564 -1.8915 0
M  V30 5295 H 509.667 3.16568 -0.80324 0
M  V30 5296 H 508.326 2.38213 -2.78658 0
M  V30 5297 H 507.974 4.67585 -1.854 0
M  V30 5298 H 507.674 4.63662 -3.60958 0
M  V30 5299 H 509.198 5.32752 -2.98342 0
M  V30 5300 H 510.612 3.60178 -4.46032 0
M  V30 5301 H 509.009 3.14844 -5.10875 0
M  V30 5302 H 510.079 1.88966 -4.46565 0
M  V30 5303 N 511.423 1.38739 0.74761 0
M  V30 5304 C 512.386 1.36241 1.84312 0
M  V30 5305 C 513.386 0.261811 1.58654 0
M  V30 5306 O 514.576 0.519031 1.66288 0
M  V30 5307 C 511.708 1.12253 3.21888 0
M  V30 5308 H 512.901 2.33712 1.87933 0
M  V30 5309 H 510.454 1.2412 0.949946 0
M  V30 5310 H 511.189 0.154133 3.23934 0
M  V30 5311 H 510.974 1.91943 3.41907 0
M  V30 5312 H 512.464 1.13215 4.0196 0
M  V30 5313 N 512.901 -0.976442 1.23707 0
M  V30 5314 C 514.312 -1.53284 1.06587 0
M  V30 5315 C 514.663 -1.92765 -0.365526 0
M  V30 5316 O 513.788 -1.7645 -1.25277 0
M  V30 5317 C 514.383 -2.78548 1.92864 0
M  V30 5318 C 512.942 -3.30574 1.79994 0
M  V30 5319 C 512.089 -2.03538 1.88328 0
M  V30 5320 H 515.04 -0.795692 1.37311 0
M  V30 5321 H 515.061 -3.5155 1.45577 0
M  V30 5322 H 514.573 -2.49782 2.97037 0
M  V30 5323 H 512.674 -3.64211 0.786202 0
M  V30 5324 H 512.787 -4.00065 2.636 0
M  V30 5325 H 511.151 -2.17853 1.31954 0
M  V30 5326 H 511.934 -1.77149 2.94063 0
M  V30 5327 N 514.379 -1.04941 -1.1758 0
M  V30 5328 C 515.309 -0.669172 -2.23706 0
M  V30 5329 C 516.29 0.331835 -1.66832 0
M  V30 5330 O 517.475 0.209988 -1.93061 0
M  V30 5331 C 514.605 -0.0404889 -3.47276 0
M  V30 5332 C 513.559 -0.965983 -4.16957 0
M  V30 5333 C 512.885 -0.201312 -5.34321 0
M  V30 5334 C 514.185 -2.28902 -4.69469 0
M  V30 5335 H 515.879 -1.55639 -2.55767 0
M  V30 5336 H 513.425 -0.749793 -1.22939 0
M  V30 5337 H 515.378 0.237298 -4.20731 0
M  V30 5338 H 514.102 0.881658 -3.14475 0
M  V30 5339 H 512.761 -1.22829 -3.45411 0
M  V30 5340 H 512.409 0.723519 -4.97769 0
M  V30 5341 H 512.109 -0.817968 -5.81879 0
M  V30 5342 H 513.633 0.0692499 -6.10561 0
M  V30 5343 H 515.047 -2.07132 -5.34574 0
M  V30 5344 H 513.444 -2.85942 -5.27596 0
M  V30 5345 H 514.514 -2.92937 -3.86414 0
M  V30 5346 N 515.857 1.33968 -0.830081 0
M  V30 5347 C 517.082 2.02813 -0.433796 0
M  V30 5348 C 517.507 1.62076 0.954614 0
M  V30 5349 O 516.865 0.808955 1.62252 0
M  V30 5350 C 516.913 3.56348 -0.552115 0
M  V30 5351 O 516.017 4.10202 0.425191 0
M  V30 5352 H 515.358 0.639817 -0.177567 0
M  V30 5353 H 517.888 1.7106 -1.12248 0
M  V30 5354 H 517.898 4.05722 -0.430513 0
M  V30 5355 H 516.573 3.85344 -1.56471 0
M  V30 5356 H 515.15 3.71979 0.261878 0
M  V30 5357 N 517.335 0.585699 1.46312 0
M  V30 5358 C 518.563 0.0781299 2.06752 0
M  V30 5359 C 518.978 -1.22812 1.43396 0
M  V30 5360 O 518.335 -1.74318 0.540314 0
M  V30 5361 C 518.386 -0.0911927 3.61385 0
M  V30 5362 O 518.107 1.16336 4.22371 0
M  V30 5363 C 519.608 -0.632765 4.38761 0
M  V30 5364 H 516.828 0.0588188 0.668417 0
M  V30 5365 H 519.372 0.807218 1.87894 0
M  V30 5366 H 517.527 -0.770514 3.7966 0
M  V30 5367 H 517.941 0.979082 5.15281 0
M  V30 5368 H 519.415 -0.70041 5.47538 0
M  V30 5369 H 519.892 -1.65039 4.07012 0
M  V30 5370 H 520.498 0.0117856 4.25298 0
M  V30 5371 N 518.813 -1.54241 0.323641 0
M  V30 5372 C 520.041 -2.04985 -0.280871 0
M  V30 5373 C 520.456 -1.19978 -1.45777 0
M  V30 5374 O 519.813 -0.230471 -1.81039 0
M  V30 5375 C 519.864 -3.54353 -0.715258 0
M  V30 5376 O 519.585 -4.36132 0.414817 0
M  V30 5377 C 521.086 -4.21189 -1.38257 0
M  V30 5378 H 518.306 -0.66851 -0.0577502 0
M  V30 5379 H 520.85 -1.99029 0.469852 0
M  V30 5380 H 519.005 -3.60596 -1.41596 0
M  V30 5381 H 519.419 -5.2445 0.0725227 0
M  V30 5382 H 520.893 -5.27154 -1.63745 0
M  V30 5383 H 521.37 -3.72307 -2.32989 0
M  V30 5384 H 521.976 -4.19085 -0.724447 0
M  V30 5385 N 520.291 -0.0518155 -1.57515 0
M  V30 5386 C 521.521 0.63048 -1.96745 0
M  V30 5387 C 521.929 1.64875 -0.928054 0
M  V30 5388 O 521.272 1.83449 0.0960678 0
M  V30 5389 C 521.334 1.37381 -3.32215 0
M  V30 5390 C 520.998 0.511298 -4.54131 0
M  V30 5391 C 521.995 -0.222884 -5.19422 0
M  V30 5392 C 519.68 0.442035 -5.00351 0
M  V30 5393 C 521.674 -1.01476 -6.2927 0
M  V30 5394 C 519.361 -0.35353 -6.10077 0
M  V30 5395 C 520.359 -1.08062 -6.74397 0
M  V30 5396 O 520.047 -1.8631 -7.82013 0
M  V30 5397 H 519.779 0.177126 -0.652382 0
M  V30 5398 H 522.333 -0.114726 -2.05079 0
M  V30 5399 H 520.563 2.16466 -3.20436 0
M  V30 5400 H 522.252 1.9464 -3.56188 0
M  V30 5401 H 523.018 -0.178846 -4.8467 0
M  V30 5402 H 518.897 0.997562 -4.50077 0
M  V30 5403 H 522.441 -1.58279 -6.79407 0
M  V30 5404 H 518.338 -0.399205 -6.44264 0
M  V30 5405 H 519.106 -1.78528 -7.98793 0
M  V30 5406 N 521.769 1.56035 0.221574 0
M  V30 5407 C 523.015 1.79312 0.947372 0
M  V30 5408 C 523.348 0.621453 1.83988 0
M  V30 5409 O 522.623 -0.379287 1.90766 0
M  V30 5410 C 522.906 3.1267 1.78633 0
M  V30 5411 C 522.759 4.40284 0.920312 0
M  V30 5412 C 524.078 3.4247 2.7641 0
M  V30 5413 H 521.197 0.652328 0.342982 0
M  V30 5414 H 523.839 1.88765 0.216244 0
M  V30 5415 H 521.989 3.04741 2.40967 0
M  V30 5416 H 523.661 4.60232 0.313718 0
M  V30 5417 H 521.904 4.33212 0.225734 0
M  V30 5418 H 522.575 5.30033 1.54171 0
M  V30 5419 H 525.051 3.50526 2.24211 0
M  V30 5420 H 523.927 4.3695 3.32213 0
M  V30 5421 H 524.188 2.64635 3.54148 0
M  V30 5422 N 523.247 -0.488276 1.49845 0
M  V30 5423 C 524.495 -1.23911 1.59657 0
M  V30 5424 C 524.816 -1.92816 0.291005 0
M  V30 5425 O 524.086 -1.83328 -0.690485 0
M  V30 5426 H 522.666 -0.460357 0.588286 0
M  V30 5427 H 525.328 -0.564794 1.86537 0
M  V30 5428 H 524.424 -1.99625 2.39909 0
M  V30 5429 N 524.725 -1.39134 -0.740242 0
M  V30 5430 C 525.972 -1.36071 -1.49969 0
M  V30 5431 C 526.3 0.0450245 -1.94448 0
M  V30 5432 O 525.555 1.02482 -1.66721 0
M  V30 5433 C 525.854 -2.27457 -2.75678 0
M  V30 5434 C 525.52 -3.75185 -2.50094 0
M  V30 5435 C 524.182 -4.15439 -2.42825 0
M  V30 5436 C 526.534 -4.68643 -2.28086 0
M  V30 5437 C 523.862 -5.4722 -2.11584 0
M  V30 5438 C 526.214 -6.00695 -1.98363 0
M  V30 5439 C 524.878 -6.40018 -1.8956 0
M  V30 5440 H 524.148 -0.497921 -0.548777 0
M  V30 5441 H 526.795 -1.71599 -0.85007 0
M  V30 5442 H 525.1 -1.8503 -3.45356 0
M  V30 5443 H 526.797 -2.22384 -3.33686 0
M  V30 5444 H 523.387 -3.43279 -2.56627 0
M  V30 5445 H 527.571 -4.3838 -2.32672 0
M  V30 5446 H 522.827 -5.76615 -2.03287 0
M  V30 5447 H 527.001 -6.72644 -1.80341 0
M  V30 5448 H 524.628 -7.42051 -1.65117 0
M  V30 5449 N 526.204 0.969867 -1.24223 0
M  V30 5450 C 527.444 1.72754 -1.0925 0
M  V30 5451 C 527.808 1.88541 0.362787 0
M  V30 5452 O 529.009 2.61217 0.633969 0
M  V30 5453 C 527.28 3.08204 -1.80957 0
M  V30 5454 S 528.839 3.99418 -1.81688 0
M  V30 5455 H 525.657 0.593981 -0.390778 0
M  V30 5456 H 528.259 1.15792 -1.5752 0
M  V30 5457 H 526.963 2.94372 -2.85961 0
M  V30 5458 H 526.494 3.70232 -1.33012 0
M  V30 5459 H 528.509 4.8828 -0.883001 0
M  V30 5460 N 527.682 1.05563 1.17022 0
M  V30 5461 C 528.928 0.769074 1.87652 0
M  V30 5462 C 529.261 -0.702326 1.81055 0
M  V30 5463 O 528.536 -1.5139 1.22112 0
M  V30 5464 C 528.819 1.25492 3.37526 0
M  V30 5465 C 528.672 2.78953 3.52853 0
M  V30 5466 C 529.991 0.856919 4.31677 0
M  V30 5467 H 527.11 0.280854 0.681388 0
M  V30 5468 H 529.752 1.31027 1.37593 0
M  V30 5469 H 527.902 0.794516 3.80289 0
M  V30 5470 H 529.574 3.33146 3.19079 0
M  V30 5471 H 527.817 3.18046 2.95007 0
M  V30 5472 H 528.488 3.08011 4.58076 0
M  V30 5473 H 530.964 1.25334 3.96775 0
M  V30 5474 H 529.84 1.22443 5.35069 0
M  V30 5475 H 530.101 -0.238787 4.41455 0
M  V30 5476 N 529.16 -1.33526 0.837174 0
M  V30 5477 C 530.39 -2.01754 0.444848 0
M  V30 5478 C 530.798 -1.63149 -0.958072 0
M  V30 5479 O 530.141 -0.839827 -1.63379 0
M  V30 5480 C 530.203 -3.56228 0.483917 0
M  V30 5481 C 529.867 -4.18205 1.84265 0
M  V30 5482 C 530.864 -4.37699 2.80563 0
M  V30 5483 C 528.549 -4.54667 2.13503 0
M  V30 5484 C 530.543 -4.928 4.04261 0
M  V30 5485 C 528.23 -5.09475 3.37458 0
M  V30 5486 C 529.228 -5.28488 4.32654 0
M  V30 5487 O 528.916 -5.82132 5.54417 0
M  V30 5488 H 528.648 -0.652928 0.175104 0
M  V30 5489 H 531.202 -1.71469 1.13082 0
M  V30 5490 H 529.432 -3.85833 -0.258826 0
M  V30 5491 H 531.121 -4.05752 0.109653 0
M  V30 5492 H 531.887 -4.0988 2.59274 0
M  V30 5493 H 527.766 -4.39164 1.40201 0
M  V30 5494 H 531.31 -5.07555 4.78574 0
M  V30 5495 H 527.207 -5.36725 3.58604 0
M  V30 5496 H 527.975 -6.00548 5.56133 0
M  V30 5497 N 530.638 -0.59345 -1.46 0
M  V30 5498 C 531.601 0.123538 -2.28867 0
M  V30 5499 C 532.601 0.808628 -1.38989 0
M  V30 5500 O 533.791 0.658945 -1.61256 0
M  V30 5501 C 530.923 1.1847 -3.19653 0
M  V30 5502 H 532.116 -0.604843 -2.93737 0
M  V30 5503 H 529.669 -0.351875 -1.52288 0
M  V30 5504 H 530.404 1.94431 -2.59552 0
M  V30 5505 H 530.189 0.69783 -3.8584 0
M  V30 5506 H 531.679 1.68726 -3.81997 0
M  V30 5507 N 532.116 1.54067 -0.331816 0
M  V30 5508 C 533.364 2.00319 0.267739 0
M  V30 5509 C 533.685 1.22148 1.52003 0
M  V30 5510 O 532.955 0.325494 1.93177 0
M  V30 5511 H 531.535 0.740014 0.101922 0
M  V30 5512 H 534.197 1.89628 -0.450267 0
M  V30 5513 H 533.293 3.07765 0.518385 0
M  V30 5514 N 533.594 0.0601682 1.57485 0
M  V30 5515 C 534.841 -0.611594 1.93043 0
M  V30 5516 C 535.169 -1.70317 0.939274 0
M  V30 5517 O 534.424 -1.95644 -0.046996 0
M  V30 5518 C 534.723 -1.23831 3.35262 0
M  V30 5519 C 534.389 -0.274037 4.50066 0
M  V30 5520 C 533.051 -0.00872394 4.81199 0
M  V30 5521 C 535.403 0.386308 5.19766 0
M  V30 5522 C 532.731 0.924218 5.79375 0
M  V30 5523 C 535.083 1.3075 6.1894 0
M  V30 5524 C 533.747 1.58139 6.48497 0
M  V30 5525 H 533.017 -0.223798 0.706396 0
M  V30 5526 H 535.664 0.128566 1.91068 0
M  V30 5527 H 533.969 -2.05394 3.33647 0
M  V30 5528 H 535.666 -1.76517 3.60059 0
M  V30 5529 H 532.256 -0.491008 4.25778 0
M  V30 5530 H 536.44 0.194436 4.95919 0
M  V30 5531 H 531.696 1.1438 6.00606 0
M  V30 5532 H 535.87 1.82519 6.72056 0
M  V30 5533 H 533.497 2.30593 7.24383 0
M  V30 5534 N 535.072 -1.5615 -0.213296 0
M  V30 5535 C 536.319 -1.79546 -0.936462 0
M  V30 5536 C 536.647 -0.630337 -1.84003 0
M  V30 5537 O 535.902 0.384883 -1.91878 0
M  V30 5538 C 536.201 -3.08772 -1.79985 0
M  V30 5539 C 535.867 -4.38532 -1.04882 0
M  V30 5540 C 534.529 -4.73787 -0.841393 0
M  V30 5541 C 536.881 -5.18609 -0.51907 0
M  V30 5542 C 534.209 -5.86627 -0.0924403 0
M  V30 5543 C 536.561 -6.32229 0.216581 0
M  V30 5544 C 535.225 -6.6608 0.435191 0
M  V30 5545 H 534.495 -0.657004 -0.342676 0
M  V30 5546 H 537.142 -1.9041 -0.204051 0
M  V30 5547 H 535.447 -2.93065 -2.60038 0
M  V30 5548 H 537.144 -3.24077 -2.36168 0
M  V30 5549 H 533.734 -4.10855 -1.22048 0
M  V30 5550 H 537.918 -4.91801 -0.666775 0
M  V30 5551 H 533.174 -6.11338 0.087081 0
M  V30 5552 H 537.348 -6.93503 0.634538 0
M  V30 5553 H 534.975 -7.5336 1.01746 0
M  V30 5554 N 536.55 0.480323 -1.50102 0
M  V30 5555 C 537.798 1.23063 -1.60312 0
M  V30 5556 C 538.119 1.92659 -0.301226 0
M  V30 5557 O 537.389 1.83691 0.680753 0
M  V30 5558 H 535.969 0.457231 -0.590719 0
M  V30 5559 H 538.631 0.554893 -1.86834 0
M  V30 5560 H 537.727 1.9835 -2.40964 0
M  V30 5561 N 538.028 1.39524 0.732853 0
M  V30 5562 C 539.275 1.36865 1.49246 0
M  V30 5563 C 539.603 -0.0347118 1.94469 0
M  V30 5564 O 538.858 -1.01596 1.67262 0
M  V30 5565 C 539.157 2.28916 2.74468 0
M  V30 5566 C 538.823 3.76506 2.481 0
M  V30 5567 C 537.485 4.16721 2.40619 0
M  V30 5568 C 539.837 4.69846 2.25598 0
M  V30 5569 C 537.165 5.48334 2.08679 0
M  V30 5570 C 539.517 6.01739 1.95174 0
M  V30 5571 C 538.181 6.41015 1.86163 0
M  V30 5572 H 537.451 0.500824 0.546129 0
M  V30 5573 H 540.098 1.72047 0.840958 0
M  V30 5574 H 538.403 1.86859 3.4437 0
M  V30 5575 H 540.1 2.2415 3.32502 0
M  V30 5576 H 536.69 3.44635 2.54803 0
M  V30 5577 H 540.874 4.39608 2.30344 0
M  V30 5578 H 536.13 5.77685 2.00226 0
M  V30 5579 H 540.304 6.73591 1.76771 0
M  V30 5580 H 537.931 7.42917 1.61179 0
M  V30 5581 N 539.506 -0.963266 1.24736 0
M  V30 5582 C 540.469 -2.04013 1.04457 0
M  V30 5583 C 541.469 -1.608 0.000335555 0
M  V30 5584 O 542.659 -1.72515 0.241719 0
M  V30 5585 C 539.791 -3.35858 0.584162 0
M  V30 5586 H 540.984 -2.23436 2.00041 0
M  V30 5587 H 538.537 -1.13914 1.07021 0
M  V30 5588 H 539.272 -3.22128 -0.374673 0
M  V30 5589 H 539.057 -3.68568 1.3379 0
M  V30 5590 H 540.547 -4.1502 0.463451 0
M  V30 5591 N 540.985 -1.06182 -1.16461 0
M  V30 5592 C 542.232 -0.777863 -1.86964 0
M  V30 5593 C 542.56 0.695602 -1.81636 0
M  V30 5594 O 541.815 1.52532 -1.22607 0
M  V30 5595 C 542.114 -1.21633 -3.36066 0
M  V30 5596 C 541.78 -2.69371 -3.61594 0
M  V30 5597 C 540.442 -3.09727 -3.6827 0
M  V30 5598 C 542.794 -3.64791 -3.7226 0
M  V30 5599 C 540.122 -4.44345 -3.83112 0
M  V30 5600 C 542.474 -4.99155 -3.88623 0
M  V30 5601 C 541.138 -5.39149 -3.93541 0
M  V30 5602 H 540.408 -0.28464 -0.68415 0
M  V30 5603 H 543.055 -1.33071 -1.37711 0
M  V30 5604 H 541.36 -0.582651 -3.87443 0
M  V30 5605 H 543.057 -0.973682 -3.88999 0
M  V30 5606 H 539.647 -2.37124 -3.57029 0
M  V30 5607 H 543.831 -3.34746 -3.66413 0
M  V30 5608 H 539.087 -4.74819 -3.85172 0
M  V30 5609 H 543.261 -5.72976 -3.95817 0
M  V30 5610 H 540.888 -6.43464 -4.04794 0
M  V30 5611 N 542.463 1.3308 -0.844243 0
M  V30 5612 C 543.711 1.97215 -0.441676 0
M  V30 5613 C 544.032 1.67185 1.0037 0
M  V30 5614 O 543.302 0.973588 1.69994 0
M  V30 5615 H 541.882 0.72959 -0.160335 0
M  V30 5616 H 544.544 1.62348 -1.07838 0
M  V30 5617 H 543.64 3.06698 -0.57815 0
M  V30 5618 N 543.941 0.601185 1.45683 0
M  V30 5619 C 545.187 0.102425 2.03142 0
M  V30 5620 C 545.542 -1.25066 1.46207 0
M  V30 5621 O 544.835 -1.81126 0.624806 0
M  V30 5622 C 545.029 -0.00222425 3.574 0
M  V30 5623 C 544.858 1.33917 4.29298 0
M  V30 5624 C 543.628 1.91818 4.67476 0
M  V30 5625 C 545.826 2.26652 4.61664 0
M  V30 5626 N 543.808 3.19504 5.24204 0
M  V30 5627 C 545.179 3.38933 5.19157 0
M  V30 5628 C 547.234 2.26103 4.43601 0
M  V30 5629 C 545.937 4.50823 5.60492 0
M  V30 5630 C 547.963 3.37036 4.85964 0
M  V30 5631 C 547.325 4.48039 5.43545 0
M  V30 5632 H 543.424 0.0806974 0.777825 0
M  V30 5633 H 546.008 0.798134 1.77589 0
M  V30 5634 H 544.179 -0.66714 3.82627 0
M  V30 5635 H 545.911 -0.507058 4.01511 0
M  V30 5636 H 542.666 1.45097 4.50826 0
M  V30 5637 H 543.09 3.84705 5.57073 0
M  V30 5638 H 547.732 1.41547 3.98402 0
M  V30 5639 H 545.45 5.36108 6.0466 0
M  V30 5640 H 549.036 3.37752 4.73725 0
M  V30 5641 H 547.916 5.32459 5.75723 0
M  V30 5642 N 545.419 -1.53889 0.339982 0
M  V30 5643 C 546.349 -2.27843 -0.510856 0
M  V30 5644 C 547.33 -1.29267 -1.10563 0
M  V30 5645 O 548.515 -1.58104 -1.12768 0
M  V30 5646 C 545.645 -3.04857 -1.66372 0
M  V30 5647 C 544.599 -4.10907 -1.19746 0
M  V30 5648 C 543.925 -4.75855 -2.43857 0
M  V30 5649 C 545.225 -5.21435 -0.300501 0
M  V30 5650 H 546.919 -2.99212 0.106067 0
M  V30 5651 H 544.465 -1.43904 0.0524533 0
M  V30 5652 H 546.418 -3.5533 -2.26537 0
M  V30 5653 H 545.142 -2.31133 -2.30749 0
M  V30 5654 H 543.801 -3.61342 -0.618654 0
M  V30 5655 H 543.449 -3.9873 -3.06633 0
M  V30 5656 H 543.149 -5.47502 -2.13343 0
M  V30 5657 H 544.673 -5.2911 -3.04754 0
M  V30 5658 H 546.087 -5.67565 -0.80889 0
M  V30 5659 H 544.484 -6.00036 -0.0874076 0
M  V30 5660 H 545.554 -4.80328 0.664321 0
M  V30 5661 N 546.897 -0.0685191 -1.57451 0
M  V30 5662 C 548.122 0.613919 -1.98106 0
M  V30 5663 C 548.547 1.62551 -0.946501 0
M  V30 5664 O 547.905 1.81085 0.0882824 0
M  V30 5665 C 547.953 1.26189 -3.378 0
M  V30 5666 O 547.057 2.37773 -3.36954 0
M  V30 5667 H 546.398 0.158163 -0.644888 0
M  V30 5668 H 548.928 -0.142063 -2.04106 0
M  V30 5669 H 548.938 1.60951 -3.74912 0
M  V30 5670 H 547.613 0.520625 -4.12629 0
M  V30 5671 H 546.19 2.04829 -3.11608 0
M  V30 5672 N 548.375 1.56261 0.205012 0
M  V30 5673 C 549.6 1.84491 0.947512 0
M  V30 5674 C 550.025 0.650894 1.76479 0
M  V30 5675 O 549.383 -0.40035 1.76824 0
M  V30 5676 C 549.431 3.10863 1.82747 0
M  V30 5677 O 548.535 2.90719 2.925 0
M  V30 5678 H 547.876 0.607783 0.267386 0
M  V30 5679 H 550.406 2.03485 0.213323 0
M  V30 5680 H 550.416 3.41399 2.23407 0
M  V30 5681 H 549.091 3.97392 1.2269 0
M  V30 5682 H 547.668 2.71457 2.55667 0
M  V30 5683 N 549.853 -0.472356 1.50355 0
M  V30 5684 C 551.099 -1.22634 1.6152 0
M  V30 5685 C 551.432 -1.91645 0.313995 0
M  V30 5686 O 550.707 -1.82059 -0.684446 0
M  V30 5687 C 550.99 -2.27099 2.7946 0
M  V30 5688 C 550.843 -1.62402 4.19459 0
M  V30 5689 C 552.162 -3.28421 2.92964 0
M  V30 5690 H 549.281 -0.444494 0.587873 0
M  V30 5691 H 551.923 -0.520321 1.82737 0
M  V30 5692 H 550.073 -2.87314 2.61501 0
M  V30 5693 H 551.745 -1.05793 4.49005 0
M  V30 5694 H 549.988 -0.927184 4.23776 0
M  V30 5695 H 550.659 -2.38309 4.97909 0
M  V30 5696 H 553.135 -2.78227 3.09401 0
M  V30 5697 H 552.011 -3.98845 3.77113 0
M  V30 5698 H 552.272 -3.92467 2.03525 0
M  V30 5699 N 551.331 -1.39911 -0.725443 0
M  V30 5700 C 552.261 -1.42138 -1.85254 0
M  V30 5701 C 553.242 -0.283513 -1.67721 0
M  V30 5702 O 554.427 -0.490717 -1.87898 0
M  V30 5703 C 551.557 -1.27354 -3.23107 0
M  V30 5704 C 550.511 -2.3864 -3.55296 0
M  V30 5705 C 549.837 -2.08939 -4.92188 0
M  V30 5706 C 551.137 -3.8097 -3.57295 0
M  V30 5707 H 552.831 -2.36461 -1.83648 0
M  V30 5708 H 550.377 -1.13817 -0.882138 0
M  V30 5709 H 552.33 -1.2753 -4.01639 0
M  V30 5710 H 551.054 -0.295025 -3.25265 0
M  V30 5711 H 549.713 -2.37696 -2.79099 0
M  V30 5712 H 549.361 -1.09502 -4.90936 0
M  V30 5713 H 549.061 -2.83491 -5.14691 0
M  V30 5714 H 550.585 -2.10781 -5.73065 0
M  V30 5715 H 551.999 -3.8379 -4.25885 0
M  V30 5716 H 550.396 -4.5496 -3.9132 0
M  V30 5717 H 551.466 -4.11261 -2.5689 0
M  V30 5718 N 552.809 0.956637 -1.25245 0
M  V30 5719 C 554.056 1.701 -1.09874 0
M  V30 5720 C 554.384 1.91128 0.36062 0
M  V30 5721 O 553.639 1.47837 1.28229 0
M  V30 5722 C 553.938 3.08996 -1.79601 0
M  V30 5723 C 553.604 3.07774 -3.29523 0
M  V30 5724 C 552.266 3.07149 -3.70423 0
M  V30 5725 C 554.618 3.01257 -4.25316 0
M  V30 5726 C 551.946 2.97752 -5.0553 0
M  V30 5727 C 554.298 2.93403 -5.60444 0
M  V30 5728 C 552.962 2.91111 -6.00675 0
M  V30 5729 H 552.232 0.62244 -0.402056 0
M  V30 5730 H 554.879 1.1178 -1.55491 0
M  V30 5731 H 553.184 3.70848 -1.26408 0
M  V30 5732 H 554.881 3.65407 -1.65162 0
M  V30 5733 H 551.471 3.09032 -2.9698 0
M  V30 5734 H 555.655 3.00861 -3.9471 0
M  V30 5735 H 550.911 2.94346 -5.35883 0
M  V30 5736 H 555.085 2.87321 -6.34366 0
M  V30 5737 H 552.712 2.83586 -7.05325 0
M  V30 5738 N 554.287 1.06798 1.15896 0
M  V30 5739 C 555.197 0.694564 2.24083 0
M  V30 5740 C 556.213 -0.291687 1.71538 0
M  V30 5741 O 557.389 -0.139723 2.00915 0
M  V30 5742 C 554.454 0.0921014 3.46578 0
M  V30 5743 C 553.515 1.13087 4.14137 0
M  V30 5744 C 552.748 0.557064 5.30785 0
M  V30 5745 O 552.971 -0.628623 5.66925 0
M  V30 5746 O 551.905 1.29924 5.8771 0
M  V30 5747 H 555.731 1.59663 2.58344 0
M  V30 5748 H 553.316 0.840575 1.2351 0
M  V30 5749 H 555.198 -0.241884 4.20705 0
M  V30 5750 H 553.873 -0.78337 3.14078 0
M  V30 5751 H 552.78 1.51712 3.41957 0
M  V30 5752 H 554.113 1.97805 4.50704 0
M  V30 5753 N 555.766 -1.3263 0.851289 0
M  V30 5754 C 556.994 -2.01563 0.466899 0
M  V30 5755 C 557.409 -1.63996 -0.935447 0
M  V30 5756 O 556.766 -0.85957 -1.6099 0
M  V30 5757 C 556.817 -3.56613 0.592433 0
M  V30 5758 O 556.538 -3.92828 1.93954 0
M  V30 5759 C 558.039 -4.42818 0.206612 0
M  V30 5760 H 555.259 -0.645307 0.183902 0
M  V30 5761 H 557.803 -1.69285 1.1473 0
M  V30 5762 H 555.958 -3.87379 -0.0401936 0
M  V30 5763 H 556.372 -4.87545 1.9339 0
M  V30 5764 H 557.846 -5.50918 0.345462 0
M  V30 5765 H 558.323 -4.30844 -0.85264 0
M  V30 5766 H 558.929 -4.17434 0.814176 0
M  V30 5767 N 557.244 -0.608902 -1.45362 0
M  V30 5768 C 558.174 0.0964526 -2.33301 0
M  V30 5769 C 559.155 0.857444 -1.46908 0
M  V30 5770 O 560.34 0.827735 -1.75676 0
M  V30 5771 C 557.47 1.09354 -3.29635 0
M  V30 5772 C 556.424 0.445676 -4.25673 0
M  V30 5773 C 555.75 1.5511 -5.11708 0
M  V30 5774 C 557.05 -0.633972 -5.18438 0
M  V30 5775 H 558.744 -0.637829 -2.92527 0
M  V30 5776 H 556.29 -0.308178 -1.40664 0
M  V30 5777 H 558.243 1.59556 -3.90025 0
M  V30 5778 H 556.967 1.85843 -2.6857 0
M  V30 5779 H 555.626 -0.0354897 -3.66583 0
M  V30 5780 H 555.274 2.30631 -4.4701 0
M  V30 5781 H 554.974 1.12311 -5.76767 0
M  V30 5782 H 556.498 2.05537 -5.74967 0
M  V30 5783 H 557.912 -0.215974 -5.72893 0
M  V30 5784 H 556.309 -0.983789 -5.91981 0
M  V30 5785 H 557.379 -1.51005 -4.60788 0
M  V30 5786 N 558.722 1.53707 -0.348139 0
M  V30 5787 C 559.655 2.21481 0.549667 0
M  V30 5788 C 560.633 1.20046 1.09671 0
M  V30 5789 O 561.817 1.48883 1.15612 0
M  V30 5790 C 558.944 2.89585 1.75664 0
M  V30 5791 C 557.99 4.04948 1.33864 0
M  V30 5792 S 558.823 5.34325 0.354577 0
M  V30 5793 C 559.979 6.05934 1.56828 0
M  V30 5794 H 560.212 2.97289 -0.0259755 0
M  V30 5795 H 557.745 1.53833 -0.132216 0
M  V30 5796 H 559.703 3.29441 2.44906 0
M  V30 5797 H 558.364 2.13535 2.30351 0
M  V30 5798 H 557.557 4.51552 2.23868 0
M  V30 5799 H 557.159 3.66893 0.725651 0
M  V30 5800 H 559.451 6.29606 2.50205 0
M  V30 5801 H 560.394 6.98799 1.14395 0
M  V30 5802 H 560.802 5.36151 1.76642 0
M  V30 5803 N 560.2 0.0768682 1.57412 0
M  V30 5804 C 561.477 -0.632359 1.85096 0
M  V30 5805 C 561.857 -1.87479 0.9703 0
M  V30 5806 O 561.205 -2.28469 0.0379062 0
M  V30 5807 C 561.415 -0.965174 3.35388 0
M  V30 5808 C 562.763 -1.33648 4.03018 0
M  V30 5809 O 563.787 -1.05675 3.40164 0
M  V30 5810 O 562.646 -1.85959 5.13889 0
M  V30 5811 H 559.74 -0.314574 0.764835 0
M  V30 5812 H 562.286 0.108184 1.69355 0
M  V30 5813 H 561.058 -0.0829745 3.91212 0
M  V30 5814 H 560.681 -1.76231 3.5641 0
M  V30 5815 N 561.678 -1.56367 -0.196722 0
M  V30 5816 C 562.608 -1.97442 -1.24655 0
M  V30 5817 C 563.589 -0.846147 -1.47561 0
M  V30 5818 O 564.774 -1.11035 -1.59326 0
M  V30 5819 C 561.904 -2.31253 -2.59112 0
M  V30 5820 C 560.858 -3.46804 -2.50821 0
M  V30 5821 C 560.184 -3.66286 -3.89536 0
M  V30 5822 C 561.484 -4.8104 -2.03465 0
M  V30 5823 H 563.178 -2.85388 -0.905216 0
M  V30 5824 H 560.724 -1.37304 -0.434002 0
M  V30 5825 H 562.677 -2.58583 -3.32736 0
M  V30 5826 H 561.401 -1.40188 -2.94983 0
M  V30 5827 H 560.06 -3.19563 -1.79653 0
M  V30 5828 H 559.708 -2.72555 -4.22756 0
M  V30 5829 H 559.408 -4.4402 -3.84864 0
M  V30 5830 H 560.932 -3.9599 -4.64784 0
M  V30 5831 H 562.346 -5.07411 -2.66846 0
M  V30 5832 H 560.743 -5.62232 -2.09798 0
M  V30 5833 H 561.813 -4.74732 -0.98781 0
M  V30 5834 N 563.156 0.464375 -1.50603 0
M  V30 5835 C 564.402 1.21776 -1.62168 0
M  V30 5836 C 564.735 1.91476 -0.324154 0
M  V30 5837 O 564.01 1.8242 0.674782 0
M  V30 5838 C 564.293 2.25614 -2.80661 0
M  V30 5839 C 564.146 1.60175 -4.20314 0
M  V30 5840 C 565.465 3.26862 -2.94702 0
M  V30 5841 H 562.584 0.44137 -0.590222 0
M  V30 5842 H 565.226 0.510623 -1.8301 0
M  V30 5843 H 563.376 2.85923 -2.63021 0
M  V30 5844 H 565.048 1.03411 -4.4956 0
M  V30 5845 H 563.291 0.904697 -4.24261 0
M  V30 5846 H 563.962 2.35665 -4.99165 0
M  V30 5847 H 566.438 2.76582 -3.10872 0
M  V30 5848 H 565.314 3.96839 -3.79223 0
M  V30 5849 H 565.575 3.91382 -2.05603 0
M  V30 5850 N 564.634 1.40294 0.718013 0
M  V30 5851 C 565.882 1.38167 1.47494 0
M  V30 5852 C 566.203 -0.01607 1.94993 0
M  V30 5853 O 565.473 -0.970396 1.70177 0
M  V30 5854 H 564.053 0.508505 0.547203 0
M  V30 5855 H 566.715 1.75324 0.851322 0
M  V30 5856 H 565.811 2.05503 2.34894 0
M  V30 5857 N 566.112 -0.949982 1.2575 0
M  V30 5858 C 567.523 -1.50989 1.09815 0
M  V30 5859 C 567.874 -1.93497 -0.324556 0
M  V30 5860 O 566.999 -1.79068 -1.21506 0
M  V30 5861 C 567.594 -2.74394 1.98729 0
M  V30 5862 C 566.153 -3.26682 1.86965 0
M  V30 5863 C 565.3 -1.99498 1.92603 0
M  V30 5864 H 568.251 -0.766387 1.38968 0
M  V30 5865 H 568.272 -3.48383 1.53001 0
M  V30 5866 H 567.784 -2.43425 3.02268 0
M  V30 5867 H 565.885 -3.62461 0.863279 0
M  V30 5868 H 565.998 -3.94383 2.72027 0
M  V30 5869 H 564.362 -2.15005 1.36546 0
M  V30 5870 H 565.145 -1.70871 2.97755 0
M  V30 5871 N 567.59 -1.07411 -1.15328 0
M  V30 5872 C 568.522 -0.652924 -2.19703 0
M  V30 5873 C 569.535 0.294869 -1.60107 0
M  V30 5874 O 570.724 0.0840932 -1.78302 0
M  V30 5875 C 567.824 0.061434 -3.38844 0
M  V30 5876 C 566.997 -0.902696 -4.27984 0
M  V30 5877 C 566.056 -0.225521 -5.25717 0
M  V30 5878 O 565.082 -0.86676 -5.62562 0
M  V30 5879 N 566.284 1.02858 -5.71315 0
M  V30 5880 H 569.049 -1.55081 -2.56457 0
M  V30 5881 H 566.61 -0.958883 -1.30449 0
M  V30 5882 H 568.602 0.525145 -4.01278 0
M  V30 5883 H 567.172 0.861269 -3.00501 0
M  V30 5884 H 566.392 -1.54551 -3.6264 0
M  V30 5885 H 567.68 -1.55636 -4.84412 0
M  V30 5886 H 567.078 1.56948 -5.43492 0
M  V30 5887 H 565.635 1.43596 -6.35786 0
M  V30 5888 N 569.068 1.32177 -0.85831 0
M  V30 5889 C 570.484 1.49873 -0.548656 0
M  V30 5890 C 570.684 1.79278 0.919874 0
M  V30 5891 O 569.74 1.86451 1.70271 0
M  V30 5892 C 571.053 2.64043 -1.4388 0
M  V30 5893 C 572.601 2.77928 -1.43961 0
M  V30 5894 C 573.076 3.95182 -2.31506 0
M  V30 5895 N 574.567 4.0245 -2.29321 0
M  V30 5896 C 575.302 4.9242 -2.93786 0
M  V30 5897 N 574.798 5.87373 -3.67376 0
M  V30 5898 N 576.591 4.85572 -2.83155 0
M  V30 5899 H 568.742 1.11357 -1.80868 0
M  V30 5900 H 571.005 0.549175 -0.772729 0
M  V30 5901 H 570.711 2.49055 -2.48324 0
M  V30 5902 H 570.585 3.59912 -1.12885 0
M  V30 5903 H 572.972 2.92338 -0.402813 0
M  V30 5904 H 573.053 1.82762 -1.78974 0
M  V30 5905 H 572.697 3.81531 -3.35256 0
M  V30 5906 H 572.627 4.89633 -1.93823 0
M  V30 5907 H 575.118 3.34507 -1.75822 0
M  V30 5908 H 575.431 6.52728 -4.13722 0
M  V30 5909 H 573.776 5.87388 -3.71484 0
M  V30 5910 H 576.967 4.10363 -2.25211 0
M  V30 5911 H 577.14 5.55486 -3.33676 0
M  V30 5912 N 570.547 0.616602 1.45037 0
M  V30 5913 C 571.794 0.115331 2.02171 0
M  V30 5914 C 572.122 -1.25748 1.48383 0
M  V30 5915 O 571.377 -1.84511 0.652229 0
M  V30 5916 C 571.676 0.0356829 3.57382 0
M  V30 5917 C 571.342 1.34535 4.30362 0
M  V30 5918 C 570.004 1.70408 4.50016 0
M  V30 5919 C 572.356 2.21049 4.72003 0
M  V30 5920 C 569.684 2.92529 5.0857 0
M  V30 5921 C 572.036 3.42427 5.31908 0
M  V30 5922 C 570.7 3.78541 5.49784 0
M  V30 5923 H 569.97 0.0422024 0.739797 0
M  V30 5924 H 572.617 0.80002 1.73988 0
M  V30 5925 H 570.922 -0.732314 3.84895 0
M  V30 5926 H 572.619 -0.368463 3.99304 0
M  V30 5927 H 569.209 1.05615 4.15383 0
M  V30 5928 H 573.393 1.94632 4.56544 0
M  V30 5929 H 568.649 3.20605 5.20598 0
M  V30 5930 H 572.823 4.09709 5.63127 0
M  V30 5931 H 570.45 4.73255 5.94923 0
M  V30 5932 N 572.025 -1.5352 0.356285 0
M  V30 5933 C 573.25 -2.06007 -0.239961 0
M  V30 5934 C 573.675 -1.22872 -1.42422 0
M  V30 5935 O 573.033 -0.245516 -1.7963 0
M  V30 5936 C 573.081 -3.5522 -0.620587 0
M  V30 5937 O 572.185 -3.74864 -1.71902 0
M  V30 5938 H 571.526 -0.662961 -0.0371377 0
M  V30 5939 H 574.056 -1.98033 0.514194 0
M  V30 5940 H 574.066 -3.98081 -0.894197 0
M  V30 5941 H 572.741 -4.15175 0.245407 0
M  V30 5942 H 571.318 -3.43904 -1.44169 0
M  V30 5943 N 573.503 -0.0852151 -1.57369 0
M  V30 5944 C 574.728 0.592872 -1.98746 0
M  V30 5945 C 575.153 1.61538 -0.963689 0
M  V30 5946 O 574.511 1.81168 0.069071 0
M  V30 5947 C 574.559 1.22599 -3.39119 0
M  V30 5948 O 573.663 2.34185 -3.39457 0
M  V30 5949 H 573.004 0.151314 -0.646529 0
M  V30 5950 H 575.534 -0.163703 -2.03944 0
M  V30 5951 H 575.544 1.56965 -3.76598 0
M  V30 5952 H 574.219 0.476831 -4.13158 0
M  V30 5953 H 572.796 2.01512 -3.13763 0
M  V30 5954 N 574.981 1.5647 0.188427 0
M  V30 5955 C 575.944 1.9421 1.21718 0
M  V30 5956 C 576.944 0.823901 1.38089 0
M  V30 5957 O 578.134 1.09122 1.35787 0
M  V30 5958 C 575.266 2.22197 2.58537 0
M  V30 5959 H 576.459 2.86252 0.894418 0
M  V30 5960 H 574.012 1.50263 0.430211 0
M  V30 5961 H 574.747 1.32814 2.95856 0
M  V30 5962 H 574.532 3.03688 2.48025 0
M  V30 5963 H 576.022 2.52376 3.3271 0
M  V30 5964 N 576.459 -0.456382 1.50847 0
M  V30 5965 C 577.705 -1.20914 1.62811 0
M  V30 5966 C 578.038 -1.91301 0.334304 0
M  V30 5967 O 577.313 -1.82775 -0.665098 0
M  V30 5968 C 577.596 -2.24122 2.81853 0
M  V30 5969 C 577.449 -1.57944 4.21158 0
M  V30 5970 C 578.768 -3.25295 2.96431 0
M  V30 5971 H 575.887 -0.438233 0.592554 0
M  V30 5972 H 578.529 -0.50091 1.83278 0
M  V30 5973 H 576.679 -2.84524 2.64534 0
M  V30 5974 H 578.351 -1.01025 4.50102 0
M  V30 5975 H 576.594 -0.882185 4.24735 0
M  V30 5976 H 577.265 -2.33014 5.00408 0
M  V30 5977 H 579.741 -2.7493 3.12335 0
M  V30 5978 H 578.617 -3.94822 3.81322 0
M  V30 5979 H 578.878 -3.90286 2.07676 0
M  V30 5980 N 577.937 -1.40673 -0.710563 0
M  V30 5981 C 579.185 -1.38947 -1.46759 0
M  V30 5982 C 579.506 0.00572879 -1.94999 0
M  V30 5983 O 578.776 0.961358 -1.70689 0
M  V30 5984 H 577.356 -0.5114 -0.544499 0
M  V30 5985 H 580.018 -1.75773 -0.842012 0
M  V30 5986 H 579.114 -2.06745 -2.33801 0
M  V30 5987 N 579.415 0.9433 -1.26252 0
M  V30 5988 C 580.345 2.05902 -1.10122 0
M  V30 5989 C 581.326 1.70099 -0.00700552 0
M  V30 5990 O 582.511 1.93377 -0.178641 0
M  V30 5991 C 579.641 3.39516 -0.731175 0
M  V30 5992 C 578.595 3.89372 -1.77688 0
M  V30 5993 C 577.921 5.19613 -1.26122 0
M  V30 5994 C 579.221 4.14489 -3.17799 0
M  V30 5995 H 580.915 2.19655 -2.03451 0
M  V30 5996 H 578.461 1.05548 -0.979576 0
M  V30 5997 H 580.414 4.17031 -0.605215 0
M  V30 5998 H 579.138 3.25733 0.23782 0
M  V30 5999 H 577.797 3.14036 -1.89148 0
M  V30 6000 H 577.445 5.02208 -0.282128 0
M  V30 6001 H 577.145 5.53939 -1.96023 0
M  V30 6002 H 578.669 5.99713 -1.14789 0
M  V30 6003 H 580.083 4.82625 -3.09428 0
M  V30 6004 H 578.48 4.60094 -3.85271 0
M  V30 6005 H 579.55 3.20347 -3.64014 0
M  V30 6006 N 580.893 1.08022 1.14757 0
M  V30 6007 C 582.139 0.808705 1.85978 0
M  V30 6008 C 582.472 -0.663764 1.82504 0
M  V30 6009 O 581.747 -1.48765 1.25296 0
M  V30 6010 C 582.03 1.32623 3.34788 0
M  V30 6011 C 581.883 2.86375 3.46856 0
M  V30 6012 C 583.202 0.948291 4.29762 0
M  V30 6013 H 580.321 0.295244 0.675278 0
M  V30 6014 H 582.963 1.33917 1.34783 0
M  V30 6015 H 581.113 0.875002 3.78518 0
M  V30 6016 H 582.785 3.39839 3.11941 0
M  V30 6017 H 581.028 3.24232 2.88194 0
M  V30 6018 H 581.699 3.17658 4.51439 0
M  V30 6019 H 584.175 1.33722 3.94028 0
M  V30 6020 H 583.051 1.33765 5.32352 0
M  V30 6021 H 583.312 -0.145094 4.41862 0
M  V30 6022 N 582.371 -1.3172 0.865308 0
M  V30 6023 C 583.599 -2.01057 0.488251 0
M  V30 6024 C 584.014 -1.64979 -0.918 0
M  V30 6025 O 583.371 -0.876597 -1.60069 0
M  V30 6026 C 583.422 -3.55964 0.630224 0
M  V30 6027 O 583.143 -3.90749 1.98109 0
M  V30 6028 C 584.644 -4.42574 0.253567 0
M  V30 6029 H 581.864 -0.64332 0.190736 0
M  V30 6030 H 584.408 -1.68058 1.16519 0
M  V30 6031 H 582.563 -3.874 0.000895422 0
M  V30 6032 H 582.977 -4.85467 1.9855 0
M  V30 6033 H 584.451 -5.50521 0.403875 0
M  V30 6034 H 584.928 -4.31724 -0.806895 0
M  V30 6035 H 585.534 -4.16547 0.858404 0
M  V30 6036 N 583.85 -0.624285 -1.44708 0
M  V30 6037 C 585.099 -0.123539 -2.01321 0
M  V30 6038 C 585.412 1.25966 -1.49639 0
M  V30 6039 O 586.618 1.85405 -1.98336 0
M  V30 6040 C 585.074 -0.170124 -3.59498 0
M  V30 6041 C 584.682 -1.55421 -4.20176 0
M  V30 6042 C 586.426 0.274513 -4.23611 0
M  V30 6043 C 584.332 -1.55628 -5.70556 0
M  V30 6044 H 583.263 -0.0424183 -0.752806 0
M  V30 6045 H 585.913 -0.782076 -1.65999 0
M  V30 6046 H 584.296 0.555385 -3.92086 0
M  V30 6047 H 585.47 -2.30276 -3.99136 0
M  V30 6048 H 583.784 -1.94235 -3.68323 0
M  V30 6049 H 586.382 0.292402 -5.339 0
M  V30 6050 H 586.725 1.3005 -3.95465 0
M  V30 6051 H 587.258 -0.398275 -3.95801 0
M  V30 6052 H 583.997 -2.56041 -6.03426 0
M  V30 6053 H 583.517 -0.850563 -5.93739 0
M  V30 6054 H 585.196 -1.28721 -6.34066 0
M  V30 6055 N 585.328 1.53329 -0.364422 0
M  V30 6056 C 586.574 2.01537 0.225969 0
M  V30 6057 C 586.907 1.25128 1.48515 0
M  V30 6058 O 586.182 0.344653 1.91422 0
M  V30 6059 C 586.465 3.56339 0.519092 0
M  V30 6060 C 586.318 4.43441 -0.753639 0
M  V30 6061 C 587.637 4.19833 1.32015 0
M  V30 6062 H 584.756 0.732573 0.0806548 0
M  V30 6063 H 587.398 1.83597 -0.489084 0
M  V30 6064 H 585.548 3.71756 1.12825 0
M  V30 6065 H 587.22 4.39823 -1.39116 0
M  V30 6066 H 585.463 4.11457 -1.37424 0
M  V30 6067 H 586.134 5.49699 -0.503517 0
M  V30 6068 H 588.61 4.08242 0.804859 0
M  V30 6069 H 587.486 5.28177 1.49399 0
M  V30 6070 H 587.747 3.75821 2.32832 0
M  V30 6071 N 586.806 0.0935595 1.57322 0
M  V30 6072 C 587.716 -0.880192 2.17462 0
M  V30 6073 C 588.732 -1.31135 1.14366 0
M  V30 6074 O 589.908 -1.37958 1.46729 0
M  V30 6075 C 586.973 -2.12184 2.74188 0
M  V30 6076 C 586.034 -1.74503 3.92234 0
M  V30 6077 C 585.267 -2.92748 4.46245 0
M  V30 6078 O 585.49 -4.07427 3.99198 0
M  V30 6079 O 584.424 -2.71303 5.37288 0
M  V30 6080 H 588.25 -0.398516 3.01074 0
M  V30 6081 H 585.835 -0.130707 1.48827 0
M  V30 6082 H 587.717 -2.84953 3.10451 0
M  V30 6083 H 586.392 -2.59407 1.93623 0
M  V30 6084 H 585.299 -0.989186 3.60785 0
M  V30 6085 H 586.632 -1.32044 4.74157 0
M  V30 6086 N 588.284 -1.56567 -0.180126 0
M  V30 6087 C 589.524 -1.83285 -0.904761 0
M  V30 6088 C 589.888 -0.673226 -1.7981 0
M  V30 6089 O 591.089 -0.820645 -2.55967 0
M  V30 6090 C 589.36 -3.15086 -1.68688 0
M  V30 6091 S 590.919 -3.63258 -2.46149 0
M  V30 6092 H 587.737 -0.643114 -0.303193 0
M  V30 6093 H 590.339 -1.94785 -0.167034 0
M  V30 6094 H 589.043 -3.97484 -1.02148 0
M  V30 6095 H 588.574 -3.06504 -2.46615 0
M  V30 6096 H 590.589 -3.29884 -3.70663 0
M  V30 6097 N 589.762 0.448376 -1.51087 0
M  V30 6098 C 591.002 1.20832 -1.64861 0
M  V30 6099 C 591.366 1.88748 -0.351873 0
M  V30 6100 O 592.567 2.66307 -0.365265 0
M  V30 6101 C 590.838 2.20674 -2.81137 0
M  V30 6102 S 592.397 3.05303 -3.15176 0
M  V30 6103 H 589.215 0.40992 -0.580936 0
M  V30 6104 H 591.817 0.501624 -1.88955 0
M  V30 6105 H 590.521 1.69399 -3.73808 0
M  V30 6106 H 590.052 2.9594 -2.59198 0
M  V30 6107 H 592.067 4.22162 -2.60756 0
M  V30 6108 N 591.24 1.41047 0.703093 0
M  V30 6109 C 592.651 1.35657 1.28274 0
M  V30 6110 C 593.002 0.0360309 1.96167 0
M  V30 6111 O 592.127 -0.865833 1.98324 0
M  V30 6112 C 592.722 2.45707 2.33267 0
M  V30 6113 C 591.281 2.43738 2.86825 0
M  V30 6114 C 590.428 2.25941 1.60767 0
M  V30 6115 H 593.379 1.50672 0.49836 0
M  V30 6116 H 593.4 2.14333 3.14391 0
M  V30 6117 H 592.912 3.41805 1.83824 0
M  V30 6118 H 591.013 1.51375 3.40465 0
M  V30 6119 H 591.126 3.39779 3.37768 0
M  V30 6120 H 589.49 1.73681 1.86298 0
M  V30 6121 H 590.273 3.24054 1.1333 0
M  V30 6122 N 592.718 -0.936591 1.26751 0
M  V30 6123 C 593.964 -1.6858 1.12733 0
M  V30 6124 C 594.297 -1.91414 -0.327745 0
M  V30 6125 O 593.572 -1.49812 -1.24043 0
M  V30 6126 C 593.855 -3.05779 1.90187 0
M  V30 6127 C 593.708 -2.90242 3.43627 0
M  V30 6128 C 595.027 -4.0597 1.69931 0
M  V30 6129 H 592.146 -0.61182 0.410908 0
M  V30 6130 H 594.788 -1.08747 1.55801 0
M  V30 6131 H 592.938 -3.56853 1.53584 0
M  V30 6132 H 594.61 -2.46354 3.9001 0
M  V30 6133 H 592.853 -2.2577 3.70419 0
M  V30 6134 H 593.524 -3.87572 3.93055 0
M  V30 6135 H 596 -3.63874 2.0183 0
M  V30 6136 H 594.876 -4.99974 2.26534 0
M  V30 6137 H 595.137 -4.37369 0.64502 0
M  V30 6138 N 594.196 -1.08629 -1.14182 0
M  V30 6139 C 595.126 -0.740003 -2.21464 0
M  V30 6140 C 596.107 0.278591 -1.67803 0
M  V30 6141 O 597.292 0.148461 -1.93632 0
M  V30 6142 C 594.422 -0.150952 -3.46972 0
M  V30 6143 C 593.376 -1.09815 -4.13672 0
M  V30 6144 C 592.702 -0.3712 -5.3341 0
M  V30 6145 C 594.002 -2.43722 -4.61949 0
M  V30 6146 H 595.696 -1.63697 -2.50686 0
M  V30 6147 H 593.242 -0.788526 -1.20492 0
M  V30 6148 H 595.195 0.103325 -4.21273 0
M  V30 6149 H 593.919 0.781164 -3.1712 0
M  V30 6150 H 592.578 -1.33756 -3.41328 0
M  V30 6151 H 592.226 0.564792 -4.99819 0
M  V30 6152 H 591.926 -1.00267 -5.78982 0
M  V30 6153 H 593.45 -0.12503 -6.10472 0
M  V30 6154 H 594.864 -2.24034 -5.27714 0
M  V30 6155 H 593.261 -3.02582 -5.18232 0
M  V30 6156 H 594.331 -3.05082 -3.76899 0
M  V30 6157 N 595.674 1.31259 -0.872281 0
M  V30 6158 C 596.604 2.30929 -0.345554 0
M  V30 6159 C 597.585 1.60449 0.5648 0
M  V30 6160 O 598.77 1.8814 0.481335 0
M  V30 6161 C 595.9 3.44348 0.451823 0
M  V30 6162 C 594.854 4.26435 -0.365641 0
M  V30 6163 C 594.18 5.31785 0.557562 0
M  V30 6164 C 595.48 4.97159 -1.60095 0
M  V30 6165 H 597.174 2.75234 -1.17841 0
M  V30 6166 H 594.72 1.3232 -0.568094 0
M  V30 6167 H 596.673 4.13128 0.830854 0
M  V30 6168 H 595.397 2.98816 1.31821 0
M  V30 6169 H 594.056 3.59326 -0.726649 0
M  V30 6170 H 593.704 4.82502 1.4213 0
M  V30 6171 H 593.404 5.87598 0.0144878 0
M  V30 6172 H 594.928 6.03424 0.933387 0
M  V30 6173 H 596.342 5.58523 -1.29323 0
M  V30 6174 H 594.739 5.62779 -2.08327 0
M  V30 6175 H 595.809 4.24012 -2.35249 0
M  V30 6176 N 597.152 0.631951 1.44375 0
M  V30 6177 C 598.4 0.136497 2.01639 0
M  V30 6178 C 598.721 -1.24637 1.49969 0
M  V30 6179 O 597.991 -1.82827 0.70363 0
M  V30 6180 H 596.571 0.0474703 0.74549 0
M  V30 6181 H 599.233 0.818837 1.76865 0
M  V30 6182 H 598.329 0.104817 3.11924 0
M  V30 6183 N 598.631 -1.53133 0.372548 0
M  V30 6184 C 600.042 -1.86404 -0.105155 0
M  V30 6185 C 600.393 -1.29289 -1.47576 0
M  V30 6186 O 599.518 -0.617646 -2.07398 0
M  V30 6187 C 600.113 -3.38223 -0.197588 0
M  V30 6188 C 598.672 -3.71266 -0.619556 0
M  V30 6189 C 597.819 -2.76353 0.228919 0
M  V30 6190 H 600.77 -1.47282 0.591077 0
M  V30 6191 H 600.791 -3.66577 -1.01987 0
M  V30 6192 H 600.303 -3.79763 0.800099 0
M  V30 6193 H 598.404 -3.35287 -1.62522 0
M  V30 6194 H 598.517 -4.77515 -0.389332 0
M  V30 6195 H 596.881 -2.52888 -0.303271 0
M  V30 6196 H 597.664 -3.20728 1.22428 0
M  V30 6197 N 600.109 -0.101901 -1.5727 0
M  V30 6198 C 601.52 0.426173 -1.81771 0
M  V30 6199 C 601.871 1.67725 -1.01797 0
M  V30 6200 O 600.996 2.14958 -0.249386 0
M  V30 6201 C 601.591 0.779962 -3.297 0
M  V30 6202 C 600.15 1.25275 -3.54941 0
M  V30 6203 C 599.297 0.252814 -2.76145 0
M  V30 6204 H 602.248 -0.32726 -1.55289 0
M  V30 6205 H 602.269 1.63891 -3.43395 0
M  V30 6206 H 601.781 -0.130778 -3.8788 0
M  V30 6207 H 599.882 2.18097 -3.021 0
M  V30 6208 H 599.995 1.20988 -4.63572 0
M  V30 6209 H 598.359 0.736362 -2.43823 0
M  V30 6210 H 599.142 -0.650724 -3.37076 0
M  V30 6211 N 601.587 1.56661 0.17182 0
M  V30 6212 C 602.517 1.99401 1.21498 0
M  V30 6213 C 603.498 0.869516 1.46197 0
M  V30 6214 O 604.683 1.13556 1.57539 0
M  V30 6215 C 601.813 2.35346 2.55401 0
M  V30 6216 C 600.767 3.5075 2.45272 0
M  V30 6217 C 600.093 3.72437 3.8366 0
M  V30 6218 C 601.393 4.84216 1.95787 0
M  V30 6219 H 603.087 2.86792 0.859699 0
M  V30 6220 H 600.633 1.37977 0.412103 0
M  V30 6221 H 602.586 2.63843 3.2858 0
M  V30 6222 H 601.31 1.44864 2.92715 0
M  V30 6223 H 599.969 3.2238 1.74547 0
M  V30 6224 H 599.617 2.79246 4.18367 0
M  V30 6225 H 599.317 4.50087 3.77751 0
M  V30 6226 H 600.841 4.03334 4.58426 0
M  V30 6227 H 602.255 5.11592 2.5874 0
M  V30 6228 H 600.652 5.65498 2.00827 0
M  V30 6229 H 601.722 4.76243 0.912159 0
M  V30 6230 N 603.065 -0.440357 1.51323 0
M  V30 6231 C 603.995 -1.54174 1.75364 0
M  V30 6232 C 604.976 -1.59039 0.603375 0
M  V30 6233 O 606.161 -1.74815 0.845774 0
M  V30 6234 C 603.291 -2.92277 1.87593 0
M  V30 6235 C 602.245 -3.02274 3.03009 0
M  V30 6236 C 601.571 -4.42327 3.00418 0
M  V30 6237 C 602.871 -2.76634 4.43024 0
M  V30 6238 H 604.565 -1.34307 2.67585 0
M  V30 6239 H 602.111 -0.644678 1.28763 0
M  V30 6240 H 604.064 -3.69284 2.02995 0
M  V30 6241 H 602.788 -3.13369 0.920179 0
M  V30 6242 H 601.447 -2.27706 2.87307 0
M  V30 6243 H 601.095 -4.60382 2.02626 0
M  V30 6244 H 600.795 -4.49946 3.77918 0
M  V30 6245 H 602.319 -5.21312 3.17909 0
M  V30 6246 H 603.733 -3.43376 4.59093 0
M  V30 6247 H 602.13 -2.95666 5.22208 0
M  V30 6248 H 603.2 -1.72262 4.5327 0
M  V30 6249 N 604.543 -1.41418 -0.695603 0
M  V30 6250 C 605.791 -1.40496 -1.45277 0
M  V30 6251 C 606.112 -0.0149538 -1.94994 0
M  V30 6252 O 605.382 0.9432 -1.71699 0
M  V30 6253 H 603.962 -0.517147 -0.539044 0
M  V30 6254 H 606.624 -1.76656 -0.823321 0
M  V30 6255 H 605.72 -2.09214 -2.31595 0
M  V30 6256 N 606.021 0.929856 -1.27246 0
M  V30 6257 C 607.437 1.20542 -1.04603 0
M  V30 6258 C 607.637 2.00276 0.221754 0
M  V30 6259 O 606.693 2.34835 0.927833 0
M  V30 6260 C 608.006 1.95566 -2.28417 0
M  V30 6261 C 609.554 2.08513 -2.33433 0
M  V30 6262 C 610.029 2.86943 -3.5697 0
M  V30 6263 N 611.52 2.94512 -3.57515 0
M  V30 6264 C 612.255 3.55656 -4.49774 0
M  V30 6265 N 611.751 4.18209 -5.52334 0
M  V30 6266 N 613.544 3.53038 -4.37402 0
M  V30 6267 H 605.695 0.397113 -2.08655 0
M  V30 6268 H 607.958 0.238277 -0.917566 0
M  V30 6269 H 607.664 1.44395 -3.20691 0
M  V30 6270 H 607.538 2.9619 -2.33563 0
M  V30 6271 H 609.925 2.58872 -1.41666 0
M  V30 6272 H 610.006 1.07117 -2.32292 0
M  V30 6273 H 609.65 2.37268 -4.49072 0
M  V30 6274 H 609.58 3.8862 -3.55362 0
M  V30 6275 H 612.071 2.50053 -2.83341 0
M  V30 6276 H 612.384 4.62796 -6.18902 0
M  V30 6277 H 610.729 4.16761 -5.56179 0
M  V30 6278 H 613.92 3.0337 -3.56489 0
M  V30 6279 H 614.093 4.004 -5.09493 0
M  V30 6280 N 607.499 1.09233 1.13605 0
M  V30 6281 C 608.429 0.751738 2.21068 0
M  V30 6282 C 609.41 -0.269688 1.67948 0
M  V30 6283 O 610.595 -0.13819 1.93708 0
M  V30 6284 C 607.725 0.16935 3.46887 0
M  V30 6285 C 606.679 1.12007 4.13084 0
M  V30 6286 C 606.005 0.399483 5.33206 0
M  V30 6287 C 607.305 2.46168 4.6065 0
M  V30 6288 H 608.999 1.65024 2.49815 0
M  V30 6289 H 606.545 0.794905 1.20072 0
M  V30 6290 H 608.498 -0.0809824 4.21322 0
M  V30 6291 H 607.222 -0.764335 3.1753 0
M  V30 6292 H 605.881 1.35564 3.40614 0
M  V30 6293 H 605.529 -0.538277 5.00112 0
M  V30 6294 H 605.229 1.03337 5.78442 0
M  V30 6295 H 606.753 0.157403 6.10397 0
M  V30 6296 H 608.167 2.26829 5.26518 0
M  V30 6297 H 606.564 3.05326 5.1662 0
M  V30 6298 H 607.634 3.07076 3.75276 0
M  V30 6299 N 608.977 -1.30795 0.87923 0
M  V30 6300 C 609.925 -2.30231 0.331112 0
M  V30 6301 C 610.919 -1.59918 -0.558794 0
M  V30 6302 O 612.125 -1.74441 -0.443866 0
M  V30 6303 H 608.5 -0.746785 0.088409 0
M  V30 6304 H 610.471 -2.73925 1.18353 0
M  V30 6305 C 609.22 -3.44848 -0.444401 0
M  V30 6306 H 608.543 -3.99131 0.231106 0
M  V30 6307 H 609.983 -4.16516 -0.793109 0
M  V30 6308 C 608.442 -2.94329 -1.63926 0
M  V30 6309 O 608.972 -2.93875 -2.73862 0
M  V30 6310 N 607.178 -2.50413 -1.4745 0
M  V30 6311 H 606.725 -2.50982 -0.58015 0
M  V30 6312 H 606.683 -2.16969 -2.27534 0
M  V30 6313 N 610.455 -0.639598 -1.44038 0
M  V30 6314 C 611.732 -0.078012 -1.95444 0
M  V30 6315 C 612.112 1.39847 -1.58133 0
M  V30 6316 O 611.46 2.11714 -0.859614 0
M  V30 6317 C 611.67 -0.309832 -3.47622 0
M  V30 6318 C 613.018 -0.207521 -4.24093 0
M  V30 6319 O 614.042 -0.241653 -3.55379 0
M  V30 6320 O 612.901 -0.119641 -5.46369 0
M  V30 6321 H 609.995 0.0174534 -0.826816 0
M  V30 6322 H 612.541 -0.711891 -1.54046 0
M  V30 6323 H 611.313 -1.33401 -3.67858 0
M  V30 6324 H 610.936 0.357777 -3.95987 0
M  V30 6325 N 611.933 1.52934 -0.380664 0
M  V30 6326 C 612.866 2.22597 0.502564 0
M  V30 6327 C 613.844 1.22345 1.071 0
M  V30 6328 O 615.028 1.51302 1.12428 0
M  V30 6329 C 612.155 2.93246 1.69482 0
M  V30 6330 C 611.201 4.07696 1.25244 0
M  V30 6331 S 612.034 5.34957 0.241159 0
M  V30 6332 C 613.19 6.09124 1.4394 0
M  V30 6333 H 613.423 2.97167 -0.089029 0
M  V30 6334 H 610.956 1.53518 -0.164817 0
M  V30 6335 H 612.914 3.34562 2.37863 0
M  V30 6336 H 611.575 2.18373 2.2577 0
M  V30 6337 H 610.768 4.56199 2.1424 0
M  V30 6338 H 610.37 3.68349 0.647664 0
M  V30 6339 H 612.662 6.34771 2.36794 0
M  V30 6340 H 613.605 7.01068 0.995464 0
M  V30 6341 H 614.013 5.39777 1.65229 0
M  V30 6342 N 613.412 0.11024 1.57214 0
M  V30 6343 C 614.642 -0.557025 1.98949 0
M  V30 6344 C 615.05 -1.61317 0.988606 0
M  V30 6345 O 614.393 -1.83679 -0.0279159 0
M  V30 6346 C 614.455 -1.24956 3.37085 0
M  V30 6347 C 614.119 -0.342398 4.55716 0
M  V30 6348 C 615.116 0.415511 5.18237 0
M  V30 6349 C 612.801 -0.256029 5.01647 0
M  V30 6350 C 614.795 1.24761 6.25071 0
M  V30 6351 C 612.482 0.579713 6.08344 0
M  V30 6352 C 613.48 1.33017 6.69922 0
M  V30 6353 O 613.168 2.15205 7.74559 0
M  V30 6354 H 612.9 -0.152792 0.658506 0
M  V30 6355 H 615.454 0.19076 2.04512 0
M  V30 6356 H 613.684 -2.04424 3.2825 0
M  V30 6357 H 615.373 -1.81286 3.63167 0
M  V30 6358 H 616.139 0.358605 4.83672 0
M  V30 6359 H 612.018 -0.829831 4.5347 0
M  V30 6360 H 615.562 1.83386 6.73064 0
M  V30 6361 H 611.459 0.638044 6.42339 0
M  V30 6362 H 612.227 2.08052 7.91617 0
M  V30 6363 N 614.89 -1.56749 -0.16351 0
M  V30 6364 C 616.138 -1.82074 -0.87713 0
M  V30 6365 C 616.459 -0.688503 -1.82441 0
M  V30 6366 O 615.729 0.291085 -1.93725 0
M  V30 6367 H 614.309 -0.671677 -0.326893 0
M  V30 6368 H 616.971 -1.9423 -0.161459 0
M  V30 6369 H 616.067 -2.76407 -1.44934 0
M  V30 6370 N 616.368 0.432326 -1.51554 0
M  V30 6371 C 617.645 1.19288 -1.55015 0
M  V30 6372 C 618.025 2.08701 -0.317375 0
M  V30 6373 O 617.373 2.17602 0.697243 0
M  V30 6374 C 617.583 1.99037 -2.86679 0
M  V30 6375 C 618.931 2.55907 -3.38817 0
M  V30 6376 O 619.955 2.09243 -2.88263 0
M  V30 6377 O 618.814 3.41029 -4.27038 0
M  V30 6378 H 615.908 0.543369 -0.623441 0
M  V30 6379 H 618.454 0.440988 -1.6387 0
M  V30 6380 H 617.226 1.33397 -3.6786 0
M  V30 6381 H 616.849 2.81281 -2.8101 0
M  V30 6382 N 617.846 1.41785 0.688094 0
M  V30 6383 C 619.076 1.44705 1.47459 0
M  V30 6384 C 619.484 0.052916 1.89126 0
M  V30 6385 O 618.827 -0.939781 1.57841 0
M  V30 6386 C 618.889 2.29935 2.76352 0
M  V30 6387 C 618.553 3.77996 2.56843 0
M  V30 6388 C 619.55 4.69976 2.22304 0
M  V30 6389 C 617.235 4.2212 2.7225 0
M  V30 6390 C 619.229 6.04068 2.03421 0
M  V30 6391 C 616.916 5.56275 2.52985 0
M  V30 6392 C 617.914 6.47065 2.18621 0
M  V30 6393 O 617.602 7.78744 1.9953 0
M  V30 6394 H 617.334 0.494703 0.460701 0
M  V30 6395 H 619.888 1.86802 0.854057 0
M  V30 6396 H 618.118 1.82664 3.40839 0
M  V30 6397 H 619.807 2.24467 3.38186 0
M  V30 6398 H 620.573 4.37175 2.10008 0
M  V30 6399 H 616.452 3.51752 2.97979 0
M  V30 6400 H 619.996 6.74897 1.76523 0
M  V30 6401 H 615.893 5.88653 2.64873 0
M  V30 6402 H 616.661 7.89966 2.14234 0
M  V30 6403 N 619.324 -0.923095 1.27737 0
M  V30 6404 C 620.271 -2.02432 1.1086 0
M  V30 6405 C 621.241 -1.66098 0.00835195 0
M  V30 6406 O 622.426 -1.90027 0.171542 0
M  V30 6407 C 619.566 -3.36476 0.766671 0
M  V30 6408 C 618.679 -3.85737 1.94501 0
M  V30 6409 C 617.814 -5.08249 1.54455 0
M  V30 6410 C 616.853 -5.49818 2.6901 0
M  V30 6411 N 615.99 -6.63524 2.29521 0
M  V30 6412 H 620.83 -2.16201 2.05089 0
M  V30 6413 H 618.367 -1.05909 1.02087 0
M  V30 6414 H 620.325 -4.13569 0.549223 0
M  V30 6415 H 618.955 -3.22502 -0.13867 0
M  V30 6416 H 618.007 -3.04883 2.27487 0
M  V30 6417 H 619.319 -4.12513 2.80419 0
M  V30 6418 H 618.473 -5.92857 1.28862 0
M  V30 6419 H 617.212 -4.83261 0.656534 0
M  V30 6420 H 616.217 -4.63757 2.95313 0
M  V30 6421 H 617.442 -5.76799 3.5844 0
M  V30 6422 H 615.388 -6.40185 1.43177 0
M  V30 6423 H 615.305 -6.89978 3.08977 0
M  V30 6424 H 616.573 -7.51461 2.07187 0
M  V30 6425 N 620.802 -1.09834 -1.13024 0
M  V30 6426 C 622.032 -0.857657 -1.87957 0
M  V30 6427 C 622.44 0.595008 -1.796 0
M  V30 6428 O 621.783 1.42158 -1.16347 0
M  V30 6429 C 621.845 -1.21949 -3.38185 0
M  V30 6430 C 621.509 -2.67791 -3.7032 0
M  V30 6431 C 622.506 -3.66036 -3.69207 0
M  V30 6432 C 620.191 -3.04019 -3.99847 0
M  V30 6433 C 622.185 -4.98533 -3.9717 0
M  V30 6434 C 619.872 -4.36706 -4.27471 0
M  V30 6435 C 620.87 -5.33772 -4.26118 0
M  V30 6436 O 620.558 -6.64072 -4.53061 0
M  V30 6437 H 620.29 -0.308009 -0.601753 0
M  V30 6438 H 622.844 -1.46496 -1.43973 0
M  V30 6439 H 621.074 -0.555249 -3.82693 0
M  V30 6440 H 622.763 -0.957281 -3.9445 0
M  V30 6441 H 623.529 -3.39392 -3.46465 0
M  V30 6442 H 619.408 -2.29096 -4.00045 0
M  V30 6443 H 622.952 -5.74288 -3.96029 0
M  V30 6444 H 618.849 -4.63091 -4.49685 0
M  V30 6445 H 619.617 -6.69608 -4.7071 0
M  V30 6446 N 622.28 1.30327 -0.886154 0
M  V30 6447 C 623.508 2.00254 -0.520176 0
M  V30 6448 C 623.923 1.66419 0.891637 0
M  V30 6449 O 623.28 0.901951 1.58654 0
M  V30 6450 C 623.331 3.54916 -0.686775 0
M  V30 6451 O 623.052 3.87547 -2.04301 0
M  V30 6452 C 624.553 4.42115 -0.323945 0
M  V30 6453 H 621.773 0.640204 -0.200947 0
M  V30 6454 H 624.317 1.66183 -1.19178 0
M  V30 6455 H 622.472 3.8735 -0.0625273 0
M  V30 6456 H 622.886 4.82247 -2.06249 0
M  V30 6457 H 624.36 5.49808 -0.491407 0
M  V30 6458 H 624.837 4.32953 0.73811 0
M  V30 6459 H 625.443 4.15129 -0.924565 0
M  V30 6460 N 623.758 0.647228 1.43697 0
M  V30 6461 C 624.988 0.16551 2.05936 0
M  V30 6462 C 625.396 -1.17164 1.48557 0
M  V30 6463 O 624.739 -1.73307 0.60914 0
M  V30 6464 C 624.801 -0.00648082 3.59499 0
M  V30 6465 C 624.465 1.25503 4.39429 0
M  V30 6466 C 625.462 2.18241 4.71876 0
M  V30 6467 C 623.147 1.49494 4.79538 0
M  V30 6468 C 625.141 3.33268 5.43333 0
M  V30 6469 C 622.828 2.64815 5.50742 0
M  V30 6470 C 623.826 3.56528 5.82561 0
M  V30 6471 O 623.514 4.69836 6.52311 0
M  V30 6472 H 623.246 0.0844124 0.670709 0
M  V30 6473 H 625.8 0.88638 1.8529 0
M  V30 6474 H 624.03 -0.782661 3.78697 0
M  V30 6475 H 625.719 -0.444794 4.03456 0
M  V30 6476 H 626.485 2.00946 4.41413 0
M  V30 6477 H 622.364 0.789912 4.54182 0
M  V30 6478 H 625.908 4.04874 5.68087 0
M  V30 6479 H 621.805 2.82047 5.8062 0
M  V30 6480 H 622.573 4.69024 6.70789 0
M  V30 6481 N 625.236 -1.5273 0.388769 0
M  V30 6482 C 626.482 -2.02545 -0.186351 0
M  V30 6483 C 626.837 -1.27017 -1.44514 0
M  V30 6484 O 626.13 -0.361948 -1.8815 0
M  V30 6485 C 626.324 -3.53765 -0.508445 0
M  V30 6486 C 626.153 -4.43938 0.71758 0
M  V30 6487 C 624.923 -4.89933 1.23668 0
M  V30 6488 C 627.121 -4.89113 1.58974 0
M  V30 6489 N 625.103 -5.64176 2.42031 0
M  V30 6490 C 626.474 -5.61931 2.61979 0
M  V30 6491 C 628.529 -4.71155 1.60989 0
M  V30 6492 C 627.232 -6.18698 3.66886 0
M  V30 6493 C 629.258 -5.28804 2.64803 0
M  V30 6494 C 628.62 -6.01527 3.6653 0
M  V30 6495 H 624.719 -0.781413 -0.0302921 0
M  V30 6496 H 627.303 -1.87104 0.538539 0
M  V30 6497 H 625.474 -3.6932 -1.20239 0
M  V30 6498 H 627.206 -3.9028 -1.07067 0
M  V30 6499 H 623.961 -4.66833 0.797763 0
M  V30 6500 H 624.385 -6.05949 3.01919 0
M  V30 6501 H 629.027 -4.14435 0.836881 0
M  V30 6502 H 626.745 -6.74501 4.45055 0
M  V30 6503 H 630.331 -5.1679 2.67245 0
M  V30 6504 H 629.211 -6.45339 4.45542 0
M  V30 6505 N 626.714 -0.118576 -1.57153 0
M  V30 6506 C 627.677 0.817464 -2.14127 0
M  V30 6507 C 628.677 1.1949 -1.07604 0
M  V30 6508 O 629.867 1.12048 -1.33382 0
M  V30 6509 C 626.999 2.10541 -2.68115 0
M  V30 6510 H 628.192 0.322339 -2.98163 0
M  V30 6511 H 625.745 0.130655 -1.55753 0
M  V30 6512 H 626.48 2.64485 -1.87665 0
M  V30 6513 H 626.265 1.84425 -3.4602 0
M  V30 6514 H 627.755 2.77453 -3.12105 0
M  V30 6515 N 628.193 1.56834 0.155195 0
M  V30 6516 C 629.433 1.84701 0.875488 0
M  V30 6517 C 629.797 0.701747 1.78716 0
M  V30 6518 O 630.998 0.861263 2.54629 0
M  V30 6519 C 629.269 3.1773 1.63654 0
M  V30 6520 S 630.828 3.67128 2.40338 0
M  V30 6521 H 627.646 0.647856 0.292923 0
M  V30 6522 H 630.248 1.95026 0.136024 0
M  V30 6523 H 628.952 3.99059 0.958117 0
M  V30 6524 H 628.483 3.10388 2.41708 0
M  V30 6525 H 630.498 3.35739 3.65368 0
M  V30 6526 N 629.671 -0.424282 1.51781 0
M  V30 6527 C 630.919 -1.17028 1.64769 0
M  V30 6528 C 631.24 -1.91409 0.372523 0
M  V30 6529 O 630.51 -1.86091 -0.612108 0
M  V30 6530 H 629.09 -0.434992 0.607282 0
M  V30 6531 H 631.752 -0.485169 1.88765 0
M  V30 6532 H 630.848 -1.8927 2.4816 0
M  V30 6533 N 631.149 -1.42148 -0.680565 0
M  V30 6534 C 632.395 -1.42521 -1.44277 0
M  V30 6535 C 632.728 -0.0393718 -1.9416 0
M  V30 6536 O 632.003 0.935425 -1.70529 0
M  V30 6537 C 632.286 -2.44475 -2.64394 0
M  V30 6538 C 632.139 -3.92226 -2.20179 0
M  V30 6539 C 633.458 -2.43491 -3.66606 0
M  V30 6540 H 630.577 -0.518985 -0.523282 0
M  V30 6541 H 633.219 -1.73524 -0.773914 0
M  V30 6542 H 631.369 -2.18168 -3.21458 0
M  V30 6543 H 633.041 -4.29493 -1.68327 0
M  V30 6544 H 631.284 -4.0637 -1.5181 0
M  V30 6545 H 631.955 -4.59133 -3.06433 0
M  V30 6546 H 634.431 -2.66872 -3.19247 0
M  V30 6547 H 633.307 -3.16816 -4.4824 0
M  V30 6548 H 633.568 -1.45881 -4.17338 0
M  V30 6549 N 632.627 0.916307 -1.28225 0
M  V30 6550 C 633.873 1.66765 -1.154 0
M  V30 6551 C 634.206 1.91912 0.297251 0
M  V30 6552 O 633.481 1.51766 1.21644 0
M  V30 6553 C 633.764 3.02715 -1.95028 0
M  V30 6554 C 633.617 2.84738 -3.48201 0
M  V30 6555 C 634.936 4.03215 -1.76369 0
M  V30 6556 H 632.055 0.605205 -0.42059 0
M  V30 6557 H 634.697 1.06255 -1.57512 0
M  V30 6558 H 632.847 3.54365 -1.59242 0
M  V30 6559 H 634.519 2.40118 -3.9388 0
M  V30 6560 H 632.762 2.19848 -3.73964 0
M  V30 6561 H 633.433 3.8127 -3.99171 0
M  V30 6562 H 635.909 3.60617 -2.07593 0
M  V30 6563 H 634.785 4.96306 -2.34459 0
M  V30 6564 H 635.046 4.36288 -0.71452 0
M  V30 6565 N 634.105 1.10431 1.1244 0
M  V30 6566 C 635.035 0.775143 2.20258 0
M  V30 6567 C 636.016 -0.25186 1.68225 0
M  V30 6568 O 637.201 -0.117637 1.93843 0
M  V30 6569 C 634.331 0.206133 3.46688 0
M  V30 6570 C 633.285 1.16382 4.11873 0
M  V30 6571 C 632.611 0.456014 5.32752 0
M  V30 6572 C 633.911 2.5104 4.58013 0
M  V30 6573 H 635.605 1.67665 2.4805 0
M  V30 6574 H 633.151 0.807595 1.19222 0
M  V30 6575 H 635.104 -0.036291 4.21384 0
M  V30 6576 H 633.828 -0.730614 3.18323 0
M  V30 6577 H 632.487 1.39169 3.39157 0
M  V30 6578 H 632.135 -0.485203 5.00654 0
M  V30 6579 H 631.835 1.09466 5.77314 0
M  V30 6580 H 633.359 0.222135 6.10196 0
M  V30 6581 H 634.773 2.32401 5.24083 0
M  V30 6582 H 633.17 3.10789 5.13352 0
M  V30 6583 H 634.24 3.11039 3.71998 0
M  V30 6584 N 635.583 -1.29855 0.893053 0
M  V30 6585 C 636.832 -1.95104 0.511597 0
M  V30 6586 C 637.145 -1.71226 -0.945567 0
M  V30 6587 O 638.351 -2.30525 -1.43424 0
M  V30 6588 C 636.807 -3.49374 0.864034 0
M  V30 6589 C 636.415 -3.82061 2.33952 0
M  V30 6590 C 638.159 -4.20894 0.552167 0
M  V30 6591 C 636.066 -5.29546 2.63316 0
M  V30 6592 H 634.996 -0.73029 0.187597 0
M  V30 6593 H 637.647 -1.47682 1.08914 0
M  V30 6594 H 636.029 -3.95413 0.215493 0
M  V30 6595 H 637.203 -3.46904 3.03305 0
M  V30 6596 H 635.518 -3.23665 2.61973 0
M  V30 6597 H 638.115 -5.29435 0.748489 0
M  V30 6598 H 638.458 -4.13178 -0.508924 0
M  V30 6599 H 638.991 -3.80564 1.15825 0
M  V30 6600 H 635.73 -5.4232 3.68197 0
M  V30 6601 H 635.25 -5.65974 1.9858 0
M  V30 6602 H 636.929 -5.97068 2.49236 0
M  V30 6603 N 637.061 -0.65484 -1.43351 0
M  V30 6604 C 638.31 -0.166215 -2.01014 0
M  V30 6605 C 638.623 1.22764 -1.52278 0
M  V30 6606 O 639.829 1.81156 -2.02224 0
M  V30 6607 C 638.285 -0.246341 -3.59056 0
M  V30 6608 C 637.893 -1.64299 -4.16785 0
M  V30 6609 C 639.637 0.184597 -4.24098 0
M  V30 6610 C 637.544 -1.67695 -5.67126 0
M  V30 6611 H 636.474 -0.0583769 -0.751737 0
M  V30 6612 H 639.125 -0.817111 -1.64303 0
M  V30 6613 H 637.507 0.472092 -3.93176 0
M  V30 6614 H 638.681 -2.3869 -3.94162 0
M  V30 6615 H 636.996 -2.02004 -3.6412 0
M  V30 6616 H 639.593 0.179088 -5.344 0
M  V30 6617 H 639.936 1.21632 -3.98135 0
M  V30 6618 H 640.469 -0.482141 -3.94867 0
M  V30 6619 H 637.208 -2.68783 -5.9786 0
M  V30 6620 H 636.728 -0.976313 -5.91801 0
M  V30 6621 H 638.407 -1.42142 -6.31193 0
M  V30 6622 N 638.539 1.52521 -0.396863 0
M  V30 6623 C 639.764 2.06571 0.185258 0
M  V30 6624 C 640.189 1.26605 1.39115 0
M  V30 6625 O 639.547 0.293055 1.78916 0
M  V30 6626 C 639.595 3.5674 0.526189 0
M  V30 6627 O 638.699 3.7929 1.61903 0
M  V30 6628 H 638.04 0.663712 0.0195474 0
M  V30 6629 H 640.57 1.966 -0.566519 0
M  V30 6630 H 640.58 4.00311 0.788338 0
M  V30 6631 H 639.255 4.14379 -0.355397 0
M  V30 6632 H 637.832 3.47605 1.35 0
M  V30 6633 N 640.017 0.126909 1.57088 0
M  V30 6634 C 641.265 -0.528123 1.95078 0
M  V30 6635 C 641.586 -1.66708 1.0116 0
M  V30 6636 O 640.856 -1.95777 0.0693527 0
M  V30 6637 H 639.436 -0.198087 0.720257 0
M  V30 6638 H 642.098 0.197703 1.93895 0
M  V30 6639 H 641.194 -0.917507 2.98309 0
M  V30 6640 N 641.495 -1.56914 -0.146875 0
M  V30 6641 C 642.744 -1.82546 -0.857898 0
M  V30 6642 C 643.057 -0.708169 -1.8233 0
M  V30 6643 O 644.263 -0.850093 -2.57848 0
M  V30 6644 C 642.719 -3.23548 -1.57623 0
M  V30 6645 C 642.327 -4.43212 -0.653224 0
M  V30 6646 C 644.071 -3.58453 -2.27402 0
M  V30 6647 C 641.978 -5.75237 -1.37318 0
M  V30 6648 H 640.908 -0.680786 -0.32411 0
M  V30 6649 H 643.559 -1.83166 -0.110639 0
M  V30 6650 H 641.941 -3.17315 -2.36912 0
M  V30 6651 H 643.115 -4.60682 0.104452 0
M  V30 6652 H 641.43 -4.16351 -0.0638336 0
M  V30 6653 H 644.027 -4.54349 -2.81907 0
M  V30 6654 H 644.37 -2.84516 -3.03901 0
M  V30 6655 H 644.903 -3.66347 -1.55032 0
M  V30 6656 H 641.642 -6.52269 -0.650041 0
M  V30 6657 H 641.162 -5.61703 -2.10357 0
M  V30 6658 H 642.841 -6.18039 -1.91406 0
M  V30 6659 N 642.974 0.416227 -1.52004 0
M  V30 6660 C 644.204 1.18401 -1.69307 0
M  V30 6661 C 644.612 1.84943 -0.399072 0
M  V30 6662 O 643.955 1.72406 0.634177 0
M  V30 6663 C 644.017 2.29465 -2.76742 0
M  V30 6664 C 643.681 1.83117 -4.18709 0
M  V30 6665 C 644.678 1.32286 -5.02789 0
M  V30 6666 C 642.363 1.90167 -4.64911 0
M  V30 6667 C 644.357 0.891178 -6.31139 0
M  V30 6668 C 642.044 1.4661 -5.93253 0
M  V30 6669 C 643.042 0.961696 -6.76196 0
M  V30 6670 O 642.73 0.532388 -8.02135 0
M  V30 6671 H 642.462 0.362098 -0.570843 0
M  V30 6672 H 645.016 0.496764 -1.99302 0
M  V30 6673 H 643.246 3.01531 -2.42107 0
M  V30 6674 H 644.935 2.91252 -2.82713 0
M  V30 6675 H 645.701 1.26218 -4.68288 0
M  V30 6676 H 641.58 2.28371 -4.00459 0
M  V30 6677 H 645.124 0.496788 -6.95829 0
M  V30 6678 H 641.021 1.52355 -6.27263 0
M  V30 6679 H 641.789 0.656339 -8.15864 0
M  V30 6680 N 644.452 1.42507 0.673017 0
M  V30 6681 C 645.382 1.48916 1.79851 0
M  V30 6682 C 646.363 0.345566 1.66553 0
M  V30 6683 O 647.548 0.560116 1.85947 0
M  V30 6684 C 644.678 1.39258 3.18158 0
M  V30 6685 C 643.632 2.51662 3.46194 0
M  V30 6686 C 642.958 2.27062 4.84094 0
M  V30 6687 C 644.258 3.93968 3.42909 0
M  V30 6688 H 645.952 2.43114 1.74745 0
M  V30 6689 H 643.498 1.17013 0.839288 0
M  V30 6690 H 645.451 1.42349 3.96629 0
M  V30 6691 H 644.175 0.415542 3.23946 0
M  V30 6692 H 642.834 2.47891 2.70084 0
M  V30 6693 H 642.482 1.27648 4.86534 0
M  V30 6694 H 642.182 3.02398 5.03815 0
M  V30 6695 H 643.706 2.31905 5.64847 0
M  V30 6696 H 645.12 3.99332 4.11347 0
M  V30 6697 H 643.517 4.6917 3.74165 0
M  V30 6698 H 644.587 4.20512 2.41449 0
M  V30 6699 N 645.93 -0.909495 1.28709 0
M  V30 6700 C 647.177 -1.65905 1.16111 0
M  V30 6701 C 647.505 -1.92334 -0.289436 0
M  V30 6702 O 646.76 -1.52495 -1.22653 0
M  V30 6703 C 647.059 -3.02117 1.90945 0
M  V30 6704 C 646.725 -2.95332 3.40719 0
M  V30 6705 C 645.387 -2.93189 3.81567 0
M  V30 6706 C 647.739 -2.85264 4.36204 0
M  V30 6707 C 645.067 -2.78784 5.16233 0
M  V30 6708 C 647.419 -2.724 5.70948 0
M  V30 6709 C 646.083 -2.68617 6.11066 0
M  V30 6710 H 645.353 -0.60709 0.42488 0
M  V30 6711 H 648 -1.05932 1.59533 0
M  V30 6712 H 646.305 -3.65901 1.40085 0
M  V30 6713 H 648.002 -3.59026 1.7861 0
M  V30 6714 H 644.592 -2.97797 3.08245 0
M  V30 6715 H 648.776 -2.86005 4.05605 0
M  V30 6716 H 644.032 -2.74254 5.46438 0
M  V30 6717 H 648.206 -2.63579 6.44592 0
M  V30 6718 H 645.833 -2.57213 7.15364 0
M  V30 6719 N 647.408 -1.11026 -1.11852 0
M  V30 6720 C 648.657 -0.851249 -1.82857 0
M  V30 6721 C 648.97 0.62514 -1.85341 0
M  V30 6722 O 650.176 1.00026 -2.52403 0
M  V30 6723 C 648.632 -1.47309 -3.28372 0
M  V30 6724 C 648.24 -2.9832 -3.34229 0
M  V30 6725 C 649.984 -1.29373 -4.04306 0
M  V30 6726 C 647.891 -3.53509 -4.74115 0
M  V30 6727 H 646.821 -0.314794 -0.685143 0
M  V30 6728 H 649.472 -1.33499 -1.25898 0
M  V30 6729 H 647.854 -0.917017 -3.85236 0
M  V30 6730 H 649.028 -3.60295 -2.87271 0
M  V30 6731 H 647.343 -3.15482 -2.71772 0
M  V30 6732 H 649.94 -1.68042 -5.07608 0
M  V30 6733 H 650.283 -0.235879 -4.15631 0
M  V30 6734 H 650.816 -1.8182 -3.53817 0
M  V30 6735 H 647.555 -4.58987 -4.67986 0
M  V30 6736 H 647.075 -2.96305 -5.21501 0
M  V30 6737 H 648.754 -3.51693 -5.43066 0
M  V30 6738 N 648.886 1.2938 -0.899927 0
M  V30 6739 C 650.134 1.95164 -0.524924 0
M  V30 6740 C 650.455 1.71292 0.931888 0
M  V30 6741 O 649.725 1.04481 1.65712 0
M  V30 6742 H 648.305 0.722133 -0.191135 0
M  V30 6743 H 650.967 1.57628 -1.14627 0
M  V30 6744 H 650.063 3.0397 -0.707711 0
M  V30 6745 N 650.364 0.662433 1.43002 0
M  V30 6746 C 651.297 -0.073459 2.28082 0
M  V30 6747 C 652.275 -0.820869 1.40358 0
M  V30 6748 O 653.459 -0.818545 1.698 0
M  V30 6749 C 650.586 -1.11097 3.19961 0
M  V30 6750 C 649.632 -0.460557 4.24006 0
M  V30 6751 S 650.465 0.772717 5.29896 0
M  V30 6752 C 651.621 -0.264028 6.25343 0
M  V30 6753 H 651.854 0.648227 2.90147 0
M  V30 6754 H 649.387 0.451566 1.47649 0
M  V30 6755 H 651.345 -1.70452 3.73439 0
M  V30 6756 H 650.006 -1.80503 2.57056 0
M  V30 6757 H 649.199 -1.24299 4.88432 0
M  V30 6758 H 648.801 0.0591038 3.73953 0
M  V30 6759 H 651.093 -1.12748 6.68052 0
M  V30 6760 H 652.036 0.345443 7.07257 0
M  V30 6761 H 652.444 -0.603964 5.6126 0
M  V30 6762 N 651.842 -1.52309 0.404946 0
M  V30 6763 C 653.09 -2.01368 -0.17186 0
M  V30 6764 C 653.411 -1.29261 -1.46002 0
M  V30 6765 O 652.681 -0.41729 -1.91404 0
M  V30 6766 H 651.261 -0.744034 -0.0664993 0
M  V30 6767 H 653.923 -1.87263 0.540228 0
M  V30 6768 H 653.019 -3.09888 -0.370957 0
M  V30 6769 N 653.32 -0.135238 -1.57019 0
M  V30 6770 C 654.569 0.518694 -1.94917 0
M  V30 6771 C 654.882 1.66783 -1.0219 0
M  V30 6772 O 656.088 2.38561 -1.29619 0
M  V30 6773 C 654.544 0.974123 -3.46466 0
M  V30 6774 C 654.152 -0.147439 -4.47757 0
M  V30 6775 C 655.896 1.59851 -3.93253 0
M  V30 6776 C 653.803 0.325599 -5.90503 0
M  V30 6777 H 652.733 0.19754 -0.727663 0
M  V30 6778 H 655.384 -0.217698 -1.82204 0
M  V30 6779 H 653.766 1.76542 -3.5447 0
M  V30 6780 H 654.94 -0.924122 -4.51438 0
M  V30 6781 H 653.255 -0.679496 -4.10818 0
M  V30 6782 H 655.852 1.96385 -4.9733 0
M  V30 6783 H 656.195 2.48306 -3.3414 0
M  V30 6784 H 656.728 0.872323 -3.88118 0
M  V30 6785 H 653.467 -0.523295 -6.53408 0
M  V30 6786 H 652.987 1.06841 -5.90208 0
M  V30 6787 H 654.666 0.781498 -6.42263 0
M  V30 6788 N 654.798 1.5699 0.138552 0
M  V30 6789 C 655.746 1.99858 1.18994 0
M  V30 6790 C 656.74 0.89231 1.43994 0
M  V30 6791 O 657.946 1.0775 1.44187 0
M  V30 6792 H 654.321 0.636325 0.400743 0
M  V30 6793 H 656.292 2.87427 0.801755 0
M  V30 6794 C 655.041 2.40235 2.51361 0
M  V30 6795 H 654.364 3.24917 2.32957 0
M  V30 6796 H 655.804 2.74045 3.23535 0
M  V30 6797 C 654.263 1.25829 3.1252 0
M  V30 6798 O 654.793 0.563604 3.97727 0
M  V30 6799 N 652.999 1.02036 2.72097 0
M  V30 6800 H 652.546 1.58705 2.02905 0
M  V30 6801 H 652.504 0.256796 3.1335 0
M  V30 6802 N 656.276 -0.40816 1.52223 0
M  V30 6803 C 657.506 -1.17501 1.69932 0
M  V30 6804 C 657.914 -1.84729 0.408874 0
M  V30 6805 O 657.257 -1.7274 -0.625025 0
M  V30 6806 C 657.319 -2.27994 2.77955 0
M  V30 6807 C 656.983 -1.80894 4.19674 0
M  V30 6808 C 657.98 -1.29618 5.03483 0
M  V30 6809 C 655.665 -1.87698 4.65913 0
M  V30 6810 C 657.659 -0.857695 6.31603 0
M  V30 6811 C 655.346 -1.43461 5.94022 0
M  V30 6812 C 656.344 -0.925822 6.76696 0
M  V30 6813 O 656.032 -0.489841 8.02406 0
M  V30 6814 H 655.764 -0.359065 0.572755 0
M  V30 6815 H 658.318 -0.486188 1.99563 0
M  V30 6816 H 656.548 -3.00243 2.43703 0
M  V30 6817 H 658.237 -2.89749 2.84254 0
M  V30 6818 H 659.003 -1.23733 4.68951 0
M  V30 6819 H 654.882 -2.26244 4.01665 0
M  V30 6820 H 658.426 -0.459879 6.96083 0
M  V30 6821 H 654.323 -1.49026 6.28062 0
M  V30 6822 H 655.091 -0.613062 8.16201 0
M  V30 6823 N 657.755 -1.42862 -0.66545 0
M  V30 6824 C 659.171 -1.25993 -0.979687 0
M  V30 6825 C 659.371 -0.170831 -2.00775 0
M  V30 6826 O 658.427 0.454827 -2.4837 0
M  V30 6827 C 659.74 -2.62005 -1.47559 0
M  V30 6828 C 661.288 -2.69437 -1.59288 0
M  V30 6829 C 661.763 -4.05838 -2.12272 0
M  V30 6830 N 663.254 -4.0784 -2.19592 0
M  V30 6831 C 663.989 -5.10205 -2.61684 0
M  V30 6832 N 663.485 -6.22949 -3.03161 0
M  V30 6833 N 665.278 -4.9756 -2.61516 0
M  V30 6834 H 657.429 -2.12395 0.0150493 0
M  V30 6835 H 659.692 -0.946355 -0.0558187 0
M  V30 6836 H 659.398 -3.42605 -0.794654 0
M  V30 6837 H 659.272 -2.86566 -2.45275 0
M  V30 6838 H 661.659 -1.89178 -2.26486 0
M  V30 6839 H 661.74 -2.48655 -0.600374 0
M  V30 6840 H 661.384 -4.86559 -1.4568 0
M  V30 6841 H 661.314 -4.23977 -3.12331 0
M  V30 6842 H 663.805 -3.26452 -1.90361 0
M  V30 6843 H 664.118 -6.96899 -3.33993 0
M  V30 6844 H 662.463 -6.2644 -3.00995 0
M  V30 6845 H 665.654 -4.08551 -2.28481 0
M  V30 6846 H 665.827 -5.77468 -2.93999 0
M  V30 6847 N 659.233 0.902656 -1.29189 0
M  V30 6848 C 660.163 2.02294 -1.16616 0
M  V30 6849 C 661.144 1.6999 -0.0611175 0
M  V30 6850 O 662.329 1.9271 -0.240072 0
M  V30 6851 C 659.459 3.37018 -0.83882 0
M  V30 6852 C 658.413 3.83522 -1.89986 0
M  V30 6853 C 657.739 5.15337 -1.42589 0
M  V30 6854 C 659.039 4.04169 -3.30824 0
M  V30 6855 H 660.733 2.13071 -2.10336 0
M  V30 6856 H 658.279 1.02378 -1.01266 0
M  V30 6857 H 660.232 4.14895 -0.737584 0
M  V30 6858 H 658.956 3.26325 0.134071 0
M  V30 6859 H 657.615 3.07859 -1.99043 0
M  V30 6860 H 657.263 5.01056 -0.441759 0
M  V30 6861 H 656.963 5.47423 -2.13547 0
M  V30 6862 H 658.487 5.95758 -1.3381 0
M  V30 6863 H 659.901 4.72537 -3.24626 0
M  V30 6864 H 658.298 4.47604 -3.99713 0
M  V30 6865 H 659.368 3.08604 -3.74021 0
M  V30 6866 N 660.711 1.11618 1.11262 0
M  V30 6867 C 661.641 0.79846 2.19424 0
M  V30 6868 C 662.622 -0.234003 1.68483 0
M  V30 6869 O 663.807 -0.0970704 1.93957 0
M  V30 6870 C 660.937 0.242892 3.4645 0
M  V30 6871 C 659.891 1.20744 4.10615 0
M  V30 6872 C 659.217 0.512494 5.32238 0
M  V30 6873 C 660.517 2.55884 4.55325 0
M  V30 6874 H 662.211 1.70286 2.46258 0
M  V30 6875 H 659.757 0.820195 1.18359 0
M  V30 6876 H 661.71 0.00840447 4.21399 0
M  V30 6877 H 660.434 -0.696811 3.1908 0
M  V30 6878 H 659.093 1.42759 3.37662 0
M  V30 6879 H 658.741 -0.432075 5.01141 0
M  V30 6880 H 658.441 1.15583 5.7612 0
M  V30 6881 H 659.965 0.286842 6.09926 0
M  V30 6882 H 661.379 2.37946 5.21588 0
M  V30 6883 H 659.776 3.16216 5.10027 0
M  V30 6884 H 660.846 3.14968 3.68678 0
M  V30 6885 N 662.189 -1.289 0.906776 0
M  V30 6886 C 663.152 -2.25777 0.394656 0
M  V30 6887 C 664.152 -1.53621 -0.475119 0
M  V30 6888 O 665.342 -1.71949 -0.279165 0
M  V30 6889 C 662.474 -3.38113 -0.43499 0
M  V30 6890 H 663.667 -2.72592 1.25033 0
M  V30 6891 H 661.22 -1.40463 0.685547 0
M  V30 6892 H 661.955 -2.96648 -1.31036 0
M  V30 6893 H 661.74 -3.91647 0.188334 0
M  V30 6894 H 663.23 -4.10168 -0.784365 0
M  V30 6895 N 663.667 -0.670007 -1.42649 0
M  V30 6896 C 664.614 0.0112928 -2.30797 0
M  V30 6897 C 665.584 0.797627 -1.45695 0
M  V30 6898 O 666.769 0.770845 -1.74535 0
M  V30 6899 C 663.909 0.95998 -3.31479 0
M  V30 6900 C 663.022 0.167975 -4.31673 0
M  V30 6901 C 662.157 1.11198 -5.19431 0
M  V30 6902 C 661.196 0.311381 -6.11307 0
M  V30 6903 N 660.333 1.20784 -6.91633 0
M  V30 6904 H 665.173 -0.746231 -2.88505 0
M  V30 6905 H 662.71 -0.379739 -1.42114 0
M  V30 6906 H 664.668 1.52379 -3.88377 0
M  V30 6907 H 663.298 1.68419 -2.75382 0
M  V30 6908 H 662.35 -0.512385 -3.76933 0
M  V30 6909 H 663.662 -0.453814 -4.96731 0
M  V30 6910 H 662.816 1.74587 -5.81037 0
M  V30 6911 H 661.555 1.76766 -4.54538 0
M  V30 6912 H 660.56 -0.335758 -5.48774 0
M  V30 6913 H 661.785 -0.340135 -6.78248 0
M  V30 6914 H 659.731 1.85001 -6.29373 0
M  V30 6915 H 659.648 0.64102 -7.53277 0
M  V30 6916 H 660.916 1.82936 -7.5773 0
M  V30 6917 N 665.145 1.52092 -0.413018 0
M  V30 6918 C 666.055 2.30858 0.417318 0
M  V30 6919 C 667.071 1.38746 1.05003 0
M  V30 6920 O 668.247 1.71821 1.05069 0
M  V30 6921 C 665.312 3.11756 1.51687 0
M  V30 6922 C 664.373 4.19613 0.906825 0
M  V30 6923 C 663.606 4.96644 1.95399 0
M  V30 6924 O 663.829 4.7402 3.17271 0
M  V30 6925 O 662.763 5.81385 1.55805 0
M  V30 6926 H 666.589 3.02865 -0.225028 0
M  V30 6927 H 664.174 1.48358 -0.176126 0
M  V30 6928 H 666.056 3.62122 2.15512 0
M  V30 6929 H 664.731 2.42539 2.14375 0
M  V30 6930 H 663.638 3.73385 0.231183 0
M  V30 6931 H 664.971 4.91134 0.323814 0
M  V30 6932 N 666.623 0.143563 1.56945 0
M  V30 6933 C 667.555 -0.828353 2.13708 0
M  V30 6934 C 668.568 -1.21313 1.08568 0
M  V30 6935 O 669.757 -1.1578 1.35857 0
M  V30 6936 C 666.857 -2.12248 2.64204 0
M  V30 6937 C 666.03 -1.90561 3.93707 0
M  V30 6938 C 665.089 -3.03931 4.29549 0
M  V30 6939 O 664.115 -2.75772 4.97934 0
M  V30 6940 N 665.317 -4.31016 3.88852 0
M  V30 6941 H 668.082 -0.343242 2.97728 0
M  V30 6942 H 665.643 -0.0401152 1.6185 0
M  V30 6943 H 667.635 -2.87132 2.85197 0
M  V30 6944 H 666.205 -2.52033 1.84928 0
M  V30 6945 H 665.425 -0.997327 3.81375 0
M  V30 6946 H 666.713 -1.73405 4.78339 0
M  V30 6947 H 666.111 -4.56762 3.33743 0
M  V30 6948 H 664.668 -5.02691 4.14903 0
M  V30 6949 N 668.101 -1.57061 -0.130224 0
M  V30 6950 C 669.048 -1.99517 -1.16024 0
M  V30 6951 C 670.018 -0.865452 -1.41771 0
M  V30 6952 O 671.203 -1.12882 -1.53826 0
M  V30 6953 C 668.343 -2.3951 -2.48453 0
M  V30 6954 C 667.456 -3.65848 -2.29737 0
M  V30 6955 C 666.591 -3.9487 -3.55318 0
M  V30 6956 C 665.63 -5.14426 -3.31711 0
M  V30 6957 N 664.767 -5.39375 -4.49466 0
M  V30 6958 H 669.607 -2.87305 -0.791194 0
M  V30 6959 H 667.144 -1.42129 -0.379195 0
M  V30 6960 H 669.102 -2.60731 -3.25692 0
M  V30 6961 H 667.732 -1.54779 -2.83272 0
M  V30 6962 H 666.784 -3.52307 -1.4347 0
M  V30 6963 H 668.096 -4.53241 -2.08263 0
M  V30 6964 H 667.25 -4.16679 -4.4098 0
M  V30 6965 H 665.989 -3.05931 -3.79813 0
M  V30 6966 H 664.994 -4.92473 -2.44439 0
M  V30 6967 H 666.219 -6.04933 -3.08598 0
M  V30 6968 H 664.165 -4.53391 -4.74102 0
M  V30 6969 H 664.082 -6.21069 -4.31055 0
M  V30 6970 H 665.35 -5.65694 -5.36293 0
M  V30 6971 N 669.579 0.400081 -1.52437 0
M  V30 6972 C 670.542 1.4707 -1.75793 0
M  V30 6973 C 671.542 1.48036 -0.627856 0
M  V30 6974 O 672.732 1.49401 -0.895817 0
M  V30 6975 C 669.864 2.86427 -1.84858 0
M  V30 6976 H 671.057 1.27649 -2.71377 0
M  V30 6977 H 668.61 0.631141 -1.42991 0
M  V30 6978 H 669.345 3.11207 -0.912194 0
M  V30 6979 H 669.13 2.87128 -2.6702 0
M  V30 6980 H 670.62 3.64023 -2.04638 0
M  V30 6981 N 671.057 1.43213 0.657864 0
M  V30 6982 C 672.005 1.48271 1.79216 0
M  V30 6983 C 672.999 0.35675 1.65601 0
M  V30 6984 O 674.205 0.530535 1.72004 0
M  V30 6985 H 670.58 0.464729 0.591211 0
M  V30 6986 H 672.551 2.43792 1.7207 0
M  V30 6987 C 671.3 1.41837 3.17455 0
M  V30 6988 H 670.623 2.27781 3.28567 0
M  V30 6989 H 672.063 1.49438 3.96793 0
M  V30 6990 C 670.522 0.135347 3.36628 0
M  V30 6991 O 671.052 -0.805199 3.93547 0
M  V30 6992 N 669.258 0.0470316 2.90562 0
M  V30 6993 H 668.805 0.813221 2.44427 0
M  V30 6994 H 668.763 -0.810737 3.03767 0
M  V30 6995 N 672.536 -0.895792 1.29666 0
M  V30 6996 C 673.446 -2.03329 1.17024 0
M  V30 6997 C 674.462 -1.73753 0.0925962 0
M  V30 6998 O 675.638 -1.99071 0.305431 0
M  V30 6999 C 672.703 -3.36072 0.851841 0
M  V30 7000 C 671.764 -3.7914 2.01373 0
M  V30 7001 C 670.997 -5.05549 1.71043 0
M  V30 7002 O 671.22 -5.66874 0.633213 0
M  V30 7003 O 670.154 -5.44764 2.5596 0
M  V30 7004 H 673.98 -2.16918 2.12556 0
M  V30 7005 H 671.565 -1.02007 1.09156 0
M  V30 7006 H 673.447 -4.15729 0.689006 0
M  V30 7007 H 672.122 -3.23616 -0.0736634 0
M  V30 7008 H 671.029 -3.00233 2.23183 0
M  V30 7009 H 672.362 -3.96186 2.92058 0
M  V30 7010 N 674.014 -1.12206 -1.10668 0
M  V30 7011 C 674.946 -0.74552 -2.16736 0
M  V30 7012 C 675.959 0.226696 -1.61214 0
M  V30 7013 O 677.148 0.0083936 -1.78498 0
M  V30 7014 C 674.248 -0.0823368 -3.388 0
M  V30 7015 C 673.421 -1.08341 -4.2377 0
M  V30 7016 C 672.48 -0.448292 -5.24287 0
M  V30 7017 O 671.506 -1.10458 -5.58379 0
M  V30 7018 N 672.708 0.785336 -5.75163 0
M  V30 7019 H 675.473 -1.65818 -2.49649 0
M  V30 7020 H 673.034 -1.01335 -1.26265 0
M  V30 7021 H 675.026 0.354476 -4.03145 0
M  V30 7022 H 673.596 0.733041 -3.03884 0
M  V30 7023 H 672.816 -1.69792 -3.55759 0
M  V30 7024 H 674.104 -1.76042 -4.77375 0
M  V30 7025 H 673.502 1.33755 -5.4966 0
M  V30 7026 H 672.059 1.16501 -6.41304 0
M  V30 7027 N 675.492 1.28418 -0.913599 0
M  V30 7028 C 676.439 2.27301 -0.400373 0
M  V30 7029 C 677.409 1.57582 0.52509 0
M  V30 7030 O 678.594 1.85482 0.447318 0
M  V30 7031 C 675.734 3.43284 0.35361 0
M  V30 7032 C 674.847 4.27752 -0.604341 0
M  V30 7033 C 673.982 5.30934 0.168075 0
M  V30 7034 C 673.021 6.07065 -0.783499 0
M  V30 7035 N 672.158 7.02086 -0.0446112 0
M  V30 7036 H 676.998 2.70579 -1.24865 0
M  V30 7037 H 674.535 1.33067 -0.627028 0
M  V30 7038 H 676.493 4.09322 0.806945 0
M  V30 7039 H 675.123 3.00997 1.16623 0
M  V30 7040 H 674.175 3.61759 -1.17621 0
M  V30 7041 H 675.487 4.80682 -1.33216 0
M  V30 7042 H 674.641 6.02855 0.681979 0
M  V30 7043 H 673.38 4.78771 0.928947 0
M  V30 7044 H 672.385 5.33995 -1.30878 0
M  V30 7045 H 673.61 6.61317 -1.54392 0
M  V30 7046 H 671.556 6.52273 0.698272 0
M  V30 7047 H 671.473 7.52637 -0.712258 0
M  V30 7048 H 672.741 7.78205 0.449102 0
M  V30 7049 N 676.97 0.677563 1.42291 0
M  V30 7050 C 677.917 0.000947061 2.308 0
M  V30 7051 C 678.887 -0.789889 1.46116 0
M  V30 7052 O 680.072 -0.761578 1.74942 0
M  V30 7053 C 677.212 -0.942387 3.31984 0
M  V30 7054 C 676.325 -0.14508 4.31756 0
M  V30 7055 C 675.46 -1.08442 5.20013 0
M  V30 7056 C 674.499 -0.278958 6.11464 0
M  V30 7057 N 673.636 -1.17115 6.92263 0
M  V30 7058 H 678.476 0.761521 2.88106 0
M  V30 7059 H 676.013 0.38727 1.41911 0
M  V30 7060 H 677.971 -1.50317 3.89179 0
M  V30 7061 H 676.601 -1.66956 2.76271 0
M  V30 7062 H 675.653 0.532368 3.76656 0
M  V30 7063 H 676.965 0.48015 4.96484 0
M  V30 7064 H 676.119 -1.71504 5.81955 0
M  V30 7065 H 674.858 -1.74353 4.55469 0
M  V30 7066 H 673.863 0.364856 5.48588 0
M  V30 7067 H 675.088 0.376099 6.78058 0
M  V30 7068 H 673.034 -1.81661 6.30345 0
M  V30 7069 H 672.951 -0.601063 7.53607 0
M  V30 7070 H 674.219 -1.78915 7.58689 0
M  V30 7071 N 678.448 -1.51871 0.421078 0
M  V30 7072 C 679.358 -2.31077 -0.405069 0
M  V30 7073 C 680.374 -1.39301 -1.04265 0
M  V30 7074 O 681.55 -1.72376 -1.04157 0
M  V30 7075 C 678.615 -3.12556 -1.50032 0
M  V30 7076 C 677.676 -4.20088 -0.884559 0
M  V30 7077 C 676.909 -4.97673 -1.92762 0
M  V30 7078 O 677.132 -4.75696 -3.14753 0
M  V30 7079 O 676.066 -5.82203 -1.52719 0
M  V30 7080 H 679.892 -3.02742 0.241086 0
M  V30 7081 H 677.477 -1.48263 0.183991 0
M  V30 7082 H 679.359 -3.6326 -2.13589 0
M  V30 7083 H 678.034 -2.43672 -2.13086 0
M  V30 7084 H 676.941 -3.73502 -0.211379 0
M  V30 7085 H 678.274 -4.91298 -0.297763 0
M  V30 7086 N 679.926 -0.151884 -1.56866 0
M  V30 7087 C 681.151 0.508044 -2.01081 0
M  V30 7088 C 681.576 1.57306 -1.03134 0
M  V30 7089 O 680.934 1.81298 -0.0078309 0
M  V30 7090 C 680.982 1.08106 -3.44014 0
M  V30 7091 O 680.086 2.19577 -3.49084 0
M  V30 7092 H 679.427 0.123757 -0.652365 0
M  V30 7093 H 681.957 -0.250055 -2.03066 0
M  V30 7094 H 681.967 1.40851 -3.82916 0
M  V30 7095 H 680.642 0.301168 -4.14808 0
M  V30 7096 H 679.219 1.88023 -3.22027 0
M  V30 7097 N 681.404 1.57128 0.121893 0
M  V30 7098 C 682.351 2.0013 1.14964 0
M  V30 7099 C 683.321 0.872959 1.4131 0
M  V30 7100 O 684.506 1.13696 1.53225 0
M  V30 7101 C 681.646 2.40824 2.4718 0
M  V30 7102 C 680.759 3.67061 2.27794 0
M  V30 7103 C 679.894 3.96749 3.53219 0
M  V30 7104 C 678.933 5.16178 3.28978 0
M  V30 7105 N 678.07 5.41751 4.46599 0
M  V30 7106 H 682.91 2.8772 0.775947 0
M  V30 7107 H 680.447 1.42328 0.371652 0
M  V30 7108 H 682.405 2.62454 3.24305 0
M  V30 7109 H 681.035 1.56279 2.82448 0
M  V30 7110 H 680.087 3.53063 1.416 0
M  V30 7111 H 681.399 4.5434 2.05857 0
M  V30 7112 H 680.553 4.19012 4.38764 0
M  V30 7113 H 679.292 3.07941 3.78185 0
M  V30 7114 H 678.297 4.93762 2.41824 0
M  V30 7115 H 679.522 6.06561 3.05386 0
M  V30 7116 H 677.468 4.55899 4.71691 0
M  V30 7117 H 677.385 6.23347 4.27756 0
M  V30 7118 H 678.653 5.68531 5.33285 0
M  V30 7119 N 682.882 -0.391992 1.52647 0
M  V30 7120 C 683.792 -1.503 1.80131 0
M  V30 7121 C 684.808 -1.59825 0.687882 0
M  V30 7122 O 685.984 -1.76218 0.975149 0
M  V30 7123 C 683.049 -2.85863 1.96171 0
M  V30 7124 C 682.11 -2.86084 3.20085 0
M  V30 7125 C 681.343 -4.15181 3.35351 0
M  V30 7126 O 681.566 -5.09981 2.55491 0
M  V30 7127 O 680.5 -4.22603 4.28591 0
M  V30 7128 H 684.326 -1.30007 2.74466 0
M  V30 7129 H 681.911 -0.579539 1.37701 0
M  V30 7130 H 683.793 -3.66236 2.08445 0
M  V30 7131 H 682.468 -3.06189 1.05025 0
M  V30 7132 H 681.375 -2.04504 3.13256 0
M  V30 7133 H 682.708 -2.7071 4.11068 0
M  V30 7134 N 684.36 -1.4356 -0.65026 0
M  V30 7135 C 685.27 -1.514 -1.79207 0
M  V30 7136 C 686.286 -0.400895 -1.69319 0
M  V30 7137 O 687.462 -0.655458 -1.90436 0
M  V30 7138 C 684.527 -1.43737 -3.155 0
M  V30 7139 C 683.588 -2.65743 -3.37163 0
M  V30 7140 C 682.821 -2.58436 -4.66954 0
M  V30 7141 O 683.044 -1.63374 -5.46503 0
M  V30 7142 O 681.978 -3.48984 -4.90402 0
M  V30 7143 H 685.804 -2.47825 -1.75547 0
M  V30 7144 H 683.389 -1.25594 -0.809111 0
M  V30 7145 H 685.271 -1.41916 -3.96784 0
M  V30 7146 H 683.946 -0.504488 -3.19745 0
M  V30 7147 H 682.853 -2.73136 -2.55632 0
M  V30 7148 H 684.186 -3.58014 -3.37768 0
M  V30 7149 N 685.838 0.888903 -1.30139 0
M  V30 7150 C 686.748 2.02705 -1.18101 0
M  V30 7151 C 687.764 1.73702 -0.101809 0
M  V30 7152 O 688.94 1.98906 -0.315984 0
M  V30 7153 C 686.005 3.35616 -0.869651 0
M  V30 7154 C 685.066 3.78067 -2.03381 0
M  V30 7155 C 684.299 5.04635 -1.73721 0
M  V30 7156 O 684.522 5.66531 -0.663267 0
M  V30 7157 O 683.456 5.43399 -2.58845 0
M  V30 7158 H 687.282 2.15788 -2.13704 0
M  V30 7159 H 684.867 1.01426 -1.09695 0
M  V30 7160 H 686.749 4.15358 -0.711043 0
M  V30 7161 H 685.424 3.23651 0.0565002 0
M  V30 7162 H 684.331 2.99046 -2.24772 0
M  V30 7163 H 685.664 3.94631 -2.94155 0
M  V30 7164 N 687.317 1.12792 1.10072 0
M  V30 7165 C 688.545 0.908506 1.85886 0
M  V30 7166 C 688.96 -0.542408 1.80841 0
M  V30 7167 O 688.317 -1.37517 1.1998 0
M  V30 7168 C 688.368 1.37973 3.34134 0
M  V30 7169 O 688.089 2.77378 3.39106 0
M  V30 7170 C 689.59 1.1978 4.26811 0
M  V30 7171 H 686.81 0.3244 0.587372 0
M  V30 7172 H 689.354 1.49882 1.39125 0
M  V30 7173 H 687.509 0.832566 3.78348 0
M  V30 7174 H 687.923 2.98144 4.31521 0
M  V30 7175 H 689.397 1.57635 5.29014 0
M  V30 7176 H 689.874 0.138768 4.38981 0
M  V30 7177 H 690.48 1.73266 3.88406 0
M  V30 7178 N 688.795 -1.27931 0.920396 0
M  V30 7179 C 690.02 -1.99343 0.572478 0
M  V30 7180 C 690.445 -1.68267 -0.840696 0
M  V30 7181 O 689.803 -0.918805 -1.56294 0
M  V30 7182 C 689.851 -3.51698 0.796284 0
M  V30 7183 O 688.955 -4.12157 -0.141602 0
M  V30 7184 H 688.296 -0.626065 0.221221 0
M  V30 7185 H 690.826 -1.62921 1.23765 0
M  V30 7186 H 690.836 -4.01793 0.708984 0
M  V30 7187 H 689.511 -3.73649 1.82644 0
M  V30 7188 H 688.088 -3.729 -0.005007 0
M  V30 7189 N 690.273 -0.685099 -1.4193 0
M  V30 7190 C 691.522 -0.208816 -2.00616 0
M  V30 7191 C 691.835 1.19506 -1.54847 0
M  V30 7192 O 693.041 1.76826 -2.06021 0
M  V30 7193 C 691.497 -0.322446 -3.58453 0
M  V30 7194 C 691.105 -1.73102 -4.13206 0
M  V30 7195 C 692.849 0.0945979 -4.24395 0
M  V30 7196 C 690.756 -1.79687 -5.63442 0
M  V30 7197 H 689.686 -0.0743092 -0.750329 0
M  V30 7198 H 692.337 -0.851778 -1.62533 0
M  V30 7199 H 690.719 0.388588 -3.94089 0
M  V30 7200 H 691.893 -2.46997 -3.8901 0
M  V30 7201 H 690.208 -2.09682 -3.59753 0
M  V30 7202 H 692.805 0.0656937 -5.3466 0
M  V30 7203 H 693.148 1.1316 -4.00625 0
M  V30 7204 H 693.681 -0.56579 -3.93756 0
M  V30 7205 H 690.42 -2.81404 -5.92024 0
M  V30 7206 H 689.94 -1.10162 -5.89597 0
M  V30 7207 H 691.619 -1.55498 -6.28036 0
M  V30 7208 N 691.751 1.51645 -0.429126 0
M  V30 7209 C 693.028 1.94579 0.199614 0
M  V30 7210 C 693.408 1.3673 1.60836 0
M  V30 7211 O 692.756 0.551062 2.21756 0
M  V30 7212 C 692.966 3.48506 0.185685 0
M  V30 7213 C 694.314 4.22756 0.395282 0
M  V30 7214 O 695.338 3.55219 0.264165 0
M  V30 7215 O 694.197 5.42555 0.655475 0
M  V30 7216 H 691.291 0.816007 0.134393 0
M  V30 7217 H 693.837 1.62577 -0.486513 0
M  V30 7218 H 692.609 3.83045 -0.799508 0
M  V30 7219 H 692.232 3.86927 0.91507 0
M  V30 7220 N 693.229 0.160201 1.56784 0
M  V30 7221 C 694.475 -0.48831 1.96833 0
M  V30 7222 C 694.808 -1.63641 1.04571 0
M  V30 7223 O 694.083 -1.94289 0.0906481 0
M  V30 7224 C 694.366 -0.981908 3.46454 0
M  V30 7225 C 694.219 0.165607 4.49495 0
M  V30 7226 C 695.538 -1.85931 3.98896 0
M  V30 7227 H 692.657 -0.176027 0.71567 0
M  V30 7228 H 695.299 0.244093 1.88426 0
M  V30 7229 H 693.449 -1.60602 3.5375 0
M  V30 7230 H 695.121 0.802372 4.54268 0
M  V30 7231 H 693.364 0.822789 4.25926 0
M  V30 7232 H 694.035 -0.221699 5.51555 0
M  V30 7233 H 696.511 -1.33327 3.94161 0
M  V30 7234 H 695.387 -2.17373 5.04024 0
M  V30 7235 H 695.648 -2.80106 3.42042 0
M  V30 7236 N 694.707 -1.5719 -0.113559 0
M  V30 7237 C 695.67 -1.99796 -1.12314 0
M  V30 7238 C 696.67 -0.888847 -1.34001 0
M  V30 7239 O 697.86 -1.15476 -1.30426 0
M  V30 7240 C 694.992 -2.34279 -2.47641 0
M  V30 7241 H 696.185 -2.90193 -0.756825 0
M  V30 7242 H 693.738 -1.52144 -0.358029 0
M  V30 7243 H 694.473 -1.46778 -2.89183 0
M  V30 7244 H 694.258 -3.15175 -2.33253 0
M  V30 7245 H 695.748 -2.67963 -3.2029 0
M  V30 7246 N 696.185 0.383891 -1.52853 0
M  V30 7247 C 697.433 1.12619 -1.67814 0
M  V30 7248 C 697.754 1.90354 -0.423141 0
M  V30 7249 O 697.024 1.87649 0.562554 0
M  V30 7250 H 695.604 0.418738 -0.618601 0
M  V30 7251 H 698.266 0.43495 -1.89985 0
M  V30 7252 H 697.362 1.82624 -2.5309 0
M  V30 7253 N 697.663 1.43903 0.642637 0
M  V30 7254 C 698.61 1.49881 1.75512 0
M  V30 7255 C 699.58 0.347538 1.62423 0
M  V30 7256 O 700.765 0.556177 1.82514 0
M  V30 7257 C 697.905 1.43797 3.13714 0
M  V30 7258 C 697.018 2.6921 3.37861 0
M  V30 7259 C 696.153 2.5504 4.6597 0
M  V30 7260 C 695.192 3.75671 4.83257 0
M  V30 7261 N 694.329 3.60247 6.02633 0
M  V30 7262 H 699.169 2.44935 1.69737 0
M  V30 7263 H 696.706 1.21572 0.828165 0
M  V30 7264 H 698.664 1.38262 3.93624 0
M  V30 7265 H 697.294 0.523173 3.18532 0
M  V30 7266 H 696.346 2.8498 2.51973 0
M  V30 7267 H 697.658 3.58786 3.46517 0
M  V30 7268 H 696.812 2.47273 5.54023 0
M  V30 7269 H 695.551 1.63006 4.59653 0
M  V30 7270 H 694.556 3.83836 3.93637 0
M  V30 7271 H 695.781 4.68728 4.91397 0
M  V30 7272 H 693.727 2.70955 5.97427 0
M  V30 7273 H 693.644 4.43431 6.12295 0
M  V30 7274 H 694.912 3.56351 6.93278 0
M  V30 7275 N 699.141 -0.881989 1.30609 0
M  V30 7276 C 700.552 -1.44956 1.17664 0
M  V30 7277 C 700.903 -1.94945 -0.221531 0
M  V30 7278 O 700.028 -1.85257 -1.11844 0
M  V30 7279 C 700.623 -2.63474 2.12995 0
M  V30 7280 C 699.182 -3.16312 2.04019 0
M  V30 7281 C 698.329 -1.89008 2.02907 0
M  V30 7282 H 701.28 -0.691645 1.42835 0
M  V30 7283 H 701.301 -3.39783 1.71253 0
M  V30 7284 H 700.813 -2.2706 3.14746 0
M  V30 7285 H 698.914 -3.57376 1.0542 0
M  V30 7286 H 699.027 -3.79409 2.9255 0
M  V30 7287 H 697.391 -2.07465 1.47751 0
M  V30 7288 H 698.174 -1.54848 3.06394 0
M  V30 7289 N 700.619 -1.13374 -1.09472 0
M  V30 7290 C 701.567 -0.806105 -2.18185 0
M  V30 7291 C 702.561 0.21136 -1.68076 0
M  V30 7292 O 703.767 0.0685558 -1.79869 0
M  V30 7293 H 700.142 -0.242901 -0.71169 0
M  V30 7294 H 702.113 -1.73115 -2.43051 0
M  V30 7295 C 700.862 -0.287928 -3.46506 0
M  V30 7296 H 700.185 -1.06217 -3.85432 0
M  V30 7297 H 701.625 -0.0971054 -4.23889 0
M  V30 7298 C 700.084 0.986256 -3.22141 0
M  V30 7299 O 700.614 2.06217 -3.44728 0
M  V30 7300 N 698.82 0.917153 -2.75747 0
M  V30 7301 H 698.367 0.0414609 -2.57567 0
M  V30 7302 H 698.325 1.77029 -2.59823 0
M  V30 7303 N 702.098 1.27442 -0.927168 0
M  V30 7304 C 703.008 2.30599 -0.431448 0
M  V30 7305 C 704.024 1.67028 0.48761 0
M  V30 7306 O 705.2 1.97962 0.370546 0
M  V30 7307 C 702.265 3.45327 0.308292 0
M  V30 7308 C 701.326 4.24418 -0.645615 0
M  V30 7309 C 700.559 5.33667 0.0589164 0
M  V30 7310 O 700.782 5.5589 1.27838 0
M  V30 7311 O 699.716 5.98774 -0.612638 0
M  V30 7312 H 703.542 2.75036 -1.28797 0
M  V30 7313 H 701.127 1.32382 -0.692495 0
M  V30 7314 H 703.009 4.15107 0.725555 0
M  V30 7315 H 701.684 3.02945 1.14043 0
M  V30 7316 H 700.591 3.57174 -1.11255 0
M  V30 7317 H 701.924 4.70512 -1.44496 0
M  V30 7318 N 703.576 0.692616 1.41565 0
M  V30 7319 C 704.822 0.222664 2.01574 0
M  V30 7320 C 705.155 -1.1737 1.54719 0
M  V30 7321 O 704.43 -1.79161 0.757084 0
M  V30 7322 C 704.713 0.277064 3.59033 0
M  V30 7323 C 704.566 1.71016 4.16021 0
M  V30 7324 C 705.885 -0.36479 4.38586 0
M  V30 7325 H 703.004 0.0823839 0.732381 0
M  V30 7326 H 705.646 0.880778 1.68352 0
M  V30 7327 H 703.796 -0.283288 3.87466 0
M  V30 7328 H 705.468 2.32413 3.98475 0
M  V30 7329 H 703.711 2.24525 3.71175 0
M  V30 7330 H 704.382 1.69978 5.25178 0
M  V30 7331 H 706.858 0.112404 4.15948 0
M  V30 7332 H 705.734 -0.296169 5.481 0
M  V30 7333 H 705.995 -1.44506 4.17816 0
M  V30 7334 N 705.054 -1.51416 0.437162 0
M  V30 7335 C 706.282 -2.06503 -0.128045 0
M  V30 7336 C 706.697 -1.30461 -1.36475 0
M  V30 7337 O 706.054 -0.364127 -1.78831 0
M  V30 7338 C 706.105 -3.58683 -0.450437 0
M  V30 7339 O 705.826 -4.31853 0.737186 0
M  V30 7340 C 707.327 -4.30284 -1.06633 0
M  V30 7341 H 704.547 -0.670952 -0.00800269 0
M  V30 7342 H 707.091 -1.94996 0.616193 0
M  V30 7343 H 705.246 -3.70106 -1.14457 0
M  V30 7344 H 705.66 -5.22467 0.461347 0
M  V30 7345 H 707.134 -5.37848 -1.24191 0
M  V30 7346 H 707.611 -3.88564 -2.0473 0
M  V30 7347 H 708.217 -4.23304 -0.411585 0
M  V30 7348 N 706.532 -0.168513 -1.56696 0
M  V30 7349 C 707.479 0.762875 -2.17828 0
M  V30 7350 C 708.449 1.22892 -1.11745 0
M  V30 7351 O 709.634 1.29759 -1.39883 0
M  V30 7352 C 706.774 1.9879 -2.82093 0
M  V30 7353 C 705.887 1.56568 -4.02629 0
M  V30 7354 C 705.022 2.74416 -4.54829 0
M  V30 7355 C 704.061 2.28671 -5.67782 0
M  V30 7356 N 703.198 3.39602 -6.14504 0
M  V30 7357 H 708.038 0.23479 -2.97074 0
M  V30 7358 H 705.575 0.104163 -1.46731 0
M  V30 7359 H 707.533 2.70636 -3.17509 0
M  V30 7360 H 706.163 2.48973 -2.05456 0
M  V30 7361 H 705.215 0.744067 -3.73052 0
M  V30 7362 H 706.527 1.18988 -4.844 0
M  V30 7363 H 705.681 3.54423 -4.92412 0
M  V30 7364 H 704.42 3.15254 -3.7211 0
M  V30 7365 H 703.425 1.4711 -5.29753 0
M  V30 7366 H 704.65 1.88894 -6.52301 0
M  V30 7367 H 702.596 3.80021 -5.34715 0
M  V30 7368 H 702.513 3.06105 -6.91257 0
M  V30 7369 H 703.781 4.19902 -6.56737 0
M  V30 7370 N 708.01 1.57248 0.105221 0
M  V30 7371 C 708.973 2.00388 1.11252 0
M  V30 7372 C 709.973 0.89594 1.33527 0
M  V30 7373 O 711.163 1.16166 1.29811 0
M  V30 7374 C 708.295 2.35589 2.46395 0
M  V30 7375 H 709.488 2.90591 0.741424 0
M  V30 7376 H 707.041 1.52332 0.349956 0
M  V30 7377 H 707.776 1.4831 2.884 0
M  V30 7378 H 707.561 3.16408 2.31578 0
M  V30 7379 H 709.051 2.69658 3.18864 0
M  V30 7380 N 709.488 -0.375779 1.53054 0
M  V30 7381 C 710.451 -1.44254 1.7811 0
M  V30 7382 C 711.451 -1.47018 0.651328 0
M  V30 7383 O 712.641 -1.47957 0.919472 0
M  V30 7384 C 709.773 -2.8345 1.89391 0
M  V30 7385 H 710.966 -1.23316 2.73374 0
M  V30 7386 H 708.519 -0.608312 1.43977 0
M  V30 7387 H 709.254 -3.09716 0.961589 0
M  V30 7388 H 709.039 -2.82844 2.71555 0
M  V30 7389 H 710.529 -3.60722 2.10404 0
M  V30 7390 N 710.966 -1.44241 -0.634997 0
M  V30 7391 C 711.876 -1.53293 -1.77591 0
M  V30 7392 C 712.892 -0.418831 -1.68884 0
M  V30 7393 O 714.068 -0.675619 -1.8973 0
M  V30 7394 C 711.133 -1.47075 -3.13958 0
M  V30 7395 C 710.194 -2.69304 -3.34326 0
M  V30 7396 C 709.427 -2.63374 -4.64187 0
M  V30 7397 O 709.65 -1.69161 -5.44739 0
M  V30 7398 O 708.584 -3.54166 -4.86673 0
M  V30 7399 H 712.41 -2.49673 -1.72908 0
M  V30 7400 H 709.995 -1.26445 -0.795745 0
M  V30 7401 H 711.877 -1.46117 -3.95257 0
M  V30 7402 H 710.552 -0.538373 -3.19192 0
M  V30 7403 H 709.459 -2.75831 -2.52721 0
M  V30 7404 H 710.792 -3.61576 -3.33951 0
M  V30 7405 N 712.444 0.87505 -1.31075 0
M  V30 7406 C 713.669 1.66583 -1.23551 0
M  V30 7407 C 714.094 1.87067 0.19686 0
M  V30 7408 O 713.452 1.40877 1.1412 0
M  V30 7409 C 713.5 3.01401 -1.97965 0
M  V30 7410 O 712.604 3.90923 -1.31351 0
M  V30 7411 H 711.945 0.508645 -0.426821 0
M  V30 7412 H 714.475 1.09139 -1.7306 0
M  V30 7413 H 714.485 3.51374 -2.07366 0
M  V30 7414 H 713.16 2.85812 -3.02133 0
M  V30 7415 H 711.737 3.49369 -1.30368 0
M  V30 7416 N 713.922 1.13953 1.08869 0
M  V30 7417 C 715.333 0.916649 1.62648 0
M  V30 7418 C 715.684 -0.545589 1.88462 0
M  V30 7419 O 714.809 -1.41351 1.63856 0
M  V30 7420 C 715.404 1.65751 2.95486 0
M  V30 7421 C 713.963 1.48034 3.46068 0
M  V30 7422 C 713.11 1.68305 2.20383 0
M  V30 7423 H 716.061 1.292 0.921572 0
M  V30 7424 H 716.082 1.11794 3.63707 0
M  V30 7425 H 715.594 2.72171 2.76667 0
M  V30 7426 H 713.695 0.439416 3.7 0
M  V30 7427 H 713.808 2.24719 4.23129 0
M  V30 7428 H 712.172 1.10833 2.29321 0
M  V30 7429 H 712.955 2.76057 2.04077 0
M  V30 7430 N 715.4 -1.26948 0.933913 0
M  V30 7431 C 716.677 -1.89212 0.495784 0
M  V30 7432 C 717.057 -1.84469 -1.02637 0
M  V30 7433 O 716.405 -1.29409 -1.88323 0
M  V30 7434 C 716.615 -3.32865 1.0489 0
M  V30 7435 C 717.963 -4.09749 1.11315 0
M  V30 7436 O 718.987 -3.41905 0.998966 0
M  V30 7437 O 717.846 -5.31061 1.28983 0
M  V30 7438 H 714.94 -0.811284 0.160459 0
M  V30 7439 H 717.486 -1.35171 1.02601 0
M  V30 7440 H 716.258 -3.30642 2.09265 0
M  V30 7441 H 715.881 -3.94435 0.500692 0
M  V30 7442 N 716.879 -0.700114 -1.41195 0
M  V30 7443 C 717.811 0.00155823 -2.292 0
M  V30 7444 C 718.824 0.739736 -1.45023 0
M  V30 7445 O 720.013 0.589684 -1.68478 0
M  V30 7446 C 717.113 1.02635 -3.22985 0
M  V30 7447 C 716.286 0.356871 -4.35942 0
M  V30 7448 C 715.345 1.28491 -5.10271 0
M  V30 7449 O 714.371 0.775562 -5.63892 0
M  V30 7450 N 715.573 2.61699 -5.18164 0
M  V30 7451 H 718.338 -0.754008 -2.9006 0
M  V30 7452 H 715.899 -0.546504 -1.52397 0
M  V30 7453 H 717.891 1.64902 -3.6958 0
M  V30 7454 H 716.461 1.68341 -2.63401 0
M  V30 7455 H 715.681 -0.445753 -3.91672 0
M  V30 7456 H 716.969 -0.108469 -5.08684 0
M  V30 7457 H 716.367 3.05594 -4.76056 0
M  V30 7458 H 714.924 3.19149 -5.6832 0
M  V30 7459 N 718.357 1.51182 -0.445186 0
M  V30 7460 C 719.304 2.27939 0.362291 0
M  V30 7461 C 720.274 1.31864 1.01 0
M  V30 7462 O 721.459 1.60776 1.02741 0
M  V30 7463 C 718.599 3.13016 1.45311 0
M  V30 7464 C 717.712 4.24093 0.822757 0
M  V30 7465 C 716.847 4.96467 1.88928 0
M  V30 7466 C 715.886 5.99454 1.23778 0
M  V30 7467 N 715.023 6.65206 2.24602 0
M  V30 7468 H 719.863 2.965 -0.29862 0
M  V30 7469 H 717.4 1.46237 -0.15911 0
M  V30 7470 H 719.358 3.60673 2.09692 0
M  V30 7471 H 717.988 2.46553 2.08354 0
M  V30 7472 H 717.04 3.80341 0.0670364 0
M  V30 7473 H 718.352 4.97853 0.307184 0
M  V30 7474 H 717.506 5.47712 2.60953 0
M  V30 7475 H 716.245 4.22355 2.4386 0
M  V30 7476 H 715.25 5.47494 0.503042 0
M  V30 7477 H 716.475 6.75527 0.695694 0
M  V30 7478 H 714.421 5.93901 2.78599 0
M  V30 7479 H 714.338 7.34756 1.77958 0
M  V30 7480 H 715.606 7.21078 2.96085 0
M  V30 7481 N 719.835 0.176821 1.56605 0
M  V30 7482 C 721.112 -0.513365 1.88743 0
M  V30 7483 C 721.492 -1.80929 1.08757 0
M  V30 7484 O 720.84 -2.27765 0.183127 0
M  V30 7485 C 721.05 -0.749925 3.40848 0
M  V30 7486 C 722.398 -1.07747 4.10701 0
M  V30 7487 O 723.422 -0.838277 3.46196 0
M  V30 7488 O 722.281 -1.52901 5.24675 0
M  V30 7489 H 719.375 -0.265296 0.783292 0
M  V30 7490 H 721.921 0.215669 1.68324 0
M  V30 7491 H 720.693 0.16599 3.90948 0
M  V30 7492 H 720.316 -1.53208 3.66897 0
M  V30 7493 N 721.313 -1.57302 -0.09688 0
M  V30 7494 C 722.541 -1.90202 -0.814295 0
M  V30 7495 C 722.956 -0.770344 -1.72369 0
M  V30 7496 O 722.313 0.257764 -1.8067 0
M  V30 7497 C 722.364 -3.22708 -1.62916 0
M  V30 7498 O 722.085 -4.31522 -0.756343 0
M  V30 7499 C 723.586 -3.69459 -2.44979 0
M  V30 7500 H 720.806 -0.629275 -0.232925 0
M  V30 7501 H 723.35 -2.04364 -0.0746482 0
M  V30 7502 H 721.505 -3.1015 -2.32133 0
M  V30 7503 H 721.919 -5.07604 -1.32054 0
M  V30 7504 H 723.393 -4.64875 -2.9765 0
M  V30 7505 H 723.87 -2.97211 -3.23361 0
M  V30 7506 H 724.476 -3.84879 -1.80964 0
M  V30 7507 N 722.791 0.367657 -1.53252 0
M  V30 7508 C 724.068 1.12606 -1.59935 0
M  V30 7509 C 724.448 2.07167 -0.405606 0
M  V30 7510 O 723.796 2.20364 0.604323 0
M  V30 7511 C 724.006 1.86699 -2.94863 0
M  V30 7512 C 725.354 2.41306 -3.49366 0
M  V30 7513 O 726.378 1.96828 -2.96879 0
M  V30 7514 O 725.237 3.2261 -4.41118 0
M  V30 7515 H 722.331 0.516438 -0.645926 0
M  V30 7516 H 724.877 0.371088 -1.65593 0
M  V30 7517 H 723.649 1.17674 -3.73187 0
M  V30 7518 H 723.272 2.6911 -2.92687 0
M  V30 7519 N 724.269 1.44576 0.627338 0
M  V30 7520 C 725.517 1.47267 1.38408 0
M  V30 7521 C 725.838 0.107971 1.94701 0
M  V30 7522 O 725.108 -0.860206 1.76004 0
M  V30 7523 H 723.688 0.542276 0.513756 0
M  V30 7524 H 726.35 1.80383 0.738099 0
M  V30 7525 H 725.446 2.20025 2.21349 0
M  V30 7526 N 725.747 -0.868086 1.31537 0
M  V30 7527 C 726.995 -1.61807 1.21091 0
M  V30 7528 C 727.316 -1.93631 -0.230623 0
M  V30 7529 O 726.586 -1.5846 -1.15183 0
M  V30 7530 H 725.166 -0.599854 0.445178 0
M  V30 7531 H 727.828 -1.03915 1.64887 0
M  V30 7532 H 726.924 -2.56088 1.78396 0
M  V30 7533 N 727.225 -1.14528 -1.08264 0
M  V30 7534 C 728.636 -0.925261 -1.6216 0
M  V30 7535 C 728.987 0.535587 -1.88748 0
M  V30 7536 O 728.112 1.4048 -1.64604 0
M  V30 7537 C 728.707 -1.67316 -2.94603 0
M  V30 7538 C 727.266 -1.49868 -3.45278 0
M  V30 7539 C 726.413 -1.69471 -2.19487 0
M  V30 7540 H 729.364 -1.29687 -0.914707 0
M  V30 7541 H 729.385 -1.13721 -3.63109 0
M  V30 7542 H 728.897 -2.73635 -2.75219 0
M  V30 7543 H 726.998 -0.459032 -3.69762 0
M  V30 7544 H 727.111 -2.2696 -4.21931 0
M  V30 7545 H 725.475 -1.12048 -2.2873 0
M  V30 7546 H 726.258 -2.77136 -2.0261 0
M  V30 7547 N 728.703 1.26451 -0.940633 0
M  V30 7548 C 729.65 2.264 -0.448497 0
M  V30 7549 C 730.62 1.5866 0.491546 0
M  V30 7550 O 731.805 1.86389 0.407874 0
M  V30 7551 C 728.945 3.43956 0.280715 0
M  V30 7552 C 728.058 4.26374 -0.694937 0
M  V30 7553 C 727.193 5.31171 0.0554186 0
M  V30 7554 C 726.232 6.05266 -0.912091 0
M  V30 7555 N 725.369 7.01833 -0.193524 0
M  V30 7556 H 730.209 2.67869 -1.30576 0
M  V30 7557 H 727.746 1.31707 -0.655112 0
M  V30 7558 H 729.704 4.10941 0.71994 0
M  V30 7559 H 728.334 3.03403 1.10212 0
M  V30 7560 H 727.386 3.59183 -1.25267 0
M  V30 7561 H 728.698 4.77748 -1.43382 0
M  V30 7562 H 727.852 6.04166 0.553951 0
M  V30 7563 H 726.591 4.80634 0.827183 0
M  V30 7564 H 725.596 5.31099 -1.42175 0
M  V30 7565 H 726.821 6.57893 -1.68385 0
M  V30 7566 H 724.767 6.53607 0.559758 0
M  V30 7567 H 724.684 7.50957 -0.871744 0
M  V30 7568 H 725.952 7.78983 0.283932 0
M  V30 7569 N 730.181 0.707592 1.40822 0
M  V30 7570 C 731.091 0.0507246 2.34545 0
M  V30 7571 C 732.107 -0.752727 1.56876 0
M  V30 7572 O 733.283 -0.687524 1.89302 0
M  V30 7573 C 730.348 -0.865731 3.35717 0
M  V30 7574 C 729.409 -0.0531313 4.29267 0
M  V30 7575 C 728.642 -0.925939 5.25606 0
M  V30 7576 O 728.865 -2.16531 5.27703 0
M  V30 7577 O 727.799 -0.369194 6.00767 0
M  V30 7578 H 731.625 0.823587 2.9232 0
M  V30 7579 H 729.21 0.46801 1.4188 0
M  V30 7580 H 731.092 -1.39091 3.97783 0
M  V30 7581 H 729.767 -1.61788 2.80368 0
M  V30 7582 H 728.674 0.516931 3.70511 0
M  V30 7583 H 730.007 0.660617 4.87747 0
M  V30 7584 N 731.66 -1.50943 0.453197 0
M  V30 7585 C 732.57 -2.31884 -0.355963 0
M  V30 7586 C 733.586 -1.41481 -1.01287 0
M  V30 7587 O 734.762 -1.74546 -1.00477 0
M  V30 7588 C 731.827 -3.15668 -1.43369 0
M  V30 7589 C 730.888 -4.2187 -0.795253 0
M  V30 7590 C 730.121 -5.0165 -1.82162 0
M  V30 7591 O 730.344 -4.82266 -3.04592 0
M  V30 7592 O 729.278 -5.85311 -1.40336 0
M  V30 7593 H 733.104 -3.02162 0.305248 0
M  V30 7594 H 730.689 -1.47839 0.215398 0
M  V30 7595 H 732.571 -3.67709 -2.05836 0
M  V30 7596 H 731.246 -2.48137 -2.07869 0
M  V30 7597 H 730.153 -3.73867 -0.132106 0
M  V30 7598 H 731.486 -4.9182 -0.193484 0
M  V30 7599 N 733.138 -0.185124 -1.56509 0
M  V30 7600 C 734.048 0.751908 -2.22224 0
M  V30 7601 C 735.064 1.24244 -1.21817 0
M  V30 7602 O 736.24 1.29169 -1.54523 0
M  V30 7603 C 733.305 1.95837 -2.86092 0
M  V30 7604 C 732.366 1.51337 -4.01741 0
M  V30 7605 C 731.599 2.66233 -4.62554 0
M  V30 7606 O 731.822 3.8346 -4.22273 0
M  V30 7607 O 730.756 2.39517 -5.52191 0
M  V30 7608 H 734.582 0.222304 -3.02885 0
M  V30 7609 H 732.167 0.0437141 -1.49336 0
M  V30 7610 H 734.049 2.66368 -3.26536 0
M  V30 7611 H 732.724 2.47677 -2.08417 0
M  V30 7612 H 731.631 0.777155 -3.65939 0
M  V30 7613 H 732.964 1.04175 -4.81049 0
M  V30 7614 N 734.616 1.57351 0.0885366 0
M  V30 7615 C 735.841 1.91011 0.80805 0
M  V30 7616 C 736.266 0.780009 1.71165 0
M  V30 7617 O 735.624 -0.268083 1.79307 0
M  V30 7618 C 735.672 3.23562 1.59185 0
M  V30 7619 O 734.776 3.11615 2.7013 0
M  V30 7620 H 734.117 0.625943 0.221565 0
M  V30 7621 H 736.647 2.04507 0.0617954 0
M  V30 7622 H 736.657 3.5703 1.97468 0
M  V30 7623 H 735.332 4.05398 0.928741 0
M  V30 7624 H 733.909 2.89673 2.34827 0
M  V30 7625 N 736.094 -0.359525 1.53444 0
M  V30 7626 C 737.505 -0.936009 1.61542 0
M  V30 7627 C 737.856 -1.90069 0.486633 0
M  V30 7628 O 736.981 -2.12929 -0.386047 0
M  V30 7629 C 737.576 -1.70441 2.92806 0
M  V30 7630 C 736.135 -2.23015 3.03218 0
M  V30 7631 C 735.282 -1.04438 2.56881 0
M  V30 7632 H 738.233 -0.138134 1.58098 0
M  V30 7633 H 738.254 -2.56609 2.80948 0
M  V30 7634 H 737.766 -1.00205 3.74941 0
M  V30 7635 H 735.867 -2.96475 2.25684 0
M  V30 7636 H 735.98 -2.50481 4.08407 0
M  V30 7637 H 734.344 -1.41314 2.11902 0
M  V30 7638 H 735.127 -0.356905 3.4144 0
M  V30 7639 N 737.572 -1.44907 -0.619662 0
M  V30 7640 C 738.818 -1.48512 -1.38102 0
M  V30 7641 C 739.151 -0.121686 -1.93818 0
M  V30 7642 O 738.426 0.862256 -1.74343 0
M  V30 7643 C 738.709 -2.55469 -2.53787 0
M  V30 7644 C 738.562 -4.01212 -2.03345 0
M  V30 7645 C 739.881 -2.58821 -3.55949 0
M  V30 7646 H 737 -0.540712 -0.500799 0
M  V30 7647 H 739.642 -1.7665 -0.69962 0
M  V30 7648 H 737.792 -2.31606 -3.11915 0
M  V30 7649 H 739.464 -4.36245 -1.49959 0
M  V30 7650 H 737.707 -4.12443 -1.34438 0
M  V30 7651 H 738.378 -4.71717 -2.86683 0
M  V30 7652 H 740.854 -2.80172 -3.07641 0
M  V30 7653 H 739.73 -3.35542 -4.34399 0
M  V30 7654 H 739.991 -1.63451 -4.10775 0
M  V30 7655 O 739.089 0.763334 -1.42322 0
M  V30 7656 H 739.78 1.41133 -1.3267 0
M  V30 END ATOM
M  V30 BEGIN BOND
M  V30 END BOND
M  V30 END CTAB
M  END
$$$$
