drugbank_drug|DB00010 DB00010 sequence
 OpenBabel12092119123D

501503  0  0  0  0  0  0  0  0999 V2000
   -0.9080    1.9825   -0.1171 H   0  0  0  0  0 15  0  0  0  0  0  0
    0.0000    1.5760    0.0000 N   0  0  0  0  0 15  0  0  0  0  0  0
    1.2300    1.9457    0.6948 C   0  0  0  0  0 15  0  0  0  0  0  0
    1.6380    0.8733    1.6784 C   0  0  0  0  0 15  0  0  0  0  0  0
    0.9810   -0.1563    1.8303 O   0  0  0  0  0 15  0  0  0  0  0  0
    1.0430    3.2752    1.4823 C   0  0  0  0  0 15  0  0  0  0  0  0
    0.7070    4.5220    0.6603 C   0  0  0  0  0 15  0  0  0  0  0  0
    1.7040    5.1987   -0.0520 C   0  0  0  0  0 15  0  0  0  0  0  0
   -0.6110    4.9863    0.6063 C   0  0  0  0  0 15  0  0  0  0  0  0
    1.3830    6.3227   -0.8073 C   0  0  0  0  0 15  0  0  0  0  0  0
   -0.9300    6.1091   -0.1528 C   0  0  0  0  0 15  0  0  0  0  0  0
    0.0680    6.7759   -0.8583 C   0  0  0  0  0 15  0  0  0  0  0  0
   -0.2440    7.8772   -1.6050 O   0  0  0  0  0 15  0  0  0  0  0  0
   -0.5120    0.6462    0.1985 H   0  0  0  0  0 15  0  0  0  0  0  0
    2.0420    2.0535   -0.0472 H   0  0  0  0  0 15  0  0  0  0  0  0
    0.2720    3.1315    2.2688 H   0  0  0  0  0 15  0  0  0  0  0  0
    1.9610    3.4960    2.0625 H   0  0  0  0  0 15  0  0  0  0  0  0
    2.7270    4.8500   -0.0194 H   0  0  0  0  0 15  0  0  0  0  0  0
   -1.3940    4.4655    1.1450 H   0  0  0  0  0 15  0  0  0  0  0  0
    2.1500    6.8424   -1.3586 H   0  0  0  0  0 15  0  0  0  0  0  0
   -1.9530    6.4523   -0.1872 H   0  0  0  0  0 15  0  0  0  0  0  0
   -1.1850    8.0423   -1.5217 H   0  0  0  0  0 15  0  0  0  0  0  0
    1.4781   -0.2728    1.5522 N   0  0  0  0  0 15  0  0  0  0  0  0
    2.4411   -1.3204    1.8734 C   0  0  0  0  0 15  0  0  0  0  0  0
    3.4411   -1.4234    0.7480 C   0  0  0  0  0 15  0  0  0  0  0  0
    4.6311   -1.4149    1.0162 O   0  0  0  0  0 15  0  0  0  0  0  0
    1.7631   -2.7017    2.0789 C   0  0  0  0  0 15  0  0  0  0  0  0
    2.9561   -1.0479    2.8100 H   0  0  0  0  0 15  0  0  0  0  0  0
    0.5091   -0.5108    1.4772 H   0  0  0  0  0 15  0  0  0  0  0  0
    1.2441   -3.0260    1.1662 H   0  0  0  0  0 15  0  0  0  0  0  0
    1.0291   -2.6408    2.8983 H   0  0  0  0  0 15  0  0  0  0  0  0
    2.5191   -3.4587    2.3402 H   0  0  0  0  0 15  0  0  0  0  0  0
    2.9562   -1.4816   -0.5373 N   0  0  0  0  0 15  0  0  0  0  0  0
    4.2332   -1.4629   -1.2984 C   0  0  0  0  0 15  0  0  0  0  0  0
    4.6132   -0.1706   -2.1041 C   0  0  0  0  0 15  0  0  0  0  0  0
    3.9612    0.8477   -2.1219 O   0  0  0  0  0 15  0  0  0  0  0  0
    4.1712   -2.7205   -2.1860 C   0  0  0  0  0 15  0  0  0  0  0  0
    5.5192   -3.2009   -2.7898 C   0  0  0  0  0 15  0  0  0  0  0  0
    6.5432   -2.7292   -2.2889 O   0  0  0  0  0 15  0  0  0  0  0  0
    5.4022   -4.0214   -3.7006 O   0  0  0  0  0 15  0  0  0  0  0  0
    2.4962   -0.5839   -0.5856 H   0  0  0  0  0 15  0  0  0  0  0  0
    5.0422   -1.6038   -0.5545 H   0  0  0  0  0 15  0  0  0  0  0  0
    3.8142   -3.5763   -1.5880 H   0  0  0  0  0 15  0  0  0  0  0  0
    3.4372   -2.6065   -3.0025 H   0  0  0  0  0 15  0  0  0  0  0  0
    4.4343    0.7856   -1.3662 N   0  0  0  0  0 15  0  0  0  0  0  0
    5.3973    1.8800   -1.3111 C   0  0  0  0  0 15  0  0  0  0  0  0
    6.3973    1.5932   -0.2180 C   0  0  0  0  0 15  0  0  0  0  0  0
    7.5873    1.6766   -0.4730 O   0  0  0  0  0 15  0  0  0  0  0  0
    4.7193    3.2486   -1.0333 C   0  0  0  0  0 15  0  0  0  0  0  0
    5.9123    1.9431   -2.2844 H   0  0  0  0  0 15  0  0  0  0  0  0
    3.4653    0.9838   -1.2145 H   0  0  0  0  0 15  0  0  0  0  0  0
    4.2003    3.2424   -0.0647 H   0  0  0  0  0 15  0  0  0  0  0  0
    3.9853    3.4707   -1.8244 H   0  0  0  0  0 15  0  0  0  0  0  0
    5.4753    4.0493   -1.0209 H   0  0  0  0  0 15  0  0  0  0  0  0
    5.9124    1.2097    1.0102 N   0  0  0  0  0 15  0  0  0  0  0  0
    7.1614    1.0180    1.7413 C   0  0  0  0  0 15  0  0  0  0  0  0
    7.4744   -0.4497    1.9036 C   0  0  0  0  0 15  0  0  0  0  0  0
    8.6804   -0.7607    2.6063 O   0  0  0  0  0 15  0  0  0  0  0  0
    7.1364    1.7727    3.1321 C   0  0  0  0  0 15  0  0  0  0  0  0
    6.7444    3.2817    3.0497 C   0  0  0  0  0 15  0  0  0  0  0  0
    8.4884    1.6649    3.9049 C   0  0  0  0  0 15  0  0  0  0  0  0
    6.3954    3.9616    4.3911 C   0  0  0  0  0 15  0  0  0  0  0  0
    5.3254    0.3773    0.6528 H   0  0  0  0  0 15  0  0  0  0  0  0
    7.9764    1.4465    1.1291 H   0  0  0  0  0 15  0  0  0  0  0  0
    6.3584    1.2720    3.7501 H   0  0  0  0  0 15  0  0  0  0  0  0
    7.5324    3.8550    2.5244 H   0  0  0  0  0 15  0  0  0  0  0  0
    5.8474    3.3944    2.4119 H   0  0  0  0  0 15  0  0  0  0  0  0
    8.4444    2.1462    4.8974 H   0  0  0  0  0 15  0  0  0  0  0  0
    8.7874    0.6222    4.1162 H   0  0  0  0  0 15  0  0  0  0  0  0
    9.3204    2.1400    3.3533 H   0  0  0  0  0 15  0  0  0  0  0  0
    6.0594    5.0060    4.2317 H   0  0  0  0  0 15  0  0  0  0  0  0
    5.5794    3.4362    4.9162 H   0  0  0  0  0 15  0  0  0  0  0  0
    7.2584    4.0077    5.0793 H   0  0  0  0  0 15  0  0  0  0  0  0
    7.3905   -1.2043    1.0166 N   0  0  0  0  0 15  0  0  0  0  0  0
    8.6375   -1.8980    0.7059 C   0  0  0  0  0 15  0  0  0  0  0  0
    8.9655   -1.7885   -0.7644 C   0  0  0  0  0 15  0  0  0  0  0  0
    8.2205   -1.1669   -1.5710 O   0  0  0  0  0 15  0  0  0  0  0  0
    8.5195   -3.4046    1.0871 C   0  0  0  0  0 15  0  0  0  0  0  0
    8.1855   -3.7161    2.5537 C   0  0  0  0  0 15  0  0  0  0  0  0
    6.8475   -3.7983    2.9544 C   0  0  0  0  0 15  0  0  0  0  0  0
    9.1995   -3.8592    3.5031 C   0  0  0  0  0 15  0  0  0  0  0  0
    6.5275   -3.9980    4.2939 C   0  0  0  0  0 15  0  0  0  0  0  0
    8.8795   -4.0740    4.8395 C   0  0  0  0  0 15  0  0  0  0  0  0
    7.5435   -4.1384    5.2373 C   0  0  0  0  0 15  0  0  0  0  0  0
    6.8135   -0.6945    0.2583 H   0  0  0  0  0 15  0  0  0  0  0  0
    9.4605   -1.4269    1.2772 H   0  0  0  0  0 15  0  0  0  0  0  0
    7.7655   -3.8939    0.4343 H   0  0  0  0  0 15  0  0  0  0  0  0
    9.4625   -3.9243    0.8245 H   0  0  0  0  0 15  0  0  0  0  0  0
    6.0525   -3.6582    2.2332 H   0  0  0  0  0 15  0  0  0  0  0  0
   10.2365   -3.7893    3.2051 H   0  0  0  0  0 15  0  0  0  0  0  0
    5.4925   -4.0302    4.5977 H   0  0  0  0  0 15  0  0  0  0  0  0
    9.6665   -4.1740    5.5745 H   0  0  0  0  0 15  0  0  0  0  0  0
    7.2935   -4.2906    6.2754 H   0  0  0  0  0 15  0  0  0  0  0  0
    8.8686   -0.7928   -1.3621 N   0  0  0  0  0 15  0  0  0  0  0  0
   10.0966   -0.3788   -2.0340 C   0  0  0  0  0 15  0  0  0  0  0  0
   10.5116    1.0059   -1.5977 C   0  0  0  0  0 15  0  0  0  0  0  0
    9.8686    1.6457   -0.7888 O   0  0  0  0  0 15  0  0  0  0  0  0
    9.9196   -0.4368   -3.5885 C   0  0  0  0  0 15  0  0  0  0  0  0
    9.6406   -1.7669   -4.0089 O   0  0  0  0  0 15  0  0  0  0  0  0
   11.1416   -0.0139   -4.4330 C   0  0  0  0  0 15  0  0  0  0  0  0
    8.3616   -0.1557   -0.6527 H   0  0  0  0  0 15  0  0  0  0  0  0
   10.9056   -1.0726   -1.7411 H   0  0  0  0  0 15  0  0  0  0  0  0
    9.0606    0.2086   -3.8684 H   0  0  0  0  0 15  0  0  0  0  0  0
    9.4746   -1.7201   -4.9549 H   0  0  0  0  0 15  0  0  0  0  0  0
   10.9486   -0.1056   -5.5190 H   0  0  0  0  0 15  0  0  0  0  0  0
   11.4256    1.0392   -4.2673 H   0  0  0  0  0 15  0  0  0  0  0  0
   12.0316   -0.6319   -4.2058 H   0  0  0  0  0 15  0  0  0  0  0  0
   10.3467    1.4787   -0.5451 N   0  0  0  0  0 15  0  0  0  0  0  0
   11.2947    2.3153    0.2225 C   0  0  0  0  0 15  0  0  0  0  0  0
   12.2887    1.4218    0.9210 C   0  0  0  0  0 15  0  0  0  0  0  0
   13.4947    1.5901    0.8436 O   0  0  0  0  0 15  0  0  0  0  0  0
    9.8697    0.7465    0.0906 H   0  0  0  0  0 15  0  0  0  0  0  0
   11.8407    2.9414   -0.5025 H   0  0  0  0  0 15  0  0  0  0  0  0
   10.5897    3.2457    1.2470 C   0  0  0  0  0 15  0  0  0  0  0  0
    9.9127    3.9328    0.7189 H   0  0  0  0  0 15  0  0  0  0  0  0
   11.3527    3.8596    1.7552 H   0  0  0  0  0 15  0  0  0  0  0  0
    9.8117    2.4724    2.2886 C   0  0  0  0  0 15  0  0  0  0  0  0
   10.3417    2.2081    3.3557 O   0  0  0  0  0 15  0  0  0  0  0  0
    8.5477    2.0846    2.0247 N   0  0  0  0  0 15  0  0  0  0  0  0
    8.0947    2.3015    1.1570 H   0  0  0  0  0 15  0  0  0  0  0  0
    8.0527    1.5703    2.7237 H   0  0  0  0  0 15  0  0  0  0  0  0
   11.8248    0.2810    1.5507 N   0  0  0  0  0 15  0  0  0  0  0  0
   13.0498   -0.3402    2.0459 C   0  0  0  0  0 15  0  0  0  0  0  0
   13.4748   -1.4825    1.1578 C   0  0  0  0  0 15  0  0  0  0  0  0
   12.8328   -1.8061    0.1576 O   0  0  0  0  0 15  0  0  0  0  0  0
   12.8808   -0.7931    3.5177 C   0  0  0  0  0 15  0  0  0  0  0  0
   11.9848   -1.8998    3.6603 O   0  0  0  0  0 15  0  0  0  0  0  0
   11.3258   -0.0694    0.6604 H   0  0  0  0  0 15  0  0  0  0  0  0
   13.8558    0.4170    2.0031 H   0  0  0  0  0 15  0  0  0  0  0  0
   13.8658   -1.0873    3.9325 H   0  0  0  0  0 15  0  0  0  0  0  0
   12.5408    0.0426    4.1588 H   0  0  0  0  0 15  0  0  0  0  0  0
   11.1178   -1.6077    3.3646 H   0  0  0  0  0 15  0  0  0  0  0  0
   13.3029   -1.5760    0.0084 N   0  0  0  0  0 15  0  0  0  0  0  0
   14.5329   -1.9493   -0.6845 C   0  0  0  0  0 15  0  0  0  0  0  0
   14.9409   -0.8822   -1.6737 C   0  0  0  0  0 15  0  0  0  0  0  0
   14.2839    0.1466   -1.8311 O   0  0  0  0  0 15  0  0  0  0  0  0
   14.3459   -3.2830   -1.4649 C   0  0  0  0  0 15  0  0  0  0  0  0
   14.0099   -4.5255   -0.6363 C   0  0  0  0  0 15  0  0  0  0  0  0
   15.0069   -5.1984    0.0796 C   0  0  0  0  0 15  0  0  0  0  0  0
   12.6919   -4.9894   -0.5798 C   0  0  0  0  0 15  0  0  0  0  0  0
   14.6859   -6.3183    0.8408 C   0  0  0  0  0 15  0  0  0  0  0  0
   12.3729   -6.1082    0.1852 C   0  0  0  0  0 15  0  0  0  0  0  0
   13.3709   -6.7712    0.8942 C   0  0  0  0  0 15  0  0  0  0  0  0
   13.0589   -7.8685    1.6467 O   0  0  0  0  0 15  0  0  0  0  0  0
   12.7909   -0.6472   -0.1950 H   0  0  0  0  0 15  0  0  0  0  0  0
   15.3449   -2.0532    0.0581 H   0  0  0  0  0 15  0  0  0  0  0  0
   13.5749   -3.1435   -2.2522 H   0  0  0  0  0 15  0  0  0  0  0  0
   15.2639   -3.5069   -2.0439 H   0  0  0  0  0 15  0  0  0  0  0  0
   16.0299   -4.8498    0.0451 H   0  0  0  0  0 15  0  0  0  0  0  0
   11.9089   -4.4716   -1.1213 H   0  0  0  0  0 15  0  0  0  0  0  0
   15.4529   -6.8351    1.3948 H   0  0  0  0  0 15  0  0  0  0  0  0
   11.3499   -6.4512    0.2214 H   0  0  0  0  0 15  0  0  0  0  0  0
   12.1179   -8.0341    1.5643 H   0  0  0  0  0 15  0  0  0  0  0  0
   14.7810    0.2645   -1.5536 N   0  0  0  0  0 15  0  0  0  0  0  0
   16.1970    0.6122   -1.4739 C   0  0  0  0  0 15  0  0  0  0  0  0
   16.3970    1.8913   -0.6950 C   0  0  0  0  0 15  0  0  0  0  0  0
   15.4530    2.5156   -0.2173 O   0  0  0  0  0 15  0  0  0  0  0  0
   16.7660    0.7312   -2.9167 C   0  0  0  0  0 15  0  0  0  0  0  0
   18.3140    0.8247   -3.0194 C   0  0  0  0  0 15  0  0  0  0  0  0
   18.7890    0.9755   -4.4749 C   0  0  0  0  0 15  0  0  0  0  0  0
   20.2800    1.0408   -4.5135 N   0  0  0  0  0 15  0  0  0  0  0  0
   21.0150    1.1765   -5.6120 C   0  0  0  0  0 15  0  0  0  0  0  0
   20.5110    1.2787   -6.8090 N   0  0  0  0  0 15  0  0  0  0  0  0
   22.3040    1.2082   -5.4896 N   0  0  0  0  0 15  0  0  0  0  0  0
   14.4550   -0.5755   -2.0446 H   0  0  0  0  0 15  0  0  0  0  0  0
   16.7180   -0.1961   -0.9275 H   0  0  0  0  0 15  0  0  0  0  0  0
   16.4240   -0.1384   -3.5143 H   0  0  0  0  0 15  0  0  0  0  0  0
   16.2980    1.6088   -3.4117 H   0  0  0  0  0 15  0  0  0  0  0  0
   18.6850    1.6848   -2.4228 H   0  0  0  0  0 15  0  0  0  0  0  0
   18.7660   -0.0776   -2.5568 H   0  0  0  0  0 15  0  0  0  0  0  0
   18.4100    0.1201   -5.0776 H   0  0  0  0  0 15  0  0  0  0  0  0
   18.3400    1.8927   -4.9141 H   0  0  0  0  0 15  0  0  0  0  0  0
   20.8310    0.9738   -3.6514 H   0  0  0  0  0 15  0  0  0  0  0  0
   21.1440    1.3808   -7.6036 H   0  0  0  0  0 15  0  0  0  0  0  0
   19.4890    1.2486   -6.8369 H   0  0  0  0  0 15  0  0  0  0  0  0
   22.6800    1.1247   -4.5439 H   0  0  0  0  0 15  0  0  0  0  0  0
   22.8530    1.3105   -6.3461 H   0  0  0  0  0 15  0  0  0  0  0  0
   16.2591    1.4844    0.5294 N   0  0  0  0  0 15  0  0  0  0  0  0
   17.2061    1.6301    1.6339 C   0  0  0  0  0 15  0  0  0  0  0  0
   18.1761    0.4721    1.5925 C   0  0  0  0  0 15  0  0  0  0  0  0
   19.3611    0.6957    1.7767 O   0  0  0  0  0 15  0  0  0  0  0  0
   16.5011    1.6763    3.0165 C   0  0  0  0  0 15  0  0  0  0  0  0
   15.6141    2.9454    3.1603 C   0  0  0  0  0 15  0  0  0  0  0  0
   14.7491    2.9032    4.4485 C   0  0  0  0  0 15  0  0  0  0  0  0
   13.7881    4.1192    4.5275 C   0  0  0  0  0 15  0  0  0  0  0  0
   12.9251    4.0578    5.7297 N   0  0  0  0  0 15  0  0  0  0  0  0
   17.7651    2.5733    1.5028 H   0  0  0  0  0 15  0  0  0  0  0  0
   15.3021    1.2761    0.7317 H   0  0  0  0  0 15  0  0  0  0  0  0
   17.2601    1.6829    3.8175 H   0  0  0  0  0 15  0  0  0  0  0  0
   15.8901    0.7680    3.1353 H   0  0  0  0  0 15  0  0  0  0  0  0
   14.9421    3.0361    2.2918 H   0  0  0  0  0 15  0  0  0  0  0  0
   16.2541    3.8451    3.1773 H   0  0  0  0  0 15  0  0  0  0  0  0
   15.4081    2.8938    5.3324 H   0  0  0  0  0 15  0  0  0  0  0  0
   14.1471    1.9807    4.4567 H   0  0  0  0  0 15  0  0  0  0  0  0
   13.1521    4.1313    3.6277 H   0  0  0  0  0 15  0  0  0  0  0  0
   14.3771    5.0533    4.5367 H   0  0  0  0  0 15  0  0  0  0  0  0
   12.3231    3.1635    5.7468 H   0  0  0  0  0 15  0  0  0  0  0  0
   12.2401    4.8946    5.7616 H   0  0  0  0  0 15  0  0  0  0  0  0
   13.5081    4.0890    6.6364 H   0  0  0  0  0 15  0  0  0  0  0  0
   17.7372   -0.7783    1.3704 N   0  0  0  0  0 15  0  0  0  0  0  0
   18.9832   -1.5389    1.3208 C   0  0  0  0  0 15  0  0  0  0  0  0
   19.3162   -1.9396   -0.0965 C   0  0  0  0  0 15  0  0  0  0  0  0
   18.5912   -1.6357   -1.0524 O   0  0  0  0  0 15  0  0  0  0  0  0
   18.8742   -2.8085    2.2538 C   0  0  0  0  0 15  0  0  0  0  0  0
   18.7272   -2.4708    3.7586 C   0  0  0  0  0 15  0  0  0  0  0  0
   20.0462   -3.8274    2.1725 C   0  0  0  0  0 15  0  0  0  0  0  0
   17.1652   -0.5583    0.4811 H   0  0  0  0  0 15  0  0  0  0  0  0
   19.8072   -0.8934    1.6769 H   0  0  0  0  0 15  0  0  0  0  0  0
   17.9572   -3.3593    1.9515 H   0  0  0  0  0 15  0  0  0  0  0  0
   19.6292   -1.9796    4.1667 H   0  0  0  0  0 15  0  0  0  0  0  0
   17.8722   -1.7986    3.9476 H   0  0  0  0  0 15  0  0  0  0  0  0
   18.5432   -3.3780    4.3657 H   0  0  0  0  0 15  0  0  0  0  0  0
   21.0192   -3.3713    2.4389 H   0  0  0  0  0 15  0  0  0  0  0  0
   19.8952   -4.6930    2.8469 H   0  0  0  0  0 15  0  0  0  0  0  0
   20.1562   -4.2652    1.1633 H   0  0  0  0  0 15  0  0  0  0  0  0
   19.2153   -1.2150   -1.0038 N   0  0  0  0  0 15  0  0  0  0  0  0
   20.1453   -0.9995   -2.1103 C   0  0  0  0  0 15  0  0  0  0  0  0
   21.1263    0.0760   -1.6993 C   0  0  0  0  0 15  0  0  0  0  0  0
   22.3113   -0.0841   -1.9402 O   0  0  0  0  0 15  0  0  0  0  0  0
   19.4413   -0.5647   -3.4268 C   0  0  0  0  0 15  0  0  0  0  0  0
   18.3953   -1.5849   -3.9758 C   0  0  0  0  0 15  0  0  0  0  0  0
   17.7213   -1.0063   -5.2515 C   0  0  0  0  0 15  0  0  0  0  0  0
   19.0213   -2.9720   -4.2950 C   0  0  0  0  0 15  0  0  0  0  0  0
   20.7153   -1.9249   -2.2932 H   0  0  0  0  0 15  0  0  0  0  0  0
   18.2613   -0.9269   -1.1020 H   0  0  0  0  0 15  0  0  0  0  0  0
   20.2143   -0.4011   -4.1949 H   0  0  0  0  0 15  0  0  0  0  0  0
   18.9383    0.3964   -3.2419 H   0  0  0  0  0 15  0  0  0  0  0  0
   17.5973   -1.7361   -3.2289 H   0  0  0  0  0 15  0  0  0  0  0  0
   17.2453   -0.0368   -5.0299 H   0  0  0  0  0 15  0  0  0  0  0  0
   16.9453   -1.6877   -5.6284 H   0  0  0  0  0 15  0  0  0  0  0  0
   18.4693   -0.8540   -6.0460 H   0  0  0  0  0 15  0  0  0  0  0  0
   19.8833   -2.8552   -4.9714 H   0  0  0  0  0 15  0  0  0  0  0  0
   18.2803   -3.6237   -4.7834 H   0  0  0  0  0 15  0  0  0  0  0  0
   19.3503   -3.4796   -3.3772 H   0  0  0  0  0 15  0  0  0  0  0  0
   20.6934    1.1989   -1.0230 N   0  0  0  0  0 15  0  0  0  0  0  0
   21.9414    1.8905   -0.7146 C   0  0  0  0  0 15  0  0  0  0  0  0
   22.2624    1.7964    0.7587 C   0  0  0  0  0 15  0  0  0  0  0  0
   21.5324    1.2029    1.5462 O   0  0  0  0  0 15  0  0  0  0  0  0
   20.1124    0.6998   -0.2613 H   0  0  0  0  0 15  0  0  0  0  0  0
   22.7744    1.4557   -1.2959 H   0  0  0  0  0 15  0  0  0  0  0  0
   21.8704    2.9552   -1.0036 H   0  0  0  0  0 15  0  0  0  0  0  0
   22.1715    0.8000    1.3578 N   0  0  0  0  0 15  0  0  0  0  0  0
   23.1035    0.1636    2.2862 C   0  0  0  0  0 15  0  0  0  0  0  0
   24.1165   -0.6333    1.4998 C   0  0  0  0  0 15  0  0  0  0  0  0
   25.3055   -0.4668    1.7229 O   0  0  0  0  0 15  0  0  0  0  0  0
   22.4055   -0.7910    3.2954 C   0  0  0  0  0 15  0  0  0  0  0  0
   21.5785   -0.0418    4.3738 C   0  0  0  0  0 15  0  0  0  0  0  0
   20.6375   -0.9139    5.1820 C   0  0  0  0  0 15  0  0  0  0  0  0
   19.6635   -0.3672    5.6801 O   0  0  0  0  0 15  0  0  0  0  0  0
   20.8655   -2.2368    5.3567 N   0  0  0  0  0 15  0  0  0  0  0  0
   23.6305    0.9611    2.8387 H   0  0  0  0  0 15  0  0  0  0  0  0
   21.1915    0.6549    1.4806 H   0  0  0  0  0 15  0  0  0  0  0  0
   23.1835   -1.3784    3.8050 H   0  0  0  0  0 15  0  0  0  0  0  0
   21.7535   -1.4892    2.7485 H   0  0  0  0  0 15  0  0  0  0  0  0
   20.9735    0.7268    3.8744 H   0  0  0  0  0 15  0  0  0  0  0  0
   22.2615    0.4747    5.0658 H   0  0  0  0  0 15  0  0  0  0  0  0
   21.6595   -2.7050    4.9684 H   0  0  0  0  0 15  0  0  0  0  0  0
   20.2165   -2.7737    5.8984 H   0  0  0  0  0 15  0  0  0  0  0  0
   23.6496   -1.4758    0.5530 N   0  0  0  0  0 15  0  0  0  0  0  0
   24.5796   -2.3276   -0.1855 C   0  0  0  0  0 15  0  0  0  0  0  0
   25.5606   -1.4353   -0.9129 C   0  0  0  0  0 15  0  0  0  0  0  0
   26.7456   -1.7239   -0.8942 O   0  0  0  0  0 15  0  0  0  0  0  0
   23.8756   -3.2522   -1.2186 C   0  0  0  0  0 15  0  0  0  0  0  0
   22.8296   -4.2366   -0.6079 C   0  0  0  0  0 15  0  0  0  0  0  0
   22.1556   -5.0541   -1.7453 C   0  0  0  0  0 15  0  0  0  0  0  0
   23.4556   -5.2048    0.4356 C   0  0  0  0  0 15  0  0  0  0  0  0
   25.1496   -2.9475    0.5257 H   0  0  0  0  0 15  0  0  0  0  0  0
   22.6956   -1.4174    0.2543 H   0  0  0  0  0 15  0  0  0  0  0  0
   24.6486   -3.8365   -1.7433 H   0  0  0  0  0 15  0  0  0  0  0  0
   23.3726   -2.6128   -1.9596 H   0  0  0  0  0 15  0  0  0  0  0  0
   22.0316   -3.6645   -0.1045 H   0  0  0  0  0 15  0  0  0  0  0  0
   21.6796   -4.3788   -2.4753 H   0  0  0  0  0 15  0  0  0  0  0  0
   21.3796   -5.7206   -1.3425 H   0  0  0  0  0 15  0  0  0  0  0  0
   22.9036   -5.6670   -2.2734 H   0  0  0  0  0 15  0  0  0  0  0  0
   24.3176   -5.7330   -0.0029 H   0  0  0  0  0 15  0  0  0  0  0  0
   22.7146   -5.9531    0.7571 H   0  0  0  0  0 15  0  0  0  0  0  0
   23.7846   -4.6622    1.3330 H   0  0  0  0  0 15  0  0  0  0  0  0
   25.1277   -0.2892   -1.5492 N   0  0  0  0  0 15  0  0  0  0  0  0
   26.3527    0.3293   -2.0477 C   0  0  0  0  0 15  0  0  0  0  0  0
   26.7777    1.4763   -1.1656 C   0  0  0  0  0 15  0  0  0  0  0  0
   26.1357    1.8053   -0.1672 O   0  0  0  0  0 15  0  0  0  0  0  0
   26.1837    0.7744   -3.5219 C   0  0  0  0  0 15  0  0  0  0  0  0
   25.2877    1.8804   -3.6704 O   0  0  0  0  0 15  0  0  0  0  0  0
   24.6287    0.0659   -0.6607 H   0  0  0  0  0 15  0  0  0  0  0  0
   27.1587   -0.4276   -2.0008 H   0  0  0  0  0 15  0  0  0  0  0  0
   27.1687    1.0664   -3.9382 H   0  0  0  0  0 15  0  0  0  0  0  0
   25.8437   -0.0647   -4.1585 H   0  0  0  0  0 15  0  0  0  0  0  0
   24.4207    1.5898   -3.3731 H   0  0  0  0  0 15  0  0  0  0  0  0
   26.6058    1.5759   -0.0167 N   0  0  0  0  0 15  0  0  0  0  0  0
   27.5688    2.0839    0.9542 C   0  0  0  0  0 15  0  0  0  0  0  0
   28.5688    0.9965    1.2620 C   0  0  0  0  0 15  0  0  0  0  0  0
   29.7588    1.2586    1.2044 O   0  0  0  0  0 15  0  0  0  0  0  0
   26.8908    2.5394    2.2744 C   0  0  0  0  0 15  0  0  0  0  0  0
   28.0838    2.9545    0.5145 H   0  0  0  0  0 15  0  0  0  0  0  0
   25.6368    1.5458    0.2311 H   0  0  0  0  0 15  0  0  0  0  0  0
   26.3718    1.7017    2.7607 H   0  0  0  0  0 15  0  0  0  0  0  0
   26.1568    3.3337    2.0641 H   0  0  0  0  0 15  0  0  0  0  0  0
   27.6468    2.9351    2.9705 H   0  0  0  0  0 15  0  0  0  0  0  0
   28.0839   -0.2563    1.5550 N   0  0  0  0  0 15  0  0  0  0  0  0
   29.4999   -0.6043    1.4772 C   0  0  0  0  0 15  0  0  0  0  0  0
   29.6999   -1.8876    0.7050 C   0  0  0  0  0 15  0  0  0  0  0  0
   28.7559   -2.5144    0.2306 O   0  0  0  0  0 15  0  0  0  0  0  0
   30.0689   -0.7158    2.9206 C   0  0  0  0  0 15  0  0  0  0  0  0
   31.6169   -0.8087    3.0237 C   0  0  0  0  0 15  0  0  0  0  0  0
   32.0919   -0.9518    4.4800 C   0  0  0  0  0 15  0  0  0  0  0  0
   33.5829   -1.0169    4.5190 N   0  0  0  0  0 15  0  0  0  0  0  0
   34.3179   -1.1467    5.6182 C   0  0  0  0  0 15  0  0  0  0  0  0
   33.8139   -1.2426    6.8157 N   0  0  0  0  0 15  0  0  0  0  0  0
   35.6069   -1.1791    5.4959 N   0  0  0  0  0 15  0  0  0  0  0  0
   27.7579    0.5863    2.0415 H   0  0  0  0  0 15  0  0  0  0  0  0
   30.0209    0.2010    0.9264 H   0  0  0  0  0 15  0  0  0  0  0  0
   29.7269    0.1570    3.5135 H   0  0  0  0  0 15  0  0  0  0  0  0
   29.6009   -1.5907    3.4202 H   0  0  0  0  0 15  0  0  0  0  0  0
   31.9879   -1.6719    2.4317 H   0  0  0  0  0 15  0  0  0  0  0  0
   32.0689    0.0912    2.5564 H   0  0  0  0  0 15  0  0  0  0  0  0
   31.7129   -0.0931    5.0781 H   0  0  0  0  0 15  0  0  0  0  0  0
   31.6429   -1.8666    4.9241 H   0  0  0  0  0 15  0  0  0  0  0  0
   34.1339   -0.9545    3.6565 H   0  0  0  0  0 15  0  0  0  0  0  0
   34.4469   -1.3405    7.6109 H   0  0  0  0  0 15  0  0  0  0  0  0
   32.7919   -1.2124    6.8434 H   0  0  0  0  0 15  0  0  0  0  0  0
   35.9829   -1.1006    4.5498 H   0  0  0  0  0 15  0  0  0  0  0  0
   36.1559   -1.2768    6.3530 H   0  0  0  0  0 15  0  0  0  0  0  0
   29.5620   -1.4872   -0.5215 N   0  0  0  0  0 15  0  0  0  0  0  0
   30.5090   -1.6387   -1.6253 C   0  0  0  0  0 15  0  0  0  0  0  0
   31.4790   -0.4806   -1.5900 C   0  0  0  0  0 15  0  0  0  0  0  0
   32.6640   -0.7051   -1.7729 O   0  0  0  0  0 15  0  0  0  0  0  0
   29.8040   -1.6923   -3.0076 C   0  0  0  0  0 15  0  0  0  0  0  0
   28.9170   -2.9621   -3.1446 C   0  0  0  0  0 15  0  0  0  0  0  0
   28.0520   -2.9267   -4.4330 C   0  0  0  0  0 15  0  0  0  0  0  0
   27.0910   -4.1432   -4.5056 C   0  0  0  0  0 15  0  0  0  0  0  0
   26.2280   -4.0881   -5.7081 N   0  0  0  0  0 15  0  0  0  0  0  0
   31.0680   -2.5812   -1.4892 H   0  0  0  0  0 15  0  0  0  0  0  0
   28.6050   -1.2800   -0.7249 H   0  0  0  0  0 15  0  0  0  0  0  0
   30.5630   -1.7031   -3.8085 H   0  0  0  0  0 15  0  0  0  0  0  0
   29.1930   -0.7846   -3.1312 H   0  0  0  0  0 15  0  0  0  0  0  0
   28.2450   -3.0483   -2.2756 H   0  0  0  0  0 15  0  0  0  0  0  0
   29.5570   -3.8619   -3.1569 H   0  0  0  0  0 15  0  0  0  0  0  0
   28.7110   -2.9221   -5.3170 H   0  0  0  0  0 15  0  0  0  0  0  0
   27.4500   -2.0043   -4.4461 H   0  0  0  0  0 15  0  0  0  0  0  0
   26.4550   -4.1505   -3.6058 H   0  0  0  0  0 15  0  0  0  0  0  0
   27.6800   -5.0773   -4.5099 H   0  0  0  0  0 15  0  0  0  0  0  0
   25.6260   -3.1939   -5.7300 H   0  0  0  0  0 15  0  0  0  0  0  0
   25.5430   -4.9251   -5.7356 H   0  0  0  0  0 15  0  0  0  0  0  0
   26.8110   -4.1242   -6.6146 H   0  0  0  0  0 15  0  0  0  0  0  0
   31.0401    0.7711   -1.3745 N   0  0  0  0  0 15  0  0  0  0  0  0
   31.9701    1.8983   -1.3597 C   0  0  0  0  0 15  0  0  0  0  0  0
   32.9511    1.6856   -0.2282 C   0  0  0  0  0 15  0  0  0  0  0  0
   34.1361    1.8941   -0.4287 O   0  0  0  0  0 15  0  0  0  0  0  0
   31.2661    3.2712   -1.1666 C   0  0  0  0  0 15  0  0  0  0  0  0
   30.2201    3.6295   -2.2683 C   0  0  0  0  0 15  0  0  0  0  0  0
   29.5461    4.9879   -1.9264 C   0  0  0  0  0 15  0  0  0  0  0  0
   30.8461    3.6963   -3.6902 C   0  0  0  0  0 15  0  0  0  0  0  0
   32.5401    1.9132   -2.3030 H   0  0  0  0  0 15  0  0  0  0  0  0
   30.0861    0.9191   -1.1086 H   0  0  0  0  0 15  0  0  0  0  0  0
   32.0391    4.0561   -1.1426 H   0  0  0  0  0 15  0  0  0  0  0  0
   30.7631    3.2606   -0.1879 H   0  0  0  0  0 15  0  0  0  0  0  0
   29.4221    2.8676   -2.2839 H   0  0  0  0  0 15  0  0  0  0  0  0
   29.0701    4.9427   -0.9330 H   0  0  0  0  0 15  0  0  0  0  0  0
   28.7701    5.2373   -2.6642 H   0  0  0  0  0 15  0  0  0  0  0  0
   30.2941    5.7969   -1.9183 H   0  0  0  0  0 15  0  0  0  0  0  0
   31.7081    4.3827   -3.6958 H   0  0  0  0  0 15  0  0  0  0  0  0
   30.1051    4.0607   -4.4185 H   0  0  0  0  0 15  0  0  0  0  0  0
   31.1751    2.7027   -4.0259 H   0  0  0  0  0 15  0  0  0  0  0  0
   32.5182    1.2203    0.9973 N   0  0  0  0  0 15  0  0  0  0  0  0
   33.4482    1.0107    2.1049 C   0  0  0  0  0 15  0  0  0  0  0  0
   34.4292   -0.0670    1.6997 C   0  0  0  0  0 15  0  0  0  0  0  0
   35.6142    0.0944    1.9397 O   0  0  0  0  0 15  0  0  0  0  0  0
   32.7442    0.5829    3.4237 C   0  0  0  0  0 15  0  0  0  0  0  0
   31.6982    1.6059    3.9673 C   0  0  0  0  0 15  0  0  0  0  0  0
   31.0242    1.0341    5.2460 C   0  0  0  0  0 15  0  0  0  0  0  0
   32.3242    2.9948    4.2791 C   0  0  0  0  0 15  0  0  0  0  0  0
   34.0182    1.9371    2.2829 H   0  0  0  0  0 15  0  0  0  0  0  0
   31.5642    0.9328    1.0971 H   0  0  0  0  0 15  0  0  0  0  0  0
   33.5172    0.4233    4.1927 H   0  0  0  0  0 15  0  0  0  0  0  0
   32.2412   -0.3792    3.2439 H   0  0  0  0  0 15  0  0  0  0  0  0
   30.9002    1.7532    3.2196 H   0  0  0  0  0 15  0  0  0  0  0  0
   30.5482    0.0635    5.0296 H   0  0  0  0  0 15  0  0  0  0  0  0
   30.2482    1.7175    5.6194 H   0  0  0  0  0 15  0  0  0  0  0  0
   31.7722    0.8861    6.0414 H   0  0  0  0  0 15  0  0  0  0  0  0
   33.1862    2.8815    4.9562 H   0  0  0  0  0 15  0  0  0  0  0  0
   31.5832    3.6490    4.7641 H   0  0  0  0  0 15  0  0  0  0  0  0
   32.6532    3.4974    3.3587 H   0  0  0  0  0 15  0  0  0  0  0  0
   33.9963   -1.1934    1.0293 N   0  0  0  0  0 15  0  0  0  0  0  0
   34.9283   -2.2204    0.5686 C   0  0  0  0  0 15  0  0  0  0  0  0
   35.9413   -1.5886   -0.3558 C   0  0  0  0  0 15  0  0  0  0  0  0
   37.1303   -1.7785   -0.1521 O   0  0  0  0  0 15  0  0  0  0  0  0
   34.2303   -3.3836   -0.1908 C   0  0  0  0  0 15  0  0  0  0  0  0
   33.4033   -4.3112    0.7386 C   0  0  0  0  0 15  0  0  0  0  0  0
   32.4623   -5.2619    0.0246 C   0  0  0  0  0 15  0  0  0  0  0  0
   31.4883   -5.6546    0.6514 O   0  0  0  0  0 15  0  0  0  0  0  0
   32.6903   -5.6697   -1.2459 N   0  0  0  0  0 15  0  0  0  0  0  0
   35.4553   -2.6219    1.4518 H   0  0  0  0  0 15  0  0  0  0  0  0
   33.0163   -1.3402    0.9084 H   0  0  0  0  0 15  0  0  0  0  0  0
   35.0083   -3.9898   -0.6780 H   0  0  0  0  0 15  0  0  0  0  0  0
   33.5783   -2.9699   -0.9754 H   0  0  0  0  0 15  0  0  0  0  0  0
   32.7983   -3.6828    1.4059 H   0  0  0  0  0 15  0  0  0  0  0  0
   34.0863   -4.9000    1.3703 H   0  0  0  0  0 15  0  0  0  0  0  0
   33.4843   -5.3710   -1.7758 H   0  0  0  0  0 15  0  0  0  0  0  0
   32.0413   -6.2984   -1.6776 H   0  0  0  0  0 15  0  0  0  0  0  0
   35.4744   -0.8072   -1.3536 N   0  0  0  0  0 15  0  0  0  0  0  0
   36.7514   -0.3111   -1.9311 C   0  0  0  0  0 15  0  0  0  0  0  0
   37.1314    1.1994   -1.7372 C   0  0  0  0  0 15  0  0  0  0  0  0
   36.4794    1.9992   -1.1066 O   0  0  0  0  0 15  0  0  0  0  0  0
   36.6894   -0.7232   -3.4142 C   0  0  0  0  0 15  0  0  0  0  0  0
   38.0374   -0.7131   -4.1857 C   0  0  0  0  0 15  0  0  0  0  0  0
   39.0614   -0.6648   -3.4994 O   0  0  0  0  0 15  0  0  0  0  0  0
   37.9204   -0.7720   -5.4102 O   0  0  0  0  0 15  0  0  0  0  0  0
   35.0144   -0.0815   -0.8230 H   0  0  0  0  0 15  0  0  0  0  0  0
   37.5604   -0.8910   -1.4443 H   0  0  0  0  0 15  0  0  0  0  0  0
   36.3324   -1.7643   -3.4927 H   0  0  0  0  0 15  0  0  0  0  0  0
   35.9554   -0.1182   -3.9742 H   0  0  0  0  0 15  0  0  0  0  0  0
   36.9525    1.4729   -0.5608 N   0  0  0  0  0 15  0  0  0  0  0  0
   38.2015    2.0167   -0.0359 C   0  0  0  0  0 15  0  0  0  0  0  0
   38.5145    1.4402    1.3235 C   0  0  0  0  0 15  0  0  0  0  0  0
   39.7205    1.9009    1.9385 O   0  0  0  0  0 15  0  0  0  0  0  0
   38.1765    3.5990   -0.0137 C   0  0  0  0  0 15  0  0  0  0  0  0
   37.7845    4.2654   -1.3701 C   0  0  0  0  0 15  0  0  0  0  0  0
   39.5285    4.2202    0.4584 C   0  0  0  0  0 15  0  0  0  0  0  0
   37.4355    5.7678   -1.3067 C   0  0  0  0  0 15  0  0  0  0  0  0
   36.3655    0.7539   -0.0096 H   0  0  0  0  0 15  0  0  0  0  0  0
   39.0165    1.6924   -0.7092 H   0  0  0  0  0 15  0  0  0  0  0  0
   37.3985    3.8930    0.7253 H   0  0  0  0  0 15  0  0  0  0  0  0
   38.5725    4.0877   -2.1270 H   0  0  0  0  0 15  0  0  0  0  0  0
   36.8875    3.7642   -1.7804 H   0  0  0  0  0 15  0  0  0  0  0  0
   39.4845    5.3212    0.5242 H   0  0  0  0  0 15  0  0  0  0  0  0
   39.8275    3.8944    1.4712 H   0  0  0  0  0 15  0  0  0  0  0  0
   40.3605    3.9716   -0.2258 H   0  0  0  0  0 15  0  0  0  0  0  0
   37.0995    6.1399   -2.2956 H   0  0  0  0  0 15  0  0  0  0  0  0
   36.6195    5.9688   -0.5916 H   0  0  0  0  0 15  0  0  0  0  0  0
   38.2985    6.3906   -1.0103 H   0  0  0  0  0 15  0  0  0  0  0  0
   38.4306    0.2974    1.5477 N   0  0  0  0  0 15  0  0  0  0  0  0
   39.3636   -0.6222    2.1955 C   0  0  0  0  0 15  0  0  0  0  0  0
   40.3416   -1.1356    1.1638 C   0  0  0  0  0 15  0  0  0  0  0  0
   41.5256   -1.2044    1.4500 O   0  0  0  0  0 15  0  0  0  0  0  0
   38.6526   -1.8509    2.8365 C   0  0  0  0  0 15  0  0  0  0  0  0
   37.6986   -1.4711    4.0033 C   0  0  0  0  0 15  0  0  0  0  0  0
   38.5316   -0.5301    5.3287 S   0  0  0  0  0 15  0  0  0  0  0  0
   39.6876   -1.7666    6.0045 C   0  0  0  0  0 15  0  0  0  0  0  0
   39.9206   -0.0718    2.9721 H   0  0  0  0  0 15  0  0  0  0  0  0
   37.4536    0.0816    1.5418 H   0  0  0  0  0 15  0  0  0  0  0  0
   39.4116   -2.5560    3.2121 H   0  0  0  0  0 15  0  0  0  0  0  0
   38.0726   -2.3725    2.0585 H   0  0  0  0  0 15  0  0  0  0  0  0
   37.2656   -2.3859    4.4395 H   0  0  0  0  0 15  0  0  0  0  0  0
   36.8676   -0.8459    3.6431 H   0  0  0  0  0 15  0  0  0  0  0  0
   39.1596   -2.7077    6.2104 H   0  0  0  0  0 15  0  0  0  0  0  0
   40.1026   -1.3731    6.9466 H   0  0  0  0  0 15  0  0  0  0  0  0
   40.5106   -1.9417    5.3005 H   0  0  0  0  0 15  0  0  0  0  0  0
   39.9087   -1.5758    0.0251 N   0  0  0  0  0 15  0  0  0  0  0  0
   41.1337   -1.9634   -0.6683 C   0  0  0  0  0 15  0  0  0  0  0  0
   41.5587   -0.9013   -1.6510 C   0  0  0  0  0 15  0  0  0  0  0  0
   40.9167    0.1382   -1.8077 O   0  0  0  0  0 15  0  0  0  0  0  0
   40.9647   -3.3419   -1.3546 C   0  0  0  0  0 15  0  0  0  0  0  0
   40.0687   -3.3027   -2.4697 O   0  0  0  0  0 15  0  0  0  0  0  0
   39.4097   -0.6403   -0.1759 H   0  0  0  0  0 15  0  0  0  0  0  0
   41.9397   -2.0442    0.0857 H   0  0  0  0  0 15  0  0  0  0  0  0
   41.9497   -3.7033   -1.7123 H   0  0  0  0  0 15  0  0  0  0  0  0
   40.6247   -4.1104   -0.6342 H   0  0  0  0  0 15  0  0  0  0  0  0
   39.2017   -3.0584   -2.1334 H   0  0  0  0  0 15  0  0  0  0  0  0
   41.3868    0.2480   -1.5564 N   0  0  0  0  0 15  0  0  0  0  0  0
   42.8028    0.5965   -1.4803 C   0  0  0  0  0 15  0  0  0  0  0  0
   43.0028    1.8839   -0.7150 C   0  0  0  0  0 15  0  0  0  0  0  0
   42.0588    2.5132   -0.2439 O   0  0  0  0  0 15  0  0  0  0  0  0
   43.3718    0.7003   -2.9243 C   0  0  0  0  0 15  0  0  0  0  0  0
   44.9198    0.7927   -3.0280 C   0  0  0  0  0 15  0  0  0  0  0  0
   45.3948    0.9280   -4.4850 C   0  0  0  0  0 15  0  0  0  0  0  0
   46.8858    0.9929   -4.5243 N   0  0  0  0  0 15  0  0  0  0  0  0
   47.6208    1.1169   -5.6242 C   0  0  0  0  0 15  0  0  0  0  0  0
   47.1168    1.2065   -6.8221 N   0  0  0  0  0 15  0  0  0  0  0  0
   48.9098    1.1499   -5.5021 N   0  0  0  0  0 15  0  0  0  0  0  0
   41.0608   -0.5971   -2.0383 H   0  0  0  0  0 15  0  0  0  0  0  0
   43.3238   -0.2059   -0.9254 H   0  0  0  0  0 15  0  0  0  0  0  0
   43.0298   -0.1757   -3.5126 H   0  0  0  0  0 15  0  0  0  0  0  0
   42.9038    1.5726   -3.4286 H   0  0  0  0  0 15  0  0  0  0  0  0
   45.2908    1.6590   -2.4405 H   0  0  0  0  0 15  0  0  0  0  0  0
   45.3718   -0.1048   -2.5559 H   0  0  0  0  0 15  0  0  0  0  0  0
   45.0158    0.0662   -5.0786 H   0  0  0  0  0 15  0  0  0  0  0  0
   44.9458    1.8404   -4.9339 H   0  0  0  0  0 15  0  0  0  0  0  0
   47.4368    0.9351   -3.6615 H   0  0  0  0  0 15  0  0  0  0  0  0
   47.7498    1.3001   -7.6179 H   0  0  0  0  0 15  0  0  0  0  0  0
   46.0948    1.1760   -6.8498 H   0  0  0  0  0 15  0  0  0  0  0  0
   49.2858    1.0764   -4.5556 H   0  0  0  0  0 15  0  0  0  0  0  0
   49.4588    1.2431   -6.3596 H   0  0  0  0  0 15  0  0  0  0  0  0
   42.8649    1.4899    0.5136 N   0  0  0  0  0 15  0  0  0  0  0  0
   43.7969    1.6084    1.6329 C   0  0  0  0  0 15  0  0  0  0  0  0
   44.8099    0.4917    1.5520 C   0  0  0  0  0 15  0  0  0  0  0  0
   45.9989    0.7632    1.6136 O   0  0  0  0  0 15  0  0  0  0  0  0
   43.0989    1.5373    3.0203 C   0  0  0  0  0 15  0  0  0  0  0  0
   42.2719    2.8072    3.3544 C   0  0  0  0  0 15  0  0  0  0  0  0
   41.3309    2.6684    4.5352 C   0  0  0  0  0 15  0  0  0  0  0  0
   40.3569    3.4075    4.5593 O   0  0  0  0  0 15  0  0  0  0  0  0
   41.5589    1.7754    5.5268 N   0  0  0  0  0 15  0  0  0  0  0  0
   44.3239    2.5737    1.5357 H   0  0  0  0  0 15  0  0  0  0  0  0
   41.8849    1.4592    0.7013 H   0  0  0  0  0 15  0  0  0  0  0  0
   43.8769    1.4212    3.7893 H   0  0  0  0  0 15  0  0  0  0  0  0
   42.4469    0.6511    3.0574 H   0  0  0  0  0 15  0  0  0  0  0  0
   41.6669    3.0677    2.4756 H   0  0  0  0  0 15  0  0  0  0  0  0
   42.9549    3.6493    3.5455 H   0  0  0  0  0 15  0  0  0  0  0  0
   42.3529    1.1672    5.5353 H   0  0  0  0  0 15  0  0  0  0  0  0
   40.9099    1.7186    6.2874 H   0  0  0  0  0 15  0  0  0  0  0  0
   44.3819   -0.6588    1.4745 O   0  0  0  0  0 15  0  0  0  0  0  0
   45.0729   -1.3121    1.4249 H   0  0  0  0  0 15  0  0  0  0  0  0
M  END
$$$$
