drugbank_target|P52895 Aldo-keto reductase family 1 member C2 (DB00157; DB01586; DB03461; DB06777; DB07768)
 OpenBabel12092119353D

  0  0  0     0  0            999 V3000
M  V30 BEGIN CTAB
M  V30 COUNTS 5188 5249 0 0 0
M  V30 BEGIN ATOM
M  V30 1 H -0.908 1.98254 -0.117106 0
M  V30 2 N 0 1.576 0 0
M  V30 3 C 0.933 2.03868 1.02534 0
M  V30 4 C 1.911 0.928543 1.3348 0
M  V30 5 O 3.095 1.19667 1.45644 0
M  V30 6 C 0.222 2.43627 2.35294 0
M  V30 7 C -0.732 3.65373 2.2001 0
M  V30 8 S 0.101 5.13292 1.52614 0
M  V30 9 C 1.257 5.56322 2.86805 0
M  V30 10 H 1.49 2.90518 0.631377 0
M  V30 11 H -0.977 1.52953 0.210867 0
M  V30 12 H 0.981 2.67203 3.11629 0
M  V30 13 H -0.358 1.57376 2.7183 0
M  V30 14 H -1.165 3.90944 3.18086 0
M  V30 15 H -1.563 3.418 1.51819 0
M  V30 16 H 0.729 5.58782 3.83104 0
M  V30 17 H 1.672 6.56266 2.65933 0
M  V30 18 H 2.08 4.83886 2.90714 0
M  V30 19 N 1.4781 -0.272755 1.55222 0
M  V30 20 C 2.7551 -1.02562 1.66555 0
M  V30 21 C 3.1351 -2.04282 0.532189 0
M  V30 22 O 2.4831 -2.23662 -0.467717 0
M  V30 23 C 2.6931 -1.6822 3.05782 0
M  V30 24 C 4.0411 -2.19373 3.63539 0
M  V30 25 O 5.0651 -1.78206 3.08417 0
M  V30 26 O 3.9241 -2.94883 4.60115 0
M  V30 27 H 1.0181 -0.475755 0.676451 0
M  V30 28 H 3.5641 -0.268593 1.67561 0
M  V30 29 H 2.3361 -0.945112 3.79715 0
M  V30 30 H 1.9591 -2.50609 3.08676 0
M  V30 31 N 2.9562 -1.48159 -0.537278 0
M  V30 32 C 4.1812 -1.59707 -1.32319 0
M  V30 33 C 4.6062 -0.254859 -1.86365 0
M  V30 34 O 3.9642 0.772378 -1.64024 0
M  V30 35 C 4.0122 -2.6412 -2.45505 0
M  V30 36 O 3.1162 -2.20774 -3.48328 0
M  V30 37 H 2.4572 -0.535791 -0.392204 0
M  V30 38 H 4.9872 -1.94092 -0.647268 0
M  V30 39 H 4.9972 -2.85166 -2.91795 0
M  V30 40 H 3.6722 -3.61567 -2.05528 0
M  V30 41 H 2.2492 -2.09911 -3.08207 0
M  V30 42 N 4.4343 0.785586 -1.36625 0
M  V30 43 C 5.3813 1.89838 -1.31264 0
M  V30 44 C 6.3513 1.65115 -0.180633 0
M  V30 45 O 7.5363 1.87222 -0.36777 0
M  V30 46 C 4.6763 3.26706 -1.11163 0
M  V30 47 C 3.7893 3.63476 -2.33472 0
M  V30 48 C 2.9243 4.89481 -2.06353 0
M  V30 49 C 1.9633 5.18941 -3.24602 0
M  V30 50 N 1.1003 6.36131 -2.97123 0
M  V30 51 H 5.9403 1.93756 -2.26413 0
M  V30 52 H 3.4773 0.947454 -1.12524 0
M  V30 53 H 5.4353 4.05639 -0.975337 0
M  V30 54 H 4.0653 3.222 -0.196674 0
M  V30 55 H 3.1173 2.79636 -2.57891 0
M  V30 56 H 4.4293 3.81193 -3.21704 0
M  V30 57 H 3.5833 5.76288 -1.89675 0
M  V30 58 H 2.3223 4.73841 -1.15437 0
M  V30 59 H 1.3273 4.30615 -3.41834 0
M  V30 60 H 2.5523 5.36498 -4.16349 0
M  V30 61 H 0.4983 6.21875 -2.08823 0
M  V30 62 H 0.4153 6.54198 -3.78894 0
M  V30 63 H 1.6833 7.2591 -2.84033 0
M  V30 64 N 5.9124 1.20967 1.01018 0
M  V30 65 C 7.1424 1.04803 1.78044 0
M  V30 66 C 7.5504 -0.405462 1.84804 0
M  V30 67 O 6.8934 -1.2932 1.30468 0
M  V30 68 C 6.9554 1.56377 3.23707 0
M  V30 69 C 6.6194 3.04767 3.40538 0
M  V30 70 C 7.6164 4.02366 3.29239 0
M  V30 71 C 5.3014 3.43862 3.66147 0
M  V30 72 C 7.2954 5.37049 3.43304 0
M  V30 73 C 4.9824 4.78699 3.79855 0
M  V30 74 C 5.9804 5.75101 3.68439 0
M  V30 75 O 5.6684 7.07493 3.81719 0
M  V30 76 H 5.4004 0.368778 0.56655 0
M  V30 77 H 7.9544 1.60642 1.27997 0
M  V30 78 H 6.1844 0.949297 3.74867 0
M  V30 79 H 7.8734 1.36136 3.8239 0
M  V30 80 H 8.6394 3.73506 3.09384 0
M  V30 81 H 4.5184 2.69364 3.74118 0
M  V30 82 H 8.0624 6.12277 3.34309 0
M  V30 83 H 3.9594 5.07247 3.99213 0
M  V30 84 H 4.7274 7.1483 3.98697 0
M  V30 85 N 7.3905 -1.2043 1.01659 0
M  V30 86 C 8.3225 -2.22626 0.544988 0
M  V30 87 C 9.3355 -1.58479 -0.372609 0
M  V30 88 O 10.5245 -1.77679 -0.170958 0
M  V30 89 C 7.6245 -3.38141 -0.22663 0
M  V30 90 C 6.7975 -4.31877 0.692876 0
M  V30 91 C 5.8565 -5.26191 -0.0311616 0
M  V30 92 O 4.8825 -5.6612 0.591343 0
M  V30 93 N 6.0845 -5.65618 -1.30601 0
M  V30 94 H 8.8495 -2.63716 1.42388 0
M  V30 95 H 6.4105 -1.34971 0.894116 0
M  V30 96 H 8.4025 -3.98239 -0.72024 0
M  V30 97 H 6.9725 -2.95943 -1.00681 0
M  V30 98 H 6.1925 -3.69746 1.36679 0
M  V30 99 H 7.4805 -4.91426 1.31824 0
M  V30 100 H 6.8785 -5.3519 -1.83269 0
M  V30 101 H 5.4355 -6.28025 -1.74435 0
M  V30 102 N 8.8686 -0.792821 -1.36206 0
M  V30 103 C 10.1086 -0.372238 -2.00982 0
M  V30 104 C 10.4726 1.03749 -1.61555 0
M  V30 105 O 11.6736 1.55934 -2.18948 0
M  V30 106 C 9.9446 -0.534566 -3.5338 0
M  V30 107 S 11.5036 -0.202365 -4.38333 0
M  V30 108 H 8.3216 -0.142044 -0.696667 0
M  V30 109 H 10.9236 -1.03206 -1.66039 0
M  V30 110 H 9.6276 -1.5608 -3.79562 0
M  V30 111 H 9.1586 0.141065 -3.93147 0
M  V30 112 H 11.1736 0.994869 -4.86124 0
M  V30 113 N 10.3467 1.47872 -0.545128 0
M  V30 114 C 11.5927 2.02793 -0.0166104 0
M  V30 115 C 11.9257 1.41987 1.32489 0
M  V30 116 O 11.2007 0.571045 1.85928 0
M  V30 117 C 11.4837 3.59989 0.0893294 0
M  V30 118 C 11.3367 4.3125 -1.27841 0
M  V30 119 C 12.6557 4.32606 0.808724 0
M  V30 120 H 9.7747 0.736962 -0.00751035 0
M  V30 121 H 12.4167 1.76433 -0.705085 0
M  V30 122 H 10.5667 3.82579 0.675681 0
M  V30 123 H 12.2387 4.20035 -1.90704 0
M  V30 124 H 10.4817 3.92076 -1.85632 0
M  V30 125 H 11.1527 5.39736 -1.15713 0
M  V30 126 H 13.6287 4.14936 0.310992 0
M  V30 127 H 12.5047 5.42251 0.851782 0
M  V30 128 H 12.7657 4.00963 1.86229 0
M  V30 129 N 11.8248 0.280983 1.55075 0
M  V30 130 C 12.7718 -0.603937 2.22758 0
M  V30 131 C 13.7418 -1.1452 1.20309 0
M  V30 132 O 14.9268 -1.19343 1.48869 0
M  V30 133 C 12.0668 -1.77947 2.95684 0
M  V30 134 C 11.1798 -1.2715 4.12864 0
M  V30 135 C 10.3148 -2.4093 4.7342 0
M  V30 136 C 9.3538 -1.87165 5.82783 0
M  V30 137 N 8.4908 -2.94441 6.37377 0
M  V30 138 H 13.3308 -0.020124 2.97993 0
M  V30 139 H 10.8678 0.00183425 1.471 0
M  V30 140 H 12.8258 -2.47055 3.36184 0
M  V30 141 H 11.4558 -2.33522 2.22861 0
M  V30 142 H 10.5078 -0.473331 3.77444 0
M  V30 143 H 11.8198 -0.837751 4.91715 0
M  V30 144 H 10.9738 -3.18021 5.1667 0
M  V30 145 H 9.7128 -2.87623 3.93859 0
M  V30 146 H 8.7178 -1.08556 5.38976 0
M  V30 147 H 9.9428 -1.41401 6.64216 0
M  V30 148 H 7.8888 -3.40505 5.60707 0
M  V30 149 H 7.8058 -2.55501 7.11516 0
M  V30 150 H 9.0738 -3.71489 6.85285 0
M  V30 151 N 13.3029 -1.57598 0.00835791 0
M  V30 152 C 14.2329 -2.1198 -0.979113 0
M  V30 153 C 15.2139 -1.03091 -1.35301 0
M  V30 154 O 16.3989 -1.30818 -1.43528 0
M  V30 155 C 13.5289 -2.62995 -2.26828 0
M  V30 156 C 12.4829 -3.76485 -2.03576 0
M  V30 157 C 11.8089 -4.13846 -3.38579 0
M  V30 158 C 13.1089 -5.0342 -1.39161 0
M  V30 159 H 14.8029 -2.94738 -0.526281 0
M  V30 160 H 12.3489 -1.41783 -0.251704 0
M  V30 161 H 14.3019 -2.99669 -2.96271 0
M  V30 162 H 13.0259 -1.7737 -2.7424 0
M  V30 163 H 11.6849 -3.40217 -1.36557 0
M  V30 164 H 11.3329 -3.25232 -3.83709 0
M  V30 165 H 11.0329 -4.90312 -3.23834 0
M  V30 166 H 12.5569 -4.53086 -4.09323 0
M  V30 167 H 13.9709 -5.37812 -1.98573 0
M  V30 168 H 12.3679 -5.84746 -1.34878 0
M  V30 169 H 13.4379 -4.83548 -0.361868 0
M  V30 170 N 14.781 0.264519 -1.55364 0
M  V30 171 C 15.729 1.34702 -1.89626 0
M  V30 172 C 16.723 1.50712 -0.773459 0
M  V30 173 O 17.929 1.52395 -0.957897 0
M  V30 174 H 14.304 0.450682 -0.601988 0
M  V30 175 H 16.275 1.0306 -2.80038 0
M  V30 176 C 15.024 2.6989 -2.19214 0
M  V30 177 H 14.347 2.58365 -3.05103 0
M  V30 178 H 15.787 3.44553 -2.47102 0
M  V30 179 C 14.246 3.21637 -1.00254 0
M  V30 180 O 14.776 4.00973 -0.241501 0
M  V30 181 N 12.982 2.7943 -0.797938 0
M  V30 182 H 12.529 2.15026 -1.4185 0
M  V30 183 H 12.487 3.144 -0.00363422 0
M  V30 184 N 16.2591 1.48442 0.529413 0
M  V30 185 C 17.5361 1.46978 1.29062 0
M  V30 186 C 17.9161 0.181769 2.10316 0
M  V30 187 O 17.2641 -0.836481 2.12639 0
M  V30 188 C 17.4741 2.7321 2.17157 0
M  V30 189 C 18.8221 3.21562 2.77278 0
M  V30 190 O 19.8461 2.74131 2.27444 0
M  V30 191 O 18.7051 4.04094 3.67927 0
M  V30 192 H 15.7991 0.587003 0.582543 0
M  V30 193 H 18.3451 1.60676 0.546021 0
M  V30 194 H 17.1171 3.58465 1.56903 0
M  V30 195 H 16.7401 2.62235 2.98862 0
M  V30 196 N 17.7372 -0.778329 1.37039 0
M  V30 197 C 18.9852 -1.53361 1.31623 0
M  V30 198 C 19.3062 -1.94739 -0.100831 0
M  V30 199 O 18.5762 -1.65797 -1.04347 0
M  V30 200 H 17.1562 -0.568794 0.484234 0
M  V30 201 H 19.8182 -0.926742 1.71457 0
M  V30 202 H 18.9142 -2.43606 1.95096 0
M  V30 203 N 19.2153 -1.21501 -1.00376 0
M  V30 204 C 20.1653 -0.942843 -2.07592 0
M  V30 205 C 21.1493 0.102384 -1.60574 0
M  V30 206 O 22.3413 -0.10671 -1.76678 0
M  V30 207 C 19.4703 -0.510729 -3.3948 0
M  V30 208 C 18.5563 -1.59009 -3.93163 0
M  V30 209 N 18.9473 -2.81544 -4.20198 0
M  V30 210 C 17.2453 -1.45925 -4.21452 0
M  V30 211 C 17.9463 -3.51261 -4.63671 0
M  V30 212 N 16.9223 -2.78703 -4.66718 0
M  V30 213 H 20.7243 -1.87378 -2.26421 0
M  V30 214 H 18.2383 -1.11093 -1.18458 0
M  V30 215 H 20.2353 -0.297101 -4.1584 0
M  V30 216 H 18.8953 0.413436 -3.22057 0
M  V30 217 H 19.9063 -3.18075 -4.08716 0
M  V30 218 H 16.5833 -0.600467 -4.13159 0
M  V30 219 H 17.9733 -4.56183 -4.93302 0
M  V30 220 N 20.6934 1.19889 -1.02296 0
M  V30 221 C 21.9404 1.8942 -0.715972 0
M  V30 222 C 22.2684 1.79251 0.754944 0
M  V30 223 O 21.5234 1.17526 1.56481 0
M  V30 224 C 21.8224 3.39883 -1.10518 0
M  V30 225 C 21.4884 3.70254 -2.57337 0
M  V30 226 C 20.1504 3.78254 -2.97452 0
M  V30 227 C 22.5024 3.84052 -3.52354 0
M  V30 228 C 19.8304 3.97514 -4.31509 0
M  V30 229 C 22.1824 4.04824 -4.86108 0
M  V30 230 C 20.8464 4.11054 -5.25919 0
M  V30 231 H 20.1164 0.693138 -0.261993 0
M  V30 232 H 22.7634 1.42012 -1.28472 0
M  V30 233 H 21.0684 3.8915 -0.454953 0
M  V30 234 H 22.7654 3.9199 -0.845261 0
M  V30 235 H 19.3554 3.64632 -2.25258 0
M  V30 236 H 23.5394 3.77221 -3.22518 0
M  V30 237 H 18.7954 4.00574 -4.61898 0
M  V30 238 H 22.9694 4.14442 -5.59653 0
M  V30 239 H 20.5964 4.2573 -6.29808 0
M  V30 240 N 22.1715 0.800033 1.35784 0
M  V30 241 C 23.1045 0.151499 2.27697 0
M  V30 242 C 24.0825 -0.678663 1.4776 0
M  V30 243 O 25.2665 -0.647358 1.77035 0
M  V30 244 C 22.3935 -0.790492 3.29346 0
M  V30 245 C 21.4395 -0.0407832 4.26481 0
M  V30 246 S 22.2725 1.29077 5.19711 0
M  V30 247 C 23.4285 0.353055 6.24903 0
M  V30 248 H 23.6615 0.930796 2.82353 0
M  V30 249 H 21.1945 0.594767 1.42485 0
M  V30 250 H 23.1525 -1.3285 3.88409 0
M  V30 251 H 21.8135 -1.54312 2.73581 0
M  V30 252 H 21.0065 -0.755971 4.98298 0
M  V30 253 H 20.6085 0.427063 3.71554 0
M  V30 254 H 22.9005 -0.464147 6.75908 0
M  V30 255 H 23.8435 1.04023 7.00418 0
M  V30 256 H 24.2515 -0.0483344 5.64479 0
M  V30 257 N 23.6496 -1.47581 0.552962 0
M  V30 258 C 25.0606 -1.86324 0.118463 0
M  V30 259 C 25.4116 -1.46006 -1.3106 0
M  V30 260 O 24.5366 -0.861182 -1.98526 0
M  V30 261 C 25.1316 -3.3816 0.20821 0
M  V30 262 C 23.6906 -3.7601 -0.171226 0
M  V30 263 C 22.8376 -2.71634 0.557686 0
M  V30 264 H 25.7886 -1.39159 0.762928 0
M  V30 265 H 25.8096 -3.76141 -0.574278 0
M  V30 266 H 25.3216 -3.67473 1.24841 0
M  V30 267 H 23.4226 -3.52313 -1.21269 0
M  V30 268 H 23.5356 -4.78745 0.184379 0
M  V30 269 H 21.8996 -2.547 0.00125792 0
M  V30 270 H 22.6826 -3.0379 1.59896 0
M  V30 271 N 25.1277 -0.289203 -1.54924 0
M  V30 272 C 26.3737 0.323998 -2.00195 0
M  V30 273 C 26.7067 1.54441 -1.17735 0
M  V30 274 O 25.9817 1.92875 -0.250878 0
M  V30 275 C 26.2647 0.692276 -3.53383 0
M  V30 276 C 26.1177 -0.536457 -4.46589 0
M  V30 277 C 27.4367 1.52335 -4.12895 0
M  V30 278 H 24.5557 0.116289 -0.727768 0
M  V30 279 H 27.1977 -0.398954 -1.85764 0
M  V30 280 H 25.3477 1.30822 -3.65811 0
M  V30 281 H 27.0197 -1.17499 -4.46085 0
M  V30 282 H 25.2627 -1.17192 -4.1767 0
M  V30 283 H 25.9337 -0.234806 -5.515 0
M  V30 284 H 28.4097 1.00302 -4.0383 0
M  V30 285 H 27.2857 1.74982 -5.20262 0
M  V30 286 H 27.5467 2.50886 -3.64018 0
M  V30 287 N 26.6058 1.57591 -0.0167156 0
M  V30 288 C 27.5358 2.12496 0.967858 0
M  V30 289 C 28.5168 1.03807 1.34752 0
M  V30 290 O 29.7018 1.31577 1.42833 0
M  V30 291 C 26.8318 2.64194 2.25431 0
M  V30 292 C 25.7858 3.77559 2.01576 0
M  V30 293 C 25.1118 4.15636 3.36379 0
M  V30 294 C 26.4118 5.04151 1.36489 0
M  V30 295 H 28.1058 2.95013 0.510643 0
M  V30 296 H 25.6518 1.41915 0.244181 0
M  V30 297 H 27.6048 3.01236 2.94678 0
M  V30 298 H 26.3288 1.78821 2.73296 0
M  V30 299 H 24.9878 3.40937 1.34751 0
M  V30 300 H 24.6358 3.27263 3.81979 0
M  V30 301 H 24.3358 4.92022 3.21229 0
M  V30 302 H 25.8598 4.5525 4.06915 0
M  V30 303 H 27.2738 5.38857 1.95718 0
M  V30 304 H 25.6708 5.85453 1.31776 0
M  V30 305 H 26.7408 4.83733 0.336219 0
M  V30 306 N 28.0839 -0.256276 1.55502 0
M  V30 307 C 29.3319 -0.983672 1.76545 0
M  V30 308 C 29.6529 -1.86206 0.578982 0
M  V30 309 O 28.9229 -1.91656 -0.405577 0
M  V30 310 H 27.5029 -0.366191 0.651086 0
M  V30 311 H 30.1649 -0.276479 1.92929 0
M  V30 312 H 29.2609 -1.61087 2.67315 0
M  V30 313 N 29.562 -1.4872 -0.521534 0
M  V30 314 C 30.809 -1.57168 -1.27689 0
M  V30 315 C 31.137 -0.249275 -1.92896 0
M  V30 316 O 30.392 0.761162 -1.80291 0
M  V30 317 C 30.691 -2.66497 -2.38148 0
M  V30 318 C 30.357 -4.08664 -1.90538 0
M  V30 319 C 29.019 -4.47357 -1.77271 0
M  V30 320 C 31.371 -4.97724 -1.54663 0
M  V30 321 C 28.699 -5.72905 -1.26478 0
M  V30 322 C 31.051 -6.2377 -1.05329 0
M  V30 323 C 29.715 -6.61311 -0.906861 0
M  V30 324 H 28.985 -0.575117 -0.467249 0
M  V30 325 H 31.632 -1.82472 -0.581051 0
M  V30 326 H 29.937 -2.35085 -3.13437 0
M  V30 327 H 31.634 -2.70246 -2.96257 0
M  V30 328 H 28.224 -3.78111 -2.01816 0
M  V30 329 H 32.408 -4.68501 -1.63768 0
M  V30 330 H 27.664 -6.00709 -1.13835 0
M  V30 331 H 31.838 -6.9217 -0.76644 0
M  V30 332 H 29.465 -7.5848 -0.511083 0
M  V30 333 N 31.0401 0.771051 -1.3745 0
M  V30 334 C 32.2881 1.52661 -1.32435 0
M  V30 335 C 32.6091 1.9479 0.0905024 0
M  V30 336 O 31.8791 1.66348 1.03466 0
M  V30 337 H 30.4591 0.566218 -0.487244 0
M  V30 338 H 33.1211 0.917636 -1.71946 0
M  V30 339 H 32.2171 2.42568 -1.96385 0
M  V30 340 N 32.5182 1.22032 0.997298 0
M  V30 341 C 33.7462 1.06841 1.7718 0
M  V30 342 C 34.1612 -0.381325 1.84909 0
M  V30 343 O 33.5182 -1.26437 1.31605 0
M  V30 344 C 33.5692 1.66814 3.20711 0
M  V30 345 O 33.2902 3.06116 3.13408 0
M  V30 346 C 34.7912 1.56838 4.14628 0
M  V30 347 H 32.0112 0.374782 0.556578 0
M  V30 348 H 34.5552 1.61532 1.2541 0
M  V30 349 H 32.7102 1.16196 3.69564 0
M  V30 350 H 33.1242 3.34926 4.0364 0
M  V30 351 H 34.5982 2.03532 5.13107 0
M  V30 352 H 35.0752 0.524155 4.36061 0
M  V30 353 H 35.6812 2.06741 3.7167 0
M  V30 354 N 33.9963 -1.19345 1.0293 0
M  V30 355 C 35.2263 -1.92717 0.744563 0
M  V30 356 C 35.6343 -1.75751 -0.700579 0
M  V30 357 O 34.9773 -1.07703 -1.48815 0
M  V30 358 C 35.0393 -3.44828 1.01657 0
M  V30 359 C 34.7033 -3.85564 2.45335 0
M  V30 360 C 35.7003 -3.90286 3.43472 0
M  V30 361 C 33.3853 -4.1719 2.79746 0
M  V30 362 C 35.3793 -4.26065 4.74075 0
M  V30 363 C 33.0663 -4.52642 4.10559 0
M  V30 364 C 34.0643 -4.57054 5.07534 0
M  V30 365 O 33.7523 -4.91685 6.36004 0
M  V30 366 H 33.4843 -0.618977 0.271742 0
M  V30 367 H 36.0383 -1.52415 1.37691 0
M  V30 368 H 34.2683 -3.85314 0.327084 0
M  V30 369 H 35.9573 -3.99437 0.721427 0
M  V30 370 H 36.7233 -3.66002 3.18225 0
M  V30 371 H 32.6023 -4.1294 2.04943 0
M  V30 372 H 36.1463 -4.29423 5.49765 0
M  V30 373 H 32.0433 -4.76383 4.35579 0
M  V30 374 H 32.8113 -5.09631 6.40483 0
M  V30 375 N 35.4744 -0.807222 -1.35358 0
M  V30 376 C 36.4374 -0.223665 -2.28106 0
M  V30 377 C 37.4374 0.589354 -1.4961 0
M  V30 378 O 38.6274 0.407745 -1.69361 0
M  V30 379 C 35.7594 0.688149 -3.33882 0
M  V30 380 H 36.9524 -1.04169 -2.81227 0
M  V30 381 H 34.5054 -0.577921 -1.45223 0
M  V30 382 H 35.2404 1.52984 -2.85948 0
M  V30 383 H 35.0254 0.10687 -3.91954 0
M  V30 384 H 36.5154 1.09075 -4.03104 0
M  V30 385 N 36.9525 1.47285 -0.560781 0
M  V30 386 C 38.3635 1.86258 -0.128343 0
M  V30 387 C 38.7145 1.46699 1.30284 0
M  V30 388 O 37.8395 0.871698 1.98067 0
M  V30 389 C 38.4345 3.38044 -0.22614 0
M  V30 390 C 36.9935 3.76096 0.151283 0
M  V30 391 C 36.1405 2.71335 -0.572084 0
M  V30 392 H 39.0915 1.38752 -0.770297 0
M  V30 393 H 39.1125 3.76441 0.554322 0
M  V30 394 H 38.6245 3.66806 -1.26788 0
M  V30 395 H 36.7255 3.52951 1.19399 0
M  V30 396 H 36.8385 4.78641 -0.209765 0
M  V30 397 H 35.2025 2.54696 -0.0147653 0
M  V30 398 H 35.9855 3.02938 -1.61504 0
M  V30 399 N 38.4306 0.297415 1.54768 0
M  V30 400 C 39.3936 -0.567375 2.22066 0
M  V30 401 C 40.3936 -1.06409 1.20556 0
M  V30 402 O 41.5836 -0.960691 1.45315 0
M  V30 403 C 38.7156 -1.78517 2.90421 0
M  V30 404 H 39.9086 0.0205534 2.99893 0
M  V30 405 H 37.4616 0.0482163 1.56226 0
M  V30 406 H 38.1966 -2.41303 2.16664 0
M  V30 407 H 37.9816 -1.43669 3.64831 0
M  V30 408 H 39.4716 -2.39964 3.41771 0
M  V30 409 N 39.9087 -1.5758 0.0250728 0
M  V30 410 C 40.8187 -2.1343 -0.973905 0
M  V30 411 C 41.8347 -1.08556 -1.35984 0
M  V30 412 O 43.0107 -1.40592 -1.44207 0
M  V30 413 C 40.0757 -2.64703 -2.23904 0
M  V30 414 C 39.1367 -3.84276 -1.91391 0
M  V30 415 C 38.3697 -4.33095 -3.11873 0
M  V30 416 O 38.5927 -3.81107 -4.24398 0
M  V30 417 O 37.5267 -5.24984 -2.94406 0
M  V30 418 H 41.3527 -2.99057 -0.529036 0
M  V30 419 H 38.9377 -1.48118 -0.195288 0
M  V30 420 H 40.8197 -2.97769 -2.98181 0
M  V30 421 H 39.4947 -1.82161 -2.6758 0
M  V30 422 H 38.4017 -3.56143 -1.14511 0
M  V30 423 H 39.7347 -4.67968 -1.52534 0
M  V30 424 N 41.3868 0.248026 -1.55636 0
M  V30 425 C 42.6328 0.97767 -1.77678 0
M  V30 426 C 42.9658 1.85016 -0.590135 0
M  V30 427 O 42.2408 1.90095 0.411611 0
M  V30 428 C 42.5238 1.83914 -3.09593 0
M  V30 429 C 42.3768 0.99491 -4.38659 0
M  V30 430 C 43.6958 2.82183 -3.37729 0
M  V30 431 H 40.8148 0.354005 -0.646413 0
M  V30 432 H 43.4568 0.248253 -1.88371 0
M  V30 433 H 41.6068 2.46104 -3.00608 0
M  V30 434 H 43.2788 0.391789 -4.59633 0
M  V30 435 H 41.5218 0.299231 -4.32767 0
M  V30 436 H 42.1928 1.63145 -5.2734 0
M  V30 437 H 44.6688 2.30129 -3.4667 0
M  V30 438 H 43.5448 3.39582 -4.31249 0
M  V30 439 H 43.8058 3.58588 -2.58586 0
M  V30 440 N 42.8649 1.48995 0.513639 0
M  V30 441 C 44.2759 1.5119 1.09537 0
M  V30 442 C 44.6269 0.290906 1.94031 0
M  V30 443 O 43.7519 -0.60049 2.07902 0
M  V30 444 C 44.3469 2.73964 1.99322 0
M  V30 445 C 42.9059 2.78978 2.52682 0
M  V30 446 C 42.0529 2.44934 1.30009 0
M  V30 447 H 45.0039 1.55875 0.298125 0
M  V30 448 H 45.0249 2.53409 2.83838 0
M  V30 449 H 44.5369 3.62813 1.37799 0
M  V30 450 H 42.6379 1.94378 3.1788 0
M  V30 451 H 42.7509 3.8083 2.90698 0
M  V30 452 H 41.1149 1.9644 1.62122 0
M  V30 453 H 41.8979 3.36043 0.702131 0
M  V30 454 N 44.343 -0.763751 1.37857 0
M  V30 455 C 45.29 -1.87726 1.34267 0
M  V30 456 C 46.26 -1.64807 0.206879 0
M  V30 457 O 47.445 -1.86613 0.397508 0
M  V30 458 C 44.585 -3.24896 1.16346 0
M  V30 459 C 43.698 -3.59716 2.39225 0
M  V30 460 C 42.833 -4.86137 2.14114 0
M  V30 461 C 41.872 -5.13711 3.32817 0
M  V30 462 N 41.009 -6.31323 3.07206 0
M  V30 463 H 45.849 -1.90129 2.29466 0
M  V30 464 H 43.386 -0.929433 1.14017 0
M  V30 465 H 45.344 -4.04036 1.03975 0
M  V30 466 H 43.974 -3.21847 0.247909 0
M  V30 467 H 43.026 -2.75498 2.62307 0
M  V30 468 H 44.338 -3.76027 3.27728 0
M  V30 469 H 43.492 -5.73198 1.9882 0
M  V30 470 H 42.231 -4.71945 1.22961 0
M  V30 471 H 41.236 -4.25123 3.48641 0
M  V30 472 H 42.461 -5.29807 4.24832 0
M  V30 473 H 40.407 -6.18474 2.1869 0
M  V30 474 H 40.324 -6.48087 3.89254 0
M  V30 475 H 41.592 -7.213 2.95546 0
M  V30 476 N 45.8211 -1.22559 -0.990812 0
M  V30 477 C 47.0461 -1.07862 -1.77145 0
M  V30 478 C 47.4711 0.366447 -1.84496 0
M  V30 479 O 46.8291 1.26478 -1.29896 0
M  V30 480 C 46.8771 -1.69686 -3.18181 0
M  V30 481 O 45.9811 -0.951946 -4.01263 0
M  V30 482 H 45.3221 -0.378712 -0.545411 0
M  V30 483 H 47.8521 -1.62399 -1.2445 0
M  V30 484 H 47.8621 -1.74496 -3.68802 0
M  V30 485 H 46.5371 -2.74841 -3.12146 0
M  V30 486 H 45.1141 -0.980011 -3.59792 0
M  V30 487 N 47.2992 1.18797 -1.03562 0
M  V30 488 C 48.2462 2.22253 -0.622259 0
M  V30 489 C 49.2162 1.61987 0.36736 0
M  V30 490 O 50.4012 1.88986 0.262492 0
M  V30 491 C 47.5412 3.45097 0.0138462 0
M  V30 492 C 46.6542 4.19722 -1.02263 0
M  V30 493 C 45.7892 5.30009 -0.355573 0
M  V30 494 C 44.8282 5.96399 -1.37749 0
M  V30 495 N 43.9652 6.98234 -0.735766 0
M  V30 496 H 48.8052 2.56968 -1.50903 0
M  V30 497 H 46.3422 1.26245 -0.755017 0
M  V30 498 H 48.3002 4.15279 0.399948 0
M  V30 499 H 46.9302 3.11018 0.864158 0
M  V30 500 H 45.9822 3.48418 -1.52673 0
M  V30 501 H 47.2942 4.65227 -1.79903 0
M  V30 502 H 46.4482 6.0664 0.0850095 0
M  V30 503 H 45.1872 4.85592 0.452967 0
M  V30 504 H 44.1922 5.18512 -1.82826 0
M  V30 505 H 45.4172 6.42899 -2.18764 0
M  V30 506 H 43.3632 6.55979 0.0525597 0
M  V30 507 H 43.2802 7.41965 -1.44995 0
M  V30 508 H 44.5482 7.78845 -0.31941 0
M  V30 509 N 48.7773 0.814389 1.34928 0
M  V30 510 C 49.7403 0.235759 2.27984 0
M  V30 511 C 50.7403 -0.581412 1.49921 0
M  V30 512 O 51.9303 -0.398758 1.69575 0
M  V30 513 C 49.0623 -0.670433 3.34242 0
M  V30 514 H 50.2553 1.05659 2.80671 0
M  V30 515 H 47.8083 0.585614 1.44915 0
M  V30 516 H 48.5433 -1.51466 2.86755 0
M  V30 517 H 48.3283 -0.0860822 3.92005 0
M  V30 518 H 49.8183 -1.06935 4.03676 0
M  V30 519 N 50.2554 -1.46986 0.568584 0
M  V30 520 C 51.1854 -2.32946 -0.160753 0
M  V30 521 C 52.1664 -1.44487 -0.897631 0
M  V30 522 O 53.3514 -1.73327 -0.875867 0
M  V30 523 C 50.4814 -3.26494 -1.18403 0
M  V30 524 C 49.4354 -4.24282 -0.562895 0
M  V30 525 C 48.7614 -5.07236 -1.69163 0
M  V30 526 C 50.0614 -5.19989 0.490761 0
M  V30 527 H 51.7554 -2.94175 0.556916 0
M  V30 528 H 49.3014 -1.4146 0.26927 0
M  V30 529 H 51.2544 -3.85477 -1.70251 0
M  V30 530 H 49.9784 -2.63343 -1.93179 0
M  V30 531 H 48.6374 -3.66541 -0.0656164 0
M  V30 532 H 48.2854 -4.4048 -2.42871 0
M  V30 533 H 47.9854 -5.7345 -1.28174 0
M  V30 534 H 49.5094 -5.6908 -2.21314 0
M  V30 535 H 50.9234 -5.73271 0.0579047 0
M  V30 536 H 49.3204 -5.94469 0.820165 0
M  V30 537 H 50.3904 -4.64777 1.3824 0
M  V30 538 N 51.7335 -0.305618 -1.54608 0
M  V30 539 C 52.6435 0.57778 -2.27374 0
M  V30 540 C 53.6595 1.14451 -1.31061 0
M  V30 541 O 54.8355 1.16831 -1.6405 0
M  V30 542 C 51.9005 1.73123 -3.00382 0
M  V30 543 C 50.9615 1.19812 -4.12242 0
M  V30 544 C 50.1945 2.2966 -4.81759 0
M  V30 545 O 50.4175 3.49651 -4.50666 0
M  V30 546 O 49.3515 1.96091 -5.69062 0
M  V30 547 H 53.1775 -0.012624 -3.03697 0
M  V30 548 H 50.7625 -0.0719184 -1.49227 0
M  V30 549 H 52.6445 2.40315 -3.4616 0
M  V30 550 H 51.3195 2.30815 -2.26949 0
M  V30 551 H 50.2265 0.491798 -3.70853 0
M  V30 552 H 51.5595 0.666566 -4.87666 0
M  V30 553 N 53.2116 1.57565 -0.0334293 0
M  V30 554 C 54.1746 2.09393 0.932048 0
M  V30 555 C 55.1746 1.00986 1.25134 0
M  V30 556 O 56.3646 1.27129 1.19096 0
M  V30 557 C 53.4966 2.56338 2.2473 0
M  V30 558 H 54.6896 2.95984 0.483085 0
M  V30 559 H 52.2426 1.54819 0.21468 0
M  V30 560 H 52.9776 1.7309 2.74245 0
M  V30 561 H 52.7626 3.35542 2.02865 0
M  V30 562 H 54.2526 2.96646 2.93923 0
M  V30 563 N 54.6897 -0.239769 1.55765 0
M  V30 564 C 55.9357 -0.968234 1.78194 0
M  V30 565 C 56.2687 -1.84701 0.599938 0
M  V30 566 O 55.5437 -1.9031 -0.401524 0
M  V30 567 C 55.8267 -1.8227 3.10564 0
M  V30 568 C 55.6797 -0.971633 4.3918 0
M  V30 569 C 56.9987 -2.80388 3.39221 0
M  V30 570 H 54.1177 -0.350572 0.648281 0
M  V30 571 H 56.7597 -0.238259 1.885 0
M  V30 572 H 54.9097 -2.44507 3.01908 0
M  V30 573 H 56.5817 -0.367408 4.59835 0
M  V30 574 H 54.8247 -0.276276 4.32919 0
M  V30 575 H 55.4957 -1.60346 5.28198 0
M  V30 576 H 57.9717 -2.28287 3.47885 0
M  V30 577 H 56.8477 -3.3729 4.33044 0
M  V30 578 H 57.1087 -3.57212 2.60484 0
M  V30 579 N 56.1678 -1.49265 -0.50573 0
M  V30 580 C 57.1148 -1.65585 -1.6078 0
M  V30 581 C 58.0848 -0.497396 -1.58478 0
M  V30 582 O 59.2698 -0.72385 -1.76536 0
M  V30 583 C 56.4098 -1.72408 -2.98948 0
M  V30 584 C 55.5228 -2.99525 -3.11301 0
M  V30 585 C 54.6578 -2.97356 -4.40174 0
M  V30 586 C 53.6968 -4.19074 -4.46143 0
M  V30 587 N 52.8338 -4.14841 -5.66437 0
M  V30 588 H 57.6738 -2.59688 -1.46172 0
M  V30 589 H 55.2108 -1.28761 -0.711261 0
M  V30 590 H 57.1688 -1.74344 -3.79025 0
M  V30 591 H 55.7988 -0.817753 -3.1227 0
M  V30 592 H 54.8508 -3.07222 -2.24318 0
M  V30 593 H 56.1628 -3.89518 -3.11572 0
M  V30 594 H 55.3168 -2.97829 -5.28567 0
M  V30 595 H 54.0558 -2.05133 -4.42461 0
M  V30 596 H 53.0608 -4.1885 -3.56153 0
M  V30 597 H 54.2858 -5.12483 -4.45575 0
M  V30 598 H 52.2318 -3.25453 -5.69575 0
M  V30 599 H 52.1488 -4.98564 -5.68304 0
M  V30 600 H 53.4168 -4.1941 -6.57051 0
M  V30 601 N 57.6459 0.756429 -1.3826 0
M  V30 602 C 58.5759 1.88374 -1.37976 0
M  V30 603 C 59.5569 1.68311 -0.246082 0
M  V30 604 O 60.7419 1.88944 -0.44874 0
M  V30 605 C 57.8719 3.25864 -1.20125 0
M  V30 606 C 56.8259 3.60523 -2.30666 0
M  V30 607 C 56.1519 4.9672 -1.97923 0
M  V30 608 C 57.4519 3.65692 -3.72916 0
M  V30 609 H 59.1459 1.88869 -2.32312 0
M  V30 610 H 56.6919 0.907272 -1.11824 0
M  V30 611 H 58.6449 4.0438 -1.18552 0
M  V30 612 H 57.3689 3.25841 -0.222498 0
M  V30 613 H 56.0279 2.84324 -2.3142 0
M  V30 614 H 55.6759 4.93253 -0.985393 0
M  V30 615 H 55.3759 5.20878 -2.71955 0
M  V30 616 H 56.8999 5.77618 -1.97964 0
M  V30 617 H 58.3139 4.34328 -3.74208 0
M  V30 618 H 56.7109 4.01358 -4.4613 0
M  V30 619 H 57.7809 2.65987 -4.05436 0
M  V30 620 N 59.124 1.23083 0.984299 0
M  V30 621 C 60.087 1.00979 2.05757 0
M  V30 622 C 61.087 -0.0269573 1.60777 0
M  V30 623 O 62.277 0.212403 1.729 0
M  V30 624 C 59.409 0.527072 3.36801 0
M  V30 625 H 60.602 1.9622 2.26799 0
M  V30 626 H 58.155 1.05072 1.15714 0
M  V30 627 H 58.89 -0.429294 3.21446 0
M  V30 628 H 58.675 1.27515 3.70786 0
M  V30 629 H 60.165 0.392942 4.15747 0
M  V30 630 N 60.6021 -1.18246 1.0419 0
M  V30 631 C 61.8511 -1.87588 0.741194 0
M  V30 632 C 62.1641 -1.81303 -0.734066 0
M  V30 633 O 63.3701 -2.46019 -1.14834 0
M  V30 634 C 61.8261 -3.36538 1.27555 0
M  V30 635 C 61.4341 -3.51349 2.77953 0
M  V30 636 C 63.1781 -4.11273 1.05143 0
M  V30 637 C 61.0851 -4.94265 3.2474 0
M  V30 638 H 60.0151 -0.702622 0.273565 0
M  V30 639 H 62.6661 -1.33601 1.25789 0
M  V30 640 H 61.0481 -3.9 0.686703 0
M  V30 641 H 62.2221 -3.08153 3.42605 0
M  V30 642 H 60.5371 -2.90022 2.98791 0
M  V30 643 H 63.1341 -5.16689 1.37611 0
M  V30 644 H 63.4771 -4.16298 -0.0112774 0
M  V30 645 H 64.0101 -3.63987 1.60495 0
M  V30 646 H 60.7491 -4.94408 4.30396 0
M  V30 647 H 60.2691 -5.38172 2.64823 0
M  V30 648 H 61.9481 -5.62987 3.18834 0
M  V30 649 N 62.0802 -0.821533 -1.34494 0
M  V30 650 C 62.9902 -0.244355 -2.33324 0
M  V30 651 C 64.0062 0.620527 -1.62559 0
M  V30 652 O 65.1822 0.528754 -1.94335 0
M  V30 653 C 62.2472 0.585368 -3.41723 0
M  V30 654 C 61.3082 -0.301752 -4.28238 0
M  V30 655 C 60.5412 0.488466 -5.3146 0
M  V30 656 O 60.7642 1.72186 -5.4379 0
M  V30 657 O 59.6982 -0.12848 -6.01763 0
M  V30 658 H 63.5242 -1.06231 -2.84515 0
M  V30 659 H 61.1092 -0.583645 -1.37528 0
M  V30 660 H 62.9912 1.05747 -4.07916 0
M  V30 661 H 61.6662 1.38068 -2.92778 0
M  V30 662 H 60.5732 -0.821315 -3.64973 0
M  V30 663 H 61.9062 -1.06138 -4.8062 0
M  V30 664 N 63.5583 1.46682 -0.576371 0
M  V30 665 C 64.5213 2.28707 0.150239 0
M  V30 666 C 65.5213 1.38035 0.824794 0
M  V30 667 O 66.7113 1.60476 0.677719 0
M  V30 668 C 63.8433 3.18248 1.22192 0
M  V30 669 H 65.0363 2.94423 -0.570521 0
M  V30 670 H 62.5893 1.52688 -0.334078 0
M  V30 671 H 63.3243 2.57265 1.97447 0
M  V30 672 H 63.1093 3.85 0.742812 0
M  V30 673 H 64.5993 3.80001 1.73172 0
M  V30 674 N 65.0364 0.313813 1.54444 0
M  V30 675 C 66.2844 -0.291099 1.99993 0
M  V30 676 C 66.6054 -1.53418 1.20366 0
M  V30 677 O 65.8754 -1.93544 0.302927 0
M  V30 678 H 64.4554 -0.110552 0.738774 0
M  V30 679 H 67.1174 0.428106 1.9014 0
M  V30 680 H 66.2134 -0.554268 3.07139 0
M  V30 681 N 66.5145 -1.57545 0.0417849 0
M  V30 682 C 67.7615 -1.92317 -0.634082 0
M  V30 683 C 68.0895 -0.919334 -1.71402 0
M  V30 684 O 67.3445 0.0698253 -1.95575 0
M  V30 685 C 67.6435 -3.33794 -1.27735 0
M  V30 686 C 67.3095 -4.49716 -0.326543 0
M  V30 687 C 65.9715 -4.81156 -0.0648814 0
M  V30 688 C 68.3235 -5.20182 0.325623 0
M  V30 689 C 65.6515 -5.80414 0.856539 0
M  V30 690 C 68.0035 -6.20424 1.23518 0
M  V30 691 C 66.6675 -6.50298 1.5056 0
M  V30 692 H 65.9375 -0.703736 -0.232027 0
M  V30 693 H 68.5845 -1.91205 0.106259 0
M  V30 694 H 66.8895 -3.31228 -2.09274 0
M  V30 695 H 68.5865 -3.57975 -1.80707 0
M  V30 696 H 65.1765 -4.25176 -0.540665 0
M  V30 697 H 69.3605 -4.96112 0.136546 0
M  V30 698 H 64.6165 -6.019 1.07363 0
M  V30 699 H 68.7905 -6.74141 1.74664 0
M  V30 700 H 66.4175 -7.27025 2.22123 0
M  V30 701 N 67.9926 0.231505 -1.5589 0
M  V30 702 C 68.9426 1.29007 -1.87993 0
M  V30 703 C 69.9266 1.42764 -0.742102 0
M  V30 704 O 71.1186 1.45747 -1.00433 0
M  V30 705 C 68.2476 2.6425 -2.1915 0
M  V30 706 C 67.3336 2.54435 -3.39299 0
M  V30 707 N 67.7246 2.14262 -4.58176 0
M  V30 708 C 66.0226 2.85416 -3.42715 0
M  V30 709 C 66.7236 2.15455 -5.40328 0
M  V30 710 N 65.6996 2.55558 -4.79783 0
M  V30 711 H 69.5016 0.970213 -2.77424 0
M  V30 712 H 67.0156 0.440097 -1.56323 0
M  V30 713 H 69.0126 3.40665 -2.40319 0
M  V30 714 H 67.6726 2.9709 -1.31025 0
M  V30 715 H 68.6836 1.85554 -4.83518 0
M  V30 716 H 65.3606 3.22693 -2.64906 0
M  V30 717 H 66.7506 1.86605 -6.45467 0
M  V30 718 N 69.4707 1.49531 0.497807 0
M  V30 719 C 70.4207 1.62829 1.59596 0
M  V30 720 C 71.4047 0.483824 1.53453 0
M  V30 721 O 72.5967 0.736937 1.60929 0
M  V30 722 C 69.7257 1.7011 2.98191 0
M  V30 723 C 68.8117 2.90144 3.09317 0
M  V30 724 N 69.2027 4.1418 2.90324 0
M  V30 725 C 67.5007 2.88148 3.40422 0
M  V30 726 C 68.2017 4.94886 3.05717 0
M  V30 727 N 67.1777 4.28314 3.34736 0
M  V30 728 H 70.9797 2.56446 1.4357 0
M  V30 729 H 68.4937 1.46347 0.704001 0
M  V30 730 H 70.4907 1.77735 3.77115 0
M  V30 731 H 69.1507 0.776315 3.15283 0
M  V30 732 H 70.1617 4.44109 2.66436 0
M  V30 733 H 66.8387 2.05061 3.63671 0
M  V30 734 H 68.2287 6.03432 2.95499 0
M  V30 735 N 70.9488 -0.749086 1.3866 0
M  V30 736 C 72.1978 -1.50371 1.3443 0
M  V30 737 C 72.5108 -1.95503 -0.0616397 0
M  V30 738 O 73.7168 -2.70554 -0.226489 0
M  V30 739 C 72.1728 -2.71644 2.36088 0
M  V30 740 C 71.7808 -2.3352 3.82325 0
M  V30 741 C 73.5248 -3.49518 2.40909 0
M  V30 742 C 71.4318 -3.51431 4.75658 0
M  V30 743 H 70.3618 -0.564628 0.499712 0
M  V30 744 H 73.0128 -0.818449 1.64237 0
M  V30 745 H 71.3948 -3.42175 1.9933 0
M  V30 746 H 72.5688 -1.70627 4.28046 0
M  V30 747 H 70.8838 -1.6877 3.80665 0
M  V30 748 H 73.4808 -4.37197 3.07836 0
M  V30 749 H 73.8238 -3.90992 1.42937 0
M  V30 750 H 74.3568 -2.86005 2.76489 0
M  V30 751 H 71.0958 -3.15019 5.74842 0
M  V30 752 H 70.6158 -4.13352 4.34627 0
M  V30 753 H 72.2948 -4.17953 4.93887 0
M  V30 754 N 72.4269 -1.23603 -0.977757 0
M  V30 755 C 73.7039 -0.977897 -1.69401 0
M  V30 756 C 74.0839 0.502738 -2.05026 0
M  V30 757 O 73.4319 1.47459 -1.74551 0
M  V30 758 C 73.6419 -1.89077 -2.93345 0
M  V30 759 C 74.9899 -2.15579 -3.65802 0
M  V30 760 O 76.0139 -1.86648 -3.03383 0
M  V30 761 O 74.8729 -2.64658 -4.78141 0
M  V30 762 H 71.9669 -0.369025 -0.740101 0
M  V30 763 H 74.5129 -1.34657 -1.03274 0
M  V30 764 H 73.2849 -2.89158 -2.63634 0
M  V30 765 H 72.9079 -1.52463 -3.67207 0
M  V30 766 N 73.905 1.17692 -1.04816 0
M  V30 767 C 75.13 1.92327 -0.776207 0
M  V30 768 C 75.555 1.76082 0.661581 0
M  V30 769 O 74.913 1.076 1.45917 0
M  V30 770 C 74.961 3.41539 -1.15687 0
M  V30 771 O 74.065 4.11402 -0.286775 0
M  V30 772 H 73.406 0.599735 -0.284981 0
M  V30 773 H 75.936 1.49201 -1.4 0
M  V30 774 H 75.946 3.92269 -1.12202 0
M  V30 775 H 74.621 3.52684 -2.20425 0
M  V30 776 H 73.198 3.70939 -0.381903 0
M  V30 777 N 75.3831 0.828654 1.34056 0
M  V30 778 C 76.3461 0.259927 2.27721 0
M  V30 779 C 77.3461 -0.565478 1.50529 0
M  V30 780 O 78.5361 -0.38075 1.69988 0
M  V30 781 C 75.6681 -0.634944 3.34935 0
M  V30 782 H 76.8611 1.0863 2.79534 0
M  V30 783 H 74.4141 0.600951 1.44285 0
M  V30 784 H 75.1491 -1.48416 2.88346 0
M  V30 785 H 74.9341 -0.0444999 3.92075 0
M  V30 786 H 76.4241 -1.02648 4.04788 0
M  V30 787 N 76.8612 -1.46375 0.584142 0
M  V30 788 C 77.8112 -2.27371 -0.169232 0
M  V30 789 C 78.7952 -1.35955 -0.860523 0
M  V30 790 O 79.9872 -1.60119 -0.754382 0
M  V30 791 C 77.1162 -3.22334 -1.18134 0
M  V30 792 C 76.2022 -4.21235 -0.492088 0
M  V30 793 N 76.5932 -5.03766 0.453129 0
M  V30 794 C 74.8912 -4.39773 -0.742652 0
M  V30 795 C 75.5922 -5.75366 0.85609 0
M  V30 796 N 74.5682 -5.43214 0.204926 0
M  V30 797 H 78.3702 -2.88572 0.557097 0
M  V30 798 H 75.8842 -1.57242 0.406042 0
M  V30 799 H 77.8812 -3.79071 -1.73525 0
M  V30 800 H 76.5412 -2.62693 -1.90847 0
M  V30 801 H 77.5522 -5.11227 0.828723 0
M  V30 802 H 74.2292 -3.91279 -1.45625 0
M  V30 803 H 75.6192 -6.5172 1.63434 0
M  V30 804 N 78.3393 -0.321999 -1.54275 0
M  V30 805 C 79.5853 0.281461 -2.00837 0
M  V30 806 C 79.9183 1.51909 -1.20985 0
M  V30 807 O 79.1933 1.923 -0.291733 0
M  V30 808 C 79.4763 0.617162 -3.54772 0
M  V30 809 C 79.3293 -0.631064 -4.45351 0
M  V30 810 C 80.6483 1.43542 -4.16033 0
M  V30 811 H 77.7673 0.100826 -0.730071 0
M  V30 812 H 80.4093 -0.438268 -1.84876 0
M  V30 813 H 78.5593 1.23034 -3.68504 0
M  V30 814 H 80.2313 -1.26934 -4.43492 0
M  V30 815 H 78.4743 -1.26025 -4.15091 0
M  V30 816 H 79.1453 -0.351735 -5.50878 0
M  V30 817 H 81.6213 0.917134 -4.05867 0
M  V30 818 H 80.4973 1.63907 -5.23856 0
M  V30 819 H 80.7583 2.43108 -3.69257 0
M  V30 820 N 79.8174 1.5752 -0.0501392 0
M  V30 821 C 81.0474 1.96678 0.632573 0
M  V30 822 C 81.4554 0.926298 1.64974 0
M  V30 823 O 80.7984 -0.09802 1.83438 0
M  V30 824 C 80.8604 3.32068 1.37735 0
M  V30 825 C 80.5244 4.54076 0.516131 0
M  V30 826 C 81.5214 5.19445 -0.217357 0
M  V30 827 C 79.2064 5.00304 0.44736 0
M  V30 828 C 81.2004 6.29378 -1.00807 0
M  V30 829 C 78.8874 6.10114 -0.347038 0
M  V30 830 C 79.8854 6.74512 -1.07344 0
M  V30 831 O 79.5734 7.82211 -1.85477 0
M  V30 832 H 79.3054 0.652193 0.177821 0
M  V30 833 H 81.8594 2.05091 -0.112543 0
M  V30 834 H 80.0894 3.20206 2.16807 0
M  V30 835 H 81.7784 3.55981 1.95019 0
M  V30 836 H 82.5444 4.84689 -0.173688 0
M  V30 837 H 78.4234 4.49971 1.00235 0
M  V30 838 H 81.9674 6.79575 -1.57556 0
M  V30 839 H 77.8644 6.44307 -0.392349 0
M  V30 840 H 78.6324 7.98982 -1.77678 0
M  V30 841 N 81.2955 -0.223234 1.56011 0
M  V30 842 C 82.2435 -1.29627 1.93131 0
M  V30 843 C 83.2375 -1.48608 0.813146 0
M  V30 844 O 84.4435 -1.49802 0.997966 0
M  V30 845 H 80.8185 -0.434563 0.613726 0
M  V30 846 H 82.7895 -0.955995 2.82672 0
M  V30 847 C 81.5385 -2.63983 2.26292 0
M  V30 848 H 80.8615 -2.50185 3.11846 0
M  V30 849 H 82.3015 -3.3788 2.56151 0
M  V30 850 C 80.7605 -3.18866 1.08747 0
M  V30 851 O 81.2905 -4.00192 0.347727 0
M  V30 852 N 79.4965 -2.77217 0.871743 0
M  V30 853 H 79.0435 -2.1119 1.47501 0
M  V30 854 H 79.0015 -3.1428 0.0869905 0
M  V30 855 N 82.7736 -1.49793 -0.48987 0
M  V30 856 C 83.7216 -1.67783 -1.61095 0
M  V30 857 C 84.7156 -0.543683 -1.60438 0
M  V30 858 O 85.9216 -0.723647 -1.64813 0
M  V30 859 H 82.2966 -0.529255 -0.534222 0
M  V30 860 H 84.2676 -2.61861 -1.43078 0
M  V30 861 C 83.0166 -1.77191 -2.99164 0
M  V30 862 H 82.3396 -2.63841 -3.0038 0
M  V30 863 H 83.7796 -1.93809 -3.77113 0
M  V30 864 C 82.2386 -0.519203 -3.32875 0
M  V30 865 O 82.7686 0.350124 -4.00171 0
M  V30 866 N 80.9746 -0.378816 -2.8812 0
M  V30 867 H 80.5216 -1.08725 -2.33531 0
M  V30 868 H 80.4796 0.458239 -3.11043 0
M  V30 869 N 84.2517 0.741722 -1.39055 0
M  V30 870 C 85.1617 1.88621 -1.39496 0
M  V30 871 C 86.1777 1.71557 -0.290578 0
M  V30 872 O 87.3537 1.94275 -0.530954 0
M  V30 873 C 84.4187 3.24134 -1.23037 0
M  V30 874 C 83.4797 3.5364 -2.43387 0
M  V30 875 C 82.7127 4.82687 -2.27703 0
M  V30 876 O 82.9357 5.55922 -1.27696 0
M  V30 877 O 81.8697 5.1194 -3.16545 0
M  V30 878 H 85.6957 1.91203 -2.35956 0
M  V30 879 H 83.2807 0.888625 -1.20099 0
M  V30 880 H 85.1627 4.0513 -1.15964 0
M  V30 881 H 83.8377 3.22337 -0.296691 0
M  V30 882 H 82.7447 2.72758 -2.56035 0
M  V30 883 H 84.0777 3.60209 -3.35425 0
M  V30 884 N 85.7298 1.2412 0.971189 0
M  V30 885 C 86.6398 1.04747 2.09917 0
M  V30 886 C 87.6558 -0.0107162 1.73997 0
M  V30 887 O 88.8318 0.186714 2.00533 0
M  V30 888 C 85.8968 0.650828 3.40537 0
M  V30 889 C 84.9578 1.7851 3.90426 0
M  V30 890 C 84.1908 1.40729 5.14812 0
M  V30 891 O 84.4138 0.29557 5.69634 0
M  V30 892 O 83.3478 2.23168 5.58999 0
M  V30 893 H 87.1738 1.99304 2.29154 0
M  V30 894 H 84.7588 1.02908 1.08307 0
M  V30 895 H 86.6408 0.440992 4.19086 0
M  V30 896 H 85.3158 -0.265649 3.22608 0
M  V30 897 H 84.2228 2.04966 3.12953 0
M  V30 898 H 85.5558 2.68023 4.12825 0
M  V30 899 N 87.2079 -1.17134 1.05439 0
M  V30 900 C 88.1399 -2.2078 0.615539 0
M  V30 901 C 89.1529 -1.59584 -0.322001 0
M  V30 902 O 90.3419 -1.78133 -0.114344 0
M  V30 903 C 87.4419 -3.38691 -0.118938 0
M  V30 904 C 86.6149 -4.29454 0.829924 0
M  V30 905 C 85.6739 -5.26024 0.136258 0
M  V30 906 O 84.6999 -5.63952 0.77115 0
M  V30 907 N 85.9019 -5.69487 -1.1254 0
M  V30 908 H 88.6669 -2.59052 1.50705 0
M  V30 909 H 86.2279 -1.32058 0.936603 0
M  V30 910 H 88.2199 -4.00329 -0.593179 0
M  V30 911 H 86.7899 -2.98996 -0.91215 0
M  V30 912 H 86.0099 -3.65211 1.48373 0
M  V30 913 H 87.2979 -4.86984 1.47392 0
M  V30 914 H 86.6959 -5.4075 -1.6615 0
M  V30 915 H 85.2529 -6.33257 -1.54366 0
M  V30 916 N 88.686 -0.835752 -1.33615 0
M  V30 917 C 89.932 -0.430596 -1.98176 0
M  V30 918 C 90.265 1.00684 -1.66061 0
M  V30 919 O 89.54 1.70339 -0.938877 0
M  V30 920 C 89.823 -0.648065 -3.5422 0
M  V30 921 C 89.676 -2.13255 -3.96033 0
M  V30 922 C 90.995 -0.0922113 -4.40003 0
M  V30 923 H 88.114 -0.157924 -0.719881 0
M  V30 924 H 90.756 -1.05069 -1.58305 0
M  V30 925 H 88.906 -0.120237 -3.88314 0
M  V30 926 H 90.578 -2.725 -3.72211 0
M  V30 927 H 88.821 -2.61823 -3.45878 0
M  V30 928 H 89.492 -2.23547 -5.04708 0
M  V30 929 H 91.968 -0.543343 -4.12537 0
M  V30 930 H 90.844 -0.274083 -5.48215 0
M  V30 931 H 91.105 1.00378 -4.30554 0
M  V30 932 N 90.1641 1.46063 -0.591896 0
M  V30 933 C 91.4121 2.01938 -0.0808391 0
M  V30 934 C 91.7331 1.46475 1.28725 0
M  V30 935 O 91.0031 0.652944 1.84698 0
M  V30 936 H 89.5831 0.746516 -0.0268938 0
M  V30 937 H 92.2451 1.79055 -0.769752 0
M  V30 938 H 91.3411 3.12094 -0.0187578 0
M  V30 939 N 91.6422 0.330177 1.54103 0
M  V30 940 C 92.5722 -0.525353 2.27513 0
M  V30 941 C 93.5532 -1.11383 1.2856 0
M  V30 942 O 94.7382 -1.13773 1.57383 0
M  V30 943 C 91.8682 -1.6831 3.03791 0
M  V30 944 C 90.8222 -1.2236 4.10137 0
M  V30 945 C 90.1482 -2.46882 4.74293 0
M  V30 946 C 91.4482 -0.333697 5.21233 0
M  V30 947 H 93.1422 0.087013 2.99274 0
M  V30 948 H 90.6882 0.0432893 1.43935 0
M  V30 949 H 92.6412 -2.28795 3.5388 0
M  V30 950 H 91.3652 -2.32216 2.29659 0
M  V30 951 H 90.0242 -0.64165 3.60941 0
M  V30 952 H 89.6722 -3.09165 3.96769 0
M  V30 953 H 89.3722 -2.16825 5.46133 0
M  V30 954 H 90.8962 -3.08117 5.27159 0
M  V30 955 H 92.3102 -0.845013 5.67038 0
M  V30 956 H 90.7072 -0.125612 5.99969 0
M  V30 957 H 91.7772 0.633724 4.80741 0
M  V30 958 N 93.1203 -1.57491 0.0584922 0
M  V30 959 C 94.0833 -2.1085 -0.898617 0
M  V30 960 C 95.0833 -1.02964 -1.23511 0
M  V30 961 O 96.2733 -1.29007 -1.17059 0
M  V30 962 C 93.4053 -2.59881 -2.20623 0
M  V30 963 H 94.5983 -2.96715 -0.435936 0
M  V30 964 H 92.1513 -1.55141 -0.190023 0
M  V30 965 H 92.8863 -1.77431 -2.71457 0
M  V30 966 H 92.6713 -3.38727 -1.97501 0
M  V30 967 H 94.1613 -3.01285 -2.89166 0
M  V30 968 N 94.5984 0.214957 -1.56127 0
M  V30 969 C 95.8474 0.936451 -1.78643 0
M  V30 970 C 96.1604 1.85237 -0.628229 0
M  V30 971 O 97.3664 2.613 -0.737186 0
M  V30 972 C 95.8224 1.7154 -3.16389 0
M  V30 973 C 95.4304 0.845299 -4.39953 0
M  V30 974 C 97.1744 2.42772 -3.48227 0
M  V30 975 C 95.0814 1.62198 -5.68723 0
M  V30 976 H 94.0114 0.353401 -0.666051 0
M  V30 977 H 96.6624 0.190169 -1.82512 0
M  V30 978 H 95.0444 2.50484 -3.06715 0
M  V30 979 H 96.2184 0.0959353 -4.607 0
M  V30 980 H 94.5334 0.244789 -4.1568 0
M  V30 981 H 97.1304 3.01394 -4.41663 0
M  V30 982 H 97.4734 3.15984 -2.71035 0
M  V30 983 H 98.0064 1.70813 -3.5926 0
M  V30 984 H 94.7454 0.933011 -6.48826 0
M  V30 985 H 94.2654 2.34579 -5.52026 0
M  V30 986 H 95.9444 2.18095 -6.09133 0
M  V30 987 N 96.0765 1.50051 0.48192 0
M  V30 988 C 97.4925 1.37237 0.814756 0
M  V30 989 C 97.6925 0.420109 1.97072 0
M  V30 990 O 96.7485 -0.141246 2.52105 0
M  V30 991 C 98.0615 2.78375 1.13701 0
M  V30 992 C 99.6095 2.87213 1.2441 0
M  V30 993 C 100.084 4.29161 1.59954 0
M  V30 994 N 101.575 4.32061 1.66967 0
M  V30 995 C 102.31 5.38879 1.95952 0
M  V30 996 N 101.806 6.55918 2.23031 0
M  V30 997 N 103.599 5.26312 1.97363 0
M  V30 998 H 95.7505 2.10546 -0.28005 0
M  V30 999 H 98.0135 0.945921 -0.0627454 0
M  V30 1000 H 97.7195 3.49845 0.360787 0
M  V30 1001 H 97.5935 3.14941 2.07586 0
M  V30 1002 H 99.9805 2.15969 2.01101 0
M  V30 1003 H 100.061 2.54204 0.285299 0
M  V30 1004 H 99.7055 5.00938 0.838067 0
M  V30 1005 H 99.6355 4.59648 2.56966 0
M  V30 1006 H 102.126 3.47661 1.48123 0
M  V30 1007 H 102.439 7.33139 2.44391 0
M  V30 1008 H 100.784 6.59112 2.20447 0
M  V30 1009 H 103.975 4.33876 1.75697 0
M  V30 1010 H 104.148 6.09649 2.19618 0
M  V30 1011 N 97.5546 -0.734337 1.39446 0
M  V30 1012 C 98.7796 -1.52866 1.40167 0
M  V30 1013 C 99.2046 -1.881 -0.00171513 0
M  V30 1014 O 98.5626 -1.51957 -0.988879 0
M  V30 1015 C 98.6106 -2.79235 2.28167 0
M  V30 1016 O 97.7146 -3.75185 1.71201 0
M  V30 1017 H 97.0556 -0.461618 0.477289 0
M  V30 1018 H 99.5856 -0.905949 1.8345 0
M  V30 1019 H 99.5956 -3.27963 2.42702 0
M  V30 1020 H 98.2706 -2.52923 3.30156 0
M  V30 1021 H 96.8476 -3.33958 1.65912 0
M  V30 1022 N 99.0327 -1.24633 -0.964593 0
M  V30 1023 C 99.9797 -1.04144 -2.05968 0
M  V30 1024 C 100.95 0.046262 -1.66036 0
M  V30 1025 O 102.135 -0.108972 -1.90489 0
M  V30 1026 C 99.2747 -0.65563 -3.38815 0
M  V30 1027 C 98.3877 -1.81714 -3.91923 0
M  V30 1028 C 97.5227 -1.37662 -5.13052 0
M  V30 1029 C 96.5617 -2.50788 -5.58365 0
M  V30 1030 N 95.6987 -2.07582 -6.70712 0
M  V30 1031 H 100.539 -1.9787 -2.22827 0
M  V30 1032 H 98.0757 -0.9855 -1.09208 0
M  V30 1033 H 100.034 -0.412954 -4.15151 0
M  V30 1034 H 98.6637 0.244627 -3.21872 0
M  V30 1035 H 97.7157 -2.1734 -3.12198 0
M  V30 1036 H 99.0277 -2.66705 -4.21509 0
M  V30 1037 H 98.1817 -1.093 -5.96773 0
M  V30 1038 H 96.9207 -0.497293 -4.85158 0
M  V30 1039 H 95.9257 -2.79906 -4.73215 0
M  V30 1040 H 97.1507 -3.39283 -5.88272 0
M  V30 1041 H 95.0967 -1.22051 -6.44546 0
M  V30 1042 H 95.0137 -2.86125 -6.99763 0
M  V30 1043 H 96.2817 -1.82369 -7.57867 0
M  V30 1044 N 100.511 1.16574 -1.06058 0
M  V30 1045 C 101.76 1.86385 -0.770944 0
M  V30 1046 C 102.073 1.82448 0.705129 0
M  V30 1047 O 103.279 2.47815 1.10905 0
M  V30 1048 C 101.735 3.34466 -1.32893 0
M  V30 1049 C 101.343 3.46883 -2.83507 0
M  V30 1050 C 103.087 4.09548 -1.11672 0
M  V30 1051 C 100.994 4.89036 -3.32562 0
M  V30 1052 H 99.9238 0.698181 -0.284709 0
M  V30 1053 H 102.575 1.31583 -1.27899 0
M  V30 1054 H 100.957 3.88859 -0.748662 0
M  V30 1055 H 102.131 3.02663 -3.47465 0
M  V30 1056 H 100.446 2.85232 -3.03368 0
M  V30 1057 H 103.043 5.14434 -1.45814 0
M  V30 1058 H 103.386 4.16264 -0.0549535 0
M  V30 1059 H 103.919 3.61387 -1.66265 0
M  V30 1060 H 100.658 4.87499 -4.38207 0
M  V30 1061 H 100.178 5.3389 -2.73351 0
M  V30 1062 H 101.857 5.57843 -3.2775 0
M  V30 1063 N 101.989 0.842826 1.3317 0
M  V30 1064 C 102.952 0.284065 2.27433 0
M  V30 1065 C 103.952 -0.54948 1.5112 0
M  V30 1066 O 105.142 -0.362699 1.70382 0
M  V30 1067 C 102.274 -0.599384 3.35589 0
M  V30 1068 H 103.467 1.11589 2.78366 0
M  V30 1069 H 101.02 0.616221 1.4364 0
M  V30 1070 H 101.755 -1.45349 2.89904 0
M  V30 1071 H 101.54 -0.00291266 3.921 0
M  V30 1072 H 103.03 -0.983488 4.05854 0
M  V30 1073 N 103.467 -1.45747 0.599634 0
M  V30 1074 C 104.744 -1.95585 0.0240846 0
M  V30 1075 C 105.124 -1.54217 -1.44154 0
M  V30 1076 O 104.472 -0.800903 -2.14004 0
M  V30 1077 C 104.682 -3.48344 0.21385 0
M  V30 1078 C 106.03 -4.24504 0.0904902 0
M  V30 1079 O 107.054 -3.55911 0.143558 0
M  V30 1080 O 105.913 -5.46491 -0.0310766 0
M  V30 1081 H 103.007 -0.82602 -0.0402478 0
M  V30 1082 H 105.553 -1.55951 0.669139 0
M  V30 1083 H 104.325 -3.71397 1.23206 0
M  V30 1084 H 103.948 -3.9485 -0.466842 0
M  V30 1085 N 104.945 -0.338344 -1.53925 0
M  V30 1086 C 106.193 0.259245 -2.0043 0
M  V30 1087 C 106.514 1.51484 -1.22791 0
M  V30 1088 O 105.784 1.93037 -0.33368 0
M  V30 1089 H 104.364 0.0987845 -0.740439 0
M  V30 1090 H 107.026 -0.458302 -1.89435 0
M  V30 1091 H 106.122 0.505334 -3.07982 0
M  V30 1092 N 106.423 1.57458 -0.0668435 0
M  V30 1093 C 107.648 1.9804 0.616027 0
M  V30 1094 C 108.073 0.944771 1.62652 0
M  V30 1095 O 107.431 -0.0902094 1.81075 0
M  V30 1096 C 107.479 3.37665 1.26549 0
M  V30 1097 O 106.583 3.36701 2.38131 0
M  V30 1098 H 105.924 0.644719 0.158849 0
M  V30 1099 H 108.454 2.04121 -0.139891 0
M  V30 1100 H 108.464 3.7474 1.6135 0
M  V30 1101 H 107.139 4.12573 0.525016 0
M  V30 1102 H 105.716 3.1139 2.0516 0
M  V30 1103 N 107.901 -0.206675 1.56239 0
M  V30 1104 C 109.147 -0.930218 1.80208 0
M  V30 1105 C 109.48 -1.83387 0.638981 0
M  V30 1106 O 108.755 -1.91119 -0.361066 0
M  V30 1107 C 109.038 -1.75641 3.1436 0
M  V30 1108 C 108.891 -0.878257 4.41142 0
M  V30 1109 C 110.21 -2.73129 3.45092 0
M  V30 1110 H 107.329 -0.336742 0.655571 0
M  V30 1111 H 109.971 -0.198222 1.88963 0
M  V30 1112 H 108.121 -2.38048 3.07027 0
M  V30 1113 H 109.793 -0.269787 4.6051 0
M  V30 1114 H 108.036 -0.184385 4.33408 0
M  V30 1115 H 108.707 -1.49106 5.3148 0
M  V30 1116 H 111.183 -2.20856 3.52649 0
M  V30 1117 H 110.059 -3.28028 4.40101 0
M  V30 1118 H 110.32 -3.51606 2.68003 0
M  V30 1119 N 109.379 -1.50304 -0.473955 0
M  V30 1120 C 110.326 -1.68959 -1.57231 0
M  V30 1121 C 111.296 -0.530899 -1.57387 0
M  V30 1122 O 112.481 -0.761133 -1.74961 0
M  V30 1123 C 109.621 -1.7871 -2.95223 0
M  V30 1124 C 108.734 -3.06061 -3.04878 0
M  V30 1125 C 107.869 -3.06626 -4.33767 0
M  V30 1126 C 106.908 -4.28443 -4.37154 0
M  V30 1127 N 106.045 -4.26763 -5.5751 0
M  V30 1128 H 110.885 -2.6273 -1.40631 0
M  V30 1129 H 108.422 -1.30241 -0.683789 0
M  V30 1130 H 110.38 -1.82344 -3.75242 0
M  V30 1131 H 109.01 -0.883806 -3.10465 0
M  V30 1132 H 108.062 -3.11911 -2.17751 0
M  V30 1133 H 109.374 -3.96039 -3.0324 0
M  V30 1134 H 108.528 -3.08973 -5.22131 0
M  V30 1135 H 107.267 -2.14473 -4.3801 0
M  V30 1136 H 106.272 -4.2631 -3.47188 0
M  V30 1137 H 107.497 -5.2182 -4.34605 0
M  V30 1138 H 105.443 -3.37462 -5.62544 0
M  V30 1139 H 105.36 -5.10507 -5.57601 0
M  V30 1140 H 106.628 -4.33253 -6.48006 0
M  V30 1141 N 110.857 0.726932 -1.39834 0
M  V30 1142 C 112.273 1.03354 -1.21615 0
M  V30 1143 C 112.473 2.01327 -0.08338 0
M  V30 1144 O 111.529 2.46158 0.56238 0
M  V30 1145 C 112.842 1.58811 -2.55342 0
M  V30 1146 C 114.39 1.70851 -2.62257 0
M  V30 1147 C 114.865 2.29716 -3.96225 0
M  V30 1148 N 116.356 2.37116 -3.97907 0
M  V30 1149 C 117.091 2.83619 -4.98345 0
M  V30 1150 N 116.587 3.29958 -6.09179 0
M  V30 1151 N 118.38 2.82901 -4.8572 0
M  V30 1152 H 110.531 0.0773069 -2.12259 0
M  V30 1153 H 112.794 0.0969102 -0.943034 0
M  V30 1154 H 112.5 0.942855 -3.38826 0
M  V30 1155 H 112.374 2.57502 -2.75632 0
M  V30 1156 H 114.761 2.34497 -1.79152 0
M  V30 1157 H 114.842 0.707913 -2.45809 0
M  V30 1158 H 114.486 1.66696 -4.79765 0
M  V30 1159 H 114.416 3.30469 -4.09997 0
M  V30 1160 H 116.907 2.04374 -3.17868 0
M  V30 1161 H 117.22 3.63976 -6.8172 0
M  V30 1162 H 115.565 3.27946 -6.12761 0
M  V30 1163 H 118.756 2.46027 -3.98231 0
M  V30 1164 H 118.929 3.18827 -5.6414 0
M  V30 1165 N 112.336 1.25143 0.95797 0
M  V30 1166 C 113.246 1.06968 2.08794 0
M  V30 1167 C 114.262 0.00773911 1.73998 0
M  V30 1168 O 115.438 0.207972 2.00323 0
M  V30 1169 C 112.503 0.68691 3.39827 0
M  V30 1170 C 111.564 1.82641 3.88511 0
M  V30 1171 C 110.797 1.46181 5.1329 0
M  V30 1172 O 111.02 0.355971 5.69288 0
M  V30 1173 O 109.954 2.29085 5.566 0
M  V30 1174 H 113.78 2.01723 2.27027 0
M  V30 1175 H 111.365 1.04051 1.07209 0
M  V30 1176 H 113.247 0.485417 4.18595 0
M  V30 1177 H 111.922 -0.231417 3.22872 0
M  V30 1178 H 110.829 2.08274 3.10762 0
M  V30 1179 H 112.162 2.72386 4.09959 0
M  V30 1180 N 113.814 -1.1601 1.06675 0
M  V30 1181 C 115.091 -1.82679 0.699114 0
M  V30 1182 C 115.471 -1.94559 -0.819137 0
M  V30 1183 O 114.819 -1.49169 -1.73092 0
M  V30 1184 C 115.029 -3.19445 1.40555 0
M  V30 1185 C 116.377 -3.95171 1.55323 0
M  V30 1186 O 117.401 -3.28976 1.36577 0
M  V30 1187 O 116.26 -5.13833 1.86112 0
M  V30 1188 H 113.354 -0.788954 0.247951 0
M  V30 1189 H 115.9 -1.23179 1.16726 0
M  V30 1190 H 114.672 -3.05856 2.44065 0
M  V30 1191 H 114.295 -3.86625 0.927733 0
M  V30 1192 N 115.292 -0.849877 -1.32721 0
M  V30 1193 C 116.541 -0.447175 -1.96681 0
M  V30 1194 C 116.854 1.00135 -1.68025 0
M  V30 1195 O 118.06 1.50926 -2.25685 0
M  V30 1196 C 116.516 -0.7487 -3.52026 0
M  V30 1197 C 116.124 -2.21264 -3.89546 0
M  V30 1198 C 117.868 -0.413487 -4.22481 0
M  V30 1199 C 115.775 -2.45763 -5.37917 0
M  V30 1200 H 114.705 -0.163486 -0.736063 0
M  V30 1201 H 117.356 -1.03999 -1.51183 0
M  V30 1202 H 115.738 -0.0853727 -3.95908 0
M  V30 1203 H 116.912 -2.91736 -3.56689 0
M  V30 1204 H 115.227 -2.5119 -3.32103 0
M  V30 1205 H 117.824 -0.574017 -5.3161 0
M  V30 1206 H 118.167 0.644492 -4.11281 0
M  V30 1207 H 118.7 -1.03251 -3.84167 0
M  V30 1208 H 115.439 -3.50168 -5.54132 0
M  V30 1209 H 114.959 -1.79864 -5.72197 0
M  V30 1210 H 116.638 -2.29471 -6.0494 0
M  V30 1211 N 116.77 1.45427 -0.607355 0
M  V30 1212 C 118.017 2.02241 -0.102455 0
M  V30 1213 C 118.345 1.4758 1.26691 0
M  V30 1214 O 117.6 0.640468 1.84923 0
M  V30 1215 C 117.899 3.57398 -0.0129263 0
M  V30 1216 C 117.565 4.3121 -1.31792 0
M  V30 1217 C 116.227 4.51092 -1.67539 0
M  V30 1218 C 118.579 4.73401 -2.18039 0
M  V30 1219 C 115.907 5.10422 -2.89285 0
M  V30 1220 C 118.259 5.34078 -3.39034 0
M  V30 1221 C 116.923 5.52184 -3.75033 0
M  V30 1222 H 116.193 0.740051 -0.037491 0
M  V30 1223 H 118.84 1.74494 -0.788926 0
M  V30 1224 H 117.145 3.84421 0.756806 0
M  V30 1225 H 118.842 3.99061 0.393881 0
M  V30 1226 H 115.432 4.16047 -1.02968 0
M  V30 1227 H 119.616 4.57774 -1.91721 0
M  V30 1228 H 114.872 5.22629 -3.17283 0
M  V30 1229 H 119.046 5.65724 -4.06115 0
M  V30 1230 H 116.673 5.97925 -4.69457 0
M  V30 1231 N 118.248 0.346503 1.53744 0
M  V30 1232 C 119.478 -0.250047 2.05081 0
M  V30 1233 C 119.886 -1.44529 1.22098 0
M  V30 1234 O 119.229 -1.81992 0.249917 0
M  V30 1235 C 119.291 -0.725934 3.52094 0
M  V30 1236 C 118.955 0.350053 4.55657 0
M  V30 1237 C 119.952 1.19372 5.0601 0
M  V30 1238 C 117.637 0.504827 4.99757 0
M  V30 1239 C 119.631 2.17768 5.99046 0
M  V30 1240 C 117.318 1.49218 5.92602 0
M  V30 1241 C 118.316 2.32706 6.42135 0
M  V30 1242 O 118.004 3.2976 7.33153 0
M  V30 1243 H 117.736 -0.0515469 0.674032 0
M  V30 1244 H 120.29 0.497559 1.99282 0
M  V30 1245 H 118.52 -1.52483 3.55367 0
M  V30 1246 H 120.209 -1.24336 3.86388 0
M  V30 1247 H 120.975 1.08525 4.72702 0
M  V30 1248 H 116.854 -0.135178 4.60802 0
M  V30 1249 H 120.398 2.82971 6.37631 0
M  V30 1250 H 116.295 1.6012 6.25325 0
M  V30 1251 H 117.063 3.25265 7.51096 0
M  V30 1252 N 119.726 -1.57421 0.075193 0
M  V30 1253 C 120.954 -1.97946 -0.602076 0
M  V30 1254 C 121.369 -0.953674 -1.62943 0
M  V30 1255 O 120.726 0.0592551 -1.82404 0
M  V30 1256 C 120.777 -3.38546 -1.26762 0
M  V30 1257 O 120.498 -4.37195 -0.281376 0
M  V30 1258 C 121.999 -3.93966 -2.03239 0
M  V30 1259 H 119.219 -0.650918 -0.162931 0
M  V30 1260 H 121.763 -2.03959 0.148601 0
M  V30 1261 H 119.918 -3.33609 -1.96936 0
M  V30 1262 H 120.332 -5.18975 -0.759267 0
M  V30 1263 H 121.806 -4.94555 -2.45193 0
M  V30 1264 H 122.283 -3.30693 -2.8903 0
M  V30 1265 H 122.889 -4.02315 -1.37924 0
M  V30 1266 N 121.204 0.198386 -1.56346 0
M  V30 1267 C 122.429 0.939682 -1.84891 0
M  V30 1268 C 122.854 1.76202 -0.658369 0
M  V30 1269 O 122.212 1.76993 0.392851 0
M  V30 1270 C 122.26 1.81428 -3.11635 0
M  V30 1271 O 121.364 2.91265 -2.91956 0
M  V30 1272 H 120.705 0.264807 -0.608912 0
M  V30 1273 H 123.235 0.204695 -2.03573 0
M  V30 1274 H 123.245 2.21958 -3.42343 0
M  V30 1275 H 121.92 1.21004 -3.97908 0
M  V30 1276 H 120.497 2.54514 -2.72538 0
M  V30 1277 N 122.682 1.50554 0.465978 0
M  V30 1278 C 123.629 1.6979 1.56333 0
M  V30 1279 C 124.599 0.539239 1.57103 0
M  V30 1280 O 125.784 0.770401 1.74555 0
M  V30 1281 C 122.924 1.80273 2.94271 0
M  V30 1282 C 122.037 3.07674 3.0325 0
M  V30 1283 C 121.172 3.08922 4.32135 0
M  V30 1284 C 120.211 4.30755 4.34875 0
M  V30 1285 N 119.348 4.29714 5.55239 0
M  V30 1286 H 124.188 2.63472 1.39235 0
M  V30 1287 H 121.725 1.30602 0.676873 0
M  V30 1288 H 123.683 1.84332 3.74269 0
M  V30 1289 H 122.313 0.900258 3.09992 0
M  V30 1290 H 121.365 3.13062 2.16094 0
M  V30 1291 H 122.677 3.97642 3.01135 0
M  V30 1292 H 121.831 3.11738 5.20485 0
M  V30 1293 H 120.57 2.16792 4.36866 0
M  V30 1294 H 119.575 4.28146 3.44922 0
M  V30 1295 H 120.8 5.24117 4.31831 0
M  V30 1296 H 118.746 3.4044 5.60746 0
M  V30 1297 H 118.663 5.13456 5.54886 0
M  V30 1298 H 119.931 4.36683 6.457 0
M  V30 1299 N 124.16 -0.719506 1.40217 0
M  V30 1300 C 125.09 -1.8465 1.42922 0
M  V30 1301 C 126.071 -1.67599 0.29062 0
M  V30 1302 O 127.256 -1.87688 0.498677 0
M  V30 1303 C 124.386 -3.22565 1.28722 0
M  V30 1304 C 123.34 -3.54281 2.40144 0
M  V30 1305 C 122.666 -4.91298 2.11023 0
M  V30 1306 C 123.966 -3.55676 3.82481 0
M  V30 1307 H 125.66 -1.82644 2.37237 0
M  V30 1308 H 123.206 -0.877305 1.1419 0
M  V30 1309 H 125.159 -4.01095 1.29232 0
M  V30 1310 H 123.883 -3.25137 0.308811 0
M  V30 1311 H 122.542 -2.78088 2.38877 0
M  V30 1312 H 122.19 -4.90468 1.11582 0
M  V30 1313 H 121.89 -5.13485 2.8567 0
M  V30 1314 H 123.414 -5.72166 2.13209 0
M  V30 1315 H 124.828 -4.24254 3.85592 0
M  V30 1316 H 123.225 -3.89388 4.56614 0
M  V30 1317 H 124.295 -2.55144 4.12346 0
M  V30 1318 N 125.638 -1.25649 -0.95132 0
M  V30 1319 C 126.884 -1.11766 -1.69941 0
M  V30 1320 C 127.239 0.33735 -1.89419 0
M  V30 1321 O 126.532 1.24491 -1.45645 0
M  V30 1322 C 126.726 -1.80909 -3.08231 0
M  V30 1323 C 126.555 -3.32984 -3.02245 0
M  V30 1324 C 125.325 -4.02247 -3.05819 0
M  V30 1325 C 127.523 -4.29332 -2.83157 0
M  V30 1326 N 125.505 -5.41072 -2.90024 0
M  V30 1327 C 126.876 -5.55265 -2.75828 0
M  V30 1328 C 128.931 -4.19707 -2.67863 0
M  V30 1329 C 127.634 -6.72671 -2.54767 0
M  V30 1330 C 129.66 -5.36809 -2.48173 0
M  V30 1331 C 129.022 -6.61683 -2.41567 0
M  V30 1332 H 125.121 -0.463708 -0.629682 0
M  V30 1333 H 127.705 -1.58796 -1.12659 0
M  V30 1334 H 125.876 -1.36369 -3.63673 0
M  V30 1335 H 127.608 -1.59739 -3.71841 0
M  V30 1336 H 124.363 -3.53531 -3.15139 0
M  V30 1337 H 124.787 -6.13938 -2.85323 0
M  V30 1338 H 129.429 -3.23907 -2.71743 0
M  V30 1339 H 127.147 -7.68577 -2.49629 0
M  V30 1340 H 130.733 -5.31224 -2.37259 0
M  V30 1341 H 129.613 -7.50768 -2.26531 0
M  V30 1342 N 127.117 1.15442 -1.07289 0
M  V30 1343 C 128.342 1.90638 -0.816828 0
M  V30 1344 C 128.767 1.77445 0.624083 0
M  V30 1345 O 128.125 1.10671 1.43602 0
M  V30 1346 C 128.173 3.39008 -1.22906 0
M  V30 1347 O 127.277 4.10701 -0.373975 0
M  V30 1348 H 126.618 0.593555 -0.297638 0
M  V30 1349 H 129.148 1.46198 -1.43134 0
M  V30 1350 H 129.158 3.89801 -1.20497 0
M  V30 1351 H 127.833 3.47929 -2.27856 0
M  V30 1352 H 126.41 3.70046 -0.460499 0
M  V30 1353 N 128.595 0.856903 1.32268 0
M  V30 1354 C 129.543 0.291987 2.3076 0
M  V30 1355 C 130.537 -0.585857 1.58947 0
M  V30 1356 O 131.743 -0.47341 1.73663 0
M  V30 1357 H 128.118 0.075721 0.748178 0
M  V30 1358 H 130.089 1.13687 2.75895 0
M  V30 1359 C 128.838 -0.502869 3.44044 0
M  V30 1360 H 128.161 0.163328 3.99466 0
M  V30 1361 H 129.601 -0.863691 4.1511 0
M  V30 1362 C 128.06 -1.68898 2.91505 0
M  V30 1363 O 128.59 -2.78811 2.89184 0
M  V30 1364 N 126.796 -1.51679 2.47875 0
M  V30 1365 H 126.343 -0.622666 2.49961 0
M  V30 1366 H 126.301 -2.31184 2.13076 0
M  V30 1367 N 130.073 -1.45103 0.615059 0
M  V30 1368 C 131.298 -2.07064 0.117988 0
M  V30 1369 C 131.723 -1.4554 -1.19163 0
M  V30 1370 O 131.081 -0.550855 -1.72729 0
M  V30 1371 C 131.129 -3.606 -0.000288387 0
M  V30 1372 O 130.233 -3.98847 -1.04856 0
M  V30 1373 H 129.574 -0.659467 0.0774581 0
M  V30 1374 H 132.104 -1.86236 0.847186 0
M  V30 1375 H 132.114 -4.07529 -0.196091 0
M  V30 1376 H 130.789 -4.04765 0.955932 0
M  V30 1377 H 129.366 -3.63577 -0.828619 0
M  V30 1378 N 131.551 -0.354651 -1.53558 0
M  V30 1379 C 132.501 0.513179 -2.2215 0
M  V30 1380 C 133.485 1.05734 -1.21281 0
M  V30 1381 O 134.677 0.989202 -1.46778 0
M  V30 1382 C 131.806 1.65798 -3.00609 0
M  V30 1383 C 130.892 1.12722 -4.08845 0
M  V30 1384 N 131.283 0.318563 -5.04796 0
M  V30 1385 C 129.581 1.40307 -4.23356 0
M  V30 1386 C 130.282 0.0292224 -5.81693 0
M  V30 1387 N 129.258 0.623891 -5.40008 0
M  V30 1388 H 133.06 -0.111586 -2.93688 0
M  V30 1389 H 130.574 -0.162091 -1.61589 0
M  V30 1390 H 132.571 2.29176 -3.48258 0
M  V30 1391 H 131.231 2.28591 -2.306 0
M  V30 1392 H 132.242 -0.0413091 -5.17884 0
M  V30 1393 H 128.919 2.03458 -3.6457 0
M  V30 1394 H 130.309 -0.623808 -6.68998 0
M  V30 1395 N 133.029 1.57378 -0.0835403 0
M  V30 1396 C 134.445 1.57246 0.273109 0
M  V30 1397 C 134.645 1.09385 1.69225 0
M  V30 1398 O 133.701 0.765051 2.40631 0
M  V30 1399 C 135.014 3.00614 0.0720628 0
M  V30 1400 C 136.562 3.12684 0.1407 0
M  V30 1401 C 137.037 4.57989 -0.0322094 0
M  V30 1402 N 138.528 4.63194 0.0230085 0
M  V30 1403 C 139.263 5.73335 -0.0861941 0
M  V30 1404 N 138.759 6.9235 -0.24958 0
M  V30 1405 N 140.552 5.62093 -0.0282886 0
M  V30 1406 H 132.703 1.86801 -1.0109 0
M  V30 1407 H 134.966 0.861687 -0.395222 0
M  V30 1408 H 134.672 3.39786 -0.907662 0
M  V30 1409 H 134.546 3.68193 0.81936 0
M  V30 1410 H 136.933 2.73391 1.11092 0
M  V30 1411 H 137.014 2.47719 -0.637896 0
M  V30 1412 H 136.658 4.97973 -0.999247 0
M  V30 1413 H 136.588 5.21 0.765937 0
M  V30 1414 H 139.079 3.77613 0.14722 0
M  V30 1415 H 139.392 7.72117 -0.324733 0
M  V30 1416 H 137.737 6.94415 -0.285097 0
M  V30 1417 H 140.928 4.67997 0.0981408 0
M  V30 1418 H 141.101 6.47895 -0.116845 0
M  V30 1419 N 134.507 -0.190092 1.56449 0
M  V30 1420 C 135.918 -0.754312 1.70784 0
M  V30 1421 C 136.269 -1.83631 0.690951 0
M  V30 1422 O 135.394 -2.15868 -0.151604 0
M  V30 1423 C 135.989 -1.37503 3.09642 0
M  V30 1424 C 134.548 -1.88628 3.25725 0
M  V30 1425 C 133.695 -0.758098 2.66736 0
M  V30 1426 H 136.646 0.0350524 1.58661 0
M  V30 1427 H 136.667 -2.2445 3.0725 0
M  V30 1428 H 136.179 -0.587302 3.83631 0
M  V30 1429 H 134.28 -2.70103 2.56661 0
M  V30 1430 H 134.393 -2.04462 4.3328 0
M  V30 1431 H 132.757 -1.17369 2.26046 0
M  V30 1432 H 133.54 0.0174705 3.43296 0
M  V30 1433 N 135.985 -1.50799 -0.457987 0
M  V30 1434 C 136.895 -1.73426 -1.57989 0
M  V30 1435 C 137.911 -0.617745 -1.62665 0
M  V30 1436 O 139.087 -0.897614 -1.80291 0
M  V30 1437 C 136.152 -1.83557 -2.94122 0
M  V30 1438 C 135.213 -3.07345 -2.99729 0
M  V30 1439 C 134.446 -3.16983 -4.29368 0
M  V30 1440 O 134.669 -2.33077 -5.20607 0
M  V30 1441 O 133.603 -4.09812 -4.40837 0
M  V30 1442 H 137.429 -2.68555 -1.41817 0
M  V30 1443 H 135.014 -1.35052 -0.638859 0
M  V30 1444 H 136.896 -1.92326 -3.74952 0
M  V30 1445 H 135.571 -0.916137 -3.10465 0
M  V30 1446 H 134.478 -3.04068 -2.1793 0
M  V30 1447 H 135.811 -3.9891 -2.88326 0
M  V30 1448 N 137.463 0.71206 -1.40597 0
M  V30 1449 C 138.393 1.83889 -1.43899 0
M  V30 1450 C 139.374 1.67442 -0.299504 0
M  V30 1451 O 140.559 1.87421 -0.508624 0
M  V30 1452 C 137.689 3.21877 -1.30431 0
M  V30 1453 C 136.643 3.53002 -2.42019 0
M  V30 1454 C 135.969 4.90172 -2.13626 0
M  V30 1455 C 137.269 3.53643 -3.84362 0
M  V30 1456 H 138.963 1.81383 -2.38203 0
M  V30 1457 H 136.509 0.871237 -1.14654 0
M  V30 1458 H 138.462 4.00404 -1.31357 0
M  V30 1459 H 137.186 3.24968 -0.326049 0
M  V30 1460 H 135.845 2.76818 -2.40349 0
M  V30 1461 H 135.493 4.89869 -1.14182 0
M  V30 1462 H 135.193 5.11962 -2.88389 0
M  V30 1463 H 136.717 5.71028 -2.1624 0
M  V30 1464 H 138.131 4.22203 -3.87837 0
M  V30 1465 H 136.528 3.86961 -4.58673 0
M  V30 1466 H 137.598 2.52954 -4.13693 0
M  V30 1467 N 138.941 1.26152 0.944643 0
M  V30 1468 C 140.187 1.11657 1.69294 0
M  V30 1469 C 140.52 -0.339926 1.91202 0
M  V30 1470 O 139.795 -1.24994 1.49019 0
M  V30 1471 C 140.078 1.88236 3.06984 0
M  V30 1472 C 139.931 3.41772 2.92424 0
M  V30 1473 C 141.25 1.67343 4.07043 0
M  V30 1474 H 138.369 0.407004 0.614424 0
M  V30 1475 H 141.011 1.55106 1.09737 0
M  V30 1476 H 139.161 1.51308 3.57824 0
M  V30 1477 H 140.833 3.88433 2.48832 0
M  V30 1478 H 139.076 3.68974 2.28124 0
M  V30 1479 H 139.747 3.90579 3.90067 0
M  V30 1480 H 142.223 1.99509 3.65151 0
M  V30 1481 H 141.099 2.23346 5.01406 0
M  V30 1482 H 141.36 0.617158 4.37771 0
M  V30 1483 N 140.419 -1.14872 1.07899 0
M  V30 1484 C 141.835 -1.37776 0.805606 0
M  V30 1485 C 142.035 -1.92743 -0.587555 0
M  V30 1486 O 141.091 -2.13678 -1.34528 0
M  V30 1487 C 142.404 -2.34361 1.88402 0
M  V30 1488 C 143.952 -2.48012 1.90942 0
M  V30 1489 C 144.427 -3.47893 2.97883 0
M  V30 1490 N 145.918 -3.55433 2.97021 0
M  V30 1491 C 146.653 -4.32553 3.76412 0
M  V30 1492 N 146.149 -5.12959 4.65666 0
M  V30 1493 N 147.942 -4.27697 3.64735 0
M  V30 1494 H 140.093 -0.775365 1.97742 0
M  V30 1495 H 142.356 -0.403521 0.857831 0
M  V30 1496 H 142.062 -2.01098 2.88535 0
M  V30 1497 H 141.936 -3.34206 1.74889 0
M  V30 1498 H 144.323 -2.8057 0.914579 0
M  V30 1499 H 144.404 -1.48147 2.08534 0
M  V30 1500 H 144.048 -3.16069 3.97571 0
M  V30 1501 H 143.978 -4.47527 2.77538 0
M  V30 1502 H 146.469 -2.98048 2.32326 0
M  V30 1503 H 146.782 -5.69065 5.22862 0
M  V30 1504 H 145.127 -5.12245 4.69712 0
M  V30 1505 H 148.318 -3.63949 2.94378 0
M  V30 1506 H 148.491 -4.8755 4.26848 0
M  V30 1507 N 141.898 -0.863906 -1.31812 0
M  V30 1508 C 143.309 -0.52522 -1.7916 0
M  V30 1509 C 143.66 0.957518 -1.71248 0
M  V30 1510 O 142.785 1.74734 -1.27659 0
M  V30 1511 C 143.38 -0.9466 -3.25307 0
M  V30 1512 C 141.939 -0.659668 -3.70574 0
M  V30 1513 C 141.086 -1.14126 -2.52726 0
M  V30 1514 H 144.037 -1.05022 -1.1898 0
M  V30 1515 H 144.058 -0.266766 -3.79564 0
M  V30 1516 H 143.57 -2.02579 -3.31034 0
M  V30 1517 H 141.671 0.408416 -3.70355 0
M  V30 1518 H 141.784 -1.23245 -4.62977 0
M  V30 1519 H 140.148 -0.561216 -2.4844 0
M  V30 1520 H 140.931 -2.22775 -2.61201 0
M  V30 1521 N 143.376 1.44774 -0.622745 0
M  V30 1522 C 144.339 2.29069 0.0774015 0
M  V30 1523 C 145.339 1.4059 0.780461 0
M  V30 1524 O 146.529 1.62551 0.626322 0
M  V30 1525 C 143.661 3.21974 1.12006 0
M  V30 1526 H 144.854 2.92459 -0.663901 0
M  V30 1527 H 142.407 1.51548 -0.382486 0
M  V30 1528 H 143.142 2.63417 1.89162 0
M  V30 1529 H 142.927 3.87168 0.619951 0
M  V30 1530 H 144.417 3.85318 1.60995 0
M  V30 1531 N 144.854 0.36279 1.53368 0
M  V30 1532 C 145.784 -0.476976 2.28576 0
M  V30 1533 C 146.765 -1.08631 1.30894 0
M  V30 1534 O 147.95 -1.10409 1.59761 0
M  V30 1535 C 145.08 -1.61828 3.07293 0
M  V30 1536 C 144.034 -1.13633 4.1264 0
M  V30 1537 C 143.36 -2.36766 4.79423 0
M  V30 1538 C 144.66 -0.223061 5.21823 0
M  V30 1539 H 146.354 0.150474 2.99022 0
M  V30 1540 H 143.9 0.0738103 1.43811 0
M  V30 1541 H 145.853 -2.21237 3.58653 0
M  V30 1542 H 144.577 -2.27292 2.34533 0
M  V30 1543 H 143.236 -0.564945 3.62221 0
M  V30 1544 H 142.884 -3.0068 4.03238 0
M  V30 1545 H 142.584 -2.05192 5.50609 0
M  V30 1546 H 144.108 -2.96865 5.33576 0
M  V30 1547 H 145.522 -0.724545 5.68703 0
M  V30 1548 H 143.919 0.001678 6.001 0
M  V30 1549 H 144.989 0.735553 4.79289 0
M  V30 1550 N 146.332 -1.57332 0.0918853 0
M  V30 1551 C 147.242 -2.17368 -0.882505 0
M  V30 1552 C 148.258 -1.14226 -1.31257 0
M  V30 1553 O 149.434 -1.46582 -1.38115 0
M  V30 1554 C 146.499 -2.73962 -2.12476 0
M  V30 1555 C 145.56 -3.92048 -1.7492 0
M  V30 1556 C 144.793 -4.45933 -2.93223 0
M  V30 1557 O 145.016 -3.98764 -4.07852 0
M  V30 1558 O 143.95 -5.36999 -2.71875 0
M  V30 1559 H 147.776 -3.01031 -0.40172 0
M  V30 1560 H 145.361 -1.48813 -0.132291 0
M  V30 1561 H 147.243 -3.10147 -2.85283 0
M  V30 1562 H 145.918 -1.93347 -2.59613 0
M  V30 1563 H 144.825 -3.6068 -0.993025 0
M  V30 1564 H 146.158 -4.74017 -1.32548 0
M  V30 1565 N 147.81 0.181792 -1.56548 0
M  V30 1566 C 149.226 0.53316 -1.50431 0
M  V30 1567 C 149.426 1.85184 -0.794297 0
M  V30 1568 O 148.482 2.50058 -0.350318 0
M  V30 1569 C 149.795 0.575597 -2.9514 0
M  V30 1570 C 151.343 0.663519 -3.05886 0
M  V30 1571 C 151.818 0.736946 -4.52032 0
M  V30 1572 N 153.309 0.800118 -4.56237 0
M  V30 1573 C 154.044 0.877327 -5.66649 0
M  V30 1574 N 153.54 0.916016 -6.86718 0
M  V30 1575 N 155.333 0.915542 -5.54594 0
M  V30 1576 H 147.484 -0.683025 -2.01118 0
M  V30 1577 H 149.747 -0.244988 -0.915797 0
M  V30 1578 H 149.453 -0.324482 -3.502 0
M  V30 1579 H 149.327 1.42572 -3.49218 0
M  V30 1580 H 151.714 1.55403 -2.50867 0
M  V30 1581 H 151.795 -0.21307 -2.54911 0
M  V30 1582 H 151.439 -0.149262 -5.07681 0
M  V30 1583 H 151.369 1.62953 -5.00753 0
M  V30 1584 H 153.86 0.778926 -3.69785 0
M  V30 1585 H 154.173 0.975813 -7.66614 0
M  V30 1586 H 152.518 0.884469 -6.89349 0
M  V30 1587 H 155.709 0.882245 -4.59711 0
M  V30 1588 H 155.882 0.972253 -6.40665 0
M  V30 1589 N 149.288 1.51039 0.449983 0
M  V30 1590 C 150.513 1.6715 1.22783 0
M  V30 1591 C 150.938 0.363081 1.84563 0
M  V30 1592 O 150.296 -0.675433 1.68249 0
M  V30 1593 C 150.344 2.77985 2.29689 0
M  V30 1594 O 149.448 2.40707 3.34864 0
M  V30 1595 H 148.789 0.557746 0.360299 0
M  V30 1596 H 151.319 1.97535 0.533005 0
M  V30 1597 H 151.329 3.01693 2.74673 0
M  V30 1598 H 150.004 3.72935 1.84098 0
M  V30 1599 H 148.581 2.27523 2.95445 0
M  V30 1600 N 150.766 -0.704594 1.40972 0
M  V30 1601 C 151.696 -1.83124 1.44872 0
M  V30 1602 C 152.677 -1.67281 0.30838 0
M  V30 1603 O 153.862 -1.87149 0.518556 0
M  V30 1604 C 150.992 -3.21181 1.32136 0
M  V30 1605 C 149.946 -3.51714 2.43888 0
M  V30 1606 C 149.272 -4.89032 2.16222 0
M  V30 1607 C 150.572 -3.516 3.86232 0
M  V30 1608 H 152.266 -1.80117 2.39161 0
M  V30 1609 H 149.812 -0.865145 1.15114 0
M  V30 1610 H 151.765 -3.99702 1.33479 0
M  V30 1611 H 150.489 -3.24791 0.343279 0
M  V30 1612 H 149.148 -2.75539 2.41813 0
M  V30 1613 H 148.796 -4.89256 1.16778 0
M  V30 1614 H 148.496 -5.10426 2.911 0
M  V30 1615 H 150.02 -5.69873 2.19265 0
M  V30 1616 H 151.434 -4.2014 3.9007 0
M  V30 1617 H 149.831 -3.84523 4.60719 0
M  V30 1618 H 150.901 -2.50757 4.15029 0
M  V30 1619 N 152.244 -1.26651 -0.937939 0
M  V30 1620 C 153.191 -1.0849 -2.03712 0
M  V30 1621 C 154.161 0.011033 -1.66096 0
M  V30 1622 O 155.346 -0.149353 -1.90215 0
M  V30 1623 C 152.486 -0.72735 -3.37348 0
M  V30 1624 C 151.599 -1.89986 -3.87981 0
M  V30 1625 C 150.734 -1.48513 -5.10017 0
M  V30 1626 C 149.773 -2.62575 -5.5292 0
M  V30 1627 N 148.91 -2.21762 -6.66158 0
M  V30 1628 H 153.75 -2.02551 -2.18579 0
M  V30 1629 H 151.287 -1.00844 -1.07093 0
M  V30 1630 H 153.245 -0.50092 -4.14182 0
M  V30 1631 H 151.875 0.176298 -3.22318 0
M  V30 1632 H 150.927 -2.23913 -3.07518 0
M  V30 1633 H 152.239 -2.75586 -4.15757 0
M  V30 1634 H 151.393 -1.21934 -5.94321 0
M  V30 1635 H 150.132 -0.60009 -4.83994 0
M  V30 1636 H 149.137 -2.8988 -4.67172 0
M  V30 1637 H 150.362 -3.51685 -5.80943 0
M  V30 1638 H 148.308 -1.35696 -6.41812 0
M  V30 1639 H 148.225 -3.00903 -6.93537 0
M  V30 1640 H 149.493 -1.98403 -7.53828 0
M  V30 1641 N 153.722 1.14298 -1.08507 0
M  V30 1642 C 154.67 2.21483 -0.710483 0
M  V30 1643 C 155.664 1.66998 0.284234 0
M  V30 1644 O 156.87 1.79401 0.146692 0
M  V30 1645 H 153.245 0.721578 -0.211729 0
M  V30 1646 H 155.216 2.50348 -1.62384 0
M  V30 1647 C 153.965 3.4743 -0.137007 0
M  V30 1648 H 153.288 3.89686 -0.893592 0
M  V30 1649 H 154.728 4.2391 0.0872789 0
M  V30 1650 C 153.187 3.17548 1.12538 0
M  V30 1651 O 153.717 3.35437 2.21009 0
M  V30 1652 N 151.923 2.71499 1.03617 0
M  V30 1653 H 151.47 2.57143 0.153403 0
M  V30 1654 H 151.428 2.51881 1.88158 0
M  V30 1655 N 155.201 0.870884 1.31352 0
M  V30 1656 C 156.131 0.343096 2.30966 0
M  V30 1657 C 157.112 -0.566507 1.60389 0
M  V30 1658 O 158.297 -0.483336 1.88089 0
M  V30 1659 C 155.427 -0.455487 3.443 0
M  V30 1660 C 154.381 0.361103 4.26474 0
M  V30 1661 C 153.707 -0.563221 5.31725 0
M  V30 1662 C 155.007 1.59566 4.97329 0
M  V30 1663 H 156.701 1.17548 2.75359 0
M  V30 1664 H 154.247 0.566686 1.32381 0
M  V30 1665 H 156.2 -0.83525 4.13039 0
M  V30 1666 H 154.924 -1.32139 2.98675 0
M  V30 1667 H 153.583 0.722825 3.59403 0
M  V30 1668 H 153.231 -1.42643 4.82351 0
M  V30 1669 H 152.931 -0.0207409 5.87596 0
M  V30 1670 H 154.455 -0.939808 6.03324 0
M  V30 1671 H 155.869 1.28728 5.58661 0
M  V30 1672 H 154.266 2.07728 5.63 0
M  V30 1673 H 155.336 2.34798 4.24262 0
M  V30 1674 N 156.679 -1.44442 0.630414 0
M  V30 1675 C 157.611 -2.2892 -0.113347 0
M  V30 1676 C 158.624 -1.41243 -0.80959 0
M  V30 1677 O 159.813 -1.65402 -0.671156 0
M  V30 1678 C 156.913 -3.17594 -1.18266 0
M  V30 1679 C 156.086 -4.33682 -0.569073 0
M  V30 1680 C 155.145 -5.03397 -1.53226 0
M  V30 1681 O 154.171 -5.59438 -1.04967 0
M  V30 1682 N 155.373 -5.04783 -2.86661 0
M  V30 1683 H 158.138 -2.93392 0.611636 0
M  V30 1684 H 155.699 -1.54881 0.471523 0
M  V30 1685 H 157.691 -3.61097 -1.82732 0
M  V30 1686 H 156.261 -2.54876 -1.80988 0
M  V30 1687 H 155.481 -3.9338 0.254187 0
M  V30 1688 H 156.769 -5.08608 -0.139767 0
M  V30 1689 H 156.167 -4.60584 -3.28449 0
M  V30 1690 H 154.724 -5.52077 -3.46489 0
M  V30 1691 N 158.157 -0.370918 -1.53173 0
M  V30 1692 C 159.087 0.464847 -2.28826 0
M  V30 1693 C 160.068 1.07936 -1.31468 0
M  V30 1694 O 161.253 1.0956 -1.60344 0
M  V30 1695 C 158.383 1.60196 -3.08147 0
M  V30 1696 C 157.337 1.11443 -4.13237 0
M  V30 1697 C 156.663 2.3422 -4.80672 0
M  V30 1698 C 157.963 0.195384 -5.21934 0
M  V30 1699 H 159.657 -0.166329 -2.98938 0
M  V30 1700 H 157.203 -0.0814359 -1.4377 0
M  V30 1701 H 159.156 2.19332 -3.59822 0
M  V30 1702 H 157.88 2.26045 -2.35735 0
M  V30 1703 H 156.539 0.545727 -3.62515 0
M  V30 1704 H 156.187 2.98537 -4.04827 0
M  V30 1705 H 155.887 2.02269 -5.51689 0
M  V30 1706 H 157.411 2.94032 -5.35143 0
M  V30 1707 H 158.825 0.694375 -5.69079 0
M  V30 1708 H 157.222 -0.0335027 -6.00091 0
M  V30 1709 H 158.292 -0.760961 -4.78892 0
M  V30 1710 N 159.635 1.57281 -0.100228 0
M  V30 1711 C 160.912 1.86014 0.604812 0
M  V30 1712 C 161.292 0.998025 1.86018 0
M  V30 1713 O 160.64 0.0718184 2.28387 0
M  V30 1714 C 160.85 3.36784 0.915278 0
M  V30 1715 C 162.198 4.04957 1.27651 0
M  V30 1716 O 163.222 3.41695 1.00613 0
M  V30 1717 O 162.081 5.16593 1.7831 0
M  V30 1718 H 159.175 0.76942 0.303185 0
M  V30 1719 H 161.721 1.69176 -0.133313 0
M  V30 1720 H 160.493 3.91292 0.0248896 0
M  V30 1721 H 160.116 3.58987 1.70921 0
M  V30 1722 N 161.113 -0.173488 1.56642 0
M  V30 1723 C 162.343 -0.904781 1.85734 0
M  V30 1724 C 162.751 -1.76431 0.68328 0
M  V30 1725 O 162.094 -1.802 -0.356865 0
M  V30 1726 C 162.156 -1.83382 3.09211 0
M  V30 1727 C 161.82 -1.15411 4.42187 0
M  V30 1728 C 162.817 -0.520609 5.17287 0
M  V30 1729 C 160.502 -1.15151 4.88923 0
M  V30 1730 C 162.496 0.106412 6.37311 0
M  V30 1731 C 160.183 -0.520664 6.08878 0
M  V30 1732 C 161.181 0.107196 6.82916 0
M  V30 1733 O 160.869 0.728102 8.00596 0
M  V30 1734 H 160.601 -0.268408 0.62043 0
M  V30 1735 H 163.155 -0.179096 2.04618 0
M  V30 1736 H 161.385 -2.59976 2.86268 0
M  V30 1737 H 163.074 -2.43476 3.24768 0
M  V30 1738 H 163.84 -0.514606 4.82262 0
M  V30 1739 H 159.719 -1.62961 4.31236 0
M  V30 1740 H 163.263 0.597081 6.9504 0
M  V30 1741 H 159.16 -0.524242 6.43368 0
M  V30 1742 H 159.928 0.627138 8.16094 0
M  V30 1743 N 162.591 -1.51276 -0.441967 0
M  V30 1744 C 163.837 -1.63958 -1.19355 0
M  V30 1745 C 164.17 -0.352543 -1.90973 0
M  V30 1746 O 163.445 0.647627 -1.83401 0
M  V30 1747 C 163.728 -2.83979 -2.21422 0
M  V30 1748 C 163.581 -4.22646 -1.53918 0
M  V30 1749 C 164.9 -2.99521 -3.22451 0
M  V30 1750 H 162.019 -0.596709 -0.432559 0
M  V30 1751 H 164.661 -1.83748 -0.483398 0
M  V30 1752 H 162.811 -2.67237 -2.81987 0
M  V30 1753 H 164.483 -4.51045 -0.967256 0
M  V30 1754 H 162.726 -4.25558 -0.841615 0
M  V30 1755 H 163.397 -5.02609 -2.28229 0
M  V30 1756 H 165.873 -3.14944 -2.71937 0
M  V30 1757 H 164.749 -3.85072 -3.91166 0
M  V30 1758 H 165.01 -2.11391 -3.88287 0
M  V30 1759 N 164.069 0.697108 -1.41344 0
M  V30 1760 C 165.346 1.45154 -1.31109 0
M  V30 1761 C 165.726 2.11009 0.0620449 0
M  V30 1762 O 165.074 2.01571 1.07618 0
M  V30 1763 C 165.284 2.47223 -2.46337 0
M  V30 1764 C 166.632 3.1252 -2.87431 0
M  V30 1765 O 167.656 2.57547 -2.46065 0
M  V30 1766 O 166.515 4.12083 -3.58957 0
M  V30 1767 H 163.609 0.646365 -0.515889 0
M  V30 1768 H 166.155 0.727716 -1.53305 0
M  V30 1769 H 164.927 1.97204 -3.37974 0
M  V30 1770 H 164.55 3.27116 -2.2601 0
M  V30 1771 N 165.547 1.27147 0.931209 0
M  V30 1772 C 166.477 1.12081 2.04842 0
M  V30 1773 C 167.458 0.0232364 1.70084 0
M  V30 1774 O 168.643 0.197085 1.93197 0
M  V30 1775 C 165.773 0.76354 3.38803 0
M  V30 1776 C 164.727 1.81396 3.87659 0
M  V30 1777 C 164.053 1.31075 5.18385 0
M  V30 1778 C 165.353 3.21739 4.11438 0
M  V30 1779 H 167.047 2.05537 2.17703 0
M  V30 1780 H 164.593 0.989603 1.04608 0
M  V30 1781 H 166.546 0.644982 4.16435 0
M  V30 1782 H 165.27 -0.206727 3.25945 0
M  V30 1783 H 163.929 1.92136 3.12217 0
M  V30 1784 H 163.577 0.330037 5.01916 0
M  V30 1785 H 163.277 2.013 5.52044 0
M  V30 1786 H 164.801 1.20506 5.98591 0
M  V30 1787 H 166.215 3.14019 4.79651 0
M  V30 1788 H 164.612 3.89644 4.56397 0
M  V30 1789 H 165.682 3.67054 3.16859 0
M  V30 1790 N 167.025 -1.13721 1.09112 0
M  V30 1791 C 168.255 -1.88499 0.845671 0
M  V30 1792 C 168.663 -1.79218 -0.606432 0
M  V30 1793 O 168.006 -1.1544 -1.42896 0
M  V30 1794 C 168.068 -3.38954 1.19793 0
M  V30 1795 C 167.732 -3.72018 2.65428 0
M  V30 1796 C 168.729 -3.7153 3.63677 0
M  V30 1797 C 166.414 -4.01775 3.01467 0
M  V30 1798 C 168.408 -4.00336 4.95994 0
M  V30 1799 C 166.095 -4.30243 4.33975 0
M  V30 1800 C 167.093 -4.29508 5.31048 0
M  V30 1801 O 166.781 -4.5728 6.61173 0
M  V30 1802 H 166.513 -0.603702 0.304171 0
M  V30 1803 H 169.067 -1.44903 1.45576 0
M  V30 1804 H 167.297 -3.83039 0.530871 0
M  V30 1805 H 168.986 -3.95052 0.932146 0
M  V30 1806 H 169.752 -3.4862 3.37179 0
M  V30 1807 H 165.631 -4.01496 2.26544 0
M  V30 1808 H 169.175 -3.99678 5.71755 0
M  V30 1809 H 165.072 -4.52625 4.60219 0
M  V30 1810 H 165.84 -4.74964 6.66597 0
M  V30 1811 N 168.503 -0.877838 -1.30888 0
M  V30 1812 C 169.433 -0.35534 -2.3078 0
M  V30 1813 C 170.414 0.557994 -1.60687 0
M  V30 1814 O 171.599 0.473355 -1.88343 0
M  V30 1815 C 168.729 0.437221 -3.44537 0
M  V30 1816 C 167.683 -0.383715 -4.26276 0
M  V30 1817 C 167.009 0.535014 -5.32017 0
M  V30 1818 C 168.309 -1.62201 -4.96476 0
M  V30 1819 H 170.003 -1.19007 -2.74732 0
M  V30 1820 H 167.549 -0.573698 -1.32078 0
M  V30 1821 H 169.502 0.813334 -4.13477 0
M  V30 1822 H 168.226 1.30553 -2.99372 0
M  V30 1823 H 166.885 -0.741874 -3.59015 0
M  V30 1824 H 166.533 1.40083 -4.831 0
M  V30 1825 H 166.233 -0.0104211 -5.87599 0
M  V30 1826 H 167.757 0.907799 -6.03814 0
M  V30 1827 H 169.171 -1.31689 -5.5797 0
M  V30 1828 H 167.568 -2.10711 -5.61891 0
M  V30 1829 H 168.638 -2.37044 -4.23011 0
M  V30 1830 N 169.982 1.44106 -0.638065 0
M  V30 1831 C 171.231 2.01194 -0.142744 0
M  V30 1832 C 171.544 1.50835 1.24532 0
M  V30 1833 O 172.75 2.00096 1.83504 0
M  V30 1834 C 171.206 3.59319 -0.20442 0
M  V30 1835 C 170.814 4.18674 -1.59423 0
M  V30 1836 C 172.558 4.23854 0.234079 0
M  V30 1837 C 170.465 5.69045 -1.61065 0
M  V30 1838 H 169.395 0.752367 -0.0495998 0
M  V30 1839 H 172.046 1.65246 -0.797881 0
M  V30 1840 H 170.428 3.92598 0.517946 0
M  V30 1841 H 171.602 3.96921 -2.34074 0
M  V30 1842 H 169.917 3.66453 -1.97741 0
M  V30 1843 H 172.514 5.34155 0.241443 0
M  V30 1844 H 172.857 3.96688 1.2627 0
M  V30 1845 H 173.39 3.95403 -0.436025 0
M  V30 1846 H 170.129 6.00956 -2.61787 0
M  V30 1847 H 169.649 5.929 -0.90718 0
M  V30 1848 H 171.328 6.32809 -1.34766 0
M  V30 1849 N 171.46 0.379036 1.52974 0
M  V30 1850 C 172.41 -0.477772 2.22938 0
M  V30 1851 C 173.394 -1.03792 1.22948 0
M  V30 1852 O 174.586 -0.965725 1.48333 0
M  V30 1853 C 171.715 -1.60994 3.03209 0
M  V30 1854 C 170.801 -1.06203 4.10587 0
M  V30 1855 N 171.192 -0.238214 5.05239 0
M  V30 1856 C 169.49 -1.33554 4.25534 0
M  V30 1857 C 170.191 0.0633235 5.81666 0
M  V30 1858 N 169.167 -0.537901 5.40932 0
M  V30 1859 H 172.969 0.158295 2.93473 0
M  V30 1860 H 170.483 0.187778 1.61311 0
M  V30 1861 H 172.48 -2.23607 3.5186 0
M  V30 1862 H 171.14 -2.24893 2.34207 0
M  V30 1863 H 172.151 0.123695 5.17752 0
M  V30 1864 H 168.828 -1.97632 3.6776 0
M  V30 1865 H 170.218 0.730161 6.67921 0
M  V30 1866 N 172.938 -1.57226 0.108567 0
M  V30 1867 C 174.185 -1.94833 -0.551943 0
M  V30 1868 C 174.513 -0.991204 -1.67348 0
M  V30 1869 O 173.768 -0.0131878 -1.95696 0
M  V30 1870 C 174.067 -3.38911 -1.13463 0
M  V30 1871 C 173.733 -4.50696 -0.135509 0
M  V30 1872 C 172.395 -4.80998 0.139252 0
M  V30 1873 C 174.747 -5.18333 0.545957 0
M  V30 1874 C 172.075 -5.76259 1.10194 0
M  V30 1875 C 174.427 -6.14627 1.49721 0
M  V30 1876 C 173.091 -6.43327 1.78006 0
M  V30 1877 H 172.361 -0.712944 -0.20197 0
M  V30 1878 H 175.008 -1.90582 0.18726 0
M  V30 1879 H 173.313 -3.39805 -1.95037 0
M  V30 1880 H 175.01 -3.65317 -1.65362 0
M  V30 1881 H 171.6 -4.27087 -0.359846 0
M  V30 1882 H 175.784 -4.95087 0.346842 0
M  V30 1883 H 171.04 -5.96804 1.32795 0
M  V30 1884 H 175.214 -6.66126 2.03099 0
M  V30 1885 H 172.841 -7.1695 2.52759 0
M  V30 1886 N 174.416 0.165178 -1.56732 0
M  V30 1887 C 175.827 0.727046 -1.71962 0
M  V30 1888 C 176.178 1.82508 -0.720078 0
M  V30 1889 O 175.303 2.16082 0.117242 0
M  V30 1890 C 175.898 1.32559 -3.11791 0
M  V30 1891 C 174.457 1.83422 -3.28684 0
M  V30 1892 C 173.604 0.715567 -2.67908 0
M  V30 1893 H 176.555 -0.0602896 -1.58585 0
M  V30 1894 H 176.576 2.19533 -3.10782 0
M  V30 1895 H 176.088 0.526195 -3.84516 0
M  V30 1896 H 174.189 2.65986 -2.60926 0
M  V30 1897 H 174.302 1.97543 -4.36478 0
M  V30 1898 H 172.666 1.13758 -2.27884 0
M  V30 1899 H 173.449 -0.0720836 -3.43224 0
M  V30 1900 N 175.894 1.51508 0.433938 0
M  V30 1901 C 177.14 1.64588 1.18484 0
M  V30 1902 C 177.473 0.362666 1.90784 0
M  V30 1903 O 176.748 -0.637892 1.83742 0
M  V30 1904 C 177.031 2.85149 2.19913 0
M  V30 1905 C 176.884 4.23456 1.51674 0
M  V30 1906 C 178.203 3.01227 3.20858 0
M  V30 1907 H 175.322 0.598994 0.429389 0
M  V30 1908 H 177.964 1.84002 0.473647 0
M  V30 1909 H 176.114 2.68729 2.80566 0
M  V30 1910 H 177.786 4.51552 0.943322 0
M  V30 1911 H 176.029 4.25998 0.819035 0
M  V30 1912 H 176.7 5.03812 2.2556 0
M  V30 1913 H 179.176 3.16382 2.70263 0
M  V30 1914 H 178.052 3.87141 3.89118 0
M  V30 1915 H 178.313 2.13447 3.8716 0
M  V30 1916 N 177.372 -0.689602 1.41712 0
M  V30 1917 C 178.597 -1.48329 1.44959 0
M  V30 1918 C 179.022 -1.8801 0.0581283 0
M  V30 1919 O 178.38 -1.55026 -0.940035 0
M  V30 1920 C 178.428 -2.71835 2.36935 0
M  V30 1921 O 177.532 -3.69549 1.8305 0
M  V30 1922 H 176.873 -0.446199 0.491734 0
M  V30 1923 H 179.403 -0.847127 1.86239 0
M  V30 1924 H 179.413 -3.20076 2.53013 0
M  V30 1925 H 178.088 -2.42291 3.38035 0
M  V30 1926 H 176.665 -3.2851 1.76452 0
M  V30 1927 N 178.85 -1.27639 -0.924453 0
M  V30 1928 C 180.096 -1.14336 -1.67497 0
M  V30 1929 C 180.429 0.309465 -1.91718 0
M  V30 1930 O 179.704 1.22608 -1.50989 0
M  V30 1931 C 179.987 -1.93096 -3.0395 0
M  V30 1932 C 179.84 -3.46381 -2.8695 0
M  V30 1933 C 181.159 -1.73798 -4.0433 0
M  V30 1934 H 178.278 -0.416728 -0.607871 0
M  V30 1935 H 180.92 -1.56832 -1.07256 0
M  V30 1936 H 179.07 -1.56982 -3.55372 0
M  V30 1937 H 180.742 -3.92343 -2.42621 0
M  V30 1938 H 178.985 -3.72557 -2.22225 0
M  V30 1939 H 179.656 -3.96735 -3.83804 0
M  V30 1940 H 182.132 -2.05293 -3.61931 0
M  V30 1941 H 181.008 -2.31294 -4.97789 0
M  V30 1942 H 181.269 -0.686725 -4.36734 0
M  V30 1943 N 180.328 1.1314 -1.09713 0
M  V30 1944 C 181.275 2.18642 -0.739196 0
M  V30 1945 C 182.245 1.63706 0.280978 0
M  V30 1946 O 183.43 1.90111 0.161946 0
M  V30 1947 C 180.57 3.44685 -0.169102 0
M  V30 1948 C 179.683 4.13711 -1.24367 0
M  V30 1949 C 178.818 5.27379 -0.636019 0
M  V30 1950 C 177.857 5.88259 -1.69169 0
M  V30 1951 N 176.994 6.93352 -1.10485 0
M  V30 1952 H 181.834 2.48607 -1.64312 0
M  V30 1953 H 179.371 1.22066 -0.820875 0
M  V30 1954 H 181.329 4.16815 0.179256 0
M  V30 1955 H 179.959 3.15161 0.698079 0
M  V30 1956 H 179.011 3.39835 -1.70927 0
M  V30 1957 H 180.323 4.55037 -2.04311 0
M  V30 1958 H 179.477 6.06238 -0.236677 0
M  V30 1959 H 178.216 4.8731 0.194928 0
M  V30 1960 H 177.221 5.08092 -2.10055 0
M  V30 1961 H 178.446 6.30399 -2.52536 0
M  V30 1962 H 176.392 6.55335 -0.295234 0
M  V30 1963 H 176.309 7.33236 -1.84121 0
M  V30 1964 H 177.577 7.76057 -0.73181 0
M  V30 1965 N 181.806 0.884767 1.30421 0
M  V30 1966 C 183.217 0.553656 1.78302 0
M  V30 1967 C 183.568 -0.930153 1.7275 0
M  V30 1968 O 182.693 -1.72681 1.30423 0
M  V30 1969 C 183.288 0.998234 3.2376 0
M  V30 1970 C 181.847 0.71854 3.69478 0
M  V30 1971 C 180.994 1.18132 2.50879 0
M  V30 1972 H 183.945 1.06901 1.17294 0
M  V30 1973 H 183.966 0.327118 3.79091 0
M  V30 1974 H 183.478 2.0782 3.27769 0
M  V30 1975 H 181.579 -0.349444 3.70958 0
M  V30 1976 H 181.692 1.30595 4.60958 0
M  V30 1977 H 180.056 0.600669 2.47516 0
M  V30 1978 H 180.839 2.26902 2.57624 0
M  V30 1979 N 183.284 -1.43765 0.645699 0
M  V30 1980 C 184.532 -2.01499 0.155731 0
M  V30 1981 C 184.853 -1.51151 -1.232 0
M  V30 1982 O 184.123 -0.721044 -1.82148 0
M  V30 1983 H 182.703 -0.745003 0.0545817 0
M  V30 1984 H 185.365 -1.76075 0.835677 0
M  V30 1985 H 184.461 -3.1181 0.134577 0
M  V30 1986 N 184.763 -0.387143 -1.52771 0
M  V30 1987 C 185.673 0.456442 -2.30117 0
M  V30 1988 C 186.689 1.07342 -1.36944 0
M  V30 1989 O 187.865 1.07971 -1.70013 0
M  V30 1990 C 184.93 1.56957 -3.09136 0
M  V30 1991 C 183.991 0.977916 -4.18014 0
M  V30 1992 C 183.224 2.038 -4.93256 0
M  V30 1993 O 183.447 3.25271 -4.68567 0
M  V30 1994 O 182.381 1.6565 -5.78657 0
M  V30 1995 H 186.207 -0.17359 -3.03203 0
M  V30 1996 H 183.792 -0.150919 -1.48636 0
M  V30 1997 H 185.674 2.21628 -3.58412 0
M  V30 1998 H 184.349 2.18461 -2.38865 0
M  V30 1999 H 183.256 0.294525 -3.72939 0
M  V30 2000 H 184.589 0.407128 -4.90513 0
M  V30 2001 N 186.241 1.57166 -0.116904 0
M  V30 2002 C 187.151 2.18745 0.847812 0
M  V30 2003 C 188.167 1.163 1.29423 0
M  V30 2004 O 189.343 1.48761 1.35765 0
M  V30 2005 C 186.408 2.77307 2.0809 0
M  V30 2006 C 185.469 3.94781 1.68661 0
M  V30 2007 C 184.702 4.50541 2.86091 0
M  V30 2008 O 184.925 4.05202 4.01456 0
M  V30 2009 O 183.859 5.41256 2.63298 0
M  V30 2010 H 187.685 3.01632 0.353778 0
M  V30 2011 H 185.27 1.49005 0.108599 0
M  V30 2012 H 187.152 3.14647 2.80313 0
M  V30 2013 H 185.827 1.97452 2.56504 0
M  V30 2014 H 184.734 3.62214 0.935518 0
M  V30 2015 H 186.067 4.76065 1.24991 0
M  V30 2016 N 187.719 -0.156864 1.56817 0
M  V30 2017 C 188.965 -0.872416 1.83076 0
M  V30 2018 C 189.298 -1.81261 0.697001 0
M  V30 2019 O 188.573 -1.92171 -0.30008 0
M  V30 2020 C 188.856 -1.65551 3.19789 0
M  V30 2021 C 188.709 -0.737467 4.43713 0
M  V30 2022 C 190.028 -2.62012 3.53606 0
M  V30 2023 H 187.147 -0.315715 0.665953 0
M  V30 2024 H 189.789 -0.138004 1.89498 0
M  V30 2025 H 187.939 -2.28159 3.14445 0
M  V30 2026 H 189.611 -0.123143 4.61136 0
M  V30 2027 H 187.854 -0.0464067 4.33775 0
M  V30 2028 H 188.525 -1.32122 5.35955 0
M  V30 2029 H 191.001 -2.09525 3.59497 0
M  V30 2030 H 189.877 -3.13861 4.50314 0
M  V30 2031 H 190.138 -3.42902 2.79053 0
M  V30 2032 N 189.197 -1.51736 -0.425897 0
M  V30 2033 C 190.446 -1.64201 -1.17136 0
M  V30 2034 C 190.759 -0.369705 -1.92074 0
M  V30 2035 O 191.965 -0.373898 -2.68913 0
M  V30 2036 C 190.421 -2.90035 -2.13091 0
M  V30 2037 C 190.029 -4.24312 -1.43747 0
M  V30 2038 C 191.773 -3.1186 -2.87999 0
M  V30 2039 C 189.68 -5.41285 -2.38253 0
M  V30 2040 H 188.61 -0.611624 -0.440944 0
M  V30 2041 H 191.261 -1.78212 -0.437328 0
M  V30 2042 H 189.643 -2.69684 -2.89977 0
M  V30 2043 H 190.817 -4.55086 -0.723408 0
M  V30 2044 H 189.132 -4.08456 -0.809465 0
M  V30 2045 H 191.729 -3.96427 -3.58817 0
M  V30 2046 H 192.072 -2.25403 -3.49999 0
M  V30 2047 H 192.605 -3.32605 -2.18217 0
M  V30 2048 H 189.344 -6.30037 -1.80925 0
M  V30 2049 H 188.864 -5.14872 -3.0768 0
M  V30 2050 H 190.543 -5.73694 -2.99139 0
M  V30 2051 N 190.675 0.682077 -1.42076 0
M  V30 2052 C 192.086 1.26246 -1.37546 0
M  V30 2053 C 192.437 1.96092 -0.0651481 0
M  V30 2054 O 191.562 1.99587 0.836297 0
M  V30 2055 C 192.157 2.29594 -2.49143 0
M  V30 2056 C 190.716 2.83175 -2.47969 0
M  V30 2057 C 189.863 1.57395 -2.28303 0
M  V30 2058 H 192.814 0.475937 -1.51395 0
M  V30 2059 H 192.835 3.11175 -2.18976 0
M  V30 2060 H 192.347 1.78729 -3.44496 0
M  V30 2061 H 190.448 3.3818 -1.56413 0
M  V30 2062 H 190.561 3.32687 -3.44755 0
M  V30 2063 H 188.925 1.83699 -1.76428 0
M  V30 2064 H 189.708 1.08507 -3.25701 0
M  V30 2065 N 192.153 1.28127 0.917671 0
M  V30 2066 C 193.1 1.11717 2.0196 0
M  V30 2067 C 194.07 0.0153929 1.66093 0
M  V30 2068 O 195.255 0.179596 1.89953 0
M  V30 2069 C 192.395 0.780927 3.36148 0
M  V30 2070 C 191.508 1.96135 3.84909 0
M  V30 2071 C 190.643 1.56609 5.0759 0
M  V30 2072 C 189.682 2.71339 5.48673 0
M  V30 2073 N 188.819 2.32332 6.62545 0
M  V30 2074 H 193.659 2.06003 2.15329 0
M  V30 2075 H 191.196 1.02535 1.05475 0
M  V30 2076 H 193.154 0.56675 4.13333 0
M  V30 2077 H 191.784 -0.124998 3.22558 0
M  V30 2078 H 190.836 2.28777 3.03916 0
M  V30 2079 H 192.148 2.82165 4.1132 0
M  V30 2080 H 191.302 1.31374 5.92305 0
M  V30 2081 H 190.041 0.677014 4.82978 0
M  V30 2082 H 189.046 2.97276 4.62501 0
M  V30 2083 H 190.271 3.60882 5.75274 0
M  V30 2084 H 188.217 1.45889 6.39572 0
M  V30 2085 H 188.134 3.11899 6.88662 0
M  V30 2086 H 189.402 2.10371 7.50576 0
M  V30 2087 N 193.631 -1.12557 1.10312 0
M  V30 2088 C 194.908 -1.80363 0.756878 0
M  V30 2089 C 195.288 -1.97067 -0.756824 0
M  V30 2090 O 194.636 -1.54601 -1.68259 0
M  V30 2091 C 194.846 -3.14812 1.50647 0
M  V30 2092 C 196.194 -3.90029 1.67817 0
M  V30 2093 O 197.218 -3.24464 1.46974 0
M  V30 2094 O 196.077 -5.07652 2.02365 0
M  V30 2095 H 193.171 -0.780667 0.272926 0
M  V30 2096 H 195.717 -1.19404 1.20586 0
M  V30 2097 H 194.489 -2.97936 2.53672 0
M  V30 2098 H 194.112 -3.83478 1.05026 0
M  V30 2099 N 195.109 -0.891671 -1.2995 0
M  V30 2100 C 196.019 -0.367691 -2.31701 0
M  V30 2101 C 197.035 0.533486 -1.6562 0
M  V30 2102 O 198.211 0.424997 -1.96865 0
M  V30 2103 C 195.276 0.403406 -3.44345 0
M  V30 2104 C 194.337 -0.528328 -4.26037 0
M  V30 2105 C 193.57 0.206063 -5.33302 0
M  V30 2106 O 193.793 1.43119 -5.52153 0
M  V30 2107 O 192.727 -0.447281 -6.00236 0
M  V30 2108 H 196.553 -1.21163 -2.78484 0
M  V30 2109 H 194.138 -0.655725 -1.34241 0
M  V30 2110 H 196.02 0.839753 -4.12948 0
M  V30 2111 H 194.695 1.22354 -2.99685 0
M  V30 2112 H 193.602 -1.01362 -3.60106 0
M  V30 2113 H 194.935 -1.31465 -4.74318 0
M  V30 2114 N 196.587 1.43421 -0.653314 0
M  V30 2115 C 197.535 2.32546 0.0501531 0
M  V30 2116 C 198.529 1.48617 0.812985 0
M  V30 2117 O 199.735 1.64825 0.723375 0
M  V30 2118 H 196.11 0.751185 0.0350032 0
M  V30 2119 H 198.081 2.89602 -0.719261 0
M  V30 2120 C 196.83 3.32925 1.00279 0
M  V30 2121 H 196.153 3.97532 0.425236 0
M  V30 2122 H 197.593 3.9792 1.46409 0
M  V30 2123 C 196.052 2.63532 2.09886 0
M  V30 2124 O 196.582 2.45092 3.18265 0
M  V30 2125 N 194.788 2.22905 1.86445 0
M  V30 2126 H 194.335 2.38103 0.98309 0
M  V30 2127 H 194.293 1.76805 2.59976 0
M  V30 2128 N 198.065 0.39524 1.52563 0
M  V30 2129 C 199.313 -0.184678 2.01254 0
M  V30 2130 C 199.634 -1.46822 1.28329 0
M  V30 2131 O 198.904 -1.91666 0.405094 0
M  V30 2132 H 197.484 -0.0712355 0.743596 0
M  V30 2133 H 200.146 0.528293 1.87603 0
M  V30 2134 H 199.242 -0.390681 3.09645 0
M  V30 2135 N 199.544 -1.57102 0.125237 0
M  V30 2136 C 200.491 -2.15641 -0.822655 0
M  V30 2137 C 201.461 -1.08313 -1.25927 0
M  V30 2138 O 202.646 -1.36251 -1.33567 0
M  V30 2139 C 199.786 -2.76504 -2.06494 0
M  V30 2140 C 198.899 -3.98158 -1.67612 0
M  V30 2141 C 198.034 -4.47088 -2.86854 0
M  V30 2142 C 197.073 -5.6126 -2.44242 0
M  V30 2143 N 196.21 -6.04905 -3.56419 0
M  V30 2144 H 201.05 -2.96313 -0.316625 0
M  V30 2145 H 198.587 -1.46388 -0.144588 0
M  V30 2146 H 200.545 -3.09925 -2.79289 0
M  V30 2147 H 199.175 -1.98512 -2.54545 0
M  V30 2148 H 198.227 -3.70858 -0.846661 0
M  V30 2149 H 199.539 -4.80934 -1.32301 0
M  V30 2150 H 198.693 -4.82451 -3.67867 0
M  V30 2151 H 197.432 -3.63275 -3.25396 0
M  V30 2152 H 196.437 -5.25495 -1.61663 0
M  V30 2153 H 197.662 -6.46843 -2.0681 0
M  V30 2154 H 195.608 -5.24032 -3.94623 0
M  V30 2155 H 195.525 -6.82552 -3.25051 0
M  V30 2156 H 196.793 -6.44907 -4.37853 0
M  V30 2157 N 201.022 0.148545 -1.56898 0
M  V30 2158 C 202.271 0.85984 -1.82454 0
M  V30 2159 C 202.584 1.82406 -0.706229 0
M  V30 2160 O 203.79 2.57938 -0.847349 0
M  V30 2161 C 202.246 1.57967 -3.2338 0
M  V30 2162 C 201.854 0.65794 -4.43142 0
M  V30 2163 C 203.598 2.27784 -3.58211 0
M  V30 2164 C 201.505 1.3793 -5.75091 0
M  V30 2165 H 200.435 0.324834 -0.68044 0
M  V30 2166 H 203.086 0.112588 -1.83154 0
M  V30 2167 H 201.468 2.37249 -3.17063 0
M  V30 2168 H 202.642 -0.0995497 -4.60692 0
M  V30 2169 H 200.957 0.0682643 -4.16344 0
M  V30 2170 H 203.554 2.8239 -4.54048 0
M  V30 2171 H 203.897 3.04204 -2.84193 0
M  V30 2172 H 204.43 1.55421 -3.66182 0
M  V30 2173 H 201.169 0.656982 -6.52199 0
M  V30 2174 H 200.689 2.10954 -5.61479 0
M  V30 2175 H 202.368 1.92063 -6.17835 0
M  V30 2176 N 202.5 1.5196 0.417844 0
M  V30 2177 C 203.43 1.77634 1.51554 0
M  V30 2178 C 204.411 0.626918 1.58126 0
M  V30 2179 O 205.596 0.871632 1.7354 0
M  V30 2180 C 202.726 1.91911 2.8946 0
M  V30 2181 C 201.68 3.07463 2.97743 0
M  V30 2182 C 201.006 3.06951 4.37819 0
M  V30 2183 C 202.306 4.47082 2.70027 0
M  V30 2184 H 204 2.6955 1.3032 0
M  V30 2185 H 201.546 1.29706 0.625492 0
M  V30 2186 H 203.499 2.08455 3.6623 0
M  V30 2187 H 202.223 0.966598 3.11969 0
M  V30 2188 H 200.882 2.90656 2.23416 0
M  V30 2189 H 200.53 2.09438 4.57323 0
M  V30 2190 H 200.23 3.84556 4.44286 0
M  V30 2191 H 201.754 3.25613 5.16535 0
M  V30 2192 H 203.168 4.6414 3.36522 0
M  V30 2193 H 201.565 5.2654 2.87881 0
M  V30 2194 H 202.635 4.55777 1.65514 0
M  V30 2195 N 203.978 -0.674533 1.42435 0
M  V30 2196 C 205.225 -1.43459 1.42919 0
M  V30 2197 C 205.553 -1.94446 0.0457312 0
M  V30 2198 O 204.808 -1.7132 -0.94593 0
M  V30 2199 C 205.107 -2.64767 2.40069 0
M  V30 2200 C 204.773 -2.3232 3.86443 0
M  V30 2201 C 203.435 -2.23182 4.26314 0
M  V30 2202 C 205.787 -2.05977 4.78773 0
M  V30 2203 C 203.115 -1.85827 5.56494 0
M  V30 2204 C 205.467 -1.70125 6.09295 0
M  V30 2205 C 204.131 -1.59498 6.48164 0
M  V30 2206 H 203.401 -0.524952 0.522978 0
M  V30 2207 H 206.048 -0.769097 1.75377 0
M  V30 2208 H 204.353 -3.36349 2.00939 0
M  V30 2209 H 206.05 -3.22949 2.37707 0
M  V30 2210 H 202.64 -2.40334 3.54877 0
M  V30 2211 H 206.824 -2.11969 4.48757 0
M  V30 2212 H 202.08 -1.76168 5.8547 0
M  V30 2213 H 206.254 -1.48767 6.80324 0
M  V30 2214 H 203.881 -1.30322 7.48946 0
M  V30 2215 N 205.456 -1.28612 -0.910864 0
M  V30 2216 C 206.733 -1.06632 -1.63979 0
M  V30 2217 C 207.113 0.393351 -2.07403 0
M  V30 2218 O 206.461 1.37999 -1.82122 0
M  V30 2219 C 206.671 -2.0436 -2.8291 0
M  V30 2220 C 208.019 -2.34666 -3.5386 0
M  V30 2221 O 209.043 -2.02467 -2.93062 0
M  V30 2222 O 207.902 -2.89631 -4.63439 0
M  V30 2223 H 204.996 -0.407737 -0.7195 0
M  V30 2224 H 207.542 -1.39942 -0.959914 0
M  V30 2225 H 206.314 -3.02727 -2.47936 0
M  V30 2226 H 205.937 -1.71714 -3.58609 0
M  V30 2227 N 206.934 1.1197 -1.10907 0
M  V30 2228 C 208.162 1.87402 -0.876824 0
M  V30 2229 C 208.577 1.79894 0.573025 0
M  V30 2230 O 207.934 1.17629 1.39534 0
M  V30 2231 C 207.985 3.36428 -1.32282 0
M  V30 2232 O 207.706 3.43765 -2.71582 0
M  V30 2233 C 209.207 4.28783 -1.12518 0
M  V30 2234 H 206.427 0.592793 -0.314384 0
M  V30 2235 H 208.971 1.41649 -1.47499 0
M  V30 2236 H 207.126 3.79706 -0.768229 0
M  V30 2237 H 207.54 4.3652 -2.90776 0
M  V30 2238 H 209.014 5.31613 -1.48633 0
M  V30 2239 H 209.491 4.39153 -0.0642394 0
M  V30 2240 H 210.097 3.91291 -1.66648 0
M  V30 2241 N 208.412 0.89855 1.29475 0
M  V30 2242 C 209.658 0.524658 1.95896 0
M  V30 2243 C 209.991 -0.926468 1.70676 0
M  V30 2244 O 209.266 -1.65665 1.01908 0
M  V30 2245 C 209.549 0.81633 3.50725 0
M  V30 2246 C 209.402 2.31907 3.85408 0
M  V30 2247 C 210.721 0.302038 4.39062 0
M  V30 2248 H 207.84 0.19209 0.711527 0
M  V30 2249 H 210.482 1.12502 1.53112 0
M  V30 2250 H 208.632 0.305369 3.87298 0
M  V30 2251 H 210.304 2.89949 3.58786 0
M  V30 2252 H 208.547 2.78027 3.32992 0
M  V30 2253 H 209.218 2.47373 4.93468 0
M  V30 2254 H 211.694 0.739551 4.09475 0
M  V30 2255 H 210.57 0.535331 5.46283 0
M  V30 2256 H 210.831 -0.797216 4.34853 0
M  V30 2257 N 209.89 -1.43072 0.660911 0
M  V30 2258 C 211.167 -1.95307 0.107017 0
M  V30 2259 C 211.547 -1.60192 -1.37484 0
M  V30 2260 O 210.895 -0.890949 -2.10415 0
M  V30 2261 C 211.105 -3.47124 0.361402 0
M  V30 2262 C 212.453 -4.23738 0.270455 0
M  V30 2263 O 213.477 -3.54981 0.294382 0
M  V30 2264 O 212.336 -5.46131 0.200737 0
M  V30 2265 H 209.43 -0.826984 -0.00517729 0
M  V30 2266 H 211.976 -1.52972 0.734681 0
M  V30 2267 H 210.748 -3.65837 1.38848 0
M  V30 2268 H 210.371 -3.96475 -0.298953 0
M  V30 2269 N 211.368 -0.403325 -1.52352 0
M  V30 2270 C 212.298 0.416205 -2.29761 0
M  V30 2271 C 213.279 1.05123 -1.33728 0
M  V30 2272 O 214.464 1.06134 -1.62632 0
M  V30 2273 C 211.594 1.53624 -3.11475 0
M  V30 2274 C 210.548 1.02653 -4.15507 0
M  V30 2275 C 209.874 2.23971 -4.85532 0
M  V30 2276 C 211.174 0.08463 -5.22231 0
M  V30 2277 H 212.868 -0.229701 -2.98518 0
M  V30 2278 H 210.414 -0.111913 -1.43564 0
M  V30 2279 H 212.367 2.1165 -3.64393 0
M  V30 2280 H 211.091 2.20994 -2.40477 0
M  V30 2281 H 209.75 0.46871 -3.63591 0
M  V30 2282 H 209.398 2.89883 -4.11068 0
M  V30 2283 H 209.098 1.90521 -5.55856 0
M  V30 2284 H 210.622 2.82614 -5.41259 0
M  V30 2285 H 212.036 0.573509 -5.70424 0
M  V30 2286 H 210.433 -0.160783 -5.99885 0
M  V30 2287 H 211.503 -0.86237 -4.7717 0
M  V30 2288 N 212.846 1.57033 -0.133567 0
M  V30 2289 C 214.086 1.97575 0.523789 0
M  V30 2290 C 214.45 1.01605 1.62912 0
M  V30 2291 O 215.651 1.3114 2.3464 0
M  V30 2292 C 213.922 3.42256 1.02935 0
M  V30 2293 S 215.481 4.04817 1.69319 0
M  V30 2294 H 212.299 0.690427 0.169799 0
M  V30 2295 H 214.901 1.94234 -0.222101 0
M  V30 2296 H 213.605 4.09842 0.213917 0
M  V30 2297 H 213.136 3.4928 1.81017 0
M  V30 2298 H 215.151 3.96767 2.97977 0
M  V30 2299 N 214.325 -0.140222 1.56975 0
M  V30 2300 C 215.288 -1.15689 1.97861 0
M  V30 2301 C 216.288 -1.3549 0.865974 0
M  V30 2302 O 217.478 -1.32367 1.13246 0
M  V30 2303 C 214.61 -2.51582 2.30042 0
M  V30 2304 H 215.803 -0.805971 2.88867 0
M  V30 2305 H 213.356 -0.383801 1.51515 0
M  V30 2306 H 214.091 -2.91632 1.41849 0
M  V30 2307 H 213.876 -2.38569 3.11171 0
M  V30 2308 H 215.366 -3.24792 2.62488 0
M  V30 2309 N 215.803 -1.52179 -0.40978 0
M  V30 2310 C 217.031 -1.70054 -1.17853 0
M  V30 2311 C 217.446 -0.409735 -1.843 0
M  V30 2312 O 216.803 0.614183 -1.71855 0
M  V30 2313 C 216.854 -2.83568 -2.24213 0
M  V30 2314 O 216.575 -4.0765 -1.60478 0
M  V30 2315 C 218.076 -3.12947 -3.13973 0
M  V30 2316 H 215.296 -0.569917 -0.354169 0
M  V30 2317 H 217.84 -1.98734 -0.482198 0
M  V30 2318 H 215.995 -2.57409 -2.89516 0
M  V30 2319 H 216.409 -4.70899 -2.30986 0
M  V30 2320 H 217.883 -3.95889 -3.84677 0
M  V30 2321 H 218.36 -2.26472 -3.76307 0
M  V30 2322 H 218.966 -3.40868 -2.5434 0
M  V30 2323 N 217.281 0.66697 -1.42791 0
M  V30 2324 C 218.527 1.42754 -1.44889 0
M  V30 2325 C 218.882 1.92283 -0.0669755 0
M  V30 2326 O 218.175 1.68494 0.912154 0
M  V30 2327 C 218.369 2.6349 -2.4147 0
M  V30 2328 C 218.198 2.25776 -3.88915 0
M  V30 2329 C 216.968 2.1476 -4.57391 0
M  V30 2330 C 219.166 1.86927 -4.79127 0
M  V30 2331 N 217.148 1.70232 -5.89826 0
M  V30 2332 C 218.519 1.53378 -6.00729 0
M  V30 2333 C 220.574 1.73989 -4.66511 0
M  V30 2334 C 219.277 1.08187 -7.11117 0
M  V30 2335 C 221.303 1.30203 -5.76889 0
M  V30 2336 C 220.665 0.975818 -6.97608 0
M  V30 2337 H 216.764 0.518559 -0.585338 0
M  V30 2338 H 219.348 0.768906 -1.78874 0
M  V30 2339 H 217.519 3.27033 -2.09533 0
M  V30 2340 H 219.251 3.30123 -2.34096 0
M  V30 2341 H 216.006 2.3408 -4.11708 0
M  V30 2342 H 216.43 1.50369 -6.6009 0
M  V30 2343 H 221.072 1.97853 -3.7365 0
M  V30 2344 H 218.79 0.830701 -8.03819 0
M  V30 2345 H 222.376 1.20701 -5.69142 0
M  V30 2346 H 221.256 0.642157 -7.81566 0
M  V30 2347 N 218.759 1.29093 0.90403 0
M  V30 2348 C 219.669 1.15727 2.0407 0
M  V30 2349 C 220.685 0.0815308 1.73809 0
M  V30 2350 O 221.861 0.292749 1.99261 0
M  V30 2351 C 218.926 0.830424 3.36608 0
M  V30 2352 C 217.987 1.98955 3.80415 0
M  V30 2353 C 217.22 1.6782 5.06628 0
M  V30 2354 O 217.443 0.597105 5.67266 0
M  V30 2355 O 216.377 2.52486 5.46383 0
M  V30 2356 H 220.203 2.11171 2.18267 0
M  V30 2357 H 217.788 1.08504 1.027 0
M  V30 2358 H 219.67 0.662521 4.16159 0
M  V30 2359 H 218.345 -0.0942678 3.23563 0
M  V30 2360 H 217.252 2.21267 3.01648 0
M  V30 2361 H 218.585 2.89529 3.98037 0
M  V30 2362 N 220.237 -1.11381 1.11499 0
M  V30 2363 C 221.2 -2.15622 0.777153 0
M  V30 2364 C 222.2 -1.59504 -0.203779 0
M  V30 2365 O 223.39 -1.74188 0.020782 0
M  V30 2366 C 220.522 -3.40556 0.153116 0
M  V30 2367 H 221.715 -2.47021 1.70061 0
M  V30 2368 H 219.268 -1.26577 0.916952 0
M  V30 2369 H 220.003 -3.14767 -0.780536 0
M  V30 2370 H 219.788 -3.8257 0.859238 0
M  V30 2371 H 221.278 -4.17546 -0.0671044 0
M  V30 2372 N 221.715 -0.905404 -1.28997 0
M  V30 2373 C 222.648 -0.331959 -2.25773 0
M  V30 2374 C 223.626 0.559099 -1.52685 0
M  V30 2375 O 224.81 0.50463 -1.8162 0
M  V30 2376 C 221.937 0.526276 -3.34586 0
M  V30 2377 C 220.983 -0.298249 -4.25456 0
M  V30 2378 S 221.816 -1.69968 -5.0781 0
M  V30 2379 C 222.972 -0.848519 -6.20122 0
M  V30 2380 H 223.205 -1.15222 -2.74064 0
M  V30 2381 H 220.738 -0.706112 -1.37308 0
M  V30 2382 H 222.696 1.01565 -3.97737 0
M  V30 2383 H 221.357 1.32084 -2.84978 0
M  V30 2384 H 220.55 0.357607 -5.0273 0
M  V30 2385 H 220.152 -0.720968 -3.66985 0
M  V30 2386 H 222.444 -0.0744325 -6.77459 0
M  V30 2387 H 223.387 -1.59353 -6.89937 0
M  V30 2388 H 223.795 -0.400383 -5.63078 0
M  V30 2389 N 223.193 1.4272 -0.668489 0
M  V30 2390 C 224.103 2.34596 0.0139753 0
M  V30 2391 C 225.119 1.5474 0.795703 0
M  V30 2392 O 226.295 1.87334 0.739466 0
M  V30 2393 C 223.36 3.33202 0.957982 0
M  V30 2394 C 222.421 4.28957 0.17149 0
M  V30 2395 C 221.654 5.22853 1.07053 0
M  V30 2396 O 221.877 5.21531 2.31001 0
M  V30 2397 O 220.811 5.9952 0.534727 0
M  V30 2398 H 224.637 2.9448 -0.742661 0
M  V30 2399 H 222.222 1.43117 -0.428705 0
M  V30 2400 H 224.104 3.93796 1.50008 0
M  V30 2401 H 222.779 2.758 1.69458 0
M  V30 2402 H 221.686 3.71796 -0.414558 0
M  V30 2403 H 223.019 4.89383 -0.52586 0
M  V30 2404 N 224.671 0.411399 1.52136 0
M  V30 2405 C 225.618 -0.412975 2.27075 0
M  V30 2406 C 226.588 -1.03912 1.29582 0
M  V30 2407 O 227.773 -1.06296 1.58448 0
M  V30 2408 C 224.913 -1.52247 3.09701 0
M  V30 2409 C 224.026 -0.917021 4.22155 0
M  V30 2410 C 223.161 -1.9994 4.92135 0
M  V30 2411 C 222.2 -1.37101 5.96548 0
M  V30 2412 N 221.337 -2.39364 6.60038 0
M  V30 2413 H 226.177 0.232499 2.97092 0
M  V30 2414 H 223.714 0.126496 1.46555 0
M  V30 2415 H 225.672 -2.17674 3.55913 0
M  V30 2416 H 224.302 -2.13794 2.41851 0
M  V30 2417 H 223.354 -0.151742 3.80097 0
M  V30 2418 H 224.666 -0.418006 4.97045 0
M  V30 2419 H 223.82 -2.73088 5.41763 0
M  V30 2420 H 222.559 -2.53208 4.16818 0
M  V30 2421 H 221.564 -0.624873 5.46237 0
M  V30 2422 H 222.789 -0.845998 6.7381 0
M  V30 2423 H 220.735 -2.91759 5.87548 0
M  V30 2424 H 220.652 -1.9428 7.3061 0
M  V30 2425 H 221.92 -3.12074 7.14304 0
M  V30 2426 N 226.149 -1.5696 0.141893 0
M  V30 2427 C 227.389 -1.9785 -0.513304 0
M  V30 2428 C 227.753 -1.02467 -1.62371 0
M  V30 2429 O 228.954 -1.32382 -2.33941 0
M  V30 2430 C 227.225 -3.42797 -1.01118 0
M  V30 2431 S 228.784 -4.05709 -1.67169 0
M  V30 2432 H 225.602 -0.691318 -0.166135 0
M  V30 2433 H 228.204 -1.94114 0.232398 0
M  V30 2434 H 226.908 -4.0995 -0.192179 0
M  V30 2435 H 226.439 -3.50235 -1.79162 0
M  V30 2436 H 228.454 -3.98342 -2.95868 0
M  V30 2437 N 227.627 0.131896 -1.57047 0
M  V30 2438 C 228.574 1.16236 -1.99393 0
M  V30 2439 C 229.544 1.41863 -0.863943 0
M  V30 2440 O 230.729 1.53946 -1.12718 0
M  V30 2441 C 227.869 2.48708 -2.39245 0
M  V30 2442 C 226.982 2.30127 -3.65603 0
M  V30 2443 C 226.117 3.55738 -3.94492 0
M  V30 2444 C 225.156 3.32259 -5.14073 0
M  V30 2445 N 224.293 4.50039 -5.38896 0
M  V30 2446 H 229.133 0.794251 -2.87221 0
M  V30 2447 H 226.67 0.380707 -1.42088 0
M  V30 2448 H 228.628 3.25969 -2.60384 0
M  V30 2449 H 227.258 2.83437 -1.54478 0
M  V30 2450 H 226.31 1.43845 -3.52154 0
M  V30 2451 H 227.622 2.08746 -4.5302 0
M  V30 2452 H 226.776 4.41423 -4.1621 0
M  V30 2453 H 225.515 3.80138 -3.05526 0
M  V30 2454 H 224.52 2.44963 -4.92212 0
M  V30 2455 H 225.745 3.09242 -6.04604 0
M  V30 2456 H 223.691 4.74584 -4.52886 0
M  V30 2457 H 223.608 4.31716 -6.2061 0
M  V30 2458 H 224.876 5.36895 -5.65123 0
M  V30 2459 N 229.106 1.52395 0.401703 0
M  V30 2460 C 230.383 1.57387 1.16141 0
M  V30 2461 C 230.763 0.359359 2.08019 0
M  V30 2462 O 230.111 -0.65326 2.18963 0
M  V30 2463 C 230.321 2.90631 1.93221 0
M  V30 2464 C 231.669 3.43904 2.49028 0
M  V30 2465 O 232.693 2.92421 2.03393 0
M  V30 2466 O 231.552 4.33823 3.32356 0
M  V30 2467 H 228.646 0.634262 0.530698 0
M  V30 2468 H 231.192 1.64725 0.407883 0
M  V30 2469 H 229.964 3.70473 1.25958 0
M  V30 2470 H 229.587 2.8662 2.75563 0
M  V30 2471 N 230.584 -0.659388 1.43143 0
M  V30 2472 C 231.547 -1.75432 1.47501 0
M  V30 2473 C 232.547 -1.56707 0.360512 0
M  V30 2474 O 233.737 -1.62717 0.622002 0
M  V30 2475 C 230.869 -3.14239 1.32162 0
M  V30 2476 H 232.062 -1.7295 2.45006 0
M  V30 2477 H 229.615 -0.870469 1.29817 0
M  V30 2478 H 230.35 -3.22336 0.356401 0
M  V30 2479 H 230.135 -3.29235 2.12948 0
M  V30 2480 H 231.625 -3.94094 1.3813 0
M  V30 2481 N 232.062 -1.29571 -0.897171 0
M  V30 2482 C 233.31 -1.17456 -1.64464 0
M  V30 2483 C 233.631 0.273698 -1.9307 0
M  V30 2484 O 232.901 1.18684 -1.55855 0
M  V30 2485 H 231.481 -0.431706 -0.609622 0
M  V30 2486 H 234.143 -1.62531 -1.07562 0
M  V30 2487 H 233.239 -1.72648 -2.59998 0
M  V30 2488 N 233.54 1.10788 -1.12088 0
M  V30 2489 C 234.47 2.19083 -0.807755 0
M  V30 2490 C 235.451 1.6858 0.226859 0
M  V30 2491 O 236.636 1.93997 0.0888475 0
M  V30 2492 C 233.766 3.46344 -0.257576 0
M  V30 2493 C 232.72 4.101 -1.22483 0
M  V30 2494 C 232.046 5.32016 -0.535052 0
M  V30 2495 C 233.346 4.54236 -2.57811 0
M  V30 2496 H 235.04 2.45534 -1.71328 0
M  V30 2497 H 232.586 1.1801 -0.825205 0
M  V30 2498 H 234.539 4.21392 -0.0262679 0
M  V30 2499 H 233.263 3.19373 0.683278 0
M  V30 2500 H 231.922 3.37054 -1.44189 0
M  V30 2501 H 231.57 5.01319 0.410827 0
M  V30 2502 H 231.27 5.75625 -1.18024 0
M  V30 2503 H 232.794 6.09799 -0.312695 0
M  V30 2504 H 234.208 5.20575 -2.40155 0
M  V30 2505 H 232.605 5.08682 -3.18375 0
M  V30 2506 H 233.675 3.6734 -3.16528 0
M  V30 2507 N 235.018 0.912232 1.28515 0
M  V30 2508 C 235.981 0.404223 2.25607 0
M  V30 2509 C 236.981 -0.468602 1.53821 0
M  V30 2510 O 238.171 -0.271873 1.72065 0
M  V30 2511 C 235.303 -0.420653 3.38295 0
M  V30 2512 H 236.496 1.26188 2.7206 0
M  V30 2513 H 234.049 0.691495 1.40171 0
M  V30 2514 H 234.784 -1.29777 2.97201 0
M  V30 2515 H 234.569 0.204935 3.91564 0
M  V30 2516 H 236.059 -0.766971 4.10496 0
M  V30 2517 N 236.496 -1.42363 0.676048 0
M  V30 2518 C 237.443 -2.308 -0.00150904 0
M  V30 2519 C 238.413 -1.46032 -0.791444 0
M  V30 2520 O 239.598 -1.74861 -0.76344 0
M  V30 2521 C 236.738 -3.31883 -0.945919 0
M  V30 2522 C 235.851 -4.31741 -0.149675 0
M  V30 2523 C 234.986 -5.19898 -1.08995 0
M  V30 2524 C 234.025 -6.11434 -0.285465 0
M  V30 2525 N 233.162 -6.92138 -1.17851 0
M  V30 2526 H 238.002 -2.88187 0.758455 0
M  V30 2527 H 235.539 -1.41952 0.38576 0
M  V30 2528 H 237.497 -3.89019 -1.50731 0
M  V30 2529 H 236.127 -2.76093 -1.6725 0
M  V30 2530 H 235.179 -3.76713 0.528359 0
M  V30 2531 H 236.491 -4.96534 0.474866 0
M  V30 2532 H 235.645 -5.81772 -1.72123 0
M  V30 2533 H 234.384 -4.55284 -1.74837 0
M  V30 2534 H 233.389 -5.48627 0.359018 0
M  V30 2535 H 234.614 -6.78097 0.368883 0
M  V30 2536 H 232.56 -6.30152 -1.82332 0
M  V30 2537 H 232.477 -7.53542 -0.609082 0
M  V30 2538 H 233.745 -7.58499 -1.79722 0
M  V30 2539 N 237.974 -0.419461 -1.51915 0
M  V30 2540 C 239.199 0.154572 -2.06823 0
M  V30 2541 C 239.624 1.3722 -1.28656 0
M  V30 2542 O 238.982 1.78461 -0.319583 0
M  V30 2543 C 239.03 0.473172 -3.57482 0
M  V30 2544 O 238.134 1.56255 -3.81652 0
M  V30 2545 H 237.475 0.0096924 -0.663929 0
M  V30 2546 H 240.005 -0.595642 -1.95738 0
M  V30 2547 H 240.015 0.728825 -4.01438 0
M  V30 2548 H 238.69 -0.416873 -4.13805 0
M  V30 2549 H 237.267 1.29825 -3.49571 0
M  V30 2550 N 239.452 1.56882 -0.150215 0
M  V30 2551 C 240.701 1.95403 0.500071 0
M  V30 2552 C 241.014 1.03777 1.658 0
M  V30 2553 O 242.22 1.31889 2.37313 0
M  V30 2554 C 240.676 3.4738 0.941018 0
M  V30 2555 C 240.284 4.47596 -0.190158 0
M  V30 2556 C 242.028 3.9476 1.56091 0
M  V30 2557 C 239.935 5.90787 0.269237 0
M  V30 2558 H 238.865 0.729515 0.190588 0
M  V30 2559 H 241.516 1.81988 -0.235074 0
M  V30 2560 H 239.898 3.56138 1.73152 0
M  V30 2561 H 241.072 4.50536 -0.967157 0
M  V30 2562 H 239.387 4.10151 -0.718666 0
M  V30 2563 H 241.984 4.99181 1.9163 0
M  V30 2564 H 242.327 3.36494 2.45107 0
M  V30 2565 H 242.86 3.88932 0.835249 0
M  V30 2566 H 239.599 6.52879 -0.585621 0
M  V30 2567 H 239.119 5.912 1.01204 0
M  V30 2568 H 240.798 6.42979 0.720176 0
M  V30 2569 N 240.93 -0.123565 1.57115 0
M  V30 2570 C 242.178 -0.83051 1.84247 0
M  V30 2571 C 242.499 -1.80629 0.73471 0
M  V30 2572 O 241.769 -1.94403 -0.241688 0
M  V30 2573 H 240.349 -0.309694 0.679778 0
M  V30 2574 H 243.011 -0.111976 1.94578 0
M  V30 2575 H 242.107 -1.37852 2.80006 0
M  V30 2576 N 242.408 -1.52605 -0.393616 0
M  V30 2577 C 243.654 -1.67672 -1.14079 0
M  V30 2578 C 243.987 -0.413121 -1.89755 0
M  V30 2579 O 243.262 0.588952 -1.85369 0
M  V30 2580 C 243.545 -2.9088 -2.12276 0
M  V30 2581 C 243.398 -4.27329 -1.40394 0
M  V30 2582 C 244.717 -3.09628 -3.12759 0
M  V30 2583 H 241.836 -0.610168 -0.413356 0
M  V30 2584 H 244.478 -1.85193 -0.424696 0
M  V30 2585 H 242.628 -2.76073 -2.73342 0
M  V30 2586 H 244.3 -4.53894 -0.82327 0
M  V30 2587 H 242.543 -4.2802 -0.705801 0
M  V30 2588 H 243.214 -5.09615 -2.12123 0
M  V30 2589 H 245.69 -3.23436 -2.61779 0
M  V30 2590 H 244.566 -3.97322 -3.78717 0
M  V30 2591 H 244.827 -2.23637 -3.81365 0
M  V30 2592 N 243.887 0.651787 -1.4349 0
M  V30 2593 C 245.112 1.44434 -1.48841 0
M  V30 2594 C 245.537 1.8779 -0.107955 0
M  V30 2595 O 244.895 1.57464 0.898602 0
M  V30 2596 C 244.943 2.65458 -2.44059 0
M  V30 2597 O 244.047 3.64566 -1.92784 0
M  V30 2598 H 243.388 0.433005 -0.503391 0
M  V30 2599 H 245.918 0.797451 -1.88419 0
M  V30 2600 H 245.928 3.13255 -2.6141 0
M  V30 2601 H 244.603 2.33244 -3.4434 0
M  V30 2602 H 243.18 3.23716 -1.851 0
M  V30 2603 N 245.365 1.30045 0.890287 0
M  V30 2604 C 246.313 1.15873 2.01683 0
M  V30 2605 C 247.307 0.0719403 1.69247 0
M  V30 2606 O 248.513 0.232414 1.78493 0
M  V30 2607 H 244.888 0.358203 0.661207 0
M  V30 2608 H 246.859 2.11229 2.10772 0
M  V30 2609 C 245.608 0.861842 3.36849 0
M  V30 2610 H 244.931 1.69016 3.62317 0
M  V30 2611 H 246.371 0.802762 4.16331 0
M  V30 2612 C 244.83 -0.435132 3.34078 0
M  V30 2613 O 245.36 -1.4583 3.74295 0
M  V30 2614 N 243.566 -0.444377 2.87182 0
M  V30 2615 H 243.113 0.388723 2.5465 0
M  V30 2616 H 243.071 -1.31213 2.85711 0
M  V30 2617 N 246.843 -1.10192 1.12674 0
M  V30 2618 C 248.09 -1.82205 0.883606 0
M  V30 2619 C 248.418 -1.8532 -0.590492 0
M  V30 2620 O 247.673 -1.31137 -1.45264 0
M  V30 2621 C 247.972 -3.28552 1.4067 0
M  V30 2622 C 247.638 -3.45582 2.89627 0
M  V30 2623 C 246.3 -3.49937 3.30299 0
M  V30 2624 C 248.652 -3.50768 3.85501 0
M  V30 2625 C 245.98 -3.57049 4.65546 0
M  V30 2626 C 248.332 -3.59414 5.20581 0
M  V30 2627 C 246.996 -3.62034 5.60792 0
M  V30 2628 H 246.266 -0.666735 0.323334 0
M  V30 2629 H 248.913 -1.29868 1.40736 0
M  V30 2630 H 247.218 -3.83473 0.80347 0
M  V30 2631 H 248.915 -3.82788 1.19475 0
M  V30 2632 H 245.505 -3.42871 2.57172 0
M  V30 2633 H 249.689 -3.46651 3.55171 0
M  V30 2634 H 244.945 -3.57361 4.96088 0
M  V30 2635 H 249.119 -3.62371 5.94693 0
M  V30 2636 H 246.746 -3.67298 6.6558 0
M  V30 2637 N 248.321 -0.919034 -1.28029 0
M  V30 2638 C 249.269 -0.401753 -2.29104 0
M  V30 2639 C 250.263 0.509354 -1.61561 0
M  V30 2640 O 251.469 0.390014 -1.75724 0
M  V30 2641 H 247.844 -0.111331 -0.743713 0
M  V30 2642 H 249.815 -1.2672 -2.70156 0
M  V30 2643 C 248.564 0.338148 -3.46052 0
M  V30 2644 H 247.887 -0.353732 -3.98232 0
M  V30 2645 H 249.327 0.664653 -4.18758 0
M  V30 2646 C 247.786 1.54798 -2.99231 0
M  V30 2647 O 248.316 2.64696 -3.02157 0
M  V30 2648 N 246.522 1.3968 -2.54829 0
M  V30 2649 H 246.069 0.502698 -2.52647 0
M  V30 2650 H 246.027 2.20755 -2.23863 0
M  V30 2651 N 249.799 1.42003 -0.683588 0
M  V30 2652 C 250.749 2.27997 0.0121992 0
M  V30 2653 C 251.733 1.4156 0.764822 0
M  V30 2654 O 252.925 1.64935 0.642287 0
M  V30 2655 C 250.054 3.29706 0.956482 0
M  V30 2656 C 249.14 4.23625 0.200739 0
M  V30 2657 N 249.531 4.99448 -0.799087 0
M  V30 2658 C 247.829 4.43845 0.437937 0
M  V30 2659 C 248.53 5.68102 -1.25041 0
M  V30 2660 N 247.506 5.40511 -0.578648 0
M  V30 2661 H 251.308 2.84048 -0.754564 0
M  V30 2662 H 248.822 1.54071 -0.513398 0
M  V30 2663 H 250.819 3.90124 1.47 0
M  V30 2664 H 249.479 2.75216 1.72297 0
M  V30 2665 H 250.49 5.04303 -1.17893 0
M  V30 2666 H 247.167 4.00382 1.18325 0
M  V30 2667 H 248.557 6.38913 -2.07942 0
M  V30 2668 N 251.277 0.427512 1.51691 0
M  V30 2669 C 252.693 0.0792977 1.59403 0
M  V30 2670 C 252.893 -1.41035 1.43914 0
M  V30 2671 O 251.949 -2.17922 1.27539 0
M  V30 2672 C 253.262 0.590636 2.94842 0
M  V30 2673 C 254.81 0.550215 3.08126 0
M  V30 2674 C 255.285 1.03836 4.46074 0
M  V30 2675 N 256.776 0.995943 4.52366 0
M  V30 2676 C 257.511 1.34463 5.57411 0
M  V30 2677 N 257.007 1.76569 6.69922 0
M  V30 2678 N 258.8 1.26343 5.47717 0
M  V30 2679 H 250.951 1.39687 1.60004 0
M  V30 2680 H 253.214 0.575003 0.753708 0
M  V30 2681 H 252.92 1.63251 3.11516 0
M  V30 2682 H 252.794 0.0102061 3.77199 0
M  V30 2683 H 255.181 -0.482654 2.91126 0
M  V30 2684 H 255.262 1.16693 2.27632 0
M  V30 2685 H 254.906 2.06965 4.63819 0
M  V30 2686 H 254.836 0.398286 5.25092 0
M  V30 2687 H 257.327 0.68661 3.7161 0
M  V30 2688 H 257.64 2.01438 7.46085 0
M  V30 2689 H 255.985 1.80488 6.71155 0
M  V30 2690 H 259.176 0.933209 4.58703 0
M  V30 2691 H 259.349 1.53846 6.29472 0
M  V30 2692 N 252.755 -1.56801 0.158532 0
M  V30 2693 C 253.685 -2.20347 -0.772609 0
M  V30 2694 C 254.666 -1.15518 -1.24859 0
M  V30 2695 O 255.851 -1.43902 -1.30406 0
M  V30 2696 C 252.981 -2.83417 -2.00729 0
M  V30 2697 C 251.935 -3.94174 -1.66765 0
M  V30 2698 C 251.261 -4.44233 -2.97592 0
M  V30 2699 C 252.561 -5.14392 -0.905447 0
M  V30 2700 H 254.255 -2.98413 -0.242959 0
M  V30 2701 H 251.801 -1.43537 -0.115419 0
M  V30 2702 H 253.754 -3.26543 -2.6636 0
M  V30 2703 H 252.478 -2.02701 -2.56086 0
M  V30 2704 H 251.137 -3.51684 -1.03508 0
M  V30 2705 H 250.785 -3.60325 -3.50963 0
M  V30 2706 H 250.485 -5.18945 -2.75626 0
M  V30 2707 H 252.009 -4.90037 -3.64274 0
M  V30 2708 H 253.423 -5.5429 -1.46408 0
M  V30 2709 H 251.82 -5.9494 -0.7853 0
M  V30 2710 H 252.89 -4.84795 0.100668 0
M  V30 2711 N 254.233 0.115231 -1.57178 0
M  V30 2712 C 255.163 1.1423 -2.03651 0
M  V30 2713 C 256.144 1.42967 -0.921655 0
M  V30 2714 O 257.329 1.53343 -1.19162 0
M  V30 2715 C 254.459 2.4675 -2.44401 0
M  V30 2716 C 253.413 2.32467 -3.59365 0
M  V30 2717 C 252.739 3.69984 -3.86026 0
M  V30 2718 C 254.039 1.78203 -4.90959 0
M  V30 2719 H 255.733 0.755749 -2.89705 0
M  V30 2720 H 253.279 0.362093 -1.39373 0
M  V30 2721 H 255.232 3.18854 -2.75517 0
M  V30 2722 H 253.956 2.87302 -1.55322 0
M  V30 2723 H 252.615 1.62811 -3.28463 0
M  V30 2724 H 252.263 4.08028 -2.94147 0
M  V30 2725 H 251.963 3.61279 -4.63412 0
M  V30 2726 H 253.487 4.43587 -4.19599 0
M  V30 2727 H 254.901 2.40128 -5.20587 0
M  V30 2728 H 253.298 1.8031 -5.72371 0
M  V30 2729 H 254.368 0.739876 -4.79222 0
M  V30 2730 N 255.711 1.52812 0.385517 0
M  V30 2731 C 256.621 1.80766 1.49535 0
M  V30 2732 C 257.637 0.694651 1.59532 0
M  V30 2733 O 258.813 0.982611 1.75803 0
M  V30 2734 C 255.878 1.97381 2.85029 0
M  V30 2735 C 254.939 3.21295 2.84724 0
M  V30 2736 C 254.172 3.37108 4.13756 0
M  V30 2737 O 254.395 2.5765 5.08893 0
M  V30 2738 O 253.329 4.30378 4.20783 0
M  V30 2739 H 257.155 2.75015 1.28842 0
M  V30 2740 H 254.74 1.37946 0.573697 0
M  V30 2741 H 256.622 2.09996 3.65349 0
M  V30 2742 H 255.297 1.06322 3.05741 0
M  V30 2743 H 254.204 3.1412 2.03174 0
M  V30 2744 H 255.537 4.12212 2.68965 0
M  V30 2745 N 257.189 -0.644168 1.43834 0
M  V30 2746 C 258.122 -1.76906 1.44151 0
M  V30 2747 C 259.1 -1.59774 0.301857 0
M  V30 2748 O 260.284 -1.81834 0.496841 0
M  V30 2749 C 257.411 -3.14321 1.26174 0
M  V30 2750 C 256.457 -3.50134 2.43533 0
M  V30 2751 S 257.29 -3.49085 4.06079 0
M  V30 2752 C 258.446 -4.89142 3.90501 0
M  V30 2753 H 258.679 -1.76368 2.39336 0
M  V30 2754 H 256.212 -0.817624 1.30974 0
M  V30 2755 H 258.17 -3.93625 1.16489 0
M  V30 2756 H 256.831 -3.12412 0.325224 0
M  V30 2757 H 256.024 -4.50095 2.26783 0
M  V30 2758 H 255.626 -2.78264 2.4989 0
M  V30 2759 H 257.918 -5.78036 3.53385 0
M  V30 2760 H 258.861 -5.10945 4.90246 0
M  V30 2761 H 259.269 -4.63102 3.22795 0
M  V30 2762 N 258.668 -1.30515 -0.883378 0
M  V30 2763 C 259.917 -1.18795 -1.63005 0
M  V30 2764 C 260.23 0.255923 -1.93919 0
M  V30 2765 O 261.436 0.494654 -2.66956 0
M  V30 2766 C 259.892 -2.07878 -2.93794 0
M  V30 2767 C 259.5 -3.57184 -2.70414 0
M  V30 2768 C 261.244 -2.04924 -3.71761 0
M  V30 2769 C 259.151 -4.38317 -3.97029 0
M  V30 2770 H 258.081 -0.441031 -0.611562 0
M  V30 2771 H 260.732 -1.55275 -0.977854 0
M  V30 2772 H 259.114 -1.64283 -3.60315 0
M  V30 2773 H 260.288 -4.08937 -2.12384 0
M  V30 2774 H 258.603 -3.61976 -2.0582 0
M  V30 2775 H 261.2 -2.62792 -4.65665 0
M  V30 2776 H 261.543 -1.0331 -4.03277 0
M  V30 2777 H 262.076 -2.46649 -3.12104 0
M  V30 2778 H 258.815 -5.40632 -3.70671 0
M  V30 2779 H 258.335 -3.91326 -4.54559 0
M  V30 2780 H 260.014 -4.49834 -4.65036 0
M  V30 2781 N 260.146 1.09593 -1.13257 0
M  V30 2782 C 261.076 2.18214 -0.830946 0
M  V30 2783 C 262.057 1.68812 0.208966 0
M  V30 2784 O 263.242 1.9408 0.0682666 0
M  V30 2785 C 260.372 3.46051 -0.294296 0
M  V30 2786 C 259.326 4.08778 -1.26826 0
M  V30 2787 C 258.652 5.31419 -0.591449 0
M  V30 2788 C 259.952 4.51476 -2.62615 0
M  V30 2789 H 261.646 2.43703 -1.73923 0
M  V30 2790 H 259.192 1.17128 -0.837675 0
M  V30 2791 H 261.145 4.2134 -0.0709606 0
M  V30 2792 H 259.869 3.20079 0.649366 0
M  V30 2793 H 258.528 3.35505 -1.47756 0
M  V30 2794 H 258.176 5.01727 0.357633 0
M  V30 2795 H 257.876 5.74341 -1.24123 0
M  V30 2796 H 259.4 6.09433 -0.377355 0
M  V30 2797 H 260.814 5.17999 -2.45663 0
M  V30 2798 H 259.211 5.05277 -3.23752 0
M  V30 2799 H 260.281 3.63962 -3.20406 0
M  V30 2800 N 261.624 0.925811 1.2754 0
M  V30 2801 C 262.572 0.413897 2.28888 0
M  V30 2802 C 263.566 -0.500779 1.61829 0
M  V30 2803 O 264.772 -0.38069 1.75928 0
M  V30 2804 H 261.147 0.115274 0.743112 0
M  V30 2805 H 263.118 1.28151 2.69481 0
M  V30 2806 C 261.867 -0.319792 3.46226 0
M  V30 2807 H 261.19 0.374846 3.98039 0
M  V30 2808 H 262.63 -0.642435 4.19105 0
M  V30 2809 C 261.089 -1.53209 3.00048 0
M  V30 2810 O 261.619 -2.6309 3.03557 0
M  V30 2811 N 259.825 -1.38326 2.55566 0
M  V30 2812 H 259.372 -0.489292 2.5291 0
M  V30 2813 H 259.33 -2.19564 2.25031 0
M  V30 2814 N 263.102 -1.41638 0.69111 0
M  V30 2815 C 264.049 -2.30789 0.0229705 0
M  V30 2816 C 265.019 -1.46863 -0.775911 0
M  V30 2817 O 266.204 -1.75661 -0.74485 0
M  V30 2818 C 263.344 -3.32868 -0.910666 0
M  V30 2819 C 262.457 -4.31875 -0.103874 0
M  V30 2820 C 261.592 -5.21024 -1.03475 0
M  V30 2821 C 260.631 -6.11702 -0.220598 0
M  V30 2822 N 259.768 -6.93349 -1.10504 0
M  V30 2823 H 264.608 -2.87366 0.788978 0
M  V30 2824 H 262.145 -1.41535 0.400794 0
M  V30 2825 H 264.103 -3.90596 -1.46597 0
M  V30 2826 H 262.733 -2.77851 -1.64312 0
M  V30 2827 H 261.785 -3.76131 0.568285 0
M  V30 2828 H 263.097 -4.96003 0.527504 0
M  V30 2829 H 262.251 -5.83565 -1.65943 0
M  V30 2830 H 260.99 -4.57112 -1.69999 0
M  V30 2831 H 259.995 -5.48215 0.417187 0
M  V30 2832 H 261.22 -6.77668 0.440784 0
M  V30 2833 H 259.166 -6.3205 -1.75638 0
M  V30 2834 H 259.083 -7.54146 -0.529125 0
M  V30 2835 H 260.351 -7.60362 -1.71667 0
M  V30 2836 N 264.58 -0.43555 -1.51462 0
M  V30 2837 C 265.991 0.0279871 -1.86679 0
M  V30 2838 C 266.342 1.42104 -1.35281 0
M  V30 2839 O 265.467 2.04667 -0.702878 0
M  V30 2840 C 266.062 0.0575626 -3.38751 0
M  V30 2841 C 264.621 0.465507 -3.7351 0
M  V30 2842 C 263.768 -0.342996 -2.75171 0
M  V30 2843 H 266.719 -0.651473 -1.44712 0
M  V30 2844 H 266.74 0.867421 -3.70481 0
M  V30 2845 H 266.252 -0.956448 -3.7613 0
M  V30 2846 H 264.353 1.48519 -3.41721 0
M  V30 2847 H 264.466 0.191546 -4.78717 0
M  V30 2848 H 262.83 0.198442 -2.53926 0
M  V30 2849 H 263.613 -1.35585 -3.15391 0
M  V30 2850 N 266.058 1.56714 -0.166846 0
M  V30 2851 C 267.306 1.96358 0.478305 0
M  V30 2852 C 267.627 1.0537 1.6408 0
M  V30 2853 O 266.897 0.119154 1.95537 0
M  V30 2854 H 265.477 0.725065 0.179692 0
M  V30 2855 H 268.139 1.93329 -0.246985 0
M  V30 2856 H 267.235 3.00547 0.841292 0
M  V30 2857 N 267.536 -0.106894 1.57237 0
M  V30 2858 C 268.466 -1.13148 2.04254 0
M  V30 2859 C 269.447 -1.42476 0.929224 0
M  V30 2860 O 270.632 -1.52709 1.19973 0
M  V30 2861 C 267.762 -2.4545 2.45706 0
M  V30 2862 C 266.716 -2.30558 3.60592 0
M  V30 2863 C 266.042 -3.67931 3.87983 0
M  V30 2864 C 267.342 -1.75597 4.91897 0
M  V30 2865 H 269.036 -0.740374 2.90101 0
M  V30 2866 H 266.582 -0.354696 1.39563 0
M  V30 2867 H 268.535 -3.17389 2.77205 0
M  V30 2868 H 267.259 -2.86475 1.56843 0
M  V30 2869 H 265.918 -1.61067 3.29322 0
M  V30 2870 H 265.566 -4.06462 2.96306 0
M  V30 2871 H 265.266 -3.58817 4.65322 0
M  V30 2872 H 266.79 -4.41356 4.21945 0
M  V30 2873 H 268.204 -2.37364 5.21854 0
M  V30 2874 H 266.601 -1.77272 5.73319 0
M  V30 2875 H 267.671 -0.714451 4.79608 0
M  V30 2876 N 269.014 -1.53014 -0.377408 0
M  V30 2877 C 269.961 -1.78616 -1.46168 0
M  V30 2878 C 270.931 -0.629917 -1.53692 0
M  V30 2879 O 272.116 -0.870861 -1.69766 0
M  V30 2880 C 269.256 -1.97123 -2.8326 0
M  V30 2881 C 268.369 -3.24831 -2.84796 0
M  V30 2882 C 267.504 -3.33591 -4.13389 0
M  V30 2883 C 266.543 -4.55377 -4.09021 0
M  V30 2884 N 265.68 -4.61355 -5.29241 0
M  V30 2885 H 270.52 -2.71142 -1.23637 0
M  V30 2886 H 268.057 -1.34326 -0.599577 0
M  V30 2887 H 270.015 -2.05839 -3.62886 0
M  V30 2888 H 268.645 -1.07946 -3.04216 0
M  V30 2889 H 267.697 -3.25128 -1.97474 0
M  V30 2890 H 269.009 -4.14523 -2.77439 0
M  V30 2891 H 268.163 -3.41554 -5.01424 0
M  V30 2892 H 266.902 -2.41894 -4.23484 0
M  V30 2893 H 265.907 -4.47527 -3.19373 0
M  V30 2894 H 267.132 -5.48402 -4.00539 0
M  V30 2895 H 265.078 -3.72554 -5.39944 0
M  V30 2896 H 264.995 -5.44935 -5.24006 0
M  V30 2897 H 266.263 -4.73586 -6.19141 0
M  V30 2898 N 270.492 0.636531 -1.44174 0
M  V30 2899 C 271.722 1.42146 -1.49927 0
M  V30 2900 C 272.13 1.88812 -0.121063 0
M  V30 2901 O 271.473 1.61126 0.882267 0
M  V30 2902 C 271.535 2.67883 -2.39748 0
M  V30 2903 C 271.199 2.43048 -3.8701 0
M  V30 2904 C 272.196 2.05216 -4.77684 0
M  V30 2905 C 269.881 2.56856 -4.3166 0
M  V30 2906 C 271.875 1.81512 -6.11009 0
M  V30 2907 C 269.562 2.32766 -5.65034 0
M  V30 2908 C 270.56 1.95152 -6.54526 0
M  V30 2909 O 270.248 1.71326 -7.85431 0
M  V30 2910 H 269.98 0.442567 -0.51099 0
M  V30 2911 H 272.534 0.786158 -1.8976 0
M  V30 2912 H 270.764 3.34032 -1.94832 0
M  V30 2913 H 272.453 3.29874 -2.36513 0
M  V30 2914 H 273.219 1.94111 -4.44462 0
M  V30 2915 H 269.098 2.85104 -3.62266 0
M  V30 2916 H 272.642 1.52077 -6.80822 0
M  V30 2917 H 268.539 2.43479 -5.97819 0
M  V30 2918 H 269.307 1.85616 -7.97176 0
M  V30 2919 N 271.97 1.30982 0.876444 0
M  V30 2920 C 272.917 1.18085 1.98304 0
M  V30 2921 C 273.887 0.0682263 1.6596 0
M  V30 2922 O 275.072 0.239937 1.89285 0
M  V30 2923 C 272.212 0.887475 3.33493 0
M  V30 2924 C 271.325 2.08281 3.78475 0
M  V30 2925 C 270.46 1.72678 5.0235 0
M  V30 2926 C 269.499 2.88657 5.39762 0
M  V30 2927 N 268.636 2.53292 6.54819 0
M  V30 2928 H 273.476 2.1275 2.08666 0
M  V30 2929 H 271.013 1.05839 1.02159 0
M  V30 2930 H 272.971 0.697961 4.1132 0
M  V30 2931 H 271.601 -0.022315 3.22792 0
M  V30 2932 H 270.653 2.3833 2.96484 0
M  V30 2933 H 271.965 2.95108 4.02135 0
M  V30 2934 H 271.119 1.50151 5.87826 0
M  V30 2935 H 269.858 0.830327 4.8058 0
M  V30 2936 H 268.863 3.1184 4.52809 0
M  V30 2937 H 270.088 3.79002 5.63502 0
M  V30 2938 H 268.034 1.66163 6.34607 0
M  V30 2939 H 267.951 3.3365 6.7839 0
M  V30 2940 H 269.219 2.34143 7.43503 0
M  V30 2941 N 273.449 -1.08991 1.13837 0
M  V30 2942 C 274.86 -1.62746 0.914917 0
M  V30 2943 C 275.211 -1.88403 -0.547594 0
M  V30 2944 O 274.336 -1.63706 -1.41525 0
M  V30 2945 C 274.931 -2.95662 1.65437 0
M  V30 2946 C 273.49 -3.46225 1.47666 0
M  V30 2947 C 272.637 -2.20562 1.6807 0
M  V30 2948 H 275.588 -0.922946 1.29102 0
M  V30 2949 H 275.609 -3.63825 1.11407 0
M  V30 2950 H 275.121 -2.76956 2.71877 0
M  V30 2951 H 273.222 -3.70046 0.435478 0
M  V30 2952 H 273.335 -4.23368 2.24268 0
M  V30 2953 H 271.699 -2.29439 1.10589 0
M  V30 2954 H 272.482 -2.0437 2.7584 0
M  V30 2955 N 274.927 -0.932562 -1.27047 0
M  V30 2956 C 276.173 -0.576412 -1.94436 0
M  V30 2957 C 276.506 0.880891 -1.73072 0
M  V30 2958 O 275.781 1.62905 -1.06264 0
M  V30 2959 C 276.064 -0.909031 -3.48437 0
M  V30 2960 C 275.917 -2.42044 -3.79123 0
M  V30 2961 C 277.236 -0.418341 -4.38107 0
M  V30 2962 H 274.355 -0.210888 -0.706184 0
M  V30 2963 H 276.997 -1.16522 -1.50075 0
M  V30 2964 H 275.147 -0.407947 -3.86352 0
M  V30 2965 H 276.819 -2.99359 -3.50973 0
M  V30 2966 H 275.062 -2.86758 -3.25503 0
M  V30 2967 H 275.733 -2.6037 -4.86736 0
M  V30 2968 H 278.209 -0.847856 -4.0737 0
M  V30 2969 H 277.085 -0.679981 -5.44672 0
M  V30 2970 H 277.346 0.681642 -4.36814 0
M  V30 2971 N 276.405 1.4127 -0.698611 0
M  V30 2972 C 277.645 2.03044 -0.235062 0
M  V30 2973 C 278.009 1.54146 1.14468 0
M  V30 2974 O 279.21 2.07867 1.70425 0
M  V30 2975 C 277.481 3.56192 -0.293651 0
M  V30 2976 S 279.04 4.38696 0.0954053 0
M  V30 2977 H 275.858 0.704697 -0.0944648 0
M  V30 2978 H 278.46 1.72656 -0.917064 0
M  V30 2979 H 277.164 3.89274 -1.29977 0
M  V30 2980 H 276.695 3.91285 0.407397 0
M  V30 2981 H 278.71 4.78257 1.3223 0
M  V30 2982 N 277.883 0.443576 1.51229 0
M  V30 2983 C 278.831 -0.37904 2.29491 0
M  V30 2984 C 279.825 -1.0153 1.35603 0
M  V30 2985 O 281.031 -0.94955 1.52917 0
M  V30 2986 H 277.406 -0.141053 0.738653 0
M  V30 2987 H 279.377 0.301799 2.9687 0
M  V30 2988 C 278.126 -1.46426 3.15364 0
M  V30 2989 H 277.449 -0.984037 3.87501 0
M  V30 2990 H 278.889 -2.01297 3.7317 0
M  V30 2991 C 277.348 -2.45099 2.31146 0
M  V30 2992 O 277.878 -3.49773 1.9754 0
M  V30 2993 N 276.084 -2.16139 1.94249 0
M  V30 2994 H 275.631 -1.31044 2.21777 0
M  V30 2995 H 275.589 -2.82398 1.38198 0
M  V30 2996 N 279.361 -1.56624 0.175154 0
M  V30 2997 C 280.293 -2.15333 -0.785128 0
M  V30 2998 C 281.306 -1.1099 -1.19101 0
M  V30 2999 O 282.495 -1.38162 -1.13019 0
M  V30 3000 C 279.595 -2.68427 -2.06882 0
M  V30 3001 C 278.768 -3.97466 -1.8259 0
M  V30 3002 C 277.827 -4.35585 -2.95215 0
M  V30 3003 O 276.853 -5.03389 -2.65684 0
M  V30 3004 N 278.055 -3.97457 -4.23094 0
M  V30 3005 H 280.82 -2.98359 -0.283187 0
M  V30 3006 H 278.381 -1.61898 -0.00749817 0
M  V30 3007 H 280.373 -2.90924 -2.81328 0
M  V30 3008 H 278.943 -1.89968 -2.48256 0
M  V30 3009 H 278.163 -3.83307 -0.920287 0
M  V30 3010 H 279.451 -4.81736 -1.63733 0
M  V30 3011 H 278.849 -3.42878 -4.49945 0
M  V30 3012 H 277.406 -4.24947 -4.9423 0
M  V30 3013 N 280.839 0.0985539 -1.57292 0
M  V30 3014 C 282.085 0.803867 -1.86188 0
M  V30 3015 C 282.418 1.78549 -0.763794 0
M  V30 3016 O 281.693 1.93153 0.22855 0
M  V30 3017 C 281.976 1.53568 -3.25713 0
M  V30 3018 C 281.829 0.572277 -4.46145 0
M  V30 3019 C 283.148 2.48708 -3.63087 0
M  V30 3020 H 280.267 0.290781 -0.677211 0
M  V30 3021 H 282.909 0.0675783 -1.8988 0
M  V30 3022 H 281.059 2.16332 -3.22696 0
M  V30 3023 H 282.731 -0.0480894 -4.61275 0
M  V30 3024 H 280.974 -0.114618 -4.33649 0
M  V30 3025 H 281.645 1.12139 -5.40489 0
M  V30 3026 H 284.121 1.96039 -3.67026 0
M  V30 3027 H 282.997 2.96932 -4.61652 0
M  V30 3028 H 283.258 3.32309 -2.91588 0
M  V30 3029 N 282.317 1.53212 0.369288 0
M  V30 3030 C 283.227 1.82342 1.47609 0
M  V30 3031 C 284.243 0.711532 1.58787 0
M  V30 3032 O 285.419 1.0012 1.74751 0
M  V30 3033 C 282.484 2.00393 2.8292 0
M  V30 3034 C 281.545 3.24297 2.81301 0
M  V30 3035 C 280.778 3.41478 4.10157 0
M  V30 3036 O 281.001 2.63033 5.06132 0
M  V30 3037 O 279.935 4.34817 4.16194 0
M  V30 3038 H 283.761 2.76366 1.25918 0
M  V30 3039 H 281.346 1.38547 0.559034 0
M  V30 3040 H 283.228 2.13859 3.63101 0
M  V30 3041 H 281.903 1.09559 3.04596 0
M  V30 3042 H 280.81 3.16257 1.99831 0
M  V30 3043 H 282.143 4.15041 2.64578 0
M  V30 3044 N 283.795 -0.628877 1.44509 0
M  V30 3045 C 285.035 -1.39993 1.48934 0
M  V30 3046 C 285.399 -1.91627 0.119604 0
M  V30 3047 O 286.6 -2.68772 0.0385283 0
M  V30 3048 C 284.871 -2.53241 2.52198 0
M  V30 3049 S 286.43 -3.41383 2.75687 0
M  V30 3050 H 283.248 -0.477558 0.526744 0
M  V30 3051 H 285.85 -0.727804 1.81448 0
M  V30 3052 H 284.554 -2.13622 3.50419 0
M  V30 3053 H 284.085 -3.25278 2.21264 0
M  V30 3054 H 286.1 -4.50752 2.07453 0
M  V30 3055 N 285.273 -1.31445 -0.869486 0
M  V30 3056 C 286.223 -1.15731 -1.96444 0
M  V30 3057 C 287.207 -0.0681855 -1.60755 0
M  V30 3058 O 288.399 -0.293154 -1.74555 0
M  V30 3059 C 285.528 -0.867255 -3.32165 0
M  V30 3060 C 284.614 -1.99738 -3.74119 0
M  V30 3061 N 285.005 -3.24447 -3.88031 0
M  V30 3062 C 283.303 -1.89723 -4.03635 0
M  V30 3063 C 284.004 -3.98374 -4.23879 0
M  V30 3064 N 282.98 -3.26547 -4.3459 0
M  V30 3065 H 286.782 -2.10296 -2.05312 0
M  V30 3066 H 284.296 -1.23009 -1.06031 0
M  V30 3067 H 286.293 -0.735668 -4.10358 0
M  V30 3068 H 284.953 0.0701614 -3.24624 0
M  V30 3069 H 285.964 -3.59557 -3.72746 0
M  V30 3070 H 282.641 -1.03449 -4.04481 0
M  V30 3071 H 284.031 -5.05844 -4.42235 0
M  V30 3072 N 286.751 1.08385 -1.14413 0
M  V30 3073 C 288.162 1.62258 -0.923535 0
M  V30 3074 C 288.513 1.88691 0.537595 0
M  V30 3075 O 287.638 1.64454 1.40655 0
M  V30 3076 C 288.233 2.94781 -1.67002 0
M  V30 3077 C 286.792 3.45437 -1.495 0
M  V30 3078 C 285.939 2.19668 -1.69238 0
M  V30 3079 H 288.89 0.916086 -1.2959 0
M  V30 3080 H 288.911 3.63229 -1.13334 0
M  V30 3081 H 288.423 2.7551 -2.73342 0
M  V30 3082 H 286.524 3.6981 -0.455097 0
M  V30 3083 H 286.637 4.22173 -2.2651 0
M  V30 3084 H 285.001 2.28849 -1.11804 0
M  V30 3085 H 285.784 2.02905 -2.7692 0
M  V30 3086 N 288.23 0.939286 1.26551 0
M  V30 3087 C 289.46 0.601663 1.97645 0
M  V30 3088 C 289.868 -0.827206 1.70159 0
M  V30 3089 O 289.211 -1.56291 0.965338 0
M  V30 3090 C 289.273 0.761725 3.51337 0
M  V30 3091 C 288.937 2.16487 4.0247 0
M  V30 3092 C 289.934 3.14016 4.14355 0
M  V30 3093 C 287.619 2.48494 4.36527 0
M  V30 3094 C 289.613 4.41654 4.59587 0
M  V30 3095 C 287.3 3.76364 4.81449 0
M  V30 3096 C 288.298 4.72758 4.92939 0
M  V30 3097 O 287.986 5.98352 5.36871 0
M  V30 3098 H 287.718 0.225758 0.637189 0
M  V30 3099 H 290.272 1.26178 1.62075 0
M  V30 3100 H 288.502 0.0444808 3.86674 0
M  V30 3101 H 290.191 0.427442 4.03643 0
M  V30 3102 H 290.957 2.90613 3.8829 0
M  V30 3103 H 286.836 1.74202 4.26819 0
M  V30 3104 H 290.38 5.16896 4.68471 0
M  V30 3105 H 286.277 3.99582 5.06956 0
M  V30 3106 H 287.045 6.01507 5.55096 0
M  V30 3107 N 289.708 -1.40897 0.706093 0
M  V30 3108 C 290.955 -2.01054 0.241531 0
M  V30 3109 C 291.283 -1.55956 -1.16223 0
M  V30 3110 O 290.538 -0.766336 -1.80072 0
M  V30 3111 C 290.837 -3.5646 0.259099 0
M  V30 3112 C 290.503 -4.21106 1.61184 0
M  V30 3113 C 289.165 -4.38479 1.98216 0
M  V30 3114 C 291.517 -4.57256 2.50132 0
M  V30 3115 C 288.845 -4.89282 3.2376 0
M  V30 3116 C 291.197 -5.09454 3.7502 0
M  V30 3117 C 289.861 -5.25037 4.12181 0
M  V30 3118 H 289.131 -0.73571 0.0883825 0
M  V30 3119 H 291.778 -1.68645 0.907257 0
M  V30 3120 H 290.083 -3.88721 -0.490189 0
M  V30 3121 H 291.78 -4.00826 -0.11804 0
M  V30 3122 H 288.37 -4.07966 1.31384 0
M  V30 3123 H 292.554 -4.43479 2.228 0
M  V30 3124 H 287.81 -4.99531 3.52532 0
M  V30 3125 H 291.984 -5.36404 4.44121 0
M  V30 3126 H 289.611 -5.64164 5.09532 0
M  V30 3127 N 291.186 -0.45159 -1.50991 0
M  V30 3128 C 292.134 0.366864 -2.29689 0
M  V30 3129 C 293.128 1.00809 -1.36139 0
M  V30 3130 O 294.334 0.941427 -1.53418 0
M  V30 3131 H 290.709 0.137133 -0.739391 0
M  V30 3132 H 292.68 -0.317538 -2.96706 0
M  V30 3133 C 291.429 1.44751 -3.16137 0
M  V30 3134 H 290.752 0.963473 -3.88017 0
M  V30 3135 H 292.192 1.99315 -3.74232 0
M  V30 3136 C 290.651 2.43869 -2.32442 0
M  V30 3137 O 291.181 3.4872 -1.99392 0
M  V30 3138 N 289.387 2.15105 -1.95392 0
M  V30 3139 H 288.934 1.29866 -2.22469 0
M  V30 3140 H 288.892 2.81661 -1.39693 0
M  V30 3141 N 292.664 1.56529 -0.183458 0
M  V30 3142 C 293.596 2.15747 0.773697 0
M  V30 3143 C 294.609 1.1162 1.1851 0
M  V30 3144 O 295.798 1.3876 1.12285 0
M  V30 3145 C 292.898 2.6952 2.05456 0
M  V30 3146 C 292.071 3.98429 1.8048 0
M  V30 3147 C 291.13 4.37145 2.92901 0
M  V30 3148 O 290.156 5.04791 2.6301 0
M  V30 3149 N 291.358 3.99695 4.2098 0
M  V30 3150 H 294.123 2.98505 0.26736 0
M  V30 3151 H 291.684 1.619 -0.0010878 0
M  V30 3152 H 293.676 2.92412 2.79781 0
M  V30 3153 H 292.246 1.91282 2.47245 0
M  V30 3154 H 291.466 3.8379 0.899947 0
M  V30 3155 H 292.754 4.82597 1.61175 0
M  V30 3156 H 292.152 3.4526 4.48121 0
M  V30 3157 H 290.709 4.27562 4.9197 0
M  V30 3158 N 294.142 -0.090211 1.57342 0
M  V30 3159 C 295.558 -0.444547 1.53284 0
M  V30 3160 C 295.758 -1.80238 0.900914 0
M  V30 3161 O 294.814 -2.4759 0.495513 0
M  V30 3162 C 296.127 -0.402543 2.97993 0
M  V30 3163 C 297.675 -0.48405 3.09234 0
M  V30 3164 C 298.15 -0.472144 4.5556 0
M  V30 3165 N 299.641 -0.532757 4.60126 0
M  V30 3166 C 300.376 -0.545462 5.708 0
M  V30 3167 N 299.872 -0.514082 6.9089 0
M  V30 3168 N 301.665 -0.59064 5.58988 0
M  V30 3169 H 293.816 0.799121 1.96794 0
M  V30 3170 H 296.079 0.297965 0.899956 0
M  V30 3171 H 295.785 0.528106 3.47712 0
M  V30 3172 H 295.659 -1.21969 3.56936 0
M  V30 3173 H 298.046 -1.40512 2.595 0
M  V30 3174 H 298.127 0.361328 2.53235 0
M  V30 3175 H 297.771 0.445 5.05947 0
M  V30 3176 H 297.701 -1.3348 5.09402 0
M  V30 3177 H 300.192 -0.562006 3.73698 0
M  V30 3178 H 300.505 -0.527195 7.71 0
M  V30 3179 H 298.85 -0.481054 6.93333 0
M  V30 3180 H 302.041 -0.61272 4.64073 0
M  V30 3181 H 302.214 -0.597073 6.45243 0
M  V30 3182 N 295.62 -1.53406 -0.361157 0
M  V30 3183 C 296.567 -1.80156 -1.44265 0
M  V30 3184 C 297.537 -0.646183 -1.53015 0
M  V30 3185 O 298.722 -0.888818 -1.68833 0
M  V30 3186 C 295.862 -2.00116 -2.81154 0
M  V30 3187 C 294.975 -3.27833 -2.81335 0
M  V30 3188 C 294.11 -3.37957 -4.09828 0
M  V30 3189 C 293.149 -4.59689 -4.04168 0
M  V30 3190 N 292.286 -4.66942 -5.24318 0
M  V30 3191 H 297.126 -2.72438 -1.20754 0
M  V30 3192 H 294.663 -1.34954 -0.585296 0
M  V30 3193 H 296.621 -2.09677 -3.60682 0
M  V30 3194 H 295.251 -1.11167 -3.03054 0
M  V30 3195 H 294.303 -3.27204 -1.94014 0
M  V30 3196 H 295.615 -4.17442 -2.73027 0
M  V30 3197 H 294.769 -3.46853 -4.97773 0
M  V30 3198 H 293.508 -2.46372 -4.20894 0
M  V30 3199 H 292.513 -4.50889 -3.14609 0
M  V30 3200 H 293.738 -5.5262 -3.947 0
M  V30 3201 H 291.684 -3.7826 -5.35962 0
M  V30 3202 H 291.601 -5.50462 -5.18197 0
M  V30 3203 H 292.869 -4.80127 -6.14084 0
M  V30 3204 N 297.098 0.621204 -1.44841 0
M  V30 3205 C 298.028 1.74366 -1.55303 0
M  V30 3206 C 299.009 1.65199 -0.405385 0
M  V30 3207 O 300.194 1.83807 -0.626787 0
M  V30 3208 C 297.324 3.12931 -1.50637 0
M  V30 3209 C 296.278 3.36896 -2.63979 0
M  V30 3210 C 295.604 4.75594 -2.44366 0
M  V30 3211 C 296.904 3.28483 -4.06074 0
M  V30 3212 H 298.598 1.65867 -2.49256 0
M  V30 3213 H 296.144 0.796558 -1.19962 0
M  V30 3214 H 298.097 3.9124 -1.56555 0
M  V30 3215 H 296.821 3.22237 -0.532057 0
M  V30 3216 H 295.48 2.60972 -2.57467 0
M  V30 3217 H 295.128 4.81616 -1.45105 0
M  V30 3218 H 294.828 4.92586 -3.20364 0
M  V30 3219 H 296.352 5.5612 -2.52117 0
M  V30 3220 H 297.766 3.96684 -4.13902 0
M  V30 3221 H 296.163 3.57008 -4.82354 0
M  V30 3222 H 297.233 2.26133 -4.28943 0
M  V30 3223 N 298.576 1.31904 0.862503 0
M  V30 3224 C 299.506 1.22782 1.98612 0
M  V30 3225 C 300.487 0.113362 1.69722 0
M  V30 3226 O 301.672 0.299218 1.91881 0
M  V30 3227 C 298.802 0.942058 3.34279 0
M  V30 3228 C 297.756 2.0169 3.77499 0
M  V30 3229 C 297.082 1.58369 5.10709 0
M  V30 3230 C 298.382 3.43096 3.93805 0
M  V30 3231 H 300.076 2.16788 2.06502 0
M  V30 3232 H 297.622 1.04366 0.992154 0
M  V30 3233 H 299.575 0.864818 4.1243 0
M  V30 3234 H 298.299 -0.0336603 3.26583 0
M  V30 3235 H 296.958 2.08416 3.01593 0
M  V30 3236 H 296.606 0.595628 4.99461 0
M  V30 3237 H 296.306 2.30279 5.40597 0
M  V30 3238 H 297.83 1.52067 5.91361 0
M  V30 3239 H 299.244 3.39003 4.62331 0
M  V30 3240 H 297.641 4.13288 4.35101 0
M  V30 3241 H 298.711 3.83334 2.96957 0
M  V30 3242 N 300.054 -1.07777 1.14986 0
M  V30 3243 C 301.331 -1.7699 0.832695 0
M  V30 3244 C 301.711 -2.001 -0.672561 0
M  V30 3245 O 301.059 -1.61598 -1.6155 0
M  V30 3246 C 301.269 -3.08139 1.63863 0
M  V30 3247 C 302.617 -3.8256 1.84208 0
M  V30 3248 O 303.641 -3.17939 1.60603 0
M  V30 3249 O 302.5 -4.98612 2.23714 0
M  V30 3250 H 299.594 -0.768389 0.305791 0
M  V30 3251 H 302.14 -1.14182 1.25541 0
M  V30 3252 H 300.912 -2.86909 2.6608 0
M  V30 3253 H 300.535 -3.78678 1.21197 0
M  V30 3254 N 301.532 -0.945985 -1.26051 0
M  V30 3255 C 302.779 -0.596118 -1.93527 0
M  V30 3256 C 303.107 0.865559 -1.74179 0
M  V30 3257 O 302.362 1.63524 -1.0751 0
M  V30 3258 C 302.661 -0.890475 -3.46129 0
M  V30 3259 C 302.327 -2.3368 -3.85622 0
M  V30 3260 C 300.989 -2.73216 -3.96114 0
M  V30 3261 C 303.341 -3.27648 -4.05334 0
M  V30 3262 C 300.669 -4.05806 -4.2372 0
M  V30 3263 C 303.021 -4.59841 -4.3443 0
M  V30 3264 C 301.685 -4.99185 -4.43137 0
M  V30 3265 H 300.955 -0.218135 -0.708165 0
M  V30 3266 H 303.602 -1.1934 -1.49768 0
M  V30 3267 H 301.907 -0.210711 -3.91233 0
M  V30 3268 H 303.604 -0.598478 -3.96509 0
M  V30 3269 H 300.194 -2.02015 -3.78005 0
M  V30 3270 H 304.378 -2.98298 -3.96651 0
M  V30 3271 H 299.634 -4.35945 -4.28675 0
M  V30 3272 H 303.808 -5.32641 -4.48628 0
M  V30 3273 H 301.435 -6.01952 -4.64282 0
M  V30 3274 N 303.011 1.40521 -0.713556 0
M  V30 3275 C 304.251 2.02783 -0.256584 0
M  V30 3276 C 304.615 1.55352 1.12827 0
M  V30 3277 O 305.816 2.09663 1.68211 0
M  V30 3278 C 304.087 3.5586 -0.331414 0
M  V30 3279 S 305.646 4.38773 0.0488703 0
M  V30 3280 H 302.464 0.703655 -0.101934 0
M  V30 3281 H 305.066 1.71674 -0.935325 0
M  V30 3282 H 303.77 3.87874 -1.34098 0
M  V30 3283 H 303.301 3.91695 0.365873 0
M  V30 3284 H 305.316 4.79633 1.2715 0
M  V30 3285 N 304.489 0.459591 1.5075 0
M  V30 3286 C 305.436 -0.340524 2.28274 0
M  V30 3287 C 306.406 -0.997371 1.32822 0
M  V30 3288 O 307.591 -1.01202 1.61749 0
M  V30 3289 C 304.731 -1.42317 3.14388 0
M  V30 3290 C 303.844 -0.782251 4.24859 0
M  V30 3291 C 302.979 -1.84182 4.98247 0
M  V30 3292 C 302.018 -1.18053 6.00608 0
M  V30 3293 N 301.155 -2.18244 6.67319 0
M  V30 3294 H 305.995 0.326899 2.96202 0
M  V30 3295 H 303.532 0.173057 1.46078 0
M  V30 3296 H 305.49 -2.06241 3.62658 0
M  V30 3297 H 304.12 -2.05992 2.4853 0
M  V30 3298 H 303.172 -0.0307404 3.80388 0
M  V30 3299 H 304.484 -0.259663 4.98124 0
M  V30 3300 H 303.638 -2.55714 5.50177 0
M  V30 3301 H 302.377 -2.39819 4.24662 0
M  V30 3302 H 301.382 -0.450776 5.47949 0
M  V30 3303 H 302.607 -0.631202 6.7616 0
M  V30 3304 H 300.553 -2.72919 5.96533 0
M  V30 3305 H 300.47 -1.70938 7.36421 0
M  V30 3306 H 301.738 -2.89191 7.23871 0
M  V30 3307 N 305.967 -1.56429 0.191757 0
M  V30 3308 C 307.192 -2.02309 -0.456706 0
M  V30 3309 C 307.617 -1.07103 -1.5463 0
M  V30 3310 O 306.975 -0.0539677 -1.8122 0
M  V30 3311 C 307.023 -3.46654 -0.993159 0
M  V30 3312 O 306.127 -3.54559 -2.10622 0
M  V30 3313 H 305.468 -0.655303 -0.107114 0
M  V30 3314 H 307.998 -2.02364 0.301653 0
M  V30 3315 H 308.008 -3.86377 -1.31061 0
M  V30 3316 H 306.683 -4.1544 -0.195504 0
M  V30 3317 H 305.26 -3.26708 -1.79767 0
M  V30 3318 N 307.445 0.0818655 -1.57387 0
M  V30 3319 C 308.392 1.09834 -2.0299 0
M  V30 3320 C 309.362 1.39043 -0.908639 0
M  V30 3321 O 310.547 1.50282 -1.17559 0
M  V30 3322 C 307.687 2.40971 -2.47037 0
M  V30 3323 C 306.8 2.18379 -3.7274 0
M  V30 3324 C 305.935 3.43008 -4.0561 0
M  V30 3325 C 304.974 3.15736 -5.24383 0
M  V30 3326 N 304.111 4.32667 -5.52941 0
M  V30 3327 H 308.951 0.702472 -2.89602 0
M  V30 3328 H 306.488 0.33531 -1.43227 0
M  V30 3329 H 308.446 3.1752 -2.70623 0
M  V30 3330 H 307.076 2.78379 -1.63417 0
M  V30 3331 H 306.128 1.32569 -3.56552 0
M  V30 3332 H 307.44 1.94227 -4.59431 0
M  V30 3333 H 306.594 4.27958 -4.30043 0
M  V30 3334 H 305.333 3.70225 -3.17466 0
M  V30 3335 H 304.338 2.2918 -4.99757 0
M  V30 3336 H 305.563 2.8985 -6.14136 0
M  V30 3337 H 303.509 4.59935 -4.67756 0
M  V30 3338 H 303.426 4.11753 -6.34031 0
M  V30 3339 H 304.694 5.18644 -5.81918 0
M  V30 3340 N 308.923 1.53595 0.353017 0
M  V30 3341 C 310.2 1.61002 1.11075 0
M  V30 3342 C 310.58 0.425356 2.0677 0
M  V30 3343 O 309.928 -0.583267 2.2093 0
M  V30 3344 C 310.138 2.96631 1.83877 0
M  V30 3345 C 311.486 3.51653 2.37961 0
M  V30 3346 O 312.51 2.98743 1.93987 0
M  V30 3347 O 311.369 4.44177 3.18386 0
M  V30 3348 H 308.463 0.650825 0.510251 0
M  V30 3349 H 311.009 1.6594 0.35527 0
M  V30 3350 H 309.781 3.74293 1.14108 0
M  V30 3351 H 309.404 2.95242 2.66304 0
M  V30 3352 N 310.401 -0.613514 1.45168 0
M  V30 3353 C 311.65 -1.36874 1.4815 0
M  V30 3354 C 311.963 -1.952 0.124982 0
M  V30 3355 O 313.169 -2.71481 0.0324176 0
M  V30 3356 C 311.625 -2.47905 2.60904 0
M  V30 3357 C 311.233 -1.96016 4.02842 0
M  V30 3358 C 312.977 -3.24965 2.73126 0
M  V30 3359 C 310.884 -3.04494 5.06988 0
M  V30 3360 H 309.814 -0.514428 0.551253 0
M  V30 3361 H 312.465 -0.658182 1.7129 0
M  V30 3362 H 310.847 -3.21618 2.31037 0
M  V30 3363 H 312.021 -1.29051 4.4236 0
M  V30 3364 H 310.336 -1.31719 3.95018 0
M  V30 3365 H 312.933 -4.05865 3.48106 0
M  V30 3366 H 313.276 -3.75588 1.79553 0
M  V30 3367 H 313.809 -2.5835 3.0249 0
M  V30 3368 H 310.548 -2.58795 6.0225 0
M  V30 3369 H 310.068 -3.70044 4.72046 0
M  V30 3370 H 311.747 -3.68976 5.31475 0
M  V30 3371 N 311.879 -1.3236 -0.855495 0
M  V30 3372 C 313.125 -1.23054 -1.612 0
M  V30 3373 C 313.458 0.207404 -1.93089 0
M  V30 3374 O 312.733 1.14432 -1.57275 0
M  V30 3375 C 313.016 -2.08937 -2.93287 0
M  V30 3376 C 312.869 -3.61105 -2.68185 0
M  V30 3377 C 314.188 -1.94986 -3.94549 0
M  V30 3378 H 311.307 -0.448364 -0.584926 0
M  V30 3379 H 313.949 -1.62297 -0.987917 0
M  V30 3380 H 312.099 -1.75599 -3.46551 0
M  V30 3381 H 313.771 -4.04652 -2.21483 0
M  V30 3382 H 312.014 -3.83813 -2.02164 0
M  V30 3383 H 312.685 -4.16522 -3.62234 0
M  V30 3384 H 315.161 -2.24189 -3.5054 0
M  V30 3385 H 314.037 -2.57356 -4.84829 0
M  V30 3386 H 314.298 -0.917263 -4.3248 0
M  V30 3387 N 313.357 1.07166 -1.15556 0
M  V30 3388 C 314.287 2.16403 -0.877046 0
M  V30 3389 C 315.268 1.69217 0.173111 0
M  V30 3390 O 316.453 1.94181 0.027084 0
M  V30 3391 C 313.583 3.45349 -0.367632 0
M  V30 3392 C 312.537 4.05995 -1.35468 0
M  V30 3393 C 311.863 5.30045 -0.704038 0
M  V30 3394 C 313.163 4.45804 -2.72132 0
M  V30 3395 H 314.857 2.39959 -1.79053 0
M  V30 3396 H 312.403 1.15325 -0.862331 0
M  V30 3397 H 314.356 4.21095 -0.160317 0
M  V30 3398 H 313.08 3.21385 0.581326 0
M  V30 3399 H 311.739 3.32296 -1.54839 0
M  V30 3400 H 311.387 5.02373 0.251128 0
M  V30 3401 H 311.087 5.71579 -1.36277 0
M  V30 3402 H 312.611 6.08495 -0.50654 0
M  V30 3403 H 314.025 5.12671 -2.56595 0
M  V30 3404 H 312.422 4.98296 -3.34397 0
M  V30 3405 H 313.492 3.57083 -3.28054 0
M  V30 3406 N 314.835 0.952656 1.25548 0
M  V30 3407 C 316.081 0.607272 1.93494 0
M  V30 3408 C 316.414 -0.853245 1.74452 0
M  V30 3409 O 315.689 -1.61194 1.08843 0
M  V30 3410 C 315.972 0.96435 3.46947 0
M  V30 3411 C 315.825 2.48045 3.75225 0
M  V30 3412 C 317.144 0.487987 4.37386 0
M  V30 3413 H 314.263 0.222096 0.702739 0
M  V30 3414 H 316.905 1.18895 1.48203 0
M  V30 3415 H 315.055 0.469361 3.85654 0
M  V30 3416 H 316.727 3.04905 3.46166 0
M  V30 3417 H 314.97 2.919 3.209 0
M  V30 3418 H 315.641 2.6808 4.82532 0
M  V30 3419 H 318.117 0.912558 4.0597 0
M  V30 3420 H 316.993 0.766547 5.43521 0
M  V30 3421 H 317.254 -0.612063 4.37843 0
M  V30 3422 N 316.313 -1.40141 0.720998 0
M  V30 3423 C 317.276 -2.29058 0.0805834 0
M  V30 3424 C 318.276 -1.45632 -0.681758 0
M  V30 3425 O 319.466 -1.6648 -0.512856 0
M  V30 3426 C 316.598 -3.28925 -0.895593 0
M  V30 3427 H 317.791 -2.87191 0.863793 0
M  V30 3428 H 315.344 -1.48553 0.485975 0
M  V30 3429 H 316.079 -2.75822 -1.70566 0
M  V30 3430 H 315.864 -3.90519 -0.351766 0
M  V30 3431 H 317.354 -3.95494 -1.34069 0
M  V30 3432 N 317.792 -0.46758 -1.50504 0
M  V30 3433 C 319.022 0.086288 -2.0642 0
M  V30 3434 C 319.43 1.34369 -1.33197 0
M  V30 3435 O 318.773 1.79431 -0.393747 0
M  V30 3436 C 318.835 0.443846 -3.5675 0
M  V30 3437 C 318.499 -0.711035 -4.51435 0
M  V30 3438 C 319.496 -1.59205 -4.94924 0
M  V30 3439 C 317.181 -0.900363 -4.94165 0
M  V30 3440 C 319.175 -2.64683 -5.79846 0
M  V30 3441 C 316.862 -1.95837 -5.7887 0
M  V30 3442 C 317.86 -2.82997 -6.21612 0
M  V30 3443 O 317.548 -3.86977 -7.0463 0
M  V30 3444 H 317.28 -0.00217814 -0.675996 0
M  V30 3445 H 319.834 -0.654346 -1.94698 0
M  V30 3446 H 318.064 1.23762 -3.6636 0
M  V30 3447 H 319.753 0.932386 -3.95046 0
M  V30 3448 H 320.519 -1.45745 -4.62583 0
M  V30 3449 H 316.398 -0.231427 -4.60419 0
M  V30 3450 H 319.942 -3.32745 -6.13128 0
M  V30 3451 H 315.839 -2.09305 -6.10624 0
M  V30 3452 H 316.607 -3.83923 -7.22873 0
M  V30 3453 N 319.27 1.56325 -0.20005 0
M  V30 3454 C 320.495 2.02548 0.44597 0
M  V30 3455 C 320.92 1.07922 1.5406 0
M  V30 3456 O 320.278 0.0635775 1.81188 0
M  V30 3457 C 320.326 3.47175 0.974761 0
M  V30 3458 O 319.43 3.55671 2.08739 0
M  V30 3459 H 318.771 0.655862 0.103638 0
M  V30 3460 H 321.301 2.02201 -0.312381 0
M  V30 3461 H 321.311 3.87067 1.2901 0
M  V30 3462 H 319.986 4.15538 0.17347 0
M  V30 3463 H 318.563 3.27657 1.78032 0
M  V30 3464 N 320.748 -0.0735177 1.57428 0
M  V30 3465 C 321.711 -1.07192 2.02589 0
M  V30 3466 C 322.711 -1.31695 0.922661 0
M  V30 3467 O 323.901 -1.27445 1.18758 0
M  V30 3468 C 321.033 -2.41599 2.40506 0
M  V30 3469 H 322.226 -0.682727 2.92025 0
M  V30 3470 H 319.779 -0.319193 1.53006 0
M  V30 3471 H 320.514 -2.85354 1.5409 0
M  V30 3472 H 320.299 -2.25156 3.21009 0
M  V30 3473 H 321.789 -3.13367 2.76027 0
M  V30 3474 N 322.226 -1.5378 -0.344866 0
M  V30 3475 C 323.156 -1.84662 -1.42906 0
M  V30 3476 C 324.137 -0.701648 -1.54955 0
M  V30 3477 O 325.322 -0.953438 -1.69184 0
M  V30 3478 C 322.452 -2.05503 -2.79974 0
M  V30 3479 C 321.406 -3.21318 -2.82734 0
M  V30 3480 C 320.732 -3.2749 -4.22675 0
M  V30 3481 C 322.032 -4.59456 -2.48389 0
M  V30 3482 H 323.726 -2.75461 -1.17311 0
M  V30 3483 H 321.272 -1.32542 -0.562896 0
M  V30 3484 H 323.225 -2.25691 -3.55867 0
M  V30 3485 H 321.949 -1.11434 -3.07002 0
M  V30 3486 H 320.608 -3.00984 -2.09294 0
M  V30 3487 H 320.256 -2.31019 -4.4681 0
M  V30 3488 H 319.956 -4.05316 -4.25433 0
M  V30 3489 H 321.48 -3.49887 -5.00412 0
M  V30 3490 H 322.894 -4.79667 -3.13995 0
M  V30 3491 H 321.291 -5.39675 -2.62432 0
M  V30 3492 H 322.361 -4.63155 -1.4358 0
M  V30 3493 N 323.704 0.605807 -1.45491 0
M  V30 3494 C 324.952 1.36207 -1.49305 0
M  V30 3495 C 325.273 1.94519 -0.136863 0
M  V30 3496 O 324.543 1.77261 0.833983 0
M  V30 3497 H 323.123 0.50565 -0.549843 0
M  V30 3498 H 325.785 0.711239 -1.81459 0
M  V30 3499 H 324.881 2.18058 -2.23287 0
M  V30 3500 N 325.182 1.32811 0.848464 0
M  V30 3501 C 326.407 1.26882 1.6406 0
M  V30 3502 C 326.832 -0.15913 1.87426 0
M  V30 3503 O 326.19 -1.11258 1.43148 0
M  V30 3504 C 326.238 2.03997 2.97351 0
M  V30 3505 O 325.342 1.39201 3.88197 0
M  V30 3506 H 324.683 0.436982 0.499943 0
M  V30 3507 H 327.213 1.75224 1.0563 0
M  V30 3508 H 327.223 2.14403 3.47124 0
M  V30 3509 H 325.898 3.0783 2.79666 0
M  V30 3510 H 324.475 1.37381 3.46671 0
M  V30 3511 N 326.66 -1.06551 1.16123 0
M  V30 3512 C 327.61 -2.12209 0.833736 0
M  V30 3513 C 328.594 -1.59825 -0.185656 0
M  V30 3514 O 329.786 -1.76994 0.0147906 0
M  V30 3515 C 326.915 -3.41674 0.333697 0
M  V30 3516 C 326.001 -4.00892 1.38372 0
M  V30 3517 N 326.392 -4.34256 2.59337 0
M  V30 3518 C 324.69 -4.28463 1.23836 0
M  V30 3519 C 325.391 -4.81291 3.26701 0
M  V30 3520 N 324.367 -4.80565 2.54083 0
M  V30 3521 H 328.169 -2.35849 1.75364 0
M  V30 3522 H 325.683 -1.24068 1.04789 0
M  V30 3523 H 327.68 -4.16822 0.0806918 0
M  V30 3524 H 326.34 -3.19475 -0.58017 0
M  V30 3525 H 327.351 -4.24687 2.96415 0
M  V30 3526 H 324.028 -4.15721 0.38504 0
M  V30 3527 H 325.418 -5.16332 4.29943 0
M  V30 3528 N 328.138 -0.959301 -1.25041 0
M  V30 3529 C 329.554 -0.664474 -1.4511 0
M  V30 3530 C 329.754 0.776481 -1.85938 0
M  V30 3531 O 328.81 1.55128 -1.99227 0
M  V30 3532 C 330.123 -1.64139 -2.5195 0
M  V30 3533 C 331.671 -1.65309 -2.65786 0
M  V30 3534 C 332.146 -2.61777 -3.75815 0
M  V30 3535 N 333.637 -2.60169 -3.83231 0
M  V30 3536 C 334.372 -3.31489 -4.6787 0
M  V30 3537 N 333.868 -4.12298 -5.56761 0
M  V30 3538 N 335.661 -3.20354 -4.61876 0
M  V30 3539 H 327.812 -1.89043 -0.968332 0
M  V30 3540 H 330.075 -0.813408 -0.4869 0
M  V30 3541 H 329.781 -2.67086 -2.28819 0
M  V30 3542 H 329.655 -1.40756 -3.49954 0
M  V30 3543 H 332.042 -0.630778 -2.8828 0
M  V30 3544 H 332.123 -1.92753 -1.68167 0
M  V30 3545 H 331.767 -3.64137 -3.54071 0
M  V30 3546 H 331.697 -2.31616 -4.72929 0
M  V30 3547 H 334.188 -2.01507 -3.19692 0
M  V30 3548 H 334.501 -4.63625 -6.18281 0
M  V30 3549 H 332.846 -4.16395 -5.56454 0
M  V30 3550 H 336.037 -2.56692 -3.91442 0
M  V30 3551 H 336.21 -3.76201 -5.27614 0
M  V30 3552 N 329.616 1.39756 -0.72842 0
M  V30 3553 C 330.526 2.34444 -0.0855374 0
M  V30 3554 C 331.542 1.57976 0.729356 0
M  V30 3555 O 332.718 1.90301 0.659346 0
M  V30 3556 C 329.783 3.36965 0.815798 0
M  V30 3557 C 328.844 4.29299 -0.0105996 0
M  V30 3558 C 328.077 5.26923 0.84781 0
M  V30 3559 O 328.3 5.30859 2.08673 0
M  V30 3560 O 327.234 6.01249 0.279969 0
M  V30 3561 H 331.06 2.91065 -0.866892 0
M  V30 3562 H 328.645 1.4117 -0.48902 0
M  V30 3563 H 330.527 3.99804 1.33171 0
M  V30 3564 H 329.202 2.82739 1.57608 0
M  V30 3565 H 328.109 3.69703 -0.571877 0
M  V30 3566 H 329.442 4.86712 -0.73295 0
M  V30 3567 N 331.094 0.475555 1.50254 0
M  V30 3568 C 332.004 -0.321501 2.32387 0
M  V30 3569 C 333.02 -0.991755 1.42969 0
M  V30 3570 O 334.196 -0.978747 1.76018 0
M  V30 3571 C 331.261 -1.38667 3.17762 0
M  V30 3572 C 330.322 -0.732538 4.23004 0
M  V30 3573 C 329.555 -1.74695 5.04299 0
M  V30 3574 O 329.778 -2.97399 4.86734 0
M  V30 3575 O 328.712 -1.31631 5.8733 0
M  V30 3576 H 332.538 0.350071 3.01676 0
M  V30 3577 H 330.123 0.237321 1.47503 0
M  V30 3578 H 332.005 -2.00354 3.70724 0
M  V30 3579 H 330.68 -2.04163 2.51196 0
M  V30 3580 H 329.587 -0.0765902 3.74022 0
M  V30 3581 H 330.92 -0.120452 4.92053 0
M  V30 3582 N 332.573 -1.56217 0.208337 0
M  V30 3583 C 333.984 -1.84243 -0.301904 0
M  V30 3584 C 334.335 -1.12939 -1.60434 0
M  V30 3585 O 333.46 -0.39461 -2.12772 0
M  V30 3586 C 334.055 -3.34231 -0.554543 0
M  V30 3587 C 332.614 -3.62621 -1.00912 0
M  V30 3588 C 331.761 -2.77224 -0.064933 0
M  V30 3589 H 334.712 -1.52712 0.431833 0
M  V30 3590 H 334.733 -3.5372 -1.40223 0
M  V30 3591 H 334.245 -3.86099 0.393561 0
M  V30 3592 H 332.346 -3.16197 -1.97104 0
M  V30 3593 H 332.459 -4.7071 -0.892674 0
M  V30 3594 H 330.823 -2.48256 -0.56929 0
M  V30 3595 H 331.606 -3.31887 0.877851 0
M  V30 3596 N 334.051 0.0651679 -1.57465 0
M  V30 3597 C 335.297 0.758912 -1.88712 0
M  V30 3598 C 335.652 1.7485 -0.802819 0
M  V30 3599 O 334.945 1.90632 0.192359 0
M  V30 3600 C 335.139 1.50081 -3.24362 0
M  V30 3601 C 334.968 0.584579 -4.45884 0
M  V30 3602 C 333.738 0.219039 -5.04825 0
M  V30 3603 C 335.936 -0.121559 -5.14156 0
M  V30 3604 N 333.918 -0.702222 -6.09871 0
M  V30 3605 C 335.289 -0.899767 -6.13436 0
M  V30 3606 C 337.344 -0.192331 -4.97528 0
M  V30 3607 C 336.047 -1.74218 -6.97883 0
M  V30 3608 C 338.073 -1.02174 -5.82507 0
M  V30 3609 C 337.435 -1.78798 -6.8133 0
M  V30 3610 H 333.534 0.25293 -0.739967 0
M  V30 3611 H 336.118 0.0201744 -1.9469 0
M  V30 3612 H 334.289 2.21023 -3.1938 0
M  V30 3613 H 336.021 2.14409 -3.43236 0
M  V30 3614 H 332.776 0.57336 -4.70117 0
M  V30 3615 H 333.2 -1.15629 -6.67052 0
M  V30 3616 H 337.842 0.385741 -4.21037 0
M  V30 3617 H 335.56 -2.3312 -7.73745 0
M  V30 3618 H 339.146 -1.07957 -5.71696 0
M  V30 3619 H 338.026 -2.41942 -7.45945 0
M  V30 3620 N 335.529 1.53961 0.336706 0
M  V30 3621 C 336.775 1.7179 1.07777 0
M  V30 3622 C 337.108 0.483263 1.88091 0
M  V30 3623 O 336.383 -0.519747 1.87427 0
M  V30 3624 C 336.666 2.98558 2.01334 0
M  V30 3625 C 336.519 4.32245 1.24437 0
M  V30 3626 C 337.838 3.21023 3.01052 0
M  V30 3627 H 334.957 0.625089 0.390426 0
M  V30 3628 H 337.599 1.86641 0.35567 0
M  V30 3629 H 335.749 2.86028 2.62908 0
M  V30 3630 H 337.421 4.56637 0.654243 0
M  V30 3631 H 335.664 4.30344 0.546458 0
M  V30 3632 H 336.335 5.17137 1.93063 0
M  V30 3633 H 338.811 3.32929 2.49595 0
M  V30 3634 H 337.687 4.11104 3.6371 0
M  V30 3635 H 337.948 2.37637 3.72802 0
M  V30 3636 N 337.007 -0.598083 1.45811 0
M  V30 3637 C 338.284 -1.35777 1.40797 0
M  V30 3638 C 338.664 -2.10935 0.083462 0
M  V30 3639 O 338.012 -2.08505 -0.934763 0
M  V30 3640 C 338.222 -2.29666 2.62783 0
M  V30 3641 C 339.57 -2.91977 3.08277 0
M  V30 3642 O 340.594 -2.39984 2.63223 0
M  V30 3643 O 339.453 -3.86376 3.86491 0
M  V30 3644 H 336.547 -0.609291 0.55919 0
M  V30 3645 H 339.093 -0.620379 1.57954 0
M  V30 3646 H 337.865 -1.73454 3.50756 0
M  V30 3647 H 337.488 -3.1077 2.48008 0
M  V30 3648 N 338.485 -1.33259 -0.841409 0
M  V30 3649 C 339.896 -1.22066 -1.41269 0
M  V30 3650 C 340.247 0.161479 -1.95534 0
M  V30 3651 O 339.372 1.06094 -1.88608 0
M  V30 3652 C 339.967 -2.20996 -2.568 0
M  V30 3653 C 338.526 -2.13649 -3.09888 0
M  V30 3654 C 337.673 -2.08623 -1.82679 0
M  V30 3655 H 340.624 -1.44895 -0.647395 0
M  V30 3656 H 340.645 -1.81621 -3.34356 0
M  V30 3657 H 340.157 -3.2158 -2.17274 0
M  V30 3658 H 338.258 -1.16359 -3.53965 0
M  V30 3659 H 338.371 -3.04079 -3.70234 0
M  V30 3660 H 336.735 -1.54061 -2.02824 0
M  V30 3661 H 337.518 -3.1101 -1.45353 0
M  V30 3662 N 339.963 1.05934 -1.16686 0
M  V30 3663 C 340.911 2.15603 -0.872817 0
M  V30 3664 C 341.905 1.68647 0.159576 0
M  V30 3665 O 343.111 1.79995 0.0132125 0
M  V30 3666 H 339.486 0.703885 -0.264671 0
M  V30 3667 H 341.457 2.37613 -1.80507 0
M  V30 3668 C 340.206 3.45457 -0.394344 0
M  V30 3669 H 339.529 3.81984 -1.18019 0
M  V30 3670 H 340.969 4.2339 -0.227408 0
M  V30 3671 C 339.428 3.25021 0.88673 0
M  V30 3672 O 339.958 3.50906 1.95519 0
M  V30 3673 N 338.164 2.78437 0.831925 0
M  V30 3674 H 337.711 2.57572 -0.0377619 0
M  V30 3675 H 337.669 2.65144 1.68956 0
M  V30 3676 N 341.441 0.965919 1.2453 0
M  V30 3677 C 342.666 0.643971 1.97149 0
M  V30 3678 C 343.091 -0.779487 1.71189 0
M  V30 3679 O 342.449 -1.5288 0.974553 0
M  V30 3680 C 342.497 0.922557 3.48599 0
M  V30 3681 O 341.601 0.00707672 4.12399 0
M  V30 3682 H 340.942 0.243647 0.617683 0
M  V30 3683 H 343.472 1.29558 1.58353 0
M  V30 3684 H 343.482 0.853373 3.98976 0
M  V30 3685 H 342.157 1.95996 3.66822 0
M  V30 3686 H 340.734 0.12943 3.72675 0
M  V30 3687 N 342.919 -1.39368 0.735821 0
M  V30 3688 C 344.33 -1.83313 0.354015 0
M  V30 3689 C 344.681 -1.61461 -1.11466 0
M  V30 3690 O 343.806 -1.10621 -1.85989 0
M  V30 3691 C 344.401 -3.32781 0.635769 0
M  V30 3692 C 342.96 -3.75142 0.307448 0
M  V30 3693 C 342.107 -2.62358 0.897974 0
M  V30 3694 H 345.058 -1.28349 0.933398 0
M  V30 3695 H 345.079 -3.80388 -0.0921773 0
M  V30 3696 H 344.591 -3.48654 1.70476 0
M  V30 3697 H 342.692 -3.64857 -0.755674 0
M  V30 3698 H 342.805 -4.72532 0.790583 0
M  V30 3699 H 341.169 -2.52624 0.324551 0
M  V30 3700 H 341.952 -2.81036 1.97164 0
M  V30 3701 N 344.397 -0.483516 -1.5 0
M  V30 3702 C 345.643 0.0672592 -2.02688 0
M  V30 3703 C 345.976 1.38247 -1.36387 0
M  V30 3704 O 345.251 1.88131 -0.493675 0
M  V30 3705 C 345.534 0.238109 -3.59312 0
M  V30 3706 C 345.387 -1.099 -4.36168 0
M  V30 3707 C 346.706 0.986916 -4.28892 0
M  V30 3708 H 343.825 0.0229696 -0.736642 0
M  V30 3709 H 346.467 -0.631527 -1.79197 0
M  V30 3710 H 344.617 0.8333 -3.79458 0
M  V30 3711 H 346.289 -1.73172 -4.27562 0
M  V30 3712 H 344.532 -1.69261 -3.99416 0
M  V30 3713 H 345.203 -0.932954 -5.44059 0
M  V30 3714 H 347.679 0.482302 -4.13295 0
M  V30 3715 H 346.555 1.07527 -5.38265 0
M  V30 3716 H 346.816 2.0265 -3.92919 0
M  V30 3717 N 345.875 1.56104 -0.216619 0
M  V30 3718 C 346.805 2.23063 0.690296 0
M  V30 3719 C 347.786 1.20072 1.20485 0
M  V30 3720 O 348.971 1.48643 1.24976 0
M  V30 3721 C 346.101 2.90672 1.90072 0
M  V30 3722 C 345.055 4.00092 1.5202 0
M  V30 3723 C 344.381 4.54972 2.80899 0
M  V30 3724 C 345.681 5.17398 0.71391 0
M  V30 3725 H 347.375 2.99109 0.132038 0
M  V30 3726 H 344.921 1.43866 0.0620664 0
M  V30 3727 H 346.874 3.36204 2.54057 0
M  V30 3728 H 345.598 2.12066 2.48386 0
M  V30 3729 H 344.257 3.55283 0.903839 0
M  V30 3730 H 343.905 3.73102 3.37348 0
M  V30 3731 H 343.605 5.28817 2.56176 0
M  V30 3732 H 345.129 5.0322 3.45836 0
M  V30 3733 H 346.543 5.59342 1.25735 0
M  V30 3734 H 344.94 5.97444 0.563951 0
M  V30 3735 H 346.01 4.84088 -0.280527 0
M  V30 3736 N 347.353 -0.0568162 1.57498 0
M  V30 3737 C 348.283 -1.06593 2.0775 0
M  V30 3738 C 349.264 -1.39448 0.974082 0
M  V30 3739 O 350.449 -1.48815 1.24771 0
M  V30 3740 C 347.579 -2.37509 2.5339 0
M  V30 3741 C 346.533 -2.1897 3.67745 0
M  V30 3742 C 345.859 -3.55402 3.99492 0
M  V30 3743 C 347.159 -1.59859 4.97235 0
M  V30 3744 H 348.853 -0.647706 2.9231 0
M  V30 3745 H 346.399 -0.310116 1.40621 0
M  V30 3746 H 348.352 -3.08409 2.87162 0
M  V30 3747 H 347.076 -2.8134 1.65878 0
M  V30 3748 H 345.735 -1.50508 3.3428 0
M  V30 3749 H 345.383 -3.9683 3.09088 0
M  V30 3750 H 345.083 -3.43831 4.76502 0
M  V30 3751 H 346.607 -4.27708 4.35773 0
M  V30 3752 H 348.021 -2.20642 5.29141 0
M  V30 3753 H 346.418 -1.58942 5.78669 0
M  V30 3754 H 347.488 -0.561506 4.81638 0
M  V30 3755 N 348.832 -1.54138 -0.328536 0
M  V30 3756 C 349.742 -1.86192 -1.42723 0
M  V30 3757 C 350.758 -0.753382 -1.56844 0
M  V30 3758 O 351.934 -1.04718 -1.72035 0
M  V30 3759 C 348.999 -2.07824 -2.77507 0
M  V30 3760 C 348.06 -3.31641 -2.72603 0
M  V30 3761 C 347.293 -3.52232 -4.00959 0
M  V30 3762 O 347.516 -2.7636 -4.9898 0
M  V30 3763 O 346.45 -4.45699 -4.0452 0
M  V30 3764 H 350.276 -2.79608 -1.18547 0
M  V30 3765 H 347.861 -1.3998 -0.522104 0
M  V30 3766 H 349.743 -2.23411 -3.57303 0
M  V30 3767 H 348.418 -1.17596 -3.01584 0
M  V30 3768 H 347.325 -3.21444 -1.91376 0
M  V30 3769 H 348.658 -4.2191 -2.53481 0
M  V30 3770 N 350.31 0.590341 -1.46126 0
M  V30 3771 C 351.587 1.35029 -1.41515 0
M  V30 3772 C 351.967 2.10888 -0.0946472 0
M  V30 3773 O 351.315 2.08998 0.923693 0
M  V30 3774 C 351.525 2.28269 -2.63997 0
M  V30 3775 C 352.873 2.90338 -3.09821 0
M  V30 3776 O 353.897 2.38585 -2.64492 0
M  V30 3777 O 352.756 3.84321 -3.88535 0
M  V30 3778 H 349.85 0.606317 -0.562413 0
M  V30 3779 H 352.396 0.611994 -1.58281 0
M  V30 3780 H 351.168 1.71591 -3.51671 0
M  V30 3781 H 350.791 3.0945 -2.49652 0
M  V30 3782 N 351.788 1.33704 0.83433 0
M  V30 3783 C 353.199 1.22813 1.4062 0
M  V30 3784 C 353.55 -0.151107 1.95617 0
M  V30 3785 O 352.675 -1.05092 1.89168 0
M  V30 3786 C 353.27 2.22355 2.55624 0
M  V30 3787 C 351.829 2.1529 3.08751 0
M  V30 3788 C 350.976 2.09589 1.8157 0
M  V30 3789 H 353.927 1.45236 0.639702 0
M  V30 3790 H 353.948 1.83391 3.33389 0
M  V30 3791 H 353.46 3.22728 2.15566 0
M  V30 3792 H 351.561 1.18235 3.53343 0
M  V30 3793 H 351.674 3.06038 3.68616 0
M  V30 3794 H 350.038 1.55134 2.02004 0
M  V30 3795 H 350.821 3.11777 1.43701 0
M  V30 3796 N 353.266 -1.05314 1.17247 0
M  V30 3797 C 354.512 -1.78557 0.961513 0
M  V30 3798 C 354.845 -1.87419 -0.508697 0
M  V30 3799 O 354.12 -1.37307 -1.37757 0
M  V30 3800 C 354.403 -3.22514 1.60176 0
M  V30 3801 C 354.256 -3.21673 3.14399 0
M  V30 3802 C 355.575 -4.20318 1.30463 0
M  V30 3803 H 352.694 -0.6482 0.350723 0
M  V30 3804 H 355.336 -1.23102 1.44727 0
M  V30 3805 H 353.486 -3.69867 1.18871 0
M  V30 3806 H 355.158 -2.82405 3.64753 0
M  V30 3807 H 353.401 -2.60048 3.47214 0
M  V30 3808 H 354.072 -4.23271 3.54324 0
M  V30 3809 H 356.548 -3.81454 1.66229 0
M  V30 3810 H 355.424 -5.19289 1.77848 0
M  V30 3811 H 355.685 -4.41526 0.22521 0
M  V30 3812 N 354.744 -0.972509 -1.24016 0
M  V30 3813 C 355.674 -0.525548 -2.27509 0
M  V30 3814 C 356.655 0.437262 -1.64384 0
M  V30 3815 O 357.84 0.332343 -1.91335 0
M  V30 3816 C 354.97 0.180448 -3.46831 0
M  V30 3817 C 353.924 -0.698859 -4.22256 0
M  V30 3818 C 353.25 0.138903 -5.3452 0
M  V30 3819 C 354.55 -1.98582 -4.83076 0
M  V30 3820 H 356.244 -1.39058 -2.65148 0
M  V30 3821 H 353.79 -0.67009 -1.27459 0
M  V30 3822 H 355.743 0.504387 -4.18371 0
M  V30 3823 H 354.467 1.07987 -3.08231 0
M  V30 3824 H 353.126 -1.00614 -3.52523 0
M  V30 3825 H 352.774 1.03862 -4.9216 0
M  V30 3826 H 352.474 -0.446259 -5.85903 0
M  V30 3827 H 353.998 0.457404 -6.08884 0
M  V30 3828 H 355.412 -1.72715 -5.46665 0
M  V30 3829 H 353.809 -2.5181 -5.44713 0
M  V30 3830 H 354.879 -2.67769 -4.04262 0
M  V30 3831 N 356.222 1.38976 -0.743202 0
M  V30 3832 C 357.462 2.02193 -0.29954 0
M  V30 3833 C 357.826 1.5771 1.09506 0
M  V30 3834 O 359.027 2.13184 1.63726 0
M  V30 3835 C 357.298 3.55077 -0.406822 0
M  V30 3836 S 358.857 4.38778 -0.0442109 0
M  V30 3837 H 355.675 0.701335 -0.116836 0
M  V30 3838 H 358.277 1.69651 -0.971529 0
M  V30 3839 H 356.981 3.84942 -1.42295 0
M  V30 3840 H 356.512 3.92383 0.282707 0
M  V30 3841 H 358.527 4.82222 1.16947 0
M  V30 3842 N 357.7 0.491464 1.49741 0
M  V30 3843 C 358.663 -0.280906 2.27472 0
M  V30 3844 C 359.663 -0.902454 1.33088 0
M  V30 3845 O 360.853 -0.768465 1.56334 0
M  V30 3846 C 357.985 -1.40209 3.10732 0
M  V30 3847 H 359.178 0.401056 2.97206 0
M  V30 3848 H 356.731 0.246131 1.5435 0
M  V30 3849 H 357.466 -2.11849 2.45541 0
M  V30 3850 H 357.251 -0.961969 3.80117 0
M  V30 3851 H 358.741 -1.9464 3.69466 0
M  V30 3852 N 359.178 -1.55987 0.224894 0
M  V30 3853 C 360.108 -2.23426 -0.678457 0
M  V30 3854 C 361.089 -1.20709 -1.19847 0
M  V30 3855 O 362.274 -1.49304 -1.24186 0
M  V30 3856 C 359.404 -2.91676 -1.88527 0
M  V30 3857 C 358.358 -4.00893 -1.49896 0
M  V30 3858 C 357.684 -4.56455 -2.78483 0
M  V30 3859 C 358.984 -5.17769 -0.686461 0
M  V30 3860 H 360.678 -2.99175 -0.116173 0
M  V30 3861 H 358.224 -1.43897 -0.054436 0
M  V30 3862 H 360.177 -3.37547 -2.5227 0
M  V30 3863 H 358.901 -2.1338 -2.47258 0
M  V30 3864 H 357.56 -3.55758 -0.884985 0
M  V30 3865 H 357.208 -3.74886 -3.35365 0
M  V30 3866 H 356.908 -5.30169 -2.53368 0
M  V30 3867 H 358.432 -5.05047 -3.43162 0
M  V30 3868 H 359.846 -5.60001 -1.22767 0
M  V30 3869 H 358.243 -5.97735 -0.532259 0
M  V30 3870 H 359.313 -4.83932 0.306196 0
M  V30 3871 N 360.656 0.0484629 -1.57525 0
M  V30 3872 C 361.619 1.03956 -2.04269 0
M  V30 3873 C 362.619 1.30211 -0.943496 0
M  V30 3874 O 363.809 1.25539 -1.20771 0
M  V30 3875 C 360.941 2.37742 -2.44319 0
M  V30 3876 H 362.134 0.636182 -2.93075 0
M  V30 3877 H 359.687 0.294811 -1.53494 0
M  V30 3878 H 360.422 2.82866 -1.5861 0
M  V30 3879 H 360.207 2.20021 -3.24551 0
M  V30 3880 H 361.697 3.08936 -2.80978 0
M  V30 3881 N 362.134 1.5431 0.320358 0
M  V30 3882 C 363.081 1.83918 1.39438 0
M  V30 3883 C 364.051 0.686525 1.51248 0
M  V30 3884 O 365.236 0.933269 1.66417 0
M  V30 3885 C 362.376 2.075 2.75749 0
M  V30 3886 C 361.489 3.35177 2.72544 0
M  V30 3887 C 360.624 3.48704 4.00723 0
M  V30 3888 C 359.663 4.70244 3.91838 0
M  V30 3889 N 358.8 4.80679 5.11754 0
M  V30 3890 H 363.64 2.75544 1.13489 0
M  V30 3891 H 361.177 1.36459 0.549309 0
M  V30 3892 H 363.135 2.19166 3.54996 0
M  V30 3893 H 361.765 1.19163 3 0
M  V30 3894 H 360.817 3.32233 1.85271 0
M  V30 3895 H 362.129 4.24534 2.61863 0
M  V30 3896 H 361.283 3.59928 4.88402 0
M  V30 3897 H 360.022 2.57445 4.14214 0
M  V30 3898 H 359.027 4.59072 3.02544 0
M  V30 3899 H 360.252 5.6289 3.7991 0
M  V30 3900 H 358.198 3.92337 5.25745 0
M  V30 3901 H 358.115 5.64007 5.0342 0
M  V30 3902 H 359.383 4.96239 6.01138 0
M  V30 3903 N 363.613 -0.582584 1.46437 0
M  V30 3904 C 364.56 -1.69164 1.5701 0
M  V30 3905 C 365.53 -1.60847 0.414403 0
M  V30 3906 O 366.715 -1.80058 0.631171 0
M  V30 3907 C 363.855 -3.075 1.56646 0
M  V30 3908 C 362.968 -3.2644 2.82951 0
M  V30 3909 C 362.103 -4.55026 2.7409 0
M  V30 3910 C 361.142 -4.6731 3.95333 0
M  V30 3911 N 360.279 -5.87221 3.84858 0
M  V30 3912 H 365.119 -1.59464 2.51744 0
M  V30 3913 H 362.656 -0.777186 1.24893 0
M  V30 3914 H 364.614 -3.8757 1.5442 0
M  V30 3915 H 363.244 -3.16096 0.654439 0
M  V30 3916 H 362.296 -2.39974 2.95155 0
M  V30 3917 H 363.608 -3.31385 3.72808 0
M  V30 3918 H 362.762 -5.43324 2.6997 0
M  V30 3919 H 361.501 -4.52519 1.81873 0
M  V30 3920 H 360.506 -3.77429 3.99784 0
M  V30 3921 H 361.731 -4.71595 4.88646 0
M  V30 3922 H 359.677 -5.85712 2.95427 0
M  V30 3923 H 359.594 -5.93435 4.6837 0
M  V30 3924 H 360.862 -6.7795 3.84713 0
M  V30 3925 N 365.091 -1.34144 -0.827227 0
M  V30 3926 C 366.041 -1.21923 -1.92663 0
M  V30 3927 C 367.025 -0.119294 -1.60457 0
M  V30 3928 O 368.217 -0.348539 -1.73534 0
M  V30 3929 C 365.346 -0.972492 -3.29238 0
M  V30 3930 C 364.432 -2.1154 -3.67576 0
M  V30 3931 N 364.823 -3.36627 -3.77512 0
M  V30 3932 C 363.121 -2.02468 -3.97395 0
M  V30 3933 C 363.822 -4.11658 -4.1099 0
M  V30 3934 N 362.798 -3.40207 -4.23981 0
M  V30 3935 H 366.6 -2.16721 -1.98517 0
M  V30 3936 H 364.114 -1.2632 -1.02064 0
M  V30 3937 H 366.111 -0.865847 -4.0781 0
M  V30 3938 H 364.771 -0.0331509 -3.24683 0
M  V30 3939 H 365.782 -3.71234 -3.61118 0
M  V30 3940 H 362.459 -1.16265 -4.00985 0
M  V30 3941 H 363.849 -5.19657 -4.25918 0
M  V30 3942 N 366.569 1.04691 -1.17803 0
M  V30 3943 C 367.516 2.12557 -0.899343 0
M  V30 3944 C 368.486 1.65339 0.158771 0
M  V30 3945 O 369.671 1.90789 0.0204797 0
M  V30 3946 C 366.811 3.42481 -0.424315 0
M  V30 3947 C 365.924 4.03346 -1.54713 0
M  V30 3948 C 365.059 5.21208 -1.02546 0
M  V30 3949 C 364.098 5.74089 -2.12339 0
M  V30 3950 N 363.235 6.83247 -1.61612 0
M  V30 3951 H 368.075 2.35734 -1.823 0
M  V30 3952 H 365.612 1.1564 -0.909159 0
M  V30 3953 H 367.57 4.16996 -0.130421 0
M  V30 3954 H 366.2 3.19471 0.462377 0
M  V30 3955 H 365.252 3.2622 -1.95664 0
M  V30 3956 H 366.564 4.38628 -2.37501 0
M  V30 3957 H 365.718 6.02812 -0.685718 0
M  V30 3958 H 364.457 4.87414 -0.167084 0
M  V30 3959 H 363.462 4.91111 -2.47165 0
M  V30 3960 H 364.687 6.0993 -2.98601 0
M  V30 3961 H 362.633 6.5134 -0.780533 0
M  V30 3962 H 362.55 7.17559 -2.38003 0
M  V30 3963 H 363.818 7.68491 -1.30545 0
M  V30 3964 N 368.047 0.979072 1.23499 0
M  V30 3965 C 369.463 0.687475 1.44034 0
M  V30 3966 C 369.663 -0.746801 1.8715 0
M  V30 3967 O 368.719 -1.51939 2.0167 0
M  V30 3968 C 370.032 1.68127 2.49307 0
M  V30 3969 C 371.58 1.69516 2.63122 0
M  V30 3970 C 372.055 2.67723 3.71603 0
M  V30 3971 N 373.546 2.66233 3.79044 0
M  V30 3972 C 374.281 3.38891 4.62537 0
M  V30 3973 N 373.777 4.21103 5.50131 0
M  V30 3974 N 375.57 3.27661 4.56721 0
M  V30 3975 H 367.721 1.90559 0.938135 0
M  V30 3976 H 369.984 0.821051 0.473897 0
M  V30 3977 H 369.69 2.70693 2.2454 0
M  V30 3978 H 369.564 1.46306 3.4767 0
M  V30 3979 H 371.951 0.676561 2.8724 0
M  V30 3980 H 372.032 1.95404 1.65079 0
M  V30 3981 H 371.676 3.69724 3.48233 0
M  V30 3982 H 371.606 2.39111 4.69184 0
M  V30 3983 H 374.097 2.06568 3.16446 0
M  V30 3984 H 374.41 4.73403 6.10827 0
M  V30 3985 H 372.755 4.25195 5.49759 0
M  V30 3986 H 375.946 2.62887 3.87309 0
M  V30 3987 H 376.119 3.84547 5.21562 0
M  V30 3988 N 369.525 -1.3858 0.750561 0
M  V30 3989 C 370.753 -2.04471 0.316098 0
M  V30 3990 C 371.168 -1.56606 -1.05452 0
M  V30 3991 O 370.525 -0.737784 -1.66922 0
M  V30 3992 C 370.576 -3.60025 0.326275 0
M  V30 3993 O 370.297 -4.06133 1.6428 0
M  V30 3994 C 371.798 -4.43131 -0.122429 0
M  V30 3995 H 369.018 -0.65717 0.135528 0
M  V30 3996 H 371.562 -1.77329 1.01857 0
M  V30 3997 H 369.717 -3.86014 -0.327431 0
M  V30 3998 H 370.131 -5.00547 1.56693 0
M  V30 3999 H 371.605 -5.51963 -0.0641473 0
M  V30 4000 H 372.082 -4.23333 -1.16988 0
M  V30 4001 H 372.688 -4.22323 0.50229 0
M  V30 4002 N 371.003 -0.499398 -1.49478 0
M  V30 4003 C 372.414 -0.051215 -1.8663 0
M  V30 4004 C 372.765 1.36238 -1.41186 0
M  V30 4005 O 371.89 2.01502 -0.789051 0
M  V30 4006 C 372.485 -0.0861651 -3.3869 0
M  V30 4007 C 371.044 0.30667 -3.75149 0
M  V30 4008 C 370.191 -0.459397 -2.73468 0
M  V30 4009 H 373.142 -0.712264 -1.41818 0
M  V30 4010 H 373.163 0.709507 -3.73826 0
M  V30 4011 H 372.675 -1.11512 -3.71735 0
M  V30 4012 H 370.776 1.33892 -3.47712 0
M  V30 4013 H 370.889 -0.0116669 -4.79099 0
M  V30 4014 H 369.253 0.0905645 -2.54539 0
M  V30 4015 H 370.036 -1.4884 -3.09357 0
M  V30 4016 N 372.481 1.55866 -0.233164 0
M  V30 4017 C 373.444 2.1953 0.658715 0
M  V30 4018 C 374.444 1.16053 1.11303 0
M  V30 4019 O 375.634 1.41218 1.01996 0
M  V30 4020 C 372.766 2.82791 1.90373 0
M  V30 4021 H 373.959 2.99721 0.10347 0
M  V30 4022 H 371.512 1.56291 0.0164245 0
M  V30 4023 H 372.247 2.06501 2.50056 0
M  V30 4024 H 372.032 3.58578 1.58632 0
M  V30 4025 H 373.522 3.31556 2.53891 0
M  V30 4026 N 373.959 -0.0401083 1.57549 0
M  V30 4027 C 374.889 -1.04384 2.08869 0
M  V30 4028 C 375.87 -1.38407 0.988817 0
M  V30 4029 O 377.055 -1.47483 1.26342 0
M  V30 4030 C 374.185 -2.34808 2.55895 0
M  V30 4031 C 373.139 -2.15057 3.70047 0
M  V30 4032 C 372.465 -3.51145 4.03239 0
M  V30 4033 C 373.765 -1.54576 4.98902 0
M  V30 4034 H 375.459 -0.616666 2.92981 0
M  V30 4035 H 373.005 -0.295184 1.40942 0
M  V30 4036 H 374.958 -3.05346 2.90417 0
M  V30 4037 H 373.682 -2.79565 1.68853 0
M  V30 4038 H 372.341 -1.46954 3.35857 0
M  V30 4039 H 371.989 -3.93529 3.13279 0
M  V30 4040 H 371.689 -3.38758 4.80122 0
M  V30 4041 H 373.213 -4.23062 4.40285 0
M  V30 4042 H 374.627 -2.15017 5.31451 0
M  V30 4043 H 373.024 -1.52796 5.80322 0
M  V30 4044 H 374.094 -0.51039 4.82206 0
M  V30 4045 N 375.437 -1.54477 -0.31217 0
M  V30 4046 C 376.686 -1.72438 -1.04633 0
M  V30 4047 C 376.999 -0.511163 -1.88803 0
M  V30 4048 O 378.205 -0.572341 -2.65399 0
M  V30 4049 C 376.661 -3.05043 -1.9099 0
M  V30 4050 C 376.269 -4.33806 -1.11877 0
M  V30 4051 C 378.013 -3.32364 -2.64073 0
M  V30 4052 C 375.92 -5.57467 -1.97445 0
M  V30 4053 H 374.85 -0.642647 -0.394361 0
M  V30 4054 H 377.501 -1.80966 -0.303929 0
M  V30 4055 H 375.883 -2.90451 -2.69173 0
M  V30 4056 H 377.057 -4.59199 -0.383843 0
M  V30 4057 H 375.372 -4.13336 -0.504252 0
M  V30 4058 H 377.969 -4.21951 -3.28423 0
M  V30 4059 H 378.312 -2.50745 -3.32314 0
M  V30 4060 H 378.845 -3.47875 -1.92944 0
M  V30 4061 H 375.584 -6.41722 -1.33692 0
M  V30 4062 H 375.104 -5.36277 -2.6864 0
M  V30 4063 H 376.783 -5.94303 -2.5576 0
M  V30 4064 N 376.915 0.57481 -1.46744 0
M  V30 4065 C 377.878 1.66533 -1.57478 0
M  V30 4066 C 378.878 1.54338 -0.451263 0
M  V30 4067 O 380.068 1.58814 -0.715813 0
M  V30 4068 C 377.2 3.05999 -1.50259 0
M  V30 4069 H 378.393 1.58372 -2.54673 0
M  V30 4070 H 375.946 0.793301 -1.34672 0
M  V30 4071 H 376.681 3.19709 -0.543725 0
M  V30 4072 H 376.466 3.16259 -2.31781 0
M  V30 4073 H 377.956 3.8537 -1.60872 0
M  V30 4074 N 378.394 1.34581 0.820102 0
M  V30 4075 C 379.324 1.29038 1.94606 0
M  V30 4076 C 380.305 0.1673 1.69275 0
M  V30 4077 O 381.49 0.360112 1.90832 0
M  V30 4078 C 378.62 1.04793 3.31113 0
M  V30 4079 C 377.574 2.13597 3.70891 0
M  V30 4080 C 376.9 1.74537 5.05412 0
M  V30 4081 C 378.2 3.55451 3.8269 0
M  V30 4082 H 379.894 2.23248 1.99501 0
M  V30 4083 H 377.44 1.0747 0.958449 0
M  V30 4084 H 379.393 0.995592 4.0947 0
M  V30 4085 H 378.117 0.0702565 3.26524 0
M  V30 4086 H 376.776 2.17905 2.9481 0
M  V30 4087 H 376.424 0.754226 4.97313 0
M  V30 4088 H 376.124 2.47361 5.32997 0
M  V30 4089 H 377.648 1.70803 5.86224 0
M  V30 4090 H 379.062 3.5354 4.51312 0
M  V30 4091 H 377.459 4.26922 4.21732 0
M  V30 4092 H 378.529 3.92587 2.84611 0
M  V30 4093 N 379.872 -1.04064 1.18357 0
M  V30 4094 C 381.288 -1.2947 0.933258 0
M  V30 4095 C 381.488 -1.97466 -0.401169 0
M  V30 4096 O 380.544 -2.25528 -1.13549 0
M  V30 4097 C 381.857 -2.15337 2.09882 0
M  V30 4098 C 383.405 -2.28683 2.13712 0
M  V30 4099 C 383.88 -3.17917 3.29686 0
M  V30 4100 N 385.371 -3.25504 3.29547 0
M  V30 4101 C 386.106 -3.94706 4.15926 0
M  V30 4102 N 385.602 -4.66239 5.12439 0
M  V30 4103 N 387.395 -3.90986 4.0384 0
M  V30 4104 H 379.546 -0.583359 2.04232 0
M  V30 4105 H 381.809 -0.319921 0.892387 0
M  V30 4106 H 381.515 -1.72682 3.06389 0
M  V30 4107 H 381.389 -3.16015 2.05947 0
M  V30 4108 H 383.776 -2.70575 1.17784 0
M  V30 4109 H 383.857 -1.27596 2.21705 0
M  V30 4110 H 383.501 -2.76736 4.25887 0
M  V30 4111 H 383.431 -4.19036 3.1893 0
M  V30 4112 H 385.922 -2.74547 2.59677 0
M  V30 4113 H 386.235 -5.16638 5.74722 0
M  V30 4114 H 384.58 -4.65143 5.16398 0
M  V30 4115 H 387.771 -3.34234 3.27727 0
M  V30 4116 H 387.944 -4.44646 4.71375 0
M  V30 4117 N 381.35 -0.985608 -1.22978 0
M  V30 4118 C 382.58 -0.674603 -1.95276 0
M  V30 4119 C 382.988 0.763483 -1.73111 0
M  V30 4120 O 382.331 1.52601 -1.02268 0
M  V30 4121 C 382.393 -0.891597 -3.48268 0
M  V30 4122 C 382.057 -2.31275 -3.94158 0
M  V30 4123 C 383.054 -3.29179 -4.02415 0
M  V30 4124 C 380.739 -2.64524 -4.27004 0
M  V30 4125 C 382.733 -4.58407 -4.42879 0
M  V30 4126 C 380.42 -3.93974 -4.67149 0
M  V30 4127 C 381.418 -4.90727 -4.75053 0
M  V30 4128 O 381.106 -6.17865 -5.14294 0
M  V30 4129 H 380.838 -0.249251 -0.628371 0
M  V30 4130 H 383.392 -1.32106 -1.5728 0
M  V30 4131 H 381.622 -0.187962 -3.86243 0
M  V30 4132 H 383.311 -0.576957 -4.01779 0
M  V30 4133 H 384.077 -3.04823 -3.77237 0
M  V30 4134 H 379.956 -1.89923 -4.2006 0
M  V30 4135 H 383.5 -5.33926 -4.48964 0
M  V30 4136 H 379.397 -4.18122 -4.91777 0
M  V30 4137 H 380.165 -6.21694 -5.32389 0
M  V30 4138 N 382.828 1.3818 -0.7579 0
M  V30 4139 C 383.76 2.2901 -0.0932177 0
M  V30 4140 C 384.773 1.47958 0.679136 0
M  V30 4141 O 385.962 1.70773 0.519514 0
M  V30 4142 C 383.062 3.26953 0.89192 0
M  V30 4143 C 382.235 4.37045 0.176303 0
M  V30 4144 C 381.294 5.15148 1.07281 0
M  V30 4145 O 380.32 5.66616 0.541728 0
M  V30 4146 N 381.522 5.28542 2.40049 0
M  V30 4147 H 384.287 2.86694 -0.873303 0
M  V30 4148 H 381.848 1.50007 -0.609054 0
M  V30 4149 H 383.84 3.76083 1.49479 0
M  V30 4150 H 382.41 2.70136 1.57306 0
M  V30 4151 H 381.63 3.89493 -0.607328 0
M  V30 4152 H 382.918 5.07801 -0.318718 0
M  V30 4153 H 382.316 4.88285 2.85647 0
M  V30 4154 H 380.873 5.8103 2.95376 0
M  V30 4155 N 384.306 0.507319 1.49211 0
M  V30 4156 C 385.236 -0.256939 2.32082 0
M  V30 4157 C 386.217 -0.956609 1.40652 0
M  V30 4158 O 387.402 -0.946788 1.69557 0
M  V30 4159 C 384.532 -1.31802 3.21318 0
M  V30 4160 C 383.486 -0.737855 4.21592 0
M  V30 4161 C 382.812 -1.89992 4.99807 0
M  V30 4162 C 384.112 0.275325 5.21574 0
M  V30 4163 H 385.806 0.434798 2.96226 0
M  V30 4164 H 383.352 0.210546 1.42452 0
M  V30 4165 H 385.305 -1.86045 3.78107 0
M  V30 4166 H 384.029 -2.03903 2.5513 0
M  V30 4167 H 382.688 -0.217126 3.65956 0
M  V30 4168 H 382.336 -2.60877 4.30061 0
M  V30 4169 H 382.036 -1.51777 5.6766 0
M  V30 4170 H 383.56 -2.44657 5.59442 0
M  V30 4171 H 384.974 -0.179193 5.7302 0
M  V30 4172 H 383.371 0.573649 5.97352 0
M  V30 4173 H 384.441 1.18903 4.70096 0
M  V30 4174 N 385.784 -1.5574 0.241426 0
M  V30 4175 C 386.716 -2.18469 -0.693091 0
M  V30 4176 C 387.729 -1.15942 -1.14286 0
M  V30 4177 O 388.918 -1.42832 -1.07058 0
M  V30 4178 C 386.018 -2.7696 -1.95311 0
M  V30 4179 C 385.191 -4.04853 -1.65568 0
M  V30 4180 C 384.25 -4.47715 -2.76474 0
M  V30 4181 O 383.276 -5.14205 -2.44094 0
M  V30 4182 N 384.478 -4.15044 -4.05855 0
M  V30 4183 H 387.243 -2.99292 -0.156388 0
M  V30 4184 H 384.804 -1.61784 0.0611752 0
M  V30 4185 H 386.796 -3.02594 -2.68736 0
M  V30 4186 H 385.366 -2.00326 -2.39975 0
M  V30 4187 H 384.586 -3.86865 -0.756886 0
M  V30 4188 H 385.874 -4.88246 -1.43153 0
M  V30 4189 H 385.272 -3.61654 -4.34998 0
M  V30 4190 H 383.829 -4.45526 -4.75762 0
M  V30 4191 N 387.262 0.0317525 -1.57568 0
M  V30 4192 C 388.678 0.38735 -1.54828 0
M  V30 4193 C 388.878 1.7677 -0.967187 0
M  V30 4194 O 387.934 2.45581 -0.587063 0
M  V30 4195 C 389.247 0.291667 -2.99282 0
M  V30 4196 C 390.795 0.368946 -3.10818 0
M  V30 4197 C 391.27 0.302741 -4.56998 0
M  V30 4198 N 392.761 0.361617 -4.61786 0
M  V30 4199 C 393.496 0.333238 -5.72431 0
M  V30 4200 N 392.992 0.257308 -6.92322 0
M  V30 4201 N 394.785 0.382769 -5.60795 0
M  V30 4202 H 386.936 -0.871609 -1.93692 0
M  V30 4203 H 389.199 -0.331161 -0.888277 0
M  V30 4204 H 388.905 -0.656794 -3.45513 0
M  V30 4205 H 388.779 1.08638 -3.61217 0
M  V30 4206 H 391.166 1.30784 -2.64536 0
M  V30 4207 H 391.247 -0.455066 -2.5172 0
M  V30 4208 H 390.891 -0.632473 -5.03947 0
M  V30 4209 H 390.821 1.14482 -5.14005 0
M  V30 4210 H 393.312 0.422923 -3.75526 0
M  V30 4211 H 393.625 0.24068 -7.72425 0
M  V30 4212 H 391.97 0.223396 -6.94641 0
M  V30 4213 H 395.161 0.44006 -4.66027 0
M  V30 4214 H 395.334 0.357184 -6.47015 0
M  V30 4215 N 388.74 1.54641 0.303973 0
M  V30 4216 C 389.988 1.73437 1.0375 0
M  V30 4217 C 390.309 0.521449 1.87899 0
M  V30 4218 O 389.579 -0.46432 1.90318 0
M  V30 4219 H 388.159 0.639518 0.386039 0
M  V30 4220 H 390.821 1.91988 0.335675 0
M  V30 4221 H 389.917 2.62235 1.69231 0
M  V30 4222 N 390.218 -0.567019 1.47046 0
M  V30 4223 C 391.464 -1.32658 1.53394 0
M  V30 4224 C 391.797 -1.93254 0.19148 0
M  V30 4225 O 391.072 -1.77338 -0.798844 0
M  V30 4226 C 391.355 -2.44412 2.64452 0
M  V30 4227 C 391.208 -1.88749 4.08282 0
M  V30 4228 C 392.527 -3.46387 2.71485 0
M  V30 4229 H 389.646 -0.48098 0.558415 0
M  V30 4230 H 392.288 -0.635481 1.79058 0
M  V30 4231 H 390.438 -3.03363 2.427 0
M  V30 4232 H 392.11 -1.34134 4.41368 0
M  V30 4233 H 390.353 -1.19481 4.17021 0
M  V30 4234 H 391.024 -2.69491 4.81745 0
M  V30 4235 H 393.5 -2.9734 2.91081 0
M  V30 4236 H 392.376 -4.2202 3.50985 0
M  V30 4237 H 392.637 -4.04616 1.78153 0
M  V30 4238 N 391.696 -1.35014 -0.812953 0
M  V30 4239 C 392.942 -1.2812 -1.57204 0
M  V30 4240 C 393.275 0.145869 -1.93651 0
M  V30 4241 O 392.55 1.0937 -1.60836 0
M  V30 4242 C 392.833 -2.18162 -2.86492 0
M  V30 4243 C 392.686 -3.69454 -2.56561 0
M  V30 4244 C 394.005 -2.07439 -3.88145 0
M  V30 4245 H 391.124 -0.466746 -0.570366 0
M  V30 4246 H 393.766 -1.65357 -0.935783 0
M  V30 4247 H 391.916 -1.86535 -3.40789 0
M  V30 4248 H 393.588 -4.11493 -2.08497 0
M  V30 4249 H 391.831 -3.9005 -1.89851 0
M  V30 4250 H 392.502 -4.27835 -3.48799 0
M  V30 4251 H 394.978 -2.35228 -3.4323 0
M  V30 4252 H 393.854 -2.7265 -4.76396 0
M  V30 4253 H 394.115 -1.05439 -4.29343 0
M  V30 4254 N 393.175 1.03435 -1.18907 0
M  V30 4255 C 394.421 1.77005 -0.989798 0
M  V30 4256 C 394.754 1.88205 0.478816 0
M  V30 4257 O 394.029 1.39481 1.35556 0
M  V30 4258 C 394.312 3.19925 -1.65287 0
M  V30 4259 C 394.165 3.1663 -3.19477 0
M  V30 4260 C 395.484 4.18189 -1.37134 0
M  V30 4261 H 392.603 0.642538 -0.360991 0
M  V30 4262 H 395.245 1.20784 -1.46667 0
M  V30 4263 H 393.395 3.67929 -1.24741 0
M  V30 4264 H 395.067 2.76567 -3.692 0
M  V30 4265 H 393.31 2.54491 -3.51307 0
M  V30 4266 H 393.981 4.1758 -3.61013 0
M  V30 4267 H 396.457 3.78761 -1.72276 0
M  V30 4268 H 395.333 5.16394 -1.86087 0
M  V30 4269 H 395.594 4.41112 -0.295424 0
M  V30 4270 N 394.653 0.992116 1.22453 0
M  V30 4271 C 395.583 0.561677 2.26644 0
M  V30 4272 C 396.564 -0.411055 1.65059 0
M  V30 4273 O 397.749 -0.301861 1.9184 0
M  V30 4274 C 394.879 -0.125247 3.47074 0
M  V30 4275 C 393.833 0.765948 4.21091 0
M  V30 4276 C 393.159 -0.0538484 5.34673 0
M  V30 4277 C 394.459 2.06242 4.79856 0
M  V30 4278 H 396.153 1.43259 2.62902 0
M  V30 4279 H 393.699 0.690283 1.26377 0
M  V30 4280 H 395.652 -0.437764 4.1912 0
M  V30 4281 H 394.376 -1.03069 3.0991 0
M  V30 4282 H 393.035 1.0621 3.50878 0
M  V30 4283 H 392.683 -0.960188 4.9375 0
M  V30 4284 H 392.383 0.539415 5.85119 0
M  V30 4285 H 393.907 -0.360477 6.09535 0
M  V30 4286 H 395.321 1.8139 5.43848 0
M  V30 4287 H 393.718 2.60444 5.40638 0
M  V30 4288 H 394.788 2.74167 3.99951 0
M  V30 4289 N 396.131 -1.37776 0.765217 0
M  V30 4290 C 397.094 -2.28686 0.153416 0
M  V30 4291 C 398.094 -1.47727 -0.635081 0
M  V30 4292 O 399.284 -1.68027 -0.459632 0
M  V30 4293 C 396.416 -3.31608 -0.790495 0
M  V30 4294 H 397.609 -2.84297 0.954723 0
M  V30 4295 H 395.162 -1.46932 0.53299 0
M  V30 4296 H 395.897 -2.81109 -1.61705 0
M  V30 4297 H 395.682 -3.9144 -0.227348 0
M  V30 4298 H 397.172 -3.99559 -1.21419 0
M  V30 4299 N 397.609 -0.515225 -1.4894 0
M  V30 4300 C 398.556 0.255567 -2.29381 0
M  V30 4301 C 399.526 0.947387 -1.36432 0
M  V30 4302 O 400.711 0.951288 -1.65394 0
M  V30 4303 C 397.851 1.30551 -3.19453 0
M  V30 4304 C 396.964 0.624029 -4.27469 0
M  V30 4305 C 396.099 1.65563 -5.0474 0
M  V30 4306 C 395.138 0.956802 -6.04576 0
M  V30 4307 N 394.275 1.93326 -6.74959 0
M  V30 4308 H 399.115 -0.436607 -2.94784 0
M  V30 4309 H 396.652 -0.227154 -1.45336 0
M  V30 4310 H 398.61 1.92639 -3.70062 0
M  V30 4311 H 397.24 1.96626 -2.56004 0
M  V30 4312 H 396.292 -0.110459 -3.8024 0
M  V30 4313 H 397.604 0.0746092 -4.98744 0
M  V30 4314 H 396.758 2.35119 -5.59289 0
M  V30 4315 H 395.497 2.23893 -4.3327 0
M  V30 4316 H 394.502 0.247097 -5.49244 0
M  V30 4317 H 395.727 0.379814 -6.78037 0
M  V30 4318 H 393.673 2.50591 -6.06251 0
M  V30 4319 H 393.59 1.43489 -7.42258 0
M  V30 4320 H 394.858 2.62126 -7.34105 0
M  V30 4321 N 399.087 1.5561 -0.249682 0
M  V30 4322 C 400.312 2.03865 0.381305 0
M  V30 4323 C 400.737 1.12769 1.50548 0
M  V30 4324 O 400.095 0.121189 1.80895 0
M  V30 4325 C 400.143 3.50101 0.863816 0
M  V30 4326 O 399.247 3.62132 1.97318 0
M  V30 4327 H 398.588 0.658827 0.0827194 0
M  V30 4328 H 401.118 2.01105 -0.376552 0
M  V30 4329 H 401.128 3.90975 1.1663 0
M  V30 4330 H 399.803 4.1588 0.0411816 0
M  V30 4331 H 398.38 3.33155 1.67517 0
M  V30 4332 N 400.565 -0.0233959 1.57583 0
M  V30 4333 C 401.795 -0.723631 1.93513 0
M  V30 4334 C 402.203 -1.69115 0.848333 0
M  V30 4335 O 401.546 -1.82781 -0.183484 0
M  V30 4336 C 401.608 -1.53075 3.25282 0
M  V30 4337 C 401.272 -0.727388 4.51174 0
M  V30 4338 C 402.269 -0.0251924 5.19894 0
M  V30 4339 C 399.954 -0.680256 4.97672 0
M  V30 4340 C 401.948 0.713374 6.33395 0
M  V30 4341 C 399.635 0.0620523 6.11068 0
M  V30 4342 C 400.633 0.757622 6.78785 0
M  V30 4343 O 400.321 1.48787 7.90011 0
M  V30 4344 H 400.053 -0.208051 0.643188 0
M  V30 4345 H 402.607 0.0167489 2.05393 0
M  V30 4346 H 400.837 -2.31508 3.09744 0
M  V30 4347 H 402.526 -2.11413 3.46496 0
M  V30 4348 H 403.292 -0.0526003 4.84971 0
M  V30 4349 H 399.171 -1.21116 4.44805 0
M  V30 4350 H 402.715 1.25683 6.86185 0
M  V30 4351 H 398.612 0.0913634 6.45435 0
M  V30 4352 H 399.38 1.40213 8.06401 0
M  V30 4353 N 402.043 -1.548 -0.295768 0
M  V30 4354 C 402.991 -1.86874 -1.38495 0
M  V30 4355 C 403.985 -0.742938 -1.52239 0
M  V30 4356 O 405.191 -0.926999 -1.54294 0
M  V30 4357 H 401.566 -0.592786 -0.462719 0
M  V30 4358 H 403.537 -2.77904 -1.08682 0
M  V30 4359 C 402.286 -2.13732 -2.74252 0
M  V30 4360 H 401.609 -2.99835 -2.64459 0
M  V30 4361 H 403.049 -2.4011 -3.49461 0
M  V30 4362 C 401.508 -0.937539 -3.23592 0
M  V30 4363 O 402.038 -0.160665 -4.01379 0
M  V30 4364 N 400.244 -0.741478 -2.80981 0
M  V30 4365 H 399.791 -1.37489 -2.1784 0
M  V30 4366 H 399.749 0.0597103 -3.14343 0
M  V30 4367 N 403.521 0.559213 -1.47345 0
M  V30 4368 C 404.431 1.69388 -1.62311 0
M  V30 4369 C 405.447 1.6648 -0.505993 0
M  V30 4370 O 406.623 1.85964 -0.773262 0
M  V30 4371 C 403.688 3.05894 -1.63185 0
M  V30 4372 C 402.749 3.19885 -2.86307 0
M  V30 4373 C 401.982 4.49879 -2.87131 0
M  V30 4374 O 402.205 5.35217 -1.97229 0
M  V30 4375 O 401.139 4.67618 -3.78968 0
M  V30 4376 H 404.965 1.59706 -2.58317 0
M  V30 4377 H 402.55 0.728989 -1.30407 0
M  V30 4378 H 404.432 3.87133 -1.66451 0
M  V30 4379 H 403.107 3.15964 -0.70345 0
M  V30 4380 H 402.014 2.38052 -2.88587 0
M  V30 4381 H 403.347 3.14718 -3.78435 0
M  V30 4382 N 404.999 1.35443 0.805782 0
M  V30 4383 C 405.931 1.24285 1.92577 0
M  V30 4384 C 406.944 0.165962 1.61952 0
M  V30 4385 O 408.133 0.419303 1.73505 0
M  V30 4386 C 405.233 0.891272 3.2697 0
M  V30 4387 C 404.406 2.06669 3.85495 0
M  V30 4388 C 403.465 1.69077 4.98297 0
M  V30 4389 O 402.491 2.4096 5.15681 0
M  V30 4390 N 403.693 0.614869 5.77234 0
M  V30 4391 H 406.458 2.20777 2.02676 0
M  V30 4392 H 404.019 1.28623 0.983243 0
M  V30 4393 H 406.011 0.621256 3.99903 0
M  V30 4394 H 404.581 0.016004 3.12596 0
M  V30 4395 H 403.801 2.50046 3.04747 0
M  V30 4396 H 405.089 2.85237 4.21328 0
M  V30 4397 H 404.487 0.017648 5.65697 0
M  V30 4398 H 403.044 0.404636 6.50543 0
M  V30 4399 N 406.477 -1.02803 1.19454 0
M  V30 4400 C 407.893 -1.28473 0.946937 0
M  V30 4401 C 408.093 -1.97881 -0.380202 0
M  V30 4402 O 407.149 -2.26719 -1.11151 0
M  V30 4403 C 408.462 -2.13099 2.12154 0
M  V30 4404 C 410.01 -2.26404 2.16126 0
M  V30 4405 C 410.485 -3.14402 3.33039 0
M  V30 4406 N 411.976 -3.21991 3.32981 0
M  V30 4407 C 412.711 -3.90272 4.20089 0
M  V30 4408 N 412.207 -4.60777 5.17355 0
M  V30 4409 N 414 -3.8668 4.07964 0
M  V30 4410 H 406.151 -0.561665 2.04839 0
M  V30 4411 H 408.414 -0.310438 0.89573 0
M  V30 4412 H 408.12 -1.69422 3.08203 0
M  V30 4413 H 407.994 -3.13813 2.09287 0
M  V30 4414 H 410.381 -2.69311 1.20647 0
M  V30 4415 H 410.462 -1.25237 2.23045 0
M  V30 4416 H 410.106 -2.72204 4.28798 0
M  V30 4417 H 410.036 -4.1563 3.23356 0
M  V30 4418 H 412.527 -2.71778 2.62574 0
M  V30 4419 H 412.84 -5.10513 5.80169 0
M  V30 4420 H 411.185 -4.5964 5.21302 0
M  V30 4421 H 414.376 -3.30739 3.31254 0
M  V30 4422 H 414.549 -4.39621 4.76064 0
M  V30 4423 N 407.956 -0.998596 -1.21925 0
M  V30 4424 C 409.205 -0.673085 -1.90138 0
M  V30 4425 C 409.518 0.79895 -1.78539 0
M  V30 4426 O 410.724 1.23628 -2.4172 0
M  V30 4427 C 409.18 -1.15339 -3.40918 0
M  V30 4428 C 408.788 -2.65106 -3.61141 0
M  V30 4429 C 410.532 -0.902476 -4.14796 0
M  V30 4430 C 408.439 -3.0671 -5.05651 0
M  V30 4431 H 407.369 -0.248057 -0.712028 0
M  V30 4432 H 410.02 -1.20891 -1.38049 0
M  V30 4433 H 408.402 -0.545658 -3.92223 0
M  V30 4434 H 409.576 -3.31274 -3.20304 0
M  V30 4435 H 407.891 -2.88142 -3.00605 0
M  V30 4436 H 410.488 -1.18895 -5.21314 0
M  V30 4437 H 410.831 0.161349 -4.15987 0
M  V30 4438 H 411.364 -1.47269 -3.69536 0
M  V30 4439 H 408.103 -4.12292 -5.09603 0
M  V30 4440 H 407.623 -2.45249 -5.47369 0
M  V30 4441 H 409.302 -2.9833 -5.74115 0
M  V30 4442 N 409.434 1.37368 -0.772513 0
M  V30 4443 C 410.85 1.53059 -0.452231 0
M  V30 4444 C 411.05 1.73065 1.03203 0
M  V30 4445 O 410.106 1.75245 1.81784 0
M  V30 4446 C 411.419 2.72659 -1.26797 0
M  V30 4447 C 412.967 2.86521 -1.25995 0
M  V30 4448 C 413.442 4.09105 -2.05905 0
M  V30 4449 N 414.933 4.16219 -2.03263 0
M  V30 4450 C 415.668 5.10107 -2.61875 0
M  V30 4451 N 415.164 6.09547 -3.29278 0
M  V30 4452 N 416.957 5.02596 -2.51701 0
M  V30 4453 H 409.108 1.22634 -1.7342 0
M  V30 4454 H 411.371 0.597206 -0.736239 0
M  V30 4455 H 411.077 2.64343 -2.31982 0
M  V30 4456 H 410.951 3.66363 -0.897672 0
M  V30 4457 H 413.338 2.94308 -0.216081 0
M  V30 4458 H 413.419 1.93774 -1.66989 0
M  V30 4459 H 413.063 4.0208 -3.10313 0
M  V30 4460 H 412.993 5.00968 -1.62292 0
M  V30 4461 H 415.484 3.45012 -1.54192 0
M  V30 4462 H 415.797 6.77718 -3.71374 0
M  V30 4463 H 414.142 6.09824 -3.33377 0
M  V30 4464 H 417.333 4.23855 -1.98657 0
M  V30 4465 H 417.506 5.75582 -2.97673 0
M  V30 4466 N 410.912 0.523116 1.48665 0
M  V30 4467 C 411.844 -0.280421 2.27478 0
M  V30 4468 C 412.857 -0.910694 1.34945 0
M  V30 4469 O 414.046 -0.790295 1.60052 0
M  V30 4470 C 411.146 -1.41171 3.08097 0
M  V30 4471 C 410.319 -0.884642 4.28361 0
M  V30 4472 C 409.378 -1.89622 4.90846 0
M  V30 4473 O 408.404 -1.4559 5.50265 0
M  V30 4474 N 409.606 -3.22801 4.82472 0
M  V30 4475 H 412.371 0.395481 2.97079 0
M  V30 4476 H 409.932 0.357018 1.57915 0
M  V30 4477 H 411.924 -2.08645 3.4677 0
M  V30 4478 H 410.494 -1.99139 2.40961 0
M  V30 4479 H 409.714 -0.0341177 3.94185 0
M  V30 4480 H 411.002 -0.511268 5.06225 0
M  V30 4481 H 410.4 -3.61246 4.35336 0
M  V30 4482 H 408.957 -3.85927 5.25265 0
M  V30 4483 N 412.39 -1.55475 0.257931 0
M  V30 4484 C 413.338 -2.23244 -0.653076 0
M  V30 4485 C 414.332 -1.22366 -1.17144 0
M  V30 4486 O 415.538 -1.40347 -1.12706 0
M  V30 4487 H 411.913 -0.716247 -0.229117 0
M  V30 4488 H 413.884 -2.98343 -0.0584788 0
M  V30 4489 C 412.633 -2.95401 -1.83395 0
M  V30 4490 H 411.956 -3.72802 -1.44424 0
M  V30 4491 H 413.396 -3.46165 -2.44838 0
M  V30 4492 C 411.855 -1.99895 -2.71189 0
M  V30 4493 O 412.385 -1.53909 -3.71046 0
M  V30 4494 N 410.591 -1.6676 -2.3799 0
M  V30 4495 H 410.138 -2.04352 -1.56837 0
M  V30 4496 H 410.096 -1.03127 -2.97005 0
M  V30 4497 N 413.868 0.0150385 -1.57593 0
M  V30 4498 C 415.114 0.704043 -1.90187 0
M  V30 4499 C 415.447 1.74249 -0.857366 0
M  V30 4500 O 414.722 1.94092 0.125843 0
M  V30 4501 C 415.005 1.36087 -3.33395 0
M  V30 4502 C 414.858 0.334981 -4.48551 0
M  V30 4503 C 416.177 2.29112 -3.7576 0
M  V30 4504 H 413.296 0.254475 -0.691673 0
M  V30 4505 H 415.938 -0.0331678 -1.89971 0
M  V30 4506 H 414.088 1.98922 -3.3371 0
M  V30 4507 H 415.76 -0.292534 -4.60372 0
M  V30 4508 H 414.003 -0.344325 -4.32431 0
M  V30 4509 H 414.674 0.833316 -5.45674 0
M  V30 4510 H 417.15 1.76308 -3.76902 0
M  V30 4511 H 416.026 2.72043 -4.76743 0
M  V30 4512 H 416.287 3.16385 -3.08793 0
M  V30 4513 N 415.346 1.54954 0.287554 0
M  V30 4514 C 416.278 1.83224 1.37701 0
M  V30 4515 C 417.291 0.715898 1.46215 0
M  V30 4516 O 418.48 0.993565 1.48292 0
M  V30 4517 C 415.58 1.96723 2.75959 0
M  V30 4518 C 414.753 3.27253 2.90215 0
M  V30 4519 C 413.812 3.30998 4.09056 0
M  V30 4520 O 412.838 4.04457 4.00503 0
M  V30 4521 N 414.04 2.57353 5.20336 0
M  V30 4522 H 416.805 2.77254 1.138 0
M  V30 4523 H 414.366 1.54694 0.477652 0
M  V30 4524 H 416.358 1.96615 3.5373 0
M  V30 4525 H 414.928 1.09626 2.92747 0
M  V30 4526 H 414.148 3.40022 1.99447 0
M  V30 4527 H 415.436 4.13365 2.96659 0
M  V30 4528 H 414.834 1.97327 5.30169 0
M  V30 4529 H 413.391 2.62984 5.96391 0
M  V30 4530 N 416.824 -0.551391 1.4764 0
M  V30 4531 C 418.07 -1.31024 1.54792 0
M  V30 4532 C 418.403 -1.9304 0.211967 0
M  V30 4533 O 417.678 -1.78175 -0.77999 0
M  V30 4534 C 417.961 -2.41593 2.67029 0
M  V30 4535 C 417.814 -1.84408 4.10261 0
M  V30 4536 C 419.133 -3.43488 2.75143 0
M  V30 4537 H 416.252 -0.475031 0.563485 0
M  V30 4538 H 418.894 -0.616454 1.79722 0
M  V30 4539 H 417.044 -3.00772 2.45904 0
M  V30 4540 H 418.716 -1.29445 4.42766 0
M  V30 4541 H 416.959 -1.15051 4.18265 0
M  V30 4542 H 417.63 -2.64367 4.84576 0
M  V30 4543 H 420.106 -2.94236 2.94218 0
M  V30 4544 H 418.982 -4.18274 3.55441 0
M  V30 4545 H 419.243 -4.02703 1.82435 0
M  V30 4546 N 418.302 -1.35869 -0.798587 0
M  V30 4547 C 419.549 -1.29588 -1.55606 0
M  V30 4548 C 419.877 0.127456 -1.94082 0
M  V30 4549 O 419.132 1.09461 -1.62225 0
M  V30 4550 C 419.431 -2.1556 -2.85077 0
M  V30 4551 C 419.097 -3.6424 -2.65781 0
M  V30 4552 C 417.759 -4.04766 -2.60227 0
M  V30 4553 C 420.111 -4.58547 -2.47758 0
M  V30 4554 C 417.439 -5.37753 -2.34603 0
M  V30 4555 C 419.791 -5.91742 -2.23662 0
M  V30 4556 C 418.455 -6.31402 -2.16534 0
M  V30 4557 H 417.725 -0.474197 -0.569402 0
M  V30 4558 H 420.372 -1.67839 -0.922086 0
M  V30 4559 H 418.677 -1.70216 -3.52893 0
M  V30 4560 H 420.374 -2.08031 -3.42818 0
M  V30 4561 H 416.964 -3.32086 -2.70956 0
M  V30 4562 H 421.148 -4.28117 -2.51056 0
M  V30 4563 H 416.404 -5.67474 -2.2756 0
M  V30 4564 H 420.578 -6.6439 -2.08708 0
M  V30 4565 H 418.205 -7.34381 -1.96441 0
M  V30 4566 N 419.78 1.02168 -1.19998 0
M  V30 4567 C 420.69 2.14069 -0.959774 0
M  V30 4568 C 421.706 1.73804 0.082655 0
M  V30 4569 O 422.882 2.01133 -0.103633 0
M  V30 4570 C 419.947 3.42936 -0.509459 0
M  V30 4571 C 419.008 3.97474 -1.62213 0
M  V30 4572 C 418.241 5.2019 -1.19321 0
M  V30 4573 O 418.464 5.70369 -0.0597726 0
M  V30 4574 O 417.398 5.67749 -1.99863 0
M  V30 4575 H 421.224 2.37199 -1.89658 0
M  V30 4576 H 418.809 1.12469 -0.983411 0
M  V30 4577 H 420.691 4.20551 -0.267322 0
M  V30 4578 H 419.366 3.21234 0.398821 0
M  V30 4579 H 418.273 3.21161 -1.9185 0
M  V30 4580 H 419.606 4.23555 -2.50723 0
M  V30 4581 N 421.258 1.00505 1.21394 0
M  V30 4582 C 422.505 0.687774 1.90462 0
M  V30 4583 C 422.833 -0.78147 1.7811 0
M  V30 4584 O 422.088 -1.58208 1.1519 0
M  V30 4585 C 422.387 1.0546 3.41486 0
M  V30 4586 C 422.053 2.51812 3.74034 0
M  V30 4587 C 420.715 2.91804 3.82628 0
M  V30 4588 C 423.067 3.46614 3.8924 0
M  V30 4589 C 420.395 4.2556 4.03876 0
M  V30 4590 C 422.747 4.80044 4.11995 0
M  V30 4591 C 421.411 5.19759 4.18816 0
M  V30 4592 H 420.681 0.251674 0.696951 0
M  V30 4593 H 423.328 1.26349 1.43903 0
M  V30 4594 H 421.633 0.397133 3.89782 0
M  V30 4595 H 423.33 0.786976 3.93202 0
M  V30 4596 H 419.92 2.1982 3.67936 0
M  V30 4597 H 424.104 3.16883 3.81967 0
M  V30 4598 H 419.36 4.55901 4.07387 0
M  V30 4599 H 423.534 5.53439 4.22704 0
M  V30 4600 H 421.161 6.23418 4.35033 0
M  V30 4601 N 422.737 -1.36956 0.779787 0
M  V30 4602 C 423.669 -2.28833 0.129639 0
M  V30 4603 C 424.682 -1.4902 -0.655511 0
M  V30 4604 O 425.871 -1.71578 -0.492279 0
M  V30 4605 C 422.971 -3.2833 -0.839792 0
M  V30 4606 C 422.144 -4.3727 -0.10675 0
M  V30 4607 C 421.203 -5.16789 -0.990717 0
M  V30 4608 O 420.229 -5.67406 -0.451516 0
M  V30 4609 N 421.431 -5.32294 -2.3161 0
M  V30 4610 H 424.196 -2.85268 0.918803 0
M  V30 4611 H 421.757 -1.49019 0.632841 0
M  V30 4612 H 423.749 -3.78413 -1.43477 0
M  V30 4613 H 422.319 -2.72605 -1.52988 0
M  V30 4614 H 421.539 -3.88478 0.669216 0
M  V30 4615 H 422.827 -5.07229 0.399464 0
M  V30 4616 H 422.225 -4.92768 -2.77843 0
M  V30 4617 H 420.782 -5.85656 -2.86095 0
M  V30 4618 N 424.215 -0.530993 -1.48385 0
M  V30 4619 C 425.145 0.219985 -2.32461 0
M  V30 4620 C 426.126 0.934111 -1.42156 0
M  V30 4621 O 427.311 0.919694 -1.71042 0
M  V30 4622 C 424.441 1.26674 -3.23375 0
M  V30 4623 C 423.395 0.67069 -4.22712 0
M  V30 4624 C 422.721 1.82017 -5.02766 0
M  V30 4625 C 424.021 -0.358268 -5.2107 0
M  V30 4626 H 425.715 -0.48187 -2.95497 0
M  V30 4627 H 423.261 -0.233182 -1.42099 0
M  V30 4628 H 425.214 1.80006 -3.81019 0
M  V30 4629 H 423.938 1.99818 -2.58341 0
M  V30 4630 H 422.597 0.158878 -3.66256 0
M  V30 4631 H 422.245 2.54002 -4.34157 0
M  V30 4632 H 421.945 1.42727 -5.70003 0
M  V30 4633 H 423.469 2.35725 -5.63264 0
M  V30 4634 H 424.883 0.0880081 -5.73232 0
M  V30 4635 H 423.28 -0.66861 -5.96364 0
M  V30 4636 H 424.35 -1.26367 -4.68145 0
M  V30 4637 N 425.693 1.55336 -0.266172 0
M  V30 4638 C 426.921 2.03801 0.356756 0
M  V30 4639 C 427.336 1.14485 1.50129 0
M  V30 4640 O 426.693 0.163121 1.8177 0
M  V30 4641 C 426.744 3.51455 0.846281 0
M  V30 4642 O 426.465 4.37371 -0.252663 0
M  V30 4643 C 427.966 4.15767 1.53794 0
M  V30 4644 H 425.186 0.665906 0.0825218 0
M  V30 4645 H 427.73 2.00636 -0.39566 0
M  V30 4646 H 425.885 3.55092 1.54881 0
M  V30 4647 H 426.299 5.24358 0.122173 0
M  V30 4648 H 427.773 5.20714 1.83198 0
M  V30 4649 H 428.25 3.63404 2.46646 0
M  V30 4650 H 428.856 4.16107 0.879488 0
M  V30 4651 N 427.171 -0.0066808 1.57599 0
M  V30 4652 C 428.396 -0.707738 1.94951 0
M  V30 4653 C 428.821 -1.66882 0.867868 0
M  V30 4654 O 428.179 -1.80457 -0.17458 0
M  V30 4655 C 428.227 -1.42162 3.31394 0
M  V30 4656 O 427.331 -2.53578 3.25226 0
M  V30 4657 H 426.672 -0.188752 0.636607 0
M  V30 4658 H 429.202 0.0445193 2.04552 0
M  V30 4659 H 429.212 -1.78655 3.66806 0
M  V30 4660 H 427.887 -0.716903 4.09675 0
M  V30 4661 H 426.464 -2.19463 3.01481 0
M  V30 4662 N 428.649 -1.55105 -0.279332 0
M  V30 4663 C 429.559 -1.90638 -1.36727 0
M  V30 4664 C 430.575 -0.802899 -1.54368 0
M  V30 4665 O 431.751 -1.10138 -1.68616 0
M  V30 4666 C 428.816 -2.16547 -2.70755 0
M  V30 4667 C 427.877 -3.40146 -2.61915 0
M  V30 4668 C 427.11 -3.6481 -3.8955 0
M  V30 4669 O 427.333 -2.92095 -4.89935 0
M  V30 4670 O 426.267 -4.58343 -3.90135 0
M  V30 4671 H 430.093 -2.83237 -1.09591 0
M  V30 4672 H 427.678 -1.4157 -0.477306 0
M  V30 4673 H 429.56 -2.34665 -3.50014 0
M  V30 4674 H 428.235 -1.27131 -2.9769 0
M  V30 4675 H 427.142 -3.2737 -1.81052 0
M  V30 4676 H 428.475 -4.29761 -2.3993 0
M  V30 4677 N 430.127 0.543554 -1.4793 0
M  V30 4678 C 431.037 1.67657 -1.64098 0
M  V30 4679 C 432.053 1.65934 -0.523622 0
M  V30 4680 O 433.229 1.85133 -0.792943 0
M  V30 4681 C 430.294 3.04146 -1.66421 0
M  V30 4682 C 429.355 3.16831 -2.89684 0
M  V30 4683 C 428.588 4.46809 -2.91886 0
M  V30 4684 O 428.811 5.33095 -2.02895 0
M  V30 4685 O 427.745 4.63573 -3.83906 0
M  V30 4686 H 431.571 1.56957 -2.59997 0
M  V30 4687 H 429.156 0.715116 -1.31173 0
M  V30 4688 H 431.038 3.85346 -1.70548 0
M  V30 4689 H 429.713 3.152 -0.736923 0
M  V30 4690 H 428.62 2.34977 -2.91095 0
M  V30 4691 H 429.953 3.10687 -3.81752 0
M  V30 4692 N 431.605 1.3629 0.791371 0
M  V30 4693 C 432.538 1.24816 1.9104 0
M  V30 4694 C 433.516 0.132739 1.62057 0
M  V30 4695 O 434.7 0.303527 1.8604 0
M  V30 4696 C 431.827 0.925355 3.25814 0
M  V30 4697 C 430.873 2.05495 3.7373 0
M  V30 4698 S 431.706 3.67255 3.89723 0
M  V30 4699 C 432.862 3.37084 5.27376 0
M  V30 4700 H 433.095 2.19533 2.00481 0
M  V30 4701 H 430.628 1.21684 0.950393 0
M  V30 4702 H 432.586 0.745924 4.03666 0
M  V30 4703 H 431.247 -0.00400098 3.141 0
M  V30 4704 H 430.44 1.7836 4.71385 0
M  V30 4705 H 430.042 2.1935 3.02922 0
M  V30 4706 H 432.334 2.90856 6.1189 0
M  V30 4707 H 433.277 4.33995 5.59512 0
M  V30 4708 H 433.685 2.7248 4.94383 0
M  V30 4709 N 433.083 -1.0153 1.20538 0
M  V30 4710 C 434.03 -2.10098 0.955383 0
M  V30 4711 C 435 -1.65702 -0.114878 0
M  V30 4712 O 436.185 -1.90776 0.0301118 0
M  V30 4713 C 433.325 -3.41236 0.514969 0
M  V30 4714 C 432.438 -3.99102 1.65353 0
M  V30 4715 C 431.573 -5.18306 1.16329 0
M  V30 4716 C 430.612 -5.68258 2.27485 0
M  V30 4717 N 429.749 -6.78722 1.7967 0
M  V30 4718 H 434.589 -2.30818 1.88486 0
M  V30 4719 H 432.126 -1.13189 0.939499 0
M  V30 4720 H 434.084 -4.16504 0.240935 0
M  V30 4721 H 432.714 -3.20585 -0.377512 0
M  V30 4722 H 431.766 -3.20918 2.04245 0
M  V30 4723 H 433.078 -4.32177 2.49047 0
M  V30 4724 H 432.232 -6.00782 0.845302 0
M  V30 4725 H 430.971 -4.86799 0.296254 0
M  V30 4726 H 429.976 -4.84385 2.60099 0
M  V30 4727 H 431.201 -6.01798 3.14667 0
M  V30 4728 H 429.147 -6.49042 0.95295 0
M  V30 4729 H 429.064 -7.10996 2.56944 0
M  V30 4730 H 430.332 -7.64759 1.50875 0
M  V30 4731 N 434.561 -1.01147 -1.20859 0
M  V30 4732 C 435.524 -0.582224 -2.21682 0
M  V30 4733 C 436.524 0.344887 -1.57058 0
M  V30 4734 O 437.714 0.134281 -1.73682 0
M  V30 4735 C 434.846 0.150496 -3.40568 0
M  V30 4736 H 436.039 -1.47408 -2.61172 0
M  V30 4737 H 433.592 -0.800695 -1.34233 0
M  V30 4738 H 434.327 1.0575 -3.06574 0
M  V30 4739 H 434.112 -0.515444 -3.88697 0
M  V30 4740 H 435.602 0.438344 -4.15293 0
M  V30 4741 N 436.039 1.36541 -0.78704 0
M  V30 4742 C 437.288 1.98552 -0.35494 0
M  V30 4743 C 437.601 1.63171 1.07864 0
M  V30 4744 O 438.807 2.18399 1.61289 0
M  V30 4745 C 437.263 3.55136 -0.583671 0
M  V30 4746 C 436.871 3.99444 -2.02851 0
M  V30 4747 C 438.615 4.2395 -0.215957 0
M  V30 4748 C 436.522 5.48796 -2.20403 0
M  V30 4749 H 435.452 0.742888 -0.128972 0
M  V30 4750 H 438.103 1.5587 -0.968337 0
M  V30 4751 H 436.485 3.95875 0.0994046 0
M  V30 4752 H 437.659 3.6991 -2.74779 0
M  V30 4753 H 435.974 3.43459 -2.35425 0
M  V30 4754 H 438.571 5.33709 -0.325405 0
M  V30 4755 H 438.914 4.07827 0.835646 0
M  V30 4756 H 439.447 3.88565 -0.852175 0
M  V30 4757 H 436.186 5.69864 -3.23937 0
M  V30 4758 H 435.706 5.79964 -1.52977 0
M  V30 4759 H 437.385 6.14986 -2.01002 0
M  V30 4760 N 437.518 0.538854 1.48102 0
M  V30 4761 C 438.795 -0.0568108 1.95517 0
M  V30 4762 C 439.175 -1.50408 1.48124 0
M  V30 4763 O 438.523 -2.17133 0.711727 0
M  V30 4764 C 438.733 0.0696262 3.48931 0
M  V30 4765 C 440.081 -0.0851202 4.24515 0
M  V30 4766 O 441.105 -0.0037347 3.562 0
M  V30 4767 O 439.964 -0.257025 5.45895 0
M  V30 4768 H 437.058 -0.0743695 0.823649 0
M  V30 4769 H 439.604 0.604081 1.58584 0
M  V30 4770 H 438.376 1.07744 3.76174 0
M  V30 4771 H 437.999 -0.629714 3.92582 0
M  V30 4772 N 438.996 -1.55193 0.274407 0
M  V30 4773 C 440.244 -1.99187 -0.341902 0
M  V30 4774 C 440.565 -1.16422 -1.56431 0
M  V30 4775 O 439.835 -0.253573 -1.94252 0
M  V30 4776 H 438.415 -0.735721 -0.129317 0
M  V30 4777 H 441.077 -1.91168 0.379578 0
M  V30 4778 H 440.173 -3.05629 -0.632253 0
M  V30 4779 N 440.474 -0.00167713 -1.576 0
M  V30 4780 C 441.404 0.988091 -2.11563 0
M  V30 4781 C 442.385 1.35736 -1.02517 0
M  V30 4782 O 443.57 1.44082 -1.30208 0
M  V30 4783 C 440.7 2.27941 -2.62031 0
M  V30 4784 C 439.654 2.0517 -3.75619 0
M  V30 4785 C 438.98 3.4033 -4.12407 0
M  V30 4786 C 440.28 1.41294 -5.02825 0
M  V30 4787 H 441.974 0.538771 -2.94513 0
M  V30 4788 H 439.52 0.257712 -1.41675 0
M  V30 4789 H 441.473 2.97539 -2.9841 0
M  V30 4790 H 440.197 2.74989 -1.76205 0
M  V30 4791 H 438.856 1.37998 -3.39635 0
M  V30 4792 H 438.504 3.85085 -3.23603 0
M  V30 4793 H 438.204 3.25909 -4.88935 0
M  V30 4794 H 439.728 4.1124 -4.51347 0
M  V30 4795 H 441.142 2.00851 -5.36965 0
M  V30 4796 H 439.539 1.37356 -5.84169 0
M  V30 4797 H 440.609 0.382362 -4.8339 0
M  V30 4798 N 441.952 1.55251 0.271103 0
M  V30 4799 C 442.9 1.89054 1.35504 0
M  V30 4800 C 443.894 0.767064 1.51038 0
M  V30 4801 O 445.1 0.951429 1.528 0
M  V30 4802 H 441.475 0.600072 0.45323 0
M  V30 4803 H 443.446 2.79598 1.04247 0
M  V30 4804 C 442.195 2.18068 2.70817 0
M  V30 4805 H 441.518 3.04005 2.59656 0
M  V30 4806 H 442.958 2.4564 3.45597 0
M  V30 4807 C 441.417 0.988901 3.2206 0
M  V30 4808 O 441.947 0.224501 4.01072 0
M  V30 4809 N 440.153 0.786085 2.79766 0
M  V30 4810 H 439.7 1.40937 2.15626 0
M  V30 4811 H 439.658 -0.00969349 3.14399 0
M  V30 4812 N 443.43 -0.535701 1.48216 0
M  V30 4813 C 444.846 -0.863701 1.3421 0
M  V30 4814 C 445.046 -1.98458 0.34879 0
M  V30 4815 O 444.102 -2.51432 -0.23204 0
M  V30 4816 C 445.415 -1.23662 2.74095 0
M  V30 4817 C 446.963 -1.34683 2.82541 0
M  V30 4818 C 447.438 -1.75322 4.23115 0
M  V30 4819 N 448.929 -1.82434 4.2576 0
M  V30 4820 C 449.664 -2.15252 5.31464 0
M  V30 4821 N 449.16 -2.46533 6.47452 0
M  V30 4822 N 450.953 -2.16209 5.18855 0
M  V30 4823 H 443.104 0.203965 2.11418 0
M  V30 4824 H 445.367 0.0286033 0.947568 0
M  V30 4825 H 445.073 -0.486674 3.48316 0
M  V30 4826 H 444.947 -2.18805 3.07253 0
M  V30 4827 H 447.334 -2.08756 2.08579 0
M  V30 4828 H 447.415 -0.376756 2.5301 0
M  V30 4829 H 447.059 -1.01812 4.97591 0
M  V30 4830 H 446.989 -2.7337 4.50085 0
M  V30 4831 H 449.48 -1.6056 3.42095 0
M  V30 4832 H 449.793 -2.70662 7.23852 0
M  V30 4833 H 448.138 -2.44065 6.50736 0
M  V30 4834 H 451.329 -1.91224 4.2726 0
M  V30 4835 H 451.502 -2.41453 6.01335 0
M  V30 4836 N 444.908 -1.36708 -0.784132 0
M  V30 4837 C 445.856 -1.31533 -1.91838 0
M  V30 4838 C 446.85 -0.206205 -1.6814 0
M  V30 4839 O 448.056 -0.373519 -1.76082 0
M  V30 4840 H 444.431 -0.409613 -0.630651 0
M  V30 4841 H 446.402 -2.2731 -1.9332 0
M  V30 4842 C 445.151 -1.12679 -3.28936 0
M  V30 4843 H 444.474 -1.97274 -3.4774 0
M  V30 4844 H 445.914 -1.13106 -4.08636 0
M  V30 4845 C 444.373 0.168281 -3.36479 0
M  V30 4846 O 444.903 1.15625 -3.84699 0
M  V30 4847 N 443.109 0.214762 -2.89805 0
M  V30 4848 H 442.656 -0.589852 -2.50756 0
M  V30 4849 H 442.614 1.08094 -2.95234 0
M  V30 4850 N 446.386 1.0089 -1.21074 0
M  V30 4851 C 447.632 1.74866 -1.02712 0
M  V30 4852 C 447.965 1.89178 0.438787 0
M  V30 4853 O 447.24 1.42325 1.32567 0
M  V30 4854 C 447.523 3.16347 -1.72036 0
M  V30 4855 C 447.376 3.09782 -3.26121 0
M  V30 4856 C 448.695 4.15187 -1.45973 0
M  V30 4857 H 445.814 0.634736 -0.374539 0
M  V30 4858 H 448.456 1.17646 -1.49196 0
M  V30 4859 H 446.606 3.65201 -1.32517 0
M  V30 4860 H 448.278 2.68673 -3.74983 0
M  V30 4861 H 446.521 2.46982 -3.56626 0
M  V30 4862 H 447.192 4.09829 -3.6979 0
M  V30 4863 H 449.668 3.75022 -1.80272 0
M  V30 4864 H 448.544 5.12331 -1.96999 0
M  V30 4865 H 448.805 4.40386 -0.388924 0
M  V30 4866 N 447.864 1.01787 1.20321 0
M  V30 4867 C 449.28 0.732951 1.41774 0
M  V30 4868 C 449.48 -0.686883 1.89431 0
M  V30 4869 O 448.536 -1.45446 2.06402 0
M  V30 4870 C 449.849 1.75973 2.43832 0
M  V30 4871 C 451.397 1.77802 2.57596 0
M  V30 4872 C 451.872 2.7941 3.62897 0
M  V30 4873 N 453.363 2.78157 3.70382 0
M  V30 4874 C 454.098 3.53434 4.51521 0
M  V30 4875 N 453.594 4.38392 5.36455 0
M  V30 4876 N 455.387 3.42026 4.46066 0
M  V30 4877 H 447.538 1.93447 0.877035 0
M  V30 4878 H 449.801 0.835712 0.447536 0
M  V30 4879 H 449.507 2.77699 2.15815 0
M  V30 4880 H 449.381 1.57292 3.4284 0
M  V30 4881 H 451.768 0.767602 2.84942 0
M  V30 4882 H 451.849 2.00557 1.58779 0
M  V30 4883 H 451.493 3.80616 3.36295 0
M  V30 4884 H 451.423 2.53916 4.61339 0
M  V30 4885 H 453.914 2.16531 3.09714 0
M  V30 4886 H 454.227 4.92596 5.95457 0
M  V30 4887 H 452.572 4.4247 5.35953 0
M  V30 4888 H 455.763 2.75075 3.78749 0
M  V30 4889 H 455.936 4.00946 5.09064 0
M  V30 4890 N 449.342 -1.36122 0.79427 0
M  V30 4891 C 450.572 -2.03067 0.380437 0
M  V30 4892 C 450.98 -1.60018 -1.00949 0
M  V30 4893 O 450.323 -0.787425 -1.65968 0
M  V30 4894 C 450.385 -3.57587 0.37034 0
M  V30 4895 C 450.049 -4.23855 1.70867 0
M  V30 4896 C 451.046 -4.46404 2.66496 0
M  V30 4897 C 448.731 -4.61229 1.9893 0
M  V30 4898 C 450.725 -5.05412 3.88378 0
M  V30 4899 C 448.412 -5.19953 3.21079 0
M  V30 4900 C 449.41 -5.41985 4.15621 0
M  V30 4901 O 449.098 -5.99475 5.35616 0
M  V30 4902 H 448.83 -0.658168 0.154243 0
M  V30 4903 H 451.384 -1.7498 1.0757 0
M  V30 4904 H 449.614 -3.84814 -0.381444 0
M  V30 4905 H 451.303 -4.05895 -0.0194894 0
M  V30 4906 H 452.069 -4.17921 2.46103 0
M  V30 4907 H 447.948 -4.43402 1.26158 0
M  V30 4908 H 451.492 -5.22524 4.62185 0
M  V30 4909 H 447.389 -5.47862 3.41347 0
M  V30 4910 H 448.157 -6.17937 5.36745 0
M  V30 4911 N 450.82 -0.546701 -1.47814 0
M  V30 4912 C 451.75 0.195317 -2.32682 0
M  V30 4913 C 452.731 0.918981 -1.43139 0
M  V30 4914 O 453.916 0.901501 -1.72008 0
M  V30 4915 C 451.046 1.23237 -3.247 0
M  V30 4916 C 450 0.625818 -4.234 0
M  V30 4917 C 449.326 1.76674 -5.04669 0
M  V30 4918 C 450.626 -0.413515 -5.2066 0
M  V30 4919 H 452.32 -0.513184 -2.94969 0
M  V30 4920 H 449.866 -0.248241 -1.41844 0
M  V30 4921 H 451.819 1.75955 -3.82907 0
M  V30 4922 H 450.543 1.97067 -2.60446 0
M  V30 4923 H 449.202 0.120023 -3.66403 0
M  V30 4924 H 448.85 2.49383 -4.36826 0
M  V30 4925 H 448.55 1.36673 -5.71484 0
M  V30 4926 H 450.074 2.29738 -5.65732 0
M  V30 4927 H 451.488 0.0272042 -5.73294 0
M  V30 4928 H 449.885 -0.731825 -5.95621 0
M  V30 4929 H 450.955 -1.31325 -4.66778 0
M  V30 4930 N 452.299 1.55045 -0.282633 0
M  V30 4931 C 453.527 2.04168 0.33512 0
M  V30 4932 C 453.942 1.16071 1.48906 0
M  V30 4933 O 453.299 0.182391 1.81586 0
M  V30 4934 C 453.35 3.52332 0.808957 0
M  V30 4935 O 453.071 4.37078 -0.299038 0
M  V30 4936 C 454.572 4.17375 1.49375 0
M  V30 4937 H 451.792 0.666744 0.0754543 0
M  V30 4938 H 454.336 2.00205 -0.416918 0
M  V30 4939 H 452.491 3.56715 1.51106 0
M  V30 4940 H 452.905 5.24458 0.0665514 0
M  V30 4941 H 454.379 5.22627 1.77664 0
M  V30 4942 H 454.856 3.65999 2.42778 0
M  V30 4943 H 455.462 4.17016 0.835305 0
M  V30 4944 N 453.777 0.010035 1.57597 0
M  V30 4945 C 454.707 -0.976857 2.12084 0
M  V30 4946 C 455.688 -1.35191 1.03235 0
M  V30 4947 O 456.873 -1.43389 1.3097 0
M  V30 4948 C 454.003 -2.26548 2.63236 0
M  V30 4949 C 452.957 -2.03175 3.76701 0
M  V30 4950 C 452.283 -3.38138 4.14206 0
M  V30 4951 C 453.583 -1.38625 5.03568 0
M  V30 4952 H 455.277 -0.523145 2.94794 0
M  V30 4953 H 452.823 -0.250195 1.4181 0
M  V30 4954 H 454.776 -2.95952 2.99984 0
M  V30 4955 H 453.5 -2.74051 1.77661 0
M  V30 4956 H 452.159 -1.36195 3.40362 0
M  V30 4957 H 451.807 -3.83363 3.25641 0
M  V30 4958 H 451.507 -3.23312 4.90656 0
M  V30 4959 H 453.031 -4.08841 4.53521 0
M  V30 4960 H 454.445 -1.98 5.38023 0
M  V30 4961 H 452.842 -1.34256 5.84889 0
M  V30 4962 H 453.912 -0.356722 4.83586 0
M  V30 4963 N 455.255 -1.55392 -0.262866 0
M  V30 4964 C 456.532 -1.67204 -1.01499 0
M  V30 4965 C 456.912 -0.545186 -2.03939 0
M  V30 4966 O 456.26 0.453467 -2.23955 0
M  V30 4967 C 456.47 -3.06847 -1.6627 0
M  V30 4968 C 457.818 -3.64928 -2.17054 0
M  V30 4969 O 458.842 -3.09545 -1.76239 0
M  V30 4970 O 457.701 -4.61984 -2.91947 0
M  V30 4971 H 454.795 -0.679467 -0.471438 0
M  V30 4972 H 457.341 -1.67729 -0.257918 0
M  V30 4973 H 456.113 -3.80309 -0.920915 0
M  V30 4974 H 455.736 -3.10266 -2.48638 0
M  V30 4975 N 456.733 0.527833 -1.48498 0
M  V30 4976 C 457.982 1.28003 -1.55878 0
M  V30 4977 C 458.295 1.9414 -0.238577 0
M  V30 4978 O 459.501 2.7083 -0.190643 0
M  V30 4979 C 457.957 2.32272 -2.74914 0
M  V30 4980 C 457.565 1.72196 -4.13585 0
M  V30 4981 C 459.309 3.08488 -2.91608 0
M  V30 4982 C 457.216 2.74417 -5.23879 0
M  V30 4983 H 456.146 0.481413 -0.580308 0
M  V30 4984 H 458.797 0.557195 -1.74836 0
M  V30 4985 H 457.179 3.07601 -2.49395 0
M  V30 4986 H 458.353 1.03041 -4.49132 0
M  V30 4987 H 456.668 1.08464 -4.02025 0
M  V30 4988 H 459.265 3.84879 -3.71177 0
M  V30 4989 H 459.608 3.64481 -2.01145 0
M  V30 4990 H 460.141 2.40274 -3.17038 0
M  V30 4991 H 456.88 2.23242 -6.16314 0
M  V30 4992 H 456.4 3.41893 -4.92818 0
M  V30 4993 H 458.079 3.37362 -5.52083 0
M  V30 4994 N 458.211 1.37122 0.776871 0
M  V30 4995 C 459.458 1.32047 1.53524 0
M  V30 4996 C 459.786 -0.0965631 1.9426 0
M  V30 4997 O 459.041 -1.06866 1.63945 0
M  V30 4998 C 459.34 2.20068 2.81611 0
M  V30 4999 C 459.006 3.68423 2.59953 0
M  V30 5000 C 457.668 4.08854 2.53755 0
M  V30 5001 C 460.02 4.62431 2.40431 0
M  V30 5002 C 457.348 5.41417 2.26018 0
M  V30 5003 C 459.7 5.95225 2.14219 0
M  V30 5004 C 458.364 6.34767 2.06462 0
M  V30 5005 H 457.634 0.483196 0.561785 0
M  V30 5006 H 460.281 1.69284 0.895268 0
M  V30 5007 H 458.586 1.75809 3.50141 0
M  V30 5008 H 460.283 2.13458 3.39465 0
M  V30 5009 H 456.873 3.36354 2.65638 0
M  V30 5010 H 461.057 4.32057 2.44213 0
M  V30 5011 H 456.313 5.71022 2.18504 0
M  V30 5012 H 460.487 6.67626 1.98112 0
M  V30 5013 H 458.114 7.37413 1.84733 0
M  V30 5014 N 459.689 -1.00246 1.21608 0
M  V30 5015 C 460.652 -2.07233 0.979133 0
M  V30 5016 C 461.652 -1.6072 -0.0508219 0
M  V30 5017 O 462.842 -1.73196 0.186712 0
M  V30 5018 C 459.974 -3.37546 0.477016 0
M  V30 5019 H 461.167 -2.29687 1.92831 0
M  V30 5020 H 458.72 -1.17261 1.03342 0
M  V30 5021 H 459.455 -3.20773 -0.476966 0
M  V30 5022 H 459.24 -3.72638 1.21997 0
M  V30 5023 H 460.73 -4.16285 0.331181 0
M  V30 5024 N 461.167 -1.02423 -1.1978 0
M  V30 5025 C 462.415 -0.716569 -1.8897 0
M  V30 5026 C 462.736 0.756769 -1.79716 0
M  V30 5027 O 462.006 1.5449 -1.20456 0
M  V30 5028 H 460.586 -0.262062 -0.699523 0
M  V30 5029 H 463.248 -1.29747 -1.45436 0
M  V30 5030 H 462.344 -1.00675 -2.95417 0
M  V30 5031 N 462.645 1.35699 -0.801477 0
M  V30 5032 C 464.056 1.81415 -0.441073 0
M  V30 5033 C 464.407 1.66595 1.03636 0
M  V30 5034 O 463.532 1.19369 1.80499 0
M  V30 5035 C 464.127 3.29369 -0.793819 0
M  V30 5036 C 462.686 3.73248 -0.486083 0
M  V30 5037 C 461.833 2.57775 -1.02213 0
M  V30 5038 H 464.784 1.23749 -0.993572 0
M  V30 5039 H 464.805 3.80395 -0.0894158 0
M  V30 5040 H 464.317 3.40123 -1.86917 0
M  V30 5041 H 462.418 3.68046 0.580735 0
M  V30 5042 H 462.531 4.68222 -1.01513 0
M  V30 5043 H 460.895 2.50788 -0.444712 0
M  V30 5044 H 461.678 2.71309 -2.10348 0
M  V30 5045 N 464.123 0.554532 1.47522 0
M  V30 5046 C 465.534 0.120446 1.86311 0
M  V30 5047 C 465.885 -1.30904 1.46145 0
M  V30 5048 O 465.01 -1.98434 0.863294 0
M  V30 5049 C 465.605 0.211808 3.38137 0
M  V30 5050 C 464.164 -0.167224 3.76028 0
M  V30 5051 C 463.311 0.560576 2.71575 0
M  V30 5052 H 466.262 0.764408 1.39077 0
M  V30 5053 H 466.283 -0.570275 3.76202 0
M  V30 5054 H 465.795 1.25232 3.6734 0
M  V30 5055 H 463.896 -1.20894 3.52442 0
M  V30 5056 H 464.009 0.189473 4.78725 0
M  V30 5057 H 462.373 0.00396836 2.547 0
M  V30 5058 H 463.156 1.60219 3.0362 0
M  V30 5059 N 465.601 -1.54893 0.290851 0
M  V30 5060 C 466.549 -2.24579 -0.605576 0
M  V30 5061 C 467.543 -1.24824 -1.14522 0
M  V30 5062 O 468.749 -1.42706 -1.09704 0
M  V30 5063 H 465.124 -0.720946 -0.213872 0
M  V30 5064 H 467.095 -2.984 0.0048173 0
M  V30 5065 C 465.844 -2.99224 -1.77088 0
M  V30 5066 H 465.167 -3.75782 -1.36484 0
M  V30 5067 H 466.607 -3.51281 -2.3744 0
M  V30 5068 C 465.066 -2.05602 -2.66888 0
M  V30 5069 O 465.596 -1.61745 -3.67698 0
M  V30 5070 N 463.802 -1.71771 -2.34399 0
M  V30 5071 H 463.349 -2.07633 -1.52468 0
M  V30 5072 H 463.307 -1.09403 -2.94751 0
M  V30 5073 N 467.08 -0.0183926 -1.57589 0
M  V30 5074 C 468.31 0.67207 -1.95363 0
M  V30 5075 C 468.718 1.66807 -0.892872 0
M  V30 5076 O 468.061 1.83204 0.134958 0
M  V30 5077 C 468.123 1.44397 -3.29226 0
M  V30 5078 C 467.787 0.607511 -4.52944 0
M  V30 5079 C 468.784 -0.112657 -5.19778 0
M  V30 5080 C 466.469 0.548068 -4.99301 0
M  V30 5081 C 468.463 -0.881057 -6.31281 0
M  V30 5082 C 466.15 -0.224044 -6.10689 0
M  V30 5083 C 467.148 -0.937323 -6.76538 0
M  V30 5084 O 466.836 -1.6968 -7.85789 0
M  V30 5085 H 466.568 0.190925 -0.648478 0
M  V30 5086 H 469.122 -0.0711994 -2.05277 0
M  V30 5087 H 467.352 2.23214 -3.15773 0
M  V30 5088 H 469.041 2.02152 -3.51979 0
M  V30 5089 H 469.807 -0.0759998 -4.8494 0
M  V30 5090 H 465.686 1.09281 -4.4786 0
M  V30 5091 H 469.23 -1.43832 -6.82611 0
M  V30 5092 H 465.127 -0.262457 -6.44966 0
M  V30 5093 H 465.895 -1.61544 -8.024 0
M  V30 5094 N 468.558 1.5553 0.254621 0
M  V30 5095 C 469.969 1.67518 0.824286 0
M  V30 5096 C 470.32 0.614429 1.86331 0
M  V30 5097 O 469.445 -0.240736 2.15057 0
M  V30 5098 C 470.04 3.03692 1.50189 0
M  V30 5099 C 468.599 3.17646 2.01935 0
M  V30 5100 C 467.746 2.63373 0.867746 0
M  V30 5101 H 470.697 1.58671 0.0305843 0
M  V30 5102 H 470.718 2.97706 2.36962 0
M  V30 5103 H 470.23 3.80874 0.745431 0
M  V30 5104 H 468.331 2.45273 2.80485 0
M  V30 5105 H 468.444 4.24455 2.22204 0
M  V30 5106 H 466.808 2.20999 1.26616 0
M  V30 5107 H 467.591 3.43074 0.124498 0
M  V30 5108 N 470.036 -0.519951 1.48776 0
M  V30 5109 C 471.283 -1.27522 1.57303 0
M  V30 5110 C 471.611 -1.92869 0.251328 0
M  V30 5111 O 470.866 -1.80372 -0.759243 0
M  V30 5112 C 471.165 -2.37864 2.6675 0
M  V30 5113 C 470.831 -1.90103 4.08867 0
M  V30 5114 C 469.493 -1.76795 4.47546 0
M  V30 5115 C 471.845 -1.54133 4.97888 0
M  V30 5116 C 469.173 -1.25868 5.73039 0
M  V30 5117 C 471.525 -1.04665 6.23881 0
M  V30 5118 C 470.189 -0.899823 6.61407 0
M  V30 5119 H 469.459 -0.466636 0.575614 0
M  V30 5120 H 472.106 -0.579109 1.82534 0
M  V30 5121 H 470.411 -3.13186 2.35418 0
M  V30 5122 H 472.108 -2.95969 2.70561 0
M  V30 5123 H 468.698 -2.01414 3.78326 0
M  V30 5124 H 472.882 -1.6327 4.68675 0
M  V30 5125 H 468.138 -1.13196 6.0083 0
M  V30 5126 H 472.312 -0.759074 6.92251 0
M  V30 5127 H 469.939 -0.503011 7.58534 0
M  V30 5128 N 471.514 -1.37532 -0.769588 0
M  V30 5129 C 472.739 -1.36231 -1.56384 0
M  V30 5130 C 473.164 0.0495849 -1.88035 0
M  V30 5131 O 472.522 1.02723 -1.49391 0
M  V30 5132 C 472.57 -2.20986 -2.84952 0
M  V30 5133 O 471.674 -1.61597 -3.79421 0
M  V30 5134 H 471.015 -0.465387 -0.473615 0
M  V30 5135 H 473.545 -1.81085 -0.952342 0
M  V30 5136 H 473.555 -2.34277 -3.34034 0
M  V30 5137 H 472.23 -3.23612 -2.61243 0
M  V30 5138 H 470.807 -1.57359 -3.38072 0
M  V30 5139 N 472.992 0.995999 -1.22138 0
M  V30 5140 C 474.269 1.70834 -0.952642 0
M  V30 5141 C 474.649 2.04257 0.533119 0
M  V30 5142 O 473.997 1.72343 1.50034 0
M  V30 5143 C 474.207 2.96119 -1.84701 0
M  V30 5144 C 475.555 3.68962 -2.10124 0
M  V30 5145 O 476.579 3.0612 -1.82124 0
M  V30 5146 O 475.438 4.82017 -2.57531 0
M  V30 5147 H 472.532 0.745498 -0.357997 0
M  V30 5148 H 475.078 1.05262 -1.33109 0
M  V30 5149 H 473.85 2.67898 -2.85213 0
M  V30 5150 H 473.473 3.6943 -1.46995 0
M  V30 5151 N 474.47 1.03057 1.19235 0
M  V30 5152 C 475.38 0.622922 2.26179 0
M  V30 5153 C 476.396 -0.346113 1.70523 0
M  V30 5154 O 477.572 -0.203572 2.00369 0
M  V30 5155 C 474.637 -0.0182063 3.46695 0
M  V30 5156 C 473.698 0.998546 4.17526 0
M  V30 5157 C 472.931 0.387917 5.32288 0
M  V30 5158 O 473.154 -0.808668 5.64639 0
M  V30 5159 O 472.088 1.1116 5.91546 0
M  V30 5160 H 475.914 1.51363 2.63292 0
M  V30 5161 H 473.499 0.800856 1.26122 0
M  V30 5162 H 475.381 -0.375606 4.19723 0
M  V30 5163 H 474.056 -0.882895 3.11427 0
M  V30 5164 H 472.963 1.40756 3.4661 0
M  V30 5165 H 474.296 1.83366 4.56769 0
M  V30 5166 N 475.948 -1.35272 0.808662 0
M  V30 5167 C 477.178 -2.02652 0.401953 0
M  V30 5168 C 477.586 -1.6108 -0.992462 0
M  V30 5169 O 476.929 -0.804984 -1.65123 0
M  V30 5170 C 476.991 -3.57174 0.408246 0
M  V30 5171 C 476.655 -4.22019 1.75353 0
M  V30 5172 C 477.652 -4.43552 2.71215 0
M  V30 5173 C 475.337 -4.59093 2.03811 0
M  V30 5174 C 477.331 -5.01264 3.93717 0
M  V30 5175 C 475.018 -5.16519 3.26576 0
M  V30 5176 C 476.016 -5.37546 4.21347 0
M  V30 5177 O 475.704 -5.93761 5.41944 0
M  V30 5178 H 475.436 -0.656495 0.161216 0
M  V30 5179 H 477.99 -1.73829 1.0942 0
M  V30 5180 H 476.22 -3.85197 -0.340608 0
M  V30 5181 H 477.909 -4.05893 0.0235623 0
M  V30 5182 H 478.675 -4.15288 2.50522 0
M  V30 5183 H 474.554 -4.42039 1.30854 0
M  V30 5184 H 478.098 -5.17592 4.67701 0
M  V30 5185 H 473.995 -5.4421 3.47139 0
M  V30 5186 H 474.763 -6.1221 5.43269 0
M  V30 5187 O 477.465 -0.703344 -1.4538 0
M  V30 5188 H 478.156 -0.244572 -1.9215 0
M  V30 END ATOM
M  V30 BEGIN BOND
M  V30 END BOND
M  V30 END CTAB
M  END
$$$$
