drugbank_target|Q09013 Myotonin-protein kinase (DB01946)
 OpenBabel12092120433D

  0  0  0     0  0            999 V3000
M  V30 BEGIN CTAB
M  V30 COUNTS 9706 9818 0 0 0
M  V30 BEGIN ATOM
M  V30 1 H -0.908 1.98254 -0.117106 0
M  V30 2 N 0 1.576 0 0
M  V30 3 C 0.933 2.03868 1.02534 0
M  V30 4 C 1.911 0.928543 1.3348 0
M  V30 5 O 3.095 1.19667 1.45644 0
M  V30 6 C 0.222 2.43627 2.35294 0
M  V30 7 C -0.732 3.65373 2.2001 0
M  V30 8 S 0.101 5.13292 1.52614 0
M  V30 9 C 1.257 5.56322 2.86805 0
M  V30 10 H 1.49 2.90518 0.631377 0
M  V30 11 H -0.977 1.52953 0.210867 0
M  V30 12 H 0.981 2.67203 3.11629 0
M  V30 13 H -0.358 1.57376 2.7183 0
M  V30 14 H -1.165 3.90944 3.18086 0
M  V30 15 H -1.563 3.418 1.51819 0
M  V30 16 H 0.729 5.58782 3.83104 0
M  V30 17 H 1.672 6.56266 2.65933 0
M  V30 18 H 2.08 4.83886 2.90714 0
M  V30 19 N 1.4781 -0.272755 1.55222 0
M  V30 20 C 2.7031 -1.02683 1.80197 0
M  V30 21 C 3.1281 -1.79142 0.573551 0
M  V30 22 O 2.4861 -1.74917 -0.476849 0
M  V30 23 C 2.5341 -1.9609 3.02624 0
M  V30 24 O 1.6381 -3.04863 2.77727 0
M  V30 25 H 0.9791 -0.293557 0.595584 0
M  V30 26 H 3.5091 -0.30159 2.02365 0
M  V30 27 H 3.5191 -2.38039 3.31363 0
M  V30 28 H 2.1941 -1.39851 3.91682 0
M  V30 29 H 0.7711 -2.67228 2.60084 0
M  V30 30 N 2.9562 -1.48159 -0.537278 0
M  V30 31 C 3.9192 -1.61665 -1.62472 0
M  V30 32 C 4.9192 -0.490395 -1.5314 0
M  V30 33 O 6.1092 -0.755998 -1.5694 0
M  V30 34 C 3.2412 -1.57997 -3.02076 0
M  V30 35 H 4.4342 -2.58621 -1.51839 0
M  V30 36 H 1.9872 -1.36647 -0.758771 0
M  V30 37 H 2.7222 -0.624913 -3.18222 0
M  V30 38 H 2.5072 -2.39755 -3.10258 0
M  V30 39 H 3.9972 -1.70627 -3.81151 0
M  V30 40 N 4.4343 0.785586 -1.36625 0
M  V30 41 C 5.3443 1.92964 -1.33425 0
M  V30 42 C 6.3603 1.72394 -0.235851 0
M  V30 43 O 7.5363 1.95866 -0.468878 0
M  V30 44 C 4.6013 3.27884 -1.12662 0
M  V30 45 C 3.6623 3.61204 -2.32013 0
M  V30 46 C 2.8953 4.89687 -2.12231 0
M  V30 47 O 3.1183 5.59704 -1.09945 0
M  V30 48 O 2.0523 5.21752 -3.00098 0
M  V30 49 H 5.8783 1.98613 -2.29753 0
M  V30 50 H 3.4633 0.926384 -1.17211 0
M  V30 51 H 5.3453 4.08614 -1.03016 0
M  V30 52 H 4.0203 3.23118 -0.193991 0
M  V30 53 H 2.9273 2.80765 -2.47228 0
M  V30 54 H 4.2603 3.70698 -3.23796 0
M  V30 55 N 5.9124 1.20967 1.01018 0
M  V30 56 C 7.1584 1.02526 1.74975 0
M  V30 57 C 7.4914 -0.4408 1.89131 0
M  V30 58 O 6.7664 -1.32718 1.42184 0
M  V30 59 C 7.0494 1.71699 3.1653 0
M  V30 60 C 6.9024 3.25791 3.10129 0
M  V30 61 C 8.2214 1.45531 4.15342 0
M  V30 62 H 5.3404 0.373863 0.635134 0
M  V30 63 H 7.9824 1.49071 1.17805 0
M  V30 64 H 6.1324 1.32128 3.65341 0
M  V30 65 H 7.8044 3.74697 2.69072 0
M  V30 66 H 6.0474 3.56363 2.47362 0
M  V30 67 H 6.7184 3.69353 4.10222 0
M  V30 68 H 9.1944 1.79872 3.75213 0
M  V30 69 H 8.0704 1.96453 5.1254 0
M  V30 70 H 8.3314 0.384237 4.40427 0
M  V30 71 N 7.3905 -1.2043 1.01659 0
M  V30 72 C 8.8065 -1.41852 0.731442 0
M  V30 73 C 9.0065 -1.89358 -0.688898 0
M  V30 74 O 8.0625 -2.06247 -1.45666 0
M  V30 75 C 9.3755 -2.44019 1.75714 0
M  V30 76 C 10.9235 -2.57785 1.77527 0
M  V30 77 C 11.3985 -3.63194 2.79023 0
M  V30 78 N 12.8895 -3.70678 2.77763 0
M  V30 79 C 13.6245 -4.51897 3.52954 0
M  V30 80 N 13.1205 -5.36921 4.37821 0
M  V30 81 N 14.9135 -4.4643 3.41551 0
M  V30 82 H 7.0645 -0.879093 1.93354 0
M  V30 83 H 9.3275 -0.448425 0.835236 0
M  V30 84 H 9.0335 -2.1611 2.77469 0
M  V30 85 H 8.9075 -3.43007 1.56927 0
M  V30 86 H 11.2945 -2.85023 0.764569 0
M  V30 87 H 11.3755 -1.58992 2.00387 0
M  V30 88 H 11.0195 -3.36699 3.80258 0
M  V30 89 H 10.9495 -4.61609 2.53425 0
M  V30 90 H 13.4405 -3.09944 2.16201 0
M  V30 91 H 13.7535 -5.95981 4.91962 0
M  V30 92 H 12.0985 -5.36424 4.41899 0
M  V30 93 H 15.2895 -3.79042 2.74672 0
M  V30 94 H 15.4625 -5.09491 4.00404 0
M  V30 95 N 8.8686 -0.792821 -1.36206 0
M  V30 96 C 9.7986 -0.207853 -2.32573 0
M  V30 97 C 10.7796 0.659055 -1.56813 0
M  V30 98 O 11.9646 0.592176 -1.84951 0
M  V30 99 C 9.0946 0.655449 -3.41059 0
M  V30 100 C 8.0486 -0.111842 -4.27854 0
M  V30 101 C 7.3746 0.872274 -5.27537 0
M  V30 102 C 8.6746 -1.30299 -5.05786 0
M  V30 103 H 10.3686 -1.01294 -2.81744 0
M  V30 104 H 7.9146 -0.48854 -1.3546 0
M  V30 105 H 9.8676 1.07464 -4.07467 0
M  V30 106 H 8.5916 1.49328 -2.90463 0
M  V30 107 H 7.2506 -0.512053 -3.63006 0
M  V30 108 H 6.8986 1.70523 -4.73214 0
M  V30 109 H 6.5986 0.363291 -5.86476 0
M  V30 110 H 8.1226 1.28996 -5.96818 0
M  V30 111 H 9.5366 -0.959379 -5.65216 0
M  V30 112 H 7.9336 -1.7455 -5.74154 0
M  V30 113 H 9.0036 -2.09663 -4.37229 0
M  V30 114 N 10.3467 1.47872 -0.545128 0
M  V30 115 C 11.7627 1.5829 -0.204032 0
M  V30 116 C 11.9627 1.54529 1.29317 0
M  V30 117 O 11.0187 1.44232 2.07252 0
M  V30 118 C 12.3317 2.89304 -0.819987 0
M  V30 119 C 13.8797 3.02864 -0.790105 0
M  V30 120 C 14.3547 4.3656 -1.38491 0
M  V30 121 N 15.8457 4.43165 -1.34755 0
M  V30 122 C 16.5807 5.45153 -1.77753 0
M  V30 123 N 16.0767 6.54016 -2.2855 0
M  V30 124 N 17.8697 5.36125 -1.68897 0
M  V30 125 H 10.0207 1.4856 -1.51802 0
M  V30 126 H 12.2837 0.706305 -0.632327 0
M  V30 127 H 11.9897 2.97757 -1.87173 0
M  V30 128 H 11.8637 3.75957 -0.305915 0
M  V30 129 H 14.2507 2.94014 0.252913 0
M  V30 130 H 14.3317 2.17782 -1.34181 0
M  V30 131 H 13.9757 4.46164 -2.42693 0
M  V30 132 H 13.9057 5.20353 -0.808754 0
M  V30 133 H 16.3967 3.65083 -0.975855 0
M  V30 134 H 16.7097 7.27994 -2.59314 0
M  V30 135 H 15.0547 6.54938 -2.32553 0
M  V30 136 H 18.2457 4.49975 -1.28998 0
M  V30 137 H 18.4187 6.15472 -2.02726 0
M  V30 138 N 11.8248 0.280983 1.55075 0
M  V30 139 C 13.2408 -0.0729964 1.59433 0
M  V30 140 C 13.4408 -1.5411 1.29817 0
M  V30 141 O 12.4968 -2.29086 1.06187 0
M  V30 142 C 13.8098 0.306921 2.9913 0
M  V30 143 C 15.3578 0.254023 3.11968 0
M  V30 144 C 15.8328 0.608467 4.5394 0
M  V30 145 N 17.3238 0.560241 4.59799 0
M  V30 146 C 18.0588 0.80722 5.6769 0
M  V30 147 N 17.5548 1.11912 6.83701 0
M  V30 148 N 19.3478 0.735623 5.57266 0
M  V30 149 H 11.4988 1.238 1.7259 0
M  V30 150 H 13.7618 0.500547 0.805082 0
M  V30 151 H 13.4678 1.32816 3.25657 0
M  V30 152 H 13.3418 -0.349363 3.75579 0
M  V30 153 H 15.7288 -0.75794 2.852 0
M  V30 154 H 15.8098 0.944649 2.37718 0
M  V30 155 H 15.4538 1.61814 4.81434 0
M  V30 156 H 15.3838 -0.104013 5.26497 0
M  V30 157 H 17.8748 0.329288 3.76463 0
M  V30 158 H 18.1878 1.29409 7.61888 0
M  V30 159 H 16.5328 1.15695 6.85303 0
M  V30 160 H 19.7238 0.491752 4.6551 0
M  V30 161 H 19.8968 0.931482 6.4127 0
M  V30 162 N 13.3029 -1.57598 0.00835791 0
M  V30 163 C 14.2329 -2.1198 -0.979113 0
M  V30 164 C 15.2139 -1.03091 -1.35301 0
M  V30 165 O 16.3989 -1.30818 -1.43528 0
M  V30 166 C 13.5289 -2.62995 -2.26828 0
M  V30 167 C 12.4829 -3.76485 -2.03576 0
M  V30 168 C 11.8089 -4.13846 -3.38579 0
M  V30 169 C 13.1089 -5.0342 -1.39161 0
M  V30 170 H 14.8029 -2.94738 -0.526281 0
M  V30 171 H 12.3489 -1.41783 -0.251704 0
M  V30 172 H 14.3019 -2.99669 -2.96271 0
M  V30 173 H 13.0259 -1.7737 -2.7424 0
M  V30 174 H 11.6849 -3.40217 -1.36557 0
M  V30 175 H 11.3329 -3.25232 -3.83709 0
M  V30 176 H 11.0329 -4.90312 -3.23834 0
M  V30 177 H 12.5569 -4.53086 -4.09323 0
M  V30 178 H 13.9709 -5.37812 -1.98573 0
M  V30 179 H 12.3679 -5.84746 -1.34878 0
M  V30 180 H 13.4379 -4.83548 -0.361868 0
M  V30 181 N 14.781 0.264519 -1.55364 0
M  V30 182 C 15.713 1.34965 -1.85248 0
M  V30 183 C 16.726 1.45136 -0.737525 0
M  V30 184 O 17.915 1.46801 -1.01547 0
M  V30 185 C 15.015 2.73008 -2.00797 0
M  V30 186 C 14.188 2.85324 -3.31525 0
M  V30 187 C 13.247 4.04097 -3.37034 0
M  V30 188 O 12.273 3.94455 -4.10358 0
M  V30 189 N 13.475 5.16458 -2.65049 0
M  V30 190 H 16.24 1.09672 -2.78913 0
M  V30 191 H 13.801 0.454635 -1.55386 0
M  V30 192 H 15.793 3.50772 -2.01844 0
M  V30 193 H 14.363 2.91087 -1.1396 0
M  V30 194 H 13.583 1.94377 -3.42945 0
M  V30 195 H 14.871 2.9049 -4.17724 0
M  V30 196 H 14.269 5.27181 -2.05175 0
M  V30 197 H 12.826 5.92422 -2.71809 0
M  V30 198 N 16.2591 1.48442 0.529413 0
M  V30 199 C 17.1911 1.59095 1.64989 0
M  V30 200 C 18.2041 0.475212 1.5571 0
M  V30 201 O 19.3931 0.746081 1.6216 0
M  V30 202 C 16.4931 1.50518 3.0364 0
M  V30 203 C 15.6661 2.77142 3.38395 0
M  V30 204 C 14.7251 2.62012 4.56329 0
M  V30 205 O 13.7511 3.35898 4.59522 0
M  V30 206 N 14.9531 1.71667 5.54536 0
M  V30 207 H 17.7181 2.55723 1.56287 0
M  V30 208 H 15.2791 1.45173 0.716697 0
M  V30 209 H 17.2711 1.38091 3.80412 0
M  V30 210 H 15.8411 0.618627 3.06418 0
M  V30 211 H 15.0611 3.0413 2.50796 0
M  V30 212 H 16.3491 3.61146 3.58401 0
M  V30 213 H 15.7471 1.10841 5.54735 0
M  V30 214 H 14.3041 1.65178 6.30523 0
M  V30 215 N 17.7372 -0.778329 1.37039 0
M  V30 216 C 18.6672 -1.90546 1.34962 0
M  V30 217 C 19.6482 -1.68681 0.219274 0
M  V30 218 O 20.8332 -1.89634 0.418624 0
M  V30 219 C 17.9632 -3.27734 1.14925 0
M  V30 220 C 16.9172 -3.64147 2.24902 0
M  V30 221 C 16.2432 -4.99806 1.89996 0
M  V30 222 C 17.5432 -3.71579 3.67051 0
M  V30 223 H 19.2372 -1.92541 2.29277 0
M  V30 224 H 16.7832 -0.924948 1.10366 0
M  V30 225 H 18.7362 -4.06215 1.12104 0
M  V30 226 H 17.4602 -3.26154 0.170631 0
M  V30 227 H 16.1192 -2.8797 2.26868 0
M  V30 228 H 15.7672 -4.94759 0.906796 0
M  V30 229 H 15.4672 -5.25139 2.63634 0
M  V30 230 H 16.9912 -5.80694 1.88749 0
M  V30 231 H 18.4052 -4.40227 3.67251 0
M  V30 232 H 16.8022 -4.08405 4.39688 0
M  V30 233 H 17.8722 -2.72404 4.01154 0
M  V30 234 N 19.2153 -1.21501 -1.00376 0
M  V30 235 C 20.4613 -1.03452 -1.74429 0
M  V30 236 C 20.7943 0.430764 -1.89362 0
M  V30 237 O 20.0693 1.31962 -1.42886 0
M  V30 238 C 20.3523 -1.73375 -3.15615 0
M  V30 239 C 20.2053 -3.27431 -3.08397 0
M  V30 240 C 21.5243 -1.47732 -4.14564 0
M  V30 241 H 18.6433 -0.377226 -0.633143 0
M  V30 242 H 21.2853 -1.49693 -1.17013 0
M  V30 243 H 19.4353 -1.34064 -3.64636 0
M  V30 244 H 21.1073 -3.76119 -2.67081 0
M  V30 245 H 19.3503 -3.5767 -2.45468 0
M  V30 246 H 20.0213 -3.71524 -4.08258 0
M  V30 247 H 22.4973 -1.8186 -3.74254 0
M  V30 248 H 21.3733 -1.99169 -5.11491 0
M  V30 249 H 21.6343 -0.407589 -4.40217 0
M  V30 250 N 20.6934 1.19889 -1.02296 0
M  V30 251 C 21.6234 2.25141 -0.619174 0
M  V30 252 C 22.6044 1.66051 0.368915 0
M  V30 253 O 23.7894 1.92546 0.252941 0
M  V30 254 C 20.9194 3.4728 0.0368783 0
M  V30 255 C 19.8734 4.19005 -0.872865 0
M  V30 256 C 19.1994 5.34637 -0.0822402 0
M  V30 257 C 20.4994 4.74452 -2.18387 0
M  V30 258 H 22.1934 2.59171 -1.49903 0
M  V30 259 H 19.7394 1.24579 -0.722222 0
M  V30 260 H 21.6924 4.20098 0.330958 0
M  V30 261 H 20.4164 3.12433 0.95149 0
M  V30 262 H 19.0754 3.48061 -1.15105 0
M  V30 263 H 18.7234 4.96034 0.83422 0
M  V30 264 H 18.4234 5.83557 -0.688149 0
M  V30 265 H 19.9474 6.10255 0.205238 0
M  V30 266 H 21.3614 5.39055 -1.95172 0
M  V30 267 H 19.7584 5.33834 -2.74119 0
M  V30 268 H 20.8284 3.92844 -2.84257 0
M  V30 269 N 22.1715 0.800033 1.35784 0
M  V30 270 C 23.4485 0.30088 1.93272 0
M  V30 271 C 23.8285 -1.20857 1.73081 0
M  V30 272 O 23.1765 -2.00502 1.09596 0
M  V30 273 C 23.3865 0.70511 3.41803 0
M  V30 274 C 24.7345 0.690871 4.18942 0
M  V30 275 O 25.7585 0.646244 3.50289 0
M  V30 276 O 24.6175 0.74332 5.41421 0
M  V30 277 H 21.7115 0.0771605 0.823393 0
M  V30 278 H 24.2575 0.88329 1.449 0
M  V30 279 H 23.0295 1.74571 3.50201 0
M  V30 280 H 22.6525 0.0971541 3.97481 0
M  V30 281 N 23.6496 -1.47581 0.552962 0
M  V30 282 C 25.0606 -1.86324 0.118463 0
M  V30 283 C 25.4116 -1.46006 -1.3106 0
M  V30 284 O 24.5366 -0.861182 -1.98526 0
M  V30 285 C 25.1316 -3.3816 0.20821 0
M  V30 286 C 23.6906 -3.7601 -0.171226 0
M  V30 287 C 22.8376 -2.71634 0.557686 0
M  V30 288 H 25.7886 -1.39159 0.762928 0
M  V30 289 H 25.8096 -3.76141 -0.574278 0
M  V30 290 H 25.3216 -3.67473 1.24841 0
M  V30 291 H 23.4226 -3.52313 -1.21269 0
M  V30 292 H 23.5356 -4.78745 0.184379 0
M  V30 293 H 21.8996 -2.547 0.00125792 0
M  V30 294 H 22.6826 -3.0379 1.59896 0
M  V30 295 N 25.1277 -0.289203 -1.54924 0
M  V30 296 C 26.3757 0.322879 -1.99504 0
M  V30 297 C 26.6967 1.55313 -1.1791 0
M  V30 298 O 25.9667 1.94001 -0.272097 0
M  V30 299 H 24.5467 0.122291 -0.736922 0
M  V30 300 H 27.2087 -0.397802 -1.90797 0
M  V30 301 H 26.3047 0.603061 -3.06218 0
M  V30 302 N 26.6058 1.57591 -0.0167156 0
M  V30 303 C 27.8528 1.91283 0.664597 0
M  V30 304 C 28.1808 0.891949 1.72842 0
M  V30 305 O 27.4358 -0.100931 1.9544 0
M  V30 306 C 27.7348 3.3172 1.33029 0
M  V30 307 C 27.4008 4.4914 0.398047 0
M  V30 308 C 26.0628 4.80992 0.141421 0
M  V30 309 C 28.4148 5.20634 -0.242825 0
M  V30 310 C 25.7428 5.81703 -0.764092 0
M  V30 311 C 28.0948 6.22311 -1.13632 0
M  V30 312 C 26.7588 6.52611 -1.40196 0
M  V30 313 H 26.0288 0.699956 0.243193 0
M  V30 314 H 28.6758 1.9135 -0.0758267 0
M  V30 315 H 26.9808 3.27856 2.14517 0
M  V30 316 H 28.6778 3.55055 1.86379 0
M  V30 317 H 25.2678 4.24262 0.608238 0
M  V30 318 H 29.4518 4.96267 -0.0576019 0
M  V30 319 H 24.7078 6.03532 -0.977732 0
M  V30 320 H 28.8818 6.76834 -1.63917 0
M  V30 321 H 26.5088 7.30467 -2.10529 0
M  V30 322 N 28.0839 -0.256276 1.55502 0
M  V30 323 C 29.0139 -1.32102 1.92539 0
M  V30 324 C 29.9949 -1.50684 0.789194 0
M  V30 325 O 31.1799 -1.63449 1.04872 0
M  V30 326 C 28.3099 -2.67752 2.21192 0
M  V30 327 C 27.2639 -2.63878 3.36975 0
M  V30 328 C 26.5899 -4.03236 3.51147 0
M  V30 329 C 27.8899 -2.21682 4.72921 0
M  V30 330 H 29.5839 -1.01351 2.81724 0
M  V30 331 H 27.1299 -0.486105 1.35547 0
M  V30 332 H 29.0829 -3.42365 2.45691 0
M  V30 333 H 27.8069 -3.0012 1.28824 0
M  V30 334 H 26.4659 -1.91722 3.12471 0
M  V30 335 H 26.1139 -4.32854 2.56216 0
M  V30 336 H 25.8139 -4.01535 4.29003 0
M  V30 337 H 27.3379 -4.79563 3.77957 0
M  V30 338 H 28.7519 -2.86023 4.96854 0
M  V30 339 H 27.1489 -2.3111 5.53812 0
M  V30 340 H 28.2189 -1.16833 4.70615 0
M  V30 341 N 29.562 -1.4872 -0.521534 0
M  V30 342 C 30.81 -1.56857 -1.27437 0
M  V30 343 C 31.131 -0.247982 -1.93417 0
M  V30 344 O 30.401 0.731151 -1.81744 0
M  V30 345 H 28.981 -0.577885 -0.473347 0
M  V30 346 H 31.643 -1.85233 -0.606205 0
M  V30 347 H 30.739 -2.35402 -2.0492 0
M  V30 348 N 31.0401 0.771051 -1.3745 0
M  V30 349 C 31.9701 1.89827 -1.3597 0
M  V30 350 C 32.9511 1.68562 -0.228216 0
M  V30 351 O 34.1361 1.8941 -0.428675 0
M  V30 352 C 31.2661 3.2712 -1.16662 0
M  V30 353 C 30.2201 3.6295 -2.2683 0
M  V30 354 C 29.5461 4.98791 -1.92644 0
M  V30 355 C 30.8461 3.69627 -3.69017 0
M  V30 356 H 32.5401 1.91323 -2.30295 0
M  V30 357 H 30.0861 0.919082 -1.10855 0
M  V30 358 H 32.0391 4.05615 -1.14256 0
M  V30 359 H 30.7631 3.26059 -0.187926 0
M  V30 360 H 29.4221 2.86763 -2.28392 0
M  V30 361 H 29.0701 4.94271 -0.933021 0
M  V30 362 H 28.7701 5.23733 -2.66416 0
M  V30 363 H 30.2941 5.79685 -1.91826 0
M  V30 364 H 31.7081 4.38273 -3.69581 0
M  V30 365 H 30.1051 4.06067 -4.41848 0
M  V30 366 H 31.1751 2.70273 -4.02592 0
M  V30 367 N 32.5182 1.22032 0.997298 0
M  V30 368 C 33.4282 1.00271 2.12092 0
M  V30 369 C 34.4442 -0.047621 1.73935 0
M  V30 370 O 35.6202 0.144136 2.00884 0
M  V30 371 C 32.6852 0.578449 3.4184 0
M  V30 372 C 31.7462 1.70189 3.94125 0
M  V30 373 C 30.9792 1.29778 5.17681 0
M  V30 374 O 31.2022 0.174676 5.70132 0
M  V30 375 O 30.1362 2.11261 5.63607 0
M  V30 376 H 33.9622 1.94398 2.3333 0
M  V30 377 H 31.5472 1.00587 1.10465 0
M  V30 378 H 33.4292 0.351998 4.19927 0
M  V30 379 H 32.1042 -0.334019 3.21972 0
M  V30 380 H 31.0112 1.98282 3.1723 0
M  V30 381 H 32.3442 2.59206 4.18417 0
M  V30 382 N 33.9963 -1.19345 1.0293 0
M  V30 383 C 35.4073 -1.70725 0.755633 0
M  V30 384 C 35.7583 -1.82326 -0.724676 0
M  V30 385 O 34.8833 -1.49471 -1.56484 0
M  V30 386 C 35.4783 -3.10084 1.36503 0
M  V30 387 C 34.0373 -3.58723 1.13994 0
M  V30 388 C 33.1843 -2.35577 1.46283 0
M  V30 389 H 36.1353 -1.0418 1.19718 0
M  V30 390 H 36.1563 -3.72787 0.762217 0
M  V30 391 H 35.6683 -3.01609 2.44241 0
M  V30 392 H 33.7693 -3.72512 0.0807901 0
M  V30 393 H 33.8823 -4.42816 1.82894 0
M  V30 394 H 32.2463 -2.38935 0.88217 0
M  V30 395 H 33.0293 -2.29731 2.55105 0
M  V30 396 N 35.4744 -0.807222 -1.35358 0
M  V30 397 C 36.4044 -0.232509 -2.3234 0
M  V30 398 C 37.3854 0.642386 -1.57504 0
M  V30 399 O 38.5704 0.572526 -1.85569 0
M  V30 400 C 35.7004 0.619238 -3.41735 0
M  V30 401 C 34.6544 -0.157215 -4.27711 0
M  V30 402 C 33.9804 0.816273 -5.28433 0
M  V30 403 C 35.2804 -1.35656 -5.04376 0
M  V30 404 H 36.9744 -1.04276 -2.80654 0
M  V30 405 H 34.5204 -0.50288 -1.34934 0
M  V30 406 H 36.4734 1.03137 -4.08584 0
M  V30 407 H 35.1974 1.46239 -2.92031 0
M  V30 408 H 33.8564 -0.550525 -3.62443 0
M  V30 409 H 33.5044 1.65494 -4.74996 0
M  V30 410 H 33.2044 0.301067 -5.86828 0
M  V30 411 H 34.7284 1.22659 -5.98153 0
M  V30 412 H 36.1424 -1.01927 -5.64166 0
M  V30 413 H 34.5394 -1.8063 -5.7227 0
M  V30 414 H 35.6094 -2.14288 -4.34981 0
M  V30 415 N 36.9525 1.47285 -0.560781 0
M  V30 416 C 37.8825 2.32857 0.173105 0
M  V30 417 C 38.8635 1.44009 0.905281 0
M  V30 418 O 40.0485 1.7286 0.885046 0
M  V30 419 C 37.1785 3.25861 1.20133 0
M  V30 420 C 36.1325 4.23978 0.585388 0
M  V30 421 C 35.4585 5.06332 1.7185 0
M  V30 422 C 36.7585 5.20242 -0.463178 0
M  V30 423 H 38.4525 2.94466 -0.541307 0
M  V30 424 H 35.9985 1.41601 -0.261764 0
M  V30 425 H 37.9515 3.84569 1.72293 0
M  V30 426 H 36.6755 2.62315 1.94573 0
M  V30 427 H 35.3345 3.66501 0.085054 0
M  V30 428 H 34.9825 4.39186 2.45203 0
M  V30 429 H 34.6825 5.72762 1.31213 0
M  V30 430 H 36.2065 5.67899 2.24329 0
M  V30 431 H 37.6205 5.73293 -0.027502 0
M  V30 432 H 36.0175 5.94896 -0.788627 0
M  V30 433 H 37.0875 4.65504 -1.35773 0
M  V30 434 N 38.4306 0.297415 1.54768 0
M  V30 435 C 39.7076 -0.365847 1.92148 0
M  V30 436 C 40.0876 -1.71975 1.22424 0
M  V30 437 O 39.4356 -2.25666 0.358739 0
M  V30 438 C 39.6456 -0.484056 3.45627 0
M  V30 439 C 40.9936 -0.756594 4.17805 0
M  V30 440 O 42.0176 -0.568007 3.51642 0
M  V30 441 O 40.8766 -1.11863 5.34929 0
M  V30 442 H 37.9706 -0.203919 0.801465 0
M  V30 443 H 40.5166 0.34521 1.66152 0
M  V30 444 H 39.2886 0.467865 3.88493 0
M  V30 445 H 38.9116 -1.24372 3.77647 0
M  V30 446 N 39.9087 -1.5758 0.0250728 0
M  V30 447 C 40.8387 -2.13007 -0.956575 0
M  V30 448 C 41.8197 -1.0452 -1.342 0
M  V30 449 O 43.0047 -1.32332 -1.42133 0
M  V30 450 C 40.1347 -2.65386 -2.24026 0
M  V30 451 C 39.0887 -3.78623 -1.99571 0
M  V30 452 C 38.4147 -4.17414 -3.3417 0
M  V30 453 C 39.7147 -5.04867 -1.33814 0
M  V30 454 H 41.4087 -2.9528 -0.494991 0
M  V30 455 H 38.9547 -1.42042 -0.236651 0
M  V30 456 H 40.9077 -3.02794 -2.93076 0
M  V30 457 H 39.6317 -1.80268 -2.72343 0
M  V30 458 H 38.2907 -3.41646 -1.32941 0
M  V30 459 H 37.9387 -3.29284 -3.80238 0
M  V30 460 H 37.6387 -4.93719 -3.18615 0
M  V30 461 H 39.1627 -4.57402 -4.04495 0
M  V30 462 H 40.5767 -5.39888 -1.92857 0
M  V30 463 H 38.9737 -5.86144 -1.28669 0
M  V30 464 H 40.0437 -4.83904 -0.310561 0
M  V30 465 N 41.3868 0.248026 -1.55636 0
M  V30 466 C 42.3168 1.31079 -1.93237 0
M  V30 467 C 43.2978 1.50264 -0.797174 0
M  V30 468 O 44.4828 1.62891 -1.05737 0
M  V30 469 C 41.6128 2.66575 -2.22609 0
M  V30 470 C 40.5668 2.62087 -3.3837 0
M  V30 471 C 39.8928 4.01369 -3.53281 0
M  V30 472 C 41.1928 2.19171 -4.7409 0
M  V30 473 H 42.8868 0.998556 -2.82257 0
M  V30 474 H 40.4328 0.47891 -1.35803 0
M  V30 475 H 42.3858 3.41057 -2.47503 0
M  V30 476 H 41.1098 2.99432 -1.30414 0
M  V30 477 H 39.7688 1.90063 -3.13483 0
M  V30 478 H 39.4168 4.31489 -2.58508 0
M  V30 479 H 39.1168 3.99254 -4.31127 0
M  V30 480 H 40.6408 4.77552 -3.80495 0
M  V30 481 H 42.0548 2.83384 -4.98363 0
M  V30 482 H 40.4518 2.2817 -5.5503 0
M  V30 483 H 41.5218 1.14336 -4.71227 0
M  V30 484 N 42.8649 1.48995 0.513639 0
M  V30 485 C 43.7949 1.67636 1.62544 0
M  V30 486 C 44.7759 0.525087 1.61793 0
M  V30 487 O 45.9609 0.759502 1.78732 0
M  V30 488 C 43.0909 1.73114 3.01079 0
M  V30 489 C 42.0449 2.87905 3.16693 0
M  V30 490 C 41.3709 2.78486 4.56453 0
M  V30 491 C 42.6709 4.29005 2.97913 0
M  V30 492 H 44.3649 2.60716 1.47198 0
M  V30 493 H 41.9109 1.25465 0.706714 0
M  V30 494 H 43.8639 1.84742 3.78746 0
M  V30 495 H 42.5879 0.766241 3.17484 0
M  V30 496 H 41.2469 2.75859 2.41448 0
M  V30 497 H 40.8949 1.7993 4.69717 0
M  V30 498 H 40.5949 3.55523 4.67843 0
M  V30 499 H 42.1189 2.92104 5.36197 0
M  V30 500 H 43.5329 4.41798 3.65359 0
M  V30 501 H 41.9299 5.07166 3.20785 0
M  V30 502 H 42.9999 4.44329 1.94165 0
M  V30 503 N 44.343 -0.763751 1.37857 0
M  V30 504 C 45.591 -1.51957 1.33243 0
M  V30 505 C 45.912 -1.94835 -0.0801709 0
M  V30 506 O 45.182 -1.66894 -1.02582 0
M  V30 507 H 43.762 -0.563626 0.49024 0
M  V30 508 H 46.424 -0.908504 1.7243 0
M  V30 509 H 45.52 -2.41523 1.97669 0
M  V30 510 N 45.8211 -1.22559 -0.990812 0
M  V30 511 C 47.0671 -1.05297 -1.73322 0
M  V30 512 C 47.4001 0.410655 -1.89808 0
M  V30 513 O 46.6751 1.30439 -1.44277 0
M  V30 514 C 46.9581 -1.76713 -3.13759 0
M  V30 515 C 46.8111 -3.30684 -3.04907 0
M  V30 516 C 48.1301 -1.52121 -4.12974 0
M  V30 517 H 45.2491 -0.38392 -0.629106 0
M  V30 518 H 47.8911 -1.50926 -1.15418 0
M  V30 519 H 46.0411 -1.37924 -3.63193 0
M  V30 520 H 47.7131 -3.7893 -2.63077 0
M  V30 521 H 45.9561 -3.60253 -2.41661 0
M  V30 522 H 46.6271 -3.75833 -4.04294 0
M  V30 523 H 49.1031 -1.85819 -3.72304 0
M  V30 524 H 47.9791 -2.04582 -5.0935 0
M  V30 525 H 48.2401 -0.454257 -4.3976 0
M  V30 526 N 47.2992 1.18797 -1.03562 0
M  V30 527 C 48.2492 2.20161 -0.592724 0
M  V30 528 C 49.2332 1.56772 0.362133 0
M  V30 529 O 50.4252 1.76062 0.182009 0
M  V30 530 C 47.5542 3.43266 0.0481024 0
M  V30 531 C 46.6402 4.13786 -0.9296 0
M  V30 532 N 47.0312 4.60388 -2.09467 0
M  V30 533 C 45.3292 4.39572 -0.754499 0
M  V30 534 C 46.0302 5.14619 -2.71187 0
M  V30 535 N 45.0062 5.05826 -1.991 0
M  V30 536 H 48.8082 2.53877 -1.48066 0
M  V30 537 H 46.3222 1.34946 -0.903514 0
M  V30 538 H 48.3192 4.15136 0.383058 0
M  V30 539 H 46.9792 3.11048 0.931636 0
M  V30 540 H 47.9902 4.54999 -2.47379 0
M  V30 541 H 44.6672 4.17425 0.0793713 0
M  V30 542 H 46.0572 5.60917 -3.69895 0
M  V30 543 N 48.7773 0.814389 1.34928 0
M  V30 544 C 49.7093 0.187834 2.28429 0
M  V30 545 C 50.7223 -0.617374 1.5064 0
M  V30 546 O 51.9113 -0.448454 1.72775 0
M  V30 547 C 49.0113 -0.755962 3.30361 0
M  V30 548 C 48.1843 0.00456686 4.374 0
M  V30 549 C 47.2433 -0.858876 5.19143 0
M  V30 550 O 46.2693 -0.306968 5.68372 0
M  V30 551 N 47.4713 -2.17988 5.38016 0
M  V30 552 H 50.2363 0.991105 2.82838 0
M  V30 553 H 47.7973 0.670561 1.4736 0
M  V30 554 H 49.7893 -1.338 3.81942 0
M  V30 555 H 48.3593 -1.46001 2.7641 0
M  V30 556 H 47.5793 0.767865 3.86649 0
M  V30 557 H 48.8673 0.528422 5.06049 0
M  V30 558 H 48.2653 -2.65212 4.99679 0
M  V30 559 H 46.8223 -2.71098 5.92747 0
M  V30 560 N 50.2554 -1.46986 0.568584 0
M  V30 561 C 51.1654 -2.33942 -0.17555 0
M  V30 562 C 52.1814 -1.48891 -0.90041 0
M  V30 563 O 53.3574 -1.81794 -0.86676 0
M  V30 564 C 50.4224 -3.25811 -1.18524 0
M  V30 565 C 49.4834 -4.26757 -0.466582 0
M  V30 566 C 48.7164 -5.14236 -1.42817 0
M  V30 567 O 48.9394 -5.04379 -2.66379 0
M  V30 568 O 47.8734 -5.94412 -0.946453 0
M  V30 569 H 51.6994 -2.98896 0.538036 0
M  V30 570 H 49.2844 -1.4573 0.329097 0
M  V30 571 H 51.1664 -3.82527 -1.76779 0
M  V30 572 H 49.8414 -2.63471 -1.88055 0
M  V30 573 H 48.7484 -3.73769 0.157451 0
M  V30 574 H 50.0814 -4.91843 0.187485 0
M  V30 575 N 51.7335 -0.305618 -1.54608 0
M  V30 576 C 52.6635 0.561482 -2.26649 0
M  V30 577 C 53.6445 1.13415 -1.26772 0
M  V30 578 O 54.8295 1.16262 -1.55553 0
M  V30 579 C 51.9595 1.73122 -3.01075 0
M  V30 580 C 50.9135 1.2887 -4.08138 0
M  V30 581 C 50.2395 2.54396 -4.70305 0
M  V30 582 C 51.5395 0.416578 -5.20636 0
M  V30 583 H 53.2335 -0.0393902 -2.99374 0
M  V30 584 H 50.7795 -0.020385 -1.43986 0
M  V30 585 H 52.7325 2.34396 -3.50195 0
M  V30 586 H 51.4565 2.3584 -2.25936 0
M  V30 587 H 50.1155 0.698991 -3.59875 0
M  V30 588 H 49.7635 3.15439 -3.918 0
M  V30 589 H 49.4635 2.25486 -5.42614 0
M  V30 590 H 50.9875 3.16464 -5.2219 0
M  V30 591 H 52.4015 0.935116 -5.65622 0
M  V30 592 H 50.7985 0.221046 -5.99693 0
M  V30 593 H 51.8685 -0.557162 -4.81688 0
M  V30 594 N 53.2116 1.57565 -0.0334293 0
M  V30 595 C 54.4596 1.91598 0.642999 0
M  V30 596 C 54.7806 0.910847 1.7242 0
M  V30 597 O 54.0506 -0.0469931 1.95844 0
M  V30 598 H 52.6306 0.707228 0.240496 0
M  V30 599 H 55.2926 1.94726 -0.0822488 0
M  V30 600 H 54.3886 2.92336 1.09298 0
M  V30 601 N 54.6897 -0.239769 1.55765 0
M  V30 602 C 55.6527 -1.28038 1.90103 0
M  V30 603 C 56.6527 -1.40723 0.778055 0
M  V30 604 O 57.8427 -1.39301 1.04599 0
M  V30 605 C 54.9747 -2.65702 2.13577 0
M  V30 606 H 56.1677 -0.988048 2.83157 0
M  V30 607 H 53.7207 -0.479382 1.48767 0
M  V30 608 H 54.4557 -3.00063 1.23015 0
M  V30 609 H 54.2407 -2.57875 2.95369 0
M  V30 610 H 55.7307 -3.40828 2.41301 0
M  V30 611 N 56.1678 -1.49265 -0.50573 0
M  V30 612 C 57.3928 -1.62478 -1.28902 0
M  V30 613 C 57.8178 -0.294332 -1.85783 0
M  V30 614 O 57.1758 0.737412 -1.65626 0
M  V30 615 C 57.2238 -2.69268 -2.39848 0
M  V30 616 O 56.3278 -2.28113 -3.43567 0
M  V30 617 H 55.6688 -0.54399 -0.380751 0
M  V30 618 H 58.1988 -1.95421 -0.605952 0
M  V30 619 H 58.2088 -2.91291 -2.85681 0
M  V30 620 H 56.8838 -3.65846 -1.97812 0
M  V30 621 H 55.4608 -2.16401 -3.03685 0
M  V30 622 N 57.6459 0.756429 -1.3826 0
M  V30 623 C 58.5559 1.9009 -1.37488 0
M  V30 624 C 59.5719 1.71855 -0.272366 0
M  V30 625 O 60.7479 1.94827 -0.510318 0
M  V30 626 C 57.8129 3.25421 -1.19592 0
M  V30 627 C 56.8739 3.56202 -2.39622 0
M  V30 628 C 56.1069 4.85075 -2.2257 0
M  V30 629 O 56.3299 5.57246 -1.21793 0
M  V30 630 O 55.2639 5.15269 -3.11098 0
M  V30 631 H 59.0899 1.93695 -2.33914 0
M  V30 632 H 56.6749 0.901313 -1.1915 0
M  V30 633 H 58.5569 4.06337 -1.11661 0
M  V30 634 H 57.2319 3.22634 -0.262486 0
M  V30 635 H 56.1389 2.75458 -2.53128 0
M  V30 636 H 57.4719 3.63747 -3.31586 0
M  V30 637 N 59.124 1.23083 0.984299 0
M  V30 638 C 60.054 1.03292 2.09411 0
M  V30 639 C 61.035 -0.048923 1.7003 0
M  V30 640 O 62.22 0.114967 1.93859 0
M  V30 641 C 59.35 0.619155 3.41736 0
M  V30 642 C 58.304 1.64791 3.95004 0
M  V30 643 C 57.63 1.0897 5.23478 0
M  V30 644 C 58.93 3.03999 4.24714 0
M  V30 645 H 60.624 1.96119 2.26225 0
M  V30 646 H 58.17 0.944344 1.08711 0
M  V30 647 H 60.123 0.467777 4.18796 0
M  V30 648 H 58.847 -0.344786 3.24775 0
M  V30 649 H 57.506 1.78721 3.20085 0
M  V30 650 H 57.154 0.11686 5.02864 0
M  V30 651 H 56.854 1.77704 5.60085 0
M  V30 652 H 58.378 0.950093 6.03163 0
M  V30 653 H 59.792 2.93393 4.92538 0
M  V30 654 H 58.189 3.69936 4.72512 0
M  V30 655 H 59.259 3.53285 3.32142 0
M  V30 656 N 60.6021 -1.18246 1.0419 0
M  V30 657 C 61.5651 -2.20128 0.638452 0
M  V30 658 C 62.5651 -1.57885 -0.304805 0
M  V30 659 O 63.7551 -1.73967 -0.0900369 0
M  V30 660 C 60.8871 -3.4084 -0.0637751 0
M  V30 661 H 62.0801 -2.57336 1.54007 0
M  V30 662 H 59.6331 -1.32152 0.834598 0
M  V30 663 H 60.3681 -3.09166 -0.979136 0
M  V30 664 H 60.1531 -3.8726 0.614198 0
M  V30 665 H 61.6431 -4.16274 -0.332512 0
M  V30 666 N 62.0802 -0.821533 -1.34494 0
M  V30 667 C 63.0122 -0.199946 -2.28326 0
M  V30 668 C 64.0252 0.609377 -1.50965 0
M  V30 669 O 65.2142 0.439285 -1.7301 0
M  V30 670 C 62.3142 0.738431 -3.30757 0
M  V30 671 C 61.4872 -0.0277632 -4.37391 0
M  V30 672 C 60.5462 0.831332 -5.19591 0
M  V30 673 O 59.5722 0.276822 -5.68526 0
M  V30 674 N 60.7742 2.15132 -5.39165 0
M  V30 675 H 63.5392 -1.00609 -2.82308 0
M  V30 676 H 61.1002 -0.678366 -1.47003 0
M  V30 677 H 63.0922 1.31773 -3.82646 0
M  V30 678 H 61.6622 1.44533 -2.7718 0
M  V30 679 H 60.8822 -0.788359 -3.86236 0
M  V30 680 H 62.1702 -0.555251 -5.05761 0
M  V30 681 H 61.5682 2.62559 -5.01078 0
M  V30 682 H 60.1252 2.6795 -5.94177 0
M  V30 683 N 63.5583 1.46682 -0.576371 0
M  V30 684 C 64.8353 1.95599 0.00703437 0
M  V30 685 C 65.2153 1.51904 1.46589 0
M  V30 686 O 64.5633 0.766755 2.15251 0
M  V30 687 C 64.7733 3.4864 -0.158404 0
M  V30 688 C 66.1213 4.24594 -0.0229439 0
M  V30 689 O 67.1453 3.56094 -0.0869173 0
M  V30 690 O 66.0043 5.46373 0.118015 0
M  V30 691 H 63.0983 0.825275 0.053384 0
M  V30 692 H 65.6443 1.56996 -0.644244 0
M  V30 693 H 64.4163 3.7331 -1.17282 0
M  V30 694 H 64.0393 3.94057 0.5296 0
M  V30 695 N 65.0364 0.313813 1.54444 0
M  V30 696 C 65.9834 -0.55655 2.23989 0
M  V30 697 C 66.9534 -1.11943 1.22711 0
M  V30 698 O 68.1384 -1.16158 1.51367 0
M  V30 699 C 65.2784 -1.71635 2.99392 0
M  V30 700 C 64.3914 -1.18364 4.15468 0
M  V30 701 C 63.5264 -2.30834 4.78424 0
M  V30 702 C 62.5654 -1.74762 5.86622 0
M  V30 703 N 61.7024 -2.80855 6.43479 0
M  V30 704 H 66.5424 0.0430893 2.97969 0
M  V30 705 H 64.0794 0.0330359 1.47063 0
M  V30 706 H 66.0374 -2.39868 3.41349 0
M  V30 707 H 64.6674 -2.28742 2.27765 0
M  V30 708 H 63.7194 -0.393163 3.78363 0
M  V30 709 H 65.0314 -0.733262 4.93381 0
M  V30 710 H 64.1854 -3.0699 5.23299 0
M  V30 711 H 62.9244 -2.79204 3.99871 0
M  V30 712 H 61.9294 -0.970995 5.41158 0
M  V30 713 H 63.1544 -1.2728 6.67066 0
M  V30 714 H 61.1004 -3.28535 5.67804 0
M  V30 715 H 61.0174 -2.40351 7.16776 0
M  V30 716 H 62.2854 -3.5687 6.93011 0
M  V30 717 N 66.5145 -1.57545 0.0417849 0
M  V30 718 C 67.7445 -1.96339 -0.642995 0
M  V30 719 C 68.1525 -0.917536 -1.65463 0
M  V30 720 O 67.4955 0.107747 -1.83384 0
M  V30 721 C 67.5575 -3.31333 -1.39494 0
M  V30 722 C 67.2215 -4.53796 -0.540204 0
M  V30 723 C 68.2185 -5.19553 0.189806 0
M  V30 724 C 65.9035 -5.0006 -0.473886 0
M  V30 725 C 67.8975 -6.29904 0.974674 0
M  V30 726 C 65.5845 -6.10289 0.314677 0
M  V30 727 C 66.5825 -6.75072 1.03765 0
M  V30 728 O 66.2705 -7.83183 1.81327 0
M  V30 729 H 66.0025 -0.651241 -0.181277 0
M  V30 730 H 68.5565 -2.05148 0.101665 0
M  V30 731 H 66.7865 -3.19052 -2.18502 0
M  V30 732 H 68.4755 -3.54942 -1.96904 0
M  V30 733 H 69.2415 -4.84774 0.147981 0
M  V30 734 H 65.1205 -4.49433 -1.0262 0
M  V30 735 H 68.6645 -6.80401 1.5395 0
M  V30 736 H 64.5615 -6.44506 0.358174 0
M  V30 737 H 65.3295 -7.99913 1.73438 0
M  V30 738 N 67.9926 0.231505 -1.5589 0
M  V30 739 C 69.2386 0.95877 -1.78705 0
M  V30 740 C 69.5716 1.8438 -0.609725 0
M  V30 741 O 68.8466 1.90521 0.391426 0
M  V30 742 C 69.1296 1.8062 -3.11526 0
M  V30 743 C 68.9826 0.948328 -4.39689 0
M  V30 744 C 70.3016 2.78585 -3.40703 0
M  V30 745 H 67.4206 0.347129 -0.650131 0
M  V30 746 H 70.0626 0.228259 -1.88624 0
M  V30 747 H 68.2126 2.42902 -3.03201 0
M  V30 748 H 69.8846 0.343016 -4.60023 0
M  V30 749 H 68.1276 0.253314 -4.3306 0
M  V30 750 H 68.7986 1.57543 -5.29041 0
M  V30 751 H 71.2746 2.26439 -3.49091 0
M  V30 752 H 70.1506 3.34988 -4.34826 0
M  V30 753 H 70.4116 3.55825 -2.62375 0
M  V30 754 N 69.4707 1.49531 0.497807 0
M  V30 755 C 70.4337 1.65916 1.58128 0
M  V30 756 C 71.4337 0.530825 1.51786 0
M  V30 757 O 72.6237 0.797342 1.54881 0
M  V30 758 C 69.7557 1.65951 2.9778 0
M  V30 759 H 70.9487 2.62556 1.44929 0
M  V30 760 H 68.5017 1.38611 0.722275 0
M  V30 761 H 69.2367 0.709065 3.16453 0
M  V30 762 H 69.0217 2.47897 3.03792 0
M  V30 763 H 70.5117 1.80673 3.76493 0
M  V30 764 N 70.9488 -0.749086 1.3866 0
M  V30 765 C 72.2258 -1.4992 1.25632 0
M  V30 766 C 72.6058 -2.10633 -0.140317 0
M  V30 767 O 71.9538 -1.97437 -1.15025 0
M  V30 768 C 72.1638 -2.56195 2.36992 0
M  V30 769 C 73.5118 -3.22972 2.75634 0
M  V30 770 O 74.5358 -2.66502 2.36337 0
M  V30 771 O 73.3948 -4.25122 3.43415 0
M  V30 772 H 70.4888 -0.665067 0.491544 0
M  V30 773 H 73.0348 -0.784113 1.50498 0
M  V30 774 H 71.8068 -2.09612 3.30422 0
M  V30 775 H 71.4298 -3.35279 2.13714 0
M  V30 776 N 72.4269 -1.23603 -0.977757 0
M  V30 777 C 73.6739 -1.06971 -1.71941 0
M  V30 778 C 74.0019 0.393009 -1.90488 0
M  V30 779 O 73.2569 1.30719 -1.4564 0
M  V30 780 C 73.5559 -1.7433 -3.11999 0
M  V30 781 C 73.2219 -3.24252 -3.13323 0
M  V30 782 C 71.8839 -3.65156 -3.13392 0
M  V30 783 C 74.2359 -4.20141 -3.08433 0
M  V30 784 C 71.5639 -5.00403 -3.0629 0
M  V30 785 C 73.9159 -5.55384 -3.02873 0
M  V30 786 C 72.5799 -5.95647 -3.01265 0
M  V30 787 H 71.8499 -0.391433 -0.629175 0
M  V30 788 H 74.4969 -1.53572 -1.14403 0
M  V30 789 H 72.8019 -1.20096 -3.7294 0
M  V30 790 H 74.4989 -1.58936 -3.68158 0
M  V30 791 H 71.0889 -2.91692 -3.14029 0
M  V30 792 H 75.2729 -3.89547 -3.07517 0
M  V30 793 H 70.5289 -5.3081 -3.03399 0
M  V30 794 H 74.7029 -6.29398 -2.98046 0
M  V30 795 H 72.3299 -7.0041 -2.95516 0
M  V30 796 N 73.905 1.17692 -1.04816 0
M  V30 797 C 74.835 2.23777 -0.666791 0
M  V30 798 C 75.816 1.66796 0.33361 0
M  V30 799 O 77.001 1.93039 0.212042 0
M  V30 800 C 74.131 3.47281 -0.0367933 0
M  V30 801 C 73.085 4.17059 -0.961546 0
M  V30 802 C 72.411 5.34342 -0.195626 0
M  V30 803 C 73.711 4.69713 -2.28402 0
M  V30 804 H 75.405 2.55933 -1.55367 0
M  V30 805 H 72.951 1.23019 -0.748484 0
M  V30 806 H 74.904 4.20706 0.241775 0
M  V30 807 H 73.628 3.14381 0.885004 0
M  V30 808 H 72.287 3.45541 -1.22462 0
M  V30 809 H 71.935 4.97692 0.728816 0
M  V30 810 H 71.635 5.81966 -0.811775 0
M  V30 811 H 73.159 6.10553 0.0757473 0
M  V30 812 H 74.573 5.34794 -2.06563 0
M  V30 813 H 72.97 5.279 -2.8538 0
M  V30 814 H 74.04 3.86726 -2.92525 0
M  V30 815 N 75.3831 0.828654 1.34056 0
M  V30 816 C 76.3151 0.212052 2.28217 0
M  V30 817 C 77.3281 -0.601362 1.51286 0
M  V30 818 O 78.5171 -0.430104 1.73241 0
M  V30 819 C 75.6171 -0.72088 3.31144 0
M  V30 820 C 74.7901 0.0509587 4.3737 0
M  V30 821 C 73.8491 -0.803766 5.20025 0
M  V30 822 O 72.8751 -0.246667 5.68665 0
M  V30 823 N 74.0771 -2.1227 5.40298 0
M  V30 824 H 76.8421 1.02105 2.81771 0
M  V30 825 H 74.4031 0.686153 1.46641 0
M  V30 826 H 76.3951 -1.29742 3.8334 0
M  V30 827 H 74.9651 -1.43061 2.77943 0
M  V30 828 H 74.1851 0.808831 3.85813 0
M  V30 829 H 75.4731 0.582065 5.0546 0
M  V30 830 H 74.8711 -2.59898 5.02464 0
M  V30 831 H 73.4281 -2.64796 5.95589 0
M  V30 832 N 76.8612 -1.46375 0.584142 0
M  V30 833 C 78.1072 -2.03248 0.0787103 0
M  V30 834 C 78.4622 -1.44737 -1.26763 0
M  V30 835 O 77.7552 -0.603625 -1.81843 0
M  V30 836 C 77.9492 -3.57373 -0.0439342 0
M  V30 837 C 77.7782 -4.30831 1.28897 0
M  V30 838 C 76.5482 -4.69683 1.8635 0
M  V30 839 C 78.7462 -4.64278 2.21248 0
M  V30 840 N 76.7282 -5.27898 3.13365 0
M  V30 841 C 78.0992 -5.23078 3.32851 0
M  V30 842 C 80.1542 -4.46209 2.20911 0
M  V30 843 C 78.8572 -5.65715 4.44251 0
M  V30 844 C 80.8832 -4.89864 3.31341 0
M  V30 845 C 80.2452 -5.48736 4.41665 0
M  V30 846 H 76.3442 -0.778714 0.0716144 0
M  V30 847 H 78.9282 -1.78509 0.777355 0
M  V30 848 H 77.0992 -3.81823 -0.711749 0
M  V30 849 H 78.8312 -4.00892 -0.553881 0
M  V30 850 H 75.5862 -4.52488 1.39826 0
M  V30 851 H 76.0102 -5.61525 3.78178 0
M  V30 852 H 80.6522 -4.00027 1.36888 0
M  V30 853 H 78.3702 -6.10875 5.29015 0
M  V30 854 H 81.9562 -4.77634 3.322 0
M  V30 855 H 80.8362 -5.81898 5.25704 0
M  V30 856 N 78.3393 -0.321999 -1.54275 0
M  V30 857 C 79.3023 0.531975 -2.22941 0
M  V30 858 C 80.3023 1.04478 -1.22234 0
M  V30 859 O 81.4923 0.937452 -1.46825 0
M  V30 860 C 78.6243 1.73874 -2.93224 0
M  V30 861 H 79.8173 -0.0682612 -2.99822 0
M  V30 862 H 77.3703 -0.0730644 -1.56129 0
M  V30 863 H 78.1053 2.37825 -2.20476 0
M  V30 864 H 77.8903 1.37847 -3.6707 0
M  V30 865 H 79.3803 2.34496 -3.45545 0
M  V30 866 N 79.8174 1.5752 -0.0501392 0
M  V30 867 C 80.7274 2.14952 0.939827 0
M  V30 868 C 81.7434 1.10706 1.34239 0
M  V30 869 O 82.9194 1.42869 1.41952 0
M  V30 870 C 79.9844 2.68232 2.19665 0
M  V30 871 C 79.0454 3.87272 1.85253 0
M  V30 872 C 78.2784 4.38002 3.04943 0
M  V30 873 O 78.5014 3.87811 4.18281 0
M  V30 874 O 77.4354 5.29602 2.86017 0
M  V30 875 H 81.2614 2.9986 0.481392 0
M  V30 876 H 78.8464 1.4841 0.171699 0
M  V30 877 H 80.7284 3.02475 2.93406 0
M  V30 878 H 79.4034 1.86395 2.64648 0
M  V30 879 H 78.3104 3.5792 1.0883 0
M  V30 880 H 79.6434 4.70336 1.4507 0
M  V30 881 N 81.2955 -0.223234 1.56011 0
M  V30 882 C 82.7065 -0.790368 1.69145 0
M  V30 883 C 83.0575 -1.85055 0.651845 0
M  V30 884 O 82.1825 -2.15498 -0.197359 0
M  V30 885 C 82.7775 -1.4404 3.06656 0
M  V30 886 C 81.3365 -1.95494 3.2165 0
M  V30 887 C 80.4835 -0.814506 2.65068 0
M  V30 888 H 83.4345 0.00139011 1.587 0
M  V30 889 H 83.4555 -2.30916 3.0242 0
M  V30 890 H 82.9675 -0.668543 3.82298 0
M  V30 891 H 81.0685 -2.75487 2.50874 0
M  V30 892 H 81.1815 -2.13607 4.28846 0
M  V30 893 H 79.5455 -1.22137 2.23505 0
M  V30 894 H 80.3285 -0.0553515 3.43255 0
M  V30 895 N 82.7736 -1.49793 -0.48987 0
M  V30 896 C 84.0226 -1.59085 -1.23995 0
M  V30 897 C 84.3356 -0.287907 -1.9347 0
M  V30 898 O 85.5416 -0.259506 -2.70257 0
M  V30 899 C 83.9976 -2.80736 -2.252 0
M  V30 900 C 83.6056 -4.17833 -1.61614 0
M  V30 901 C 85.3496 -2.99364 -3.00967 0
M  V30 902 C 83.2566 -5.30693 -2.60996 0
M  V30 903 H 82.1866 -0.592372 -0.466488 0
M  V30 904 H 84.8376 -1.76197 -0.51252 0
M  V30 905 H 83.2196 -2.57142 -3.01154 0
M  V30 906 H 84.3936 -4.51608 -0.915774 0
M  V30 907 H 82.7086 -4.04656 -0.981977 0
M  V30 908 H 85.3056 -3.80851 -3.75308 0
M  V30 909 H 85.6486 -2.10356 -3.59244 0
M  V30 910 H 86.1816 -3.2305 -2.32128 0
M  V30 911 H 82.9206 -6.21796 -2.07485 0
M  V30 912 H 82.4406 -5.01359 -3.2924 0
M  V30 913 H 84.1196 -5.6049 -3.23202 0
M  V30 914 N 84.2517 0.741722 -1.39055 0
M  V30 915 C 85.4977 1.50336 -1.36113 0
M  V30 916 C 85.8307 1.94148 0.0450796 0
M  V30 917 O 85.1057 1.66301 1.00868 0
M  V30 918 C 85.3887 2.74773 -2.32749 0
M  V30 919 C 85.2417 2.37023 -3.82283 0
M  V30 920 C 86.5607 3.76846 -2.27322 0
M  V30 921 H 83.6797 0.545351 -0.495743 0
M  V30 922 H 86.3217 0.848624 -1.69995 0
M  V30 923 H 84.4717 3.30639 -2.03986 0
M  V30 924 H 86.1437 1.8684 -4.21768 0
M  V30 925 H 84.3867 1.69334 -3.99385 0
M  V30 926 H 85.0577 3.26104 -4.45376 0
M  V30 927 H 87.5337 3.30548 -2.5274 0
M  V30 928 H 86.4097 4.6159 -2.97028 0
M  V30 929 H 86.6707 4.23286 -1.27599 0
M  V30 930 N 85.7298 1.2412 0.971189 0
M  V30 931 C 86.9758 1.08041 1.71625 0
M  V30 932 C 87.3088 -0.380407 1.90438 0
M  V30 933 O 86.5838 -1.28127 1.46334 0
M  V30 934 C 86.8668 1.81682 3.10908 0
M  V30 935 C 86.7198 3.35493 2.99608 0
M  V30 936 C 88.0388 1.58671 4.10501 0
M  V30 937 H 85.1578 0.39388 0.622919 0
M  V30 938 H 87.7998 1.52743 1.13003 0
M  V30 939 H 85.9498 1.43684 3.60953 0
M  V30 940 H 87.6218 3.83068 2.57015 0
M  V30 941 H 85.8648 3.64052 2.35899 0
M  V30 942 H 86.5358 3.82217 3.98264 0
M  V30 943 H 89.0118 1.91719 3.69301 0
M  V30 944 H 87.8878 2.1266 5.06031 0
M  V30 945 H 88.1488 0.524161 4.38982 0
M  V30 946 N 87.2079 -1.17134 1.05439 0
M  V30 947 C 88.6239 -1.39454 0.776201 0
M  V30 948 C 88.8239 -1.91454 -0.628307 0
M  V30 949 O 87.8799 -2.10777 -1.39031 0
M  V30 950 C 89.1929 -2.38305 1.83388 0
M  V30 951 C 90.7409 -2.52006 1.85639 0
M  V30 952 C 91.2159 -3.54133 2.90437 0
M  V30 953 N 92.7069 -3.61653 2.89415 0
M  V30 954 C 93.4419 -4.4044 3.67152 0
M  V30 955 N 92.9379 -5.22721 4.54681 0
M  V30 956 N 94.7309 -4.35337 3.55581 0
M  V30 957 H 86.8819 -0.817134 1.96053 0
M  V30 958 H 89.1449 -0.421626 0.849079 0
M  V30 959 H 88.8509 -2.07173 2.84204 0
M  V30 960 H 88.7249 -3.37841 1.67761 0
M  V30 961 H 91.1119 -2.82447 0.85486 0
M  V30 962 H 91.1929 -1.52537 2.05344 0
M  V30 963 H 90.8369 -3.24431 3.90777 0
M  V30 964 H 90.7669 -4.53313 2.67983 0
M  V30 965 H 93.2579 -3.02909 2.25952 0
M  V30 966 H 93.5709 -5.80027 5.10674 0
M  V30 967 H 91.9159 -5.22093 4.58741 0
M  V30 968 H 95.1069 -3.70112 2.86592 0
M  V30 969 H 95.2799 -4.96494 4.1641 0
M  V30 970 N 88.686 -0.835752 -1.33615 0
M  V30 971 C 89.616 -0.281739 -2.31794 0
M  V30 972 C 90.597 0.608833 -1.58831 0
M  V30 973 O 91.782 0.533035 -1.86741 0
M  V30 974 C 88.912 0.546612 -3.42971 0
M  V30 975 C 87.866 -0.247904 -4.27281 0
M  V30 976 C 87.192 0.704001 -5.30045 0
M  V30 977 C 88.492 -1.46324 -5.01385 0
M  V30 978 H 90.186 -1.10206 -2.78379 0
M  V30 979 H 87.732 -0.531388 -1.33837 0
M  V30 980 H 89.685 0.944467 -4.1068 0
M  V30 981 H 88.409 1.40011 -2.95067 0
M  V30 982 H 87.068 -0.627281 -3.61194 0
M  V30 983 H 86.716 1.55381 -4.78399 0
M  V30 984 H 86.416 0.176524 -5.87335 0
M  V30 985 H 87.94 1.09944 -6.0062 0
M  V30 986 H 89.354 -1.13871 -5.61877 0
M  V30 987 H 87.751 -1.92728 -5.6831 0
M  V30 988 H 88.821 -2.23467 -4.30338 0
M  V30 989 N 90.1641 1.46063 -0.591896 0
M  V30 990 C 91.1111 2.30399 0.136069 0
M  V30 991 C 92.0811 1.41169 0.875238 0
M  V30 992 O 93.2661 1.70112 0.86409 0
M  V30 993 C 90.4061 3.25804 1.13781 0
M  V30 994 C 89.5191 4.30134 0.401137 0
M  V30 995 C 88.6541 5.12659 1.39121 0
M  V30 996 C 87.6931 6.0873 0.641462 0
M  V30 997 N 86.8301 6.8409 1.58004 0
M  V30 998 H 91.6701 2.92118 -0.589144 0
M  V30 999 H 89.2071 1.43959 -0.302342 0
M  V30 1000 H 91.1651 3.79569 1.73156 0
M  V30 1001 H 89.7951 2.65872 1.83062 0
M  V30 1002 H 88.8471 3.79152 -0.307826 0
M  V30 1003 H 90.1591 4.98458 -0.184565 0
M  V30 1004 H 89.3131 5.70747 2.05749 0
M  V30 1005 H 88.0521 4.44316 2.01084 0
M  V30 1006 H 87.0571 5.49786 -0.0385419 0
M  V30 1007 H 88.2821 6.79095 0.0270945 0
M  V30 1008 H 86.2281 6.18449 2.18761 0
M  V30 1009 H 86.1451 7.48709 1.04738 0
M  V30 1010 H 87.4131 7.4673 2.23639 0
M  V30 1011 N 91.6422 0.330177 1.54103 0
M  V30 1012 C 92.5522 -0.541534 2.28264 0
M  V30 1013 C 93.5682 -1.12351 1.32866 0
M  V30 1014 O 94.7442 -1.14206 1.65888 0
M  V30 1015 C 91.8092 -1.68322 3.03098 0
M  V30 1016 C 90.8702 -1.13238 4.14096 0
M  V30 1017 C 90.1032 -2.21966 4.85352 0
M  V30 1018 O 90.3262 -3.42437 4.56172 0
M  V30 1019 O 89.2602 -1.87013 5.7211 0
M  V30 1020 H 93.0862 0.060938 3.03639 0
M  V30 1021 H 90.6712 0.09565 1.49093 0
M  V30 1022 H 92.5532 -2.34777 3.49939 0
M  V30 1023 H 91.2282 -2.27176 2.30593 0
M  V30 1024 H 90.1352 -0.432736 3.71589 0
M  V30 1025 H 91.4682 -0.588898 4.88664 0
M  V30 1026 N 93.1203 -1.57491 0.0584922 0
M  V30 1027 C 94.3663 -1.93264 -0.614558 0
M  V30 1028 C 94.6993 -0.937717 -1.7006 0
M  V30 1029 O 93.9743 0.0351652 -1.94468 0
M  V30 1030 C 94.2573 -3.3938 -1.20386 0
M  V30 1031 C 94.1103 -4.49625 -0.125375 0
M  V30 1032 C 95.4293 -3.86039 -2.11334 0
M  V30 1033 H 92.5483 -0.702791 -0.221933 0
M  V30 1034 H 95.1903 -1.8961 0.12175 0
M  V30 1035 H 93.3403 -3.42626 -1.83139 0
M  V30 1036 H 95.0123 -4.58506 0.506971 0
M  V30 1037 H 93.2553 -4.30354 0.545672 0
M  V30 1038 H 93.9263 -5.48967 -0.577861 0
M  V30 1039 H 96.4023 -3.84716 -1.58534 0
M  V30 1040 H 95.2783 -4.88914 -2.49507 0
M  V30 1041 H 95.5393 -3.23215 -3.01636 0
M  V30 1042 N 94.5984 0.214957 -1.56127 0
M  V30 1043 C 96.0144 0.564948 -1.49267 0
M  V30 1044 C 96.2144 1.86827 -0.754838 0
M  V30 1045 O 95.2704 2.50745 -0.297198 0
M  V30 1046 C 96.5834 0.638071 -2.93852 0
M  V30 1047 C 98.1314 0.728253 -3.0441 0
M  V30 1048 C 98.6064 0.832663 -4.50367 0
M  V30 1049 N 100.097 0.896712 -4.54437 0
M  V30 1050 C 100.832 0.997324 -5.6466 0
M  V30 1051 N 100.328 1.06147 -6.8462 0
M  V30 1052 N 102.121 1.03297 -5.52527 0
M  V30 1053 H 94.2724 -0.640211 -2.02522 0
M  V30 1054 H 96.5354 -0.225507 -0.920788 0
M  V30 1055 H 96.2414 -0.250126 -3.50809 0
M  V30 1056 H 96.1154 1.49947 -3.46115 0
M  V30 1057 H 98.5024 1.60689 -2.47514 0
M  V30 1058 H 98.5834 -0.158952 -2.55306 0
M  V30 1059 H 98.2274 -0.0415417 -5.07883 0
M  V30 1060 H 98.1574 1.73538 -4.97184 0
M  V30 1061 H 100.648 0.857188 -3.6805 0
M  V30 1062 H 100.961 1.1382 -7.64372 0
M  V30 1063 H 99.3064 1.03049 -6.87318 0
M  V30 1064 H 102.497 0.979558 -4.57736 0
M  V30 1065 H 102.67 1.10793 -6.38458 0
M  V30 1066 N 96.0765 1.50051 0.48192 0
M  V30 1067 C 97.0065 1.71046 1.58951 0
M  V30 1068 C 97.9875 0.559288 1.60642 0
M  V30 1069 O 99.1725 0.797243 1.77081 0
M  V30 1070 C 96.3025 1.79462 2.97339 0
M  V30 1071 C 95.2565 2.94558 3.10515 0
M  V30 1072 C 94.5825 2.88105 4.50444 0
M  V30 1073 C 95.8825 4.35227 2.88747 0
M  V30 1074 H 97.5765 2.6378 1.41635 0
M  V30 1075 H 95.1225 1.26936 0.679942 0
M  V30 1076 H 97.0755 1.92734 3.74742 0
M  V30 1077 H 95.7995 0.833412 3.15788 0
M  V30 1078 H 94.4585 2.80918 2.35543 0
M  V30 1079 H 94.1065 1.89853 4.65795 0
M  V30 1080 H 93.8065 3.65366 4.60197 0
M  V30 1081 H 95.3305 3.03412 5.29881 0
M  V30 1082 H 96.7445 4.49449 3.55905 0
M  V30 1083 H 95.1415 5.13856 3.09955 0
M  V30 1084 H 96.2115 4.48347 1.84696 0
M  V30 1085 N 97.5546 -0.734337 1.39446 0
M  V30 1086 C 98.4866 -1.85861 1.34121 0
M  V30 1087 C 99.4996 -1.60871 0.249864 0
M  V30 1088 O 100.689 -1.71093 0.508865 0
M  V30 1089 C 97.7886 -3.21899 1.05991 0
M  V30 1090 C 96.9616 -3.74239 2.26415 0
M  V30 1091 C 96.0206 -4.88841 1.94733 0
M  V30 1092 O 95.0466 -5.02468 2.67422 0
M  V30 1093 N 96.2486 -5.73261 0.913884 0
M  V30 1094 H 99.0136 -1.90934 2.31007 0
M  V30 1095 H 96.5746 -0.915102 1.33557 0
M  V30 1096 H 98.5666 -3.96136 0.828147 0
M  V30 1097 H 97.1366 -3.12091 0.178361 0
M  V30 1098 H 96.3566 -2.91347 2.65539 0
M  V30 1099 H 97.6446 -4.05942 3.06738 0
M  V30 1100 H 97.0426 -5.64842 0.311476 0
M  V30 1101 H 95.5996 -6.47563 0.742015 0
M  V30 1102 N 99.0327 -1.24633 -0.964593 0
M  V30 1103 C 100.449 -1.01239 -1.2338 0
M  V30 1104 C 100.649 0.2769 -1.99588 0
M  V30 1105 O 99.7047 0.992241 -2.32187 0
M  V30 1106 C 101.018 -2.22937 -2.01791 0
M  V30 1107 C 102.566 -2.27594 -2.14872 0
M  V30 1108 C 103.041 -3.48921 -2.96678 0
M  V30 1109 N 104.532 -3.49257 -3.04259 0
M  V30 1110 C 105.267 -4.39795 -3.67924 0
M  V30 1111 N 104.763 -5.40591 -4.33281 0
M  V30 1112 N 106.556 -4.275 -3.64966 0
M  V30 1113 H 98.7067 -2.0748 -0.454502 0
M  V30 1114 H 100.97 -0.910647 -0.26349 0
M  V30 1115 H 100.676 -3.16587 -1.53184 0
M  V30 1116 H 100.55 -2.25306 -3.02518 0
M  V30 1117 H 102.937 -1.34473 -2.6268 0
M  V30 1118 H 103.018 -2.2925 -1.13482 0
M  V30 1119 H 102.662 -4.42359 -2.49562 0
M  V30 1120 H 102.592 -3.4451 -3.98272 0
M  V30 1121 H 105.083 -2.76337 -2.57771 0
M  V30 1122 H 105.396 -6.05904 -4.79687 0
M  V30 1123 H 103.741 -5.44475 -4.3194 0
M  V30 1124 H 106.932 -3.47987 -3.13086 0
M  V30 1125 H 107.105 -4.98258 -4.14298 0
M  V30 1126 N 100.511 1.16574 -1.06058 0
M  V30 1127 C 101.788 1.83048 -0.689416 0
M  V30 1128 C 102.168 1.94122 0.829443 0
M  V30 1129 O 101.516 1.48249 1.7388 0
M  V30 1130 C 101.726 3.20186 -1.38859 0
M  V30 1131 C 103.074 3.95989 -1.53226 0
M  V30 1132 O 104.098 3.29696 -1.3483 0
M  V30 1133 O 102.957 5.14813 -1.83384 0
M  V30 1134 H 100.051 0.790258 -0.243764 0
M  V30 1135 H 102.597 1.23797 -1.16071 0
M  V30 1136 H 101.369 3.07146 -2.4244 0
M  V30 1137 H 100.992 3.87112 -0.907216 0
M  V30 1138 N 101.989 0.842826 1.3317 0
M  V30 1139 C 103.266 0.362216 1.92217 0
M  V30 1140 C 103.646 -1.15289 1.76838 0
M  V30 1141 O 102.994 -1.96914 1.15919 0
M  V30 1142 C 103.204 0.813495 3.39387 0
M  V30 1143 C 104.552 0.823804 4.16532 0
M  V30 1144 O 105.576 0.757358 3.48055 0
M  V30 1145 O 104.435 0.915193 5.38782 0
M  V30 1146 H 101.529 0.103317 0.820521 0
M  V30 1147 H 104.075 0.928942 1.42017 0
M  V30 1148 H 102.847 1.85624 3.4447 0
M  V30 1149 H 102.47 0.223561 3.96971 0
M  V30 1150 N 103.467 -1.45747 0.599634 0
M  V30 1151 C 104.714 -2.02292 0.0917284 0
M  V30 1152 C 105.042 -1.46906 -1.27472 0
M  V30 1153 O 104.297 -0.630652 -1.8526 0
M  V30 1154 C 104.596 -3.57399 -0.00602758 0
M  V30 1155 C 104.262 -4.31902 1.29503 0
M  V30 1156 C 102.924 -4.51974 1.65144 0
M  V30 1157 C 105.276 -4.74551 2.15525 0
M  V30 1158 C 102.604 -5.11949 2.86574 0
M  V30 1159 C 104.956 -5.35868 3.36196 0
M  V30 1160 C 103.62 -5.54165 3.72099 0
M  V30 1161 H 102.89 -0.740239 0.0335658 0
M  V30 1162 H 105.537 -1.7491 0.779661 0
M  V30 1163 H 103.842 -3.84014 -0.777183 0
M  V30 1164 H 105.539 -3.98846 -0.415038 0
M  V30 1165 H 102.129 -4.16588 1.00761 0
M  V30 1166 H 106.313 -4.58784 1.8929 0
M  V30 1167 H 101.569 -5.24305 3.14507 0
M  V30 1168 H 105.743 -5.6787 4.03109 0
M  V30 1169 H 103.37 -6.00406 4.6628 0
M  V30 1170 N 104.945 -0.338344 -1.53925 0
M  V30 1171 C 105.855 0.529421 -2.28548 0
M  V30 1172 C 106.871 1.11645 -1.3346 0
M  V30 1173 O 108.047 1.13325 -1.66492 0
M  V30 1174 C 105.112 1.66713 -3.03987 0
M  V30 1175 C 104.173 1.11041 -4.14691 0
M  V30 1176 C 103.406 2.19389 -4.86522 0
M  V30 1177 O 103.629 3.40013 -4.57982 0
M  V30 1178 O 102.563 1.83976 -5.73094 0
M  V30 1179 H 106.389 -0.0770399 -3.03602 0
M  V30 1180 H 103.974 -0.103555 -1.49041 0
M  V30 1181 H 105.856 2.32918 -3.5118 0
M  V30 1182 H 104.531 2.25949 -2.31794 0
M  V30 1183 H 103.438 0.413024 -3.71813 0
M  V30 1184 H 104.771 0.562975 -4.8897 0
M  V30 1185 N 106.423 1.57458 -0.0668435 0
M  V30 1186 C 107.672 1.92477 0.602947 0
M  V30 1187 C 107.985 0.948419 1.71068 0
M  V30 1188 O 109.191 1.19124 2.43971 0
M  V30 1189 C 107.647 3.41903 1.12383 0
M  V30 1190 C 107.255 4.47975 0.04737 0
M  V30 1191 C 108.999 3.85931 1.76797 0
M  V30 1192 C 106.906 5.88529 0.582022 0
M  V30 1193 H 105.836 0.718387 0.22899 0
M  V30 1194 H 108.487 1.82978 -0.138276 0
M  V30 1195 H 106.869 3.46459 1.91787 0
M  V30 1196 H 108.043 4.55029 -0.726978 0
M  V30 1197 H 106.358 4.13384 -0.500243 0
M  V30 1198 H 108.955 4.88322 2.17821 0
M  V30 1199 H 109.298 3.23029 2.62599 0
M  V30 1200 H 109.831 3.83958 1.04024 0
M  V30 1201 H 106.57 6.55065 -0.238721 0
M  V30 1202 H 106.09 5.85004 1.324 0
M  V30 1203 H 107.769 6.38258 1.05999 0
M  V30 1204 N 107.901 -0.206675 1.56239 0
M  V30 1205 C 108.831 -1.25909 1.96645 0
M  V30 1206 C 109.812 -1.48097 0.836734 0
M  V30 1207 O 110.997 -1.6003 1.10019 0
M  V30 1208 C 108.127 -2.6058 2.29599 0
M  V30 1209 C 107.081 -2.53024 3.452 0
M  V30 1210 C 106.407 -3.91861 3.63798 0
M  V30 1211 C 107.707 -2.06524 4.79734 0
M  V30 1212 H 109.401 -0.923369 2.84806 0
M  V30 1213 H 106.947 -0.442735 1.37025 0
M  V30 1214 H 108.9 -3.34375 2.56459 0
M  V30 1215 H 107.624 -2.95869 1.38307 0
M  V30 1216 H 106.283 -1.81684 3.18412 0
M  V30 1217 H 105.931 -4.24483 2.69857 0
M  V30 1218 H 105.631 -3.87683 4.4156 0
M  V30 1219 H 107.155 -4.67296 3.93022 0
M  V30 1220 H 108.569 -2.70072 5.05702 0
M  V30 1221 H 106.966 -2.13374 5.60885 0
M  V30 1222 H 108.036 -1.01802 4.74093 0
M  V30 1223 N 109.379 -1.50304 -0.473955 0
M  V30 1224 C 110.326 -1.68959 -1.57231 0
M  V30 1225 C 111.296 -0.530899 -1.57387 0
M  V30 1226 O 112.481 -0.761133 -1.74961 0
M  V30 1227 C 109.621 -1.7871 -2.95223 0
M  V30 1228 C 108.734 -3.06061 -3.04878 0
M  V30 1229 C 107.869 -3.06626 -4.33767 0
M  V30 1230 C 106.908 -4.28443 -4.37154 0
M  V30 1231 N 106.045 -4.26763 -5.5751 0
M  V30 1232 H 110.885 -2.6273 -1.40631 0
M  V30 1233 H 108.422 -1.30241 -0.683789 0
M  V30 1234 H 110.38 -1.82344 -3.75242 0
M  V30 1235 H 109.01 -0.883806 -3.10465 0
M  V30 1236 H 108.062 -3.11911 -2.17751 0
M  V30 1237 H 109.374 -3.96039 -3.0324 0
M  V30 1238 H 108.528 -3.08973 -5.22131 0
M  V30 1239 H 107.267 -2.14473 -4.3801 0
M  V30 1240 H 106.272 -4.2631 -3.47188 0
M  V30 1241 H 107.497 -5.2182 -4.34605 0
M  V30 1242 H 105.443 -3.37462 -5.62544 0
M  V30 1243 H 105.36 -5.10507 -5.57601 0
M  V30 1244 H 106.628 -4.33253 -6.48006 0
M  V30 1245 N 110.857 0.726932 -1.39834 0
M  V30 1246 C 112.103 1.48884 -1.377 0
M  V30 1247 C 112.436 1.94185 0.0244852 0
M  V30 1248 O 111.711 1.67361 0.990986 0
M  V30 1249 C 111.994 2.72288 -2.3565 0
M  V30 1250 C 111.847 2.32956 -3.84775 0
M  V30 1251 C 113.166 3.74414 -2.31306 0
M  V30 1252 H 110.285 0.540062 -0.5015 0
M  V30 1253 H 112.927 0.830547 -1.70886 0
M  V30 1254 H 111.077 3.28457 -2.07481 0
M  V30 1255 H 112.749 1.82356 -4.23726 0
M  V30 1256 H 110.992 1.65088 -4.01159 0
M  V30 1257 H 111.663 3.21362 -4.4881 0
M  V30 1258 H 114.139 3.27849 -2.56231 0
M  V30 1259 H 113.015 4.58414 -3.01907 0
M  V30 1260 H 113.276 4.21909 -1.32081 0
M  V30 1261 N 112.336 1.25143 0.95797 0
M  V30 1262 C 113.585 1.0909 1.69654 0
M  V30 1263 C 113.898 -0.368548 1.92097 0
M  V30 1264 O 115.104 -0.649455 2.63618 0
M  V30 1265 C 113.56 1.90395 3.05414 0
M  V30 1266 C 113.168 3.4081 2.90779 0
M  V30 1267 C 114.912 1.82901 3.83076 0
M  V30 1268 C 112.819 4.14423 4.21909 0
M  V30 1269 H 111.749 0.404625 0.636235 0
M  V30 1270 H 114.4 1.4931 1.06672 0
M  V30 1271 H 112.782 1.42996 3.69281 0
M  V30 1272 H 113.956 3.95859 2.35865 0
M  V30 1273 H 112.271 3.49361 2.26575 0
M  V30 1274 H 114.868 2.35196 4.80195 0
M  V30 1275 H 115.211 0.796224 4.08615 0
M  V30 1276 H 115.744 2.28033 3.25954 0
M  V30 1277 H 112.483 5.18102 4.01561 0
M  V30 1278 H 112.003 3.64159 4.76601 0
M  V30 1279 H 113.682 4.21956 4.90471 0
M  V30 1280 N 113.814 -1.1601 1.06675 0
M  V30 1281 C 115.062 -1.86264 0.784229 0
M  V30 1282 C 115.383 -1.82328 -0.691488 0
M  V30 1283 O 114.653 -1.25947 -1.50047 0
M  V30 1284 H 113.233 -0.689621 0.28711 0
M  V30 1285 H 115.895 -1.40664 1.34906 0
M  V30 1286 H 114.991 -2.91595 1.11259 0
M  V30 1287 N 115.292 -0.849877 -1.32721 0
M  V30 1288 C 116.708 -0.539102 -1.50219 0
M  V30 1289 C 116.908 0.931271 -1.78689 0
M  V30 1290 O 115.964 1.71455 -1.85363 0
M  V30 1291 C 117.277 -1.42196 -2.64954 0
M  V30 1292 C 118.825 -1.42189 -2.78839 0
M  V30 1293 C 119.3 -2.28985 -3.96648 0
M  V30 1294 N 120.791 -2.26754 -4.03902 0
M  V30 1295 C 121.526 -2.90644 -4.94281 0
M  V30 1296 N 121.022 -3.63629 -5.897 0
M  V30 1297 N 122.815 -2.80057 -4.87365 0
M  V30 1298 H 114.966 -1.80156 -1.12506 0
M  V30 1299 H 117.229 -0.769217 -0.554085 0
M  V30 1300 H 116.935 -2.46733 -2.50631 0
M  V30 1301 H 116.809 -1.10591 -3.60624 0
M  V30 1302 H 119.196 -0.38419 -2.92588 0
M  V30 1303 H 119.277 -1.77807 -1.83898 0
M  V30 1304 H 118.921 -3.32819 -3.83658 0
M  V30 1305 H 118.851 -1.90702 -4.90857 0
M  V30 1306 H 121.342 -1.73688 -3.3562 0
M  V30 1307 H 121.655 -4.09558 -6.55349 0
M  V30 1308 H 120 -3.67737 -5.89741 0
M  V30 1309 H 123.191 -2.22593 -4.11789 0
M  V30 1310 H 123.364 -3.30132 -5.57599 0
M  V30 1311 N 116.77 1.45427 -0.607355 0
M  V30 1312 C 118.018 2.01841 -0.102253 0
M  V30 1313 C 118.339 1.47832 1.27164 0
M  V30 1314 O 117.609 0.672497 1.83995 0
M  V30 1315 H 116.189 0.746188 -0.0348101 0
M  V30 1316 H 118.851 1.78229 -0.7887 0
M  V30 1317 H 117.947 3.12057 -0.0518585 0
M  V30 1318 N 118.248 0.346503 1.53744 0
M  V30 1319 C 119.211 -0.496439 2.23759 0
M  V30 1320 C 120.211 -1.0252 1.2388 0
M  V30 1321 O 121.401 -0.913974 1.48297 0
M  V30 1322 C 118.533 -1.69187 2.95954 0
M  V30 1323 H 119.726 0.115952 2.99676 0
M  V30 1324 H 117.279 0.0978939 1.55993 0
M  V30 1325 H 118.014 -2.34288 2.24231 0
M  V30 1326 H 117.799 -1.31989 3.69217 0
M  V30 1327 H 119.289 -2.28969 3.49232 0
M  V30 1328 N 119.726 -1.57421 0.075193 0
M  V30 1329 C 120.973 -1.93618 -0.593146 0
M  V30 1330 C 121.301 -0.955484 -1.69413 0
M  V30 1331 O 120.556 0.0283251 -1.9568 0
M  V30 1332 C 120.855 -3.36428 -1.20626 0
M  V30 1333 C 120.521 -4.50307 -0.231078 0
M  V30 1334 C 119.183 -4.81186 0.0371936 0
M  V30 1335 C 121.535 -5.19374 0.435888 0
M  V30 1336 C 118.863 -5.78466 0.979461 0
M  V30 1337 C 121.215 -6.17665 1.3665 0
M  V30 1338 C 119.879 -6.46958 1.6432 0
M  V30 1339 H 119.149 -0.708499 -0.217047 0
M  V30 1340 H 121.796 -1.90937 0.146793 0
M  V30 1341 H 120.101 -3.35592 -2.02201 0
M  V30 1342 H 121.798 -3.61727 -1.73073 0
M  V30 1343 H 118.388 -4.26227 -0.450357 0
M  V30 1344 H 122.572 -4.95711 0.241748 0
M  V30 1345 H 117.828 -5.99487 1.20106 0
M  V30 1346 H 122.002 -6.70284 1.88924 0
M  V30 1347 H 119.629 -7.2215 2.37494 0
M  V30 1348 N 121.204 0.198386 -1.56346 0
M  V30 1349 C 122.429 0.939682 -1.84891 0
M  V30 1350 C 122.854 1.76202 -0.658369 0
M  V30 1351 O 122.212 1.76993 0.392851 0
M  V30 1352 C 122.26 1.81428 -3.11635 0
M  V30 1353 O 121.364 2.91265 -2.91956 0
M  V30 1354 H 120.705 0.264807 -0.608912 0
M  V30 1355 H 123.235 0.204695 -2.03573 0
M  V30 1356 H 123.245 2.21958 -3.42343 0
M  V30 1357 H 121.92 1.21004 -3.97908 0
M  V30 1358 H 120.497 2.54514 -2.72538 0
M  V30 1359 N 122.682 1.50554 0.465978 0
M  V30 1360 C 123.592 1.72585 1.58907 0
M  V30 1361 C 124.608 0.60911 1.6299 0
M  V30 1362 O 125.784 0.88804 1.80765 0
M  V30 1363 C 122.849 1.81995 2.95091 0
M  V30 1364 C 121.91 3.05751 3.01355 0
M  V30 1365 C 121.143 3.14702 4.31043 0
M  V30 1366 O 121.366 2.30313 5.21835 0
M  V30 1367 O 120.3 4.07468 4.43005 0
M  V30 1368 H 124.126 2.67799 1.43239 0
M  V30 1369 H 121.711 1.34711 0.646013 0
M  V30 1370 H 123.593 1.90335 3.75966 0
M  V30 1371 H 122.268 0.899659 3.10947 0
M  V30 1372 H 121.175 3.02908 2.19539 0
M  V30 1373 H 122.508 3.97375 2.90437 0
M  V30 1374 N 124.16 -0.719506 1.40217 0
M  V30 1375 C 125.406 -1.48152 1.38488 0
M  V30 1376 C 125.739 -1.94195 -0.0141867 0
M  V30 1377 O 125.014 -1.67884 -0.982096 0
M  V30 1378 C 125.297 -2.71035 2.37091 0
M  V30 1379 C 125.15 -2.30912 3.86005 0
M  V30 1380 C 126.469 -3.73182 2.33288 0
M  V30 1381 H 123.588 -0.537395 0.504357 0
M  V30 1382 H 126.23 -0.821472 1.71324 0
M  V30 1383 H 124.38 -3.27352 2.0922 0
M  V30 1384 H 126.052 -1.80107 4.24687 0
M  V30 1385 H 124.295 -1.62958 4.02029 0
M  V30 1386 H 124.966 -3.18978 4.50508 0
M  V30 1387 H 127.442 -3.26485 2.57966 0
M  V30 1388 H 126.318 -4.56806 3.04334 0
M  V30 1389 H 126.579 -4.21202 1.34317 0
M  V30 1390 N 125.638 -1.25649 -0.95132 0
M  V30 1391 C 126.601 -1.06399 -2.03007 0
M  V30 1392 C 127.601 -0.0156794 -1.60792 0
M  V30 1393 O 128.791 -0.25817 -1.72276 0
M  V30 1394 C 125.923 -0.616184 -3.35285 0
M  V30 1395 H 127.116 -2.02164 -2.21517 0
M  V30 1396 H 124.669 -1.08103 -1.12887 0
M  V30 1397 H 125.404 0.343917 -3.22471 0
M  V30 1398 H 125.189 -1.37301 -3.67275 0
M  V30 1399 H 126.679 -0.503032 -4.14559 0
M  V30 1400 N 127.117 1.15442 -1.07289 0
M  V30 1401 C 128.363 1.86489 -0.796846 0
M  V30 1402 C 128.696 1.82078 0.675371 0
M  V30 1403 O 127.971 1.24346 1.4956 0
M  V30 1404 C 128.254 3.35626 -1.30489 0
M  V30 1405 C 128.107 3.48673 -2.84161 0
M  V30 1406 C 129.426 4.30357 -0.920907 0
M  V30 1407 H 126.545 0.677144 -0.290939 0
M  V30 1408 H 129.187 1.35633 -1.33056 0
M  V30 1409 H 127.337 3.79068 -0.850883 0
M  V30 1410 H 129.009 3.14099 -3.37846 0
M  V30 1411 H 127.252 2.90253 -3.22391 0
M  V30 1412 H 127.923 4.53453 -3.14777 0
M  V30 1413 H 130.399 3.94871 -1.3121 0
M  V30 1414 H 129.275 5.33193 -1.30372 0
M  V30 1415 H 129.536 4.4176 0.173226 0
M  V30 1416 N 128.595 0.856903 1.32268 0
M  V30 1417 C 129.841 0.462069 1.97466 0
M  V30 1418 C 130.174 -0.980298 1.67642 0
M  V30 1419 O 129.449 -1.68824 0.965858 0
M  V30 1420 C 129.732 0.704336 3.53145 0
M  V30 1421 C 129.585 2.19529 3.9259 0
M  V30 1422 C 130.904 0.1622 4.39801 0
M  V30 1423 H 128.023 0.169357 0.717278 0
M  V30 1424 H 130.665 1.07574 1.56614 0
M  V30 1425 H 128.815 0.181999 3.88073 0
M  V30 1426 H 130.487 2.78387 3.67829 0
M  V30 1427 H 128.73 2.67292 3.41668 0
M  V30 1428 H 129.401 2.31549 5.01088 0
M  V30 1429 H 131.877 0.608905 4.11621 0
M  V30 1430 H 130.753 0.361265 5.4771 0
M  V30 1431 H 131.014 -0.935158 4.32096 0
M  V30 1432 N 130.073 -1.45103 0.615059 0
M  V30 1433 C 131.02 -2.30586 -0.0993978 0
M  V30 1434 C 131.99 -1.42544 -0.852669 0
M  V30 1435 O 133.175 -1.71465 -0.836917 0
M  V30 1436 C 130.315 -3.27572 -1.08583 0
M  V30 1437 C 129.428 -4.30717 -0.332656 0
M  V30 1438 C 128.563 -5.14807 -1.30947 0
M  V30 1439 C 127.602 -6.09673 -0.544538 0
M  V30 1440 N 126.739 -6.86517 -1.47101 0
M  V30 1441 H 131.579 -2.91144 0.635542 0
M  V30 1442 H 129.116 -1.4346 0.325206 0
M  V30 1443 H 131.074 -3.82276 -1.67095 0
M  V30 1444 H 129.704 -2.68751 -1.78809 0
M  V30 1445 H 128.756 -3.78615 0.368107 0
M  V30 1446 H 130.068 -4.98102 0.263842 0
M  V30 1447 H 129.222 -5.73948 -1.96643 0
M  V30 1448 H 127.961 -4.47458 -1.9399 0
M  V30 1449 H 126.966 -5.49656 0.126003 0
M  V30 1450 H 128.191 -6.79052 0.080947 0
M  V30 1451 H 126.137 -6.21851 -2.08895 0
M  V30 1452 H 126.054 -7.50281 -0.928137 0
M  V30 1453 H 127.322 -7.50194 -2.11731 0
M  V30 1454 N 131.551 -0.354651 -1.53558 0
M  V30 1455 C 132.484 0.540273 -2.21712 0
M  V30 1456 C 133.462 1.09161 -1.2051 0
M  V30 1457 O 134.646 1.14979 -1.49372 0
M  V30 1458 C 131.773 1.74435 -2.90328 0
M  V30 1459 C 130.819 1.32146 -4.05512 0
M  V30 1460 S 131.652 0.331924 -5.3447 0
M  V30 1461 C 132.808 1.54258 -6.06593 0
M  V30 1462 H 133.041 -0.0385776 -2.97275 0
M  V30 1463 H 130.574 -0.138736 -1.53775 0
M  V30 1464 H 132.532 2.43507 -3.30476 0
M  V30 1465 H 131.193 2.29444 -2.1451 0
M  V30 1466 H 130.386 2.21952 -4.52497 0
M  V30 1467 H 129.988 0.710091 -3.67197 0
M  V30 1468 H 132.28 2.47534 -6.30661 0
M  V30 1469 H 133.223 1.11431 -6.99277 0
M  V30 1470 H 133.631 1.74367 -5.36895 0
M  V30 1471 N 133.029 1.57378 -0.0835403 0
M  V30 1472 C 133.976 2.13384 0.879539 0
M  V30 1473 C 134.946 1.04936 1.28754 0
M  V30 1474 O 136.131 1.32662 1.37133 0
M  V30 1475 C 133.271 2.70932 2.13752 0
M  V30 1476 C 132.384 3.93575 1.7811 0
M  V30 1477 C 131.519 4.39326 2.98607 0
M  V30 1478 C 130.558 5.54587 2.59037 0
M  V30 1479 N 129.695 5.95243 3.72331 0
M  V30 1480 H 134.535 2.9537 0.395076 0
M  V30 1481 H 132.072 1.45953 0.183349 0
M  V30 1482 H 134.03 3.02411 2.87408 0
M  V30 1483 H 132.66 1.91693 2.59718 0
M  V30 1484 H 131.712 3.68483 0.94469 0
M  V30 1485 H 133.024 4.77258 1.45005 0
M  V30 1486 H 132.178 4.72528 3.80529 0
M  V30 1487 H 130.917 3.5452 3.34913 0
M  V30 1488 H 129.922 5.21024 1.75539 0
M  V30 1489 H 131.147 6.41133 2.23887 0
M  V30 1490 H 129.093 5.13385 4.08378 0
M  V30 1491 H 129.01 6.73694 3.43034 0
M  V30 1492 H 130.278 6.33072 4.54797 0
M  V30 1493 N 134.507 -0.190092 1.56449 0
M  V30 1494 C 135.439 -1.25973 1.91477 0
M  V30 1495 C 136.452 -1.41452 0.805931 0
M  V30 1496 O 137.641 -1.41789 1.08435 0
M  V30 1497 C 134.741 -2.63117 2.13594 0
M  V30 1498 C 133.914 -2.69182 3.4476 0
M  V30 1499 C 132.973 -3.87557 3.5593 0
M  V30 1500 O 131.999 -3.74427 4.28711 0
M  V30 1501 N 133.201 -5.03224 2.89388 0
M  V30 1502 H 135.966 -0.962394 2.83828 0
M  V30 1503 H 133.527 -0.379981 1.57378 0
M  V30 1504 H 135.519 -3.40742 2.1835 0
M  V30 1505 H 134.089 -2.85319 1.27719 0
M  V30 1506 H 133.309 -1.77793 3.51828 0
M  V30 1507 H 134.597 -2.70229 4.31107 0
M  V30 1508 H 133.995 -5.16791 2.30094 0
M  V30 1509 H 132.552 -5.78778 2.99764 0
M  V30 1510 N 135.985 -1.50799 -0.457987 0
M  V30 1511 C 137.213 -1.66218 -1.23203 0
M  V30 1512 C 137.628 -0.350894 -1.85511 0
M  V30 1513 O 136.985 0.668546 -1.69814 0
M  V30 1514 C 137.036 -2.76291 -2.33121 0
M  V30 1515 O 136.757 -4.02338 -1.73366 0
M  V30 1516 C 138.258 -3.028 -3.2377 0
M  V30 1517 H 135.478 -0.558361 -0.372121 0
M  V30 1518 H 138.022 -1.97099 -0.545179 0
M  V30 1519 H 136.177 -2.48068 -2.97558 0
M  V30 1520 H 136.591 -4.63312 -2.4585 0
M  V30 1521 H 138.065 -3.8345 -3.97077 0
M  V30 1522 H 138.542 -2.14385 -3.83322 0
M  V30 1523 H 139.148 -3.32604 -2.65056 0
M  V30 1524 N 137.463 0.71206 -1.40597 0
M  V30 1525 C 138.711 1.46907 -1.38791 0
M  V30 1526 C 139.032 1.94998 0.00780391 0
M  V30 1527 O 138.302 1.70587 0.963174 0
M  V30 1528 H 136.882 0.545043 -0.51082 0
M  V30 1529 H 139.544 0.843882 -1.75683 0
M  V30 1530 H 138.64 2.34021 -2.06496 0
M  V30 1531 N 138.941 1.26152 0.944643 0
M  V30 1532 C 139.873 1.03199 2.04652 0
M  V30 1533 C 140.886 -0.00642356 1.62799 0
M  V30 1534 O 142.075 0.233263 1.76969 0
M  V30 1535 C 139.175 0.540111 3.34568 0
M  V30 1536 C 138.348 1.64697 4.05208 0
M  V30 1537 C 137.407 1.15374 5.13396 0
M  V30 1538 O 136.433 1.85013 5.38293 0
M  V30 1539 N 137.635 0.00031529 5.805 0
M  V30 1540 H 140.4 1.9808 2.2491 0
M  V30 1541 H 137.961 1.17491 1.11389 0
M  V30 1542 H 139.953 0.194401 4.04233 0
M  V30 1543 H 138.523 -0.315021 3.11009 0
M  V30 1544 H 137.743 2.16379 3.29506 0
M  V30 1545 H 139.031 2.3903 4.49157 0
M  V30 1546 H 138.429 -0.581336 5.62705 0
M  V30 1547 H 136.986 -0.286346 6.51171 0
M  V30 1548 N 140.419 -1.14872 1.07899 0
M  V30 1549 C 141.665 -1.86064 0.806725 0
M  V30 1550 C 141.998 -1.82434 -0.665706 0
M  V30 1551 O 141.273 -1.25138 -1.48899 0
M  V30 1552 C 141.556 -3.34929 1.32267 0
M  V30 1553 C 141.409 -3.47161 2.86006 0
M  V30 1554 C 142.728 -4.29863 0.943717 0
M  V30 1555 H 139.847 -0.675591 0.294526 0
M  V30 1556 H 142.489 -1.34925 1.33773 0
M  V30 1557 H 140.639 -3.78611 0.870974 0
M  V30 1558 H 142.311 -3.12302 3.39507 0
M  V30 1559 H 140.554 -2.88539 3.23925 0
M  V30 1560 H 141.225 -4.51777 3.17177 0
M  V30 1561 H 143.701 -3.9417 1.33302 0
M  V30 1562 H 142.577 -5.32494 1.33198 0
M  V30 1563 H 142.838 -4.41846 -0.149796 0
M  V30 1564 N 141.898 -0.863906 -1.31812 0
M  V30 1565 C 143.128 -0.485406 -2.00817 0
M  V30 1566 C 143.536 0.925007 -1.65046 0
M  V30 1567 O 142.879 1.61653 -0.872574 0
M  V30 1568 C 142.941 -0.555589 -3.55181 0
M  V30 1569 C 142.605 -1.92654 -4.14407 0
M  V30 1570 C 143.602 -2.89324 -4.31958 0
M  V30 1571 C 141.287 -2.2262 -4.50273 0
M  V30 1572 C 143.281 -4.14108 -4.84555 0
M  V30 1573 C 140.968 -3.47654 -5.02573 0
M  V30 1574 C 141.966 -4.43214 -5.19664 0
M  V30 1575 O 141.654 -5.66033 -5.70843 0
M  V30 1576 H 141.386 -0.188224 -0.649267 0
M  V30 1577 H 143.94 -1.16514 -1.69156 0
M  V30 1578 H 142.17 0.181037 -3.86276 0
M  V30 1579 H 143.859 -0.19138 -4.05449 0
M  V30 1580 H 144.625 -2.6748 -4.04573 0
M  V30 1581 H 140.504 -1.4902 -4.3625 0
M  V30 1582 H 144.048 -4.88703 -4.9781 0
M  V30 1583 H 139.945 -3.69345 -5.29391 0
M  V30 1584 H 140.713 -5.6812 -5.89222 0
M  V30 1585 N 143.376 1.44774 -0.622745 0
M  V30 1586 C 144.339 2.29069 0.0774015 0
M  V30 1587 C 145.339 1.4059 0.780461 0
M  V30 1588 O 146.529 1.62551 0.626322 0
M  V30 1589 C 143.661 3.21974 1.12006 0
M  V30 1590 H 144.854 2.92459 -0.663901 0
M  V30 1591 H 142.407 1.51548 -0.382486 0
M  V30 1592 H 143.142 2.63417 1.89162 0
M  V30 1593 H 142.927 3.87168 0.619951 0
M  V30 1594 H 144.417 3.85318 1.60995 0
M  V30 1595 N 144.854 0.36279 1.53368 0
M  V30 1596 C 145.787 -0.528507 2.21996 0
M  V30 1597 C 146.765 -1.0852 1.21087 0
M  V30 1598 O 147.949 -1.14186 1.4998 0
M  V30 1599 C 145.076 -1.72893 2.91249 0
M  V30 1600 C 144.122 -1.29994 4.06207 0
M  V30 1601 S 144.955 -0.303575 5.34639 0
M  V30 1602 C 146.111 -1.51039 6.07403 0
M  V30 1603 H 146.344 0.0543423 2.9725 0
M  V30 1604 H 143.877 0.146889 1.537 0
M  V30 1605 H 145.835 -2.41751 3.31763 0
M  V30 1606 H 144.496 -2.28303 2.15724 0
M  V30 1607 H 143.689 -2.19549 4.53667 0
M  V30 1608 H 143.291 -0.690608 3.67569 0
M  V30 1609 H 145.583 -2.44186 6.31965 0
M  V30 1610 H 146.526 -1.07721 6.99858 0
M  V30 1611 H 146.934 -1.71518 5.37812 0
M  V30 1612 N 146.332 -1.57332 0.0918853 0
M  V30 1613 C 147.279 -2.13847 -0.868211 0
M  V30 1614 C 148.249 -1.05618 -1.28196 0
M  V30 1615 O 149.434 -1.33387 -1.36427 0
M  V30 1616 C 146.574 -2.72062 -2.12312 0
M  V30 1617 C 145.687 -3.94514 -1.7602 0
M  V30 1618 C 144.822 -4.40903 -2.96273 0
M  V30 1619 C 143.861 -5.55953 -2.56092 0
M  V30 1620 N 142.998 -5.97209 -3.69169 0
M  V30 1621 H 147.838 -2.95575 -0.379406 0
M  V30 1622 H 145.375 -1.46048 -0.175606 0
M  V30 1623 H 147.333 -3.03931 -2.858 0
M  V30 1624 H 145.963 -1.93068 -2.58698 0
M  V30 1625 H 145.015 -3.68979 -0.925135 0
M  V30 1626 H 146.327 -4.7802 -1.42472 0
M  V30 1627 H 145.481 -4.74539 -3.78018 0
M  V30 1628 H 144.22 -3.56291 -3.33029 0
M  V30 1629 H 143.225 -5.21948 -1.72773 0
M  V30 1630 H 144.45 -6.42311 -2.20484 0
M  V30 1631 H 142.396 -5.15543 -4.05649 0
M  V30 1632 H 142.313 -6.75504 -3.39456 0
M  V30 1633 H 143.581 -6.35475 -4.51434 0
M  V30 1634 N 147.81 0.181792 -1.56548 0
M  V30 1635 C 149.059 0.898348 -1.8059 0
M  V30 1636 C 149.372 1.83862 -0.667379 0
M  V30 1637 O 150.578 2.59678 -0.792446 0
M  V30 1638 C 149.034 1.64791 -3.19956 0
M  V30 1639 C 148.642 0.751789 -4.41647 0
M  V30 1640 C 150.386 2.35331 -3.53298 0
M  V30 1641 C 148.293 1.50098 -5.72035 0
M  V30 1642 H 147.223 0.339194 -0.673397 0
M  V30 1643 H 149.874 0.151413 -1.82874 0
M  V30 1644 H 148.256 2.43921 -3.11959 0
M  V30 1645 H 149.43 -0.0018076 -4.608 0
M  V30 1646 H 147.745 0.156562 -4.16106 0
M  V30 1647 H 150.342 2.91958 -4.47956 0
M  V30 1648 H 150.685 3.10164 -2.77676 0
M  V30 1649 H 151.218 1.63154 -3.62803 0
M  V30 1650 H 147.957 0.795175 -6.50659 0
M  V30 1651 H 147.477 2.22817 -5.56878 0
M  V30 1652 H 149.156 2.05125 -6.13622 0
M  V30 1653 N 149.288 1.51039 0.449983 0
M  V30 1654 C 150.221 1.66105 1.56474 0
M  V30 1655 C 151.199 0.508776 1.54435 0
M  V30 1656 O 152.383 0.731005 1.73749 0
M  V30 1657 C 149.51 1.66304 2.9506 0
M  V30 1658 C 148.556 2.87346 3.15174 0
M  V30 1659 S 149.389 4.4835 2.92818 0
M  V30 1660 C 150.545 4.51274 4.33708 0
M  V30 1661 H 150.778 2.60397 1.43459 0
M  V30 1662 H 148.311 1.40565 0.638805 0
M  V30 1663 H 150.269 1.67103 3.74949 0
M  V30 1664 H 148.93 0.732108 3.05449 0
M  V30 1665 H 148.123 2.83849 4.16468 0
M  V30 1666 H 147.725 2.84223 2.43091 0
M  V30 1667 H 150.017 4.26136 5.26701 0
M  V30 1668 H 150.96 5.53017 4.42242 0
M  V30 1669 H 151.368 3.80738 4.16772 0
M  V30 1670 N 150.766 -0.704594 1.40972 0
M  V30 1671 C 151.714 -1.83994 1.42299 0
M  V30 1672 C 152.708 -1.66684 0.302111 0
M  V30 1673 O 153.914 -1.73655 0.473697 0
M  V30 1674 H 150.289 -0.606171 0.44504 0
M  V30 1675 H 152.26 -1.79992 2.38003 0
M  V30 1676 C 151.009 -3.21946 1.31323 0
M  V30 1677 H 150.332 -3.35878 2.16855 0
M  V30 1678 H 151.772 -4.01491 1.36311 0
M  V30 1679 C 150.231 -3.36891 0.0245977 0
M  V30 1680 O 150.761 -3.90687 -0.934153 0
M  V30 1681 N 148.967 -2.90559 -0.0485243 0
M  V30 1682 H 148.514 -2.46968 0.732419 0
M  V30 1683 H 148.472 -3.00937 -0.910171 0
M  V30 1684 N 152.244 -1.26651 -0.937939 0
M  V30 1685 C 153.191 -1.0849 -2.03712 0
M  V30 1686 C 154.161 0.011033 -1.66096 0
M  V30 1687 O 155.346 -0.149353 -1.90215 0
M  V30 1688 C 152.486 -0.72735 -3.37348 0
M  V30 1689 C 151.599 -1.89986 -3.87981 0
M  V30 1690 C 150.734 -1.48513 -5.10017 0
M  V30 1691 C 149.773 -2.62575 -5.5292 0
M  V30 1692 N 148.91 -2.21762 -6.66158 0
M  V30 1693 H 153.75 -2.02551 -2.18579 0
M  V30 1694 H 151.287 -1.00844 -1.07093 0
M  V30 1695 H 153.245 -0.50092 -4.14182 0
M  V30 1696 H 151.875 0.176298 -3.22318 0
M  V30 1697 H 150.927 -2.23913 -3.07518 0
M  V30 1698 H 152.239 -2.75586 -4.15757 0
M  V30 1699 H 151.393 -1.21934 -5.94321 0
M  V30 1700 H 150.132 -0.60009 -4.83994 0
M  V30 1701 H 149.137 -2.8988 -4.67172 0
M  V30 1702 H 150.362 -3.51685 -5.80943 0
M  V30 1703 H 148.308 -1.35696 -6.41812 0
M  V30 1704 H 148.225 -3.00903 -6.93537 0
M  V30 1705 H 149.493 -1.98403 -7.53828 0
M  V30 1706 N 153.722 1.14298 -1.08507 0
M  V30 1707 C 154.968 1.85854 -0.826438 0
M  V30 1708 C 155.323 1.81413 0.640878 0
M  V30 1709 O 154.616 1.23463 1.46518 0
M  V30 1710 C 154.81 3.33547 -1.28379 0
M  V30 1711 C 154.639 3.52369 -2.79403 0
M  V30 1712 C 153.409 3.67159 -3.47164 0
M  V30 1713 C 155.607 3.49203 -3.77573 0
M  V30 1714 N 153.589 3.74149 -4.86709 0
M  V30 1715 C 154.96 3.6245 -5.03021 0
M  V30 1716 C 157.015 3.32547 -3.70563 0
M  V30 1717 C 155.718 3.60761 -6.2229 0
M  V30 1718 C 157.744 3.32162 -4.89308 0
M  V30 1719 C 157.106 3.45949 -6.13595 0
M  V30 1720 H 153.205 0.696705 -0.355143 0
M  V30 1721 H 155.789 1.36981 -1.38362 0
M  V30 1722 H 153.96 3.81008 -0.754166 0
M  V30 1723 H 155.692 3.92867 -0.971469 0
M  V30 1724 H 152.447 3.68433 -2.9758 0
M  V30 1725 H 152.871 3.81359 -5.5937 0
M  V30 1726 H 157.513 3.20797 -2.75407 0
M  V30 1727 H 155.231 3.71286 -7.17755 0
M  V30 1728 H 158.817 3.20485 -4.85573 0
M  V30 1729 H 157.697 3.456 -7.03939 0
M  V30 1730 N 155.201 0.870884 1.31352 0
M  V30 1731 C 156.478 0.402907 1.91405 0
M  V30 1732 C 156.858 -1.11512 1.79244 0
M  V30 1733 O 156.206 -1.94411 1.2007 0
M  V30 1734 C 156.416 0.885301 3.37585 0
M  V30 1735 C 157.764 0.911971 4.14691 0
M  V30 1736 O 158.788 0.831016 3.46371 0
M  V30 1737 O 157.647 1.02927 5.3672 0
M  V30 1738 H 154.741 0.120698 0.818145 0
M  V30 1739 H 157.287 0.958857 1.40014 0
M  V30 1740 H 156.059 1.92889 3.40455 0
M  V30 1741 H 155.682 0.307714 3.96407 0
M  V30 1742 N 156.679 -1.44442 0.630414 0
M  V30 1743 C 157.612 -2.27862 -0.124247 0
M  V30 1744 C 158.59 -1.38495 -0.851931 0
M  V30 1745 O 159.774 -1.67935 -0.856166 0
M  V30 1746 C 156.901 -3.17407 -1.18197 0
M  V30 1747 C 155.947 -4.22875 -0.554892 0
M  V30 1748 S 156.78 -5.31485 0.654489 0
M  V30 1749 C 157.936 -6.246 -0.40326 0
M  V30 1750 H 158.169 -2.91519 0.583435 0
M  V30 1751 H 155.702 -1.48618 0.418565 0
M  V30 1752 H 157.66 -3.69549 -1.78728 0
M  V30 1753 H 156.321 -2.52971 -1.86184 0
M  V30 1754 H 155.514 -4.85542 -1.35148 0
M  V30 1755 H 155.116 -3.73992 -0.0242105 0
M  V30 1756 H 157.408 -6.65375 -1.27602 0
M  V30 1757 H 158.351 -7.07851 0.187813 0
M  V30 1758 H 158.759 -5.59775 -0.728837 0
M  V30 1759 N 158.157 -0.370918 -1.53173 0
M  V30 1760 C 159.087 0.464847 -2.28826 0
M  V30 1761 C 160.068 1.07936 -1.31468 0
M  V30 1762 O 161.253 1.0956 -1.60344 0
M  V30 1763 C 158.383 1.60196 -3.08147 0
M  V30 1764 C 157.337 1.11443 -4.13237 0
M  V30 1765 C 156.663 2.3422 -4.80672 0
M  V30 1766 C 157.963 0.195384 -5.21934 0
M  V30 1767 H 159.657 -0.166329 -2.98938 0
M  V30 1768 H 157.203 -0.0814359 -1.4377 0
M  V30 1769 H 159.156 2.19332 -3.59822 0
M  V30 1770 H 157.88 2.26045 -2.35735 0
M  V30 1771 H 156.539 0.545727 -3.62515 0
M  V30 1772 H 156.187 2.98537 -4.04827 0
M  V30 1773 H 155.887 2.02269 -5.51689 0
M  V30 1774 H 157.411 2.94032 -5.35143 0
M  V30 1775 H 158.825 0.694375 -5.69079 0
M  V30 1776 H 157.222 -0.0335027 -6.00091 0
M  V30 1777 H 158.292 -0.760961 -4.78892 0
M  V30 1778 N 159.635 1.57281 -0.100228 0
M  V30 1779 C 160.582 2.14305 0.856858 0
M  V30 1780 C 161.552 1.06296 1.27634 0
M  V30 1781 O 162.737 1.34109 1.35718 0
M  V30 1782 C 159.877 2.73184 2.10866 0
M  V30 1783 C 158.99 3.95442 1.73925 0
M  V30 1784 C 158.125 4.42468 2.93931 0
M  V30 1785 C 157.164 5.57303 2.5314 0
M  V30 1786 N 156.301 5.99158 3.65997 0
M  V30 1787 H 161.141 2.95772 0.363726 0
M  V30 1788 H 158.678 1.46139 0.167858 0
M  V30 1789 H 160.636 3.05442 2.84185 0
M  V30 1790 H 159.266 1.94437 2.57671 0
M  V30 1791 H 158.318 3.69464 0.905554 0
M  V30 1792 H 159.63 4.78769 1.39935 0
M  V30 1793 H 158.784 4.76537 3.75496 0
M  V30 1794 H 157.523 3.58052 3.31134 0
M  V30 1795 H 156.528 5.22857 1.70003 0
M  V30 1796 H 157.753 6.43471 2.17075 0
M  V30 1797 H 155.699 5.17687 4.02909 0
M  V30 1798 H 155.616 6.77295 3.35869 0
M  V30 1799 H 156.884 6.3786 4.48057 0
M  V30 1800 N 161.113 -0.173488 1.56642 0
M  V30 1801 C 162.529 -0.525174 1.50712 0
M  V30 1802 C 162.729 -1.8476 0.804107 0
M  V30 1803 O 161.785 -2.49869 0.363574 0
M  V30 1804 C 163.098 -0.559937 2.95441 0
M  V30 1805 C 164.646 -0.647288 3.06234 0
M  V30 1806 C 165.121 -0.712963 4.52417 0
M  V30 1807 N 166.612 -0.775911 4.56655 0
M  V30 1808 C 167.347 -0.847264 5.67106 0
M  V30 1809 N 166.843 -0.879585 6.87194 0
M  V30 1810 N 168.636 -0.886117 5.55071 0
M  V30 1811 H 160.787 0.693681 2.00753 0
M  V30 1812 H 163.05 0.249841 0.914485 0
M  V30 1813 H 162.756 0.343049 3.50023 0
M  V30 1814 H 162.63 -1.40718 3.49969 0
M  V30 1815 H 165.017 -1.5407 2.51687 0
M  V30 1816 H 165.098 0.226586 2.54794 0
M  V30 1817 H 164.742 0.176183 5.07594 0
M  V30 1818 H 164.672 -1.60295 5.0161 0
M  V30 1819 H 167.163 -0.759304 3.70193 0
M  V30 1820 H 167.476 -0.935144 7.67121 0
M  V30 1821 H 165.821 -0.847898 6.89808 0
M  V30 1822 H 169.012 -0.857853 4.60172 0
M  V30 1823 H 169.185 -0.938263 6.41171 0
M  V30 1824 N 162.591 -1.51276 -0.441967 0
M  V30 1825 C 163.839 -1.63392 -1.18943 0
M  V30 1826 C 164.16 -0.350159 -1.9183 0
M  V30 1827 O 163.43 0.633784 -1.85364 0
M  V30 1828 H 162.01 -0.602164 -0.442049 0
M  V30 1829 H 164.672 -1.88186 -0.507165 0
M  V30 1830 H 163.768 -2.45934 -1.92154 0
M  V30 1831 N 164.069 0.697108 -1.41344 0
M  V30 1832 C 164.979 1.84088 -1.45427 0
M  V30 1833 C 165.995 1.70545 -0.34501 0
M  V30 1834 O 167.171 1.92488 -0.592492 0
M  V30 1835 C 164.236 3.20056 -1.33286 0
M  V30 1836 C 163.297 3.45718 -2.54514 0
M  V30 1837 C 162.53 4.75199 -2.42944 0
M  V30 1838 O 162.753 5.51579 -1.45318 0
M  V30 1839 O 161.687 5.0161 -3.32672 0
M  V30 1840 H 165.513 1.836 -2.41919 0
M  V30 1841 H 163.098 0.849966 -1.22866 0
M  V30 1842 H 164.98 4.01236 -1.28794 0
M  V30 1843 H 163.655 3.2123 -0.39909 0
M  V30 1844 H 162.562 2.64474 -2.64583 0
M  V30 1845 H 163.895 3.49356 -3.46715 0
M  V30 1846 N 165.547 1.27147 0.931209 0
M  V30 1847 C 166.793 1.13446 1.68101 0
M  V30 1848 C 167.126 -0.319628 1.91552 0
M  V30 1849 O 166.401 -1.23407 1.50336 0
M  V30 1850 C 166.684 1.91482 3.0497 0
M  V30 1851 C 166.537 3.44855 2.88782 0
M  V30 1852 C 167.856 1.71651 4.05246 0
M  V30 1853 H 164.975 0.413498 0.610072 0
M  V30 1854 H 167.617 1.56261 1.08086 0
M  V30 1855 H 165.767 1.55095 3.56199 0
M  V30 1856 H 167.439 3.9105 2.44698 0
M  V30 1857 H 165.682 3.71373 2.24198 0
M  V30 1858 H 166.353 3.94694 3.85902 0
M  V30 1859 H 168.829 2.0337 3.63015 0
M  V30 1860 H 167.705 2.28651 4.99009 0
M  V30 1861 H 167.966 0.663555 4.37092 0
M  V30 1862 N 167.025 -1.13721 1.09112 0
M  V30 1863 C 168.25 -1.89314 0.847053 0
M  V30 1864 C 168.675 -1.78416 -0.595774 0
M  V30 1865 O 168.033 -1.12942 -1.41823 0
M  V30 1866 C 168.081 -3.3701 1.28284 0
M  V30 1867 O 167.185 -4.10054 0.439267 0
M  V30 1868 H 166.526 -0.588745 0.307044 0
M  V30 1869 H 169.056 -1.43902 1.45442 0
M  V30 1870 H 169.066 -3.87834 1.26683 0
M  V30 1871 H 167.741 -3.4426 2.33363 0
M  V30 1872 H 166.318 -3.69266 0.519312 0
M  V30 1873 N 168.503 -0.877838 -1.30888 0
M  V30 1874 C 169.743 -0.499301 -1.98208 0
M  V30 1875 C 170.107 0.932649 -1.67826 0
M  V30 1876 O 171.308 1.41694 -2.28421 0
M  V30 1877 C 169.579 -0.758221 -3.49265 0
M  V30 1878 S 171.138 -0.480719 -4.36159 0
M  V30 1879 H 167.956 -0.186062 -0.686223 0
M  V30 1880 H 170.558 -1.13556 -1.59139 0
M  V30 1881 H 169.262 -1.79903 -3.68867 0
M  V30 1882 H 168.793 -0.109247 -3.93248 0
M  V30 1883 H 170.808 0.683698 -4.91467 0
M  V30 1884 N 169.982 1.44106 -0.638065 0
M  V30 1885 C 171.229 2.01978 -0.14533 0
M  V30 1886 C 171.557 1.50234 1.23532 0
M  V30 1887 O 170.812 0.679548 1.83523 0
M  V30 1888 C 171.111 3.5729 -0.0887327 0
M  V30 1889 C 170.777 4.28317 -1.40909 0
M  V30 1890 C 169.439 4.47437 -1.77069 0
M  V30 1891 C 171.791 4.6867 -2.28031 0
M  V30 1892 C 169.119 5.04171 -3.00047 0
M  V30 1893 C 171.471 5.26766 -3.50286 0
M  V30 1894 C 170.135 5.44104 -3.86661 0
M  V30 1895 H 169.405 0.739089 -0.0531801 0
M  V30 1896 H 172.052 1.72781 -0.825761 0
M  V30 1897 H 170.357 3.8594 0.675095 0
M  V30 1898 H 172.054 3.99807 0.309145 0
M  V30 1899 H 168.644 4.1377 -1.1177 0
M  V30 1900 H 172.828 4.53604 -2.01388 0
M  V30 1901 H 168.084 5.15782 -3.28298 0
M  V30 1902 H 172.258 5.56983 -4.18023 0
M  V30 1903 H 169.885 5.87832 -4.82034 0
M  V30 1904 N 171.46 0.379036 1.52974 0
M  V30 1905 C 172.876 0.0285448 1.59574 0
M  V30 1906 C 173.076 -1.45542 1.39355 0
M  V30 1907 O 172.132 -2.2187 1.20541 0
M  V30 1908 C 173.445 0.496535 2.96572 0
M  V30 1909 C 174.993 0.451909 3.0972 0
M  V30 1910 C 175.468 0.895924 4.49152 0
M  V30 1911 N 176.959 0.851522 4.55306 0
M  V30 1912 C 177.694 1.16661 5.61407 0
M  V30 1913 N 177.19 1.55166 6.752 0
M  V30 1914 N 178.983 1.08853 5.51459 0
M  V30 1915 H 171.134 1.34525 1.64367 0
M  V30 1916 H 173.397 0.550733 0.771619 0
M  V30 1917 H 173.103 1.53258 3.16552 0
M  V30 1918 H 172.977 -0.109802 3.7704 0
M  V30 1919 H 175.364 -0.575029 2.89443 0
M  V30 1920 H 175.445 1.09392 2.3123 0
M  V30 1921 H 175.089 1.92104 4.70168 0
M  V30 1922 H 175.019 0.23103 5.26093 0
M  V30 1923 H 177.51 0.568038 3.73606 0
M  V30 1924 H 177.823 1.776 7.52116 0
M  V30 1925 H 176.168 1.59044 6.76557 0
M  V30 1926 H 179.359 0.786803 4.6144 0
M  V30 1927 H 179.532 1.33742 6.34048 0
M  V30 1928 N 172.938 -1.57226 0.108567 0
M  V30 1929 C 173.848 -2.18292 -0.859401 0
M  V30 1930 C 174.864 -1.15612 -1.30038 0
M  V30 1931 O 176.04 -1.48039 -1.36552 0
M  V30 1932 C 173.105 -2.762 -2.09558 0
M  V30 1933 C 172.166 -3.93881 -1.70752 0
M  V30 1934 C 171.399 -4.49018 -2.88477 0
M  V30 1935 O 171.622 -4.03068 -4.036 0
M  V30 1936 O 170.556 -5.39852 -2.66164 0
M  V30 1937 H 174.382 -3.01441 -0.369769 0
M  V30 1938 H 171.967 -1.48945 -0.1165 0
M  V30 1939 H 173.849 -3.13156 -2.81978 0
M  V30 1940 H 172.524 -1.96089 -2.57548 0
M  V30 1941 H 171.431 -3.61713 -0.954714 0
M  V30 1942 H 172.764 -4.75396 -1.27513 0
M  V30 1943 N 174.416 0.165178 -1.56732 0
M  V30 1944 C 175.326 1.22423 -2.00125 0
M  V30 1945 C 176.342 1.48084 -0.913619 0
M  V30 1946 O 177.518 1.60112 -1.22172 0
M  V30 1947 C 174.583 2.54197 -2.35764 0
M  V30 1948 C 173.644 2.36343 -3.58386 0
M  V30 1949 C 172.877 3.61834 -3.92316 0
M  V30 1950 O 173.1 4.67267 -3.27135 0
M  V30 1951 O 172.034 3.55579 -4.85641 0
M  V30 1952 H 175.86 0.885886 -2.90492 0
M  V30 1953 H 173.445 0.372518 -1.44681 0
M  V30 1954 H 175.327 3.3192 -2.59629 0
M  V30 1955 H 174.002 2.87598 -1.48557 0
M  V30 1956 H 172.909 1.56632 -3.39731 0
M  V30 1957 H 174.242 2.07865 -4.46154 0
M  V30 1958 N 175.894 1.51508 0.433938 0
M  V30 1959 C 177.31 1.39759 0.770682 0
M  V30 1960 C 177.51 0.482594 1.95636 0
M  V30 1961 O 176.566 -0.0609691 2.52426 0
M  V30 1962 C 177.879 2.81851 1.04787 0
M  V30 1963 C 179.427 2.91025 1.1521 0
M  V30 1964 C 179.902 4.34032 1.46219 0
M  V30 1965 N 181.393 4.37154 1.53136 0
M  V30 1966 C 182.128 5.4484 1.78709 0
M  V30 1967 N 181.624 6.62682 2.02051 0
M  V30 1968 N 183.417 5.32324 1.80519 0
M  V30 1969 H 175.568 2.09548 -0.346892 0
M  V30 1970 H 177.831 0.943446 -0.0928074 0
M  V30 1971 H 177.537 3.50815 0.249304 0
M  V30 1972 H 177.411 3.21386 1.97461 0
M  V30 1973 H 179.798 2.22257 1.94128 0
M  V30 1974 H 179.879 2.54983 0.204281 0
M  V30 1975 H 179.523 5.03351 0.678274 0
M  V30 1976 H 179.453 4.6759 2.42212 0
M  V30 1977 H 181.944 3.52197 1.36987 0
M  V30 1978 H 182.257 7.40543 2.20943 0
M  V30 1979 H 180.602 6.65791 1.99366 0
M  V30 1980 H 183.793 4.39246 1.61805 0
M  V30 1981 H 183.966 6.16328 2.00111 0
M  V30 1982 N 177.372 -0.689602 1.41712 0
M  V30 1983 C 178.649 -1.44457 1.31877 0
M  V30 1984 C 179.029 -2.11039 -0.0508537 0
M  V30 1985 O 178.377 -2.02138 -1.06547 0
M  V30 1986 C 178.587 -2.45913 2.47645 0
M  V30 1987 C 179.935 -3.10991 2.89084 0
M  V30 1988 O 180.959 -2.56238 2.47428 0
M  V30 1989 O 179.818 -4.10174 3.61137 0
M  V30 1990 H 176.912 -0.64362 0.519309 0
M  V30 1991 H 179.458 -0.719576 1.53689 0
M  V30 1992 H 178.23 -1.95409 3.39015 0
M  V30 1993 H 177.853 -3.25913 2.27742 0
M  V30 1994 N 178.85 -1.27639 -0.924453 0
M  V30 1995 C 180.096 -1.14336 -1.67497 0
M  V30 1996 C 180.429 0.309465 -1.91718 0
M  V30 1997 O 179.704 1.22608 -1.50989 0
M  V30 1998 C 179.987 -1.93096 -3.0395 0
M  V30 1999 C 179.84 -3.46381 -2.8695 0
M  V30 2000 C 181.159 -1.73798 -4.0433 0
M  V30 2001 H 178.278 -0.416728 -0.607871 0
M  V30 2002 H 180.92 -1.56832 -1.07256 0
M  V30 2003 H 179.07 -1.56982 -3.55372 0
M  V30 2004 H 180.742 -3.92343 -2.42621 0
M  V30 2005 H 178.985 -3.72557 -2.22225 0
M  V30 2006 H 179.656 -3.96735 -3.83804 0
M  V30 2007 H 182.132 -2.05293 -3.61931 0
M  V30 2008 H 181.008 -2.31294 -4.97789 0
M  V30 2009 H 181.269 -0.686725 -4.36734 0
M  V30 2010 N 180.328 1.1314 -1.09713 0
M  V30 2011 C 181.258 2.20748 -0.761102 0
M  V30 2012 C 182.239 1.68061 0.262566 0
M  V30 2013 O 183.424 1.93765 0.129977 0
M  V30 2014 C 180.554 3.46812 -0.184054 0
M  V30 2015 C 179.508 4.12606 -1.13757 0
M  V30 2016 C 178.834 5.33031 -0.422083 0
M  V30 2017 C 180.134 4.59603 -2.48118 0
M  V30 2018 H 181.828 2.49113 -1.66082 0
M  V30 2019 H 179.374 1.19734 -0.799987 0
M  V30 2020 H 181.327 4.21353 0.0631215 0
M  V30 2021 H 180.051 3.17851 0.750868 0
M  V30 2022 H 178.71 3.40036 -1.37007 0
M  V30 2023 H 178.358 5.00335 0.517072 0
M  V30 2024 H 178.058 5.77999 -1.05788 0
M  V30 2025 H 179.582 6.10325 -0.183277 0
M  V30 2026 H 180.996 5.25552 -2.29059 0
M  V30 2027 H 179.393 5.15321 -3.07514 0
M  V30 2028 H 180.463 3.73971 -3.08665 0
M  V30 2029 N 181.806 0.884767 1.30421 0
M  V30 2030 C 183.052 0.503851 1.96441 0
M  V30 2031 C 183.385 -0.944518 1.69684 0
M  V30 2032 O 182.66 -1.66737 1.00145 0
M  V30 2033 C 182.943 0.779085 3.51571 0
M  V30 2034 C 182.796 2.27807 3.87846 0
M  V30 2035 C 184.115 0.255452 4.39358 0
M  V30 2036 H 181.234 0.184533 0.713524 0
M  V30 2037 H 183.876 1.10872 1.54297 0
M  V30 2038 H 182.026 0.264274 3.876 0
M  V30 2039 H 183.698 2.86127 3.61841 0
M  V30 2040 H 181.941 2.74479 3.35922 0
M  V30 2041 H 182.612 2.42125 4.96064 0
M  V30 2042 H 185.088 0.696079 4.10236 0
M  V30 2043 H 183.964 0.477361 5.4682 0
M  V30 2044 H 184.225 -0.843293 4.33983 0
M  V30 2045 N 183.284 -1.43765 0.645699 0
M  V30 2046 C 184.232 -2.32516 -0.0624849 0
M  V30 2047 C 185.226 -1.48183 -0.820855 0
M  V30 2048 O 186.432 -1.64439 -0.732106 0
M  V30 2049 H 182.807 -0.750989 -0.0389864 0
M  V30 2050 H 184.778 -2.89979 0.703892 0
M  V30 2051 C 183.527 -3.32389 -1.02044 0
M  V30 2052 H 182.85 -3.97301 -0.446312 0
M  V30 2053 H 184.29 -3.97138 -1.48517 0
M  V30 2054 C 182.749 -2.62416 -2.11281 0
M  V30 2055 O 183.279 -2.434 -3.19561 0
M  V30 2056 N 181.485 -2.21913 -1.87624 0
M  V30 2057 H 181.032 -2.37578 -0.995703 0
M  V30 2058 H 180.99 -1.75424 -2.6091 0
M  V30 2059 N 184.763 -0.387143 -1.52771 0
M  V30 2060 C 186.011 0.195349 -2.01154 0
M  V30 2061 C 186.332 1.475 -1.27549 0
M  V30 2062 O 185.602 1.91878 -0.394924 0
M  V30 2063 H 184.182 0.075178 -0.743207 0
M  V30 2064 H 186.844 -0.518337 -1.87881 0
M  V30 2065 H 185.94 0.407096 -3.09434 0
M  V30 2066 N 186.241 1.57166 -0.116904 0
M  V30 2067 C 187.518 1.86645 0.585049 0
M  V30 2068 C 187.898 1.0177 1.84949 0
M  V30 2069 O 187.246 0.0960379 2.28298 0
M  V30 2070 C 187.456 3.37736 0.879507 0
M  V30 2071 C 188.804 4.06289 1.23348 0
M  V30 2072 O 189.828 3.42743 0.969836 0
M  V30 2073 O 188.687 5.18455 1.7282 0
M  V30 2074 H 185.781 0.772593 0.295007 0
M  V30 2075 H 188.327 1.69025 -0.151249 0
M  V30 2076 H 187.099 3.91296 -0.0166136 0
M  V30 2077 H 186.722 3.6078 1.67103 0
M  V30 2078 N 187.719 -0.156864 1.56817 0
M  V30 2079 C 189.135 -0.50916 1.5126 0
M  V30 2080 C 189.335 -1.83897 0.823658 0
M  V30 2081 O 188.391 -2.49469 0.390055 0
M  V30 2082 C 189.704 -0.52857 2.96018 0
M  V30 2083 C 191.252 -0.614771 3.06903 0
M  V30 2084 C 191.727 -0.664938 4.53147 0
M  V30 2085 N 193.218 -0.727433 4.57452 0
M  V30 2086 C 193.953 -0.787067 5.67973 0
M  V30 2087 N 193.449 -0.806649 6.88088 0
M  V30 2088 N 195.242 -0.827195 5.5598 0
M  V30 2089 H 187.393 0.714935 2.00006 0
M  V30 2090 H 189.656 0.259526 0.911784 0
M  V30 2091 H 189.362 0.380154 3.49639 0
M  V30 2092 H 189.236 -1.36998 3.51442 0
M  V30 2093 H 191.623 -1.51392 2.53307 0
M  V30 2094 H 191.704 0.253597 2.5454 0
M  V30 2095 H 191.348 0.230011 5.07379 0
M  V30 2096 H 191.278 -1.54966 5.03282 0
M  V30 2097 H 193.769 -0.719998 3.70978 0
M  V30 2098 H 194.082 -0.853727 7.6807 0
M  V30 2099 H 192.427 -0.774687 6.90669 0
M  V30 2100 H 195.618 -0.808998 4.61056 0
M  V30 2101 H 195.791 -0.870206 6.4213 0
M  V30 2102 N 189.197 -1.51736 -0.425897 0
M  V30 2103 C 190.613 -1.40166 -0.76326 0
M  V30 2104 C 190.813 -0.492962 -1.95377 0
M  V30 2105 O 189.869 0.0475815 -2.52455 0
M  V30 2106 C 191.182 -2.82403 -1.03291 0
M  V30 2107 C 192.73 -2.91632 -1.13665 0
M  V30 2108 C 193.205 -4.34801 -1.43916 0
M  V30 2109 N 194.696 -4.3796 -1.50816 0
M  V30 2110 C 195.431 -5.4578 -1.75817 0
M  V30 2111 N 194.927 -6.63744 -1.98534 0
M  V30 2112 N 196.72 -5.33274 -1.77694 0
M  V30 2113 H 188.871 -2.09361 0.358 0
M  V30 2114 H 191.134 -0.942941 0.0978094 0
M  V30 2115 H 190.84 -3.50943 -0.230696 0
M  V30 2116 H 190.714 -3.22428 -1.95754 0
M  V30 2117 H 193.101 -2.23284 -1.92947 0
M  V30 2118 H 193.182 -2.55088 -0.190756 0
M  V30 2119 H 192.826 -5.03703 -0.65157 0
M  V30 2120 H 192.756 -4.68868 -2.39729 0
M  V30 2121 H 195.247 -3.52919 -1.35118 0
M  V30 2122 H 195.56 -7.41704 -2.17013 0
M  V30 2123 H 193.905 -6.66839 -1.95832 0
M  V30 2124 H 197.096 -4.40098 -1.59473 0
M  V30 2125 H 197.269 -6.1738 -1.9684 0
M  V30 2126 N 190.675 0.682077 -1.42076 0
M  V30 2127 C 191.921 1.44283 -1.43366 0
M  V30 2128 C 192.276 1.92344 -0.0465775 0
M  V30 2129 O 191.569 1.67517 0.929973 0
M  V30 2130 C 191.763 2.66036 -2.38662 0
M  V30 2131 C 191.592 2.29889 -3.86499 0
M  V30 2132 C 190.362 2.19599 -4.55087 0
M  V30 2133 C 192.56 1.91999 -4.77117 0
M  V30 2134 N 190.542 1.76478 -5.87987 0
M  V30 2135 C 191.913 1.59741 -5.99068 0
M  V30 2136 C 193.968 1.78927 -4.64639 0
M  V30 2137 C 192.671 1.15723 -7.0993 0
M  V30 2138 C 194.697 1.36314 -5.75476 0
M  V30 2139 C 194.059 1.04975 -6.96534 0
M  V30 2140 H 190.158 0.524739 -0.579805 0
M  V30 2141 H 192.742 0.787834 -1.78048 0
M  V30 2142 H 190.913 3.29237 -2.06053 0
M  V30 2143 H 192.645 3.32588 -2.30581 0
M  V30 2144 H 189.4 2.38433 -4.09202 0
M  V30 2145 H 189.824 1.57362 -6.58458 0
M  V30 2146 H 194.466 2.01805 -3.7153 0
M  V30 2147 H 192.184 0.91591 -8.02893 0
M  V30 2148 H 195.77 1.26731 -5.6783 0
M  V30 2149 H 194.65 0.725017 -7.80841 0
M  V30 2150 N 192.153 1.28127 0.917671 0
M  V30 2151 C 193.402 1.14432 1.66097 0
M  V30 2152 C 193.715 -0.307247 1.93172 0
M  V30 2153 O 194.921 -0.565259 2.65551 0
M  V30 2154 C 193.377 2.00015 2.99202 0
M  V30 2155 C 192.985 3.49889 2.79789 0
M  V30 2156 C 194.729 1.94996 3.77064 0
M  V30 2157 C 192.636 4.27636 4.08511 0
M  V30 2158 H 191.566 0.424662 0.62304 0
M  V30 2159 H 194.217 1.52628 1.01868 0
M  V30 2160 H 192.599 1.54672 3.64544 0
M  V30 2161 H 193.773 4.03162 2.23152 0
M  V30 2162 H 192.088 3.56392 2.15345 0
M  V30 2163 H 194.685 2.50354 4.72469 0
M  V30 2164 H 195.028 0.925819 4.05875 0
M  V30 2165 H 195.561 2.38287 3.18534 0
M  V30 2166 H 192.3 5.30615 3.84874 0
M  V30 2167 H 191.82 3.79137 4.64774 0
M  V30 2168 H 193.499 4.37346 4.76799 0
M  V30 2169 N 193.631 -1.12557 1.10312 0
M  V30 2170 C 194.859 -1.87864 0.866873 0
M  V30 2171 C 195.274 -1.79588 -0.582557 0
M  V30 2172 O 194.631 -1.16887 -1.40156 0
M  V30 2173 C 194.682 -3.37125 1.30496 0
M  V30 2174 O 194.403 -3.45201 2.69755 0
M  V30 2175 C 195.904 -4.29373 1.10243 0
M  V30 2176 H 193.124 -0.594452 0.311236 0
M  V30 2177 H 195.668 -1.42429 1.46745 0
M  V30 2178 H 193.823 -3.80109 0.748081 0
M  V30 2179 H 194.237 -4.38056 2.88457 0
M  V30 2180 H 195.711 -5.32394 1.45811 0
M  V30 2181 H 196.188 -4.39181 0.0409492 0
M  V30 2182 H 196.794 -3.92169 1.64571 0
M  V30 2183 N 195.109 -0.891671 -1.2995 0
M  V30 2184 C 196.041 -0.320695 -2.26945 0
M  V30 2185 C 197.054 0.528497 -1.53983 0
M  V30 2186 O 198.243 0.346959 -1.75096 0
M  V30 2187 C 195.343 0.562066 -3.34207 0
M  V30 2188 C 194.516 -0.259576 -4.36629 0
M  V30 2189 C 193.575 0.554739 -5.23268 0
M  V30 2190 O 192.601 -0.0249311 -5.69195 0
M  V30 2191 N 193.803 1.8625 -5.4981 0
M  V30 2192 H 196.568 -1.15432 -2.76578 0
M  V30 2193 H 194.129 -0.755336 -1.432 0
M  V30 2194 H 196.121 1.11304 -3.89093 0
M  V30 2195 H 194.691 1.29637 -2.84452 0
M  V30 2196 H 193.911 -0.991986 -3.81514 0
M  V30 2197 H 195.199 -0.822564 -5.02107 0
M  V30 2198 H 194.597 2.35628 -5.14292 0
M  V30 2199 H 193.154 2.36078 -6.07545 0
M  V30 2200 N 196.587 1.43421 -0.653314 0
M  V30 2201 C 197.517 2.33487 0.0246656 0
M  V30 2202 C 198.498 1.49475 0.811863 0
M  V30 2203 O 199.683 1.78139 0.773322 0
M  V30 2204 C 196.813 3.32841 0.99166 0
M  V30 2205 C 195.767 4.26842 0.314568 0
M  V30 2206 C 195.093 5.16236 1.39302 0
M  V30 2207 C 196.393 5.16243 -0.793095 0
M  V30 2208 H 198.087 2.90427 -0.727481 0
M  V30 2209 H 195.633 1.39649 -0.351287 0
M  V30 2210 H 197.586 3.94747 1.47487 0
M  V30 2211 H 196.31 2.74158 1.77497 0
M  V30 2212 H 194.969 3.663 -0.148199 0
M  V30 2213 H 194.617 4.53891 2.16776 0
M  V30 2214 H 194.317 5.79948 0.945223 0
M  V30 2215 H 195.841 5.81015 1.87759 0
M  V30 2216 H 197.255 5.71958 -0.392039 0
M  V30 2217 H 195.652 5.88676 -1.16536 0
M  V30 2218 H 196.722 4.55927 -1.65103 0
M  V30 2219 N 198.065 0.39524 1.52563 0
M  V30 2220 C 199.015 -0.4541 2.23432 0
M  V30 2221 C 199.999 -1.02482 1.24042 0
M  V30 2222 O 201.191 -0.949938 1.49349 0
M  V30 2223 C 198.32 -1.57769 3.049 0
M  V30 2224 C 197.406 -1.01842 4.1169 0
M  V30 2225 N 197.797 -0.184613 5.05463 0
M  V30 2226 C 196.095 -1.29033 4.26927 0
M  V30 2227 C 196.796 0.125013 5.81566 0
M  V30 2228 N 195.772 -0.480498 5.41472 0
M  V30 2229 H 199.574 0.189413 2.93289 0
M  V30 2230 H 197.088 0.204877 1.61102 0
M  V30 2231 H 199.085 -2.19862 3.54212 0
M  V30 2232 H 197.745 -2.22397 2.36579 0
M  V30 2233 H 198.756 0.178602 5.17592 0
M  V30 2234 H 195.433 -1.93721 3.69836 0
M  V30 2235 H 196.823 0.800962 6.67109 0
M  V30 2236 N 199.544 -1.57102 0.125237 0
M  V30 2237 C 200.791 -1.95407 -0.531248 0
M  V30 2238 C 201.119 -1.0089 -1.66287 0
M  V30 2239 O 200.374 -0.0339431 -1.95671 0
M  V30 2240 C 200.673 -3.40096 -1.09862 0
M  V30 2241 C 200.339 -4.50815 -0.0876989 0
M  V30 2242 C 199.001 -4.80824 0.19026 0
M  V30 2243 C 201.353 -5.17724 0.600902 0
M  V30 2244 C 198.681 -5.75058 1.163 0
M  V30 2245 C 201.033 -6.13005 1.56231 0
M  V30 2246 C 199.697 -6.41403 1.8482 0
M  V30 2247 H 198.967 -0.715046 -0.194397 0
M  V30 2248 H 201.614 -1.90373 0.207463 0
M  V30 2249 H 199.919 -3.41855 -1.91422 0
M  V30 2250 H 201.616 -3.6705 -1.61478 0
M  V30 2251 H 198.206 -4.27444 -0.314528 0
M  V30 2252 H 202.39 -4.94691 0.399333 0
M  V30 2253 H 197.646 -5.95362 1.39117 0
M  V30 2254 H 201.82 -6.63934 2.10153 0
M  V30 2255 H 199.447 -7.14229 2.60349 0
M  V30 2256 N 201.022 0.148545 -1.56898 0
M  V30 2257 C 201.985 1.16736 -1.97244 0
M  V30 2258 C 202.985 1.35947 -0.858777 0
M  V30 2259 O 204.175 1.32966 -1.12542 0
M  V30 2260 C 201.307 2.52798 -2.28705 0
M  V30 2261 H 202.5 0.821279 -2.88435 0
M  V30 2262 H 200.053 0.391831 -1.51309 0
M  V30 2263 H 200.788 2.92381 -1.403 0
M  V30 2264 H 200.573 2.40216 -3.09901 0
M  V30 2265 H 202.063 3.26179 -2.60762 0
M  V30 2266 N 202.5 1.5196 0.417844 0
M  V30 2267 C 203.747 1.65591 1.16559 0
M  V30 2268 C 204.075 0.381565 1.90721 0
M  V30 2269 O 203.33 -0.635156 1.85106 0
M  V30 2270 C 203.629 2.82269 2.19223 0
M  V30 2271 C 203.295 4.20819 1.61933 0
M  V30 2272 C 201.957 4.58506 1.46033 0
M  V30 2273 C 204.309 5.07196 1.20008 0
M  V30 2274 C 201.637 5.80257 0.867113 0
M  V30 2275 C 203.989 6.29544 0.621086 0
M  V30 2276 C 202.653 6.65987 0.449144 0
M  V30 2277 H 201.923 0.605939 0.42652 0
M  V30 2278 H 204.57 1.86041 0.45397 0
M  V30 2279 H 202.875 2.56118 2.96498 0
M  V30 2280 H 204.572 2.90012 2.76936 0
M  V30 2281 H 201.162 3.91116 1.7529 0
M  V30 2282 H 205.346 4.7867 1.31105 0
M  V30 2283 H 200.602 6.07124 0.721833 0
M  V30 2284 H 204.776 6.95805 0.287798 0
M  V30 2285 H 202.403 7.60199 -0.012632 0
M  V30 2286 N 203.978 -0.674533 1.42435 0
M  V30 2287 C 204.91 -1.80005 1.41883 0
M  V30 2288 C 205.923 -1.59667 0.31787 0
M  V30 2289 O 207.112 -1.68781 0.580973 0
M  V30 2290 C 204.212 -3.17114 1.19549 0
M  V30 2291 C 203.385 -3.64299 2.42084 0
M  V30 2292 C 202.444 -4.80142 2.15291 0
M  V30 2293 O 201.47 -4.90673 2.88493 0
M  V30 2294 N 202.672 -5.68869 1.1562 0
M  V30 2295 H 205.437 -1.80964 2.38898 0
M  V30 2296 H 202.998 -0.857633 1.37318 0
M  V30 2297 H 204.99 -3.92267 0.995417 0
M  V30 2298 H 203.56 -3.11053 0.310569 0
M  V30 2299 H 202.78 -2.79822 2.77657 0
M  V30 2300 H 204.068 -3.92567 3.23679 0
M  V30 2301 H 203.466 -5.63012 0.550765 0
M  V30 2302 H 202.023 -6.43833 1.016 0
M  V30 2303 N 205.456 -1.28612 -0.910864 0
M  V30 2304 C 206.733 -1.06632 -1.63979 0
M  V30 2305 C 207.113 0.393351 -2.07403 0
M  V30 2306 O 206.461 1.37999 -1.82122 0
M  V30 2307 C 206.671 -2.0436 -2.8291 0
M  V30 2308 C 208.019 -2.34666 -3.5386 0
M  V30 2309 O 209.043 -2.02467 -2.93062 0
M  V30 2310 O 207.902 -2.89631 -4.63439 0
M  V30 2311 H 204.996 -0.407737 -0.7195 0
M  V30 2312 H 207.542 -1.39942 -0.959914 0
M  V30 2313 H 206.314 -3.02727 -2.47936 0
M  V30 2314 H 205.937 -1.71714 -3.58609 0
M  V30 2315 N 206.934 1.1197 -1.10907 0
M  V30 2316 C 207.844 2.21433 -0.774896 0
M  V30 2317 C 208.86 1.72478 0.229657 0
M  V30 2318 O 210.036 2.01288 0.0672008 0
M  V30 2319 C 207.101 3.4602 -0.216986 0
M  V30 2320 C 206.162 4.09791 -1.27944 0
M  V30 2321 C 205.395 5.28431 -0.748055 0
M  V30 2322 O 205.618 5.68823 0.423833 0
M  V30 2323 O 204.552 5.82644 -1.51027 0
M  V30 2324 H 208.378 2.5242 -1.68873 0
M  V30 2325 H 205.963 1.20399 -0.884555 0
M  V30 2326 H 207.845 4.21304 0.090059 0
M  V30 2327 H 206.52 3.16698 0.669633 0
M  V30 2328 H 205.427 3.36265 -1.63941 0
M  V30 2329 H 206.76 4.4328 -2.13925 0
M  V30 2330 N 208.412 0.89855 1.29475 0
M  V30 2331 C 209.36 0.365253 2.29714 0
M  V30 2332 C 210.354 -0.534993 1.6073 0
M  V30 2333 O 211.56 -0.417921 1.75081 0
M  V30 2334 H 207.935 0.0994853 0.74539 0
M  V30 2335 H 209.906 1.22406 2.72138 0
M  V30 2336 C 208.655 -0.393159 3.4547 0
M  V30 2337 H 207.978 0.290332 3.98744 0
M  V30 2338 H 209.418 -0.731189 4.17648 0
M  V30 2339 C 207.877 -1.59539 2.9673 0
M  V30 2340 O 208.407 -2.69469 2.97908 0
M  V30 2341 N 206.613 -1.43716 2.52575 0
M  V30 2342 H 206.16 -0.542828 2.51816 0
M  V30 2343 H 206.118 -2.24288 2.20323 0
M  V30 2344 N 209.89 -1.43072 0.660911 0
M  V30 2345 C 211.12 -2.05769 0.185153 0
M  V30 2346 C 211.528 -1.49668 -1.15742 0
M  V30 2347 O 210.871 -0.625649 -1.72717 0
M  V30 2348 C 210.933 -3.59489 0.0278237 0
M  V30 2349 C 210.597 -4.38212 1.2969 0
M  V30 2350 C 211.594 -4.69772 2.22734 0
M  V30 2351 C 209.279 -4.7809 1.54063 0
M  V30 2352 C 211.273 -5.40129 3.38437 0
M  V30 2353 C 208.96 -5.4819 2.70058 0
M  V30 2354 C 209.958 -5.79132 3.62071 0
M  V30 2355 O 209.646 -6.47798 4.76039 0
M  V30 2356 H 209.378 -0.669873 0.0908086 0
M  V30 2357 H 211.932 -1.84436 0.90402 0
M  V30 2358 H 210.162 -3.79426 -0.746489 0
M  V30 2359 H 211.851 -4.03862 -0.406275 0
M  V30 2360 H 212.617 -4.39476 2.05149 0
M  V30 2361 H 208.496 -4.53408 0.833215 0
M  V30 2362 H 212.04 -5.64198 4.10277 0
M  V30 2363 H 207.937 -5.77902 2.87574 0
M  V30 2364 H 208.705 -6.66283 4.75404 0
M  V30 2365 N 211.368 -0.403325 -1.52352 0
M  V30 2366 C 212.298 0.416205 -2.29761 0
M  V30 2367 C 213.279 1.05123 -1.33728 0
M  V30 2368 O 214.464 1.06134 -1.62632 0
M  V30 2369 C 211.594 1.53624 -3.11475 0
M  V30 2370 C 210.548 1.02653 -4.15507 0
M  V30 2371 C 209.874 2.23971 -4.85532 0
M  V30 2372 C 211.174 0.08463 -5.22231 0
M  V30 2373 H 212.868 -0.229701 -2.98518 0
M  V30 2374 H 210.414 -0.111913 -1.43564 0
M  V30 2375 H 212.367 2.1165 -3.64393 0
M  V30 2376 H 211.091 2.20994 -2.40477 0
M  V30 2377 H 209.75 0.46871 -3.63591 0
M  V30 2378 H 209.398 2.89883 -4.11068 0
M  V30 2379 H 209.098 1.90521 -5.55856 0
M  V30 2380 H 210.622 2.82614 -5.41259 0
M  V30 2381 H 212.036 0.573509 -5.70424 0
M  V30 2382 H 210.433 -0.160783 -5.99885 0
M  V30 2383 H 211.503 -0.86237 -4.7717 0
M  V30 2384 N 212.846 1.57033 -0.133567 0
M  V30 2385 C 214.076 1.99754 0.527429 0
M  V30 2386 C 214.484 1.01245 1.59832 0
M  V30 2387 O 213.827 -0.000645496 1.837 0
M  V30 2388 C 213.889 3.38903 1.19939 0
M  V30 2389 C 213.553 4.56174 0.274709 0
M  V30 2390 C 214.55 5.17563 -0.492398 0
M  V30 2391 C 212.235 5.01972 0.18153 0
M  V30 2392 C 214.229 6.2315 -1.34027 0
M  V30 2393 C 211.916 6.07416 -0.669958 0
M  V30 2394 C 212.914 6.67874 -1.42947 0
M  V30 2395 O 212.602 7.71279 -2.2668 0
M  V30 2396 H 212.334 0.660702 0.142999 0
M  V30 2397 H 214.888 2.04207 -0.221099 0
M  V30 2398 H 213.118 3.31248 1.99528 0
M  V30 2399 H 214.807 3.65818 1.75875 0
M  V30 2400 H 215.573 4.83087 -0.430367 0
M  V30 2401 H 211.452 4.54652 0.762422 0
M  V30 2402 H 214.996 6.70268 -1.93357 0
M  V30 2403 H 210.893 6.41321 -0.73333 0
M  V30 2404 H 211.661 7.88441 -2.1978 0
M  V30 2405 N 214.325 -0.140222 1.56975 0
M  V30 2406 C 215.255 -1.17456 2.01808 0
M  V30 2407 C 216.236 -1.44415 0.898794 0
M  V30 2408 O 217.421 -1.5522 1.16707 0
M  V30 2409 C 214.551 -2.50607 2.40444 0
M  V30 2410 C 213.505 -2.38155 3.55621 0
M  V30 2411 C 212.831 -3.76078 3.80091 0
M  V30 2412 C 214.131 -1.85991 4.88062 0
M  V30 2413 H 215.825 -0.801743 2.88466 0
M  V30 2414 H 213.371 -0.38422 1.38779 0
M  V30 2415 H 215.324 -3.23197 2.7041 0
M  V30 2416 H 214.048 -2.89737 1.50732 0
M  V30 2417 H 212.707 -1.68016 3.25832 0
M  V30 2418 H 212.355 -4.12656 2.87618 0
M  V30 2419 H 212.055 -3.68606 4.57606 0
M  V30 2420 H 213.579 -4.50206 4.12488 0
M  V30 2421 H 214.993 -2.4838 5.16701 0
M  V30 2422 H 213.39 -1.89393 5.6943 0
M  V30 2423 H 214.46 -0.816023 4.77984 0
M  V30 2424 N 215.803 -1.52179 -0.40978 0
M  V30 2425 C 217.049 -1.66453 -1.15851 0
M  V30 2426 C 217.382 -0.392972 -1.90182 0
M  V30 2427 O 216.657 0.608579 -1.84734 0
M  V30 2428 C 216.94 -2.88612 -2.15349 0
M  V30 2429 C 216.793 -4.25815 -1.44918 0
M  V30 2430 C 218.112 -3.06294 -3.16026 0
M  V30 2431 H 215.231 -0.60575 -0.419805 0
M  V30 2432 H 217.873 -1.84732 -0.444314 0
M  V30 2433 H 216.023 -2.73158 -2.76255 0
M  V30 2434 H 217.695 -4.52995 -0.871365 0
M  V30 2435 H 215.938 -4.27247 -0.751159 0
M  V30 2436 H 216.609 -5.07337 -2.17516 0
M  V30 2437 H 219.085 -3.20641 -2.65195 0
M  V30 2438 H 217.961 -3.93283 -3.8291 0
M  V30 2439 H 218.222 -2.19579 -3.83715 0
M  V30 2440 N 217.281 0.66697 -1.42791 0
M  V30 2441 C 218.214 1.79177 -1.41318 0
M  V30 2442 C 219.192 1.60234 -0.276401 0
M  V30 2443 O 220.376 1.82602 -0.46785 0
M  V30 2444 C 217.503 3.16289 -1.21157 0
M  V30 2445 C 216.549 3.53964 -2.37932 0
M  V30 2446 S 217.382 3.55501 -4.00474 0
M  V30 2447 C 218.538 4.95292 -3.8267 0
M  V30 2448 H 218.771 1.80153 -2.365 0
M  V30 2449 H 216.304 0.838357 -1.29657 0
M  V30 2450 H 218.262 3.95428 -1.10212 0
M  V30 2451 H 216.923 3.1289 -0.275481 0
M  V30 2452 H 216.116 4.53646 -2.19594 0
M  V30 2453 H 215.718 2.82204 -2.45432 0
M  V30 2454 H 218.01 5.83584 -3.44145 0
M  V30 2455 H 218.953 5.18679 -4.82055 0
M  V30 2456 H 219.361 4.68179 -3.15386 0
M  V30 2457 N 218.759 1.29093 0.90403 0
M  V30 2458 C 219.669 1.15727 2.0407 0
M  V30 2459 C 220.685 0.0815308 1.73809 0
M  V30 2460 O 221.861 0.292749 1.99261 0
M  V30 2461 C 218.926 0.830424 3.36608 0
M  V30 2462 C 217.987 1.98955 3.80415 0
M  V30 2463 C 217.22 1.6782 5.06628 0
M  V30 2464 O 217.443 0.597105 5.67266 0
M  V30 2465 O 216.377 2.52486 5.46383 0
M  V30 2466 H 220.203 2.11171 2.18267 0
M  V30 2467 H 217.788 1.08504 1.027 0
M  V30 2468 H 219.67 0.662521 4.16159 0
M  V30 2469 H 218.345 -0.0942678 3.23563 0
M  V30 2470 H 217.252 2.21267 3.01648 0
M  V30 2471 H 218.585 2.89529 3.98037 0
M  V30 2472 N 220.237 -1.11381 1.11499 0
M  V30 2473 C 221.467 -1.86663 0.885464 0
M  V30 2474 C 221.875 -1.80464 -0.568281 0
M  V30 2475 O 221.218 -1.18445 -1.40415 0
M  V30 2476 C 221.28 -3.36337 1.26956 0
M  V30 2477 C 220.944 -3.66304 2.73259 0
M  V30 2478 C 221.941 -3.63733 3.71476 0
M  V30 2479 C 219.626 -3.9529 3.09921 0
M  V30 2480 C 221.62 -3.89725 5.04374 0
M  V30 2481 C 219.307 -4.20941 4.43004 0
M  V30 2482 C 220.305 -4.18147 5.40039 0
M  V30 2483 O 219.993 -4.43153 6.70724 0
M  V30 2484 H 219.725 -0.597114 0.316908 0
M  V30 2485 H 222.279 -1.41782 1.48617 0
M  V30 2486 H 220.509 -3.81826 0.611999 0
M  V30 2487 H 222.198 -3.92986 1.01573 0
M  V30 2488 H 222.964 -3.41389 3.44498 0
M  V30 2489 H 218.843 -3.966 2.35009 0
M  V30 2490 H 222.387 -3.8746 5.80104 0
M  V30 2491 H 218.284 -4.42761 4.69716 0
M  V30 2492 H 219.052 -4.60717 6.76522 0
M  V30 2493 N 221.715 -0.905404 -1.28997 0
M  V30 2494 C 222.945 -0.549049 -1.99171 0
M  V30 2495 C 223.353 0.87203 -1.67906 0
M  V30 2496 O 222.696 1.58796 -0.923561 0
M  V30 2497 C 222.758 -0.668306 -3.53234 0
M  V30 2498 C 222.422 -2.0574 -4.08069 0
M  V30 2499 C 223.419 -3.0292 -4.22534 0
M  V30 2500 C 221.104 -2.36833 -4.42962 0
M  V30 2501 C 223.098 -4.29314 -4.71135 0
M  V30 2502 C 220.785 -3.63467 -4.91258 0
M  V30 2503 C 221.783 -4.59522 -5.053 0
M  V30 2504 O 221.471 -5.83907 -5.52546 0
M  V30 2505 H 221.203 -0.208784 -0.64295 0
M  V30 2506 H 223.757 -1.21836 -1.65363 0
M  V30 2507 H 221.987 0.0580547 -3.86656 0
M  V30 2508 H 223.676 -0.320273 -4.04634 0
M  V30 2509 H 224.442 -2.80216 -3.95859 0
M  V30 2510 H 220.321 -1.62824 -4.31288 0
M  V30 2511 H 223.865 -5.04293 -4.8201 0
M  V30 2512 H 219.762 -3.86 -5.17372 0
M  V30 2513 H 220.53 -5.86578 -5.70849 0
M  V30 2514 N 223.193 1.4272 -0.668489 0
M  V30 2515 C 224.439 2.01923 -0.188419 0
M  V30 2516 C 224.772 1.52704 1.19979 0
M  V30 2517 O 224.047 0.726566 1.8042 0
M  V30 2518 C 224.33 3.59451 -0.216085 0
M  V30 2519 C 224.183 4.18864 -1.6393 0
M  V30 2520 C 225.502 4.37903 0.439179 0
M  V30 2521 H 222.621 0.733674 -0.0699412 0
M  V30 2522 H 225.263 1.69822 -0.852076 0
M  V30 2523 H 223.413 3.86929 0.349012 0
M  V30 2524 H 225.085 4.02362 -2.25616 0
M  V30 2525 H 223.328 3.74933 -2.18193 0
M  V30 2526 H 223.999 5.27987 -1.61039 0
M  V30 2527 H 226.475 4.16079 -0.0417878 0
M  V30 2528 H 225.351 5.47519 0.389157 0
M  V30 2529 H 225.612 4.15303 1.51577 0
M  V30 2530 N 224.671 0.411399 1.52136 0
M  V30 2531 C 225.919 -0.163322 2.01439 0
M  V30 2532 C 226.24 -1.45453 1.29879 0
M  V30 2533 O 225.51 -1.91225 0.4254 0
M  V30 2534 H 224.09 -0.0633447 0.744309 0
M  V30 2535 H 226.752 0.548161 1.87033 0
M  V30 2536 H 225.848 -0.357817 3.10042 0
M  V30 2537 N 226.149 -1.5696 0.141893 0
M  V30 2538 C 227.397 -1.95573 -0.509484 0
M  V30 2539 C 227.718 -1.02746 -1.65736 0
M  V30 2540 O 226.988 -0.0880311 -1.95702 0
M  V30 2541 H 225.568 -0.722115 -0.191205 0
M  V30 2542 H 228.23 -1.93697 0.216196 0
M  V30 2543 H 227.326 -2.99171 -0.889 0
M  V30 2544 N 227.627 0.131896 -1.57047 0
M  V30 2545 C 228.904 0.871495 -1.75112 0
M  V30 2546 C 229.284 1.9866 -0.713949 0
M  V30 2547 O 228.632 2.26965 0.264447 0
M  V30 2548 C 228.842 1.40007 -3.19686 0
M  V30 2549 C 230.19 1.85752 -3.81813 0
M  V30 2550 O 231.214 1.49715 -3.23209 0
M  V30 2551 O 230.073 2.5226 -4.84796 0
M  V30 2552 H 227.167 0.412919 -0.716538 0
M  V30 2553 H 229.713 0.116641 -1.69299 0
M  V30 2554 H 228.485 0.599404 -3.86682 0
M  V30 2555 H 228.108 2.218 -3.29986 0
M  V30 2556 N 229.106 1.52395 0.401703 0
M  V30 2557 C 230.036 1.79231 1.49661 0
M  V30 2558 C 231.017 0.643654 1.57452 0
M  V30 2559 O 232.202 0.889989 1.72606 0
M  V30 2560 C 229.332 1.94971 2.87409 0
M  V30 2561 C 228.286 3.10604 2.94465 0
M  V30 2562 C 227.612 3.11577 4.34538 0
M  V30 2563 C 228.912 4.49921 2.6527 0
M  V30 2564 H 230.606 2.70917 1.27454 0
M  V30 2565 H 228.152 1.30362 0.6117 0
M  V30 2566 H 230.105 2.12328 3.63999 0
M  V30 2567 H 228.829 0.999632 3.10926 0
M  V30 2568 H 227.488 2.93009 2.20321 0
M  V30 2569 H 227.136 2.14277 4.55076 0
M  V30 2570 H 226.836 3.89247 4.40183 0
M  V30 2571 H 228.36 3.31073 5.13053 0
M  V30 2572 H 229.774 4.67683 3.31581 0
M  V30 2573 H 228.171 5.29564 2.82281 0
M  V30 2574 H 229.241 4.57507 1.60671 0
M  V30 2575 N 230.584 -0.659388 1.43143 0
M  V30 2576 C 231.514 -1.78422 1.50625 0
M  V30 2577 C 232.495 -1.66216 0.361443 0
M  V30 2578 O 233.68 -1.85404 0.577834 0
M  V30 2579 C 230.81 -3.16815 1.42287 0
M  V30 2580 C 229.764 -3.43777 2.54954 0
M  V30 2581 C 229.09 -4.81905 2.31671 0
M  V30 2582 C 230.39 -3.39134 3.97222 0
M  V30 2583 H 232.084 -1.72417 2.44771 0
M  V30 2584 H 229.63 -0.828084 1.17808 0
M  V30 2585 H 231.583 -3.95253 1.46127 0
M  V30 2586 H 230.307 -3.23534 0.446435 0
M  V30 2587 H 228.966 -2.67707 2.50457 0
M  V30 2588 H 228.614 -4.85294 1.32284 0
M  V30 2589 H 228.314 -5.00906 3.07192 0
M  V30 2590 H 229.838 -5.62609 2.37284 0
M  V30 2591 H 231.252 -4.07518 4.03239 0
M  V30 2592 H 229.649 -3.69671 4.72719 0
M  V30 2593 H 230.719 -2.37426 4.22797 0
M  V30 2594 N 232.062 -1.29571 -0.897171 0
M  V30 2595 C 233.29 -1.20583 -1.68129 0
M  V30 2596 C 233.705 0.233181 -1.87354 0
M  V30 2597 O 233.062 1.15579 -1.41236 0
M  V30 2598 C 233.113 -1.91772 -3.06441 0
M  V30 2599 O 232.834 -3.30053 -2.88091 0
M  V30 2600 C 234.335 -1.89291 -4.00854 0
M  V30 2601 H 231.555 -0.417826 -0.525036 0
M  V30 2602 H 234.099 -1.70987 -1.12177 0
M  V30 2603 H 232.254 -1.45196 -3.59161 0
M  V30 2604 H 232.668 -3.65942 -3.75748 0
M  V30 2605 H 234.142 -2.43662 -4.95311 0
M  V30 2606 H 234.619 -0.869014 -4.30517 0
M  V30 2607 H 235.225 -2.35622 -3.54066 0
M  V30 2608 N 233.54 1.10788 -1.12088 0
M  V30 2609 C 234.47 2.19083 -0.807755 0
M  V30 2610 C 235.451 1.6858 0.226859 0
M  V30 2611 O 236.636 1.93997 0.0888475 0
M  V30 2612 C 233.766 3.46344 -0.257576 0
M  V30 2613 C 232.72 4.101 -1.22483 0
M  V30 2614 C 232.046 5.32016 -0.535052 0
M  V30 2615 C 233.346 4.54236 -2.57811 0
M  V30 2616 H 235.04 2.45534 -1.71328 0
M  V30 2617 H 232.586 1.1801 -0.825205 0
M  V30 2618 H 234.539 4.21392 -0.0262679 0
M  V30 2619 H 233.263 3.19373 0.683278 0
M  V30 2620 H 231.922 3.37054 -1.44189 0
M  V30 2621 H 231.57 5.01319 0.410827 0
M  V30 2622 H 231.27 5.75625 -1.18024 0
M  V30 2623 H 232.794 6.09799 -0.312695 0
M  V30 2624 H 234.208 5.20575 -2.40155 0
M  V30 2625 H 232.605 5.08682 -3.18375 0
M  V30 2626 H 233.675 3.6734 -3.16528 0
M  V30 2627 N 235.018 0.912232 1.28515 0
M  V30 2628 C 235.948 0.416403 2.29757 0
M  V30 2629 C 236.929 -0.515194 1.6211 0
M  V30 2630 O 238.114 -0.423253 1.89532 0
M  V30 2631 C 235.244 -0.34572 3.45575 0
M  V30 2632 C 234.198 0.496599 4.25109 0
M  V30 2633 C 233.524 -0.393771 5.33248 0
M  V30 2634 C 234.824 1.75307 4.92001 0
M  V30 2635 H 236.518 1.26249 2.7148 0
M  V30 2636 H 234.064 0.608515 1.30511 0
M  V30 2637 H 236.017 -0.703422 4.15488 0
M  V30 2638 H 234.741 -1.2257 3.02728 0
M  V30 2639 H 233.4 0.8368 3.56922 0
M  V30 2640 H 233.048 -1.27225 4.86644 0
M  V30 2641 H 232.748 0.166209 5.87365 0
M  V30 2642 H 234.272 -0.747389 6.06009 0
M  V30 2643 H 235.686 1.46437 5.54283 0
M  V30 2644 H 234.083 2.25534 5.56106 0
M  V30 2645 H 235.153 2.48176 4.16577 0
M  V30 2646 N 236.496 -1.42363 0.676048 0
M  V30 2647 C 237.721 -2.06377 0.205705 0
M  V30 2648 C 238.146 -1.50463 -1.12883 0
M  V30 2649 O 237.504 -0.623619 -1.70237 0
M  V30 2650 C 237.552 -3.60277 0.152655 0
M  V30 2651 O 236.656 -4.02935 -0.87845 0
M  V30 2652 H 235.997 -0.655588 0.105359 0
M  V30 2653 H 238.527 -1.82475 0.925412 0
M  V30 2654 H 238.537 -4.07993 -0.0230675 0
M  V30 2655 H 237.212 -4.00346 1.12675 0
M  V30 2656 H 235.789 -3.66764 -0.673668 0
M  V30 2657 N 237.974 -0.419461 -1.51915 0
M  V30 2658 C 238.921 0.400927 -2.27291 0
M  V30 2659 C 239.891 1.03224 -1.30131 0
M  V30 2660 O 241.076 1.05455 -1.59009 0
M  V30 2661 C 238.216 1.50603 -3.10504 0
M  V30 2662 C 237.329 0.89462 -4.22635 0
M  V30 2663 C 236.464 1.97328 -4.93189 0
M  V30 2664 C 235.503 1.33935 -5.97267 0
M  V30 2665 N 234.64 2.3586 -6.61298 0
M  V30 2666 H 239.48 -0.248251 -2.96964 0
M  V30 2667 H 237.017 -0.134266 -1.46486 0
M  V30 2668 H 238.975 2.15783 -3.57062 0
M  V30 2669 H 237.605 2.12509 -2.42981 0
M  V30 2670 H 236.657 0.131583 -3.80172 0
M  V30 2671 H 237.969 0.391641 -4.9726 0
M  V30 2672 H 237.123 2.70211 -5.43204 0
M  V30 2673 H 235.862 2.50994 -4.18155 0
M  V30 2674 H 234.867 0.595896 -5.46561 0
M  V30 2675 H 236.092 0.810252 -6.74249 0
M  V30 2676 H 234.038 2.88639 -5.89087 0
M  V30 2677 H 233.955 1.90403 -7.3163 0
M  V30 2678 H 235.223 3.08282 -7.15949 0
M  V30 2679 N 239.452 1.56882 -0.150215 0
M  V30 2680 C 240.699 1.96228 0.500093 0
M  V30 2681 C 241.027 1.03522 1.64661 0
M  V30 2682 O 240.282 0.0650683 1.95592 0
M  V30 2683 C 240.581 3.41801 1.04437 0
M  V30 2684 C 240.247 4.50897 0.0159671 0
M  V30 2685 C 238.909 4.8046 -0.266731 0
M  V30 2686 C 241.261 5.16703 -0.683192 0
M  V30 2687 C 238.589 5.73135 -1.25434 0
M  V30 2688 C 240.941 6.10441 -1.65964 0
M  V30 2689 C 239.605 6.38382 -1.95 0
M  V30 2690 H 238.875 0.718048 0.182997 0
M  V30 2691 H 241.522 1.90019 -0.237724 0
M  V30 2692 H 239.827 3.44857 1.85959 0
M  V30 2693 H 241.524 3.69573 1.55618 0
M  V30 2694 H 238.114 4.27891 0.246485 0
M  V30 2695 H 242.298 4.93993 -0.477983 0
M  V30 2696 H 237.554 5.93074 -1.48571 0
M  V30 2697 H 241.728 6.60507 -2.20689 0
M  V30 2698 H 239.355 7.09996 -2.71679 0
M  V30 2699 N 240.93 -0.123565 1.57115 0
M  V30 2700 C 242.178 -0.83051 1.84247 0
M  V30 2701 C 242.499 -1.80629 0.73471 0
M  V30 2702 O 241.769 -1.94403 -0.241688 0
M  V30 2703 H 240.349 -0.309694 0.679778 0
M  V30 2704 H 243.011 -0.111976 1.94578 0
M  V30 2705 H 242.107 -1.37852 2.80006 0
M  V30 2706 N 242.408 -1.52605 -0.393616 0
M  V30 2707 C 243.318 -1.79971 -1.50492 0
M  V30 2708 C 244.334 -0.686181 -1.59899 0
M  V30 2709 O 245.51 -0.973274 -1.76322 0
M  V30 2710 C 242.575 -1.95867 -2.86072 0
M  V30 2711 C 241.636 -3.19781 -2.86424 0
M  V30 2712 C 240.869 -3.34909 -4.15538 0
M  V30 2713 O 241.092 -2.54948 -5.10253 0
M  V30 2714 O 240.026 -4.28141 -4.23059 0
M  V30 2715 H 243.852 -2.74328 -1.30299 0
M  V30 2716 H 241.437 -1.3764 -0.581005 0
M  V30 2717 H 243.319 -2.08056 -3.66457 0
M  V30 2718 H 241.994 -1.04699 -3.063 0
M  V30 2719 H 240.901 -3.13038 -2.04837 0
M  V30 2720 H 242.234 -4.1078 -2.71147 0
M  V30 2721 N 243.887 0.651787 -1.4349 0
M  V30 2722 C 245.303 0.96762 -1.26922 0
M  V30 2723 C 245.503 2.00602 -0.189982 0
M  V30 2724 O 244.559 2.48793 0.431107 0
M  V30 2725 C 245.872 1.45052 -2.63401 0
M  V30 2726 C 247.42 1.5671 -2.70945 0
M  V30 2727 C 247.895 2.0839 -4.07845 0
M  V30 2728 N 249.386 2.1569 -4.09917 0
M  V30 2729 C 250.121 2.56804 -5.12679 0
M  V30 2730 N 249.617 2.97203 -6.25813 0
M  V30 2731 N 251.41 2.56756 -5.00033 0
M  V30 2732 H 243.561 -0.0353158 -2.12371 0
M  V30 2733 H 245.824 0.0467858 -0.946845 0
M  V30 2734 H 245.53 0.761926 -3.43348 0
M  V30 2735 H 245.404 2.42529 -2.88894 0
M  V30 2736 H 247.791 2.2467 -1.9133 0
M  V30 2737 H 247.872 0.57662 -2.49216 0
M  V30 2738 H 247.516 1.41031 -4.87927 0
M  V30 2739 H 247.446 3.08271 -4.26938 0
M  V30 2740 H 249.937 1.87237 -3.28254 0
M  V30 2741 H 250.25 3.27328 -7.00055 0
M  V30 2742 H 248.595 2.95004 -6.29283 0
M  V30 2743 H 251.786 2.24572 -4.10713 0
M  V30 2744 H 251.959 2.88475 -5.80247 0
M  V30 2745 N 245.365 1.30045 0.890287 0
M  V30 2746 C 246.614 1.17929 1.63633 0
M  V30 2747 C 246.927 -0.266204 1.9378 0
M  V30 2748 O 248.133 -0.508804 2.6669 0
M  V30 2749 C 246.589 2.06317 2.94892 0
M  V30 2750 C 246.197 3.55745 2.72305 0
M  V30 2751 C 247.941 2.0295 3.72843 0
M  V30 2752 C 245.848 4.36205 3.99348 0
M  V30 2753 H 244.778 0.437782 0.613892 0
M  V30 2754 H 247.429 1.54754 0.986075 0
M  V30 2755 H 245.811 1.6237 3.61182 0
M  V30 2756 H 246.985 4.07805 2.1455 0
M  V30 2757 H 245.3 3.6088 2.07737 0
M  V30 2758 H 247.897 2.60319 4.67053 0
M  V30 2759 H 248.24 1.0117 4.0382 0
M  V30 2760 H 248.773 2.4499 3.13408 0
M  V30 2761 H 245.512 5.38659 3.73533 0
M  V30 2762 H 245.032 3.8891 4.56628 0
M  V30 2763 H 246.711 4.47362 4.67415 0
M  V30 2764 N 246.843 -1.10192 1.12674 0
M  V30 2765 C 248.254 -1.63707 0.897604 0
M  V30 2766 C 248.605 -1.87812 -0.567546 0
M  V30 2767 O 247.73 -1.62196 -1.43253 0
M  V30 2768 C 248.325 -2.974 1.62292 0
M  V30 2769 C 246.884 -3.47772 1.43986 0
M  V30 2770 C 246.031 -2.22332 1.65722 0
M  V30 2771 H 248.982 -0.936587 1.28116 0
M  V30 2772 H 249.003 -3.64986 1.07541 0
M  V30 2773 H 248.515 -2.79824 2.68924 0
M  V30 2774 H 246.616 -3.70487 0.396206 0
M  V30 2775 H 246.729 -4.25723 2.19765 0
M  V30 2776 H 245.093 -2.30599 1.08149 0
M  V30 2777 H 245.876 -2.07285 2.73657 0
M  V30 2778 N 248.321 -0.919034 -1.28029 0
M  V30 2779 C 249.284 -0.416182 -2.2539 0
M  V30 2780 C 250.284 0.460438 -1.54067 0
M  V30 2781 O 251.474 0.262744 -1.72207 0
M  V30 2782 C 248.606 0.402707 -3.38513 0
M  V30 2783 H 249.799 -1.27629 -2.71387 0
M  V30 2784 H 247.352 -0.698919 -1.39803 0
M  V30 2785 H 248.087 1.282 -2.97885 0
M  V30 2786 H 247.872 -0.225698 -3.9145 0
M  V30 2787 H 249.362 0.745191 -4.10897 0
M  V30 2788 N 249.799 1.42003 -0.683588 0
M  V30 2789 C 250.709 2.34597 -0.0109075 0
M  V30 2790 C 251.725 1.55576 0.779245 0
M  V30 2791 O 252.901 1.88107 0.719555 0
M  V30 2792 C 249.966 3.34199 0.922588 0
M  V30 2793 C 249.027 4.29115 0.125984 0
M  V30 2794 C 248.26 5.23959 1.01502 0
M  V30 2795 O 248.483 5.23952 2.25456 0
M  V30 2796 O 247.417 6.00053 0.47111 0
M  V30 2797 H 251.243 2.93675 -0.773853 0
M  V30 2798 H 248.828 1.42654 -0.443861 0
M  V30 2799 H 250.71 3.95365 1.45823 0
M  V30 2800 H 249.385 2.77582 1.66523 0
M  V30 2801 H 248.292 3.71335 -0.453969 0
M  V30 2802 H 249.625 4.88798 -0.577736 0
M  V30 2803 N 251.277 0.427512 1.51691 0
M  V30 2804 C 252.21 -0.433876 2.24037 0
M  V30 2805 C 253.188 -1.03287 1.25581 0
M  V30 2806 O 254.372 -1.07722 1.54688 0
M  V30 2807 C 251.499 -1.60385 2.98319 0
M  V30 2808 C 250.545 -1.12648 4.11355 0
M  V30 2809 S 251.378 -0.076543 5.35445 0
M  V30 2810 C 252.534 -1.25141 6.13262 0
M  V30 2811 H 252.767 0.180367 2.96752 0
M  V30 2812 H 250.3 0.211946 1.52938 0
M  V30 2813 H 252.258 -2.27462 3.41718 0
M  V30 2814 H 250.919 -2.18948 2.25213 0
M  V30 2815 H 250.112 -2.0011 4.62571 0
M  V30 2816 H 249.714 -0.534088 3.70167 0
M  V30 2817 H 252.006 -2.17162 6.41753 0
M  V30 2818 H 252.949 -0.779411 7.03797 0
M  V30 2819 H 253.357 -1.48553 5.44603 0
M  V30 2820 N 252.755 -1.56801 0.158532 0
M  V30 2821 C 253.718 -2.16138 -0.762705 0
M  V30 2822 C 254.718 -1.1061 -1.16713 0
M  V30 2823 O 255.908 -1.36191 -1.08617 0
M  V30 2824 C 253.04 -2.73386 -2.03649 0
M  V30 2825 H 254.233 -2.98886 -0.246354 0
M  V30 2826 H 251.786 -1.56035 -0.0909744 0
M  V30 2827 H 252.521 -1.94335 -2.59623 0
M  V30 2828 H 252.306 -3.50601 -1.75559 0
M  V30 2829 H 253.796 -3.19065 -2.6942 0
M  V30 2830 N 254.233 0.115231 -1.57178 0
M  V30 2831 C 255.649 0.468877 -1.52557 0
M  V30 2832 C 255.849 1.81649 -0.872125 0
M  V30 2833 O 254.905 2.48347 -0.45606 0
M  V30 2834 C 256.218 0.4499 -2.97315 0
M  V30 2835 C 257.766 0.533185 -3.08425 0
M  V30 2836 C 258.241 0.54456 -4.54751 0
M  V30 2837 N 259.732 0.605892 -4.5922 0
M  V30 2838 C 260.467 0.636203 -5.6986 0
M  V30 2839 N 259.963 0.623931 -6.89985 0
M  V30 2840 N 261.756 0.679496 -5.57978 0
M  V30 2841 H 253.907 -0.767712 -1.9804 0
M  V30 2842 H 256.17 -0.283609 -0.904583 0
M  V30 2843 H 255.876 -0.472721 -3.48509 0
M  V30 2844 H 255.75 1.27632 -3.5495 0
M  V30 2845 H 258.137 1.44623 -2.57232 0
M  V30 2846 H 258.218 -0.320995 -2.53778 0
M  V30 2847 H 257.862 -0.364452 -5.06591 0
M  V30 2848 H 257.792 1.41568 -5.07214 0
M  V30 2849 H 260.283 0.621386 -3.72756 0
M  V30 2850 H 260.596 0.649787 -7.70063 0
M  V30 2851 H 258.941 0.591296 -6.9248 0
M  V30 2852 H 262.132 0.686472 -4.63039 0
M  V30 2853 H 262.305 0.69965 -6.44212 0
M  V30 2854 N 255.711 1.52812 0.385517 0
M  V30 2855 C 256.958 1.68026 1.1302 0
M  V30 2856 C 257.286 0.421934 1.89868 0
M  V30 2857 O 256.541 -0.595749 1.86412 0
M  V30 2858 C 256.84 2.86856 2.13187 0
M  V30 2859 C 256.506 4.24159 1.5297 0
M  V30 2860 C 255.168 4.61501 1.36274 0
M  V30 2861 C 257.52 5.09627 1.09223 0
M  V30 2862 C 254.848 5.81966 0.743837 0
M  V30 2863 C 257.2 6.30719 0.487411 0
M  V30 2864 C 255.864 6.6679 0.307777 0
M  V30 2865 H 255.134 0.614849 0.413571 0
M  V30 2866 H 257.781 1.86962 0.414405 0
M  V30 2867 H 256.086 2.6235 2.90998 0
M  V30 2868 H 257.783 2.95821 2.70722 0
M  V30 2869 H 254.373 3.94746 1.66954 0
M  V30 2870 H 258.557 4.81343 1.20922 0
M  V30 2871 H 253.813 6.08519 0.592891 0
M  V30 2872 H 257.987 6.96259 0.140143 0
M  V30 2873 H 255.614 7.60001 -0.173879 0
M  V30 2874 N 257.189 -0.644168 1.43834 0
M  V30 2875 C 258.419 -1.42939 1.49171 0
M  V30 2876 C 258.827 -1.88874 0.111048 0
M  V30 2877 O 258.17 -1.60656 -0.8908 0
M  V30 2878 C 258.232 -2.69151 2.38324 0
M  V30 2879 C 257.896 -2.45097 3.85715 0
M  V30 2880 C 258.893 -2.07747 4.76589 0
M  V30 2881 C 256.578 -2.59141 4.30292 0
M  V30 2882 C 258.572 -1.8475 6.10038 0
M  V30 2883 C 256.259 -2.35759 5.63792 0
M  V30 2884 C 257.257 -1.9862 6.53482 0
M  V30 2885 O 256.945 -1.75489 7.84512 0
M  V30 2886 H 256.677 -0.445271 0.508635 0
M  V30 2887 H 259.231 -0.79621 1.8934 0
M  V30 2888 H 257.461 -3.3506 1.93058 0
M  V30 2889 H 259.15 -3.31123 2.3476 0
M  V30 2890 H 259.916 -1.96465 4.43426 0
M  V30 2891 H 255.795 -2.87022 3.60749 0
M  V30 2892 H 259.339 -1.55686 6.80006 0
M  V30 2893 H 255.236 -2.46646 5.9652 0
M  V30 2894 H 256.004 -1.89841 7.9618 0
M  V30 2895 N 258.668 -1.30515 -0.883378 0
M  V30 2896 C 259.598 -1.19607 -2.00541 0
M  V30 2897 C 260.579 -0.086346 -1.69881 0
M  V30 2898 O 261.764 -0.268654 -1.92333 0
M  V30 2899 C 258.894 -0.888758 -3.35736 0
M  V30 2900 C 257.848 -1.95659 -3.8066 0
M  V30 2901 C 257.174 -1.50224 -5.13164 0
M  V30 2902 C 258.474 -3.36788 -3.99213 0
M  V30 2903 H 260.168 -2.13476 -2.09925 0
M  V30 2904 H 257.714 -1.02775 -1.00863 0
M  V30 2905 H 259.667 -0.799094 -4.13754 0
M  V30 2906 H 258.391 0.0856125 -3.26488 0
M  V30 2907 H 257.05 -2.03591 -3.04871 0
M  V30 2908 H 256.698 -0.516092 -5.00345 0
M  V30 2909 H 256.398 -2.2165 -5.44192 0
M  V30 2910 H 257.922 -1.42639 -5.93706 0
M  V30 2911 H 259.336 -3.31605 -4.67665 0
M  V30 2912 H 257.733 -4.06314 -4.41621 0
M  V30 2913 H 258.803 -3.78561 -3.03017 0
M  V30 2914 N 260.146 1.09593 -1.13257 0
M  V30 2915 C 261.109 2.14359 -0.811358 0
M  V30 2916 C 262.109 1.59808 0.178377 0
M  V30 2917 O 263.299 1.74132 -0.0484911 0
M  V30 2918 C 260.431 3.40269 -0.207276 0
M  V30 2919 H 261.624 2.44284 -1.73969 0
M  V30 2920 H 259.177 1.25102 -0.936973 0
M  V30 2921 H 259.912 3.15969 0.73036 0
M  V30 2922 H 259.697 3.81154 -0.919992 0
M  V30 2923 H 261.187 4.176 0.000667944 0
M  V30 2924 N 261.624 0.925811 1.2754 0
M  V30 2925 C 262.534 0.428993 2.30644 0
M  V30 2926 C 263.55 -0.489387 1.66976 0
M  V30 2927 O 264.726 -0.372653 1.97922 0
M  V30 2928 C 261.791 -0.311967 3.45294 0
M  V30 2929 C 260.852 0.641098 4.24486 0
M  V30 2930 C 260.085 -0.0645955 5.33661 0
M  V30 2931 O 260.308 -1.28429 5.55754 0
M  V30 2932 O 259.242 0.606265 5.98839 0
M  V30 2933 H 263.068 1.28504 2.75173 0
M  V30 2934 H 260.653 0.691086 1.32455 0
M  V30 2935 H 262.535 -0.729972 4.15029 0
M  V30 2936 H 261.21 -1.14365 3.02824 0
M  V30 2937 H 260.117 1.10874 3.57292 0
M  V30 2938 H 261.45 1.43995 4.70666 0
M  V30 2939 N 263.102 -1.41638 0.69111 0
M  V30 2940 C 264.351 -2.00526 0.217318 0
M  V30 2941 C 264.664 -1.55353 -1.18848 0
M  V30 2942 O 265.87 -2.06769 -1.75951 0
M  V30 2943 C 264.326 -3.58313 0.337639 0
M  V30 2944 C 263.934 -4.12469 1.74852 0
M  V30 2945 C 265.678 -4.24431 -0.0766066 0
M  V30 2946 C 263.585 -5.62675 1.82074 0
M  V30 2947 H 262.515 -0.750008 0.0774893 0
M  V30 2948 H 265.166 -1.6217 0.858661 0
M  V30 2949 H 263.548 -3.9425 -0.371879 0
M  V30 2950 H 264.722 -3.8796 2.48644 0
M  V30 2951 H 263.037 -3.58861 2.11205 0
M  V30 2952 H 265.634 -5.34683 -0.0430284 0
M  V30 2953 H 265.977 -4.01101 -1.1146 0
M  V30 2954 H 266.51 -3.93512 0.582476 0
M  V30 2955 H 263.249 -5.90826 2.83911 0
M  V30 2956 H 262.769 -5.89124 1.12661 0
M  V30 2957 H 264.448 -6.27371 1.58159 0
M  V30 2958 N 264.58 -0.43555 -1.51462 0
M  V30 2959 C 265.826 0.131709 -2.02372 0
M  V30 2960 C 266.159 1.42516 -1.3192 0
M  V30 2961 O 265.434 1.89606 -0.433573 0
M  V30 2962 C 265.717 0.352301 -3.58373 0
M  V30 2963 C 265.57 -0.959676 -4.39443 0
M  V30 2964 C 266.889 1.12286 -4.25535 0
M  V30 2965 H 264.008 0.0463936 -0.735538 0
M  V30 2966 H 266.65 -0.574197 -1.81116 0
M  V30 2967 H 264.8 0.9536 -3.76615 0
M  V30 2968 H 266.472 -1.59482 -4.32855 0
M  V30 2969 H 264.715 -1.56468 -4.04599 0
M  V30 2970 H 265.386 -0.759394 -5.46752 0
M  V30 2971 H 267.862 0.613545 -4.11552 0
M  V30 2972 H 266.738 1.24598 -5.34571 0
M  V30 2973 H 266.999 2.15048 -3.86273 0
M  V30 2974 N 266.058 1.56714 -0.166846 0
M  V30 2975 C 266.991 2.13577 0.80375 0
M  V30 2976 C 267.969 1.06464 1.22899 0
M  V30 2977 O 269.153 1.34413 1.32157 0
M  V30 2978 C 266.28 2.67168 2.0818 0
M  V30 2979 C 265.326 3.86612 1.80093 0
M  V30 2980 S 266.159 5.26565 0.97416 0
M  V30 2981 C 267.315 5.83558 2.26297 0
M  V30 2982 H 267.548 2.9557 0.320267 0
M  V30 2983 H 265.081 1.54326 0.0477555 0
M  V30 2984 H 267.039 2.98692 2.8159 0
M  V30 2985 H 265.7 1.85269 2.53642 0
M  V30 2986 H 264.893 4.22422 2.7491 0
M  V30 2987 H 264.495 3.55951 1.14781 0
M  V30 2988 H 266.787 5.962 3.21795 0
M  V30 2989 H 267.73 6.80731 1.94962 0
M  V30 2990 H 268.138 5.11944 2.37853 0
M  V30 2991 N 267.536 -0.106894 1.57237 0
M  V30 2992 C 268.499 -1.11466 2.0027 0
M  V30 2993 C 269.499 -1.33623 0.894519 0
M  V30 2994 O 270.689 -1.29935 1.16028 0
M  V30 2995 C 267.821 -2.46646 2.35327 0
M  V30 2996 H 269.014 -0.744516 2.90512 0
M  V30 2997 H 266.567 -0.351576 1.52295 0
M  V30 2998 H 267.302 -2.88558 1.48003 0
M  V30 2999 H 267.087 -2.31915 3.16161 0
M  V30 3000 H 268.577 -3.19151 2.69318 0
M  V30 3001 N 269.014 -1.53014 -0.377408 0
M  V30 3002 C 270.263 -1.67845 -1.11853 0
M  V30 3003 C 270.576 -0.430625 -1.90801 0
M  V30 3004 O 271.782 -0.459261 -2.67587 0
M  V30 3005 C 270.238 -2.96668 -2.03756 0
M  V30 3006 C 269.846 -4.28671 -1.30175 0
M  V30 3007 C 271.59 -3.20865 -2.77932 0
M  V30 3008 C 269.497 -5.48591 -2.20911 0
M  V30 3009 H 268.427 -0.625343 -0.421263 0
M  V30 3010 H 271.078 -1.79514 -0.380409 0
M  V30 3011 H 269.46 -2.78773 -2.8125 0
M  V30 3012 H 270.634 -4.57157 -0.578259 0
M  V30 3013 H 268.949 -4.10825 -0.679108 0
M  V30 3014 H 271.546 -4.07642 -3.46024 0
M  V30 3015 H 271.889 -2.36424 -3.4265 0
M  V30 3016 H 272.422 -3.39379 -2.07525 0
M  V30 3017 H 269.161 -6.35474 -1.6079 0
M  V30 3018 H 268.681 -5.244 -2.91144 0
M  V30 3019 H 270.36 -5.8292 -2.80736 0
M  V30 3020 N 270.492 0.636531 -1.44174 0
M  V30 3021 C 271.769 1.39463 -1.37148 0
M  V30 3022 C 272.149 2.11082 -0.027507 0
M  V30 3023 O 271.497 2.05954 0.989716 0
M  V30 3024 C 271.707 2.36552 -2.56601 0
M  V30 3025 C 273.055 3.00048 -3.00427 0
M  V30 3026 O 274.079 2.46878 -2.56767 0
M  V30 3027 O 272.938 3.96488 -3.76111 0
M  V30 3028 H 270.032 0.623903 -0.542839 0
M  V30 3029 H 272.578 0.662039 -1.56253 0
M  V30 3030 H 271.35 1.82692 -3.46034 0
M  V30 3031 H 270.973 3.17236 -2.39681 0
M  V30 3032 N 271.97 1.30982 0.876444 0
M  V30 3033 C 273.195 1.23373 1.66715 0
M  V30 3034 C 273.62 -0.19885 1.87046 0
M  V30 3035 O 272.978 -1.1427 1.40756 0
M  V30 3036 C 273.026 1.97644 3.01611 0
M  V30 3037 O 272.13 1.30935 3.91062 0
M  V30 3038 H 271.471 0.426279 0.509099 0
M  V30 3039 H 274.001 1.72944 1.09323 0
M  V30 3040 H 274.011 2.06992 3.51594 0
M  V30 3041 H 272.686 3.01829 2.86133 0
M  V30 3042 H 271.263 1.29996 3.49507 0
M  V30 3043 N 273.449 -1.08991 1.13837 0
M  V30 3044 C 274.695 -1.81526 0.90422 0
M  V30 3045 C 275.028 -1.85706 -0.568066 0
M  V30 3046 O 274.303 -1.32855 -1.42056 0
M  V30 3047 C 274.586 -3.27447 1.49835 0
M  V30 3048 C 274.439 -3.31512 3.04006 0
M  V30 3049 C 275.758 -4.24256 1.17025 0
M  V30 3050 H 272.877 -0.659029 0.329923 0
M  V30 3051 H 275.519 -1.27644 1.40737 0
M  V30 3052 H 273.669 -3.73462 1.07044 0
M  V30 3053 H 275.341 -2.93867 3.55584 0
M  V30 3054 H 273.584 -2.70963 3.38765 0
M  V30 3055 H 274.255 -4.34329 3.40679 0
M  V30 3056 H 276.731 -3.86549 1.54009 0
M  V30 3057 H 275.607 -5.24684 1.61237 0
M  V30 3058 H 275.868 -4.42019 0.0846274 0
M  V30 3059 N 274.927 -0.932562 -1.27047 0
M  V30 3060 C 275.877 -0.406392 -2.24349 0
M  V30 3061 C 276.861 0.492066 -1.53191 0
M  V30 3062 O 278.053 0.328717 -1.73921 0
M  V30 3063 C 275.182 0.335214 -3.41659 0
M  V30 3064 C 274.268 -0.58004 -4.20115 0
M  V30 3065 N 274.659 -1.70203 -4.76303 0
M  V30 3066 C 272.957 -0.383974 -4.44344 0
M  V30 3067 C 273.658 -2.27167 -5.35509 0
M  V30 3068 N 272.634 -1.56068 -5.20715 0
M  V30 3069 H 276.436 -1.26299 -2.65378 0
M  V30 3070 H 273.95 -0.787408 -1.42034 0
M  V30 3071 H 275.947 0.729142 -4.10474 0
M  V30 3072 H 274.607 1.18868 -3.0216 0
M  V30 3073 H 275.618 -2.08433 -4.74106 0
M  V30 3074 H 272.295 0.428436 -4.15296 0
M  V30 3075 H 273.685 -3.21654 -5.89905 0
M  V30 3076 N 276.405 1.4127 -0.698611 0
M  V30 3077 C 277.821 1.55241 -0.370462 0
M  V30 3078 C 278.021 1.67351 1.12231 0
M  V30 3079 O 277.077 1.65363 1.90818 0
M  V30 3080 C 278.39 2.78997 -1.12165 0
M  V30 3081 C 279.938 2.92797 -1.1063 0
M  V30 3082 C 280.413 4.19445 -1.8393 0
M  V30 3083 N 281.904 4.26409 -1.80914 0
M  V30 3084 C 282.639 5.23271 -2.34467 0
M  V30 3085 N 282.135 6.26145 -2.96504 0
M  V30 3086 N 283.928 5.15232 -2.24706 0
M  V30 3087 H 276.079 1.31654 -1.66676 0
M  V30 3088 H 278.342 0.635393 -0.703548 0
M  V30 3089 H 278.048 2.76268 -2.17644 0
M  V30 3090 H 277.922 3.70606 -0.702209 0
M  V30 3091 H 280.309 2.95039 -0.0597713 0
M  V30 3092 H 280.39 2.02353 -1.56483 0
M  V30 3093 H 280.034 4.17964 -2.88563 0
M  V30 3094 H 279.964 5.08866 -1.35509 0
M  V30 3095 H 282.455 3.527 -1.35687 0
M  V30 3096 H 282.768 6.96451 -3.34927 0
M  V30 3097 H 281.113 6.26638 -3.00583 0
M  V30 3098 H 284.304 4.33789 -1.7591 0
M  V30 3099 H 284.477 5.90552 -2.66745 0
M  V30 3100 N 277.883 0.443576 1.51229 0
M  V30 3101 C 278.813 -0.355142 2.30783 0
M  V30 3102 C 279.794 -1.0154 1.36468 0
M  V30 3103 O 280.979 -1.01785 1.65389 0
M  V30 3104 C 278.109 -1.45312 3.15439 0
M  V30 3105 C 277.063 -0.916002 4.18083 0
M  V30 3106 C 276.389 -2.1102 4.91299 0
M  V30 3107 C 277.689 0.0538602 5.22272 0
M  V30 3108 H 279.383 0.308767 2.97804 0
M  V30 3109 H 276.929 0.149937 1.43217 0
M  V30 3110 H 278.882 -2.01914 3.69876 0
M  V30 3111 H 277.606 -2.14541 2.46252 0
M  V30 3112 H 276.265 -0.372145 3.64706 0
M  V30 3113 H 275.913 -2.78882 4.18609 0
M  V30 3114 H 275.613 -1.75717 5.60712 0
M  V30 3115 H 277.137 -2.68164 5.48562 0
M  V30 3116 H 278.551 -0.422069 5.71744 0
M  V30 3117 H 276.948 0.319776 5.99247 0
M  V30 3118 H 278.018 0.98858 4.74716 0
M  V30 3119 N 279.361 -1.56624 0.175154 0
M  V30 3120 C 280.609 -1.96609 -0.467885 0
M  V30 3121 C 280.93 -1.06238 -1.63519 0
M  V30 3122 O 280.2 -0.129523 -1.95471 0
M  V30 3123 H 278.78 -0.726008 -0.175845 0
M  V30 3124 H 281.442 -1.93195 0.257234 0
M  V30 3125 H 280.538 -3.00989 -0.825342 0
M  V30 3126 N 280.839 0.0985539 -1.57292 0
M  V30 3127 C 282.069 0.815135 -1.8984 0
M  V30 3128 C 282.477 1.7297 -0.766679 0
M  V30 3129 O 281.82 1.81698 0.270483 0
M  V30 3130 C 281.882 1.6842 -3.17608 0
M  V30 3131 C 281.546 0.94182 -4.4719 0
M  V30 3132 C 282.543 0.273212 -5.19182 0
M  V30 3133 C 280.228 0.916927 -4.9386 0
M  V30 3134 C 282.222 -0.410361 -6.36078 0
M  V30 3135 C 279.909 0.229567 -6.10669 0
M  V30 3136 C 280.907 -0.432902 -6.81627 0
M  V30 3137 O 280.595 -1.10925 -7.9621 0
M  V30 3138 H 280.327 0.238501 -0.632529 0
M  V30 3139 H 282.881 0.0812659 -2.05239 0
M  V30 3140 H 281.111 2.46022 -2.98345 0
M  V30 3141 H 282.8 2.27704 -3.36015 0
M  V30 3142 H 283.566 0.283927 -4.84168 0
M  V30 3143 H 279.445 1.42201 -4.3852 0
M  V30 3144 H 282.989 -0.928013 -6.914 0
M  V30 3145 H 278.886 0.216686 -6.45136 0
M  V30 3146 H 279.654 -1.01579 -8.12172 0
M  V30 3147 N 282.317 1.53212 0.369288 0
M  V30 3148 C 283.563 1.69466 1.11397 0
M  V30 3149 C 283.896 0.443257 1.89074 0
M  V30 3150 O 283.171 -0.559386 1.86282 0
M  V30 3151 C 283.454 2.9422 2.07621 0
M  V30 3152 C 283.307 4.29508 1.33577 0
M  V30 3153 C 284.626 3.14565 3.07794 0
M  V30 3154 H 281.745 0.616667 0.403597 0
M  V30 3155 H 284.387 1.85845 0.395179 0
M  V30 3156 H 282.537 2.80387 2.68916 0
M  V30 3157 H 284.209 4.55147 0.750955 0
M  V30 3158 H 282.452 4.29088 0.637618 0
M  V30 3159 H 283.123 5.12926 2.03989 0
M  V30 3160 H 285.599 3.2756 2.56601 0
M  V30 3161 H 284.475 4.03297 3.72348 0
M  V30 3162 H 284.736 2.29675 3.77759 0
M  V30 3163 N 283.795 -0.628877 1.44509 0
M  V30 3164 C 284.745 -1.7345 1.47983 0
M  V30 3165 C 285.729 -1.5715 0.345373 0
M  V30 3166 O 286.921 -1.66848 0.590829 0
M  V30 3167 C 284.05 -3.12143 1.42904 0
M  V30 3168 C 283.136 -3.33906 2.61472 0
M  V30 3169 N 283.527 -3.26024 3.86706 0
M  V30 3170 C 281.825 -3.64709 2.56716 0
M  V30 3171 C 282.526 -3.48536 4.65722 0
M  V30 3172 N 281.502 -3.71517 3.96832 0
M  V30 3173 H 285.304 -1.65818 2.42655 0
M  V30 3174 H 282.818 -0.831419 1.39503 0
M  V30 3175 H 284.815 -3.91433 1.43476 0
M  V30 3176 H 283.475 -3.2094 0.492717 0
M  V30 3177 H 284.486 -3.04893 4.18641 0
M  V30 3178 H 281.163 -3.80473 1.71891 0
M  V30 3179 H 282.553 -3.48016 5.74747 0
M  V30 3180 N 285.273 -1.31445 -0.869486 0
M  V30 3181 C 286.689 -1.10113 -1.15531 0
M  V30 3182 C 286.889 0.128087 -2.01092 0
M  V30 3183 O 285.945 0.817276 -2.38908 0
M  V30 3184 C 287.258 -2.37291 -1.84698 0
M  V30 3185 C 288.806 -2.42906 -1.97397 0
M  V30 3186 C 289.281 -3.69967 -2.69979 0
M  V30 3187 N 290.772 -3.70864 -2.77514 0
M  V30 3188 C 291.507 -4.65875 -3.34287 0
M  V30 3189 N 291.003 -5.71242 -3.91988 0
M  V30 3190 N 292.796 -4.53394 -3.3225 0
M  V30 3191 H 284.947 -2.1028 -0.299347 0
M  V30 3192 H 287.21 -0.927683 -0.195214 0
M  V30 3193 H 286.916 -3.27078 -1.29278 0
M  V30 3194 H 286.79 -2.47125 -2.84972 0
M  V30 3195 H 289.177 -1.53588 -2.51982 0
M  V30 3196 H 289.258 -2.37036 -0.961643 0
M  V30 3197 H 288.902 -4.59652 -2.16062 0
M  V30 3198 H 288.832 -3.73103 -3.7162 0
M  V30 3199 H 291.323 -2.94697 -2.36563 0
M  V30 3200 H 291.636 -6.39817 -4.33421 0
M  V30 3201 H 289.981 -5.75015 -3.90362 0
M  V30 3202 H 293.172 -3.70252 -2.8641 0
M  V30 3203 H 293.345 -5.27617 -3.76197 0
M  V30 3204 N 286.751 1.08385 -1.14413 0
M  V30 3205 C 288.028 1.77429 -0.823297 0
M  V30 3206 C 288.408 1.9974 0.683163 0
M  V30 3207 O 287.756 1.60739 1.62405 0
M  V30 3208 C 287.966 3.09004 -1.62227 0
M  V30 3209 C 289.314 3.83532 -1.82177 0
M  V30 3210 O 290.338 3.18786 -1.58915 0
M  V30 3211 O 289.197 4.99792 -2.21067 0
M  V30 3212 H 286.291 0.769999 -0.301712 0
M  V30 3213 H 288.837 1.14846 -1.24934 0
M  V30 3214 H 287.609 2.88316 -2.64555 0
M  V30 3215 H 287.232 3.79316 -1.19187 0
M  V30 3216 N 288.23 0.939286 1.26551 0
M  V30 3217 C 289.479 0.581601 1.93133 0
M  V30 3218 C 289.792 -0.883224 1.74524 0
M  V30 3219 O 290.998 -1.3502 2.35546 0
M  V30 3220 C 289.454 0.989425 3.46032 0
M  V30 3221 C 289.062 2.47573 3.73379 0
M  V30 3222 C 290.806 0.703544 4.18629 0
M  V30 3223 C 288.713 2.82235 5.19709 0
M  V30 3224 H 287.643 0.213803 0.723052 0
M  V30 3225 H 290.294 1.14167 1.4366 0
M  V30 3226 H 288.676 0.357902 3.94379 0
M  V30 3227 H 289.85 3.15614 3.35744 0
M  V30 3228 H 288.165 2.73471 3.1401 0
M  V30 3229 H 290.762 0.938869 5.26393 0
M  V30 3230 H 291.105 -0.359639 4.14744 0
M  V30 3231 H 291.638 1.2947 3.76141 0
M  V30 3232 H 288.377 3.87509 5.28694 0
M  V30 3233 H 287.897 2.18854 5.58447 0
M  V30 3234 H 289.576 2.70599 5.87695 0
M  V30 3235 N 289.708 -1.40897 0.706093 0
M  V30 3236 C 290.655 -2.30751 0.0474474 0
M  V30 3237 C 291.625 -1.47678 -0.76029 0
M  V30 3238 O 292.81 -1.76441 -0.726177 0
M  V30 3239 C 289.95 -3.33815 -0.875309 0
M  V30 3240 C 289.063 -4.31961 -0.0580623 0
M  V30 3241 C 288.198 -5.22093 -0.979425 0
M  V30 3242 C 287.237 -6.11902 -0.155706 0
M  V30 3243 N 286.374 -6.94482 -1.03144 0
M  V30 3244 H 291.214 -2.86513 0.819413 0
M  V30 3245 H 288.751 -1.41102 0.415783 0
M  V30 3246 H 290.709 -3.92129 -1.42446 0
M  V30 3247 H 289.339 -2.79579 -1.61356 0
M  V30 3248 H 288.391 -3.75507 0.608147 0
M  V30 3249 H 289.703 -4.95415 0.580082 0
M  V30 3250 H 288.857 -5.85292 -1.59744 0
M  V30 3251 H 287.596 -4.5889 -1.65141 0
M  V30 3252 H 286.601 -5.47742 0.475309 0
M  V30 3253 H 287.826 -6.77162 0.512635 0
M  V30 3254 H 285.772 -6.33877 -1.68924 0
M  V30 3255 H 285.689 -7.54665 -0.449108 0
M  V30 3256 H 286.957 -7.6214 -1.63593 0
M  V30 3257 N 291.186 -0.45159 -1.50991 0
M  V30 3258 C 292.597 0.00818571 -1.86698 0
M  V30 3259 C 292.948 1.40661 -1.3678 0
M  V30 3260 O 292.073 2.0391 -0.724546 0
M  V30 3261 C 292.668 0.0216303 -3.38793 0
M  V30 3262 C 291.227 0.425865 -3.73983 0
M  V30 3263 C 290.374 -0.372163 -2.74791 0
M  V30 3264 H 293.325 -0.666785 -1.44013 0
M  V30 3265 H 293.346 0.828078 -3.7138 0
M  V30 3266 H 292.858 -0.996288 -3.75094 0
M  V30 3267 H 290.959 1.44886 -3.43277 0
M  V30 3268 H 291.072 0.140761 -4.78893 0
M  V30 3269 H 289.436 0.171498 -2.54122 0
M  V30 3270 H 290.219 -1.38922 -3.13935 0
M  V30 3271 N 292.664 1.56529 -0.183458 0
M  V30 3272 C 293.941 1.88959 0.50536 0
M  V30 3273 C 294.321 1.09523 1.80466 0
M  V30 3274 O 293.669 0.19278 2.27685 0
M  V30 3275 C 293.879 3.41162 0.73547 0
M  V30 3276 C 295.227 4.11155 1.06005 0
M  V30 3277 O 296.251 3.46548 0.823594 0
M  V30 3278 O 295.11 5.25318 1.50675 0
M  V30 3279 H 292.204 0.78441 0.261973 0
M  V30 3280 H 294.75 1.68231 -0.222802 0
M  V30 3281 H 293.522 3.90874 -0.182561 0
M  V30 3282 H 293.145 3.67543 1.51651 0
M  V30 3283 N 294.142 -0.090211 1.57342 0
M  V30 3284 C 295.09 -1.12792 2.03422 0
M  V30 3285 C 296.084 -1.41182 0.936166 0
M  V30 3286 O 297.29 -1.40805 1.12133 0
M  V30 3287 H 293.665 -0.380986 0.648347 0
M  V30 3288 H 295.636 -0.71299 2.89757 0
M  V30 3289 C 294.385 -2.43855 2.47851 0
M  V30 3290 H 293.708 -2.22855 3.31927 0
M  V30 3291 H 295.148 -3.14955 2.83865 0
M  V30 3292 C 293.607 -3.08503 1.3538 0
M  V30 3293 O 294.137 -3.95805 0.685641 0
M  V30 3294 N 292.343 -2.68831 1.10355 0
M  V30 3295 H 291.89 -1.97929 1.64869 0
M  V30 3296 H 291.848 -3.12412 0.353031 0
M  V30 3297 N 295.62 -1.53406 -0.361157 0
M  V30 3298 C 296.869 -1.69022 -1.10066 0
M  V30 3299 C 297.182 -0.450838 -1.90333 0
M  V30 3300 O 298.388 -0.487617 -2.67085 0
M  V30 3301 C 296.844 -2.98812 -2.00598 0
M  V30 3302 C 296.452 -4.30027 -1.25621 0
M  V30 3303 C 298.196 -3.23795 -2.74513 0
M  V30 3304 C 296.103 -5.50903 -2.1508 0
M  V30 3305 H 295.033 -0.629776 -0.414606 0
M  V30 3306 H 297.684 -1.79907 -0.361348 0
M  V30 3307 H 296.066 -2.8174 -2.78278 0
M  V30 3308 H 297.24 -4.57745 -0.529739 0
M  V30 3309 H 295.555 -4.11522 -0.635496 0
M  V30 3310 H 298.152 -4.11289 -3.41681 0
M  V30 3311 H 298.495 -2.40045 -3.40123 0
M  V30 3312 H 299.028 -3.41561 -2.03914 0
M  V30 3313 H 295.767 -6.37143 -1.54041 0
M  V30 3314 H 295.287 -5.27459 -2.85565 0
M  V30 3315 H 296.966 -5.85865 -2.74538 0
M  V30 3316 N 297.098 0.621204 -1.44841 0
M  V30 3317 C 298.028 1.74366 -1.55303 0
M  V30 3318 C 299.009 1.65199 -0.405385 0
M  V30 3319 O 300.194 1.83807 -0.626787 0
M  V30 3320 C 297.324 3.12931 -1.50637 0
M  V30 3321 C 296.278 3.36896 -2.63979 0
M  V30 3322 C 295.604 4.75594 -2.44366 0
M  V30 3323 C 296.904 3.28483 -4.06074 0
M  V30 3324 H 298.598 1.65867 -2.49256 0
M  V30 3325 H 296.144 0.796558 -1.19962 0
M  V30 3326 H 298.097 3.9124 -1.56555 0
M  V30 3327 H 296.821 3.22237 -0.532057 0
M  V30 3328 H 295.48 2.60972 -2.57467 0
M  V30 3329 H 295.128 4.81616 -1.45105 0
M  V30 3330 H 294.828 4.92586 -3.20364 0
M  V30 3331 H 296.352 5.5612 -2.52117 0
M  V30 3332 H 297.766 3.96684 -4.13902 0
M  V30 3333 H 296.163 3.57008 -4.82354 0
M  V30 3334 H 297.233 2.26133 -4.28943 0
M  V30 3335 N 298.576 1.31904 0.862503 0
M  V30 3336 C 299.506 1.22782 1.98612 0
M  V30 3337 C 300.487 0.113362 1.69722 0
M  V30 3338 O 301.672 0.299218 1.91881 0
M  V30 3339 C 298.802 0.942058 3.34279 0
M  V30 3340 C 297.756 2.0169 3.77499 0
M  V30 3341 C 297.082 1.58369 5.10709 0
M  V30 3342 C 298.382 3.43096 3.93805 0
M  V30 3343 H 300.076 2.16788 2.06502 0
M  V30 3344 H 297.622 1.04366 0.992154 0
M  V30 3345 H 299.575 0.864818 4.1243 0
M  V30 3346 H 298.299 -0.0336603 3.26583 0
M  V30 3347 H 296.958 2.08416 3.01593 0
M  V30 3348 H 296.606 0.595628 4.99461 0
M  V30 3349 H 296.306 2.30279 5.40597 0
M  V30 3350 H 297.83 1.52067 5.91361 0
M  V30 3351 H 299.244 3.39003 4.62331 0
M  V30 3352 H 297.641 4.13288 4.35101 0
M  V30 3353 H 298.711 3.83334 2.96957 0
M  V30 3354 N 300.054 -1.07777 1.14986 0
M  V30 3355 C 301.331 -1.7699 0.832695 0
M  V30 3356 C 301.711 -2.001 -0.672561 0
M  V30 3357 O 301.059 -1.61598 -1.6155 0
M  V30 3358 C 301.269 -3.08139 1.63863 0
M  V30 3359 C 302.617 -3.8256 1.84208 0
M  V30 3360 O 303.641 -3.17939 1.60603 0
M  V30 3361 O 302.5 -4.98612 2.23714 0
M  V30 3362 H 299.594 -0.768389 0.305791 0
M  V30 3363 H 302.14 -1.14182 1.25541 0
M  V30 3364 H 300.912 -2.86909 2.6608 0
M  V30 3365 H 300.535 -3.78678 1.21197 0
M  V30 3366 N 301.532 -0.945985 -1.26051 0
M  V30 3367 C 302.948 -0.649045 -1.45807 0
M  V30 3368 C 303.148 0.796158 -1.85104 0
M  V30 3369 O 302.204 1.57233 -1.97571 0
M  V30 3370 C 303.517 -1.61458 -2.53677 0
M  V30 3371 C 305.065 -1.62481 -2.67524 0
M  V30 3372 C 305.54 -2.57776 -3.7857 0
M  V30 3373 N 307.031 -2.5609 -3.85969 0
M  V30 3374 C 307.766 -3.26508 -4.7136 0
M  V30 3375 N 307.262 -4.0637 -5.61102 0
M  V30 3376 N 309.055 -3.15437 -4.65248 0
M  V30 3377 H 301.206 -1.88005 -0.988328 0
M  V30 3378 H 303.469 -0.808198 -0.4955 0
M  V30 3379 H 303.175 -2.64644 -2.31638 0
M  V30 3380 H 303.049 -1.37036 -3.51427 0
M  V30 3381 H 305.436 -0.600167 -2.88933 0
M  V30 3382 H 305.517 -1.90958 -1.70202 0
M  V30 3383 H 305.161 -3.60361 -3.57913 0
M  V30 3384 H 305.091 -2.26587 -4.75359 0
M  V30 3385 H 307.582 -1.98105 -3.21812 0
M  V30 3386 H 307.895 -4.57042 -6.23164 0
M  V30 3387 H 306.24 -4.10469 -5.60839 0
M  V30 3388 H 309.431 -2.52525 -3.94143 0
M  V30 3389 H 309.604 -3.70584 -5.31575 0
M  V30 3390 N 303.011 1.40521 -0.713556 0
M  V30 3391 C 304.251 2.02783 -0.256584 0
M  V30 3392 C 304.615 1.55352 1.12827 0
M  V30 3393 O 305.816 2.09663 1.68211 0
M  V30 3394 C 304.087 3.5586 -0.331414 0
M  V30 3395 S 305.646 4.38773 0.0488703 0
M  V30 3396 H 302.464 0.703655 -0.101934 0
M  V30 3397 H 305.066 1.71674 -0.935325 0
M  V30 3398 H 303.77 3.87874 -1.34098 0
M  V30 3399 H 303.301 3.91695 0.365873 0
M  V30 3400 H 305.316 4.79633 1.2715 0
M  V30 3401 N 304.489 0.459591 1.5075 0
M  V30 3402 C 305.737 -0.0991532 2.01857 0
M  V30 3403 C 306.058 -1.41247 1.34441 0
M  V30 3404 O 305.328 -1.89775 0.486022 0
M  V30 3405 H 303.908 -0.039633 0.745948 0
M  V30 3406 H 306.57 0.607387 1.85194 0
M  V30 3407 H 305.666 -0.258998 3.11023 0
M  V30 3408 N 305.967 -1.56429 0.191757 0
M  V30 3409 C 306.917 -2.15548 -0.743184 0
M  V30 3410 C 307.901 -1.09531 -1.17863 0
M  V30 3411 O 309.093 -1.35602 -1.13759 0
M  V30 3412 C 306.222 -2.81577 -1.96391 0
M  V30 3413 C 305.308 -3.9478 -1.54951 0
M  V30 3414 N 305.699 -4.98677 -0.845876 0
M  V30 3415 C 303.997 -4.06319 -1.83905 0
M  V30 3416 C 304.698 -5.78183 -0.638724 0
M  V30 3417 N 303.674 -5.30495 -1.18643 0
M  V30 3418 H 307.476 -2.9324 -0.196839 0
M  V30 3419 H 304.99 -1.62398 -0.0081603 0
M  V30 3420 H 306.987 -3.22321 -2.64415 0
M  V30 3421 H 305.647 -2.05371 -2.51501 0
M  V30 3422 H 306.658 -5.15464 -0.501704 0
M  V30 3423 H 303.335 -3.41238 -2.40548 0
M  V30 3424 H 304.725 -6.71851 -0.0807929 0
M  V30 3425 N 307.445 0.0818655 -1.57387 0
M  V30 3426 C 308.694 0.781681 -1.85937 0
M  V30 3427 C 309.007 1.79246 -0.782957 0
M  V30 3428 O 310.213 2.54112 -0.955987 0
M  V30 3429 C 308.669 1.44109 -3.29789 0
M  V30 3430 C 308.277 0.469396 -4.45534 0
M  V30 3431 C 310.021 2.12386 -3.67549 0
M  V30 3432 C 307.928 1.13415 -5.80423 0
M  V30 3433 H 306.858 0.295682 -0.693605 0
M  V30 3434 H 309.509 0.0348051 -1.83467 0
M  V30 3435 H 307.891 2.23588 -3.2684 0
M  V30 3436 H 309.065 -0.294856 -4.59856 0
M  V30 3437 H 307.38 -0.108383 -4.16259 0
M  V30 3438 H 309.977 2.62878 -4.65617 0
M  V30 3439 H 310.32 2.91877 -2.96839 0
M  V30 3440 H 310.853 1.39751 -3.72444 0
M  V30 3441 H 307.592 0.379771 -6.54399 0
M  V30 3442 H 307.112 1.8695 -5.69921 0
M  V30 3443 H 308.791 1.65686 -6.25426 0
M  V30 3444 N 308.923 1.53595 0.353017 0
M  V30 3445 C 310.339 1.43648 0.695516 0
M  V30 3446 C 310.539 0.585617 1.92802 0
M  V30 3447 O 309.595 0.0729223 2.52395 0
M  V30 3448 C 310.908 2.8701 0.896991 0
M  V30 3449 C 312.456 2.96723 0.996209 0
M  V30 3450 C 312.931 4.41173 1.23007 0
M  V30 3451 N 314.422 4.44657 1.29749 0
M  V30 3452 C 315.157 5.53547 1.49577 0
M  V30 3453 N 314.653 6.72461 1.66639 0
M  V30 3454 N 316.446 5.41145 1.52048 0
M  V30 3455 H 308.597 2.07415 -0.457481 0
M  V30 3456 H 310.86 0.9372 -0.142687 0
M  V30 3457 H 310.566 3.51644 0.0629938 0
M  V30 3458 H 310.44 3.31401 1.80148 0
M  V30 3459 H 312.827 2.32235 1.82074 0
M  V30 3460 H 312.908 2.55707 0.0688331 0
M  V30 3461 H 312.552 5.06238 0.410505 0
M  V30 3462 H 312.482 4.79772 2.17086 0
M  V30 3463 H 314.973 3.58963 1.18126 0
M  V30 3464 H 315.286 7.51214 1.81378 0
M  V30 3465 H 313.631 6.75423 1.63794 0
M  V30 3466 H 316.822 4.47205 1.38294 0
M  V30 3467 H 316.995 6.26068 1.67159 0
M  V30 3468 N 310.401 -0.613514 1.45168 0
M  V30 3469 C 311.331 -1.7354 1.56225 0
M  V30 3470 C 312.312 -1.64981 0.41414 0
M  V30 3471 O 313.497 -1.83472 0.636526 0
M  V30 3472 C 310.627 -3.12128 1.52295 0
M  V30 3473 C 309.581 -3.35491 2.65762 0
M  V30 3474 C 308.907 -4.74291 2.46885 0
M  V30 3475 C 310.207 -3.26325 4.0781 0
M  V30 3476 H 311.901 -1.64543 2.50132 0
M  V30 3477 H 309.447 -0.790185 1.20383 0
M  V30 3478 H 311.4 -3.90404 1.58628 0
M  V30 3479 H 310.124 -3.2195 0.549139 0
M  V30 3480 H 308.783 -2.59603 2.58847 0
M  V30 3481 H 308.431 -4.80839 1.47657 0
M  V30 3482 H 308.131 -4.9088 3.22972 0
M  V30 3483 H 309.655 -5.54775 2.55063 0
M  V30 3484 H 311.069 -3.94483 4.16 0
M  V30 3485 H 309.466 -3.54445 4.8424 0
M  V30 3486 H 310.536 -2.23855 4.30136 0
M  V30 3487 N 311.879 -1.3236 -0.855495 0
M  V30 3488 C 312.842 -1.21164 -1.94556 0
M  V30 3489 C 313.842 -0.134908 -1.60233 0
M  V30 3490 O 315.032 -0.385249 -1.69887 0
M  V30 3491 C 312.164 -0.863192 -3.29791 0
M  V30 3492 H 313.357 -2.18038 -2.05911 0
M  V30 3493 H 310.91 -1.16179 -1.04557 0
M  V30 3494 H 311.645 0.103769 -3.24134 0
M  V30 3495 H 311.43 -1.64166 -3.56078 0
M  V30 3496 H 312.92 -0.809156 -4.09686 0
M  V30 3497 N 313.357 1.07166 -1.15556 0
M  V30 3498 C 314.634 1.76546 -0.842069 0
M  V30 3499 C 315.014 2.00453 0.661939 0
M  V30 3500 O 314.362 1.62452 1.60691 0
M  V30 3501 C 314.572 3.07266 -1.65495 0
M  V30 3502 C 315.92 3.81578 -1.86234 0
M  V30 3503 O 316.944 3.17083 -1.62287 0
M  V30 3504 O 315.803 4.97419 -2.26355 0
M  V30 3505 H 312.897 0.766756 -0.309862 0
M  V30 3506 H 315.443 1.13514 -1.26145 0
M  V30 3507 H 314.215 2.85494 -2.67598 0
M  V30 3508 H 313.838 3.7803 -1.23203 0
M  V30 3509 N 314.835 0.952656 1.25548 0
M  V30 3510 C 316.082 0.606373 1.93208 0
M  V30 3511 C 316.41 -0.85631 1.74636 0
M  V30 3512 O 315.665 -1.62951 1.08376 0
M  V30 3513 C 315.964 0.908818 3.45652 0
M  V30 3514 C 315.63 2.35722 3.84378 0
M  V30 3515 C 314.292 2.75312 3.9466 0
M  V30 3516 C 316.644 3.29793 4.03591 0
M  V30 3517 C 313.972 4.08047 4.21562 0
M  V30 3518 C 316.324 4.62138 4.31985 0
M  V30 3519 C 314.988 5.01528 4.40484 0
M  V30 3520 H 314.258 0.221888 0.706998 0
M  V30 3521 H 316.905 1.20132 1.49133 0
M  V30 3522 H 315.21 0.231456 3.91116 0
M  V30 3523 H 316.907 0.619498 3.96186 0
M  V30 3524 H 313.497 2.04017 3.76928 0
M  V30 3525 H 317.681 3.00397 3.95064 0
M  V30 3526 H 312.937 4.38212 4.26357 0
M  V30 3527 H 317.111 5.35012 4.45797 0
M  V30 3528 H 314.738 6.04406 4.61083 0
M  V30 3529 N 316.313 -1.40141 0.720998 0
M  V30 3530 C 317.561 -2.0039 0.262323 0
M  V30 3531 C 317.882 -1.57469 -1.15015 0
M  V30 3532 O 317.152 -0.816582 -1.78069 0
M  V30 3533 H 315.732 -0.741063 0.093996 0
M  V30 3534 H 318.394 -1.71398 0.927835 0
M  V30 3535 H 317.49 -3.10658 0.299671 0
M  V30 3536 N 317.792 -0.46758 -1.50504 0
M  V30 3537 C 319.017 0.0886943 -2.0721 0
M  V30 3538 C 319.442 1.33057 -1.32956 0
M  V30 3539 O 318.8 1.77354 -0.376197 0
M  V30 3540 C 318.848 0.359202 -3.58806 0
M  V30 3541 O 317.952 1.44034 -3.8643 0
M  V30 3542 H 317.293 -0.0114349 -0.663902 0
M  V30 3543 H 319.823 -0.657613 -1.93744 0
M  V30 3544 H 319.833 0.600742 -4.03553 0
M  V30 3545 H 318.508 -0.548311 -4.1227 0
M  V30 3546 H 317.085 1.18638 -3.53524 0
M  V30 3547 N 319.27 1.56325 -0.20005 0
M  V30 3548 C 320.51 1.99619 0.439519 0
M  V30 3549 C 320.874 1.08423 1.58456 0
M  V30 3550 O 322.075 1.40973 2.28867 0
M  V30 3551 C 320.346 3.46314 0.883258 0
M  V30 3552 S 321.905 4.11634 1.51997 0
M  V30 3553 H 318.723 0.697007 0.140363 0
M  V30 3554 H 321.325 1.93118 -0.304282 0
M  V30 3555 H 320.029 4.10381 0.0398967 0
M  V30 3556 H 319.56 3.56643 1.6604 0
M  V30 3557 H 321.575 4.09049 2.8088 0
M  V30 3558 N 320.748 -0.0735177 1.57428 0
M  V30 3559 C 321.678 -1.0879 2.06608 0
M  V30 3560 C 322.659 -1.40473 0.959237 0
M  V30 3561 O 323.844 -1.5013 1.23185 0
M  V30 3562 C 320.974 -2.40183 2.50857 0
M  V30 3563 C 319.928 -2.22858 3.65402 0
M  V30 3564 C 319.254 -3.59619 3.957 0
M  V30 3565 C 320.554 -1.65123 4.95511 0
M  V30 3566 H 322.248 -0.678673 2.91607 0
M  V30 3567 H 319.794 -0.325013 1.40284 0
M  V30 3568 H 321.747 -3.11437 2.83874 0
M  V30 3569 H 320.471 -2.83083 1.62885 0
M  V30 3570 H 319.13 -1.54045 3.32664 0
M  V30 3571 H 318.778 -4.00086 3.04861 0
M  V30 3572 H 318.478 -3.48866 4.72828 0
M  V30 3573 H 320.002 -4.32306 4.31212 0
M  V30 3574 H 321.416 -2.26241 5.26771 0
M  V30 3575 H 319.813 -1.65071 5.7695 0
M  V30 3576 H 320.883 -0.612559 4.81015 0
M  V30 3577 N 322.226 -1.5378 -0.344866 0
M  V30 3578 C 323.173 -1.81676 -1.42346 0
M  V30 3579 C 324.143 -0.662376 -1.52321 0
M  V30 3580 O 325.328 -0.906675 -1.67881 0
M  V30 3581 C 322.468 -2.03087 -2.79015 0
M  V30 3582 C 321.581 -3.30799 -2.77842 0
M  V30 3583 C 320.716 -3.42285 -4.0622 0
M  V30 3584 C 319.755 -4.6395 -3.9927 0
M  V30 3585 N 318.892 -4.72477 -5.19336 0
M  V30 3586 H 323.732 -2.73703 -1.17858 0
M  V30 3587 H 321.269 -1.35568 -0.570949 0
M  V30 3588 H 323.227 -2.1349 -3.58438 0
M  V30 3589 H 321.857 -1.14375 -3.01858 0
M  V30 3590 H 320.909 -3.29244 -1.90533 0
M  V30 3591 H 322.221 -4.20314 -2.68584 0
M  V30 3592 H 321.375 -3.52113 -4.94066 0
M  V30 3593 H 320.114 -2.50823 -4.18258 0
M  V30 3594 H 319.119 -4.54201 -3.09809 0
M  V30 3595 H 320.344 -5.56775 -3.88817 0
M  V30 3596 H 318.29 -3.83924 -5.3192 0
M  V30 3597 H 318.207 -5.55927 -5.12329 0
M  V30 3598 H 319.475 -4.86613 -6.08957 0
M  V30 3599 N 323.704 0.605807 -1.45491 0
M  V30 3600 C 324.634 1.72709 -1.57143 0
M  V30 3601 C 325.615 1.6476 -0.422884 0
M  V30 3602 O 326.8 1.83132 -0.646247 0
M  V30 3603 C 323.93 3.11316 -1.53948 0
M  V30 3604 C 322.884 3.34077 -2.67537 0
M  V30 3605 C 322.21 4.72975 -2.49397 0
M  V30 3606 C 323.51 3.24158 -4.09535 0
M  V30 3607 H 325.204 1.63214 -2.51001 0
M  V30 3608 H 322.75 0.78379 -1.208 0
M  V30 3609 H 324.703 3.89557 -1.60696 0
M  V30 3610 H 323.427 3.21655 -0.566205 0
M  V30 3611 H 322.086 2.58227 -2.6022 0
M  V30 3612 H 321.734 4.8005 -1.50205 0
M  V30 3613 H 321.434 4.8916 -3.25571 0
M  V30 3614 H 322.958 5.53414 -2.58002 0
M  V30 3615 H 324.372 3.92271 -4.18086 0
M  V30 3616 H 322.769 3.51872 -4.86113 0
M  V30 3617 H 323.839 2.2157 -4.31317 0
M  V30 3618 N 325.182 1.32811 0.848464 0
M  V30 3619 C 326.598 1.11937 1.13764 0
M  V30 3620 C 326.798 -0.0960789 2.01271 0
M  V30 3621 O 325.854 -0.779165 2.40178 0
M  V30 3622 C 327.167 2.402 1.809 0
M  V30 3623 C 328.715 2.46016 1.93508 0
M  V30 3624 C 329.19 3.74215 2.64059 0
M  V30 3625 N 330.681 3.75232 2.71579 0
M  V30 3626 C 331.416 4.71134 3.26833 0
M  V30 3627 N 330.912 5.77406 3.8285 0
M  V30 3628 N 332.705 4.58623 3.24995 0
M  V30 3629 H 324.856 2.1073 0.265855 0
M  V30 3630 H 327.119 0.930671 0.180431 0
M  V30 3631 H 326.825 3.29093 1.24058 0
M  V30 3632 H 326.699 2.51628 2.81004 0
M  V30 3633 H 329.086 1.57577 2.49506 0
M  V30 3634 H 329.167 2.38536 0.923811 0
M  V30 3635 H 328.811 4.63031 2.08722 0
M  V30 3636 H 328.741 3.78968 3.65637 0
M  V30 3637 H 331.232 2.98423 2.31845 0
M  V30 3638 H 331.545 6.46632 4.23187 0
M  V30 3639 H 329.89 5.81152 3.81165 0
M  V30 3640 H 333.081 3.74762 2.80484 0
M  V30 3641 H 333.254 5.33535 3.67756 0
M  V30 3642 N 326.66 -1.06551 1.16123 0
M  V30 3643 C 327.623 -2.12132 0.867906 0
M  V30 3644 C 328.623 -1.60224 -0.135944 0
M  V30 3645 O 329.813 -1.73943 0.0946422 0
M  V30 3646 C 326.945 -3.396 0.297419 0
M  V30 3647 H 328.138 -2.39586 1.80385 0
M  V30 3648 H 325.691 -1.22574 0.969812 0
M  V30 3649 H 326.426 -3.17794 -0.64633 0
M  V30 3650 H 326.211 -3.78581 1.02073 0
M  V30 3651 H 327.701 -4.17455 0.110052 0
M  V30 3652 N 328.138 -0.959301 -1.25041 0
M  V30 3653 C 329.415 -0.533805 -1.88175 0
M  V30 3654 C 329.795 0.988994 -1.865 0
M  V30 3655 O 329.143 1.85677 -1.33177 0
M  V30 3656 C 329.353 -1.11575 -3.30684 0
M  V30 3657 C 330.701 -1.19548 -4.07423 0
M  V30 3658 O 331.725 -1.06765 -3.39823 0
M  V30 3659 O 330.584 -1.39656 -5.28354 0
M  V30 3660 H 327.678 -0.176772 -0.807887 0
M  V30 3661 H 330.224 -1.05303 -1.33076 0
M  V30 3662 H 328.996 -2.15884 -3.26358 0
M  V30 3663 H 328.619 -0.580059 -3.93346 0
M  V30 3664 N 329.616 1.39756 -0.72842 0
M  V30 3665 C 330.864 2.00248 -0.272946 0
M  V30 3666 C 331.185 1.58077 1.14178 0
M  V30 3667 O 330.455 0.826014 1.77634 0
M  V30 3668 H 329.035 0.740554 -0.0979247 0
M  V30 3669 H 331.697 1.70903 -0.936912 0
M  V30 3670 H 330.793 3.10495 -0.316142 0
M  V30 3671 N 331.094 0.475555 1.50254 0
M  V30 3672 C 332.322 -0.0754493 2.06762 0
M  V30 3673 C 332.737 -1.33111 1.33891 0
M  V30 3674 O 332.094 -1.77846 0.40952 0
M  V30 3675 C 332.145 -0.359008 3.59713 0
M  V30 3676 O 331.866 0.846851 4.29837 0
M  V30 3677 C 333.367 -0.956484 4.32858 0
M  V30 3678 H 330.587 0.00907525 0.670939 0
M  V30 3679 H 333.131 0.665618 1.93364 0
M  V30 3680 H 331.286 -1.05001 3.72899 0
M  V30 3681 H 331.7 0.594162 5.21124 0
M  V30 3682 H 333.174 -1.10463 5.40834 0
M  V30 3683 H 333.651 -1.94775 3.93649 0
M  V30 3684 H 334.257 -0.303723 4.24214 0
M  V30 3685 N 332.573 -1.56217 0.208337 0
M  V30 3686 C 333.819 -1.98242 -0.427552 0
M  V30 3687 C 334.152 -1.09554 -1.60348 0
M  V30 3688 O 333.427 -0.15035 -1.93918 0
M  V30 3689 C 333.71 -3.4931 -0.874907 0
M  V30 3690 C 333.563 -4.48773 0.303751 0
M  V30 3691 C 334.882 -4.04424 -1.73577 0
M  V30 3692 H 332.001 -0.720744 -0.153936 0
M  V30 3693 H 334.643 -1.87586 0.30192 0
M  V30 3694 H 332.793 -3.58522 -1.49648 0
M  V30 3695 H 334.465 -4.51586 0.941682 0
M  V30 3696 H 332.708 -4.23194 0.953375 0
M  V30 3697 H 333.379 -5.51976 -0.0519883 0
M  V30 3698 H 335.855 -3.98075 -1.21143 0
M  V30 3699 H 334.731 -5.1047 -2.01771 0
M  V30 3700 H 334.992 -3.50494 -2.69456 0
M  V30 3701 N 334.051 0.0651679 -1.57465 0
M  V30 3702 C 335.467 0.420105 -1.53972 0
M  V30 3703 C 335.667 1.78782 -0.929474 0
M  V30 3704 O 334.723 2.46771 -0.534839 0
M  V30 3705 C 336.036 0.355084 -2.98596 0
M  V30 3706 C 337.584 0.434792 -3.09965 0
M  V30 3707 C 338.059 0.399609 -4.56253 0
M  V30 3708 N 339.55 0.459488 -4.60915 0
M  V30 3709 C 340.285 0.454584 -5.71595 0
M  V30 3710 N 339.781 0.404102 -6.9162 0
M  V30 3711 N 341.574 0.501635 -5.59857 0
M  V30 3712 H 333.725 -0.830328 -1.95498 0
M  V30 3713 H 335.988 -0.312244 -0.895102 0
M  V30 3714 H 335.694 -0.583357 -3.46828 0
M  V30 3715 H 335.568 1.16275 -3.58831 0
M  V30 3716 H 337.955 1.36366 -2.61703 0
M  V30 3717 H 338.036 -0.40157 -2.52628 0
M  V30 3718 H 337.68 -0.525436 -5.05175 0
M  V30 3719 H 337.61 1.25359 -5.11461 0
M  V30 3720 H 340.101 0.502482 -3.74544 0
M  V30 3721 H 340.414 0.404468 -7.71741 0
M  V30 3722 H 338.759 0.37069 -6.94011 0
M  V30 3723 H 341.95 0.538812 -4.64989 0
M  V30 3724 H 342.123 0.494345 -6.46112 0
M  V30 3725 N 335.529 1.53961 0.336706 0
M  V30 3726 C 336.754 1.75797 1.10046 0
M  V30 3727 C 337.179 0.498985 1.81361 0
M  V30 3728 O 336.537 -0.548769 1.72795 0
M  V30 3729 C 336.585 2.94257 2.08436 0
M  V30 3730 O 335.689 2.64883 3.16087 0
M  V30 3731 H 335.03 0.582936 0.317934 0
M  V30 3732 H 337.56 2.00945 0.38501 0
M  V30 3733 H 337.57 3.21237 2.51537 0
M  V30 3734 H 336.245 3.85564 1.55927 0
M  V30 3735 H 334.822 2.48812 2.77753 0
M  V30 3736 N 337.007 -0.598083 1.45811 0
M  V30 3737 C 337.937 -1.71873 1.58057 0
M  V30 3738 C 338.918 -1.64533 0.431615 0
M  V30 3739 O 340.103 -1.82787 0.65595 0
M  V30 3740 C 337.233 -3.10495 1.55597 0
M  V30 3741 C 336.187 -3.32654 2.69305 0
M  V30 3742 C 335.513 -4.71646 2.51902 0
M  V30 3743 C 336.813 -3.21981 4.11248 0
M  V30 3744 H 338.507 -1.61881 2.51863 0
M  V30 3745 H 336.053 -0.777372 1.21214 0
M  V30 3746 H 338.006 -3.88699 1.6276 0
M  V30 3747 H 336.73 -3.2135 0.583255 0
M  V30 3748 H 335.389 -2.56843 2.61586 0
M  V30 3749 H 335.037 -4.79246 1.52748 0
M  V30 3750 H 334.737 -4.87426 3.2816 0
M  V30 3751 H 336.261 -5.52038 2.60933 0
M  V30 3752 H 337.675 -3.90049 4.20161 0
M  V30 3753 H 336.072 -3.49289 4.87972 0
M  V30 3754 H 337.142 -2.1928 4.32486 0
M  V30 3755 N 338.485 -1.33259 -0.841409 0
M  V30 3756 C 339.731 -1.24757 -1.59886 0
M  V30 3757 C 340.064 0.186913 -1.93298 0
M  V30 3758 O 339.339 1.12757 -1.5848 0
M  V30 3759 C 339.622 -2.12036 -2.91055 0
M  V30 3760 C 339.475 -3.63929 -2.6434 0
M  V30 3761 C 340.794 -1.9916 -3.92458 0
M  V30 3762 H 337.913 -0.454542 -0.580138 0
M  V30 3763 H 340.555 -1.63335 -0.970647 0
M  V30 3764 H 338.705 -1.79265 -3.44669 0
M  V30 3765 H 340.377 -4.06978 -2.17178 0
M  V30 3766 H 338.62 -3.85935 -1.98082 0
M  V30 3767 H 339.291 -4.20341 -3.57796 0
M  V30 3768 H 341.767 -2.27895 -3.48143 0
M  V30 3769 H 340.643 -2.62484 -4.82072 0
M  V30 3770 H 340.904 -0.963082 -4.31482 0
M  V30 3771 N 339.963 1.05934 -1.16686 0
M  V30 3772 C 340.926 2.11669 -0.879144 0
M  V30 3773 C 341.926 1.60294 0.127445 0
M  V30 3774 O 343.116 1.7389 -0.103865 0
M  V30 3775 C 340.248 3.39438 -0.315425 0
M  V30 3776 H 341.441 2.38626 -1.81653 0
M  V30 3777 H 338.994 1.22058 -0.976299 0
M  V30 3778 H 339.729 3.18132 0.629468 0
M  V30 3779 H 339.514 3.78034 -1.04079 0
M  V30 3780 H 341.004 4.17391 -0.132189 0
M  V30 3781 N 341.441 0.965919 1.2453 0
M  V30 3782 C 342.687 0.62776 1.92839 0
M  V30 3783 C 343.02 -0.834694 1.75347 0
M  V30 3784 O 342.295 -1.60031 1.10546 0
M  V30 3785 C 342.578 1.00109 3.45905 0
M  V30 3786 C 342.431 2.52011 3.72573 0
M  V30 3787 C 343.75 0.53435 4.36844 0
M  V30 3788 H 340.869 0.229537 0.700344 0
M  V30 3789 H 343.511 1.2046 1.46933 0
M  V30 3790 H 341.661 0.510238 3.85135 0
M  V30 3791 H 343.333 3.08559 3.42912 0
M  V30 3792 H 341.576 2.95287 3.17786 0
M  V30 3793 H 342.247 2.73183 4.79661 0
M  V30 3794 H 344.723 0.955565 4.04979 0
M  V30 3795 H 343.599 0.824152 5.42678 0
M  V30 3796 H 343.86 -0.565589 4.38467 0
M  V30 3797 N 342.919 -1.39368 0.735821 0
M  V30 3798 C 344.167 -2.00101 0.283562 0
M  V30 3799 C 344.488 -1.5868 -1.13338 0
M  V30 3800 O 343.758 -0.835423 -1.77193 0
M  V30 3801 H 342.338 -0.740024 0.101851 0
M  V30 3802 H 345 -1.70404 0.945962 0
M  V30 3803 H 344.096 -3.10323 0.332604 0
M  V30 3804 N 344.397 -0.483516 -1.5 0
M  V30 3805 C 345.625 0.0644831 -2.06799 0
M  V30 3806 C 346.04 1.32399 -1.34596 0
M  V30 3807 O 345.397 1.77626 -0.418946 0
M  V30 3808 C 345.448 0.339927 -3.59898 0
M  V30 3809 O 345.169 -0.869635 -4.29382 0
M  V30 3810 C 346.67 0.933515 -4.33359 0
M  V30 3811 H 343.89 -0.0126333 -0.670881 0
M  V30 3812 H 346.434 -0.675864 -1.93009 0
M  V30 3813 H 344.589 1.03022 -3.7345 0
M  V30 3814 H 345.003 -0.62179 -5.20801 0
M  V30 3815 H 346.477 1.07593 -5.41413 0
M  V30 3816 H 346.954 1.92685 -3.94676 0
M  V30 3817 H 347.56 0.281221 -4.24369 0
M  V30 3818 N 345.875 1.56104 -0.216619 0
M  V30 3819 C 347.286 1.844 0.292128 0
M  V30 3820 C 347.637 1.13788 1.59833 0
M  V30 3821 O 346.762 0.405888 2.12559 0
M  V30 3822 C 347.357 3.3452 0.53681 0
M  V30 3823 C 345.916 3.63151 0.989876 0
M  V30 3824 C 345.063 2.77255 0.0502302 0
M  V30 3825 H 348.014 1.52481 -0.439926 0
M  V30 3826 H 348.035 3.54459 1.38345 0
M  V30 3827 H 347.547 3.85885 -0.414031 0
M  V30 3828 H 345.648 3.17238 1.95425 0
M  V30 3829 H 345.761 4.71177 0.867698 0
M  V30 3830 H 344.125 2.48555 0.556117 0
M  V30 3831 H 344.908 3.31416 -0.89544 0
M  V30 3832 N 347.353 -0.0568162 1.57498 0
M  V30 3833 C 348.63 -0.786954 1.79071 0
M  V30 3834 C 349.01 -1.95028 0.80792 0
M  V30 3835 O 348.358 -2.27968 -0.155858 0
M  V30 3836 C 348.568 -1.24594 3.26002 0
M  V30 3837 C 349.916 -1.67323 3.90241 0
M  V30 3838 O 350.94 -1.34124 3.29984 0
M  V30 3839 O 349.799 -2.28842 4.9628 0
M  V30 3840 H 346.893 -0.378262 0.735423 0
M  V30 3841 H 349.439 -0.035734 1.69662 0
M  V30 3842 H 348.211 -0.41423 3.89101 0
M  V30 3843 H 347.834 -2.05803 3.40192 0
M  V30 3844 N 348.832 -1.54138 -0.328536 0
M  V30 3845 C 350.062 -1.75807 -1.08516 0
M  V30 3846 C 350.47 -0.50428 -1.82356 0
M  V30 3847 O 349.813 0.534451 -1.75754 0
M  V30 3848 C 349.875 -2.89423 -2.13248 0
M  V30 3849 C 349.539 -4.28504 -1.5885 0
M  V30 3850 C 350.536 -5.09536 -1.03289 0
M  V30 3851 C 348.221 -4.75034 -1.63243 0
M  V30 3852 C 350.215 -6.35206 -0.52845 0
M  V30 3853 C 347.902 -6.00672 -1.12411 0
M  V30 3854 C 348.9 -6.80592 -0.573062 0
M  V30 3855 O 348.588 -8.03867 -0.0723692 0
M  V30 3856 H 348.32 -0.590633 -0.328829 0
M  V30 3857 H 350.874 -2.01819 -0.381868 0
M  V30 3858 H 349.104 -2.5897 -2.87178 0
M  V30 3859 H 350.793 -2.98921 -2.74592 0
M  V30 3860 H 351.559 -4.74745 -0.99206 0
M  V30 3861 H 347.438 -4.12875 -2.05074 0
M  V30 3862 H 350.982 -6.97532 -0.0976774 0
M  V30 3863 H 346.879 -6.34955 -1.162 0
M  V30 3864 H 347.647 -8.18283 -0.188258 0
M  V30 3865 N 350.31 0.590341 -1.46126 0
M  V30 3866 C 351.24 1.71032 -1.58966 0
M  V30 3867 C 352.221 1.64302 -0.440335 0
M  V30 3868 O 353.406 1.82436 -0.665634 0
M  V30 3869 C 350.536 3.09665 -1.57241 0
M  V30 3870 C 349.49 3.31221 -2.71066 0
M  V30 3871 C 348.816 4.70303 -2.54399 0
M  V30 3872 C 350.116 3.19796 -4.1295 0
M  V30 3873 H 351.81 1.60543 -2.52718 0
M  V30 3874 H 349.356 0.770933 -1.21625 0
M  V30 3875 H 351.309 3.87831 -1.64819 0
M  V30 3876 H 350.033 3.21036 -0.600289 0
M  V30 3877 H 348.692 2.55452 -2.62944 0
M  V30 3878 H 348.34 4.78429 -1.55288 0
M  V30 3879 H 348.04 4.85679 -3.30741 0
M  V30 3880 H 349.564 5.50647 -2.63857 0
M  V30 3881 H 350.978 3.87815 -4.22223 0
M  V30 3882 H 349.375 3.46696 -4.89818 0
M  V30 3883 H 350.445 2.16983 -4.33643 0
M  V30 3884 N 351.788 1.33704 0.83433 0
M  V30 3885 C 353.013 1.28615 1.62705 0
M  V30 3886 C 353.438 -0.139242 1.87584 0
M  V30 3887 O 352.796 -1.09734 1.4432 0
M  V30 3888 C 352.844 2.07139 2.95171 0
M  V30 3889 O 351.948 1.4331 3.86699 0
M  V30 3890 H 351.289 0.44226 0.49528 0
M  V30 3891 H 353.819 1.76335 1.03766 0
M  V30 3892 H 353.829 2.18073 3.44831 0
M  V30 3893 H 352.504 3.10779 2.76386 0
M  V30 3894 H 351.081 1.4105 3.45195 0
M  V30 3895 N 353.266 -1.05314 1.17247 0
M  V30 3896 C 354.677 -1.59753 0.96623 0
M  V30 3897 C 355.028 -1.9005 -0.487378 0
M  V30 3898 O 354.153 -1.68126 -1.36245 0
M  V30 3899 C 354.748 -2.90249 1.74759 0
M  V30 3900 C 353.307 -3.41352 1.58606 0
M  V30 3901 C 352.454 -2.15103 1.75002 0
M  V30 3902 H 355.405 -0.881406 1.31973 0
M  V30 3903 H 355.426 -3.60097 1.22925 0
M  V30 3904 H 354.938 -2.68166 2.8055 0
M  V30 3905 H 353.039 -3.68474 0.552985 0
M  V30 3906 H 353.152 -4.16019 2.37624 0
M  V30 3907 H 351.516 -2.25804 1.17833 0
M  V30 3908 H 352.299 -1.95491 2.82202 0
M  V30 3909 N 354.744 -0.972509 -1.24016 0
M  V30 3910 C 355.654 -0.5143 -2.28893 0
M  V30 3911 C 356.67 0.427078 -1.68677 0
M  V30 3912 O 357.846 0.298939 -1.99169 0
M  V30 3913 C 354.911 0.183598 -3.46214 0
M  V30 3914 C 353.972 -0.798202 -4.21814 0
M  V30 3915 C 353.205 -0.133514 -5.33533 0
M  V30 3916 O 353.428 1.07714 -5.60137 0
M  V30 3917 O 352.362 -0.828103 -5.96176 0
M  V30 3918 H 356.188 -1.38629 -2.70214 0
M  V30 3919 H 353.773 -0.739769 -1.29799 0
M  V30 3920 H 355.655 0.575433 -4.17453 0
M  V30 3921 H 354.33 1.03048 -3.0686 0
M  V30 3922 H 353.237 -1.24059 -3.52931 0
M  V30 3923 H 354.57 -1.61364 -4.64997 0
M  V30 3924 N 356.222 1.38976 -0.743202 0
M  V30 3925 C 357.471 1.99581 -0.291592 0
M  V30 3926 C 357.784 1.59656 1.13001 0
M  V30 3927 O 358.99 2.13157 1.68156 0
M  V30 3928 C 357.446 3.56813 -0.470391 0
M  V30 3929 C 357.054 4.05695 -1.90041 0
M  V30 3930 C 358.798 4.24423 -0.0809709 0
M  V30 3931 C 356.705 5.5553 -2.02832 0
M  V30 3932 H 355.635 0.746615 -0.105272 0
M  V30 3933 H 358.286 1.58872 -0.918258 0
M  V30 3934 H 356.668 3.95359 0.225299 0
M  V30 3935 H 357.842 3.78464 -2.62872 0
M  V30 3936 H 356.157 3.50775 -2.24379 0
M  V30 3937 H 358.754 5.34474 -0.155445 0
M  V30 3938 H 359.097 4.04962 0.96497 0
M  V30 3939 H 359.63 3.9108 -0.728124 0
M  V30 3940 H 356.369 5.79881 -3.05643 0
M  V30 3941 H 355.889 5.84537 -1.34448 0
M  V30 3942 H 357.568 6.21069 -1.81335 0
M  V30 3943 N 357.7 0.491464 1.49741 0
M  V30 3944 C 358.63 -0.28154 2.31796 0
M  V30 3945 C 359.611 -0.971473 1.3963 0
M  V30 3946 O 360.796 -0.964719 1.68543 0
M  V30 3947 C 357.926 -1.35203 3.19902 0
M  V30 3948 C 356.88 -0.782529 4.20786 0
M  V30 3949 C 356.206 -1.95283 4.97764 0
M  V30 3950 C 357.506 0.21999 5.21837 0
M  V30 3951 H 359.2 0.403355 2.96671 0
M  V30 3952 H 356.746 0.195425 1.42668 0
M  V30 3953 H 358.699 -1.90045 3.76113 0
M  V30 3954 H 357.423 -2.06598 2.52953 0
M  V30 3955 H 356.082 -0.255928 3.65706 0
M  V30 3956 H 355.73 -2.65423 4.2727 0
M  V30 3957 H 355.43 -1.57789 5.66018 0
M  V30 3958 H 356.954 -2.50577 5.56816 0
M  V30 3959 H 358.368 -0.23996 5.72798 0
M  V30 3960 H 356.765 0.51026 5.97927 0
M  V30 3961 H 357.835 1.13911 4.7133 0
M  V30 3962 N 359.178 -1.55987 0.224894 0
M  V30 3963 C 360.11 -2.17722 -0.716224 0
M  V30 3964 C 361.123 -1.14723 -1.15509 0
M  V30 3965 O 362.312 -1.41688 -1.08567 0
M  V30 3966 C 359.412 -2.74873 -1.98238 0
M  V30 3967 C 358.585 -4.03074 -1.69853 0
M  V30 3968 C 357.644 -4.44757 -2.81208 0
M  V30 3969 O 356.67 -5.11587 -2.49534 0
M  V30 3970 N 357.872 -4.10716 -4.10235 0
M  V30 3971 H 360.637 -2.99109 -0.188123 0
M  V30 3972 H 358.198 -1.6184 0.0440123 0
M  V30 3973 H 360.19 -2.99727 -2.7193 0
M  V30 3974 H 358.76 -1.9777 -2.42086 0
M  V30 3975 H 357.98 -3.86041 -0.797875 0
M  V30 3976 H 359.268 -4.86701 -1.48324 0
M  V30 3977 H 358.666 -3.57019 -4.38809 0
M  V30 3978 H 357.223 -4.40455 -4.80461 0
M  V30 3979 N 360.656 0.0484629 -1.57525 0
M  V30 3980 C 361.619 1.03956 -2.04269 0
M  V30 3981 C 362.619 1.30211 -0.943496 0
M  V30 3982 O 363.809 1.25539 -1.20771 0
M  V30 3983 C 360.941 2.37742 -2.44319 0
M  V30 3984 H 362.134 0.636182 -2.93075 0
M  V30 3985 H 359.687 0.294811 -1.53494 0
M  V30 3986 H 360.422 2.82866 -1.5861 0
M  V30 3987 H 360.207 2.20021 -3.24551 0
M  V30 3988 H 361.697 3.08936 -2.80978 0
M  V30 3989 N 362.134 1.5431 0.320358 0
M  V30 3990 C 363.38 1.72924 1.05949 0
M  V30 3991 C 363.713 0.503185 1.87568 0
M  V30 3992 O 362.988 -0.499839 1.87968 0
M  V30 3993 C 363.271 3.00676 1.98156 0
M  V30 3994 C 363.124 4.3354 1.19845 0
M  V30 3995 C 364.443 3.24198 2.9763 0
M  V30 3996 H 361.562 0.629195 0.383774 0
M  V30 3997 H 364.204 1.87008 0.335854 0
M  V30 3998 H 362.354 2.888 2.59859 0
M  V30 3999 H 364.026 4.57305 0.605773 0
M  V30 4000 H 362.269 4.309 0.500784 0
M  V30 4001 H 362.94 5.19156 1.87567 0
M  V30 4002 H 365.416 3.35557 2.4605 0
M  V30 4003 H 364.292 4.14938 3.59329 0
M  V30 4004 H 364.553 2.41577 3.7026 0
M  V30 4005 N 363.613 -0.582584 1.46437 0
M  V30 4006 C 364.861 -1.33814 1.51453 0
M  V30 4007 C 365.182 -1.94277 0.167792 0
M  V30 4008 O 364.452 -1.78566 -0.805677 0
M  V30 4009 H 363.032 -0.496838 0.557818 0
M  V30 4010 H 365.694 -0.682281 1.82568 0
M  V30 4011 H 364.79 -2.14479 2.26728 0
M  V30 4012 N 365.091 -1.34144 -0.827227 0
M  V30 4013 C 366.339 -1.26009 -1.58007 0
M  V30 4014 C 366.66 0.170971 -1.94249 0
M  V30 4015 O 365.93 1.10256 -1.61927 0
M  V30 4016 H 364.51 -0.463414 -0.585881 0
M  V30 4017 H 367.172 -1.68005 -0.987951 0
M  V30 4018 H 366.268 -1.86187 -2.50481 0
M  V30 4019 N 366.569 1.04691 -1.17803 0
M  V30 4020 C 367.817 1.7743 -0.967617 0
M  V30 4021 C 368.138 1.88359 0.504574 0
M  V30 4022 O 367.408 1.40402 1.36617 0
M  V30 4023 H 365.988 0.657242 -0.355024 0
M  V30 4024 H 368.65 1.2638 -1.48371 0
M  V30 4025 H 367.746 2.78924 -1.40027 0
M  V30 4026 N 368.047 0.979072 1.23499 0
M  V30 4027 C 369.458 0.684391 1.73704 0
M  V30 4028 C 369.809 -0.799448 1.79174 0
M  V30 4029 O 368.934 -1.62531 1.42873 0
M  V30 4030 C 369.529 1.23564 3.15464 0
M  V30 4031 C 368.088 0.99063 3.6313 0
M  V30 4032 C 367.235 1.36416 2.41425 0
M  V30 4033 H 370.186 1.15307 1.09041 0
M  V30 4034 H 370.207 0.607417 3.7562 0
M  V30 4035 H 369.719 2.31561 3.1145 0
M  V30 4036 H 367.82 -0.0733136 3.72528 0
M  V30 4037 H 367.933 1.64427 4.5 0
M  V30 4038 H 366.297 0.782616 2.42378 0
M  V30 4039 H 367.08 2.45387 2.40083 0
M  V30 4040 N 369.525 -1.3858 0.750561 0
M  V30 4041 C 370.773 -1.99789 0.30477 0
M  V30 4042 C 371.094 -1.59874 -1.11649 0
M  V30 4043 O 370.364 -0.85417 -1.76297 0
M  V30 4044 H 368.944 -0.738902 0.109694 0
M  V30 4045 H 371.606 -1.69391 0.963983 0
M  V30 4046 H 370.702 -3.09952 0.365499 0
M  V30 4047 N 371.003 -0.499398 -1.49478 0
M  V30 4048 C 372.231 0.0425456 -2.06856 0
M  V30 4049 C 372.646 1.30964 -1.35992 0
M  V30 4050 O 372.003 1.77172 -0.437762 0
M  V30 4051 C 372.054 0.301735 -3.60239 0
M  V30 4052 O 371.775 -0.915127 -4.28436 0
M  V30 4053 C 373.276 0.887499 -4.34325 0
M  V30 4054 H 370.496 -0.0197482 -0.670709 0
M  V30 4055 H 373.04 -0.696297 -1.92281 0
M  V30 4056 H 371.195 0.990556 -3.74522 0
M  V30 4057 H 371.609 -0.676993 -5.20113 0
M  V30 4058 H 373.083 1.01845 -5.42523 0
M  V30 4059 H 373.56 1.88488 -3.96698 0
M  V30 4060 H 374.166 0.236196 -4.24644 0
M  V30 4061 N 372.481 1.55866 -0.233164 0
M  V30 4062 C 373.729 1.9821 0.394593 0
M  V30 4063 C 374.05 1.12234 1.59463 0
M  V30 4064 O 373.32 0.201981 1.94856 0
M  V30 4065 H 371.9 0.732034 0.148778 0
M  V30 4066 H 374.562 1.92107 -0.32876 0
M  V30 4067 H 373.658 3.03845 0.713063 0
M  V30 4068 N 373.959 -0.0401083 1.57549 0
M  V30 4069 C 375.184 -0.748931 1.93406 0
M  V30 4070 C 375.609 -1.68686 0.832274 0
M  V30 4071 O 374.967 -1.80047 -0.212818 0
M  V30 4072 C 375.015 -1.4916 3.28304 0
M  V30 4073 O 374.119 -2.6042 3.19774 0
M  V30 4074 H 373.46 -0.202212 0.63246 0
M  V30 4075 H 375.99 0.00112086 2.046 0
M  V30 4076 H 376 -1.86395 3.62934 0
M  V30 4077 H 374.675 -0.80364 4.08062 0
M  V30 4078 H 373.252 -2.25808 2.96758 0
M  V30 4079 N 375.437 -1.54477 -0.31217 0
M  V30 4080 C 376.667 -1.76948 -1.06645 0
M  V30 4081 C 377.075 -0.523593 -1.81811 0
M  V30 4082 O 376.418 0.51578 -1.76311 0
M  V30 4083 C 376.48 -2.91668 -2.10166 0
M  V30 4084 C 376.144 -4.30165 -1.54296 0
M  V30 4085 C 377.141 -5.10603 -0.978793 0
M  V30 4086 C 374.826 -4.76738 -1.58196 0
M  V30 4087 C 376.82 -6.3573 -0.461048 0
M  V30 4088 C 374.507 -6.01831 -1.06034 0
M  V30 4089 C 375.505 -6.81161 -0.500844 0
M  V30 4090 O 375.193 -8.03899 0.0128958 0
M  V30 4091 H 374.925 -0.594088 -0.322546 0
M  V30 4092 H 377.479 -2.02213 -0.360441 0
M  V30 4093 H 375.709 -2.62001 -2.84416 0
M  V30 4094 H 377.398 -3.01817 -2.71406 0
M  V30 4095 H 378.164 -4.75771 -0.941651 0
M  V30 4096 H 374.043 -4.15027 -2.00683 0
M  V30 4097 H 377.587 -6.97596 -0.0236894 0
M  V30 4098 H 373.484 -6.36152 -1.09459 0
M  V30 4099 H 374.252 -8.18437 -0.101457 0
M  V30 4100 N 376.915 0.57481 -1.46744 0
M  V30 4101 C 378.163 1.33009 -1.52161 0
M  V30 4102 C 378.484 1.94185 -0.178092 0
M  V30 4103 O 377.754 1.7899 0.796196 0
M  V30 4104 H 376.334 0.493873 -0.560445 0
M  V30 4105 H 378.996 0.672589 -1.82927 0
M  V30 4106 H 378.092 2.13273 -2.27862 0
M  V30 4107 N 378.394 1.34581 0.820102 0
M  V30 4108 C 379.805 1.24298 1.39309 0
M  V30 4109 C 380.156 -0.130351 1.95767 0
M  V30 4110 O 379.281 -1.0308 1.90272 0
M  V30 4111 C 379.876 2.25054 2.53251 0
M  V30 4112 C 378.435 2.18552 3.0645 0
M  V30 4113 C 377.582 2.11503 1.79337 0
M  V30 4114 H 380.533 1.45906 0.624262 0
M  V30 4115 H 380.554 1.86917 3.31425 0
M  V30 4116 H 380.066 3.24996 2.1213 0
M  V30 4117 H 378.167 1.21976 3.52069 0
M  V30 4118 H 378.28 3.0993 3.65349 0
M  V30 4119 H 376.644 1.57268 2.00347 0
M  V30 4120 H 377.427 3.13284 1.40386 0
M  V30 4121 N 379.872 -1.04064 1.18357 0
M  V30 4122 C 380.782 -2.15569 0.925596 0
M  V30 4123 C 381.798 -1.7365 -0.110295 0
M  V30 4124 O 382.974 -2.01273 0.0716218 0
M  V30 4125 C 380.039 -3.43704 0.454836 0
M  V30 4126 C 379.1 -4.00004 1.55869 0
M  V30 4127 C 378.333 -5.22023 1.1103 0
M  V30 4128 O 378.556 -5.70392 -0.0309756 0
M  V30 4129 O 377.49 -5.70856 1.90805 0
M  V30 4130 H 381.316 -2.40187 1.8586 0
M  V30 4131 H 378.901 -1.1402 0.965394 0
M  V30 4132 H 380.783 -4.20923 0.200382 0
M  V30 4133 H 379.458 -3.20559 -0.449876 0
M  V30 4134 H 378.365 -3.24172 1.86716 0
M  V30 4135 H 379.698 -4.2749 2.43953 0
M  V30 4136 N 381.35 -0.985608 -1.22978 0
M  V30 4137 C 382.59 -0.665487 -1.93263 0
M  V30 4138 C 382.954 0.78706 -1.75127 0
M  V30 4139 O 384.155 1.21826 -2.39608 0
M  V30 4140 C 382.426 -1.0515 -3.41582 0
M  V30 4141 S 383.985 -0.848637 -4.30516 0
M  V30 4142 H 380.803 -0.24355 -0.667985 0
M  V30 4143 H 383.405 -1.26635 -1.48942 0
M  V30 4144 H 382.109 -2.10517 -3.52293 0
M  V30 4145 H 381.64 -0.442134 -3.90908 0
M  V30 4146 H 383.655 0.264717 -4.95493 0
M  V30 4147 N 382.828 1.3818 -0.7579 0
M  V30 4148 C 384.105 1.94106 -0.241306 0
M  V30 4149 C 384.485 1.69282 1.26122 0
M  V30 4150 O 383.833 1.03378 2.03777 0
M  V30 4151 C 384.043 3.43809 -0.59967 0
M  V30 4152 C 385.391 4.20868 -0.561717 0
M  V30 4153 O 386.415 3.5211 -0.538222 0
M  V30 4154 O 385.274 5.43451 -0.576478 0
M  V30 4155 H 382.368 0.825376 -0.0518042 0
M  V30 4156 H 384.914 1.47548 -0.838315 0
M  V30 4157 H 383.686 3.55403 -1.6372 0
M  V30 4158 H 383.309 3.97592 0.0251197 0
M  V30 4159 N 384.306 0.507319 1.49211 0
M  V30 4160 C 385.552 -0.0269732 2.03382 0
M  V30 4161 C 385.907 -1.34111 1.37957 0
M  V30 4162 O 385.2 -1.84733 0.508351 0
M  V30 4163 C 385.394 -0.229513 3.56662 0
M  V30 4164 C 385.223 1.06344 4.36945 0
M  V30 4165 C 383.993 1.617 4.78729 0
M  V30 4166 C 386.191 1.96833 4.75143 0
M  V30 4167 N 384.173 2.8552 5.43463 0
M  V30 4168 C 385.544 3.0523 5.39661 0
M  V30 4169 C 387.599 1.97434 4.57082 0
M  V30 4170 C 386.302 4.14265 5.88028 0
M  V30 4171 C 388.328 3.05448 5.06414 0
M  V30 4172 C 387.69 4.12564 5.70938 0
M  V30 4173 H 383.789 0.0310673 0.781383 0
M  V30 4174 H 386.373 0.683579 1.82305 0
M  V30 4175 H 384.544 -0.909127 3.7761 0
M  V30 4176 H 386.276 -0.761377 3.97473 0
M  V30 4177 H 383.031 1.16132 4.59141 0
M  V30 4178 H 383.455 3.48499 5.80412 0
M  V30 4179 H 388.097 1.15924 4.06597 0
M  V30 4180 H 385.815 4.96569 6.3753 0
M  V30 4181 H 389.401 3.06941 4.94246 0
M  V30 4182 H 388.281 4.94767 6.0842 0
M  V30 4183 N 385.784 -1.5574 0.241426 0
M  V30 4184 C 387.03 -1.99846 -0.378555 0
M  V30 4185 C 387.385 -1.12665 -1.55963 0
M  V30 4186 O 386.678 -0.180966 -1.90743 0
M  V30 4187 C 386.872 -3.47308 -0.843317 0
M  V30 4188 C 386.701 -4.48756 0.291178 0
M  V30 4189 C 385.471 -4.9949 0.764077 0
M  V30 4190 C 387.669 -5.02039 1.11631 0
M  V30 4191 N 385.651 -5.84676 1.87156 0
M  V30 4192 C 387.022 -5.84343 2.07226 0
M  V30 4193 C 389.077 -4.84354 1.15349 0
M  V30 4194 C 387.78 -6.50851 3.06245 0
M  V30 4195 C 389.806 -5.51636 2.13195 0
M  V30 4196 C 389.168 -6.33724 3.07528 0
M  V30 4197 H 385.267 -0.774968 -0.104634 0
M  V30 4198 H 387.851 -1.91385 0.357751 0
M  V30 4199 H 386.022 -3.56178 -1.54893 0
M  V30 4200 H 387.754 -3.78299 -1.43779 0
M  V30 4201 H 384.509 -4.72311 0.349175 0
M  V30 4202 H 384.933 -6.31967 2.42789 0
M  V30 4203 H 389.575 -4.20525 0.438057 0
M  V30 4204 H 387.293 -7.1385 3.78739 0
M  V30 4205 H 390.879 -5.39909 2.16771 0
M  V30 4206 H 389.759 -6.84867 3.82003 0
M  V30 4207 N 387.262 0.0317525 -1.57568 0
M  V30 4208 C 388.225 1.01783 -2.0536 0
M  V30 4209 C 389.225 1.29203 -0.957253 0
M  V30 4210 O 390.415 1.24251 -1.22095 0
M  V30 4211 C 387.547 2.35137 -2.46827 0
M  V30 4212 H 388.74 0.605062 -2.93733 0
M  V30 4213 H 386.293 0.278514 -1.53799 0
M  V30 4214 H 387.028 2.81168 -1.61602 0
M  V30 4215 H 386.813 2.16566 -3.26866 0
M  V30 4216 H 388.303 3.05938 -2.84239 0
M  V30 4217 N 388.74 1.54641 0.303973 0
M  V30 4218 C 389.67 1.88386 1.3796 0
M  V30 4219 C 390.651 0.742485 1.5304 0
M  V30 4220 O 391.836 0.997959 1.66597 0
M  V30 4221 C 388.966 2.12854 2.74427 0
M  V30 4222 C 387.92 3.28702 2.74115 0
M  V30 4223 C 387.246 3.38582 4.13844 0
M  V30 4224 C 388.546 4.65881 2.3612 0
M  V30 4225 H 390.24 2.78474 1.09966 0
M  V30 4226 H 387.786 1.33988 0.527556 0
M  V30 4227 H 389.739 2.35047 3.49758 0
M  V30 4228 H 388.463 1.19535 3.03939 0
M  V30 4229 H 387.122 3.06428 2.0124 0
M  V30 4230 H 386.77 2.42784 4.40528 0
M  V30 4231 H 386.47 4.16453 4.14537 0
M  V30 4232 H 387.994 3.63031 4.90959 0
M  V30 4233 H 389.408 4.87823 3.01167 0
M  V30 4234 H 387.805 5.46444 2.48031 0
M  V30 4235 H 388.875 4.66799 1.3125 0
M  V30 4236 N 390.218 -0.567019 1.47046 0
M  V30 4237 C 391.466 -1.322 1.52864 0
M  V30 4238 C 391.787 -1.94088 0.188388 0
M  V30 4239 O 391.057 -1.7941 -0.786693 0
M  V30 4240 H 389.637 -0.490894 0.563056 0
M  V30 4241 H 392.299 -0.662879 1.83281 0
M  V30 4242 H 391.395 -2.12062 2.2899 0
M  V30 4243 N 391.696 -1.35014 -0.812953 0
M  V30 4244 C 392.942 -1.2812 -1.57204 0
M  V30 4245 C 393.275 0.145869 -1.93651 0
M  V30 4246 O 392.55 1.0937 -1.60836 0
M  V30 4247 C 392.833 -2.18162 -2.86492 0
M  V30 4248 C 392.686 -3.69454 -2.56561 0
M  V30 4249 C 394.005 -2.07439 -3.88145 0
M  V30 4250 H 391.124 -0.466746 -0.570366 0
M  V30 4251 H 393.766 -1.65357 -0.935783 0
M  V30 4252 H 391.916 -1.86535 -3.40789 0
M  V30 4253 H 393.588 -4.11493 -2.08497 0
M  V30 4254 H 391.831 -3.9005 -1.89851 0
M  V30 4255 H 392.502 -4.27835 -3.48799 0
M  V30 4256 H 394.978 -2.35228 -3.4323 0
M  V30 4257 H 393.854 -2.7265 -4.76396 0
M  V30 4258 H 394.115 -1.05439 -4.29343 0
M  V30 4259 N 393.175 1.03435 -1.18907 0
M  V30 4260 C 394.422 1.76743 -0.988334 0
M  V30 4261 C 394.75 1.88447 0.481441 0
M  V30 4262 O 394.005 1.39383 1.37371 0
M  V30 4263 C 394.304 3.19792 -1.59586 0
M  V30 4264 C 393.97 3.28108 -3.09283 0
M  V30 4265 C 392.632 3.30084 -3.5014 0
M  V30 4266 C 394.984 3.27696 -4.05296 0
M  V30 4267 C 392.312 3.29299 -4.85571 0
M  V30 4268 C 394.664 3.28451 -5.4065 0
M  V30 4269 C 393.328 3.28723 -5.80946 0
M  V30 4270 H 392.598 0.64675 -0.361657 0
M  V30 4271 H 395.245 1.21442 -1.48068 0
M  V30 4272 H 393.55 3.78136 -1.02568 0
M  V30 4273 H 395.247 3.75171 -1.41589 0
M  V30 4274 H 391.837 3.27294 -2.76725 0
M  V30 4275 H 396.021 3.25354 -3.74778 0
M  V30 4276 H 391.277 3.2783 -5.16079 0
M  V30 4277 H 395.451 3.27082 -6.14809 0
M  V30 4278 H 393.078 3.27868 -6.85862 0
M  V30 4279 N 394.653 0.992116 1.22453 0
M  V30 4280 C 395.616 0.546883 2.2258 0
M  V30 4281 C 396.616 -0.369829 1.56489 0
M  V30 4282 O 397.806 -0.161896 1.73446 0
M  V30 4283 C 394.938 -0.204659 3.40285 0
M  V30 4284 H 396.131 1.43234 2.63484 0
M  V30 4285 H 393.684 0.779239 1.3549 0
M  V30 4286 H 394.419 -1.10614 3.04853 0
M  V30 4287 H 394.204 0.45354 3.89468 0
M  V30 4288 H 395.694 -0.504358 4.14543 0
M  V30 4289 N 396.131 -1.37776 0.765217 0
M  V30 4290 C 397.361 -2.03828 0.337277 0
M  V30 4291 C 397.769 -1.57841 -1.04321 0
M  V30 4292 O 397.112 -0.752043 -1.67601 0
M  V30 4293 C 397.174 -3.58292 0.294407 0
M  V30 4294 C 396.838 -4.27384 1.61838 0
M  V30 4295 C 397.835 -4.51956 2.56967 0
M  V30 4296 C 395.52 -4.65345 1.89102 0
M  V30 4297 C 397.514 -5.13536 3.77571 0
M  V30 4298 C 395.201 -5.26647 3.09978 0
M  V30 4299 C 396.199 -5.50679 4.04032 0
M  V30 4300 O 395.887 -6.10702 5.2278 0
M  V30 4301 H 395.619 -0.661292 0.140248 0
M  V30 4302 H 398.173 -1.77222 1.03834 0
M  V30 4303 H 396.403 -3.83918 -0.462983 0
M  V30 4304 H 398.092 -4.05763 -0.105581 0
M  V30 4305 H 398.858 -4.23048 2.37183 0
M  V30 4306 H 394.737 -4.45978 1.16725 0
M  V30 4307 H 398.281 -5.3221 4.50997 0
M  V30 4308 H 394.178 -5.54979 3.29649 0
M  V30 4309 H 394.946 -6.29183 5.23517 0
M  V30 4310 N 397.609 -0.515225 -1.4894 0
M  V30 4311 C 398.519 0.259774 -2.33157 0
M  V30 4312 C 399.535 0.953501 -1.45548 0
M  V30 4313 O 400.711 0.931735 -1.78552 0
M  V30 4314 C 397.776 1.30193 -3.21326 0
M  V30 4315 C 396.837 0.620129 -4.24797 0
M  V30 4316 C 396.07 1.61263 -5.08753 0
M  V30 4317 O 396.293 2.84389 -4.94448 0
M  V30 4318 O 395.227 1.16013 -5.90614 0
M  V30 4319 H 399.053 -0.429932 -3.00641 0
M  V30 4320 H 396.638 -0.276346 -1.46822 0
M  V30 4321 H 398.52 1.90455 -3.75905 0
M  V30 4322 H 397.195 1.97431 -2.56521 0
M  V30 4323 H 396.102 -0.0226019 -3.74093 0
M  V30 4324 H 397.435 -0.0100493 -4.92199 0
M  V30 4325 N 399.087 1.5561 -0.249682 0
M  V30 4326 C 400.02 2.17537 0.689408 0
M  V30 4327 C 400.998 1.12829 1.17083 0
M  V30 4328 O 402.182 1.41229 1.24846 0
M  V30 4329 C 399.309 2.77828 1.93725 0
M  V30 4330 C 398.355 3.95615 1.59346 0
M  V30 4331 S 399.188 5.30988 0.69367 0
M  V30 4332 C 400.344 5.94734 1.95046 0
M  V30 4333 H 400.577 2.96852 0.163142 0
M  V30 4334 H 398.11 1.54362 -0.0341166 0
M  V30 4335 H 400.068 3.13199 2.65361 0
M  V30 4336 H 398.729 1.98454 2.43465 0
M  V30 4337 H 397.922 4.364 2.52132 0
M  V30 4338 H 397.524 3.61535 0.957512 0
M  V30 4339 H 399.816 6.12419 2.89739 0
M  V30 4340 H 400.759 6.90109 1.58604 0
M  V30 4341 H 401.167 5.23832 2.10381 0
M  V30 4342 N 400.565 -0.0233959 1.57583 0
M  V30 4343 C 401.812 -0.713063 1.8953 0
M  V30 4344 C 402.14 -1.75056 0.847673 0
M  V30 4345 O 401.395 -1.95119 -0.150636 0
M  V30 4346 C 401.694 -1.41428 3.28227 0
M  V30 4347 C 401.36 -0.512222 4.47981 0
M  V30 4348 C 400.022 -0.263785 4.80476 0
M  V30 4349 C 402.374 0.110248 5.21083 0
M  V30 4350 C 399.702 0.615804 5.83459 0
M  V30 4351 C 402.054 0.977573 6.25001 0
M  V30 4352 C 400.718 1.23542 6.55968 0
M  V30 4353 H 399.988 -0.260928 0.69354 0
M  V30 4354 H 402.635 0.0271047 1.91481 0
M  V30 4355 H 400.94 -2.22791 3.22291 0
M  V30 4356 H 402.637 -1.95355 3.50196 0
M  V30 4357 H 399.227 -0.716013 4.22577 0
M  V30 4358 H 403.411 -0.0687137 4.96252 0
M  V30 4359 H 398.667 0.82382 6.05824 0
M  V30 4360 H 402.841 1.46638 6.80786 0
M  V30 4361 H 400.468 1.91871 7.35588 0
M  V30 4362 N 402.043 -1.548 -0.295768 0
M  V30 4363 C 403.273 -1.78069 -1.04762 0
M  V30 4364 C 403.681 -0.542847 -1.81245 0
M  V30 4365 O 403.024 0.497051 -1.76848 0
M  V30 4366 C 403.086 -2.93881 -2.07061 0
M  V30 4367 C 402.75 -4.31777 -1.49725 0
M  V30 4368 C 403.747 -5.11613 -0.924581 0
M  V30 4369 C 401.432 -4.78389 -1.5313 0
M  V30 4370 C 403.426 -6.36184 -0.393594 0
M  V30 4371 C 401.113 -6.02921 -0.996447 0
M  V30 4372 C 402.111 -6.81654 -0.428569 0
M  V30 4373 O 401.799 -8.0384 0.0981593 0
M  V30 4374 H 401.531 -0.597475 -0.316226 0
M  V30 4375 H 404.085 -2.02584 -0.338973 0
M  V30 4376 H 402.315 -2.65003 -2.81621 0
M  V30 4377 H 404.004 -3.04679 -2.6819 0
M  V30 4378 H 404.77 -4.76743 -0.891136 0
M  V30 4379 H 400.649 -4.17132 -1.9627 0
M  V30 4380 H 404.193 -6.97582 0.0503014 0
M  V30 4381 H 400.09 -6.37277 -1.02706 0
M  V30 4382 H 400.858 -8.18499 -0.0146455 0
M  V30 4383 N 403.521 0.559213 -1.47345 0
M  V30 4384 C 404.769 1.31388 -1.53563 0
M  V30 4385 C 405.09 1.93985 -0.198678 0
M  V30 4386 O 404.36 1.79825 0.777167 0
M  V30 4387 H 402.94 0.487901 -0.565652 0
M  V30 4388 H 405.602 0.65315 -1.8363 0
M  V30 4389 H 404.698 2.10844 -2.30111 0
M  V30 4390 N 404.999 1.35443 0.805782 0
M  V30 4391 C 405.931 1.24285 1.92577 0
M  V30 4392 C 406.944 0.165962 1.61952 0
M  V30 4393 O 408.133 0.419303 1.73505 0
M  V30 4394 C 405.233 0.891272 3.2697 0
M  V30 4395 C 404.406 2.06669 3.85495 0
M  V30 4396 C 403.465 1.69077 4.98297 0
M  V30 4397 O 402.491 2.4096 5.15681 0
M  V30 4398 N 403.693 0.614869 5.77234 0
M  V30 4399 H 406.458 2.20777 2.02676 0
M  V30 4400 H 404.019 1.28623 0.983243 0
M  V30 4401 H 406.011 0.621256 3.99903 0
M  V30 4402 H 404.581 0.016004 3.12596 0
M  V30 4403 H 403.801 2.50046 3.04747 0
M  V30 4404 H 405.089 2.85237 4.21328 0
M  V30 4405 H 404.487 0.017648 5.65697 0
M  V30 4406 H 403.044 0.404636 6.50543 0
M  V30 4407 N 406.477 -1.02803 1.19454 0
M  V30 4408 C 407.705 -1.79841 1.02297 0
M  V30 4409 C 408.12 -1.83879 -0.428259 0
M  V30 4410 O 407.477 -1.28345 -1.29745 0
M  V30 4411 C 407.528 -3.24852 1.58598 0
M  V30 4412 O 407.249 -3.21097 2.98041 0
M  V30 4413 C 408.75 -4.18485 1.46236 0
M  V30 4414 H 405.97 -0.565936 0.360496 0
M  V30 4415 H 408.514 -1.2948 1.58288 0
M  V30 4416 H 406.669 -3.72401 1.06753 0
M  V30 4417 H 407.083 -4.12033 3.24545 0
M  V30 4418 H 408.557 -5.18121 1.90407 0
M  V30 4419 H 409.034 -4.37254 0.41301 0
M  V30 4420 H 409.64 -3.76811 1.97215 0
M  V30 4421 N 407.956 -0.998596 -1.21925 0
M  V30 4422 C 409.367 -0.711939 -1.72593 0
M  V30 4423 C 409.718 0.770842 -1.80423 0
M  V30 4424 O 408.843 1.60237 -1.4544 0
M  V30 4425 C 409.438 -1.28567 -3.13458 0
M  V30 4426 C 407.997 -1.04828 -3.61508 0
M  V30 4427 C 407.144 -1.4024 -2.39224 0
M  V30 4428 H 410.095 -1.17027 -1.07193 0
M  V30 4429 H 410.116 -0.667098 -3.74607 0
M  V30 4430 H 409.628 -2.36486 -3.07727 0
M  V30 4431 H 407.729 0.0140383 -3.72597 0
M  V30 4432 H 407.842 -1.71566 -4.47328 0
M  V30 4433 H 406.206 -0.821077 -2.41103 0
M  V30 4434 H 406.989 -2.49176 -2.36149 0
M  V30 4435 N 409.434 1.37368 -0.772513 0
M  V30 4436 C 410.681 1.99673 -0.337182 0
M  V30 4437 C 411.009 1.61324 1.0865 0
M  V30 4438 O 410.264 0.851377 1.7621 0
M  V30 4439 C 410.563 3.54817 -0.428876 0
M  V30 4440 C 410.229 4.12936 -1.81092 0
M  V30 4441 C 408.891 4.28523 -2.1891 0
M  V30 4442 C 411.243 4.44801 -2.71664 0
M  V30 4443 C 408.571 4.73277 -3.46735 0
M  V30 4444 C 410.923 4.90981 -3.98899 0
M  V30 4445 C 409.587 5.04773 -4.36761 0
M  V30 4446 H 408.857 0.730656 -0.123384 0
M  V30 4447 H 411.504 1.64124 -0.986686 0
M  V30 4448 H 409.809 3.90618 0.304167 0
M  V30 4449 H 411.506 4.00933 -0.0733334 0
M  V30 4450 H 408.096 4.01233 -1.50699 0
M  V30 4451 H 412.28 4.32344 -2.43706 0
M  V30 4452 H 407.536 4.82142 -3.75964 0
M  V30 4453 H 411.71 5.14603 -4.69208 0
M  V30 4454 H 409.337 5.39211 -5.35868 0
M  V30 4455 N 410.912 0.523116 1.48665 0
M  V30 4456 C 412.142 -0.00961724 2.06598 0
M  V30 4457 C 412.55 -1.29333 1.38093 0
M  V30 4458 O 411.893 -1.77846 0.46007 0
M  V30 4459 C 411.955 -0.311135 3.58151 0
M  V30 4460 C 411.619 0.878092 4.48485 0
M  V30 4461 C 412.616 1.77464 4.88674 0
M  V30 4462 C 410.301 1.08315 4.90483 0
M  V30 4463 C 412.295 2.86021 5.69623 0
M  V30 4464 C 409.982 2.17187 5.71203 0
M  V30 4465 C 410.98 3.05873 6.10681 0
M  V30 4466 O 410.668 4.12862 6.89783 0
M  V30 4467 H 410.4 0.0272658 0.67545 0
M  V30 4468 H 412.954 0.726156 1.92136 0
M  V30 4469 H 411.184 -1.10079 3.70701 0
M  V30 4470 H 412.873 -0.785125 3.98234 0
M  V30 4471 H 413.639 1.62813 4.56855 0
M  V30 4472 H 409.518 0.402149 4.59243 0
M  V30 4473 H 413.062 3.55272 6.00356 0
M  V30 4474 H 408.959 2.31824 6.02435 0
M  V30 4475 H 409.727 4.10487 7.08126 0
M  V30 4476 N 412.39 -1.55475 0.257931 0
M  V30 4477 C 413.353 -2.20551 -0.623706 0
M  V30 4478 C 414.353 -1.17809 -1.09443 0
M  V30 4479 O 415.543 -1.42823 -0.997362 0
M  V30 4480 C 412.675 -2.85784 -1.8585 0
M  V30 4481 H 413.868 -2.99848 -0.0557743 0
M  V30 4482 H 411.421 -1.56298 0.0084422 0
M  V30 4483 H 412.156 -2.10453 -2.46739 0
M  V30 4484 H 411.941 -3.61057 -1.52907 0
M  V30 4485 H 413.431 -3.35553 -2.48584 0
M  V30 4486 N 413.868 0.0150385 -1.57593 0
M  V30 4487 C 415.145 0.7392 -1.81094 0
M  V30 4488 C 415.525 1.92817 -0.859344 0
M  V30 4489 O 414.873 2.28301 0.095362 0
M  V30 4490 C 415.083 1.15907 -3.29191 0
M  V30 4491 C 416.431 1.56918 -3.9454 0
M  V30 4492 O 417.455 1.25328 -3.33424 0
M  V30 4493 O 416.314 2.15604 -5.02173 0
M  V30 4494 H 413.408 0.358631 -0.745193 0
M  V30 4495 H 415.954 -0.00926156 -1.69697 0
M  V30 4496 H 414.726 0.310921 -3.90063 0
M  V30 4497 H 414.349 1.96711 -3.45529 0
M  V30 4498 N 415.346 1.54954 0.287554 0
M  V30 4499 C 416.571 1.79209 1.04397 0
M  V30 4500 C 416.996 0.556431 1.79682 0
M  V30 4501 O 416.354 -0.493518 1.74454 0
M  V30 4502 C 416.402 3.00739 1.98969 0
M  V30 4503 O 415.506 2.74805 3.075 0
M  V30 4504 H 414.847 0.592755 0.299227 0
M  V30 4505 H 417.377 2.02068 0.320886 0
M  V30 4506 H 417.387 3.29077 2.4119 0
M  V30 4507 H 416.062 3.90329 1.43582 0
M  V30 4508 H 414.639 2.57523 2.69697 0
M  V30 4509 N 416.824 -0.551391 1.4764 0
M  V30 4510 C 418.052 -1.33357 1.58189 0
M  V30 4511 C 418.467 -1.87342 0.234199 0
M  V30 4512 O 417.824 -1.65301 -0.77343 0
M  V30 4513 C 417.875 -2.49942 2.61173 0
M  V30 4514 O 417.596 -1.98187 3.90709 0
M  V30 4515 C 419.097 -3.42072 2.8196 0
M  V30 4516 H 416.317 -0.40631 0.533998 0
M  V30 4517 H 418.861 -0.667367 1.93304 0
M  V30 4518 H 417.016 -3.12489 2.28975 0
M  V30 4519 H 417.43 -2.74342 4.47031 0
M  V30 4520 H 418.904 -4.20278 3.57869 0
M  V30 4521 H 419.381 -3.95978 1.89995 0
M  V30 4522 H 419.987 -2.85336 3.15378 0
M  V30 4523 N 418.302 -1.35869 -0.798587 0
M  V30 4524 C 419.265 -1.29307 -1.89242 0
M  V30 4525 C 420.265 -0.202747 -1.59517 0
M  V30 4526 O 421.455 -0.456957 -1.681 0
M  V30 4527 C 418.587 -1.00229 -3.25833 0
M  V30 4528 H 419.78 -2.26576 -1.96478 0
M  V30 4529 H 417.333 -1.20509 -0.995358 0
M  V30 4530 H 418.068 -0.033801 -3.24282 0
M  V30 4531 H 417.853 -1.79121 -3.48795 0
M  V30 4532 H 419.343 -0.98219 -4.05885 0
M  V30 4533 N 419.78 1.02168 -1.19998 0
M  V30 4534 C 420.69 2.14069 -0.959774 0
M  V30 4535 C 421.706 1.73804 0.082655 0
M  V30 4536 O 422.882 2.01133 -0.103633 0
M  V30 4537 C 419.947 3.42936 -0.509459 0
M  V30 4538 C 419.008 3.97474 -1.62213 0
M  V30 4539 C 418.241 5.2019 -1.19321 0
M  V30 4540 O 418.464 5.70369 -0.0597726 0
M  V30 4541 O 417.398 5.67749 -1.99863 0
M  V30 4542 H 421.224 2.37199 -1.89658 0
M  V30 4543 H 418.809 1.12469 -0.983411 0
M  V30 4544 H 420.691 4.20551 -0.267322 0
M  V30 4545 H 419.366 3.21234 0.398821 0
M  V30 4546 H 418.273 3.21161 -1.9185 0
M  V30 4547 H 419.606 4.23555 -2.50723 0
M  V30 4548 N 421.258 1.00505 1.21394 0
M  V30 4549 C 422.486 0.706609 1.9446 0
M  V30 4550 C 422.901 -0.73081 1.74082 0
M  V30 4551 O 422.258 -1.49446 1.04747 0
M  V30 4552 C 422.309 1.01824 3.46863 0
M  V30 4553 O 422.03 2.39919 3.66566 0
M  V30 4554 C 423.531 0.739216 4.37093 0
M  V30 4555 H 420.751 0.260394 0.618414 0
M  V30 4556 H 423.295 1.34311 1.54211 0
M  V30 4557 H 421.45 0.427343 3.85036 0
M  V30 4558 H 421.864 2.50784 4.6066 0
M  V30 4559 H 423.338 1.00744 5.42729 0
M  V30 4560 H 423.815 -0.326746 4.37983 0
M  V30 4561 H 424.421 1.31173 4.04566 0
M  V30 4562 N 422.737 -1.36956 0.779787 0
M  V30 4563 C 423.967 -2.03459 0.358877 0
M  V30 4564 C 424.375 -1.58939 -1.02641 0
M  V30 4565 O 423.718 -0.769777 -1.66794 0
M  V30 4566 C 423.78 -3.5796 0.332393 0
M  V30 4567 C 423.444 -4.25644 1.66362 0
M  V30 4568 C 424.441 -4.49205 2.61746 0
M  V30 4569 C 422.126 -4.63313 1.94027 0
M  V30 4570 C 424.12 -5.09503 3.82996 0
M  V30 4571 C 421.807 -5.2333 3.15546 0
M  V30 4572 C 422.805 -5.46363 4.0985 0
M  V30 4573 O 422.493 -6.05122 5.29228 0
M  V30 4574 H 422.225 -0.659767 0.147254 0
M  V30 4575 H 424.779 -1.76111 1.05708 0
M  V30 4576 H 423.009 -3.84388 -0.422237 0
M  V30 4577 H 424.698 -4.05852 -0.0625389 0
M  V30 4578 H 425.464 -4.20508 2.41657 0
M  V30 4579 H 421.343 -4.44715 1.21448 0
M  V30 4580 H 424.887 -5.27397 4.56617 0
M  V30 4581 H 420.784 -5.51451 3.35517 0
M  V30 4582 H 421.552 -6.23595 5.30161 0
M  V30 4583 N 424.215 -0.530993 -1.48385 0
M  V30 4584 C 425.463 0.00273189 -2.021 0
M  V30 4585 C 425.784 1.34672 -1.41027 0
M  V30 4586 O 425.054 1.8724 -0.576012 0
M  V30 4587 H 423.634 0.00399774 -0.746989 0
M  V30 4588 H 426.296 -0.695054 -1.82085 0
M  V30 4589 H 425.392 0.11031 -3.11905 0
M  V30 4590 N 425.693 1.55336 -0.266172 0
M  V30 4591 C 426.64 2.22172 0.625165 0
M  V30 4592 C 427.61 1.19211 1.15663 0
M  V30 4593 O 428.795 1.47723 1.20758 0
M  V30 4594 C 425.935 2.93972 1.8076 0
M  V30 4595 C 425.048 4.11632 1.31084 0
M  V30 4596 C 424.183 4.71099 2.45436 0
M  V30 4597 C 423.222 5.8097 1.92718 0
M  V30 4598 N 422.359 6.34538 3.00509 0
M  V30 4599 H 427.199 2.9796 0.0485582 0
M  V30 4600 H 424.736 1.47095 0.0122024 0
M  V30 4601 H 426.694 3.33811 2.50251 0
M  V30 4602 H 425.324 2.20623 2.35638 0
M  V30 4603 H 424.376 3.76975 0.509326 0
M  V30 4604 H 425.688 4.90893 0.884633 0
M  V30 4605 H 424.842 5.13612 3.22936 0
M  V30 4606 H 423.581 3.91096 2.91368 0
M  V30 4607 H 422.586 5.37916 1.13695 0
M  V30 4608 H 423.811 6.62836 1.47733 0
M  V30 4609 H 421.757 5.57433 3.45839 0
M  V30 4610 H 421.674 7.09046 2.62279 0
M  V30 4611 H 422.942 6.81709 3.78011 0
M  V30 4612 N 427.171 -0.0066808 1.57599 0
M  V30 4613 C 428.42 -0.692078 1.89455 0
M  V30 4614 C 428.733 -1.75306 0.867586 0
M  V30 4615 O 429.939 -2.49262 1.07614 0
M  V30 4616 C 428.395 -1.2821 3.36289 0
M  V30 4617 C 428.003 -0.256291 4.47266 0
M  V30 4618 C 429.747 -1.94608 3.77264 0
M  V30 4619 C 427.654 -0.855927 5.85173 0
M  V30 4620 H 426.584 -0.262252 0.706923 0
M  V30 4621 H 429.235 0.052769 1.83424 0
M  V30 4622 H 427.617 -2.0774 3.37135 0
M  V30 4623 H 428.791 0.513923 4.57925 0
M  V30 4624 H 427.106 0.306862 4.15268 0
M  V30 4625 H 429.703 -2.40364 4.77629 0
M  V30 4626 H 430.046 -2.77382 3.10427 0
M  V30 4627 H 430.579 -1.21822 3.78688 0
M  V30 4628 H 427.318 -0.0671161 6.55466 0
M  V30 4629 H 426.838 -1.59546 5.78191 0
M  V30 4630 H 428.517 -1.35658 6.32618 0
M  V30 4631 N 428.649 -1.55105 -0.279332 0
M  V30 4632 C 429.895 -1.75672 -1.01327 0
M  V30 4633 C 430.228 -0.552739 -1.86168 0
M  V30 4634 O 429.503 0.449827 -1.89227 0
M  V30 4635 C 429.786 -3.05825 -1.90114 0
M  V30 4636 C 429.639 -4.36565 -1.08309 0
M  V30 4637 C 430.958 -3.31975 -2.8893 0
M  V30 4638 H 428.077 -0.639149 -0.366957 0
M  V30 4639 H 430.719 -1.87833 -0.286154 0
M  V30 4640 H 428.869 -2.95588 -2.52111 0
M  V30 4641 H 430.541 -4.58751 -0.484314 0
M  V30 4642 H 428.784 -4.32076 -0.386362 0
M  V30 4643 H 429.455 -5.23946 -1.73737 0
M  V30 4644 H 431.931 -3.41963 -2.37067 0
M  V30 4645 H 430.807 -4.2432 -3.48201 0
M  V30 4646 H 431.068 -2.51309 -3.63725 0
M  V30 4647 N 430.127 0.543554 -1.4793 0
M  V30 4648 C 431.077 1.64527 -1.57844 0
M  V30 4649 C 432.061 1.54869 -0.436408 0
M  V30 4650 O 433.253 1.63119 -0.687101 0
M  V30 4651 C 430.382 3.03281 -1.6086 0
M  V30 4652 C 429.468 3.18093 -2.80495 0
M  V30 4653 N 429.859 3.02923 -4.05057 0
M  V30 4654 C 428.157 3.49121 -2.77543 0
M  V30 4655 C 428.858 3.20791 -4.85251 0
M  V30 4656 N 427.834 3.47749 -4.17818 0
M  V30 4657 H 431.636 1.51388 -2.5191 0
M  V30 4658 H 429.15 0.748671 -1.44113 0
M  V30 4659 H 431.147 3.82403 -1.66054 0
M  V30 4660 H 429.807 3.17521 -0.678996 0
M  V30 4661 H 430.818 2.79966 -4.35705 0
M  V30 4662 H 427.495 3.69804 -1.93781 0
M  V30 4663 H 428.885 3.13915 -5.9406 0
M  V30 4664 N 431.605 1.3629 0.791371 0
M  V30 4665 C 432.835 1.33368 1.57786 0
M  V30 4666 C 433.243 -0.0875188 1.88997 0
M  V30 4667 O 432.586 -1.05427 1.50435 0
M  V30 4668 C 432.648 2.08802 2.92646 0
M  V30 4669 C 432.312 3.57903 2.84174 0
M  V30 4670 C 433.309 4.52191 2.56553 0
M  V30 4671 C 430.994 4.00762 3.02812 0
M  V30 4672 C 432.988 5.87315 2.47669 0
M  V30 4673 C 430.675 5.35977 2.93551 0
M  V30 4674 C 431.673 6.29066 2.66017 0
M  V30 4675 O 431.361 7.61798 2.56746 0
M  V30 4676 H 431.093 0.459166 0.496128 0
M  V30 4677 H 433.647 1.79952 0.990269 0
M  V30 4678 H 431.877 1.56878 3.53449 0
M  V30 4679 H 433.566 1.98762 3.53904 0
M  V30 4680 H 434.332 4.20393 2.41858 0
M  V30 4681 H 430.211 3.2868 3.2325 0
M  V30 4682 H 433.755 6.59943 2.26099 0
M  V30 4683 H 429.652 5.67384 3.07808 0
M  V30 4684 H 430.42 7.71898 2.72242 0
M  V30 4685 N 433.083 -1.0153 1.20538 0
M  V30 4686 C 434.03 -2.10098 0.955383 0
M  V30 4687 C 435 -1.65702 -0.114878 0
M  V30 4688 O 436.185 -1.90776 0.0301118 0
M  V30 4689 C 433.325 -3.41236 0.514969 0
M  V30 4690 C 432.438 -3.99102 1.65353 0
M  V30 4691 C 431.573 -5.18306 1.16329 0
M  V30 4692 C 430.612 -5.68258 2.27485 0
M  V30 4693 N 429.749 -6.78722 1.7967 0
M  V30 4694 H 434.589 -2.30818 1.88486 0
M  V30 4695 H 432.126 -1.13189 0.939499 0
M  V30 4696 H 434.084 -4.16504 0.240935 0
M  V30 4697 H 432.714 -3.20585 -0.377512 0
M  V30 4698 H 431.766 -3.20918 2.04245 0
M  V30 4699 H 433.078 -4.32177 2.49047 0
M  V30 4700 H 432.232 -6.00782 0.845302 0
M  V30 4701 H 430.971 -4.86799 0.296254 0
M  V30 4702 H 429.976 -4.84385 2.60099 0
M  V30 4703 H 431.201 -6.01798 3.14667 0
M  V30 4704 H 429.147 -6.49042 0.95295 0
M  V30 4705 H 429.064 -7.10996 2.56944 0
M  V30 4706 H 430.332 -7.64759 1.50875 0
M  V30 4707 N 434.561 -1.01147 -1.20859 0
M  V30 4708 C 435.471 -0.58686 -2.27141 0
M  V30 4709 C 436.487 0.373198 -1.69951 0
M  V30 4710 O 437.663 0.235423 -2.00019 0
M  V30 4711 C 434.728 0.0733602 -3.46622 0
M  V30 4712 C 433.789 -0.931995 -4.19061 0
M  V30 4713 C 433.022 -0.303186 -5.32838 0
M  V30 4714 O 433.245 0.898395 -5.63281 0
M  V30 4715 O 432.179 -1.01735 -5.9324 0
M  V30 4716 H 436.005 -1.47155 -2.65667 0
M  V30 4717 H 433.59 -0.780689 -1.2738 0
M  V30 4718 H 435.472 0.442333 -4.19072 0
M  V30 4719 H 434.147 0.932329 -3.09983 0
M  V30 4720 H 433.054 -1.35224 -3.48805 0
M  V30 4721 H 434.387 -1.76076 -4.59628 0
M  V30 4722 N 436.039 1.36541 -0.78704 0
M  V30 4723 C 436.989 2.27459 -0.156957 0
M  V30 4724 C 437.973 1.46843 0.657709 0
M  V30 4725 O 439.165 1.69245 0.518173 0
M  V30 4726 C 436.294 3.35893 0.709278 0
M  V30 4727 C 435.38 4.23947 -0.114049 0
M  V30 4728 N 435.771 4.92145 -1.16736 0
M  V30 4729 C 434.069 4.4587 0.107497 0
M  V30 4730 C 434.77 5.57261 -1.66837 0
M  V30 4731 N 433.746 5.3473 -0.977992 0
M  V30 4732 H 437.548 2.77669 -0.963185 0
M  V30 4733 H 435.062 1.49839 -0.62627 0
M  V30 4734 H 437.059 3.99953 1.17656 0
M  V30 4735 H 435.719 2.87238 1.51408 0
M  V30 4736 H 436.73 4.94169 -1.54976 0
M  V30 4737 H 433.407 4.08056 0.882994 0
M  V30 4738 H 434.797 6.21728 -2.54762 0
M  V30 4739 N 437.518 0.538854 1.48102 0
M  V30 4740 C 438.448 -0.207654 2.32575 0
M  V30 4741 C 439.429 -0.926559 1.4265 0
M  V30 4742 O 440.614 -0.91061 1.71527 0
M  V30 4743 C 437.744 -1.24957 3.24042 0
M  V30 4744 C 436.698 -0.648263 4.23062 0
M  V30 4745 C 436.024 -1.79348 5.03725 0
M  V30 4746 C 437.324 0.385897 5.20872 0
M  V30 4747 H 439.018 0.497534 2.95237 0
M  V30 4748 H 436.564 0.240715 1.41974 0
M  V30 4749 H 438.517 -1.77983 3.81969 0
M  V30 4750 H 437.241 -1.98446 2.59397 0
M  V30 4751 H 435.9 -0.139452 3.66335 0
M  V30 4752 H 435.548 -2.51696 4.35498 0
M  V30 4753 H 435.248 -1.39702 5.70751 0
M  V30 4754 H 436.772 -2.32735 5.64506 0
M  V30 4755 H 438.186 -0.057607 5.73271 0
M  V30 4756 H 436.583 0.700227 5.96001 0
M  V30 4757 H 437.653 1.28848 4.67468 0
M  V30 4758 N 438.996 -1.55193 0.274407 0
M  V30 4759 C 440.221 -2.04446 -0.348824 0
M  V30 4760 C 440.646 -1.15149 -1.48735 0
M  V30 4761 O 440.004 -0.149952 -1.80679 0
M  V30 4762 C 440.052 -3.51431 -0.808009 0
M  V30 4763 O 439.156 -3.65225 -1.91531 0
M  V30 4764 H 438.497 -0.66006 -0.0722276 0
M  V30 4765 H 441.027 -2.00481 0.408498 0
M  V30 4766 H 441.037 -3.92781 -1.10395 0
M  V30 4767 H 439.712 -4.15892 0.0249865 0
M  V30 4768 H 438.289 -3.35778 -1.62196 0
M  V30 4769 N 440.474 -0.00167713 -1.576 0
M  V30 4770 C 441.404 0.988091 -2.11563 0
M  V30 4771 C 442.385 1.35736 -1.02517 0
M  V30 4772 O 443.57 1.44082 -1.30208 0
M  V30 4773 C 440.7 2.27941 -2.62031 0
M  V30 4774 C 439.654 2.0517 -3.75619 0
M  V30 4775 C 438.98 3.4033 -4.12407 0
M  V30 4776 C 440.28 1.41294 -5.02825 0
M  V30 4777 H 441.974 0.538771 -2.94513 0
M  V30 4778 H 439.52 0.257712 -1.41675 0
M  V30 4779 H 441.473 2.97539 -2.9841 0
M  V30 4780 H 440.197 2.74989 -1.76205 0
M  V30 4781 H 438.856 1.37998 -3.39635 0
M  V30 4782 H 438.504 3.85085 -3.23603 0
M  V30 4783 H 438.204 3.25909 -4.88935 0
M  V30 4784 H 439.728 4.1124 -4.51347 0
M  V30 4785 H 441.142 2.00851 -5.36965 0
M  V30 4786 H 439.539 1.37356 -5.84169 0
M  V30 4787 H 440.609 0.382362 -4.8339 0
M  V30 4788 N 441.952 1.55251 0.271103 0
M  V30 4789 C 443.363 1.66635 0.842007 0
M  V30 4790 C 443.714 0.594631 1.86972 0
M  V30 4791 O 442.839 -0.263532 2.14789 0
M  V30 4792 C 443.434 3.02082 1.53401 0
M  V30 4793 C 441.993 3.15487 2.05293 0
M  V30 4794 C 441.14 2.62438 0.895631 0
M  V30 4795 H 444.091 1.58629 0.0474117 0
M  V30 4796 H 444.112 2.95176 2.40107 0
M  V30 4797 H 443.624 3.80062 0.785786 0
M  V30 4798 H 441.725 2.42284 2.83071 0
M  V30 4799 H 441.838 4.22075 2.26693 0
M  V30 4800 H 440.202 2.19644 1.28953 0
M  V30 4801 H 440.985 3.42923 0.160878 0
M  V30 4802 N 443.43 -0.535701 1.48216 0
M  V30 4803 C 444.36 -1.65014 1.65204 0
M  V30 4804 C 445.341 -1.62554 0.501011 0
M  V30 4805 O 446.526 -1.7984 0.732886 0
M  V30 4806 C 443.656 -3.03616 1.68626 0
M  V30 4807 C 442.61 -3.20932 2.83172 0
M  V30 4808 C 441.936 -4.60537 2.71679 0
M  V30 4809 C 443.236 -3.04249 4.24535 0
M  V30 4810 H 444.93 -1.51053 2.58502 0
M  V30 4811 H 442.476 -0.725262 1.24402 0
M  V30 4812 H 444.429 -3.81446 1.79099 0
M  V30 4813 H 443.153 -3.18587 0.719026 0
M  V30 4814 H 441.812 -2.45517 2.72244 0
M  V30 4815 H 441.46 -4.72336 1.72937 0
M  V30 4816 H 441.16 -4.73069 3.48538 0
M  V30 4817 H 442.684 -5.40475 2.84112 0
M  V30 4818 H 444.098 -3.71877 4.36326 0
M  V30 4819 H 442.495 -3.28278 5.02348 0
M  V30 4820 H 443.565 -2.00739 4.41397 0
M  V30 4821 N 444.908 -1.36708 -0.784132 0
M  V30 4822 C 446.154 -1.31426 -1.54451 0
M  V30 4823 C 446.487 0.10476 -1.93917 0
M  V30 4824 O 445.762 1.05934 -1.6312 0
M  V30 4825 C 446.045 -2.24189 -2.818 0
M  V30 4826 C 445.898 -3.74813 -2.48667 0
M  V30 4827 C 447.217 -2.15626 -3.83658 0
M  V30 4828 H 444.336 -0.478739 -0.560337 0
M  V30 4829 H 446.978 -1.67305 -0.900498 0
M  V30 4830 H 445.128 -1.93722 -3.36755 0
M  V30 4831 H 446.8 -4.15823 -1.99722 0
M  V30 4832 H 445.043 -3.93989 -1.81535 0
M  V30 4833 H 445.714 -4.35138 -3.39646 0
M  V30 4834 H 448.19 -2.42456 -3.38163 0
M  V30 4835 H 447.066 -2.82694 -4.70506 0
M  V30 4836 H 447.327 -1.14522 -4.27009 0
M  V30 4837 N 446.386 1.0089 -1.21074 0
M  V30 4838 C 447.663 1.71834 -0.934469 0
M  V30 4839 C 448.043 2.0368 0.554753 0
M  V30 4840 O 447.391 1.70742 1.51854 0
M  V30 4841 C 447.601 2.98061 -1.8155 0
M  V30 4842 C 448.949 3.7117 -2.06199 0
M  V30 4843 O 449.973 3.08034 -1.78867 0
M  V30 4844 O 448.832 4.84721 -2.52404 0
M  V30 4845 H 445.926 0.749253 -0.35007 0
M  V30 4846 H 448.472 1.06668 -1.31985 0
M  V30 4847 H 447.244 2.70908 -2.82355 0
M  V30 4848 H 446.867 3.70968 -1.43068 0
M  V30 4849 N 447.864 1.01787 1.20321 0
M  V30 4850 C 448.774 0.598898 2.26827 0
M  V30 4851 C 449.79 -0.36418 1.70146 0
M  V30 4852 O 450.966 -0.224812 2.00141 0
M  V30 4853 C 448.031 -0.0549769 3.46656 0
M  V30 4854 C 447.092 0.954205 4.18561 0
M  V30 4855 C 446.325 0.331439 5.3267 0
M  V30 4856 O 446.548 -0.86851 5.63749 0
M  V30 4857 O 445.482 1.0488 5.92692 0
M  V30 4858 H 449.308 1.48562 2.64883 0
M  V30 4859 H 446.893 0.787434 1.26964 0
M  V30 4860 H 448.775 -0.420102 4.19301 0
M  V30 4861 H 447.45 -0.915876 3.10473 0
M  V30 4862 H 446.357 1.37072 3.48083 0
M  V30 4863 H 447.69 1.78511 4.58688 0
M  V30 4864 N 449.342 -1.36122 0.79427 0
M  V30 4865 C 450.59 -1.98718 0.368177 0
M  V30 4866 C 450.911 -1.63345 -1.06506 0
M  V30 4867 O 450.181 -0.909825 -1.73491 0
M  V30 4868 H 448.761 -0.735038 0.133146 0
M  V30 4869 H 451.423 -1.66239 1.01739 0
M  V30 4870 H 450.519 -3.08633 0.463923 0
M  V30 4871 N 450.82 -0.546701 -1.47814 0
M  V30 4872 C 452.066 -0.0187684 -2.02791 0
M  V30 4873 C 452.399 1.32338 -1.42128 0
M  V30 4874 O 451.674 1.85867 -0.573023 0
M  V30 4875 C 451.957 0.0854985 -3.59998 0
M  V30 4876 C 451.81 -1.283 -4.31114 0
M  V30 4877 C 453.129 0.80412 -4.32691 0
M  V30 4878 H 450.248 -0.0082946 -0.736953 0
M  V30 4879 H 452.89 -0.706962 -1.76358 0
M  V30 4880 H 451.04 0.671609 -3.82651 0
M  V30 4881 H 452.712 -1.91151 -4.19832 0
M  V30 4882 H 450.955 -1.86049 -3.91878 0
M  V30 4883 H 451.626 -1.16287 -5.39612 0
M  V30 4884 H 454.102 0.306576 -4.14969 0
M  V30 4885 H 452.978 0.846011 -5.42341 0
M  V30 4886 H 453.239 1.85802 -4.01161 0
M  V30 4887 N 452.299 1.55045 -0.282633 0
M  V30 4888 C 453.71 1.85473 0.213655 0
M  V30 4889 C 454.061 1.20465 1.54863 0
M  V30 4890 O 453.186 0.495676 2.10647 0
M  V30 4891 C 453.781 3.36496 0.394445 0
M  V30 4892 C 452.34 3.67022 0.834961 0
M  V30 4893 C 451.487 2.77218 -0.0674081 0
M  V30 4894 H 454.438 1.50478 -0.504202 0
M  V30 4895 H 454.459 3.60007 1.23186 0
M  V30 4896 H 453.971 3.83782 -0.577326 0
M  V30 4897 H 452.072 3.25241 1.81794 0
M  V30 4898 H 452.185 4.74433 0.667075 0
M  V30 4899 H 450.549 2.5069 0.450196 0
M  V30 4900 H 451.332 3.2732 -1.0352 0
M  V30 4901 N 453.777 0.010035 1.57597 0
M  V30 4902 C 454.687 -0.994226 2.12491 0
M  V30 4903 C 455.703 -1.37013 1.07254 0
M  V30 4904 O 456.879 -1.45542 1.3921 0
M  V30 4905 C 453.944 -2.2642 2.62555 0
M  V30 4906 C 453.005 -1.95049 3.82432 0
M  V30 4907 C 452.238 -3.15991 4.30099 0
M  V30 4908 O 452.461 -4.28015 3.7704 0
M  V30 4909 O 451.395 -2.99403 5.22151 0
M  V30 4910 H 455.221 -0.557549 2.98538 0
M  V30 4911 H 452.806 -0.209413 1.47925 0
M  V30 4912 H 454.688 -3.01009 2.9491 0
M  V30 4913 H 453.363 -2.69306 1.796 0
M  V30 4914 H 452.27 -1.17904 3.55034 0
M  V30 4915 H 453.603 -1.56992 4.66491 0
M  V30 4916 N 455.255 -1.55392 -0.262866 0
M  V30 4917 C 456.165 -1.92077 -1.34698 0
M  V30 4918 C 457.181 -0.819227 -1.53508 0
M  V30 4919 O 458.357 -1.11921 -1.67439 0
M  V30 4920 C 455.422 -2.19407 -2.68443 0
M  V30 4921 C 454.483 -3.42905 -2.58292 0
M  V30 4922 C 453.716 -3.68921 -3.85659 0
M  V30 4923 O 453.939 -2.97275 -4.8681 0
M  V30 4924 O 452.873 -4.62455 -3.85252 0
M  V30 4925 H 456.699 -2.84384 -1.06581 0
M  V30 4926 H 454.284 -1.42069 -0.462264 0
M  V30 4927 H 456.166 -2.38365 -3.47506 0
M  V30 4928 H 454.841 -1.30282 -2.96325 0
M  V30 4929 H 453.748 -3.29272 -1.7757 0
M  V30 4930 H 455.081 -4.32282 -2.35358 0
M  V30 4931 N 456.733 0.527833 -1.48498 0
M  V30 4932 C 457.696 1.61439 -1.62696 0
M  V30 4933 C 458.696 1.52824 -0.500136 0
M  V30 4934 O 459.886 1.56456 -0.765976 0
M  V30 4935 C 457.018 3.01063 -1.59918 0
M  V30 4936 H 458.211 1.50189 -2.59583 0
M  V30 4937 H 455.764 0.750055 -1.37127 0
M  V30 4938 H 456.499 3.17818 -0.645163 0
M  V30 4939 H 456.284 3.08725 -2.41726 0
M  V30 4940 H 457.774 3.80057 -1.73051 0
M  V30 4941 N 458.211 1.37122 0.776871 0
M  V30 4942 C 459.627 1.1781 1.07671 0
M  V30 4943 C 459.827 0.0107454 2.01497 0
M  V30 4944 O 458.883 -0.650756 2.4397 0
M  V30 4945 C 460.196 2.49451 1.67913 0
M  V30 4946 C 461.744 2.55927 1.80195 0
M  V30 4947 C 462.219 3.87686 2.43851 0
M  V30 4948 N 463.71 3.891 2.51307 0
M  V30 4949 C 464.445 4.87797 3.014 0
M  V30 4950 N 463.941 5.96888 3.51705 0
M  V30 4951 N 465.734 4.75205 3.00227 0
M  V30 4952 H 457.885 2.11843 0.153778 0
M  V30 4953 H 460.148 0.938927 0.130844 0
M  V30 4954 H 459.854 3.35207 1.06439 0
M  V30 4955 H 459.728 2.66169 2.67271 0
M  V30 4956 H 462.115 1.70582 2.40803 0
M  V30 4957 H 462.196 2.43097 0.796069 0
M  V30 4958 H 461.84 4.73444 1.83884 0
M  V30 4959 H 461.77 3.97817 3.45035 0
M  V30 4960 H 464.261 3.10293 2.157 0
M  V30 4961 H 464.574 6.68155 3.88316 0
M  V30 4962 H 462.919 6.0054 3.49824 0
M  V30 4963 H 466.11 3.89103 2.60224 0
M  V30 4964 H 466.283 5.52279 3.38957 0
M  V30 4965 N 459.689 -1.00246 1.21608 0
M  V30 4966 C 460.966 -1.71336 0.943568 0
M  V30 4967 C 461.346 -2.03972 -0.543943 0
M  V30 4968 O 460.694 -1.71545 -1.50946 0
M  V30 4969 C 460.904 -2.97094 1.83128 0
M  V30 4970 C 462.252 -3.70071 2.08165 0
M  V30 4971 O 463.276 -3.07081 1.80498 0
M  V30 4972 O 462.135 -4.83376 2.54971 0
M  V30 4973 H 459.229 -0.747386 0.354039 0
M  V30 4974 H 461.775 -1.05967 1.32549 0
M  V30 4975 H 460.547 -2.69407 2.83788 0
M  V30 4976 H 460.17 -3.70204 1.45034 0
M  V30 4977 N 461.167 -1.02423 -1.1978 0
M  V30 4978 C 462.414 -0.717988 -1.89344 0
M  V30 4979 C 462.742 0.753036 -1.79331 0
M  V30 4980 O 461.997 1.56355 -1.17692 0
M  V30 4981 C 462.296 -1.1088 -3.39765 0
M  V30 4982 C 461.962 -2.57731 -3.6998 0
M  V30 4983 C 460.624 -2.97854 -3.77937 0
M  V30 4984 C 462.976 -3.52763 -3.83677 0
M  V30 4985 C 460.304 -4.31931 -3.97054 0
M  V30 4986 C 462.656 -4.86538 -4.04306 0
M  V30 4987 C 461.32 -5.26356 -4.10494 0
M  V30 4988 H 460.59 -0.26273 -0.692859 0
M  V30 4989 H 463.237 -1.28623 -1.41875 0
M  V30 4990 H 461.542 -0.459094 -3.89101 0
M  V30 4991 H 463.239 -0.849432 -3.919 0
M  V30 4992 H 459.829 -2.25646 -3.64393 0
M  V30 4993 H 464.013 -3.2292 -3.76877 0
M  V30 4994 H 459.269 -4.62324 -4.00083 0
M  V30 4995 H 463.443 -5.60093 -4.13846 0
M  V30 4996 H 461.07 -6.3026 -4.2506 0
M  V30 4997 N 462.645 1.35699 -0.801477 0
M  V30 4998 C 463.894 1.98165 -0.375979 0
M  V30 4999 C 464.207 1.64306 1.06127 0
M  V30 5000 O 465.413 2.20097 1.58964 0
M  V30 5001 C 463.869 3.54497 -0.621305 0
M  V30 5002 C 463.477 3.9727 -2.07076 0
M  V30 5003 C 465.221 4.23697 -0.26091 0
M  V30 5004 C 463.128 5.46427 -2.26211 0
M  V30 5005 H 462.058 0.741478 -0.136844 0
M  V30 5006 H 464.709 1.54834 -0.984814 0
M  V30 5007 H 463.091 3.95958 0.0574112 0
M  V30 5008 H 464.265 3.66974 -2.78687 0
M  V30 5009 H 462.58 3.40943 -2.39054 0
M  V30 5010 H 465.177 5.33334 -0.381994 0
M  V30 5011 H 465.52 4.0869 0.792344 0
M  V30 5012 H 466.053 3.87639 -0.893339 0
M  V30 5013 H 462.792 5.66396 -3.29963 0
M  V30 5014 H 462.312 5.78309 -1.59119 0
M  V30 5015 H 463.991 6.12819 -2.07513 0
M  V30 5016 N 464.123 0.554532 1.47522 0
M  V30 5017 C 465.055 -0.232106 2.28022 0
M  V30 5018 C 466.068 -0.881865 1.36847 0
M  V30 5019 O 467.257 -0.756168 1.61692 0
M  V30 5020 C 464.357 -1.34604 3.11022 0
M  V30 5021 C 463.53 -0.793582 4.30141 0
M  V30 5022 C 462.589 -1.79168 4.94758 0
M  V30 5023 O 461.615 -1.33886 5.5323 0
M  V30 5024 N 462.817 -3.12495 4.89211 0
M  V30 5025 H 465.582 0.458407 2.96173 0
M  V30 5026 H 463.143 0.390433 1.57122 0
M  V30 5027 H 465.135 -2.01243 3.51118 0
M  V30 5028 H 463.705 -1.93983 2.45131 0
M  V30 5029 H 462.925 0.0495025 3.94169 0
M  V30 5030 H 464.213 -0.403776 5.07195 0
M  V30 5031 H 463.611 -3.51931 4.42901 0
M  V30 5032 H 462.168 -3.74698 5.33333 0
M  V30 5033 N 465.601 -1.54893 0.290851 0
M  V30 5034 C 467.017 -1.59476 -0.0628432 0
M  V30 5035 C 467.217 -1.30795 -1.5328 0
M  V30 5036 O 466.273 -1.07644 -2.28406 0
M  V30 5037 C 467.586 -2.98928 0.325962 0
M  V30 5038 C 469.134 -3.11799 0.273882 0
M  V30 5039 C 469.609 -4.53544 0.637359 0
M  V30 5040 N 471.1 -4.59433 0.589507 0
M  V30 5041 C 471.835 -5.67164 0.84335 0
M  V30 5042 N 471.331 -6.82975 1.16263 0
M  V30 5043 N 473.124 -5.56786 0.771091 0
M  V30 5044 H 465.275 -1.71798 1.24896 0
M  V30 5045 H 467.538 -0.801879 0.505663 0
M  V30 5046 H 467.244 -3.24805 1.34887 0
M  V30 5047 H 467.118 -3.75793 -0.325441 0
M  V30 5048 H 469.505 -2.85677 -0.739765 0
M  V30 5049 H 469.586 -2.37112 0.959766 0
M  V30 5050 H 469.23 -4.80394 1.64877 0
M  V30 5051 H 469.16 -5.26553 -0.0704866 0
M  V30 5052 H 471.651 -3.76245 0.353252 0
M  V30 5053 H 471.964 -7.61048 1.34257 0
M  V30 5054 H 470.309 -6.84552 1.20057 0
M  V30 5055 H 473.5 -4.65187 0.521383 0
M  V30 5056 H 473.673 -6.40664 0.972295 0
M  V30 5057 N 467.08 -0.0183926 -1.57589 0
M  V30 5058 C 468.01 0.965596 -2.12599 0
M  V30 5059 C 468.991 1.34641 -1.0395 0
M  V30 5060 O 470.176 1.42693 -1.31729 0
M  V30 5061 C 467.306 2.25149 -2.64434 0
M  V30 5062 C 466.26 2.01175 -3.77773 0
M  V30 5063 C 465.586 3.35937 -4.15994 0
M  V30 5064 C 466.886 1.35953 -5.04296 0
M  V30 5065 H 468.58 0.507504 -2.95067 0
M  V30 5066 H 466.126 0.242671 -1.41941 0
M  V30 5067 H 468.079 2.94357 -3.01549 0
M  V30 5068 H 466.803 2.73105 -1.79112 0
M  V30 5069 H 465.462 1.34388 -3.4108 0
M  V30 5070 H 465.11 3.81631 -3.27669 0
M  V30 5071 H 464.81 3.20705 -4.92364 0
M  V30 5072 H 466.334 4.0643 -4.55683 0
M  V30 5073 H 467.748 1.95144 -5.39065 0
M  V30 5074 H 466.145 1.31152 -5.85593 0
M  V30 5075 H 467.215 0.331071 -4.83768 0
M  V30 5076 N 468.558 1.5553 0.254621 0
M  V30 5077 C 469.488 1.9268 1.31897 0
M  V30 5078 C 470.469 0.790797 1.506 0
M  V30 5079 O 471.654 1.05045 1.63337 0
M  V30 5080 C 468.784 2.21477 2.67517 0
M  V30 5081 C 467.738 3.37256 2.63519 0
M  V30 5082 C 467.064 3.51576 4.02862 0
M  V30 5083 C 468.364 4.73157 2.21179 0
M  V30 5084 H 470.058 2.81832 1.01051 0
M  V30 5085 H 467.604 1.35599 0.484662 0
M  V30 5086 H 469.557 2.46055 3.42104 0
M  V30 5087 H 468.281 1.29144 2.99982 0
M  V30 5088 H 466.94 3.12675 1.9139 0
M  V30 5089 H 466.588 2.56676 4.32581 0
M  V30 5090 H 466.288 4.2943 4.01078 0
M  V30 5091 H 467.812 3.78467 4.79161 0
M  V30 5092 H 469.226 4.97158 2.85494 0
M  V30 5093 H 467.623 5.54058 2.30521 0
M  V30 5094 H 468.693 4.70739 1.16332 0
M  V30 5095 N 470.036 -0.519951 1.48776 0
M  V30 5096 C 471.276 -1.2856 1.58908 0
M  V30 5097 C 471.64 -1.90212 0.261418 0
M  V30 5098 O 472.841 -2.67746 0.237791 0
M  V30 5099 C 471.112 -2.33836 2.70288 0
M  V30 5100 S 472.671 -3.19992 3.0025 0
M  V30 5101 H 469.489 -0.43717 0.560717 0
M  V30 5102 H 472.091 -0.591205 1.86346 0
M  V30 5103 H 470.795 -1.87041 3.653 0
M  V30 5104 H 470.326 -3.07969 2.44783 0
M  V30 5105 H 472.341 -4.34122 2.40317 0
M  V30 5106 N 471.514 -1.37532 -0.769588 0
M  V30 5107 C 472.925 -1.29382 -1.346 0
M  V30 5108 C 473.276 0.0576039 -1.96115 0
M  V30 5109 O 472.401 0.95947 -1.93967 0
M  V30 5110 C 472.996 -2.34298 -2.44724 0
M  V30 5111 C 471.555 -2.29776 -2.98128 0
M  V30 5112 C 470.702 -2.18013 -1.71364 0
M  V30 5113 H 473.653 -1.48123 -0.56968 0
M  V30 5114 H 473.674 -1.99089 -3.24259 0
M  V30 5115 H 473.186 -3.32645 -1.99922 0
M  V30 5116 H 471.287 -1.34959 -3.47299 0
M  V30 5117 H 471.4 -3.23276 -3.53595 0
M  V30 5118 H 469.764 -1.64595 -1.94372 0
M  V30 5119 H 470.547 -3.18278 -1.28662 0
M  V30 5120 N 472.992 0.995999 -1.22138 0
M  V30 5121 C 474.403 1.54961 -1.04135 0
M  V30 5122 C 474.754 1.92159 0.396147 0
M  V30 5123 O 473.879 1.74435 1.28069 0
M  V30 5124 C 474.474 2.81581 -1.88408 0
M  V30 5125 C 473.033 3.33396 -1.74712 0
M  V30 5126 C 472.18 2.06509 -1.85066 0
M  V30 5127 H 475.131 0.817436 -1.36028 0
M  V30 5128 H 475.152 3.53822 -1.39966 0
M  V30 5129 H 474.664 2.54476 -2.93025 0
M  V30 5130 H 472.765 3.65416 -0.728159 0
M  V30 5131 H 472.878 4.04208 -2.57202 0
M  V30 5132 H 471.242 2.19925 -1.28472 0
M  V30 5133 H 472.025 1.81804 -2.91208 0
M  V30 5134 N 474.47 1.03057 1.19235 0
M  V30 5135 C 475.38 0.622922 2.26179 0
M  V30 5136 C 476.396 -0.346113 1.70523 0
M  V30 5137 O 477.572 -0.203572 2.00369 0
M  V30 5138 C 474.637 -0.0182063 3.46695 0
M  V30 5139 C 473.698 0.998546 4.17526 0
M  V30 5140 C 472.931 0.387917 5.32288 0
M  V30 5141 O 473.154 -0.808668 5.64639 0
M  V30 5142 O 472.088 1.1116 5.91546 0
M  V30 5143 H 475.914 1.51363 2.63292 0
M  V30 5144 H 473.499 0.800856 1.26122 0
M  V30 5145 H 475.381 -0.375606 4.19723 0
M  V30 5146 H 474.056 -0.882895 3.11427 0
M  V30 5147 H 472.963 1.40756 3.4661 0
M  V30 5148 H 474.296 1.83366 4.56769 0
M  V30 5149 N 475.948 -1.35272 0.808662 0
M  V30 5150 C 477.176 -2.02946 0.402537 0
M  V30 5151 C 477.591 -1.60937 -0.987147 0
M  V30 5152 O 476.948 -0.807917 -1.63643 0
M  V30 5153 C 476.999 -3.58317 0.47868 0
M  V30 5154 O 476.72 -3.98799 1.81358 0
M  V30 5155 C 478.221 -4.43251 0.0656281 0
M  V30 5156 H 475.441 -0.650831 0.163279 0
M  V30 5157 H 477.985 -1.72849 1.09286 0
M  V30 5158 H 476.14 -3.87055 -0.163415 0
M  V30 5159 H 476.554 -4.93451 1.77781 0
M  V30 5160 H 478.028 -5.51738 0.170017 0
M  V30 5161 H 478.505 -4.27913 -0.989278 0
M  V30 5162 H 479.111 -4.19813 0.68096 0
M  V30 5163 N 477.426 -0.562348 -1.47226 0
M  V30 5164 C 478.842 -0.222492 -1.58042 0
M  V30 5165 C 479.042 1.27505 -1.56028 0
M  V30 5166 O 478.098 2.05555 -1.46641 0
M  V30 5167 C 479.411 -0.853694 -2.88327 0
M  V30 5168 C 480.959 -0.825397 -3.01921 0
M  V30 5169 C 481.434 -1.43576 -4.34914 0
M  V30 5170 N 482.925 -1.39918 -4.41562 0
M  V30 5171 C 483.66 -1.84103 -5.43041 0
M  V30 5172 N 483.156 -2.36167 -6.51304 0
M  V30 5173 N 484.949 -1.75142 -5.34118 0
M  V30 5174 H 477.1 -1.53525 -1.46778 0
M  V30 5175 H 479.363 -0.640527 -0.698877 0
M  V30 5176 H 479.069 -1.90635 -2.95552 0
M  V30 5177 H 478.943 -0.34977 -3.75575 0
M  V30 5178 H 481.33 0.218583 -2.94289 0
M  V30 5179 H 481.411 -1.36713 -2.16202 0
M  V30 5180 H 481.055 -2.47884 -4.43301 0
M  V30 5181 H 480.985 -0.869427 -5.19373 0
M  V30 5182 H 483.476 -1.0184 -3.63919 0
M  V30 5183 H 483.789 -2.67793 -7.24919 0
M  V30 5184 H 482.134 -2.40181 -6.52179 0
M  V30 5185 H 485.325 -1.34241 -4.48439 0
M  V30 5186 H 485.498 -2.09895 -6.13065 0
M  V30 5187 N 478.904 1.54736 -0.299062 0
M  V30 5188 C 479.834 2.26409 0.571085 0
M  V30 5189 C 480.815 1.2629 1.13951 0
M  V30 5190 O 482 1.55059 1.16921 0
M  V30 5191 C 479.13 3.00338 1.74396 0
M  V30 5192 C 478.084 4.07588 1.30599 0
M  V30 5193 C 477.41 4.69222 2.56387 0
M  V30 5194 C 478.71 5.20455 0.438645 0
M  V30 5195 H 480.404 2.99388 -0.0266991 0
M  V30 5196 H 477.95 1.43993 -0.0142812 0
M  V30 5197 H 479.903 3.49198 2.35878 0
M  V30 5198 H 478.627 2.24934 2.36796 0
M  V30 5199 H 477.286 3.59575 0.71424 0
M  V30 5200 H 476.934 3.9046 3.17097 0
M  V30 5201 H 476.634 5.41653 2.27784 0
M  V30 5202 H 478.158 5.20844 3.18675 0
M  V30 5203 H 479.572 5.65221 0.959085 0
M  V30 5204 H 477.969 5.99594 0.246466 0
M  V30 5205 H 479.039 4.8192 -0.536738 0
M  V30 5206 N 480.382 0.0267497 1.57577 0
M  V30 5207 C 481.63 -0.651116 1.91324 0
M  V30 5208 C 481.951 -1.72804 0.90353 0
M  V30 5209 O 481.221 -1.95822 -0.0552946 0
M  V30 5210 H 479.801 -0.243491 0.706202 0
M  V30 5211 H 482.463 0.0739935 1.94759 0
M  V30 5212 H 481.559 -1.10536 2.9187 0
M  V30 5213 N 481.861 -1.55662 -0.24637 0
M  V30 5214 C 483.277 -1.48098 -0.594907 0
M  V30 5215 C 483.477 -0.717044 -1.8831 0
M  V30 5216 O 482.533 -0.246618 -2.51293 0
M  V30 5217 C 483.846 -2.92507 -0.697146 0
M  V30 5218 C 485.394 -3.02881 -0.789436 0
M  V30 5219 C 485.869 -4.48598 -0.923232 0
M  V30 5220 N 487.36 -4.52538 -0.988088 0
M  V30 5221 C 488.095 -5.62536 -1.11089 0
M  V30 5222 N 487.591 -6.82342 -1.19919 0
M  V30 5223 N 489.384 -5.50334 -1.14408 0
M  V30 5224 H 481.535 -2.0377 0.599278 0
M  V30 5225 H 483.798 -0.925145 0.20691 0
M  V30 5226 H 483.504 -3.51242 0.179396 0
M  V30 5227 H 483.378 -3.43024 -1.5689 0
M  V30 5228 H 485.765 -2.44226 -1.65643 0
M  V30 5229 H 485.846 -2.55574 0.107482 0
M  V30 5230 H 485.49 -5.07864 -0.0607927 0
M  V30 5231 H 485.42 -4.93587 -1.8352 0
M  V30 5232 H 487.911 -3.66248 -0.931167 0
M  V30 5233 H 488.224 -7.61924 -1.29197 0
M  V30 5234 H 486.569 -6.85102 -1.16876 0
M  V30 5235 H 489.76 -4.5567 -1.07158 0
M  V30 5236 H 489.933 -6.36096 -1.23634 0
M  V30 5237 N 483.339 0.512053 -1.4905 0
M  V30 5238 C 484.587 1.26436 -1.57665 0
M  V30 5239 C 484.908 1.93255 -0.260293 0
M  V30 5240 O 484.178 1.82206 0.719564 0
M  V30 5241 H 482.758 0.469658 -0.580888 0
M  V30 5242 H 485.42 0.594398 -1.85615 0
M  V30 5243 H 484.516 2.03417 -2.36702 0
M  V30 5244 N 484.817 1.37938 0.762283 0
M  V30 5245 C 486.065 1.33404 1.51815 0
M  V30 5246 C 486.386 -0.0780975 1.94844 0
M  V30 5247 O 485.656 -1.02405 1.67003 0
M  V30 5248 H 484.236 0.490839 0.563104 0
M  V30 5249 H 486.898 1.72527 0.906669 0
M  V30 5250 H 485.994 1.97926 2.41313 0
M  V30 5251 N 486.295 -0.989507 1.22664 0
M  V30 5252 C 487.258 -2.06183 1.00106 0
M  V30 5253 C 488.258 -1.60765 -0.0337726 0
M  V30 5254 O 489.448 -1.72989 0.205072 0
M  V30 5255 C 486.58 -3.37021 0.51279 0
M  V30 5256 H 487.773 -2.27629 1.95256 0
M  V30 5257 H 485.326 -1.16158 1.0458 0
M  V30 5258 H 486.061 -3.21261 -0.442917 0
M  V30 5259 H 485.846 -3.71323 1.25942 0
M  V30 5260 H 487.336 -4.1591 0.375315 0
M  V30 5261 N 487.773 -1.03688 -1.18687 0
M  V30 5262 C 489.021 -0.736572 -1.88199 0
M  V30 5263 C 489.342 0.737665 -1.80509 0
M  V30 5264 O 488.612 1.53204 -1.22088 0
M  V30 5265 H 487.192 -0.269466 -0.696704 0
M  V30 5266 H 489.854 -1.31282 -1.44052 0
M  V30 5267 H 488.95 -1.03802 -2.94332 0
M  V30 5268 N 489.251 1.34841 -0.815825 0
M  V30 5269 C 490.528 1.92908 -0.323416 0
M  V30 5270 C 490.908 1.74479 1.18828 0
M  V30 5271 O 490.256 1.11928 1.99209 0
M  V30 5272 C 490.466 3.40957 -0.744952 0
M  V30 5273 C 491.814 4.18107 -0.739716 0
M  V30 5274 O 492.838 3.49511 -0.68708 0
M  V30 5275 O 491.697 5.40517 -0.806456 0
M  V30 5276 H 488.791 0.822436 -0.0867646 0
M  V30 5277 H 491.337 1.4386 -0.90014 0
M  V30 5278 H 490.109 3.4814 -1.78646 0
M  V30 5279 H 489.732 3.97341 -0.143535 0
M  V30 5280 N 490.729 0.570148 1.46925 0
M  V30 5281 C 491.976 0.0509529 2.02436 0
M  V30 5282 C 492.304 -1.30405 1.44308 0
M  V30 5283 O 491.559 -1.86493 0.593198 0
M  V30 5284 C 491.858 -0.0780336 3.57315 0
M  V30 5285 C 491.524 1.20775 4.34424 0
M  V30 5286 C 490.186 1.56004 4.5521 0
M  V30 5287 C 492.538 2.0592 4.78797 0
M  V30 5288 C 489.866 2.76201 5.17619 0
M  V30 5289 C 492.218 3.25332 5.42533 0
M  V30 5290 C 490.882 3.60859 5.61549 0
M  V30 5291 H 490.152 0.018645 0.740765 0
M  V30 5292 H 492.799 0.744262 1.76445 0
M  V30 5293 H 491.104 -0.854394 3.82371 0
M  V30 5294 H 492.801 -0.495312 3.97929 0
M  V30 5295 H 489.391 0.923469 4.18533 0
M  V30 5296 H 493.575 1.80008 4.62505 0
M  V30 5297 H 488.831 3.0388 5.30535 0
M  V30 5298 H 493.005 3.91586 5.75876 0
M  V30 5299 H 490.632 4.54088 6.09678 0
M  V30 5300 N 492.207 -1.54576 0.307264 0
M  V30 5301 C 493.623 -1.59534 -0.0459251 0
M  V30 5302 C 493.823 -1.32414 -1.51884 0
M  V30 5303 O 492.879 -1.1006 -2.27251 0
M  V30 5304 C 494.192 -2.98566 0.357649 0
M  V30 5305 C 495.74 -3.11491 0.306937 0
M  V30 5306 C 496.215 -4.52842 0.685427 0
M  V30 5307 N 497.706 -4.58782 0.638203 0
M  V30 5308 C 498.441 -5.66238 0.903458 0
M  V30 5309 N 497.937 -6.81703 1.23501 0
M  V30 5310 N 499.73 -5.55937 0.830102 0
M  V30 5311 H 491.881 -1.70464 1.26712 0
M  V30 5312 H 494.144 -0.79647 0.514139 0
M  V30 5313 H 493.85 -3.23356 1.38325 0
M  V30 5314 H 493.724 -3.76117 -0.285565 0
M  V30 5315 H 496.111 -2.86446 -0.709424 0
M  V30 5316 H 496.192 -2.36081 0.984861 0
M  V30 5317 H 495.836 -4.78618 1.69963 0
M  V30 5318 H 495.766 -5.26598 -0.0146346 0
M  V30 5319 H 498.257 -3.75849 0.393138 0
M  V30 5320 H 498.57 -7.59582 1.42322 0
M  V30 5321 H 496.915 -6.8324 1.27311 0
M  V30 5322 H 500.106 -4.64608 0.570693 0
M  V30 5323 H 500.279 -6.39597 1.04019 0
M  V30 5324 N 493.685 -0.035106 -1.57561 0
M  V30 5325 C 494.913 0.652258 -1.9635 0
M  V30 5326 C 495.328 1.65317 -0.911897 0
M  V30 5327 O 494.685 1.82194 0.105657 0
M  V30 5328 C 494.736 1.35337 -3.35211 0
M  V30 5329 O 494.457 0.392548 -4.36338 0
M  V30 5330 C 495.958 2.13199 -3.88666 0
M  V30 5331 H 493.178 0.179444 -0.646561 0
M  V30 5332 H 495.722 -0.0966459 -2.04271 0
M  V30 5333 H 493.877 2.05362 -3.28489 0
M  V30 5334 H 494.291 0.891097 -5.16875 0
M  V30 5335 H 495.765 2.577 -4.88154 0
M  V30 5336 H 496.242 2.97353 -3.23231 0
M  V30 5337 H 496.848 1.48118 -3.98674 0
M  V30 5338 N 495.163 1.55791 0.238111 0
M  V30 5339 C 496.113 1.87444 1.29803 0
M  V30 5340 C 497.097 0.736043 1.43078 0
M  V30 5341 O 498.289 0.998146 1.46171 0
M  V30 5342 C 495.418 2.18028 2.65177 0
M  V30 5343 C 494.504 3.38217 2.55871 0
M  V30 5344 N 494.895 4.57264 2.16202 0
M  V30 5345 C 493.193 3.41502 2.86866 0
M  V30 5346 C 493.894 5.3941 2.17744 0
M  V30 5347 N 492.87 4.78695 2.57589 0
M  V30 5348 H 496.672 2.7701 0.981965 0
M  V30 5349 H 494.186 1.56135 0.44672 0
M  V30 5350 H 496.183 2.38873 3.4168 0
M  V30 5351 H 494.843 1.29765 2.97643 0
M  V30 5352 H 495.854 4.82727 1.87602 0
M  V30 5353 H 492.531 2.63536 3.23813 0
M  V30 5354 H 493.921 6.44671 1.89339 0
M  V30 5355 N 496.642 -0.504142 1.49319 0
M  V30 5356 C 498.053 -1.08572 1.51885 0
M  V30 5357 C 498.404 -1.93842 0.303255 0
M  V30 5358 O 497.529 -2.0828 -0.58724 0
M  V30 5359 C 498.124 -1.97574 2.75227 0
M  V30 5360 C 496.683 -2.509 2.80581 0
M  V30 5361 C 495.83 -1.28447 2.45757 0
M  V30 5362 H 498.781 -0.288194 1.56061 0
M  V30 5363 H 498.802 -2.82219 2.55211 0
M  V30 5364 H 498.314 -1.35486 3.63683 0
M  V30 5365 H 496.415 -3.16636 1.96398 0
M  V30 5366 H 496.528 -2.88268 3.82673 0
M  V30 5367 H 494.892 -1.60868 1.97468 0
M  V30 5368 H 495.675 -0.68072 3.36483 0
M  V30 5369 N 498.12 -1.38341 -0.754957 0
M  V30 5370 C 499.367 -1.34473 -1.51404 0
M  V30 5371 C 499.695 0.0656458 -1.94389 0
M  V30 5372 O 498.95 1.04244 -1.65625 0
M  V30 5373 C 499.249 -2.2452 -2.78075 0
M  V30 5374 C 498.915 -3.72512 -2.54059 0
M  V30 5375 C 497.577 -4.1284 -2.47218 0
M  V30 5376 C 499.929 -4.66197 -2.33044 0
M  V30 5377 C 497.257 -5.44945 -2.17376 0
M  V30 5378 C 499.609 -5.98558 -2.04723 0
M  V30 5379 C 498.273 -6.37972 -1.96337 0
M  V30 5380 H 497.543 -0.492072 -0.554027 0
M  V30 5381 H 500.19 -1.70687 -0.868223 0
M  V30 5382 H 498.495 -1.81357 -3.473 0
M  V30 5383 H 500.192 -2.18832 -3.36026 0
M  V30 5384 H 496.782 -3.40538 -2.60253 0
M  V30 5385 H 500.966 -4.35888 -2.37309 0
M  V30 5386 H 496.222 -5.74426 -2.09391 0
M  V30 5387 H 500.396 -6.70693 -1.87465 0
M  V30 5388 H 498.023 -7.40258 -1.72978 0
M  V30 5389 N 499.598 0.982988 -1.23187 0
M  V30 5390 C 500.845 1.72392 -1.06241 0
M  V30 5391 C 501.173 1.9032 0.40108 0
M  V30 5392 O 500.428 1.45084 1.31336 0
M  V30 5393 C 500.727 3.12736 -1.73006 0
M  V30 5394 C 500.393 3.14695 -3.22921 0
M  V30 5395 C 499.055 3.14937 -3.63824 0
M  V30 5396 C 501.407 3.10211 -4.1883 0
M  V30 5397 C 498.735 3.08408 -4.99101 0
M  V30 5398 C 501.087 3.05224 -5.54095 0
M  V30 5399 C 499.751 3.03787 -5.94365 0
M  V30 5400 H 499.021 0.630829 -0.388762 0
M  V30 5401 H 501.668 1.15053 -1.53085 0
M  V30 5402 H 499.973 3.73446 -1.18514 0
M  V30 5403 H 501.67 3.68828 -1.57374 0
M  V30 5404 H 498.26 3.15262 -2.90358 0
M  V30 5405 H 502.444 3.09166 -3.8824 0
M  V30 5406 H 497.7 3.05646 -5.29519 0
M  V30 5407 H 501.874 3.00712 -6.28128 0
M  V30 5408 H 499.501 2.98483 -6.99151 0
M  V30 5409 N 501.076 1.04316 1.18135 0
M  V30 5410 C 502.323 0.74802 1.88178 0
M  V30 5411 C 502.651 -0.72441 1.80506 0
M  V30 5412 O 501.906 -1.54463 1.20165 0
M  V30 5413 C 502.205 1.16271 3.37958 0
M  V30 5414 C 501.871 2.63585 3.65833 0
M  V30 5415 C 500.533 3.03829 3.73151 0
M  V30 5416 C 502.885 3.58822 3.78016 0
M  V30 5417 C 500.213 4.38194 3.90132 0
M  V30 5418 C 502.565 4.92909 3.96514 0
M  V30 5419 C 501.229 5.3282 4.02068 0
M  V30 5420 H 500.499 0.27372 0.688592 0
M  V30 5421 H 503.146 1.30863 1.39811 0
M  V30 5422 H 501.451 0.520938 3.88321 0
M  V30 5423 H 503.148 0.911672 3.90499 0
M  V30 5424 H 499.738 2.31414 3.60757 0
M  V30 5425 H 503.922 3.28875 3.71692 0
M  V30 5426 H 499.178 4.68631 3.92677 0
M  V30 5427 H 503.352 5.66606 4.04883 0
M  V30 5428 H 500.979 6.36943 4.14979 0
M  V30 5429 N 502.554 -1.34406 0.822964 0
M  V30 5430 C 503.802 -1.97892 0.410245 0
M  V30 5431 C 504.123 -1.65567 -1.03017 0
M  V30 5432 O 503.393 -0.94642 -1.71522 0
M  V30 5433 H 501.973 -0.732049 0.148707 0
M  V30 5434 H 504.635 -1.64043 1.05242 0
M  V30 5435 H 503.731 -3.07579 0.529284 0
M  V30 5436 N 504.032 -0.577932 -1.46621 0
M  V30 5437 C 504.962 0.145917 -2.33044 0
M  V30 5438 C 505.943 0.888412 -1.45056 0
M  V30 5439 O 507.128 0.864812 -1.73881 0
M  V30 5440 C 504.258 1.16322 -3.27241 0
M  V30 5441 C 503.212 0.535868 -4.24632 0
M  V30 5442 C 502.538 1.65929 -5.08303 0
M  V30 5443 C 503.838 -0.523861 -5.19666 0
M  V30 5444 H 505.532 -0.575636 -2.93814 0
M  V30 5445 H 503.078 -0.278272 -1.41286 0
M  V30 5446 H 505.031 1.67793 -3.86553 0
M  V30 5447 H 503.755 1.91498 -2.64567 0
M  V30 5448 H 502.414 0.0422759 -3.66576 0
M  V30 5449 H 502.062 2.40061 -4.42018 0
M  V30 5450 H 501.762 1.2452 -5.74255 0
M  V30 5451 H 503.286 2.17686 -5.70478 0
M  V30 5452 H 504.7 -0.0944059 -5.73222 0
M  V30 5453 H 503.097 -0.858 -5.93935 0
M  V30 5454 H 504.167 -1.41197 -4.63887 0
M  V30 5455 N 505.51 1.54411 -0.315457 0
M  V30 5456 C 506.787 1.92562 0.343398 0
M  V30 5457 C 507.167 1.24423 1.70535 0
M  V30 5458 O 506.515 0.385051 2.25232 0
M  V30 5459 C 506.725 3.46168 0.443687 0
M  V30 5460 C 508.073 4.18659 0.707783 0
M  V30 5461 O 509.097 3.52281 0.52693 0
M  V30 5462 O 507.956 5.36198 1.05612 0
M  V30 5463 H 505.05 0.80379 0.194552 0
M  V30 5464 H 507.596 1.65738 -0.364577 0
M  V30 5465 H 506.368 3.8792 -0.513172 0
M  V30 5466 H 505.991 3.79073 1.19956 0
M  V30 5467 N 506.988 0.0434614 1.5754 0
M  V30 5468 C 508.234 -0.627109 1.93491 0
M  V30 5469 C 508.589 -1.68904 0.921362 0
M  V30 5470 O 507.882 -1.91504 -0.0605799 0
M  V30 5471 C 508.076 -1.2738 3.3393 0
M  V30 5472 C 507.905 -0.27603 4.48852 0
M  V30 5473 C 506.675 0.129244 5.05135 0
M  V30 5474 C 508.873 0.475462 5.12098 0
M  V30 5475 N 506.855 1.12068 6.03584 0
M  V30 5476 C 508.226 1.32021 6.05781 0
M  V30 5477 C 510.281 0.534611 4.95022 0
M  V30 5478 C 508.984 2.2188 6.84223 0
M  V30 5479 C 511.01 1.42059 5.74085 0
M  V30 5480 C 510.372 2.25309 6.67394 0
M  V30 5481 H 506.471 -0.201354 0.755633 0
M  V30 5482 H 509.055 0.113991 1.94366 0
M  V30 5483 H 507.226 -1.98496 3.33847 0
M  V30 5484 H 508.958 -1.90255 3.57191 0
M  V30 5485 H 505.713 -0.248145 4.72949 0
M  V30 5486 H 506.137 1.61306 6.57502 0
M  V30 5487 H 510.779 -0.0947817 4.22694 0
M  V30 5488 H 508.497 2.85868 7.55847 0
M  V30 5489 H 512.083 1.47083 5.62901 0
M  V30 5490 H 510.963 2.92754 7.27506 0
M  V30 5491 N 508.466 -1.55915 -0.229846 0
M  V30 5492 C 509.743 -1.6932 -0.979295 0
M  V30 5493 C 510.123 -0.588321 -2.02736 0
M  V30 5494 O 509.471 0.40586 -2.24867 0
M  V30 5495 C 509.681 -3.10305 -1.59724 0
M  V30 5496 C 511.029 -3.6945 -2.09264 0
M  V30 5497 O 512.053 -3.13214 -1.69633 0
M  V30 5498 O 510.912 -4.68072 -2.82082 0
M  V30 5499 H 508.006 -0.689314 -0.456919 0
M  V30 5500 H 510.552 -1.68238 -0.222283 0
M  V30 5501 H 509.324 -3.82177 -0.840039 0
M  V30 5502 H 508.947 -3.1547 -2.42001 0
M  V30 5503 N 509.944 0.496216 -1.49584 0
M  V30 5504 C 511.192 1.24756 -1.58998 0
M  V30 5505 C 511.513 1.92968 -0.280775 0
M  V30 5506 O 510.783 1.82959 0.700198 0
M  V30 5507 H 509.363 0.463471 -0.585836 0
M  V30 5508 H 512.025 0.574678 -1.86235 0
M  V30 5509 H 511.121 2.00895 -2.38847 0
M  V30 5510 N 511.423 1.38739 0.74761 0
M  V30 5511 C 512.353 1.39173 1.87492 0
M  V30 5512 C 513.334 0.256794 1.6815 0
M  V30 5513 O 514.519 0.460762 1.88655 0
M  V30 5514 C 511.649 1.22197 3.25093 0
M  V30 5515 C 510.603 2.32957 3.59047 0
M  V30 5516 C 509.929 2.01082 4.95449 0
M  V30 5517 C 511.229 3.75237 3.6331 0
M  V30 5518 H 512.923 2.3351 1.87386 0
M  V30 5519 H 510.469 1.12399 0.900134 0
M  V30 5520 H 512.422 1.21124 4.03617 0
M  V30 5521 H 511.146 0.243241 3.25693 0
M  V30 5522 H 509.805 2.33226 2.82845 0
M  V30 5523 H 509.453 1.01678 4.92616 0
M  V30 5524 H 509.153 2.75267 5.19136 0
M  V30 5525 H 510.677 2.01638 5.76346 0
M  V30 5526 H 512.091 3.76966 4.31937 0
M  V30 5527 H 510.488 4.48677 3.98509 0
M  V30 5528 H 511.558 4.07122 2.634 0
M  V30 5529 N 512.901 -0.976442 1.23707 0
M  V30 5530 C 514.317 -1.24341 1.00058 0
M  V30 5531 C 514.517 -1.99315 -0.295932 0
M  V30 5532 O 513.573 -2.3123 -1.01435 0
M  V30 5533 C 514.886 -2.03909 2.21001 0
M  V30 5534 C 516.434 -2.17034 2.25534 0
M  V30 5535 C 516.909 -2.99994 3.46075 0
M  V30 5536 N 518.4 -3.07578 3.46338 0
M  V30 5537 C 519.135 -3.72104 4.36264 0
M  V30 5538 N 518.631 -4.3842 5.36432 0
M  V30 5539 N 520.424 -3.69029 4.23998 0
M  V30 5540 H 512.575 -0.47428 2.07037 0
M  V30 5541 H 514.838 -0.272167 0.908091 0
M  V30 5542 H 514.544 -1.56198 3.15111 0
M  V30 5543 H 514.418 -3.04654 2.22409 0
M  V30 5544 H 516.805 -2.63951 1.31961 0
M  V30 5545 H 516.886 -1.15664 2.28156 0
M  V30 5546 H 516.53 -2.53772 4.39957 0
M  V30 5547 H 516.46 -4.01541 3.40694 0
M  V30 5548 H 518.951 -2.60397 2.73865 0
M  V30 5549 H 519.264 -4.85447 6.013 0
M  V30 5550 H 517.609 -4.37116 5.40328 0
M  V30 5551 H 520.8 -3.16392 3.44984 0
M  V30 5552 H 520.973 -4.19034 4.94282 0
M  V30 5553 N 514.379 -1.04941 -1.1758 0
M  V30 5554 C 515.656 -0.671918 -1.83697 0
M  V30 5555 C 516.036 0.847929 -1.93322 0
M  V30 5556 O 515.384 1.75287 -1.46583 0
M  V30 5557 C 515.594 -1.35797 -3.21497 0
M  V30 5558 C 516.942 -1.4944 -3.97433 0
M  V30 5559 O 517.966 -1.31678 -3.30967 0
M  V30 5560 O 516.825 -1.78463 -5.1654 0
M  V30 5561 H 513.919 -0.236212 -0.792548 0
M  V30 5562 H 516.465 -1.14884 -1.24899 0
M  V30 5563 H 515.237 -2.39498 -3.09446 0
M  V30 5564 H 514.86 -0.870236 -3.8796 0
M  V30 5565 N 515.857 1.33968 -0.830081 0
M  V30 5566 C 517.082 2.02813 -0.433796 0
M  V30 5567 C 517.507 1.62076 0.954614 0
M  V30 5568 O 516.865 0.808955 1.62252 0
M  V30 5569 C 516.913 3.56348 -0.552115 0
M  V30 5570 O 516.017 4.10202 0.425191 0
M  V30 5571 H 515.358 0.639817 -0.177567 0
M  V30 5572 H 517.888 1.7106 -1.12248 0
M  V30 5573 H 517.898 4.05722 -0.430513 0
M  V30 5574 H 516.573 3.85344 -1.56471 0
M  V30 5575 H 515.15 3.71979 0.261878 0
M  V30 5576 N 517.335 0.585699 1.46312 0
M  V30 5577 C 518.581 0.0725284 2.0267 0
M  V30 5578 C 518.914 -1.28523 1.45586 0
M  V30 5579 O 518.189 -1.84283 0.622101 0
M  V30 5580 C 518.472 0.0099788 3.60099 0
M  V30 5581 C 518.325 1.39685 4.27561 0
M  V30 5582 C 519.644 -0.689117 4.34671 0
M  V30 5583 H 516.763 0.0278307 0.736474 0
M  V30 5584 H 519.405 0.753472 1.74421 0
M  V30 5585 H 517.555 -0.56992 3.84297 0
M  V30 5586 H 519.227 2.02215 4.14617 0
M  V30 5587 H 517.47 1.96374 3.86807 0
M  V30 5588 H 518.141 1.30553 5.36339 0
M  V30 5589 H 520.617 -0.196446 4.15636 0
M  V30 5590 H 519.493 -0.701921 5.44393 0
M  V30 5591 H 519.754 -1.75101 4.05946 0
M  V30 5592 N 518.813 -1.54241 0.323641 0
M  V30 5593 C 520.224 -1.85975 -0.164405 0
M  V30 5594 C 520.575 -1.24529 -1.51615 0
M  V30 5595 O 519.7 -0.551351 -2.09258 0
M  V30 5596 C 520.295 -3.37424 -0.305091 0
M  V30 5597 C 518.854 -3.69107 -0.737358 0
M  V30 5598 C 518.001 -2.76942 0.140884 0
M  V30 5599 H 520.952 -1.49088 0.543922 0
M  V30 5600 H 520.973 -3.63147 -1.13598 0
M  V30 5601 H 520.485 -3.82116 0.678876 0
M  V30 5602 H 518.586 -3.29947 -1.73107 0
M  V30 5603 H 518.699 -4.76035 -0.541053 0
M  V30 5604 H 517.063 -2.51795 -0.383572 0
M  V30 5605 H 517.846 -3.24461 1.12162 0
M  V30 5606 N 520.291 -0.0518155 -1.57515 0
M  V30 5607 C 521.702 0.483787 -1.80323 0
M  V30 5608 C 522.053 1.70879 -0.964099 0
M  V30 5609 O 521.178 2.15643 -0.180872 0
M  V30 5610 C 521.773 0.884459 -3.27052 0
M  V30 5611 C 520.332 1.36504 -3.50776 0
M  V30 5612 C 519.479 0.340539 -2.75201 0
M  V30 5613 H 522.43 -0.277691 -1.56252 0
M  V30 5614 H 522.451 1.74733 -3.38007 0
M  V30 5615 H 521.963 -0.00731093 -3.88099 0
M  V30 5616 H 520.064 2.27598 -2.95009 0
M  V30 5617 H 520.177 1.35675 -4.59488 0
M  V30 5618 H 518.541 0.81356 -2.41357 0
M  V30 5619 H 519.324 -0.543156 -3.38976 0
M  V30 5620 N 521.769 1.56035 0.221574 0
M  V30 5621 C 523.016 1.79047 0.94597 0
M  V30 5622 C 523.344 0.62057 1.84334 0
M  V30 5623 O 522.599 -0.395053 1.91671 0
M  V30 5624 C 522.898 3.07813 1.8162 0
M  V30 5625 C 522.564 4.3797 1.07206 0
M  V30 5626 C 521.226 4.73334 0.866508 0
M  V30 5627 C 523.578 5.18326 0.546565 0
M  V30 5628 C 520.906 5.8657 0.123549 0
M  V30 5629 C 523.258 6.32335 -0.18305 0
M  V30 5630 C 521.922 6.66301 -0.399861 0
M  V30 5631 H 521.192 0.655178 0.346155 0
M  V30 5632 H 523.839 1.90299 0.214146 0
M  V30 5633 H 522.144 2.91682 2.61589 0
M  V30 5634 H 523.841 3.2282 2.37884 0
M  V30 5635 H 520.431 4.10202 1.24226 0
M  V30 5636 H 524.615 4.9144 0.692847 0
M  V30 5637 H 519.871 6.11376 -0.0546591 0
M  V30 5638 H 524.045 6.9383 -0.59775 0
M  V30 5639 H 521.672 7.53889 -0.977489 0
M  V30 5640 N 523.247 -0.488276 1.49845 0
M  V30 5641 C 524.475 -1.26527 1.63702 0
M  V30 5642 C 524.89 -1.8618 0.313447 0
M  V30 5643 O 524.247 -1.68432 -0.702624 0
M  V30 5644 C 524.298 -2.3864 2.71538 0
M  V30 5645 O 524.019 -1.81437 3.98763 0
M  V30 5646 C 525.52 -3.29805 2.96215 0
M  V30 5647 H 522.74 -0.383295 0.55075 0
M  V30 5648 H 525.284 -0.584779 1.95961 0
M  V30 5649 H 523.439 -3.02496 2.42023 0
M  V30 5650 H 523.853 -2.55135 4.58265 0
M  V30 5651 H 525.327 -4.04722 3.75372 0
M  V30 5652 H 525.804 -3.87563 2.06619 0
M  V30 5653 H 526.41 -2.71703 3.27196 0
M  V30 5654 N 524.725 -1.39134 -0.740242 0
M  V30 5655 C 526.136 -1.32208 -1.31825 0
M  V30 5656 C 526.487 0.0159919 -1.96193 0
M  V30 5657 O 525.612 0.918111 -1.95958 0
M  V30 5658 C 526.207 -2.39436 -2.39699 0
M  V30 5659 C 524.766 -2.36048 -2.93187 0
M  V30 5660 C 523.913 -2.21599 -1.66701 0
M  V30 5661 H 526.864 -1.49298 -0.538133 0
M  V30 5662 H 526.885 -2.05922 -3.19963 0
M  V30 5663 H 526.397 -3.36811 -1.92821 0
M  V30 5664 H 524.498 -1.42295 -3.44359 0
M  V30 5665 H 524.611 -3.30704 -3.46658 0
M  V30 5666 H 522.975 -1.68681 -1.90837 0
M  V30 5667 H 523.758 -3.20936 -1.21882 0
M  V30 5668 N 526.204 0.969867 -1.24223 0
M  V30 5669 C 527.481 1.68774 -0.988664 0
M  V30 5670 C 527.861 2.05342 0.489673 0
M  V30 5671 O 527.209 1.75486 1.46345 0
M  V30 5672 C 527.419 2.92135 -1.90941 0
M  V30 5673 C 528.767 3.64422 -2.17903 0
M  V30 5674 O 529.791 3.02188 -1.88576 0
M  V30 5675 O 528.65 4.76446 -2.67697 0
M  V30 5676 H 525.744 0.737736 -0.37373 0
M  V30 5677 H 528.29 1.02415 -1.35312 0
M  V30 5678 H 527.062 2.61788 -2.90831 0
M  V30 5679 H 526.685 3.66228 -1.54798 0
M  V30 5680 N 527.682 1.05563 1.17022 0
M  V30 5681 C 528.929 0.767937 1.87374 0
M  V30 5682 C 529.257 -0.705224 1.81265 0
M  V30 5683 O 528.512 -1.5318 1.21796 0
M  V30 5684 C 528.811 1.19849 3.36706 0
M  V30 5685 C 528.477 2.6745 3.63017 0
M  V30 5686 C 527.139 3.0777 3.69907 0
M  V30 5687 C 529.491 3.62811 3.74189 0
M  V30 5688 C 526.819 4.42307 3.85463 0
M  V30 5689 C 529.171 4.97087 3.91264 0
M  V30 5690 C 527.835 5.37055 3.96394 0
M  V30 5691 H 527.105 0.281008 0.68565 0
M  V30 5692 H 529.752 1.32339 1.38415 0
M  V30 5693 H 528.057 0.562096 3.87747 0
M  V30 5694 H 529.754 0.953038 3.8951 0
M  V30 5695 H 526.344 2.35228 3.58282 0
M  V30 5696 H 530.528 3.32798 3.68183 0
M  V30 5697 H 525.784 4.72769 3.87684 0
M  V30 5698 H 529.958 5.70869 3.9885 0
M  V30 5699 H 527.585 6.41308 4.082 0
M  V30 5700 N 529.16 -1.33526 0.837174 0
M  V30 5701 C 530.07 -2.33023 0.271568 0
M  V30 5702 C 531.086 -1.63272 -0.601514 0
M  V30 5703 O 532.262 -1.94939 -0.506038 0
M  V30 5704 C 529.327 -3.42382 -0.545448 0
M  V30 5705 C 528.388 -4.27857 0.351709 0
M  V30 5706 C 527.621 -5.31994 -0.426409 0
M  V30 5707 O 527.844 -5.45763 -1.65828 0
M  V30 5708 O 526.778 -6.01572 0.1987 0
M  V30 5709 H 530.604 -2.83256 1.09545 0
M  V30 5710 H 528.189 -1.36837 0.599655 0
M  V30 5711 H 530.071 -4.09122 -1.00979 0
M  V30 5712 H 528.746 -2.94369 -1.34641 0
M  V30 5713 H 527.653 -3.6399 0.863853 0
M  V30 5714 H 528.986 -4.79349 1.1174 0
M  V30 5715 N 530.638 -0.59345 -1.46 0
M  V30 5716 C 531.886 -0.082988 -2.0193 0
M  V30 5717 C 532.207 1.28569 -1.46612 0
M  V30 5718 O 531.477 1.84629 -0.654909 0
M  V30 5719 H 530.057 -0.0276882 -0.746487 0
M  V30 5720 H 532.719 -0.771657 -1.78973 0
M  V30 5721 H 531.815 -0.022079 -3.12092 0
M  V30 5722 N 532.116 1.54067 -0.331816 0
M  V30 5723 C 533.079 2.23275 0.517768 0
M  V30 5724 C 534.079 1.22897 1.03697 0
M  V30 5725 O 535.269 1.47419 0.928084 0
M  V30 5726 C 532.401 2.94326 1.72004 0
M  V30 5727 H 533.594 2.99773 -0.0873507 0
M  V30 5728 H 531.147 1.56079 -0.0830042 0
M  V30 5729 H 531.882 2.21986 2.36417 0
M  V30 5730 H 531.667 3.67941 1.35507 0
M  V30 5731 H 533.157 3.47031 2.32291 0
M  V30 5732 N 533.594 0.0601682 1.57485 0
M  V30 5733 C 534.822 -0.620937 1.97363 0
M  V30 5734 C 535.237 -1.63846 0.938082 0
M  V30 5735 O 534.594 -1.82339 -0.0766578 0
M  V30 5736 C 534.645 -1.29987 3.37321 0
M  V30 5737 O 534.366 -0.323081 4.36907 0
M  V30 5738 C 535.867 -2.06989 3.92008 0
M  V30 5739 H 533.087 -0.169135 0.649334 0
M  V30 5740 H 535.631 0.129132 2.04092 0
M  V30 5741 H 533.786 -2.0011 3.31715 0
M  V30 5742 H 534.2 -0.808754 5.18227 0
M  V30 5743 H 535.674 -2.49901 4.92192 0
M  V30 5744 H 536.151 -2.92173 3.2792 0
M  V30 5745 H 536.757 -1.41757 4.0098 0
M  V30 5746 N 535.072 -1.5615 -0.213296 0
M  V30 5747 C 536.349 -1.70349 -0.961281 0
M  V30 5748 C 536.729 -0.609791 -2.02101 0
M  V30 5749 O 536.077 0.381987 -2.25285 0
M  V30 5750 C 536.287 -3.11982 -1.56424 0
M  V30 5751 C 537.635 -3.71649 -2.05334 0
M  V30 5752 O 538.659 -3.14995 -1.66302 0
M  V30 5753 O 537.518 -4.71038 -2.77102 0
M  V30 5754 H 534.612 -0.694121 -0.449582 0
M  V30 5755 H 537.158 -1.68464 -0.204426 0
M  V30 5756 H 535.93 -3.83046 -0.799457 0
M  V30 5757 H 535.553 -3.18019 -2.38641 0
M  V30 5758 N 536.55 0.480323 -1.50102 0
M  V30 5759 C 537.778 1.25657 -1.64371 0
M  V30 5760 C 538.193 1.86011 -0.323316 0
M  V30 5761 O 537.55 1.68803 0.693682 0
M  V30 5762 C 537.601 2.37197 -2.728 0
M  V30 5763 O 537.322 1.7932 -3.9972 0
M  V30 5764 C 538.823 3.2823 -2.9796 0
M  V30 5765 H 536.043 0.380369 -0.552775 0
M  V30 5766 H 538.587 0.574379 -1.96268 0
M  V30 5767 H 536.742 3.01208 -2.43623 0
M  V30 5768 H 537.156 2.52701 -4.59611 0
M  V30 5769 H 538.63 4.02725 -3.77513 0
M  V30 5770 H 539.107 3.86462 -2.08671 0
M  V30 5771 H 539.713 2.69964 -3.28633 0
M  V30 5772 N 538.028 1.39524 0.732853 0
M  V30 5773 C 539.268 1.383 1.50508 0
M  V30 5774 C 539.632 -0.0208271 1.91989 0
M  V30 5775 O 540.833 -0.158091 2.68335 0
M  V30 5776 C 539.104 2.33007 2.71003 0
M  V30 5777 S 540.663 2.49989 3.60626 0
M  V30 5778 H 537.481 0.490417 0.514794 0
M  V30 5779 H 540.083 1.75641 0.858524 0
M  V30 5780 H 538.787 3.33862 2.38672 0
M  V30 5781 H 538.318 1.96889 3.40585 0
M  V30 5782 H 540.333 1.7394 4.64714 0
M  V30 5783 N 539.506 -0.963266 1.24736 0
M  V30 5784 C 540.454 -2.07985 1.04139 0
M  V30 5785 C 541.448 -1.69381 -0.0250556 0
M  V30 5786 O 542.654 -1.79531 0.129863 0
M  V30 5787 H 539.029 -0.680627 0.319768 0
M  V30 5788 H 541 -2.22517 1.98818 0
M  V30 5789 C 539.749 -3.4123 0.667615 0
M  V30 5790 H 539.072 -3.71397 1.48 0
M  V30 5791 H 540.512 -4.20244 0.563136 0
M  V30 5792 C 538.971 -3.3104 -0.625647 0
M  V30 5793 O 539.501 -3.65334 -1.67016 0
M  V30 5794 N 537.707 -2.84168 -0.608033 0
M  V30 5795 H 537.254 -2.56458 0.242323 0
M  V30 5796 H 537.212 -2.77732 -1.47352 0
M  V30 5797 N 540.985 -1.06182 -1.16461 0
M  V30 5798 C 542.232 -0.777863 -1.86964 0
M  V30 5799 C 542.56 0.695602 -1.81636 0
M  V30 5800 O 541.815 1.52532 -1.22607 0
M  V30 5801 C 542.114 -1.21633 -3.36066 0
M  V30 5802 C 541.78 -2.69371 -3.61594 0
M  V30 5803 C 540.442 -3.09727 -3.6827 0
M  V30 5804 C 542.794 -3.64791 -3.7226 0
M  V30 5805 C 540.122 -4.44345 -3.83112 0
M  V30 5806 C 542.474 -4.99155 -3.88623 0
M  V30 5807 C 541.138 -5.39149 -3.93541 0
M  V30 5808 H 540.408 -0.28464 -0.68415 0
M  V30 5809 H 543.055 -1.33071 -1.37711 0
M  V30 5810 H 541.36 -0.582651 -3.87443 0
M  V30 5811 H 543.057 -0.973682 -3.88999 0
M  V30 5812 H 539.647 -2.37124 -3.57029 0
M  V30 5813 H 543.831 -3.34746 -3.66413 0
M  V30 5814 H 539.087 -4.74819 -3.85172 0
M  V30 5815 H 543.261 -5.72976 -3.95817 0
M  V30 5816 H 540.888 -6.43464 -4.04794 0
M  V30 5817 N 542.463 1.3308 -0.844243 0
M  V30 5818 C 543.74 1.92178 -0.364261 0
M  V30 5819 C 544.12 1.76961 1.15101 0
M  V30 5820 O 543.468 1.16128 1.9679 0
M  V30 5821 C 543.678 3.393 -0.817106 0
M  V30 5822 C 545.026 4.16444 -0.828236 0
M  V30 5823 O 546.05 3.47975 -0.761062 0
M  V30 5824 O 544.909 5.38685 -0.920926 0
M  V30 5825 H 542.003 0.820411 -0.10419 0
M  V30 5826 H 544.549 1.41918 -0.930453 0
M  V30 5827 H 543.321 3.44272 -1.85991 0
M  V30 5828 H 542.944 3.96947 -0.227785 0
M  V30 5829 N 543.941 0.601185 1.45683 0
M  V30 5830 C 544.871 -0.108824 2.33246 0
M  V30 5831 C 545.852 -0.865223 1.46451 0
M  V30 5832 O 547.037 -0.83704 1.75235 0
M  V30 5833 C 544.167 -1.11101 3.2905 0
M  V30 5834 C 543.121 -0.468244 4.25431 0
M  V30 5835 C 542.447 -1.57822 5.10878 0
M  V30 5836 C 543.747 0.606469 5.18767 0
M  V30 5837 H 545.441 0.622306 2.92861 0
M  V30 5838 H 542.987 0.300714 1.40825 0
M  V30 5839 H 544.94 -1.61622 3.89174 0
M  V30 5840 H 543.664 -1.87265 2.67581 0
M  V30 5841 H 542.323 0.0160484 3.66596 0
M  V30 5842 H 541.971 -2.32998 4.45781 0
M  V30 5843 H 541.671 -1.15369 5.76163 0
M  V30 5844 H 543.195 -2.08583 5.73869 0
M  V30 5845 H 544.609 0.185589 5.73 0
M  V30 5846 H 543.006 0.952381 5.92494 0
M  V30 5847 H 544.076 1.48559 4.61582 0
M  V30 5848 N 545.419 -1.53889 0.339982 0
M  V30 5849 C 546.665 -2.01152 -0.258003 0
M  V30 5850 C 546.998 -1.22749 -1.50487 0
M  V30 5851 O 546.273 -0.314156 -1.91946 0
M  V30 5852 C 546.556 -3.55468 -0.575717 0
M  V30 5853 C 546.409 -4.44584 0.682996 0
M  V30 5854 C 547.728 -4.1768 -1.38677 0
M  V30 5855 H 544.847 -0.731198 -0.0922992 0
M  V30 5856 H 547.489 -1.84352 0.459814 0
M  V30 5857 H 545.639 -3.69914 -1.18725 0
M  V30 5858 H 547.311 -4.41981 1.32102 0
M  V30 5859 H 545.554 -4.13592 1.3086 0
M  V30 5860 H 546.225 -5.5043 0.416001 0
M  V30 5861 H 548.701 -4.0691 -0.869705 0
M  V30 5862 H 547.577 -5.25734 -1.57783 0
M  V30 5863 H 547.838 -3.72069 -2.38782 0
M  V30 5864 N 546.897 -0.0685191 -1.57451 0
M  V30 5865 C 547.807 0.914677 -2.16034 0
M  V30 5866 C 548.823 1.32938 -1.12265 0
M  V30 5867 O 549.999 1.40275 -1.44516 0
M  V30 5868 C 547.064 2.16519 -2.70777 0
M  V30 5869 C 546.125 1.80721 -3.89408 0
M  V30 5870 C 545.358 2.9981 -4.41531 0
M  V30 5871 O 545.581 4.13727 -3.92666 0
M  V30 5872 O 544.515 2.79817 -5.32903 0
M  V30 5873 H 548.341 0.446364 -3.00402 0
M  V30 5874 H 545.926 0.154367 -1.486 0
M  V30 5875 H 547.808 2.89856 -3.05878 0
M  V30 5876 H 546.483 2.62454 -1.89471 0
M  V30 5877 H 545.39 1.04646 -3.59166 0
M  V30 5878 H 546.723 1.39571 -4.71997 0
M  V30 5879 N 548.375 1.56261 0.205012 0
M  V30 5880 C 549.652 1.70856 0.952233 0
M  V30 5881 C 550.032 0.620501 2.01775 0
M  V30 5882 O 549.38 -0.370035 2.25484 0
M  V30 5883 C 549.59 3.12807 1.54767 0
M  V30 5884 C 550.938 3.72733 2.0336 0
M  V30 5885 O 551.962 3.15873 1.64629 0
M  V30 5886 O 550.821 4.72501 2.746 0
M  V30 5887 H 547.915 0.696496 0.445895 0
M  V30 5888 H 550.461 1.6857 0.195489 0
M  V30 5889 H 549.233 3.83465 0.779132 0
M  V30 5890 H 548.856 3.1928 2.36951 0
M  V30 5891 N 549.853 -0.472356 1.50355 0
M  V30 5892 C 551.101 -1.22211 1.60962 0
M  V30 5893 C 551.422 -1.92497 0.311439 0
M  V30 5894 O 550.692 -1.8405 -0.671002 0
M  V30 5895 H 549.272 -0.454092 0.593135 0
M  V30 5896 H 551.934 -0.544977 1.87126 0
M  V30 5897 H 551.03 -1.9707 2.42012 0
M  V30 5898 N 551.331 -1.39911 -0.725443 0
M  V30 5899 C 552.261 -1.42138 -1.85254 0
M  V30 5900 C 553.242 -0.283513 -1.67721 0
M  V30 5901 O 554.427 -0.490717 -1.87898 0
M  V30 5902 C 551.557 -1.27354 -3.23107 0
M  V30 5903 C 550.511 -2.3864 -3.55296 0
M  V30 5904 C 549.837 -2.08939 -4.92188 0
M  V30 5905 C 551.137 -3.8097 -3.57295 0
M  V30 5906 H 552.831 -2.36461 -1.83648 0
M  V30 5907 H 550.377 -1.13817 -0.882138 0
M  V30 5908 H 552.33 -1.2753 -4.01639 0
M  V30 5909 H 551.054 -0.295025 -3.25265 0
M  V30 5910 H 549.713 -2.37696 -2.79099 0
M  V30 5911 H 549.361 -1.09502 -4.90936 0
M  V30 5912 H 549.061 -2.83491 -5.14691 0
M  V30 5913 H 550.585 -2.10781 -5.73065 0
M  V30 5914 H 551.999 -3.8379 -4.25885 0
M  V30 5915 H 550.396 -4.5496 -3.9132 0
M  V30 5916 H 551.466 -4.11261 -2.5689 0
M  V30 5917 N 552.809 0.956637 -1.25245 0
M  V30 5918 C 554.037 1.73571 -1.12608 0
M  V30 5919 C 554.452 1.86063 0.320324 0
M  V30 5920 O 553.809 1.35691 1.22042 0
M  V30 5921 C 553.86 3.15053 -1.77268 0
M  V30 5922 O 553.581 3.03174 -3.16255 0
M  V30 5923 C 555.082 4.09248 -1.70386 0
M  V30 5924 H 552.302 0.543955 -0.392879 0
M  V30 5925 H 554.846 1.20031 -1.65568 0
M  V30 5926 H 553.001 3.65543 -1.28284 0
M  V30 5927 H 553.415 3.9241 -3.48015 0
M  V30 5928 H 554.889 5.06138 -2.20291 0
M  V30 5929 H 555.366 4.34102 -0.667239 0
M  V30 5930 H 555.972 3.64672 -2.18849 0
M  V30 5931 N 554.287 1.06798 1.15896 0
M  V30 5932 C 555.25 0.687328 2.18651 0
M  V30 5933 C 556.25 -0.269559 1.58524 0
M  V30 5934 O 557.44 -0.0512627 1.74125 0
M  V30 5935 C 554.572 0.0121642 3.40898 0
M  V30 5936 H 555.765 1.59701 2.53842 0
M  V30 5937 H 553.318 0.863828 1.3026 0
M  V30 5938 H 554.053 -0.910025 3.1127 0
M  V30 5939 H 553.838 0.700309 3.85795 0
M  V30 5940 H 555.328 -0.239703 4.16911 0
M  V30 5941 N 555.766 -1.3263 0.851289 0
M  V30 5942 C 556.699 -2.26952 0.238318 0
M  V30 5943 C 557.677 -1.50243 -0.621757 0
M  V30 5944 O 558.861 -1.79378 -0.579298 0
M  V30 5945 C 555.988 -3.32124 -0.664178 0
M  V30 5946 C 555.034 -4.26325 0.122067 0
M  V30 5947 S 555.867 -5.14404 1.48824 0
M  V30 5948 C 557.023 -6.231 0.591372 0
M  V30 5949 H 557.256 -2.78594 1.03791 0
M  V30 5950 H 554.789 -1.4011 0.648731 0
M  V30 5951 H 556.747 -3.93197 -1.17924 0
M  V30 5952 H 555.408 -2.79273 -1.43755 0
M  V30 5953 H 554.601 -5.00821 -0.565181 0
M  V30 5954 H 554.203 -3.69652 0.568602 0
M  V30 5955 H 556.495 -6.77187 -0.205762 0
M  V30 5956 H 557.438 -6.95936 1.30687 0
M  V30 5957 H 557.846 -5.64252 0.167206 0
M  V30 5958 N 557.244 -0.608902 -1.45362 0
M  V30 5959 C 558.49 -0.104762 -2.02529 0
M  V30 5960 C 558.823 1.26191 -1.47613 0
M  V30 5961 O 558.098 1.8327 -0.65134 0
M  V30 5962 C 558.381 -0.0672661 -3.60037 0
M  V30 5963 C 558.234 -1.4647 -4.25284 0
M  V30 5964 C 559.553 0.619877 -4.35713 0
M  V30 5965 H 556.672 -0.0395438 -0.735938 0
M  V30 5966 H 559.314 -0.781126 -1.73201 0
M  V30 5967 H 557.464 0.50871 -3.85155 0
M  V30 5968 H 559.136 -2.08785 -4.11347 0
M  V30 5969 H 557.379 -2.02502 -3.83634 0
M  V30 5970 H 558.05 -1.39069 -5.34195 0
M  V30 5971 H 560.526 0.130297 -4.15896 0
M  V30 5972 H 559.402 0.615224 -5.45441 0
M  V30 5973 H 559.663 1.68621 -4.0868 0
M  V30 5974 N 558.722 1.53707 -0.348139 0
M  V30 5975 C 559.947 2.05877 0.250883 0
M  V30 5976 C 560.372 1.22115 1.43072 0
M  V30 5977 O 559.73 0.235986 1.79758 0
M  V30 5978 C 559.778 3.54886 0.639416 0
M  V30 5979 O 558.882 3.73948 1.73888 0
M  V30 5980 H 558.223 0.662754 0.040653 0
M  V30 5981 H 560.753 1.98303 -0.503685 0
M  V30 5982 H 560.763 3.97601 0.915295 0
M  V30 5983 H 559.438 4.153 -0.223386 0
M  V30 5984 H 558.015 3.43134 1.45991 0
M  V30 5985 N 560.2 0.0768682 1.57412 0
M  V30 5986 C 561.448 -0.589918 1.93299 0
M  V30 5987 C 561.769 -1.69842 0.958049 0
M  V30 5988 O 561.039 -1.95899 0.00703261 0
M  V30 5989 H 559.619 -0.220901 0.713591 0
M  V30 5990 H 562.281 0.135917 1.94425 0
M  V30 5991 H 561.377 -1.01195 2.95239 0
M  V30 5992 N 561.678 -1.56367 -0.196722 0
M  V30 5993 C 562.926 -1.80172 -0.915554 0
M  V30 5994 C 563.247 -0.649649 -1.8386 0
M  V30 5995 O 562.517 0.332111 -1.93064 0
M  V30 5996 H 561.097 -0.664592 -0.341067 0
M  V30 5997 H 563.759 -1.93844 -0.202622 0
M  V30 5998 H 562.855 -2.7327 -1.50764 0
M  V30 5999 N 563.156 0.464375 -1.50603 0
M  V30 6000 C 564.404 1.21356 -1.61608 0
M  V30 6001 C 564.725 1.92329 -0.321643 0
M  V30 6002 O 563.995 1.84403 0.661232 0
M  V30 6003 H 562.575 0.45094 -0.595535 0
M  V30 6004 H 565.237 0.535046 -1.87412 0
M  V30 6005 H 564.333 1.95783 -2.43054 0
M  V30 6006 N 564.634 1.40294 0.718013 0
M  V30 6007 C 565.544 1.42678 1.86226 0
M  V30 6008 C 566.56 0.319655 1.71039 0
M  V30 6009 O 567.736 0.563852 1.93346 0
M  V30 6010 C 564.801 1.2852 3.21999 0
M  V30 6011 C 563.862 2.49354 3.49458 0
M  V30 6012 C 563.095 2.35863 4.78753 0
M  V30 6013 O 563.318 1.37114 5.53675 0
M  V30 6014 O 562.252 3.25189 5.06494 0
M  V30 6015 H 566.078 2.39167 1.87171 0
M  V30 6016 H 563.663 1.2159 0.868112 0
M  V30 6017 H 565.545 1.22824 4.03103 0
M  V30 6018 H 564.22 0.351359 3.21787 0
M  V30 6019 H 563.127 2.60628 2.68373 0
M  V30 6020 H 564.46 3.41491 3.54464 0
M  V30 6021 N 566.112 -0.949982 1.2575 0
M  V30 6022 C 567.34 -1.72972 1.13527 0
M  V30 6023 C 567.755 -1.8623 -0.310453 0
M  V30 6024 O 567.112 -1.36336 -1.2132 0
M  V30 6025 C 567.163 -3.14108 1.78936 0
M  V30 6026 O 566.884 -3.01493 3.17858 0
M  V30 6027 C 568.385 -4.08338 1.72554 0
M  V30 6028 H 565.605 -0.541864 0.395758 0
M  V30 6029 H 568.149 -1.19151 1.66202 0
M  V30 6030 H 566.304 -3.64858 1.30221 0
M  V30 6031 H 566.718 -3.90559 3.50092 0
M  V30 6032 H 568.192 -5.04963 2.22973 0
M  V30 6033 H 568.669 -4.33742 0.690251 0
M  V30 6034 H 569.275 -3.63506 2.2078 0
M  V30 6035 N 567.59 -1.07411 -1.15328 0
M  V30 6036 C 568.52 -0.716472 -2.22236 0
M  V30 6037 C 569.501 0.296373 -1.67498 0
M  V30 6038 O 570.686 0.168989 -1.93463 0
M  V30 6039 C 567.816 -0.114142 -3.47112 0
M  V30 6040 C 566.77 -1.05421 -4.14814 0
M  V30 6041 C 566.096 -0.314604 -5.33774 0
M  V30 6042 C 567.396 -2.38808 -4.64508 0
M  V30 6043 H 569.09 -1.61029 -2.52408 0
M  V30 6044 H 566.636 -0.775702 -1.21321 0
M  V30 6045 H 568.589 0.148001 -4.2114 0
M  V30 6046 H 567.313 0.814755 -3.16274 0
M  V30 6047 H 565.972 -1.30128 -3.42728 0
M  V30 6048 H 565.62 0.617772 -4.99192 0
M  V30 6049 H 565.32 -0.941209 -5.80013 0
M  V30 6050 H 566.844 -0.0602747 -6.1057 0
M  V30 6051 H 568.258 -2.18424 -5.3006 0
M  V30 6052 H 566.655 -2.97069 -5.21412 0
M  V30 6053 H 567.725 -3.01067 -3.80114 0
M  V30 6054 N 569.068 1.32177 -0.85831 0
M  V30 6055 C 570.293 2.01847 -0.476718 0
M  V30 6056 C 570.718 1.64065 0.920021 0
M  V30 6057 O 570.076 0.843189 1.60499 0
M  V30 6058 C 570.124 3.55097 -0.627578 0
M  V30 6059 O 569.228 4.11012 0.338086 0
M  V30 6060 H 568.569 0.635907 -0.191099 0
M  V30 6061 H 571.099 1.68641 -1.15851 0
M  V30 6062 H 571.109 4.04718 -0.516476 0
M  V30 6063 H 569.784 3.81938 -1.64609 0
M  V30 6064 H 568.361 3.72451 0.182917 0
M  V30 6065 N 570.547 0.616602 1.45037 0
M  V30 6066 C 571.824 0.0469086 1.95544 0
M  V30 6067 C 572.204 -1.42345 1.55888 0
M  V30 6068 O 571.552 -2.13055 0.825824 0
M  V30 6069 C 571.762 0.254489 3.48071 0
M  V30 6070 C 573.11 0.140025 4.24369 0
M  V30 6071 O 574.134 0.185084 3.55719 0
M  V30 6072 O 572.993 0.0327034 5.4649 0
M  V30 6073 H 570.087 -0.0306051 0.826433 0
M  V30 6074 H 572.633 0.687293 1.55159 0
M  V30 6075 H 571.405 1.27532 3.69934 0
M  V30 6076 H 571.028 -0.42073 3.95368 0
M  V30 6077 N 572.025 -1.5352 0.356285 0
M  V30 6078 C 573.274 -2.00298 -0.237373 0
M  V30 6079 C 573.587 -1.24784 -1.50627 0
M  V30 6080 O 574.793 -1.62103 -2.17795 0
M  V30 6081 C 573.249 -3.56771 -0.473545 0
M  V30 6082 C 572.857 -4.41154 0.780183 0
M  V30 6083 C 574.601 -4.1193 -1.02537 0
M  V30 6084 C 572.508 -5.89161 0.514108 0
M  V30 6085 H 571.438 -0.748307 -0.092478 0
M  V30 6086 H 574.089 -1.77283 0.473588 0
M  V30 6087 H 572.471 -3.75902 -1.24553 0
M  V30 6088 H 573.645 -4.33797 1.55425 0
M  V30 6089 H 571.96 -3.97052 1.25455 0
M  V30 6090 H 574.557 -5.20133 -1.2396 0
M  V30 6091 H 574.9 -3.65943 -1.98473 0
M  V30 6092 H 575.433 -3.96561 -0.313775 0
M  V30 6093 H 572.172 -6.39408 1.44355 0
M  V30 6094 H 571.692 -5.9939 -0.221632 0
M  V30 6095 H 573.371 -6.46857 0.136122 0
M  V30 6096 N 573.503 -0.0852151 -1.57369 0
M  V30 6097 C 574.919 0.271436 -1.57275 0
M  V30 6098 C 575.119 1.69109 -1.09565 0
M  V30 6099 O 574.175 2.40549 -0.767611 0
M  V30 6100 C 575.488 0.0688638 -3.00621 0
M  V30 6101 C 577.036 0.137373 -3.12698 0
M  V30 6102 C 577.511 -0.0370832 -4.57985 0
M  V30 6103 N 579.002 0.0180794 -4.63196 0
M  V30 6104 C 579.737 -0.0922953 -5.73326 0
M  V30 6105 N 579.233 -0.256948 -6.92323 0
M  V30 6106 N 581.026 -0.0342702 -5.6209 0
M  V30 6107 H 573.177 -1.01288 -1.86693 0
M  V30 6108 H 575.44 -0.396138 -0.861266 0
M  V30 6109 H 575.146 -0.911277 -3.39689 0
M  V30 6110 H 575.02 0.815442 -3.6828 0
M  V30 6111 H 577.407 1.10801 -2.73509 0
M  V30 6112 H 577.488 -0.640532 -2.47651 0
M  V30 6113 H 577.132 -1.00455 -4.97867 0
M  V30 6114 H 577.062 0.760392 -5.21081 0
M  V30 6115 H 579.553 0.143202 -3.77629 0
M  V30 6116 H 579.866 -0.332949 -7.72082 0
M  V30 6117 H 578.211 -0.292487 -6.94384 0
M  V30 6118 H 581.402 0.0931605 -4.68007 0
M  V30 6119 H 581.575 -0.12374 -6.47882 0
M  V30 6120 N 574.981 1.5647 0.188427 0
M  V30 6121 C 575.891 1.98285 1.2538 0
M  V30 6122 C 576.907 0.891535 1.49424 0
M  V30 6123 O 578.083 1.19782 1.61908 0
M  V30 6124 C 575.148 2.31965 2.57669 0
M  V30 6125 C 574.209 3.54838 2.41638 0
M  V30 6126 C 573.442 3.86901 3.67618 0
M  V30 6127 O 573.665 3.20163 4.72072 0
M  V30 6128 O 572.599 4.80309 3.62749 0
M  V30 6129 H 576.425 2.89145 0.928912 0
M  V30 6130 H 574.01 1.44112 0.393955 0
M  V30 6131 H 575.892 2.54673 3.35737 0
M  V30 6132 H 574.567 1.44271 2.89771 0
M  V30 6133 H 573.474 3.37369 1.61658 0
M  V30 6134 H 574.807 4.43019 2.14465 0
M  V30 6135 N 576.459 -0.456382 1.50847 0
M  V30 6136 C 577.707 -1.20497 1.62249 0
M  V30 6137 C 578.028 -1.92156 0.331839 0
M  V30 6138 O 577.298 -1.84751 -0.651443 0
M  V30 6139 H 575.878 -0.447775 0.597918 0
M  V30 6140 H 578.54 -0.525099 1.87693 0
M  V30 6141 H 577.636 -1.94492 2.44089 0
M  V30 6142 N 577.937 -1.40673 -0.710563 0
M  V30 6143 C 578.9 -1.4108 -1.80635 0
M  V30 6144 C 579.9 -0.303783 -1.57904 0
M  V30 6145 O 581.09 -0.562937 -1.64853 0
M  V30 6146 C 578.222 -1.20748 -3.18799 0
M  V30 6147 H 579.415 -2.38612 -1.81671 0
M  V30 6148 H 576.968 -1.26595 -0.916704 0
M  V30 6149 H 577.703 -0.239964 -3.23411 0
M  V30 6150 H 577.488 -2.00941 -3.36698 0
M  V30 6151 H 578.978 -1.23833 -3.98817 0
M  V30 6152 N 579.415 0.9433 -1.26252 0
M  V30 6153 C 580.826 1.50404 -1.10614 0
M  V30 6154 C 581.177 1.93666 0.31429 0
M  V30 6155 O 580.302 1.79709 1.20555 0
M  V30 6156 C 580.897 2.73336 -2.00182 0
M  V30 6157 C 579.456 3.25686 -1.88695 0
M  V30 6158 C 578.603 1.98474 -1.93658 0
M  V30 6159 H 581.554 0.759006 -1.39373 0
M  V30 6160 H 581.575 3.47567 -1.54847 0
M  V30 6161 H 581.087 2.41818 -3.03555 0
M  V30 6162 H 579.188 3.61998 -0.882489 0
M  V30 6163 H 579.301 3.92935 -2.74115 0
M  V30 6164 H 577.665 2.14278 -1.37684 0
M  V30 6165 H 578.448 1.6929 -2.98657 0
M  V30 6166 N 580.893 1.08022 1.14757 0
M  V30 6167 C 581.823 0.728248 2.21853 0
M  V30 6168 C 582.804 -0.287486 1.67653 0
M  V30 6169 O 583.989 -0.158727 1.9355 0
M  V30 6170 C 581.119 0.132549 3.47047 0
M  V30 6171 C 580.073 1.07619 4.14249 0
M  V30 6172 C 579.399 0.342907 5.33599 0
M  V30 6173 C 580.699 2.41268 4.63235 0
M  V30 6174 H 582.393 1.62365 2.51551 0
M  V30 6175 H 579.939 0.782125 1.20908 0
M  V30 6176 H 581.892 -0.125665 4.21213 0
M  V30 6177 H 580.616 -0.797971 3.16702 0
M  V30 6178 H 579.275 1.31944 3.42033 0
M  V30 6179 H 578.923 -0.59129 4.99513 0
M  V30 6180 H 578.623 0.971955 5.79506 0
M  V30 6181 H 580.147 0.0926538 6.1053 0
M  V30 6182 H 581.561 2.21232 5.28894 0
M  V30 6183 H 579.958 2.9983 5.19829 0
M  V30 6184 H 581.028 3.03079 3.78512 0
M  V30 6185 N 582.371 -1.3172 0.865308 0
M  V30 6186 C 583.619 -1.96487 0.472995 0
M  V30 6187 C 583.94 -1.68761 -0.976975 0
M  V30 6188 O 583.21 -1.00051 -1.68424 0
M  V30 6189 H 581.79 -0.726947 0.171922 0
M  V30 6190 H 584.452 -1.60612 1.10407 0
M  V30 6191 H 583.548 -3.0574 0.62687 0
M  V30 6192 N 583.85 -0.624285 -1.44708 0
M  V30 6193 C 585.096 -0.126237 -2.02407 0
M  V30 6194 C 585.428 1.24618 -1.48943 0
M  V30 6195 O 584.704 1.82569 -0.670742 0
M  V30 6196 C 584.986 -0.105449 -3.59946 0
M  V30 6197 C 584.84 -1.50972 -4.23707 0
M  V30 6198 C 586.159 0.573629 -4.36346 0
M  V30 6199 H 583.278 -0.0473472 -0.735478 0
M  V30 6200 H 585.92 -0.799452 -1.72362 0
M  V30 6201 H 584.07 0.46783 -3.85673 0
M  V30 6202 H 585.742 -2.13136 -4.0911 0
M  V30 6203 H 583.985 -2.0656 -3.81465 0
M  V30 6204 H 584.656 -1.44727 -5.32689 0
M  V30 6205 H 587.132 0.0861787 -4.16011 0
M  V30 6206 H 586.008 0.557338 -5.46063 0
M  V30 6207 H 586.269 1.64276 -4.10446 0
M  V30 6208 N 585.328 1.53329 -0.364422 0
M  V30 6209 C 586.278 2.22472 0.499024 0
M  V30 6210 C 587.262 1.21952 1.0496 0
M  V30 6211 O 588.454 1.47405 0.979836 0
M  V30 6212 C 585.583 3.01659 1.6388 0
M  V30 6213 C 584.669 4.09555 1.10116 0
M  V30 6214 N 585.06 5.04988 0.286414 0
M  V30 6215 C 583.358 4.2424 1.37608 0
M  V30 6216 C 584.059 5.81699 -0.00781682 0
M  V30 6217 N 583.035 5.40394 0.589494 0
M  V30 6218 H 586.837 2.93611 -0.130284 0
M  V30 6219 H 584.351 1.61483 -0.172377 0
M  V30 6220 H 586.348 3.4971 2.26954 0
M  V30 6221 H 585.008 2.32051 2.27118 0
M  V30 6222 H 586.019 5.17847 -0.0742839 0
M  V30 6223 H 582.696 3.65858 2.01133 0
M  V30 6224 H 584.086 6.68587 -0.666394 0
M  V30 6225 N 586.806 0.0935595 1.57322 0
M  V30 6226 C 587.736 -0.863062 2.16964 0
M  V30 6227 C 588.717 -1.29528 1.10256 0
M  V30 6228 O 589.902 -1.36245 1.38387 0
M  V30 6229 C 587.032 -2.12276 2.74875 0
M  V30 6230 C 585.986 -1.82921 3.86942 0
M  V30 6231 C 585.312 -3.15707 4.31548 0
M  V30 6232 C 586.612 -1.11737 5.10208 0
M  V30 6233 H 588.306 -0.366145 2.97153 0
M  V30 6234 H 585.852 -0.174673 1.42937 0
M  V30 6235 H 587.805 -2.79634 3.1525 0
M  V30 6236 H 586.529 -2.64248 1.91938 0
M  V30 6237 H 585.188 -1.17961 3.47103 0
M  V30 6238 H 584.836 -3.65563 3.45504 0
M  V30 6239 H 584.536 -2.96849 5.07104 0
M  V30 6240 H 586.06 -3.84226 4.74555 0
M  V30 6241 H 587.474 -1.69203 5.47762 0
M  V30 6242 H 585.871 -1.03064 5.91183 0
M  V30 6243 H 586.941 -0.0998818 4.84797 0
M  V30 6244 N 588.284 -1.56567 -0.180126 0
M  V30 6245 C 589.695 -1.7126 -0.743422 0
M  V30 6246 C 590.046 -0.70263 -1.83187 0
M  V30 6247 O 589.171 0.137856 -2.1596 0
M  V30 6248 C 589.766 -3.10512 -1.35528 0
M  V30 6249 C 588.325 -3.26919 -1.8655 0
M  V30 6250 C 587.472 -2.67213 -0.741099 0
M  V30 6251 H 590.423 -1.58636 0.0451543 0
M  V30 6252 H 590.444 -3.08673 -2.22489 0
M  V30 6253 H 589.956 -3.83997 -0.562862 0
M  V30 6254 H 588.057 -2.58376 -2.68464 0
M  V30 6255 H 588.17 -4.34574 -2.01699 0
M  V30 6256 H 586.534 -2.26788 -1.15927 0
M  V30 6257 H 587.317 -3.43277 0.0393291 0
M  V30 6258 N 589.762 0.448376 -1.51087 0
M  V30 6259 C 591.009 1.19872 -1.63209 0
M  V30 6260 C 591.337 1.91451 -0.343062 0
M  V30 6261 O 590.592 1.83789 0.672321 0
M  V30 6262 C 590.891 2.24866 -2.77795 0
M  V30 6263 C 590.557 1.70378 -4.17471 0
M  V30 6264 C 589.219 1.55241 -4.55471 0
M  V30 6265 C 591.571 1.30203 -5.04675 0
M  V30 6266 C 588.899 0.983844 -5.78392 0
M  V30 6267 C 591.251 0.747798 -6.28165 0
M  V30 6268 C 589.915 0.583233 -6.64947 0
M  V30 6269 H 589.185 0.438642 -0.597222 0
M  V30 6270 H 591.832 0.49136 -1.85089 0
M  V30 6271 H 590.137 3.01598 -2.50092 0
M  V30 6272 H 591.834 2.82723 -2.84374 0
M  V30 6273 H 588.424 1.83134 -3.87505 0
M  V30 6274 H 592.608 1.40723 -4.75932 0
M  V30 6275 H 587.864 0.844007 -6.05546 0
M  V30 6276 H 592.038 0.427927 -6.95084 0
M  V30 6277 H 589.665 0.140532 -7.6007 0
M  V30 6278 N 591.24 1.41047 0.703093 0
M  V30 6279 C 592.486 1.40207 1.46526 0
M  V30 6280 C 592.819 0.00847763 1.94198 0
M  V30 6281 O 592.094 -0.962437 1.69019 0
M  V30 6282 C 592.377 2.40238 2.6825 0
M  V30 6283 C 592.23 3.88674 2.26391 0
M  V30 6284 C 593.549 2.37627 3.70434 0
M  V30 6285 H 590.668 0.510594 0.531472 0
M  V30 6286 H 593.31 1.72271 0.801422 0
M  V30 6287 H 591.46 2.13026 3.24888 0
M  V30 6288 H 593.132 4.2676 1.75138 0
M  V30 6289 H 591.375 4.03903 1.58255 0
M  V30 6290 H 592.046 4.542 3.13698 0
M  V30 6291 H 594.522 2.61759 3.23452 0
M  V30 6292 H 593.398 3.09645 4.53223 0
M  V30 6293 H 593.659 1.39223 4.19606 0
M  V30 6294 N 592.718 -0.936591 1.26751 0
M  V30 6295 C 593.966 -1.67998 1.12343 0
M  V30 6296 C 594.287 -1.92137 -0.332938 0
M  V30 6297 O 593.557 -1.52132 -1.23421 0
M  V30 6298 H 592.137 -0.622609 0.412756 0
M  V30 6299 H 594.799 -1.12509 1.59147 0
M  V30 6300 H 593.895 -2.65185 1.64571 0
M  V30 6301 N 594.196 -1.08629 -1.14182 0
M  V30 6302 C 595.426 -0.837673 -1.88856 0
M  V30 6303 C 595.834 0.614024 -1.78959 0
M  V30 6304 O 595.177 1.43384 -1.14833 0
M  V30 6305 C 595.239 -1.18355 -3.39459 0
M  V30 6306 C 594.903 -2.63848 -3.73139 0
M  V30 6307 C 595.9 -3.62099 -3.73069 0
M  V30 6308 C 593.585 -2.99761 -4.03049 0
M  V30 6309 C 595.579 -4.94292 -4.02435 0
M  V30 6310 C 593.266 -4.32147 -4.32078 0
M  V30 6311 C 594.264 -5.29223 -4.31755 0
M  V30 6312 O 593.952 -6.59229 -4.60079 0
M  V30 6313 H 593.684 -0.301609 -0.604986 0
M  V30 6314 H 596.238 -1.44961 -1.45518 0
M  V30 6315 H 594.468 -0.514628 -3.8326 0
M  V30 6316 H 596.157 -0.915391 -3.95443 0
M  V30 6317 H 596.923 -3.35698 -3.50046 0
M  V30 6318 H 592.802 -2.2484 -4.02453 0
M  V30 6319 H 596.346 -5.70055 -4.02098 0
M  V30 6320 H 592.243 -4.58296 -4.54571 0
M  V30 6321 H 593.011 -6.64578 -4.77785 0
M  V30 6322 N 595.674 1.31259 -0.872281 0
M  V30 6323 C 596.899 2.0133 -0.498099 0
M  V30 6324 C 597.324 1.65031 0.902568 0
M  V30 6325 O 596.682 0.860164 1.59596 0
M  V30 6326 C 596.73 3.54411 -0.665205 0
M  V30 6327 O 595.834 4.11347 0.294473 0
M  V30 6328 H 595.175 0.633844 -0.197832 0
M  V30 6329 H 597.705 1.67402 -1.17633 0
M  V30 6330 H 597.715 4.04147 -0.559373 0
M  V30 6331 H 596.39 3.80171 -1.68651 0
M  V30 6332 H 594.967 3.72624 0.143403 0
M  V30 6333 N 597.152 0.631951 1.44375 0
M  V30 6334 C 598.382 0.143658 2.061 0
M  V30 6335 C 598.79 -1.18733 1.47306 0
M  V30 6336 O 598.133 -1.73943 0.590724 0
M  V30 6337 C 598.195 -0.0446102 3.59472 0
M  V30 6338 C 597.859 1.20835 4.40736 0
M  V30 6339 C 598.856 2.13224 4.74164 0
M  V30 6340 C 596.541 1.44399 4.81097 0
M  V30 6341 C 598.535 3.27487 5.46838 0
M  V30 6342 C 596.222 2.58959 5.53519 0
M  V30 6343 C 597.22 3.50329 5.86309 0
M  V30 6344 O 596.908 4.62891 6.57257 0
M  V30 6345 H 596.64 0.0772939 0.671567 0
M  V30 6346 H 599.194 0.866677 1.8622 0
M  V30 6347 H 597.424 -0.822783 3.77845 0
M  V30 6348 H 599.113 -0.487561 4.02961 0
M  V30 6349 H 599.879 1.96253 4.4352 0
M  V30 6350 H 595.758 0.741696 4.54994 0
M  V30 6351 H 599.302 3.98826 5.72349 0
M  V30 6352 H 595.199 2.75873 5.83579 0
M  V30 6353 H 595.967 4.61883 6.75726 0
M  V30 6354 N 598.631 -1.53133 0.372548 0
M  V30 6355 C 599.856 -2.0625 -0.218098 0
M  V30 6356 C 600.281 -1.24375 -1.41111 0
M  V30 6357 O 599.639 -0.264554 -1.79359 0
M  V30 6358 C 599.687 -3.55858 -0.582876 0
M  V30 6359 O 598.791 -3.76667 -1.67917 0
M  V30 6360 H 598.132 -0.663317 -0.030104 0
M  V30 6361 H 600.662 -1.97477 0.535169 0
M  V30 6362 H 600.672 -3.99007 -0.851925 0
M  V30 6363 H 599.347 -4.14892 0.289428 0
M  V30 6364 H 597.924 -3.45413 -1.40513 0
M  V30 6365 N 600.109 -0.101901 -1.5727 0
M  V30 6366 C 601.349 0.563489 -1.96479 0
M  V30 6367 C 601.713 1.64926 -0.983021 0
M  V30 6368 O 602.914 2.37234 -1.26386 0
M  V30 6369 C 601.185 1.09809 -3.40113 0
M  V30 6370 S 602.744 1.7744 -4.01323 0
M  V30 6371 H 599.562 0.183675 -0.686866 0
M  V30 6372 H 602.164 -0.182922 -1.94642 0
M  V30 6373 H 600.868 0.296447 -4.09328 0
M  V30 6374 H 600.399 1.88018 -3.45562 0
M  V30 6375 H 602.414 3.0591 -3.90683 0
M  V30 6376 N 601.587 1.56661 0.17182 0
M  V30 6377 C 602.52 1.91474 1.24149 0
M  V30 6378 C 603.498 0.777485 1.42807 0
M  V30 6379 O 604.682 1.03075 1.57822 0
M  V30 6380 C 601.809 2.16523 2.60453 0
M  V30 6381 C 600.855 3.39209 2.58533 0
M  V30 6382 S 601.688 4.93594 2.07665 0
M  V30 6383 C 602.844 5.21737 3.45747 0
M  V30 6384 H 603.077 2.81903 0.944346 0
M  V30 6385 H 600.61 1.49743 0.376364 0
M  V30 6386 H 602.568 2.31635 3.38903 0
M  V30 6387 H 601.229 1.26802 2.87368 0
M  V30 6388 H 600.422 3.53935 3.58812 0
M  V30 6389 H 600.024 3.2321 1.88178 0
M  V30 6390 H 602.316 5.13684 4.41741 0
M  V30 6391 H 603.259 6.23361 3.35896 0
M  V30 6392 H 603.667 4.49307 3.41736 0
M  V30 6393 N 603.065 -0.440357 1.51323 0
M  V30 6394 C 604.028 -1.51679 1.71832 0
M  V30 6395 C 605.028 -1.49648 0.588386 0
M  V30 6396 O 606.218 -1.51724 0.855891 0
M  V30 6397 C 603.35 -2.91228 1.77199 0
M  V30 6398 H 604.543 -1.34799 2.67898 0
M  V30 6399 H 602.096 -0.66883 1.41267 0
M  V30 6400 H 602.831 -3.13516 0.829363 0
M  V30 6401 H 602.616 -2.94107 2.59314 0
M  V30 6402 H 604.106 -3.69321 1.94915 0
M  V30 6403 N 604.543 -1.41418 -0.695603 0
M  V30 6404 C 605.473 -1.46035 -1.82197 0
M  V30 6405 C 606.454 -0.319025 -1.67082 0
M  V30 6406 O 607.639 -0.530462 -1.86815 0
M  V30 6407 C 604.769 -1.34179 -3.20333 0
M  V30 6408 C 603.723 -2.46123 -3.50154 0
M  V30 6409 C 603.049 -2.19332 -4.87645 0
M  V30 6410 C 604.349 -3.88463 -3.49133 0
M  V30 6411 H 606.043 -2.40303 -1.78591 0
M  V30 6412 H 603.589 -1.15663 -0.857797 0
M  V30 6413 H 605.542 -1.36021 -3.98844 0
M  V30 6414 H 604.266 -0.363952 -3.24566 0
M  V30 6415 H 602.925 -2.43563 -2.73994 0
M  V30 6416 H 602.573 -1.19891 -4.88503 0
M  V30 6417 H 602.273 -2.94344 -5.08562 0
M  V30 6418 H 603.797 -2.22889 -5.68465 0
M  V30 6419 H 605.211 -3.92738 -4.17648 0
M  V30 6420 H 603.608 -4.63158 -3.81582 0
M  V30 6421 H 604.678 -4.16617 -2.48109 0
M  V30 6422 N 606.021 0.929856 -1.27246 0
M  V30 6423 C 607.437 1.20542 -1.04603 0
M  V30 6424 C 607.637 2.00276 0.221754 0
M  V30 6425 O 606.693 2.34835 0.927833 0
M  V30 6426 C 608.006 1.95566 -2.28417 0
M  V30 6427 C 609.554 2.08513 -2.33433 0
M  V30 6428 C 610.029 2.86943 -3.5697 0
M  V30 6429 N 611.52 2.94512 -3.57515 0
M  V30 6430 C 612.255 3.55656 -4.49774 0
M  V30 6431 N 611.751 4.18209 -5.52334 0
M  V30 6432 N 613.544 3.53038 -4.37402 0
M  V30 6433 H 605.695 0.397113 -2.08655 0
M  V30 6434 H 607.958 0.238277 -0.917566 0
M  V30 6435 H 607.664 1.44395 -3.20691 0
M  V30 6436 H 607.538 2.9619 -2.33563 0
M  V30 6437 H 609.925 2.58872 -1.41666 0
M  V30 6438 H 610.006 1.07117 -2.32292 0
M  V30 6439 H 609.65 2.37268 -4.49072 0
M  V30 6440 H 609.58 3.8862 -3.55362 0
M  V30 6441 H 612.071 2.50053 -2.83341 0
M  V30 6442 H 612.384 4.62796 -6.18902 0
M  V30 6443 H 610.729 4.16761 -5.56179 0
M  V30 6444 H 613.92 3.0337 -3.56489 0
M  V30 6445 H 614.093 4.004 -5.09493 0
M  V30 6446 N 607.499 1.09233 1.13605 0
M  V30 6447 C 608.776 0.739633 1.81077 0
M  V30 6448 C 609.156 -0.775595 1.96336 0
M  V30 6449 O 608.504 -1.69726 1.52988 0
M  V30 6450 C 608.714 1.47636 3.16235 0
M  V30 6451 C 610.062 1.64087 3.91613 0
M  V30 6452 O 611.086 1.43871 3.25852 0
M  V30 6453 O 609.945 1.97511 5.0956 0
M  V30 6454 H 607.039 0.265464 0.783236 0
M  V30 6455 H 609.585 1.19441 1.20549 0
M  V30 6456 H 608.357 2.50818 3.00344 0
M  V30 6457 H 607.98 1.01362 3.84462 0
M  V30 6458 N 608.977 -1.30795 0.87923 0
M  V30 6459 C 610.202 -2.01063 0.508769 0
M  V30 6460 C 610.627 -1.65508 -0.893803 0
M  V30 6461 O 609.985 -0.868616 -1.59138 0
M  V30 6462 C 610.033 -3.54054 0.683991 0
M  V30 6463 O 609.137 -4.11498 -0.272654 0
M  V30 6464 H 608.478 -0.632786 0.201191 0
M  V30 6465 H 611.008 -1.66776 1.18519 0
M  V30 6466 H 611.018 -4.03845 0.580798 0
M  V30 6467 H 609.693 -3.79271 1.70665 0
M  V30 6468 H 608.27 -3.72695 -0.12364 0
M  V30 6469 N 610.455 -0.639598 -1.44038 0
M  V30 6470 C 611.365 0.0612377 -2.3452 0
M  V30 6471 C 612.381 0.826717 -1.53106 0
M  V30 6472 O 613.557 0.777059 -1.85806 0
M  V30 6473 C 610.622 1.02492 -3.31204 0
M  V30 6474 C 609.683 0.25788 -4.28525 0
M  V30 6475 C 608.916 1.17566 -5.2059 0
M  V30 6476 O 609.139 2.41461 -5.16771 0
M  V30 6477 O 608.073 0.655407 -5.98321 0
M  V30 6478 H 611.899 -0.68318 -2.95916 0
M  V30 6479 H 609.484 -0.399784 -1.43952 0
M  V30 6480 H 611.366 1.57911 -3.90694 0
M  V30 6481 H 610.041 1.7498 -2.7233 0
M  V30 6482 H 608.948 -0.339566 -3.72556 0
M  V30 6483 H 610.281 -0.427154 -4.90343 0
M  V30 6484 N 611.933 1.52934 -0.380664 0
M  V30 6485 C 613.179 2.01765 0.20458 0
M  V30 6486 C 613.512 1.26696 1.47179 0
M  V30 6487 O 612.787 0.364936 1.91046 0
M  V30 6488 C 613.07 3.56869 0.481269 0
M  V30 6489 C 612.923 4.42617 -0.800629 0
M  V30 6490 C 614.242 4.2121 1.27554 0
M  V30 6491 H 611.361 0.733388 0.0728803 0
M  V30 6492 H 614.003 1.83068 -0.50853 0
M  V30 6493 H 612.153 3.72932 1.08875 0
M  V30 6494 H 613.825 4.38323 -1.43773 0
M  V30 6495 H 612.068 4.09977 -1.4178 0
M  V30 6496 H 612.739 5.49134 -0.561791 0
M  V30 6497 H 615.215 4.09072 0.761514 0
M  V30 6498 H 614.091 5.29732 1.43788 0
M  V30 6499 H 614.352 3.78269 2.28833 0
M  V30 6500 N 613.412 0.11024 1.57214 0
M  V30 6501 C 614.823 -0.416527 1.81994 0
M  V30 6502 C 615.174 -1.67183 1.02686 0
M  V30 6503 O 614.299 -2.14823 0.260782 0
M  V30 6504 C 614.894 -0.762466 3.30109 0
M  V30 6505 C 613.453 -1.23391 3.556 0
M  V30 6506 C 612.6 -0.238166 2.76275 0
M  V30 6507 H 615.551 0.335491 1.55113 0
M  V30 6508 H 615.572 -1.62068 3.44259 0
M  V30 6509 H 615.084 0.151346 3.87805 0
M  V30 6510 H 613.185 -2.16492 3.03253 0
M  V30 6511 H 613.298 -1.18528 4.64207 0
M  V30 6512 H 611.662 -0.723421 2.4421 0
M  V30 6513 H 612.445 0.668591 3.36727 0
M  V30 6514 N 614.89 -1.56749 -0.16351 0
M  V30 6515 C 616.138 -1.82074 -0.87713 0
M  V30 6516 C 616.459 -0.688503 -1.82441 0
M  V30 6517 O 615.729 0.291085 -1.93725 0
M  V30 6518 H 614.309 -0.671677 -0.326893 0
M  V30 6519 H 616.971 -1.9423 -0.161459 0
M  V30 6520 H 616.067 -2.76407 -1.44934 0
M  V30 6521 N 616.368 0.432326 -1.51554 0
M  V30 6522 C 617.779 1.01202 -1.56892 0
M  V30 6523 C 618.13 1.92175 -0.395394 0
M  V30 6524 O 617.255 2.10844 0.487198 0
M  V30 6525 C 617.85 1.84217 -2.8434 0
M  V30 6526 C 616.409 2.37228 -2.92233 0
M  V30 6527 C 615.556 1.16576 -2.51606 0
M  V30 6528 H 618.507 0.213407 -1.57259 0
M  V30 6529 H 618.528 2.69721 -2.68385 0
M  V30 6530 H 618.04 1.17979 -3.69733 0
M  V30 6531 H 616.141 3.06905 -2.11282 0
M  V30 6532 H 616.254 2.69682 -3.95991 0
M  V30 6533 H 614.618 1.51263 -2.04919 0
M  V30 6534 H 615.401 0.519404 -3.39348 0
M  V30 6535 N 617.846 1.41785 0.688094 0
M  V30 6536 C 619.074 1.44915 1.47673 0
M  V30 6537 C 619.489 0.0565786 1.88715 0
M  V30 6538 O 618.846 -0.92579 1.57275 0
M  V30 6539 C 618.897 2.36452 2.73446 0
M  V30 6540 O 618.618 3.7029 2.34131 0
M  V30 6541 C 620.119 2.48463 3.67125 0
M  V30 6542 H 617.339 0.493324 0.454832 0
M  V30 6543 H 619.883 1.86153 0.846594 0
M  V30 6544 H 618.038 1.98502 3.3268 0
M  V30 6545 H 618.452 4.19183 3.15255 0
M  V30 6546 H 619.926 3.16662 4.52138 0
M  V30 6547 H 620.403 1.51826 4.12123 0
M  V30 6548 H 621.009 2.8708 3.13792 0
M  V30 6549 N 619.324 -0.923095 1.27737 0
M  V30 6550 C 620.735 -1.48626 1.12993 0
M  V30 6551 C 621.086 -1.94142 -0.283439 0
M  V30 6552 O 620.211 -1.81605 -1.17681 0
M  V30 6553 C 620.806 -2.70117 2.04505 0
M  V30 6554 C 619.365 -3.22642 1.93853 0
M  V30 6555 C 618.512 -1.95368 1.96791 0
M  V30 6556 H 621.463 -0.736737 1.40563 0
M  V30 6557 H 621.484 -3.4506 1.60356 0
M  V30 6558 H 620.996 -2.36959 3.07363 0
M  V30 6559 H 619.097 -3.60549 0.939968 0
M  V30 6560 H 619.21 -3.88525 2.80331 0
M  V30 6561 H 617.574 -2.12061 1.41076 0
M  V30 6562 H 618.357 -1.64517 3.01312 0
M  V30 6563 N 620.802 -1.09834 -1.13024 0
M  V30 6564 C 621.735 -0.685453 -2.17662 0
M  V30 6565 C 622.713 0.310142 -1.59615 0
M  V30 6566 O 623.897 0.21052 -1.87321 0
M  V30 6567 C 621.024 -0.0104476 -3.38698 0
M  V30 6568 C 620.07 -0.968522 -4.15358 0
M  V30 6569 S 620.903 -2.48272 -4.74469 0
M  V30 6570 C 622.059 -1.82025 -5.98847 0
M  V30 6571 H 622.292 -1.57187 -2.52348 0
M  V30 6572 H 619.825 -0.914728 -1.24387 0
M  V30 6573 H 621.783 0.372694 -4.08805 0
M  V30 6574 H 620.444 0.852673 -3.02305 0
M  V30 6575 H 619.637 -0.443373 -5.02046 0
M  V30 6576 H 619.239 -1.29327 -3.50928 0
M  V30 6577 H 621.531 -1.14678 -6.67724 0
M  V30 6578 H 622.474 -2.66645 -6.55977 0
M  V30 6579 H 622.882 -1.2874 -5.49624 0
M  V30 6580 N 622.28 1.30327 -0.886154 0
M  V30 6581 C 623.19 2.31854 -0.357866 0
M  V30 6582 C 624.206 1.65392 0.540502 0
M  V30 6583 O 625.382 1.96683 0.433339 0
M  V30 6584 C 622.447 3.44171 0.417999 0
M  V30 6585 C 621.508 4.26257 -0.510263 0
M  V30 6586 C 620.741 5.3321 0.228669 0
M  V30 6587 O 620.964 5.51542 1.45458 0
M  V30 6588 O 619.898 6.0042 -0.421832 0
M  V30 6589 H 623.724 2.78995 -1.19982 0
M  V30 6590 H 621.309 1.34518 -0.650028 0
M  V30 6591 H 623.191 4.12588 0.857251 0
M  V30 6592 H 621.866 2.99164 1.23623 0
M  V30 6593 H 620.773 3.60533 -0.99835 0
M  V30 6594 H 622.106 4.74871 -1.29454 0
M  V30 6595 N 623.758 0.647228 1.43697 0
M  V30 6596 C 624.688 -0.0345631 2.33474 0
M  V30 6597 C 625.669 -0.818193 1.4913 0
M  V30 6598 O 626.854 -0.780867 1.77809 0
M  V30 6599 C 623.984 -1.00576 3.32418 0
M  V30 6600 C 622.938 -0.33266 4.26705 0
M  V30 6601 C 622.264 -1.41489 5.1564 0
M  V30 6602 C 623.564 0.771204 5.16575 0
M  V30 6603 H 625.258 0.715163 2.90733 0
M  V30 6604 H 622.804 0.345364 1.39797 0
M  V30 6605 H 624.757 -1.49159 3.94119 0
M  V30 6606 H 623.481 -1.78657 2.73403 0
M  V30 6607 H 622.14 0.13267 3.6636 0
M  V30 6608 H 621.788 -2.18698 4.52968 0
M  V30 6609 H 621.488 -0.969799 5.79542 0
M  V30 6610 H 623.012 -1.9022 5.80214 0
M  V30 6611 H 624.426 0.36779 5.72119 0
M  V30 6612 H 622.823 1.1404 5.89165 0
M  V30 6613 H 623.893 1.63169 4.56622 0
M  V30 6614 N 625.236 -1.5273 0.388769 0
M  V30 6615 C 626.146 -2.30165 -0.453993 0
M  V30 6616 C 627.162 -1.37058 -1.07197 0
M  V30 6617 O 628.338 -1.70127 -1.0779 0
M  V30 6618 C 625.403 -3.09303 -1.56628 0
M  V30 6619 C 624.464 -4.18117 -0.973467 0
M  V30 6620 C 623.697 -4.93472 -2.03275 0
M  V30 6621 O 623.92 -4.68913 -3.24772 0
M  V30 6622 O 622.854 -5.78833 -1.65034 0
M  V30 6623 H 626.68 -3.03185 0.176816 0
M  V30 6624 H 624.265 -1.4862 0.152501 0
M  V30 6625 H 626.147 -3.58648 -2.21246 0
M  V30 6626 H 624.822 -2.39098 -2.18206 0
M  V30 6627 H 623.729 -3.7297 -0.290556 0
M  V30 6628 H 625.062 -4.90556 -0.401908 0
M  V30 6629 N 626.714 -0.118576 -1.57153 0
M  V30 6630 C 627.677 0.817464 -2.14127 0
M  V30 6631 C 628.677 1.1949 -1.07604 0
M  V30 6632 O 629.867 1.12048 -1.33382 0
M  V30 6633 C 626.999 2.10541 -2.68115 0
M  V30 6634 H 628.192 0.322339 -2.98163 0
M  V30 6635 H 625.745 0.130655 -1.55753 0
M  V30 6636 H 626.48 2.64485 -1.87665 0
M  V30 6637 H 626.265 1.84425 -3.4602 0
M  V30 6638 H 627.755 2.77453 -3.12105 0
M  V30 6639 N 628.193 1.56834 0.155195 0
M  V30 6640 C 629.103 2.009 1.21146 0
M  V30 6641 C 630.119 0.923029 1.475 0
M  V30 6642 O 631.295 1.23189 1.59331 0
M  V30 6643 C 628.36 2.37378 2.52691 0
M  V30 6644 C 627.421 3.59883 2.34057 0
M  V30 6645 C 626.654 3.94612 3.59329 0
M  V30 6646 O 626.877 3.30104 4.65175 0
M  V30 6647 O 625.811 4.87895 3.52479 0
M  V30 6648 H 629.637 2.9105 0.867371 0
M  V30 6649 H 627.222 1.44916 0.363298 0
M  V30 6650 H 629.104 2.61737 3.3026 0
M  V30 6651 H 627.779 1.50385 2.86646 0
M  V30 6652 H 626.686 3.40722 1.54465 0
M  V30 6653 H 628.019 4.47468 2.0502 0
M  V30 6654 N 629.671 -0.424282 1.51781 0
M  V30 6655 C 630.603 -1.53457 1.70246 0
M  V30 6656 C 631.616 -1.52004 0.582967 0
M  V30 6657 O 632.805 -1.56544 0.857683 0
M  V30 6658 C 629.905 -2.92368 1.71389 0
M  V30 6659 C 629.078 -3.1818 3.00133 0
M  V30 6660 C 628.137 -4.36884 2.9329 0
M  V30 6661 O 627.163 -4.34901 3.67219 0
M  V30 6662 N 628.365 -5.4117 2.10036 0
M  V30 6663 H 631.13 -1.38017 2.66029 0
M  V30 6664 H 628.691 -0.613394 1.4983 0
M  V30 6665 H 630.683 -3.6982 1.64362 0
M  V30 6666 H 629.253 -3.0134 0.831449 0
M  V30 6667 H 628.473 -2.28908 3.20928 0
M  V30 6668 H 629.761 -3.32261 3.85331 0
M  V30 6669 H 629.159 -5.45623 1.49373 0
M  V30 6670 H 627.716 -6.17425 2.08878 0
M  V30 6671 N 631.149 -1.42148 -0.680565 0
M  V30 6672 C 632.079 -1.4796 -1.80638 0
M  V30 6673 C 633.06 -0.336728 -1.66734 0
M  V30 6674 O 634.245 -0.550247 -1.86242 0
M  V30 6675 C 631.375 -1.37569 -3.18892 0
M  V30 6676 C 630.329 -2.49823 -3.47524 0
M  V30 6677 C 629.655 -2.24491 -4.85291 0
M  V30 6678 C 630.955 -3.92144 -3.44994 0
M  V30 6679 H 632.649 -2.42184 -1.76032 0
M  V30 6680 H 630.195 -1.16566 -0.845481 0
M  V30 6681 H 632.148 -1.40243 -3.97379 0
M  V30 6682 H 630.872 -0.398357 -3.24162 0
M  V30 6683 H 629.531 -2.46455 -2.71395 0
M  V30 6684 H 629.179 -1.25066 -4.87204 0
M  V30 6685 H 628.879 -2.99722 -5.05411 0
M  V30 6686 H 630.403 -2.28906 -5.66069 0
M  V30 6687 H 631.817 -3.97145 -4.13459 0
M  V30 6688 H 630.214 -4.67179 -3.76648 0
M  V30 6689 H 631.284 -4.19225 -2.43676 0
M  V30 6690 N 632.627 0.916307 -1.28225 0
M  V30 6691 C 633.557 2.0352 -1.14464 0
M  V30 6692 C 634.538 1.70045 -0.0430844 0
M  V30 6693 O 635.723 1.92954 -0.219619 0
M  V30 6694 C 632.853 3.37889 -0.803027 0
M  V30 6695 C 631.807 3.85516 -1.85908 0
M  V30 6696 C 631.133 5.1682 -1.37116 0
M  V30 6697 C 632.433 4.07655 -3.26519 0
M  V30 6698 H 634.127 2.1529 -2.08064 0
M  V30 6699 H 631.673 1.03446 -1.00174 0
M  V30 6700 H 633.626 4.15654 -0.693537 0
M  V30 6701 H 632.35 3.26164 0.168674 0
M  V30 6702 H 631.009 3.09953 -1.95767 0
M  V30 6703 H 630.657 5.01497 -0.38859 0
M  V30 6704 H 630.357 5.49657 -2.07728 0
M  V30 6705 H 631.881 5.97143 -1.27484 0
M  V30 6706 H 633.295 4.75953 -3.19596 0
M  V30 6707 H 631.692 4.51818 -3.94943 0
M  V30 6708 H 632.762 3.12553 -3.70727 0
M  V30 6709 N 634.105 1.10431 1.1244 0
M  V30 6710 C 635.015 0.765502 2.21759 0
M  V30 6711 C 636.031 -0.236966 1.72379 0
M  V30 6712 O 637.207 -0.0757329 2.01258 0
M  V30 6713 C 634.272 0.202316 3.46109 0
M  V30 6714 C 633.333 1.26205 4.1033 0
M  V30 6715 C 632.566 0.725648 5.28744 0
M  V30 6716 O 632.789 -0.447942 5.68638 0
M  V30 6717 O 631.723 1.48555 5.83279 0
M  V30 6718 H 635.549 1.67801 2.53133 0
M  V30 6719 H 633.134 0.879443 1.20773 0
M  V30 6720 H 635.016 -0.107918 4.21262 0
M  V30 6721 H 633.691 -0.683052 3.16411 0
M  V30 6722 H 632.598 1.62514 3.36957 0
M  V30 6723 H 633.931 2.12044 4.44183 0
M  V30 6724 N 635.583 -1.29855 0.893053 0
M  V30 6725 C 636.994 -1.77946 0.564998 0
M  V30 6726 C 637.345 -1.73339 -0.919134 0
M  V30 6727 O 636.47 -1.3152 -1.71847 0
M  V30 6728 C 637.065 -3.23118 1.01883 0
M  V30 6729 C 635.624 -3.69013 0.742051 0
M  V30 6730 C 634.771 -2.50121 1.19727 0
M  V30 6731 H 637.722 -1.16611 1.07646 0
M  V30 6732 H 637.743 -3.78875 0.351249 0
M  V30 6733 H 637.255 -3.26439 2.09903 0
M  V30 6734 H 635.356 -3.71173 -0.325816 0
M  V30 6735 H 635.469 -4.60117 1.33527 0
M  V30 6736 H 633.833 -2.47128 0.616418 0
M  V30 6737 H 634.616 -2.56174 2.28538 0
M  V30 6738 N 637.061 -0.65484 -1.43351 0
M  V30 6739 C 638.011 0.0581325 -2.27926 0
M  V30 6740 C 638.995 0.793188 -1.3999 0
M  V30 6741 O 640.187 0.675387 -1.63608 0
M  V30 6742 C 637.316 1.02272 -3.27712 0
M  V30 6743 C 636.402 0.286048 -4.23134 0
M  V30 6744 N 636.793 -0.698298 -5.00957 0
M  V30 6745 C 635.091 0.527272 -4.42872 0
M  V30 6746 C 635.792 -1.1357 -5.70506 0
M  V30 6747 N 634.768 -0.469631 -5.41568 0
M  V30 6748 H 638.57 -0.697182 -2.85511 0
M  V30 6749 H 636.084 -0.482252 -1.55074 0
M  V30 6750 H 638.081 1.5483 -3.87083 0
M  V30 6751 H 636.741 1.77807 -2.71688 0
M  V30 6752 H 637.752 -1.07708 -5.06576 0
M  V30 6753 H 634.429 1.26367 -3.97916 0
M  V30 6754 H 635.819 -1.95027 -6.42973 0
M  V30 6755 N 638.539 1.52521 -0.396863 0
M  V30 6756 C 639.785 2.01971 0.183169 0
M  V30 6757 C 640.118 1.2825 1.45827 0
M  V30 6758 O 639.393 0.385179 1.90648 0
M  V30 6759 C 639.676 3.5736 0.443391 0
M  V30 6760 C 639.529 4.41743 -0.84753 0
M  V30 6761 C 640.848 4.22539 1.2308 0
M  V30 6762 H 637.967 0.734119 0.0650976 0
M  V30 6763 H 640.609 1.82519 -0.527918 0
M  V30 6764 H 638.759 3.74066 1.04914 0
M  V30 6765 H 640.431 4.36773 -1.48414 0
M  V30 6766 H 638.674 4.0845 -1.4612 0
M  V30 6767 H 639.345 5.48507 -0.620003 0
M  V30 6768 H 641.821 4.09857 0.718084 0
M  V30 6769 H 640.697 5.31227 1.38162 0
M  V30 6770 H 640.958 3.80675 2.24808 0
M  V30 6771 N 640.017 0.126909 1.57088 0
M  V30 6772 C 640.949 -0.850973 2.12817 0
M  V30 6773 C 641.962 -1.22457 1.07276 0
M  V30 6774 O 643.151 -1.17215 1.34622 0
M  V30 6775 C 640.251 -2.15039 2.61938 0
M  V30 6776 C 639.424 -1.94726 3.91664 0
M  V30 6777 C 638.483 -3.0847 4.26301 0
M  V30 6778 O 637.509 -2.81038 4.94981 0
M  V30 6779 N 638.711 -4.35116 3.84259 0
M  V30 6780 H 641.476 -0.3748 2.97347 0
M  V30 6781 H 639.037 -0.0572793 1.61799 0
M  V30 6782 H 641.029 -2.90141 2.82135 0
M  V30 6783 H 639.599 -2.5398 1.82244 0
M  V30 6784 H 638.819 -1.03772 3.80296 0
M  V30 6785 H 640.107 -1.78469 4.76473 0
M  V30 6786 H 639.505 -4.60276 3.2888 0
M  V30 6787 H 638.062 -5.07064 4.09548 0
M  V30 6788 N 641.495 -1.56914 -0.146875 0
M  V30 6789 C 642.458 -1.97368 -1.16526 0
M  V30 6790 C 643.458 -0.860223 -1.35856 0
M  V30 6791 O 644.648 -1.12684 -1.32846 0
M  V30 6792 C 641.78 -2.28974 -2.52555 0
M  V30 6793 H 642.973 -2.88523 -0.818209 0
M  V30 6794 H 640.526 -1.5135 -0.390221 0
M  V30 6795 H 641.261 -1.40611 -2.92231 0
M  V30 6796 H 641.046 -3.10157 -2.39886 0
M  V30 6797 H 642.536 -2.61109 -3.25902 0
M  V30 6798 N 642.974 0.416227 -1.52004 0
M  V30 6799 C 644.385 0.995319 -1.57957 0
M  V30 6800 C 644.736 1.91744 -0.415754 0
M  V30 6801 O 643.861 2.11349 0.464808 0
M  V30 6802 C 644.456 1.81191 -2.86278 0
M  V30 6803 C 643.015 2.34115 -2.94732 0
M  V30 6804 C 642.162 1.139 -2.52828 0
M  V30 6805 H 645.113 0.196716 -1.57476 0
M  V30 6806 H 645.134 2.66859 -2.71231 0
M  V30 6807 H 644.646 1.14051 -3.70963 0
M  V30 6808 H 642.747 3.04647 -2.14525 0
M  V30 6809 H 642.86 2.65466 -3.98829 0
M  V30 6810 H 641.224 1.49081 -2.06511 0
M  V30 6811 H 642.007 0.483383 -3.3988 0
M  V30 6812 N 644.452 1.42507 0.673017 0
M  V30 6813 C 645.677 1.4668 1.46627 0
M  V30 6814 C 646.102 0.080066 1.8793 0
M  V30 6815 O 645.46 -0.921879 1.56112 0
M  V30 6816 C 645.508 2.40091 2.69051 0
M  V30 6817 O 644.612 1.8735 3.67387 0
M  V30 6818 H 643.953 0.496908 0.44043 0
M  V30 6819 H 646.483 1.87215 0.825334 0
M  V30 6820 H 646.493 2.56731 3.17101 0
M  V30 6821 H 645.168 3.4084 2.3833 0
M  V30 6822 H 643.745 1.80274 3.26429 0
M  V30 6823 N 645.93 -0.909495 1.28709 0
M  V30 6824 C 646.86 -2.0291 1.15542 0
M  V30 6825 C 647.841 -1.7002 0.0521017 0
M  V30 6826 O 649.026 -1.92835 0.229849 0
M  V30 6827 C 646.156 -3.37458 0.820935 0
M  V30 6828 C 645.11 -3.84524 1.87949 0
M  V30 6829 C 644.436 -5.16086 1.39854 0
M  V30 6830 C 645.736 -4.05918 3.28676 0
M  V30 6831 H 647.43 -2.14183 2.09203 0
M  V30 6832 H 644.976 -1.02913 1.00722 0
M  V30 6833 H 646.929 -4.1528 0.715571 0
M  V30 6834 H 645.653 -3.26249 -0.151374 0
M  V30 6835 H 644.312 -3.08911 1.97408 0
M  V30 6836 H 643.96 -5.01284 0.41518 0
M  V30 6837 H 643.66 -5.48547 2.1064 0
M  V30 6838 H 645.184 -5.96459 1.30649 0
M  V30 6839 H 646.598 -4.74252 3.22115 0
M  V30 6840 H 644.995 -4.49717 3.97334 0
M  V30 6841 H 646.065 -3.10583 3.72379 0
M  V30 6842 N 647.408 -1.11026 -1.11852 0
M  V30 6843 C 648.318 -0.777252 -2.2135 0
M  V30 6844 C 649.334 0.227821 -1.72502 0
M  V30 6845 O 650.51 0.0650587 -2.01295 0
M  V30 6846 C 647.575 -0.220668 -3.45997 0
M  V30 6847 C 646.636 -1.2838 -4.09655 0
M  V30 6848 C 645.869 -0.753678 -5.28352 0
M  V30 6849 O 646.092 0.417779 -5.68868 0
M  V30 6850 O 645.026 -1.51647 -5.82483 0
M  V30 6851 H 648.852 -1.69141 -2.5224 0
M  V30 6852 H 646.437 -0.885836 -1.20305 0
M  V30 6853 H 648.319 0.0855756 -4.21313 0
M  V30 6854 H 646.994 0.666262 -3.16769 0
M  V30 6855 H 645.901 -1.64299 -3.3609 0
M  V30 6856 H 647.234 -2.14396 -4.43052 0
M  V30 6857 N 648.886 1.2938 -0.899927 0
M  V30 6858 C 650.297 1.77644 -0.574427 0
M  V30 6859 C 650.648 1.73824 0.909928 0
M  V30 6860 O 649.773 1.32429 1.71147 0
M  V30 6861 C 650.368 3.22573 -1.03595 0
M  V30 6862 C 648.927 3.68614 -0.76161 0
M  V30 6863 C 648.074 2.49483 -1.21052 0
M  V30 6864 H 651.025 1.16038 -1.08263 0
M  V30 6865 H 651.046 3.78684 -0.371337 0
M  V30 6866 H 650.558 3.25321 -2.11631 0
M  V30 6867 H 648.659 3.7134 0.306127 0
M  V30 6868 H 648.772 4.59402 -1.35965 0
M  V30 6869 H 647.136 2.46798 -0.629515 0
M  V30 6870 H 647.919 2.54959 -2.29893 0
M  V30 6871 N 650.364 0.662433 1.43002 0
M  V30 6872 C 651.589 0.186003 2.06564 0
M  V30 6873 C 652.014 -1.14314 1.49379 0
M  V30 6874 O 651.372 -1.70824 0.607346 0
M  V30 6875 C 651.42 0.118269 3.60406 0
M  V30 6876 O 650.524 -0.916859 4.02079 0
M  V30 6877 H 649.865 0.0990981 0.656563 0
M  V30 6878 H 652.395 0.907958 1.8335 0
M  V30 6879 H 652.405 -0.0619981 4.07953 0
M  V30 6880 H 651.08 1.08849 4.01403 0
M  V30 6881 H 649.657 -0.708635 3.66105 0
M  V30 6882 N 651.842 -1.52309 0.404946 0
M  V30 6883 C 653.088 -2.02065 -0.172455 0
M  V30 6884 C 653.421 -1.29022 -1.45145 0
M  V30 6885 O 652.696 -0.395284 -1.90441 0
M  V30 6886 C 652.979 -3.5759 -0.424433 0
M  V30 6887 C 652.832 -4.41287 0.870945 0
M  V30 6888 C 654.151 -4.23186 -1.20837 0
M  V30 6889 H 651.27 -0.734454 -0.0612035 0
M  V30 6890 H 653.912 -1.82236 0.53759 0
M  V30 6891 H 652.062 -3.74617 -1.02929 0
M  V30 6892 H 653.734 -4.3598 1.50729 0
M  V30 6893 H 651.977 -4.07669 1.48284 0
M  V30 6894 H 652.648 -5.48171 0.649083 0
M  V30 6895 H 655.124 -4.10232 -0.696338 0
M  V30 6896 H 654 -5.31953 -1.35343 0
M  V30 6897 H 654.261 -3.81862 -2.22786 0
M  V30 6898 N 653.32 -0.135238 -1.57019 0
M  V30 6899 C 654.545 0.529343 -2.00531 0
M  V30 6900 C 654.97 1.58391 -1.01459 0
M  V30 6901 O 654.328 1.81296 0.0113986 0
M  V30 6902 C 654.376 1.11748 -3.42848 0
M  V30 6903 O 653.48 2.23267 -3.46736 0
M  V30 6904 H 652.821 0.130669 -0.651016 0
M  V30 6905 H 655.351 -0.228503 -2.0332 0
M  V30 6906 H 655.361 1.44905 -3.81401 0
M  V30 6907 H 654.036 0.345147 -4.14465 0
M  V30 6908 H 652.613 1.91428 -3.20015 0
M  V30 6909 N 654.798 1.5699 0.138552 0
M  V30 6910 C 656.209 1.73171 0.697754 0
M  V30 6911 C 656.56 0.750952 1.8126 0
M  V30 6912 O 655.685 -0.080549 2.1625 0
M  V30 6913 C 656.28 3.13996 1.27248 0
M  V30 6914 C 654.839 3.3175 1.77816 0
M  V30 6915 C 653.986 2.69084 0.669991 0
M  V30 6916 H 656.937 1.5846 -0.0871979 0
M  V30 6917 H 656.958 3.14463 2.14227 0
M  V30 6918 H 656.47 3.85354 0.460855 0
M  V30 6919 H 654.571 2.65403 2.61519 0
M  V30 6920 H 654.684 4.39768 1.90107 0
M  V30 6921 H 653.048 2.29782 1.09874 0
M  V30 6922 H 653.831 3.43053 -0.130329 0
M  V30 6923 N 656.276 -0.40816 1.52223 0
M  V30 6924 C 657.208 -1.51642 1.71864 0
M  V30 6925 C 658.221 -1.51378 0.599056 0
M  V30 6926 O 659.41 -1.55626 0.874239 0
M  V30 6927 C 656.51 -2.90534 1.74481 0
M  V30 6928 C 655.683 -3.14979 3.03491 0
M  V30 6929 C 654.742 -4.33749 2.97907 0
M  V30 6930 O 653.768 -4.30982 3.71811 0
M  V30 6931 N 654.97 -5.38912 2.15764 0
M  V30 6932 H 657.735 -1.35188 2.67478 0
M  V30 6933 H 655.296 -0.597468 1.50472 0
M  V30 6934 H 657.288 -3.68056 1.68275 0
M  V30 6935 H 655.858 -3.00441 0.863363 0
M  V30 6936 H 655.078 -2.25492 3.23337 0
M  V30 6937 H 656.366 -3.28156 3.88833 0
M  V30 6938 H 655.764 -5.44008 1.55152 0
M  V30 6939 H 654.321 -6.15174 2.15415 0
M  V30 6940 N 657.755 -1.42862 -0.66545 0
M  V30 6941 C 659.032 -1.3431 -1.42197 0
M  V30 6942 C 659.412 0.0150265 -2.11095 0
M  V30 6943 O 658.76 1.03101 -2.03918 0
M  V30 6944 C 658.97 -2.51783 -2.41674 0
M  V30 6945 C 660.318 -2.94321 -3.0604 0
M  V30 6946 O 661.342 -2.51741 -2.52001 0
M  V30 6947 O 660.201 -3.68047 -4.03985 0
M  V30 6948 H 657.295 -0.530159 -0.634713 0
M  V30 6949 H 659.841 -1.54888 -0.693386 0
M  V30 6950 H 658.613 -3.42282 -1.89627 0
M  V30 6951 H 658.236 -2.33241 -3.22001 0
M  V30 6952 N 659.233 0.902656 -1.29189 0
M  V30 6953 C 660.143 2.03946 -1.15944 0
M  V30 6954 C 661.159 1.738 -0.0833803 0
M  V30 6955 O 662.335 1.9923 -0.29487 0
M  V30 6956 C 659.4 3.36519 -0.834006 0
M  V30 6957 C 658.461 3.80203 -1.9936 0
M  V30 6958 C 657.694 5.06449 -1.68359 0
M  V30 6959 O 657.917 5.67202 -0.603141 0
M  V30 6960 O 656.851 5.46114 -2.53067 0
M  V30 6961 H 660.677 2.18043 -2.11403 0
M  V30 6962 H 658.262 1.02584 -1.08613 0
M  V30 6963 H 660.144 4.16089 -0.666949 0
M  V30 6964 H 658.819 3.23573 0.0908245 0
M  V30 6965 H 657.726 3.01413 -2.21588 0
M  V30 6966 H 659.059 3.97729 -2.89952 0
M  V30 6967 N 660.711 1.11618 1.11262 0
M  V30 6968 C 661.939 0.888739 1.8684 0
M  V30 6969 C 662.354 -0.561558 1.80255 0
M  V30 6970 O 661.711 -1.38782 1.18515 0
M  V30 6971 C 661.762 1.34422 3.35579 0
M  V30 6972 O 661.483 2.73766 3.42029 0
M  V30 6973 C 662.984 1.15246 4.28058 0
M  V30 6974 H 660.204 0.318152 0.590779 0
M  V30 6975 H 662.748 1.48398 1.40707 0
M  V30 6976 H 660.903 0.79239 3.7921 0
M  V30 6977 H 661.317 2.9355 4.34659 0
M  V30 6978 H 662.791 1.52015 5.30656 0
M  V30 6979 H 663.268 0.0922007 4.39103 0
M  V30 6980 H 663.874 1.69136 3.90222 0
M  V30 6981 N 662.189 -1.289 0.906776 0
M  V30 6982 C 663.152 -2.25777 0.394656 0
M  V30 6983 C 664.152 -1.53621 -0.475119 0
M  V30 6984 O 665.342 -1.71949 -0.279165 0
M  V30 6985 C 662.474 -3.38113 -0.43499 0
M  V30 6986 H 663.667 -2.72592 1.25033 0
M  V30 6987 H 661.22 -1.40463 0.685547 0
M  V30 6988 H 661.955 -2.96648 -1.31036 0
M  V30 6989 H 661.74 -3.91647 0.188334 0
M  V30 6990 H 663.23 -4.10168 -0.784365 0
M  V30 6991 N 663.667 -0.670007 -1.42649 0
M  V30 6992 C 664.577 0.0114788 -2.34597 0
M  V30 6993 C 665.593 0.794055 -1.54825 0
M  V30 6994 O 666.769 0.737472 -1.87412 0
M  V30 6995 C 663.834 0.954436 -3.33304 0
M  V30 6996 C 662.895 0.166925 -4.28975 0
M  V30 6997 C 662.128 1.06497 -5.22967 0
M  V30 6998 O 662.351 2.30446 -5.21777 0
M  V30 6999 O 661.285 0.528347 -5.99577 0
M  V30 7000 H 665.111 -0.745794 -2.944 0
M  V30 7001 H 662.696 -0.430228 -1.43071 0
M  V30 7002 H 664.578 1.49589 -3.93956 0
M  V30 7003 H 663.253 1.69164 -2.7598 0
M  V30 7004 H 662.16 -0.418515 -3.71752 0
M  V30 7005 H 663.493 -0.531067 -4.89327 0
M  V30 7006 N 665.145 1.52092 -0.413018 0
M  V30 7007 C 666.391 2.02154 0.161737 0
M  V30 7008 C 666.724 1.29789 1.44459 0
M  V30 7009 O 665.999 0.405378 1.90229 0
M  V30 7010 C 666.282 3.5781 0.405463 0
M  V30 7011 C 666.135 4.40819 -0.894335 0
M  V30 7012 C 667.454 4.23821 1.18591 0
M  V30 7013 H 664.573 0.734769 0.0573077 0
M  V30 7014 H 667.215 1.81948 -0.547247 0
M  V30 7015 H 665.365 3.75158 1.0094 0
M  V30 7016 H 667.037 4.35175 -1.53039 0
M  V30 7017 H 665.28 4.06877 -1.50444 0
M  V30 7018 H 665.951 5.47819 -0.678144 0
M  V30 7019 H 668.427 4.10596 0.674573 0
M  V30 7020 H 667.303 5.32663 1.3252 0
M  V30 7021 H 667.564 3.83038 2.20758 0
M  V30 7022 N 666.623 0.143563 1.56945 0
M  V30 7023 C 667.586 -0.783295 2.154 0
M  V30 7024 C 668.586 -1.17763 1.09492 0
M  V30 7025 O 669.776 -1.09912 1.35148 0
M  V30 7026 C 666.908 -2.06248 2.7143 0
M  V30 7027 H 668.101 -0.274863 2.98638 0
M  V30 7028 H 665.654 -0.105859 1.55941 0
M  V30 7029 H 666.389 -2.61466 1.91849 0
M  V30 7030 H 666.174 -1.78897 3.4891 0
M  V30 7031 H 667.664 -2.72453 3.16479 0
M  V30 7032 N 668.101 -1.57061 -0.130224 0
M  V30 7033 C 669.347 -1.8453 -0.841216 0
M  V30 7034 C 669.68 -0.727666 -1.80052 0
M  V30 7035 O 668.955 0.267419 -1.92653 0
M  V30 7036 C 669.238 -3.22553 -1.60099 0
M  V30 7037 C 669.091 -4.44901 -0.662048 0
M  V30 7038 C 670.41 -3.58003 -2.55973 0
M  V30 7039 H 667.529 -0.671215 -0.304366 0
M  V30 7040 H 670.171 -1.89705 -0.105821 0
M  V30 7041 H 668.321 -3.18272 -2.22789 0
M  V30 7042 H 669.993 -4.61278 -0.0448559 0
M  V30 7043 H 668.236 -4.33791 0.0272253 0
M  V30 7044 H 668.907 -5.3812 -1.23006 0
M  V30 7045 H 671.383 -3.63002 -2.03393 0
M  V30 7046 H 670.259 -4.55576 -3.06172 0
M  V30 7047 H 670.52 -2.84833 -3.38116 0
M  V30 7048 N 669.579 0.400081 -1.52437 0
M  V30 7049 C 670.99 0.97851 -1.59003 0
M  V30 7050 C 671.341 1.91293 -0.436068 0
M  V30 7051 O 670.466 2.1183 0.442365 0
M  V30 7052 C 671.061 1.78145 -2.88184 0
M  V30 7053 C 669.62 2.30976 -2.97199 0
M  V30 7054 C 668.767 1.11212 -2.54022 0
M  V30 7055 H 671.718 0.180002 -1.57676 0
M  V30 7056 H 671.739 2.63968 -2.74046 0
M  V30 7057 H 671.251 1.1011 -3.72152 0
M  V30 7058 H 669.352 3.02355 -2.17744 0
M  V30 7059 H 669.465 2.61221 -4.01622 0
M  V30 7060 H 667.829 1.46882 -2.08081 0
M  V30 7061 H 668.612 0.447307 -3.40373 0
M  V30 7062 N 671.057 1.43213 0.657864 0
M  V30 7063 C 672.02 1.47687 1.75275 0
M  V30 7064 C 673.02 0.362179 1.56668 0
M  V30 7065 O 674.21 0.623734 1.62651 0
M  V30 7066 C 671.342 1.32497 3.14098 0
M  V30 7067 H 672.535 2.4519 1.7269 0
M  V30 7068 H 670.088 1.2991 0.869087 0
M  V30 7069 H 670.823 0.359831 3.22298 0
M  V30 7070 H 670.608 2.13299 3.29008 0
M  V30 7071 H 672.098 1.38549 3.93946 0
M  V30 7072 N 672.536 -0.895792 1.29666 0
M  V30 7073 C 673.499 -1.98189 1.15124 0
M  V30 7074 C 674.499 -1.60572 0.0855717 0
M  V30 7075 O 675.689 -1.70991 0.332826 0
M  V30 7076 C 672.821 -3.32289 0.761372 0
M  V30 7077 H 674.014 -2.12518 2.11603 0
M  V30 7078 H 671.567 -1.0808 1.12908 0
M  V30 7079 H 672.302 -3.23662 -0.203393 0
M  V30 7080 H 672.087 -3.60958 1.53139 0
M  V30 7081 H 673.577 -4.1198 0.682792 0
M  V30 7082 N 674.014 -1.12206 -1.10668 0
M  V30 7083 C 675.26 -0.877172 -1.82848 0
M  V30 7084 C 675.593 0.595571 -1.84842 0
M  V30 7085 O 674.868 1.44013 -1.30731 0
M  V30 7086 C 675.151 -1.44957 -3.29635 0
M  V30 7087 C 675.004 -2.99051 -3.35989 0
M  V30 7088 C 676.323 -1.10714 -4.25946 0
M  V30 7089 H 673.442 -0.320103 -0.663854 0
M  V30 7090 H 676.084 -1.38827 -1.2972 0
M  V30 7091 H 674.234 -1.01488 -3.7501 0
M  V30 7092 H 675.906 -3.51182 -2.99113 0
M  V30 7093 H 674.149 -3.34705 -2.75962 0
M  V30 7094 H 674.82 -3.34194 -4.39339 0
M  V30 7095 H 677.296 -1.48254 -3.88793 0
M  V30 7096 H 676.172 -1.5343 -5.2702 0
M  V30 7097 H 676.433 -0.019 -4.42096 0
M  V30 7098 N 675.492 1.28418 -0.913599 0
M  V30 7099 C 676.903 1.77024 -0.593237 0
M  V30 7100 C 677.254 1.74779 0.891441 0
M  V30 7101 O 676.379 1.34237 1.69733 0
M  V30 7102 C 676.974 3.21456 -1.07011 0
M  V30 7103 C 675.533 3.67786 -0.800664 0
M  V30 7104 C 674.68 2.48185 -1.23691 0
M  V30 7105 H 677.631 1.14883 -1.09487 0
M  V30 7106 H 677.652 3.78269 -0.411481 0
M  V30 7107 H 677.164 3.23058 -2.1507 0
M  V30 7108 H 675.265 3.71644 0.266725 0
M  V30 7109 H 675.378 4.57934 -1.4083 0
M  V30 7110 H 673.742 2.46116 -0.655655 0
M  V30 7111 H 674.525 2.52506 -2.32585 0
M  V30 7112 N 676.97 0.677563 1.42291 0
M  V30 7113 C 677.933 0.0101085 2.29198 0
M  V30 7114 C 678.933 -0.726219 1.43467 0
M  V30 7115 O 680.123 -0.563807 1.64824 0
M  V30 7116 C 677.255 -0.996316 3.26016 0
M  V30 7117 H 678.448 0.775071 2.89711 0
M  V30 7118 H 676.001 0.440065 1.49977 0
M  V30 7119 H 676.736 -1.78967 2.70446 0
M  V30 7120 H 676.521 -0.471687 3.89253 0
M  V30 7121 H 678.011 -1.46167 3.91184 0
M  V30 7122 N 678.448 -1.51871 0.421078 0
M  V30 7123 C 679.411 -2.25914 -0.386712 0
M  V30 7124 C 680.411 -1.28733 -0.963555 0
M  V30 7125 O 681.601 -1.52579 -0.840556 0
M  V30 7126 C 678.733 -3.03853 -1.54551 0
M  V30 7127 H 679.926 -2.98754 0.261978 0
M  V30 7128 H 677.479 -1.5533 0.173862 0
M  V30 7129 H 678.214 -2.35392 -2.23072 0
M  V30 7130 H 677.999 -3.75215 -1.13824 0
M  V30 7131 H 679.489 -3.59984 -2.11663 0
M  V30 7132 N 679.926 -0.151884 -1.56866 0
M  V30 7133 C 680.836 0.798876 -2.20579 0
M  V30 7134 C 681.852 1.268 -1.19154 0
M  V30 7135 O 683.028 1.32418 -1.51748 0
M  V30 7136 C 680.093 2.01861 -2.81874 0
M  V30 7137 C 679.154 1.59825 -3.9844 0
M  V30 7138 C 678.387 2.75984 -4.56802 0
M  V30 7139 O 678.61 3.92331 -4.14044 0
M  V30 7140 O 677.544 2.51175 -5.46987 0
M  V30 7141 H 681.37 0.2865 -3.02346 0
M  V30 7142 H 678.955 0.0753806 -1.4921 0
M  V30 7143 H 680.837 2.73235 -3.20813 0
M  V30 7144 H 679.512 2.52042 -2.03117 0
M  V30 7145 H 678.419 0.854601 -3.64208 0
M  V30 7146 H 679.752 1.14355 -4.78731 0
M  V30 7147 N 681.404 1.57128 0.121893 0
M  V30 7148 C 682.367 1.99197 1.13372 0
M  V30 7149 C 683.367 0.881728 1.3447 0
M  V30 7150 O 684.557 1.14783 1.31036 0
M  V30 7151 C 681.689 2.32963 2.4888 0
M  V30 7152 H 682.882 2.89788 0.772204 0
M  V30 7153 H 680.435 1.51952 0.366093 0
M  V30 7154 H 681.17 1.45243 2.89957 0
M  V30 7155 H 680.955 3.13934 2.34921 0
M  V30 7156 H 682.445 2.66261 3.21706 0
M  V30 7157 N 682.882 -0.391992 1.52647 0
M  V30 7158 C 683.792 -1.503 1.80131 0
M  V30 7159 C 684.808 -1.59825 0.687882 0
M  V30 7160 O 685.984 -1.76218 0.975149 0
M  V30 7161 C 683.049 -2.85863 1.96171 0
M  V30 7162 C 682.11 -2.86084 3.20085 0
M  V30 7163 C 681.343 -4.15181 3.35351 0
M  V30 7164 O 681.566 -5.09981 2.55491 0
M  V30 7165 O 680.5 -4.22603 4.28591 0
M  V30 7166 H 684.326 -1.30007 2.74466 0
M  V30 7167 H 681.911 -0.579539 1.37701 0
M  V30 7168 H 683.793 -3.66236 2.08445 0
M  V30 7169 H 682.468 -3.06189 1.05025 0
M  V30 7170 H 681.375 -2.04504 3.13256 0
M  V30 7171 H 682.708 -2.7071 4.11068 0
M  V30 7172 N 684.36 -1.4356 -0.65026 0
M  V30 7173 C 685.323 -1.48615 -1.74489 0
M  V30 7174 C 686.323 -0.370483 -1.56474 0
M  V30 7175 O 687.513 -0.632351 -1.62317 0
M  V30 7176 C 684.645 -1.34161 -3.13391 0
M  V30 7177 H 685.838 -2.46103 -1.71387 0
M  V30 7178 H 683.391 -1.30369 -0.862186 0
M  V30 7179 H 684.126 -0.376918 -3.22102 0
M  V30 7180 H 683.911 -2.1504 -3.27872 0
M  V30 7181 H 685.401 -1.40637 -3.93206 0
M  V30 7182 N 685.838 0.888903 -1.30139 0
M  V30 7183 C 686.748 2.02705 -1.18101 0
M  V30 7184 C 687.764 1.73702 -0.101809 0
M  V30 7185 O 688.94 1.98906 -0.315984 0
M  V30 7186 C 686.005 3.35616 -0.869651 0
M  V30 7187 C 685.066 3.78067 -2.03381 0
M  V30 7188 C 684.299 5.04635 -1.73721 0
M  V30 7189 O 684.522 5.66531 -0.663267 0
M  V30 7190 O 683.456 5.43399 -2.58845 0
M  V30 7191 H 687.282 2.15788 -2.13704 0
M  V30 7192 H 684.867 1.01426 -1.09695 0
M  V30 7193 H 686.749 4.15358 -0.711043 0
M  V30 7194 H 685.424 3.23651 0.0565002 0
M  V30 7195 H 684.331 2.99046 -2.24772 0
M  V30 7196 H 685.664 3.94631 -2.94155 0
M  V30 7197 N 687.317 1.12792 1.10072 0
M  V30 7198 C 688.563 0.886857 1.82381 0
M  V30 7199 C 688.896 -0.58576 1.85155 0
M  V30 7200 O 688.171 -1.43317 1.31493 0
M  V30 7201 C 688.454 1.46703 3.28862 0
M  V30 7202 C 688.307 3.00829 3.34398 0
M  V30 7203 C 689.626 1.12971 4.25353 0
M  V30 7204 H 686.745 0.32362 0.662148 0
M  V30 7205 H 689.387 1.39513 1.28982 0
M  V30 7206 H 687.537 1.03476 3.74466 0
M  V30 7207 H 689.209 3.52764 2.97247 0
M  V30 7208 H 687.452 3.36164 2.74183 0
M  V30 7209 H 688.123 3.36519 4.3756 0
M  V30 7210 H 690.599 1.50313 3.88001 0
M  V30 7211 H 689.475 1.56223 5.26199 0
M  V30 7212 H 689.736 0.0424452 4.4208 0
M  V30 7213 N 688.795 -1.27931 0.920396 0
M  V30 7214 C 690.023 -1.98805 0.573087 0
M  V30 7215 C 690.438 -1.68724 -0.847201 0
M  V30 7216 O 689.795 -0.943699 -1.56207 0
M  V30 7217 C 689.846 -3.52971 0.780633 0
M  V30 7218 O 689.567 -3.81994 2.14504 0
M  V30 7219 C 691.068 -4.411 0.44105 0
M  V30 7220 H 688.288 -0.634651 0.21785 0
M  V30 7221 H 690.832 -1.62965 1.23542 0
M  V30 7222 H 688.987 -3.87048 0.165204 0
M  V30 7223 H 689.401 -4.76609 2.18962 0
M  V30 7224 H 690.875 -5.48312 0.637006 0
M  V30 7225 H 691.352 -4.34758 -0.62306 0
M  V30 7226 H 691.958 -4.12532 1.0343 0
M  V30 7227 N 690.273 -0.685099 -1.4193 0
M  V30 7228 C 691.203 -0.0273506 -2.33484 0
M  V30 7229 C 692.184 0.778366 -1.51246 0
M  V30 7230 O 693.369 0.733449 -1.79817 0
M  V30 7231 C 690.499 0.917272 -3.34968 0
M  V30 7232 C 689.453 0.21941 -4.27437 0
M  V30 7233 C 688.779 1.27768 -5.1921 0
M  V30 7234 C 690.079 -0.907894 -5.14349 0
M  V30 7235 H 691.773 -0.791994 -2.88735 0
M  V30 7236 H 689.319 -0.382308 -1.38832 0
M  V30 7237 H 691.272 1.38657 -3.97935 0
M  V30 7238 H 689.996 1.71346 -2.78043 0
M  V30 7239 H 688.655 -0.229757 -3.65879 0
M  V30 7240 H 688.303 2.06612 -4.58607 0
M  V30 7241 H 688.003 0.815803 -5.81909 0
M  V30 7242 H 689.527 1.7477 -5.85054 0
M  V30 7243 H 690.941 -0.519348 -5.70943 0
M  V30 7244 H 689.338 -1.2962 -5.85934 0
M  V30 7245 H 690.408 -1.75218 -4.52136 0
M  V30 7246 N 691.751 1.51645 -0.429126 0
M  V30 7247 C 693.167 1.59394 -0.080994 0
M  V30 7248 C 693.367 1.44064 1.40882 0
M  V30 7249 O 692.423 1.27771 2.17786 0
M  V30 7250 C 693.736 2.94779 -0.593773 0
M  V30 7251 C 695.284 3.08067 -0.553494 0
M  V30 7252 C 695.759 4.45963 -1.04311 0
M  V30 7253 N 697.25 4.5226 -1.00076 0
M  V30 7254 C 697.985 5.57268 -1.35056 0
M  V30 7255 N 697.481 6.69734 -1.77282 0
M  V30 7256 N 699.274 5.47582 -1.26925 0
M  V30 7257 H 691.425 1.59856 -1.39857 0
M  V30 7258 H 693.688 0.753095 -0.575805 0
M  V30 7259 H 693.394 3.11342 -1.63583 0
M  V30 7260 H 693.268 3.77197 -0.0142202 0
M  V30 7261 H 695.655 2.91177 0.479556 0
M  V30 7262 H 695.736 2.27508 -1.16935 0
M  V30 7263 H 695.38 4.63598 -2.07459 0
M  V30 7264 H 695.31 5.25049 -0.403873 0
M  V30 7265 H 697.801 3.71537 -0.690564 0
M  V30 7266 H 698.114 7.4587 -2.02232 0
M  V30 7267 H 696.459 6.70963 -1.81202 0
M  V30 7268 H 699.65 4.58604 -0.93809 0
M  V30 7269 H 699.823 6.29308 -1.54516 0
M  V30 7270 N 693.229 0.160201 1.56784 0
M  V30 7271 C 694.139 -0.787167 2.21 0
M  V30 7272 C 695.155 -1.26167 1.19825 0
M  V30 7273 O 696.331 -1.31611 1.52448 0
M  V30 7274 C 693.396 -2.00364 2.8294 0
M  V30 7275 C 692.457 -1.5771 3.99282 0
M  V30 7276 C 691.69 -2.73558 4.58259 0
M  V30 7277 O 691.913 -3.90129 4.16119 0
M  V30 7278 O 690.847 -2.48271 5.48311 0
M  V30 7279 H 694.673 -0.270462 3.02493 0
M  V30 7280 H 692.258 -0.0674666 1.49248 0
M  V30 7281 H 694.14 -2.71529 3.22257 0
M  V30 7282 H 692.815 -2.50961 2.04451 0
M  V30 7283 H 691.722 -0.835274 3.64656 0
M  V30 7284 H 693.055 -1.11815 4.79331 0
M  V30 7285 N 694.707 -1.5719 -0.113559 0
M  V30 7286 C 695.637 -2.03772 -1.14013 0
M  V30 7287 C 696.618 -0.923176 -1.42869 0
M  V30 7288 O 697.803 -1.19325 -1.53216 0
M  V30 7289 C 694.933 -2.44663 -2.4649 0
M  V30 7290 C 693.887 -3.59612 -2.32085 0
M  V30 7291 C 693.213 -3.8642 -3.69573 0
M  V30 7292 C 694.513 -4.91149 -1.7768 0
M  V30 7293 H 696.207 -2.89785 -0.752665 0
M  V30 7294 H 693.753 -1.39412 -0.360609 0
M  V30 7295 H 695.706 -2.75857 -3.18561 0
M  V30 7296 H 694.43 -1.55628 -2.87137 0
M  V30 7297 H 693.089 -3.28636 -1.62461 0
M  V30 7298 H 692.737 -2.94581 -4.07715 0
M  V30 7299 H 692.437 -4.63797 -3.60786 0
M  V30 7300 H 693.961 -4.2007 -4.4314 0
M  V30 7301 H 695.375 -5.20843 -2.39574 0
M  V30 7302 H 693.772 -5.72562 -1.79701 0
M  V30 7303 H 694.842 -4.79301 -0.734776 0
M  V30 7304 N 696.185 0.383891 -1.52853 0
M  V30 7305 C 697.117 1.48889 -1.74255 0
M  V30 7306 C 698.13 1.50405 -0.623063 0
M  V30 7307 O 699.319 1.54215 -0.898887 0
M  V30 7308 C 696.419 2.87721 -1.79081 0
M  V30 7309 C 695.592 3.10111 -3.08464 0
M  V30 7310 C 694.651 4.28954 -3.0477 0
M  V30 7311 O 693.677 4.25012 -3.78621 0
M  V30 7312 N 694.879 5.35411 -2.24311 0
M  V30 7313 H 697.644 1.30915 -2.69595 0
M  V30 7314 H 695.205 0.573454 -1.51404 0
M  V30 7315 H 697.197 3.65333 -1.7411 0
M  V30 7316 H 695.767 2.99029 -0.911052 0
M  V30 7317 H 694.987 2.20319 -3.26884 0
M  V30 7318 H 696.275 3.21928 -3.94005 0
M  V30 7319 H 695.673 5.41471 -1.63787 0
M  V30 7320 H 694.23 6.1167 -2.25175 0
M  V30 7321 N 697.663 1.43903 0.642637 0
M  V30 7322 C 698.573 1.52349 1.78401 0
M  V30 7323 C 699.589 0.409869 1.69104 0
M  V30 7324 O 700.765 0.665548 1.90085 0
M  V30 7325 C 697.83 1.45408 3.14734 0
M  V30 7326 C 696.891 2.67528 3.35749 0
M  V30 7327 C 696.124 2.60909 4.65577 0
M  V30 7328 O 696.347 1.6627 5.45628 0
M  V30 7329 O 695.281 3.5158 4.88544 0
M  V30 7330 H 699.107 2.48752 1.7423 0
M  V30 7331 H 696.692 1.26021 0.802439 0
M  V30 7332 H 698.574 1.44019 3.96026 0
M  V30 7333 H 697.249 0.521437 3.19473 0
M  V30 7334 H 696.156 2.74487 2.5418 0
M  V30 7335 H 697.489 3.598 3.35864 0
M  V30 7336 N 699.141 -0.881989 1.30609 0
M  V30 7337 C 700.104 -1.96957 1.1722 0
M  V30 7338 C 701.104 -1.60472 0.102598 0
M  V30 7339 O 702.294 -1.70628 0.350943 0
M  V30 7340 C 699.426 -3.31463 0.796572 0
M  V30 7341 H 700.619 -2.10262 2.13846 0
M  V30 7342 H 698.172 -1.06877 1.14048 0
M  V30 7343 H 698.907 -3.23859 -0.169053 0
M  V30 7344 H 698.692 -3.59314 1.56959 0
M  V30 7345 H 700.182 -4.11233 0.72645 0
M  V30 7346 N 700.619 -1.13374 -1.09472 0
M  V30 7347 C 701.549 -0.833268 -2.18126 0
M  V30 7348 C 702.53 0.207169 -1.68834 0
M  V30 7349 O 703.715 0.0662012 -1.94087 0
M  V30 7350 C 700.845 -0.297979 -3.46019 0
M  V30 7351 C 699.799 -1.27261 -4.08642 0
M  V30 7352 C 699.125 -0.597104 -5.31356 0
M  V30 7353 C 700.425 -2.63095 -4.51197 0
M  V30 7354 H 702.119 -1.74182 -2.43518 0
M  V30 7355 H 699.665 -0.838921 -1.17039 0
M  V30 7356 H 701.618 -0.0754444 -4.21332 0
M  V30 7357 H 700.342 0.645959 -3.20148 0
M  V30 7358 H 699.001 -1.48113 -3.35348 0
M  V30 7359 H 698.649 0.352293 -5.01765 0
M  V30 7360 H 698.349 -1.24734 -5.74208 0
M  V30 7361 H 699.873 -0.38384 -6.09392 0
M  V30 7362 H 701.287 -2.46214 -5.17737 0
M  V30 7363 H 699.684 -3.2429 -5.04932 0
M  V30 7364 H 700.754 -3.20793 -3.6362 0
M  V30 7365 N 702.098 1.27442 -0.927168 0
M  V30 7366 C 703.008 2.30599 -0.431448 0
M  V30 7367 C 704.024 1.67028 0.48761 0
M  V30 7368 O 705.2 1.97962 0.370546 0
M  V30 7369 C 702.265 3.45327 0.308292 0
M  V30 7370 C 701.326 4.24418 -0.645615 0
M  V30 7371 C 700.559 5.33667 0.0589164 0
M  V30 7372 O 700.782 5.5589 1.27838 0
M  V30 7373 O 699.716 5.98774 -0.612638 0
M  V30 7374 H 703.542 2.75036 -1.28797 0
M  V30 7375 H 701.127 1.32382 -0.692495 0
M  V30 7376 H 703.009 4.15107 0.725555 0
M  V30 7377 H 701.684 3.02945 1.14043 0
M  V30 7378 H 700.591 3.57174 -1.11255 0
M  V30 7379 H 701.924 4.70512 -1.44496 0
M  V30 7380 N 703.576 0.692616 1.41565 0
M  V30 7381 C 704.486 0.0258451 2.34586 0
M  V30 7382 C 705.502 -0.769324 1.56069 0
M  V30 7383 O 706.678 -0.707563 1.88562 0
M  V30 7384 C 703.743 -0.901289 3.3478 0
M  V30 7385 C 702.804 -0.0986579 4.29187 0
M  V30 7386 C 702.037 -0.981634 5.24595 0
M  V30 7387 O 702.26 -2.22115 5.25377 0
M  V30 7388 O 701.194 -0.432892 6.00341 0
M  V30 7389 H 705.02 0.792537 2.93177 0
M  V30 7390 H 702.605 0.452935 1.42369 0
M  V30 7391 H 704.487 -1.43302 3.96286 0
M  V30 7392 H 703.162 -1.64752 2.78637 0
M  V30 7393 H 702.069 0.477604 3.71039 0
M  V30 7394 H 703.402 0.608848 4.8842 0
M  V30 7395 N 705.054 -1.51416 0.437162 0
M  V30 7396 C 705.964 -2.31493 -0.380537 0
M  V30 7397 C 706.98 -1.40399 -1.02782 0
M  V30 7398 O 708.156 -1.73471 -1.02323 0
M  V30 7399 C 705.221 -3.1413 -1.46709 0
M  V30 7400 C 704.282 -4.21003 -0.839953 0
M  V30 7401 C 703.515 -4.9969 -1.87473 0
M  V30 7402 O 703.738 -4.79008 -3.09689 0
M  V30 7403 O 702.672 -5.8379 -1.46536 0
M  V30 7404 H 706.498 -3.02469 0.273183 0
M  V30 7405 H 704.083 -1.48059 0.199706 0
M  V30 7406 H 705.965 -3.65505 -2.09724 0
M  V30 7407 H 704.64 -2.45919 -2.10489 0
M  V30 7408 H 703.547 -3.73706 -0.171752 0
M  V30 7409 H 704.88 -4.91587 -0.245638 0
M  V30 7410 N 706.532 -0.168513 -1.56696 0
M  V30 7411 C 707.778 0.477865 -1.9709 0
M  V30 7412 C 708.111 1.63084 -1.05438 0
M  V30 7413 O 707.386 1.94238 -0.10095 0
M  V30 7414 C 707.669 0.963521 -3.4697 0
M  V30 7415 C 707.522 -0.189443 -4.49401 0
M  V30 7416 C 708.841 1.83813 -3.99876 0
M  V30 7417 H 705.96 0.172229 -0.716593 0
M  V30 7418 H 708.602 -0.254083 -1.88293 0
M  V30 7419 H 706.752 1.58724 -3.54597 0
M  V30 7420 H 708.424 -0.826451 -4.53836 0
M  V30 7421 H 706.667 -0.845366 -4.25483 0
M  V30 7422 H 707.338 0.192446 -5.51664 0
M  V30 7423 H 709.814 1.31235 -3.94863 0
M  V30 7424 H 708.69 2.14697 -5.0517 0
M  V30 7425 H 708.951 2.78289 -3.43523 0
M  V30 7426 N 708.01 1.57248 0.105221 0
M  V30 7427 C 708.94 2.04374 1.12931 0
M  V30 7428 C 709.921 0.93074 1.42377 0
M  V30 7429 O 711.106 1.20136 1.52581 0
M  V30 7430 C 708.236 2.45967 2.45189 0
M  V30 7431 C 707.19 3.60838 2.30174 0
M  V30 7432 C 706.516 3.88374 3.67518 0
M  V30 7433 C 707.816 4.92084 1.75073 0
M  V30 7434 H 709.51 2.9018 0.737287 0
M  V30 7435 H 707.056 1.39601 0.353211 0
M  V30 7436 H 709.009 2.77542 3.17094 0
M  V30 7437 H 707.733 1.57148 2.86308 0
M  V30 7438 H 706.392 3.29493 1.60716 0
M  V30 7439 H 706.04 2.96739 4.06147 0
M  V30 7440 H 705.74 4.65703 3.58321 0
M  V30 7441 H 707.264 4.22415 4.40906 0
M  V30 7442 H 708.678 5.22106 2.36809 0
M  V30 7443 H 707.075 5.73507 1.76662 0
M  V30 7444 H 708.145 4.79684 0.709347 0
M  V30 7445 N 709.488 -0.375779 1.53054 0
M  V30 7446 C 710.716 -1.14036 1.72637 0
M  V30 7447 C 711.131 -1.83342 0.450687 0
M  V30 7448 O 710.488 -1.7318 -0.575749 0
M  V30 7449 C 710.539 -2.17841 2.88492 0
M  V30 7450 O 710.26 -1.51358 4.11123 0
M  V30 7451 C 711.761 -3.06924 3.19863 0
M  V30 7452 H 708.981 -0.341386 0.577665 0
M  V30 7453 H 711.525 -0.437809 1.99759 0
M  V30 7454 H 709.68 -2.8371 2.63794 0
M  V30 7455 H 710.094 -2.20439 4.75928 0
M  V30 7456 H 711.568 -3.75763 4.04359 0
M  V30 7457 H 712.045 -3.71169 2.34798 0
M  V30 7458 H 712.651 -2.46684 3.46449 0
M  V30 7459 N 710.966 -1.44241 -0.634997 0
M  V30 7460 C 712.382 -1.28043 -0.952742 0
M  V30 7461 C 712.582 -0.21338 -2.00367 0
M  V30 7462 O 711.638 0.402042 -2.49279 0
M  V30 7463 C 712.951 -2.65076 -1.41968 0
M  V30 7464 C 714.499 -2.72755 -1.53537 0
M  V30 7465 C 714.974 -4.10249 -2.03616 0
M  V30 7466 N 716.465 -4.12406 -2.10892 0
M  V30 7467 C 717.2 -5.15641 -2.50803 0
M  V30 7468 N 716.696 -6.29239 -2.89879 0
M  V30 7469 N 718.489 -5.02995 -2.50903 0
M  V30 7470 H 710.64 -2.12315 0.060098 0
M  V30 7471 H 712.903 -0.947326 -0.0357325 0
M  V30 7472 H 712.609 -3.44213 -0.721804 0
M  V30 7473 H 712.483 -2.91704 -2.39141 0
M  V30 7474 H 714.87 -1.93939 -2.22422 0
M  V30 7475 H 714.951 -2.49872 -0.547496 0
M  V30 7476 H 714.595 -4.8954 -1.35327 0
M  V30 7477 H 714.525 -4.30507 -3.03268 0
M  V30 7478 H 717.016 -3.30417 -1.83393 0
M  V30 7479 H 717.329 -7.03827 -3.19135 0
M  V30 7480 H 715.674 -6.32683 -2.8764 0
M  V30 7481 H 718.865 -4.13306 -2.19763 0
M  V30 7482 H 719.038 -5.83574 -2.81683 0
M  V30 7483 N 712.444 0.87505 -1.31075 0
M  V30 7484 C 713.376 1.98773 -1.14114 0
M  V30 7485 C 714.389 1.62595 -0.0816119 0
M  V30 7486 O 715.578 1.75449 -0.32861 0
M  V30 7487 C 712.678 3.31159 -0.720224 0
M  V30 7488 C 711.851 3.9571 -1.86366 0
M  V30 7489 C 710.91 5.06407 -1.42965 0
M  V30 7490 O 709.936 5.27501 -2.13848 0
M  V30 7491 N 711.138 5.79649 -0.314194 0
M  V30 7492 H 713.903 2.1387 -2.09951 0
M  V30 7493 H 711.464 1.04873 -1.23342 0
M  V30 7494 H 713.456 4.0259 -0.412687 0
M  V30 7495 H 712.026 3.12257 0.146396 0
M  V30 7496 H 711.246 3.17324 -2.33879 0
M  V30 7497 H 712.534 4.35576 -2.62966 0
M  V30 7498 H 711.932 5.65025 0.276228 0
M  V30 7499 H 710.489 6.51766 -0.0661641 0
M  V30 7500 N 713.922 1.13953 1.08869 0
M  V30 7501 C 715.147 0.928559 1.85452 0
M  V30 7502 C 715.572 -0.517642 1.80837 0
M  V30 7503 O 714.93 -1.36779 1.19001 0
M  V30 7504 C 714.978 1.42814 3.31114 0
M  V30 7505 O 714.082 0.617129 4.07756 0
M  V30 7506 H 713.423 0.33235 0.574839 0
M  V30 7507 H 715.953 1.5156 1.37443 0
M  V30 7508 H 715.963 1.43425 3.8196 0
M  V30 7509 H 714.638 2.48109 3.33788 0
M  V30 7510 H 713.215 0.679365 3.66659 0
M  V30 7511 N 715.4 -1.26948 0.933913 0
M  V30 7512 C 716.33 -2.29017 0.45534 0
M  V30 7513 C 717.311 -1.62961 -0.487605 0
M  V30 7514 O 718.496 -1.90223 -0.391022 0
M  V30 7515 C 715.626 -3.46112 -0.287015 0
M  V30 7516 C 714.58 -4.24205 0.568682 0
M  V30 7517 C 713.906 -5.3384 -0.303206 0
M  V30 7518 C 715.206 -4.88954 1.83633 0
M  V30 7519 H 716.9 -2.69298 1.30839 0
M  V30 7520 H 714.446 -1.29459 0.630579 0
M  V30 7521 H 716.399 -4.16622 -0.6328 0
M  V30 7522 H 715.123 -3.04765 -1.17414 0
M  V30 7523 H 713.782 -3.5545 0.897261 0
M  V30 7524 H 713.43 -4.88734 -1.18947 0
M  V30 7525 H 713.13 -5.86998 0.265879 0
M  V30 7526 H 714.654 -6.0719 -0.644423 0
M  V30 7527 H 716.068 -5.51717 1.55823 0
M  V30 7528 H 714.465 -5.52198 2.34941 0
M  V30 7529 H 715.535 -4.12305 2.55211 0
M  V30 7530 N 716.879 -0.700114 -1.41195 0
M  V30 7531 C 718.104 -0.240704 -2.05998 0
M  V30 7532 C 718.529 1.10313 -1.52357 0
M  V30 7533 O 717.887 1.69154 -0.652424 0
M  V30 7534 C 717.935 -0.213783 -3.59966 0
M  V30 7535 O 717.039 0.809933 -4.04368 0
M  V30 7536 H 716.38 -0.116471 -0.653705 0
M  V30 7537 H 718.91 -0.956251 -1.80878 0
M  V30 7538 H 718.92 -0.0461852 -4.07974 0
M  V30 7539 H 717.595 -1.19454 -3.98376 0
M  V30 7540 H 716.172 0.611319 -3.67855 0
M  V30 7541 N 718.357 1.51182 -0.445186 0
M  V30 7542 C 719.773 1.59299 -0.0978954 0
M  V30 7543 C 719.973 1.4555 1.39346 0
M  V30 7544 O 719.029 1.30073 2.16419 0
M  V30 7545 C 720.342 2.94133 -0.625005 0
M  V30 7546 C 721.89 3.07463 -0.586137 0
M  V30 7547 C 722.365 4.44832 -1.09035 0
M  V30 7548 N 723.856 4.51173 -1.04867 0
M  V30 7549 C 724.591 5.55804 -1.40959 0
M  V30 7550 N 724.087 6.67816 -1.84375 0
M  V30 7551 N 725.88 5.46205 -1.32726 0
M  V30 7552 H 718.031 1.58363 -1.41544 0
M  V30 7553 H 720.294 0.746946 -0.58376 0
M  V30 7554 H 720 3.09589 -1.66876 0
M  V30 7555 H 719.874 3.77161 -0.0542262 0
M  V30 7556 H 722.261 2.9167 0.448646 0
M  V30 7557 H 722.342 2.26255 -1.19341 0
M  V30 7558 H 721.986 4.61372 -2.12364 0
M  V30 7559 H 721.916 5.24591 -0.459539 0
M  V30 7560 H 724.407 3.70783 -0.729932 0
M  V30 7561 H 724.72 7.43683 -2.10131 0
M  V30 7562 H 723.065 6.69003 -1.88308 0
M  V30 7563 H 726.256 4.57583 -0.986678 0
M  V30 7564 H 726.429 6.27634 -1.61182 0
M  V30 7565 N 719.835 0.176821 1.56605 0
M  V30 7566 C 720.745 -0.763682 2.21822 0
M  V30 7567 C 721.761 -1.24889 1.21156 0
M  V30 7568 O 722.937 -1.29987 1.53836 0
M  V30 7569 C 720.002 -1.97352 2.8505 0
M  V30 7570 C 719.063 -1.53466 4.00932 0
M  V30 7571 C 718.296 -2.68682 4.61135 0
M  V30 7572 O 718.519 -3.85694 4.20234 0
M  V30 7573 O 717.453 -2.42442 5.50913 0
M  V30 7574 H 721.279 -0.238363 3.02763 0
M  V30 7575 H 718.864 -0.0516331 1.49311 0
M  V30 7576 H 720.746 -2.68096 3.25119 0
M  V30 7577 H 719.421 -2.48779 2.07101 0
M  V30 7578 H 718.328 -0.796551 3.65521 0
M  V30 7579 H 719.661 -1.06724 4.8049 0
M  V30 7580 N 721.313 -1.57302 -0.09688 0
M  V30 7581 C 722.246 -1.97179 -1.14872 0
M  V30 7582 C 723.224 -0.844734 -1.38935 0
M  V30 7583 O 724.408 -1.10487 -1.52725 0
M  V30 7584 C 721.535 -2.28703 -2.49826 0
M  V30 7585 C 720.581 -3.51158 -2.42054 0
M  V30 7586 S 721.414 -5.0294 -1.83879 0
M  V30 7587 C 722.57 -5.37639 -3.2046 0
M  V30 7588 H 722.803 -2.86088 -0.808771 0
M  V30 7589 H 720.336 -1.51368 -0.304492 0
M  V30 7590 H 722.294 -2.47541 -3.27466 0
M  V30 7591 H 720.955 -1.40368 -2.8099 0
M  V30 7592 H 720.148 -3.70651 -3.41517 0
M  V30 7593 H 719.75 -3.31821 -1.72543 0
M  V30 7594 H 722.042 -5.34175 -4.16729 0
M  V30 7595 H 722.985 -6.38677 -3.05773 0
M  V30 7596 H 723.393 -4.651 -3.19909 0
M  V30 7597 N 722.791 0.367657 -1.53252 0
M  V30 7598 C 723.701 1.47415 -1.82499 0
M  V30 7599 C 724.717 1.58711 -0.713222 0
M  V30 7600 O 725.893 1.74644 -1.00306 0
M  V30 7601 C 722.958 2.82706 -2.00694 0
M  V30 7602 C 722.019 2.80955 -3.24596 0
M  V30 7603 C 721.252 4.09793 -3.41914 0
M  V30 7604 O 721.475 5.05852 -2.63572 0
M  V30 7605 O 720.409 4.15731 -4.3526 0
M  V30 7606 H 724.235 1.25624 -2.765 0
M  V30 7607 H 721.82 0.557559 -1.38606 0
M  V30 7608 H 723.702 3.62873 -2.14246 0
M  V30 7609 H 722.377 3.04479 -1.09883 0
M  V30 7610 H 721.284 1.99494 -3.16469 0
M  V30 7611 H 722.617 2.64136 -4.15323 0
M  V30 7612 N 724.269 1.44576 0.627338 0
M  V30 7613 C 725.232 1.51372 1.72102 0
M  V30 7614 C 726.232 0.395329 1.55865 0
M  V30 7615 O 727.422 0.658094 1.61291 0
M  V30 7616 C 724.554 1.39129 3.11217 0
M  V30 7617 H 725.747 2.48798 1.6745 0
M  V30 7618 H 723.3 1.31724 0.841336 0
M  V30 7619 H 724.035 0.428114 3.21462 0
M  V30 7620 H 723.82 2.20229 3.24409 0
M  V30 7621 H 725.31 1.46874 3.90919 0
M  V30 7622 N 725.747 -0.868086 1.31537 0
M  V30 7623 C 726.996 -1.61607 1.20689 0
M  V30 7624 C 727.309 -1.94204 -0.233275 0
M  V30 7625 O 728.515 -2.67515 -0.463465 0
M  V30 7626 C 726.971 -2.91348 2.11292 0
M  V30 7627 C 726.579 -2.66227 3.60315 0
M  V30 7628 C 728.323 -3.69344 2.09249 0
M  V30 7629 C 726.23 -3.91887 4.42921 0
M  V30 7630 H 725.16 -0.606373 0.448138 0
M  V30 7631 H 727.811 -0.959666 1.56405 0
M  V30 7632 H 726.193 -3.58374 1.68477 0
M  V30 7633 H 727.367 -2.07597 4.11388 0
M  V30 7634 H 725.682 -2.01582 3.64354 0
M  V30 7635 H 728.279 -4.62567 2.68209 0
M  V30 7636 H 728.622 -4.02044 1.0801 0
M  V30 7637 H 729.155 -3.09205 2.50274 0
M  V30 7638 H 725.894 -3.64336 5.44922 0
M  V30 7639 H 725.414 -4.49961 3.96605 0
M  V30 7640 H 727.093 -4.59754 4.55231 0
M  V30 7641 N 727.225 -1.14528 -1.08264 0
M  V30 7642 C 728.641 -0.885976 -1.3275 0
M  V30 7643 C 728.841 0.472096 -1.95892 0
M  V30 7644 O 727.897 1.21606 -2.21288 0
M  V30 7645 C 729.21 -2.01982 -2.22764 0
M  V30 7646 C 730.758 -2.05329 -2.36239 0
M  V30 7647 C 731.233 -3.1801 -3.29596 0
M  V30 7648 N 732.724 -3.17598 -3.37173 0
M  V30 7649 C 733.459 -4.01426 -4.09444 0
M  V30 7650 N 732.955 -4.95297 -4.8441 0
M  V30 7651 N 734.748 -3.89482 -4.0529 0
M  V30 7652 H 726.899 -2.01996 -0.656607 0
M  V30 7653 H 729.162 -0.880274 -0.351884 0
M  V30 7654 H 728.868 -2.99964 -1.83615 0
M  V30 7655 H 728.742 -1.94421 -3.23234 0
M  V30 7656 H 731.129 -1.07953 -2.74646 0
M  V30 7657 H 731.21 -2.1696 -1.35506 0
M  V30 7658 H 730.854 -4.15633 -2.9191 0
M  V30 7659 H 730.784 -3.03616 -4.30261 0
M  V30 7660 H 733.275 -2.4961 -2.83731 0
M  V30 7661 H 733.588 -5.55723 -5.37021 0
M  V30 7662 H 731.933 -4.99293 -4.83457 0
M  V30 7663 H 735.124 -3.15465 -3.45832 0
M  V30 7664 H 735.297 -4.55039 -4.6135 0
M  V30 7665 N 728.703 1.26451 -0.940633 0
M  V30 7666 C 729.931 1.97868 -0.604642 0
M  V30 7667 C 730.346 1.70051 0.820251 0
M  V30 7668 O 729.703 0.96843 1.54686 0
M  V30 7669 C 729.754 3.51684 -0.836689 0
M  V30 7670 O 729.475 3.78533 -2.20554 0
M  V30 7671 C 730.976 4.40343 -0.511169 0
M  V30 7672 H 728.196 0.631105 -0.227919 0
M  V30 7673 H 730.74 1.60979 -1.26119 0
M  V30 7674 H 728.895 3.86736 -0.226759 0
M  V30 7675 H 729.309 4.73065 -2.26517 0
M  V30 7676 H 730.783 5.47229 -0.724157 0
M  V30 7677 H 731.26 4.35694 0.553815 0
M  V30 7678 H 731.866 4.10834 -1.0998 0
M  V30 7679 N 730.181 0.707592 1.40822 0
M  V30 7680 C 731.458 0.171172 1.9485 0
M  V30 7681 C 731.838 -1.32143 1.64625 0
M  V30 7682 O 731.186 -2.07372 0.959647 0
M  V30 7683 C 731.396 0.475334 3.45748 0
M  V30 7684 C 732.744 0.409625 4.22619 0
M  V30 7685 O 733.768 0.410934 3.53822 0
M  V30 7686 O 732.627 0.380185 5.45176 0
M  V30 7687 H 729.721 0.022015 0.826707 0
M  V30 7688 H 732.267 0.784577 1.50474 0
M  V30 7689 H 731.039 1.50801 3.61075 0
M  V30 7690 H 730.662 -0.168439 3.97243 0
M  V30 7691 N 731.66 -1.50943 0.453197 0
M  V30 7692 C 732.608 -2.29728 -0.364419 0
M  V30 7693 C 733.602 -1.36246 -1.00664 0
M  V30 7694 O 734.808 -1.53518 -0.939794 0
M  V30 7695 H 731.183 -0.739536 -0.136347 0
M  V30 7696 H 733.154 -2.96672 0.320696 0
M  V30 7697 C 731.903 -3.1629 -1.44415 0
M  V30 7698 H 731.226 -3.88119 -0.959343 0
M  V30 7699 H 732.666 -3.74444 -1.98917 0
M  V30 7700 C 731.125 -2.32702 -2.43622 0
M  V30 7701 O 731.655 -1.99763 -3.48508 0
M  V30 7702 N 729.861 -1.95621 -2.14897 0
M  V30 7703 H 729.408 -2.22607 -1.29629 0
M  V30 7704 H 729.366 -1.39993 -2.81513 0
M  V30 7705 N 733.138 -0.185124 -1.56509 0
M  V30 7706 C 734.07 0.771401 -2.15829 0
M  V30 7707 C 735.083 1.18392 -1.11747 0
M  V30 7708 O 736.272 1.12137 -1.38879 0
M  V30 7709 C 733.372 2.05169 -2.69739 0
M  V30 7710 C 732.545 1.80056 -3.98621 0
M  V30 7711 C 731.604 2.92435 -4.37456 0
M  V30 7712 O 730.63 2.62473 -5.05071 0
M  V30 7713 N 731.832 4.20554 -4.00143 0
M  V30 7714 H 734.597 0.264184 -2.98533 0
M  V30 7715 H 732.158 -0.00281069 -1.619 0
M  V30 7716 H 734.15 2.7947 -2.92709 0
M  V30 7717 H 732.72 2.47041 -1.91545 0
M  V30 7718 H 731.94 0.895862 -3.83885 0
M  V30 7719 H 733.228 1.60662 -4.82768 0
M  V30 7720 H 732.626 4.47753 -3.45736 0
M  V30 7721 H 731.183 4.91514 -4.28085 0
M  V30 7722 N 734.616 1.57351 0.0885366 0
M  V30 7723 C 735.564 2.03542 1.12576 0
M  V30 7724 C 736.558 0.937668 1.41082 0
M  V30 7725 O 737.764 1.12283 1.40686 0
M  V30 7726 H 734.139 0.648752 0.380296 0
M  V30 7727 H 736.11 2.89833 0.709906 0
M  V30 7728 C 734.859 2.4811 2.43591 0
M  V30 7729 H 734.182 3.32164 2.22502 0
M  V30 7730 H 735.622 2.842 3.14653 0
M  V30 7731 C 734.081 1.35708 3.08359 0
M  V30 7732 O 734.611 0.689852 3.95732 0
M  V30 7733 N 732.817 1.10641 2.68713 0
M  V30 7734 H 732.364 1.6508 1.97753 0
M  V30 7735 H 732.322 0.356355 3.12374 0
M  V30 7736 N 736.094 -0.359525 1.53444 0
M  V30 7737 C 737.341 -1.10152 1.6992 0
M  V30 7738 C 737.669 -1.89125 0.4541 0
M  V30 7739 O 736.924 -1.87396 -0.564023 0
M  V30 7740 C 737.223 -2.08287 2.90433 0
M  V30 7741 C 736.889 -1.45749 4.26694 0
M  V30 7742 C 735.551 -1.28421 4.63747 0
M  V30 7743 C 737.903 -1.00557 5.11408 0
M  V30 7744 C 735.231 -0.644951 5.83144 0
M  V30 7745 C 737.583 -0.380288 6.31456 0
M  V30 7746 C 736.247 -0.194557 6.67216 0
M  V30 7747 H 735.517 -0.403076 0.621781 0
M  V30 7748 H 738.164 -0.382612 1.87639 0
M  V30 7749 H 736.469 -2.86503 2.67251 0
M  V30 7750 H 738.166 -2.65662 3.00374 0
M  V30 7751 H 734.756 -1.6023 3.97523 0
M  V30 7752 H 738.94 -1.12735 4.83326 0
M  V30 7753 H 734.196 -0.48952 6.09437 0
M  V30 7754 H 738.37 -0.0219455 6.96397 0
M  V30 7755 H 735.997 0.30285 7.59597 0
M  V30 7756 N 737.572 -1.44907 -0.619662 0
M  V30 7757 C 738.535 -1.52282 -1.71297 0
M  V30 7758 C 739.535 -0.40359 -1.55653 0
M  V30 7759 O 740.725 -0.666638 -1.6094 0
M  V30 7760 C 737.857 -1.40778 -3.10474 0
M  V30 7761 H 739.05 -2.49683 -1.66128 0
M  V30 7762 H 736.603 -1.32168 -0.834339 0
M  V30 7763 H 737.338 -0.445156 -3.2123 0
M  V30 7764 H 737.123 -2.21947 -3.23237 0
M  V30 7765 H 738.613 -1.48946 -3.90135 0
M  V30 7766 N 739.05 0.861098 -1.31996 0
M  V30 7767 C 740.275 1.65264 -1.2531 0
M  V30 7768 C 740.7 1.87265 0.177007 0
M  V30 7769 O 740.058 1.4208 1.12619 0
M  V30 7770 C 740.106 2.99284 -2.0115 0
M  V30 7771 O 739.21 3.89508 -1.3549 0
M  V30 7772 H 738.551 0.50409 -0.432192 0
M  V30 7773 H 741.081 1.07297 -1.74208 0
M  V30 7774 H 741.091 3.49154 -2.11081 0
M  V30 7775 H 739.766 2.82591 -3.05148 0
M  V30 7776 H 738.343 3.47966 -1.34066 0
M  V30 7777 N 740.528 1.15101 1.07655 0
M  V30 7778 C 741.46 0.802722 2.14684 0
M  V30 7779 C 742.473 -0.183874 1.61758 0
M  V30 7780 O 743.662 0.0389349 1.78458 0
M  V30 7781 C 740.762 0.172135 3.38463 0
M  V30 7782 C 739.935 1.19538 4.20749 0
M  V30 7783 C 738.994 0.58714 5.22914 0
M  V30 7784 O 738.02 1.25224 5.55255 0
M  V30 7785 N 739.222 -0.632566 5.77043 0
M  V30 7786 H 741.987 1.72379 2.45164 0
M  V30 7787 H 739.548 1.04647 1.23534 0
M  V30 7788 H 741.54 -0.247465 4.03943 0
M  V30 7789 H 740.11 -0.652214 3.0572 0
M  V30 7790 H 739.33 1.79165 3.51132 0
M  V30 7791 H 740.618 1.88636 4.7254 0
M  V30 7792 H 740.016 -1.19135 5.53013 0
M  V30 7793 H 738.573 -0.994566 6.44167 0
M  V30 7794 N 742.006 -1.2595 0.947325 0
M  V30 7795 C 742.936 -2.28521 0.479604 0
M  V30 7796 C 743.917 -1.63469 -0.470293 0
M  V30 7797 O 745.102 -1.90627 -0.370824 0
M  V30 7798 C 742.232 -3.46397 -0.250289 0
M  V30 7799 C 741.186 -4.23578 0.613643 0
M  V30 7800 C 740.512 -5.34131 -0.246568 0
M  V30 7801 C 741.812 -4.86979 1.88809 0
M  V30 7802 H 743.506 -2.67895 1.33688 0
M  V30 7803 H 741.052 -1.28783 0.644274 0
M  V30 7804 H 743.005 -4.17269 -0.588576 0
M  V30 7805 H 741.729 -3.05993 -1.14175 0
M  V30 7806 H 740.388 -3.54478 0.93491 0
M  V30 7807 H 740.036 -4.89968 -1.13756 0
M  V30 7808 H 739.736 -5.86683 0.328123 0
M  V30 7809 H 741.26 -6.07839 -0.579986 0
M  V30 7810 H 742.674 -5.50034 1.61666 0
M  V30 7811 H 741.071 -5.49675 2.40784 0
M  V30 7812 H 742.141 -4.09575 2.5957 0
M  V30 7813 N 743.484 -0.715051 -1.40445 0
M  V30 7814 C 744.9 -0.388555 -1.54798 0
M  V30 7815 C 745.1 1.10271 -1.68649 0
M  V30 7816 O 744.156 1.88875 -1.67578 0
M  V30 7817 C 745.469 -1.15414 -2.77669 0
M  V30 7818 C 747.017 -1.14039 -2.91486 0
M  V30 7819 C 747.492 -1.88812 -4.1727 0
M  V30 7820 N 748.983 -1.85878 -4.24268 0
M  V30 7821 C 749.718 -2.40558 -5.20499 0
M  V30 7822 N 749.214 -3.03791 -6.22642 0
M  V30 7823 N 751.007 -2.30703 -5.12574 0
M  V30 7824 H 743.158 -1.68201 -1.297 0
M  V30 7825 H 745.421 -0.710915 -0.627139 0
M  V30 7826 H 745.127 -2.20853 -2.7371 0
M  V30 7827 H 745.001 -0.745412 -3.69761 0
M  V30 7828 H 747.388 -0.0941996 -2.9495 0
M  V30 7829 H 747.469 -1.58834 -2.00513 0
M  V30 7830 H 747.113 -2.93422 -4.14568 0
M  V30 7831 H 747.043 -1.41438 -5.0725 0
M  V30 7832 H 749.534 -1.39794 -3.51093 0
M  V30 7833 H 749.847 -3.43032 -6.92495 0
M  V30 7834 H 748.192 -3.07875 -6.23087 0
M  V30 7835 H 751.383 -1.80961 -4.31707 0
M  V30 7836 H 751.556 -2.73618 -5.87398 0
M  V30 7837 N 744.962 1.50701 -0.461195 0
M  V30 7838 C 745.872 2.32069 0.343661 0
M  V30 7839 C 746.888 1.42016 1.00535 0
M  V30 7840 O 748.064 1.75077 0.995498 0
M  V30 7841 C 745.129 3.16424 1.41692 0
M  V30 7842 C 744.19 4.22286 0.772869 0
M  V30 7843 C 743.423 5.02609 1.79499 0
M  V30 7844 O 743.646 4.83874 3.0203 0
M  V30 7845 O 742.58 5.86047 1.3723 0
M  V30 7846 H 746.406 3.01996 -0.321268 0
M  V30 7847 H 743.991 1.47723 -0.223235 0
M  V30 7848 H 745.873 3.68795 2.03883 0
M  V30 7849 H 744.548 2.49236 2.0655 0
M  V30 7850 H 743.455 3.73931 0.112277 0
M  V30 7851 H 744.788 4.91915 0.167399 0
M  V30 7852 N 746.441 0.193421 1.56409 0
M  V30 7853 C 747.404 -0.714371 2.17783 0
M  V30 7854 C 748.404 -1.1422 1.13183 0
M  V30 7855 O 749.594 -1.05557 1.38576 0
M  V30 7856 C 746.726 -1.97509 2.77855 0
M  V30 7857 H 747.919 -0.179714 2.99361 0
M  V30 7858 H 745.472 -0.0561944 1.56199 0
M  V30 7859 H 746.207 -2.5523 2.0007 0
M  V30 7860 H 745.992 -1.67706 3.54425 0
M  V30 7861 H 747.482 -2.62246 3.24987 0
M  V30 7862 N 747.919 -1.57396 -0.0801906 0
M  V30 7863 C 748.829 -2.06451 -1.11423 0
M  V30 7864 C 749.845 -0.992352 -1.42928 0
M  V30 7865 O 751.021 -1.30651 -1.53272 0
M  V30 7866 C 748.086 -2.49164 -2.41077 0
M  V30 7867 C 747.147 -3.70641 -2.16619 0
M  V30 7868 C 746.38 -4.11307 -3.40092 0
M  V30 7869 O 746.603 -3.51922 -4.48895 0
M  V30 7870 O 745.537 -5.04157 -3.288 0
M  V30 7871 H 749.363 -2.94857 -0.727519 0
M  V30 7872 H 746.948 -1.46484 -0.293743 0
M  V30 7873 H 748.83 -2.77196 -3.17396 0
M  V30 7874 H 747.505 -1.6389 -2.79145 0
M  V30 7875 H 746.412 -3.47703 -1.38033 0
M  V30 7876 H 747.745 -4.5674 -1.83437 0
M  V30 7877 N 749.397 0.351382 -1.53633 0
M  V30 7878 C 750.36 1.41403 -1.80383 0
M  V30 7879 C 751.36 1.45963 -0.674635 0
M  V30 7880 O 752.55 1.46476 -0.942895 0
M  V30 7881 C 749.682 2.80401 -1.93876 0
M  V30 7882 H 750.875 1.18951 -2.75301 0
M  V30 7883 H 748.428 0.58533 -1.44926 0
M  V30 7884 H 749.163 3.08147 -1.01074 0
M  V30 7885 H 748.948 2.78488 -2.7602 0
M  V30 7886 H 750.438 3.57329 -2.16116 0
M  V30 7887 N 750.875 1.45233 0.611969 0
M  V30 7888 C 752.291 1.29542 0.932251 0
M  V30 7889 C 752.491 0.24523 2.00002 0
M  V30 7890 O 751.547 -0.362333 2.49887 0
M  V30 7891 C 752.86 2.67301 1.37733 0
M  V30 7892 C 754.408 2.75163 1.49178 0
M  V30 7893 C 754.883 4.13437 1.97064 0
M  V30 7894 N 756.374 4.15709 2.04304 0
M  V30 7895 C 757.109 5.19566 2.42568 0
M  V30 7896 N 756.605 6.33771 2.79832 0
M  V30 7897 N 758.398 5.06923 2.42869 0
M  V30 7898 H 750.549 2.12192 -0.0938679 0
M  V30 7899 H 752.812 0.947775 0.0206569 0
M  V30 7900 H 752.518 3.45318 0.666951 0
M  V30 7901 H 752.392 2.95472 2.3447 0
M  V30 7902 H 754.779 1.97453 2.19309 0
M  V30 7903 H 754.86 2.50712 0.507674 0
M  V30 7904 H 754.504 4.91631 1.27521 0
M  V30 7905 H 754.434 4.35277 2.9638 0
M  V30 7906 H 756.925 3.33293 1.78113 0
M  V30 7907 H 757.238 7.08815 3.07898 0
M  V30 7908 H 755.583 6.37179 2.77538 0
M  V30 7909 H 758.774 4.1675 2.1316 0
M  V30 7910 H 758.947 5.87981 2.72364 0
M  V30 7911 N 752.353 -0.854086 1.3245 0
M  V30 7912 C 753.301 -1.98411 1.21391 0
M  V30 7913 C 754.295 -1.68984 0.118586 0
M  V30 7914 O 755.501 -1.77784 0.281549 0
M  V30 7915 H 751.876 -0.651077 0.376301 0
M  V30 7916 H 753.847 -2.04867 2.16961 0
M  V30 7917 C 752.596 -3.34345 0.954407 0
M  V30 7918 H 751.919 -3.57518 1.78944 0
M  V30 7919 H 753.359 -4.13959 0.917269 0
M  V30 7920 C 751.818 -3.35151 -0.342838 0
M  V30 7921 O 752.348 -3.78174 -1.35452 0
M  V30 7922 N 750.554 -2.88298 -0.365012 0
M  V30 7923 H 750.101 -2.53481 0.4588 0
M  V30 7924 H 750.059 -2.8922 -1.23284 0
M  V30 7925 N 753.831 -1.1567 -1.07043 0
M  V30 7926 C 755.247 -0.900006 -1.31803 0
M  V30 7927 C 755.447 0.451293 -1.96381 0
M  V30 7928 O 754.503 1.19252 -2.22565 0
M  V30 7929 C 755.816 -2.04334 -2.20609 0
M  V30 7930 C 757.364 -2.07823 -2.34048 0
M  V30 7931 C 757.839 -3.21488 -3.26204 0
M  V30 7932 N 759.33 -3.21156 -3.33786 0
M  V30 7933 C 760.065 -4.05746 -4.05163 0
M  V30 7934 N 759.561 -5.00407 -4.79129 0
M  V30 7935 N 761.354 -3.93759 -4.01136 0
M  V30 7936 H 753.505 -2.02681 -0.635146 0
M  V30 7937 H 755.768 -0.883956 -0.342528 0
M  V30 7938 H 755.474 -3.01895 -1.80423 0
M  V30 7939 H 755.348 -1.97838 -3.21154 0
M  V30 7940 H 757.735 -1.1086 -2.73485 0
M  V30 7941 H 757.816 -2.18386 -1.33197 0
M  V30 7942 H 757.46 -4.18706 -2.87485 0
M  V30 7943 H 757.39 -3.08162 -4.27017 0
M  V30 7944 H 759.881 -2.52606 -2.81067 0
M  V30 7945 H 760.194 -5.61387 -5.31097 0
M  V30 7946 H 758.539 -5.04393 -4.78135 0
M  V30 7947 H 761.73 -3.19115 -3.42466 0
M  V30 7948 H 761.903 -4.59906 -4.56498 0
M  V30 7949 N 755.309 1.25446 -0.953992 0
M  V30 7950 C 756.586 1.884 -0.525823 0
M  V30 7951 C 756.966 1.86079 0.996891 0
M  V30 7952 O 756.314 1.32389 1.8624 0
M  V30 7953 C 756.524 3.31154 -1.10172 0
M  V30 7954 C 757.872 4.07926 -1.17819 0
M  V30 7955 O 758.896 3.40273 -1.05323 0
M  V30 7956 O 757.755 5.28942 -1.37415 0
M  V30 7957 H 754.849 0.808629 -0.173345 0
M  V30 7958 H 757.395 1.33522 -1.04738 0
M  V30 7959 H 756.167 3.27271 -2.14499 0
M  V30 7960 H 755.79 3.93588 -0.56338 0
M  V30 7961 N 756.787 0.722489 1.40064 0
M  V30 7962 C 757.717 0.0892452 2.33329 0
M  V30 7963 C 758.698 -0.737992 1.53257 0
M  V30 7964 O 759.883 -0.685516 1.81698 0
M  V30 7965 C 757.013 -0.828139 3.37282 0
M  V30 7966 C 755.967 -0.106005 4.27869 0
M  V30 7967 C 755.293 -1.13957 5.22415 0
M  V30 7968 C 756.593 1.04395 5.11761 0
M  V30 7969 H 758.287 0.868269 2.86534 0
M  V30 7970 H 755.833 0.418982 1.3777 0
M  V30 7971 H 757.786 -1.28058 4.01471 0
M  V30 7972 H 756.51 -1.63914 2.82489 0
M  V30 7973 H 755.169 0.326683 3.65142 0
M  V30 7974 H 754.817 -1.9438 4.63924 0
M  V30 7975 H 754.517 -0.661233 5.83868 0
M  V30 7976 H 756.041 -1.59197 5.89482 0
M  V30 7977 H 757.455 0.670541 5.69365 0
M  V30 7978 H 755.852 1.4511 5.82291 0
M  V30 7979 H 756.922 1.87144 4.47331 0
M  V30 7980 N 758.265 -1.50454 0.469181 0
M  V30 7981 C 759.175 -2.32248 -0.331349 0
M  V30 7982 C 760.191 -1.42548 -0.997807 0
M  V30 7983 O 761.367 -1.75602 -0.9862 0
M  V30 7984 C 758.432 -3.17171 -1.40012 0
M  V30 7985 C 757.493 -4.2269 -0.750463 0
M  V30 7986 C 756.726 -5.03554 -1.76831 0
M  V30 7987 O 756.949 -4.85469 -2.99459 0
M  V30 7988 O 755.883 -5.86767 -1.3412 0
M  V30 7989 H 759.709 -3.01821 0.337279 0
M  V30 7990 H 757.294 -1.47602 0.231066 0
M  V30 7991 H 759.176 -3.69871 -2.01924 0
M  V30 7992 H 757.851 -2.50328 -2.05226 0
M  V30 7993 H 756.758 -3.73986 -0.0924446 0
M  V30 7994 H 758.091 -4.91997 -0.14131 0
M  V30 7995 N 759.743 -0.201713 -1.56304 0
M  V30 7996 C 760.706 0.702811 -2.18159 0
M  V30 7997 C 761.706 1.13619 -1.13787 0
M  V30 7998 O 762.896 1.0482 -1.39134 0
M  V30 7999 C 760.028 1.96032 -2.78898 0
M  V30 8000 H 761.221 0.163836 -2.99452 0
M  V30 8001 H 758.774 0.04791 -1.56227 0
M  V30 8002 H 759.509 2.54165 -2.01421 0
M  V30 8003 H 759.294 1.65824 -3.55309 0
M  V30 8004 H 760.784 2.60519 -3.26373 0
M  V30 8005 N 761.222 1.57436 0.0718424 0
M  V30 8006 C 762.172 2.00132 1.09229 0
M  V30 8007 C 763.156 0.883379 1.34481 0
M  V30 8008 O 764.348 1.14728 1.34783 0
M  V30 8009 C 761.477 2.44876 2.40605 0
M  V30 8010 C 760.563 3.63405 2.18627 0
M  V30 8011 N 760.954 4.77583 1.66579 0
M  V30 8012 C 759.252 3.69953 2.491 0
M  V30 8013 C 759.953 5.5943 1.59415 0
M  V30 8014 N 758.929 5.03275 2.05464 0
M  V30 8015 H 762.731 2.85849 0.683185 0
M  V30 8016 H 760.245 1.59987 0.278914 0
M  V30 8017 H 762.242 2.73703 3.14471 0
M  V30 8018 H 760.902 1.60546 2.82232 0
M  V30 8019 H 761.913 4.99875 1.35443 0
M  V30 8020 H 758.59 2.96336 2.94094 0
M  V30 8021 H 759.98 6.61093 1.20026 0
M  V30 8022 N 762.7 -0.34323 1.53817 0
M  V30 8023 C 763.946 -1.08504 1.71332 0
M  V30 8024 C 764.279 -1.88294 0.475285 0
M  V30 8025 O 763.554 -1.87205 -0.527688 0
M  V30 8026 C 763.837 -2.02597 2.97702 0
M  V30 8027 C 763.69 -1.26268 4.31713 0
M  V30 8028 C 765.009 -3.0241 3.19744 0
M  V30 8029 H 762.128 -0.393072 0.623429 0
M  V30 8030 H 764.77 -0.363579 1.86489 0
M  V30 8031 H 762.92 -2.64118 2.8491 0
M  V30 8032 H 764.592 -0.673594 4.56356 0
M  V30 8033 H 762.835 -0.564696 4.30109 0
M  V30 8034 H 763.506 -1.95253 5.16314 0
M  V30 8035 H 765.982 -2.51004 3.31868 0
M  V30 8036 H 764.858 -3.65449 4.09558 0
M  V30 8037 H 765.119 -3.73806 2.36054 0
M  V30 8038 N 764.178 -1.45556 -0.604258 0
M  V30 8039 C 765.594 -1.30035 -0.925368 0
M  V30 8040 C 765.794 -0.255833 -1.99869 0
M  V30 8041 O 764.85 0.349076 -2.50075 0
M  V30 8042 C 766.163 -2.68028 -1.36314 0
M  V30 8043 C 767.711 -2.75951 -1.47717 0
M  V30 8044 C 768.186 -4.14476 -1.94868 0
M  V30 8045 N 769.677 -4.16787 -2.02097 0
M  V30 8046 C 770.412 -5.20845 -2.39809 0
M  V30 8047 N 769.908 -6.35246 -2.76467 0
M  V30 8048 N 771.701 -5.08204 -2.40177 0
M  V30 8049 H 763.852 -2.1214 0.10512 0
M  V30 8050 H 766.115 -0.947871 -0.0156303 0
M  V30 8051 H 765.821 -3.45667 -0.648628 0
M  V30 8052 H 765.695 -2.96711 -2.329 0
M  V30 8053 H 768.082 -1.98613 -2.18258 0
M  V30 8054 H 768.163 -2.50977 -0.494371 0
M  V30 8055 H 767.807 -4.923 -1.24912 0
M  V30 8056 H 767.737 -4.36843 -2.94068 0
M  V30 8057 H 770.228 -3.34233 -1.76343 0
M  V30 8058 H 770.541 -7.10438 -3.04134 0
M  V30 8059 H 768.886 -6.38642 -2.74155 0
M  V30 8060 H 772.077 -4.17874 -2.10947 0
M  V30 8061 H 772.25 -5.89417 -2.69242 0
M  V30 8062 N 765.656 0.84705 -1.32902 0
M  V30 8063 C 766.588 1.96308 -1.18304 0
M  V30 8064 C 767.601 1.62386 -0.116082 0
M  V30 8065 O 768.79 1.74713 -0.365751 0
M  V30 8066 C 765.89 3.29556 -0.790305 0
M  V30 8067 C 765.063 3.91668 -1.94717 0
M  V30 8068 C 764.122 5.0326 -1.53674 0
M  V30 8069 O 763.148 5.22847 -2.24989 0
M  V30 8070 N 764.35 5.78852 -0.437075 0
M  V30 8071 H 767.115 2.09369 -2.14441 0
M  V30 8072 H 764.676 1.02233 -1.25539 0
M  V30 8073 H 766.668 4.01624 -0.49799 0
M  V30 8074 H 765.238 3.12497 0.0801286 0
M  V30 8075 H 764.458 3.12292 -2.40557 0
M  V30 8076 H 765.746 4.299 -2.72146 0
M  V30 8077 H 765.144 5.65484 0.156316 0
M  V30 8078 H 763.701 6.51479 -0.204399 0
M  V30 8079 N 767.134 1.16236 1.06428 0
M  V30 8080 C 768.064 0.890807 2.1584 0
M  V30 8081 C 769.045 -0.162333 1.69324 0
M  V30 8082 O 770.23 -0.0147191 1.94194 0
M  V30 8083 C 767.36 0.389615 3.45108 0
M  V30 8084 C 766.314 1.38051 4.05125 0
M  V30 8085 C 765.64 0.737773 5.29586 0
M  V30 8086 C 766.94 2.74965 4.44062 0
M  V30 8087 H 768.634 1.80577 2.38814 0
M  V30 8088 H 766.18 0.869657 1.14774 0
M  V30 8089 H 768.133 0.187127 4.20984 0
M  V30 8090 H 766.857 -0.560851 3.21748 0
M  V30 8091 H 765.516 1.56952 3.31303 0
M  V30 8092 H 765.164 -0.219135 5.02522 0
M  V30 8093 H 764.864 1.39914 5.70699 0
M  V30 8094 H 766.388 0.545275 6.0816 0
M  V30 8095 H 767.802 2.59855 5.11027 0
M  V30 8096 H 766.199 3.37563 4.96156 0
M  V30 8097 H 767.269 3.30321 3.54987 0
M  V30 8098 N 768.612 -1.24939 0.960631 0
M  V30 8099 C 769.544 -2.24879 0.442937 0
M  V30 8100 C 770.557 -1.56615 -0.444464 0
M  V30 8101 O 771.746 -1.76715 -0.251776 0
M  V30 8102 C 768.846 -3.36757 -0.380537 0
M  V30 8103 C 768.019 -4.34587 0.495283 0
M  V30 8104 C 767.078 -5.25502 -0.270995 0
M  V30 8105 O 766.104 -5.68227 0.332661 0
M  V30 8106 N 767.306 -5.59077 -1.56249 0
M  V30 8107 H 770.071 -2.69932 1.30218 0
M  V30 8108 H 767.632 -1.38907 0.83166 0
M  V30 8109 H 769.624 -3.94542 -0.90103 0
M  V30 8110 H 768.194 -2.91045 -1.14067 0
M  V30 8111 H 767.414 -3.75593 1.19682 0
M  V30 8112 H 768.702 -4.96925 1.09285 0
M  V30 8113 H 768.1 -5.2628 -2.07476 0
M  V30 8114 H 766.657 -6.19421 -2.02882 0
M  V30 8115 N 770.09 -0.729906 -1.39679 0
M  V30 8116 C 771 -0.0880322 -2.34435 0
M  V30 8117 C 772.016 0.727674 -1.58053 0
M  V30 8118 O 773.192 0.657321 -1.90371 0
M  V30 8119 C 770.257 0.812211 -3.37052 0
M  V30 8120 C 769.318 -0.0151681 -4.29297 0
M  V30 8121 C 768.551 0.842202 -5.27013 0
M  V30 8122 O 768.774 2.08108 -5.31081 0
M  V30 8123 O 767.708 0.27357 -6.01278 0
M  V30 8124 H 771.534 -0.869989 -2.90972 0
M  V30 8125 H 769.119 -0.490522 -1.41118 0
M  V30 8126 H 771.001 1.32745 -3.99946 0
M  V30 8127 H 769.676 1.57307 -2.82907 0
M  V30 8128 H 768.583 -0.575811 -3.69642 0
M  V30 8129 H 769.916 -0.738129 -4.86634 0
M  V30 8130 N 771.568 1.50203 -0.477153 0
M  V30 8131 C 772.984 1.59056 -0.131663 0
M  V30 8132 C 773.184 1.48473 1.36227 0
M  V30 8133 O 772.24 1.34635 2.13611 0
M  V30 8134 C 773.553 2.92741 -0.687254 0
M  V30 8135 C 775.101 3.0615 -0.651223 0
M  V30 8136 C 775.576 4.42419 -1.18446 0
M  V30 8137 N 777.067 4.48847 -1.14413 0
M  V30 8138 C 777.802 5.52689 -1.52717 0
M  V30 8139 N 777.298 6.63754 -1.98499 0
M  V30 8140 N 779.091 5.43267 -1.44282 0
M  V30 8141 H 771.242 1.55325 -1.44872 0
M  V30 8142 H 773.505 0.734395 -0.599473 0
M  V30 8143 H 773.211 3.0598 -1.73405 0
M  V30 8144 H 773.085 3.76961 -0.134215 0
M  V30 8145 H 775.472 2.92556 0.386677 0
M  V30 8146 H 775.553 2.23673 -1.24114 0
M  V30 8147 H 775.197 4.56763 -2.22103 0
M  V30 8148 H 775.127 5.23498 -0.570709 0
M  V30 8149 H 777.618 3.69152 -0.808416 0
M  V30 8150 H 777.931 7.39059 -2.25859 0
M  V30 8151 H 776.276 6.64858 -2.02456 0
M  V30 8152 H 779.467 4.55387 -1.08352 0
M  V30 8153 H 779.64 6.24074 -1.74459 0
M  V30 8154 N 773.046 0.209999 1.56195 0
M  V30 8155 C 773.979 -0.744546 2.15712 0
M  V30 8156 C 774.957 -1.19917 1.09812 0
M  V30 8157 O 776.141 -1.284 1.38006 0
M  V30 8158 C 773.268 -2.00733 2.72807 0
M  V30 8159 C 772.314 -1.69363 3.91431 0
M  V30 8160 S 773.147 -0.828579 5.29051 0
M  V30 8161 C 774.303 -2.10118 5.89577 0
M  V30 8162 H 774.536 -0.238636 2.96341 0
M  V30 8163 H 772.069 -0.00517877 1.54399 0
M  V30 8164 H 774.027 -2.73246 3.06344 0
M  V30 8165 H 772.688 -2.48436 1.92193 0
M  V30 8166 H 771.881 -2.63157 4.29842 0
M  V30 8167 H 771.483 -1.04921 3.58981 0
M  V30 8168 H 773.775 -3.05231 6.04847 0
M  V30 8169 H 774.718 -1.76116 6.85849 0
M  V30 8170 H 775.126 -2.23644 5.18308 0
M  V30 8171 N 774.524 -1.57472 -0.0634922 0
M  V30 8172 C 775.434 -2.07621 -1.09227 0
M  V30 8173 C 776.45 -1.00746 -1.41867 0
M  V30 8174 O 777.626 -1.32269 -1.51878 0
M  V30 8175 C 774.691 -2.51707 -2.38421 0
M  V30 8176 C 773.752 -3.72917 -2.12676 0
M  V30 8177 C 772.985 -4.14891 -3.3571 0
M  V30 8178 O 773.208 -3.56663 -4.45137 0
M  V30 8179 O 772.142 -5.07616 -3.23434 0
M  V30 8180 H 775.968 -2.95612 -0.696205 0
M  V30 8181 H 773.553 -1.46787 -0.27819 0
M  V30 8182 H 775.435 -2.80547 -3.14438 0
M  V30 8183 H 774.11 -1.66842 -2.77391 0
M  V30 8184 H 773.017 -3.49148 -1.34337 0
M  V30 8185 H 774.35 -4.5866 -1.78583 0
M  V30 8186 N 776.003 0.335068 -1.53997 0
M  V30 8187 C 776.933 1.41727 -1.85568 0
M  V30 8188 C 777.914 1.54505 -0.7115 0
M  V30 8189 O 779.099 1.68573 -0.964191 0
M  V30 8190 C 776.229 2.7866 -2.07282 0
M  V30 8191 C 775.183 2.80682 -3.23112 0
M  V30 8192 C 774.509 4.20581 -3.30175 0
M  V30 8193 C 775.809 2.45458 -4.61029 0
M  V30 8194 H 777.503 1.15555 -2.76202 0
M  V30 8195 H 775.049 0.554445 -1.32898 0
M  V30 8196 H 777.002 3.54423 -2.27952 0
M  V30 8197 H 775.726 3.06286 -1.13387 0
M  V30 8198 H 774.385 2.07373 -3.02311 0
M  V30 8199 H 774.033 4.4533 -2.33859 0
M  V30 8200 H 773.733 4.22843 -4.08016 0
M  V30 8201 H 775.257 4.98174 -3.53066 0
M  V30 8202 H 776.671 3.10934 -4.81656 0
M  V30 8203 H 775.068 2.5899 -5.41336 0
M  V30 8204 H 776.138 1.40628 -4.6406 0
M  V30 8205 N 777.481 1.45874 0.596531 0
M  V30 8206 C 778.411 1.5824 1.71705 0
M  V30 8207 C 779.392 0.433366 1.64487 0
M  V30 8208 O 780.577 0.657895 1.82717 0
M  V30 8209 C 777.707 1.55927 3.10329 0
M  V30 8210 C 776.661 2.69659 3.32367 0
M  V30 8211 C 775.987 2.52403 4.71377 0
M  V30 8212 C 777.287 4.11591 3.21544 0
M  V30 8213 H 778.981 2.52035 1.61613 0
M  V30 8214 H 776.527 1.21297 0.776082 0
M  V30 8215 H 778.48 1.63173 3.88526 0
M  V30 8216 H 777.204 0.586674 3.21288 0
M  V30 8217 H 775.863 2.61859 2.56564 0
M  V30 8218 H 775.511 1.53258 4.79083 0
M  V30 8219 H 775.211 3.28679 4.87077 0
M  V30 8220 H 776.735 2.6152 5.5176 0
M  V30 8221 H 778.149 4.20576 3.89601 0
M  V30 8222 H 776.546 4.88344 3.4877 0
M  V30 8223 H 777.616 4.32719 2.1882 0
M  V30 8224 N 778.959 -0.83999 1.33349 0
M  V30 8225 C 779.891 -1.95678 1.19344 0
M  V30 8226 C 780.904 -1.62322 0.124692 0
M  V30 8227 O 782.093 -1.74516 0.375012 0
M  V30 8228 C 779.193 -3.29133 0.807771 0
M  V30 8229 C 778.366 -3.9063 1.96792 0
M  V30 8230 C 777.425 -5.02438 1.56341 0
M  V30 8231 O 776.451 -5.21646 2.27759 0
M  V30 8232 N 777.653 -5.78612 0.467767 0
M  V30 8233 H 780.418 -2.08229 2.15548 0
M  V30 8234 H 777.979 -1.01566 1.26079 0
M  V30 8235 H 779.971 -4.01355 0.519282 0
M  V30 8236 H 778.541 -3.12535 -0.063555 0
M  V30 8237 H 777.761 -3.11011 2.4221 0
M  V30 8238 H 779.049 -4.2845 2.74422 0
M  V30 8239 H 778.447 -5.65559 -0.126324 0
M  V30 8240 H 777.004 -6.51362 0.238945 0
M  V30 8241 N 780.437 -1.16799 -1.0581 0
M  V30 8242 C 781.4 -0.881396 -2.11575 0
M  V30 8243 C 782.4 0.12574 -1.60308 0
M  V30 8244 O 783.59 -0.105716 -1.73879 0
M  V30 8245 C 780.722 -0.319037 -3.39404 0
M  V30 8246 H 781.915 -1.81907 -2.38432 0
M  V30 8247 H 779.468 -0.977597 -1.21954 0
M  V30 8248 H 780.203 0.626082 -3.18199 0
M  V30 8249 H 779.988 -1.04481 -3.77923 0
M  V30 8250 H 781.478 -0.13663 -4.17376 0
M  V30 8251 N 781.915 1.24427 -0.967243 0
M  V30 8252 C 782.825 2.29109 -0.504592 0
M  V30 8253 C 783.841 1.68495 0.434224 0
M  V30 8254 O 785.017 1.99041 0.307379 0
M  V30 8255 C 782.082 3.46133 0.198273 0
M  V30 8256 C 781.143 4.22149 -0.780313 0
M  V30 8257 C 780.376 5.33585 -0.110896 0
M  V30 8258 O 780.599 5.59676 1.10088 0
M  V30 8259 O 779.533 5.96522 -0.802823 0
M  V30 8260 H 783.359 2.708 -1.37482 0
M  V30 8261 H 780.944 1.30111 -0.73426 0
M  V30 8262 H 782.826 4.17205 0.593124 0
M  V30 8263 H 781.501 3.0642 1.04347 0
M  V30 8264 H 780.408 3.53454 -1.22561 0
M  V30 8265 H 781.741 4.65677 -1.59392 0
M  V30 8266 N 783.393 0.737304 1.3929 0
M  V30 8267 C 784.641 0.285691 2.00071 0
M  V30 8268 C 784.962 -1.13169 1.58801 0
M  V30 8269 O 784.232 -1.77104 0.837308 0
M  V30 8270 H 782.812 0.102638 0.739915 0
M  V30 8271 H 785.474 0.947775 1.70303 0
M  V30 8272 H 784.57 0.335906 3.10287 0
M  V30 8273 N 784.871 -1.49948 0.485112 0
M  V30 8274 C 785.834 -2.27351 -0.290546 0
M  V30 8275 C 786.834 -1.32704 -0.908087 0
M  V30 8276 O 788.024 -1.56007 -0.775085 0
M  V30 8277 C 785.156 -3.10135 -1.41524 0
M  V30 8278 H 786.349 -2.97374 0.388454 0
M  V30 8279 H 783.902 -1.54453 0.239586 0
M  V30 8280 H 784.637 -2.44641 -2.12888 0
M  V30 8281 H 784.422 -3.79705 -0.978074 0
M  V30 8282 H 785.912 -3.68638 -1.96204 0
M  V30 8283 N 786.349 -0.21828 -1.56081 0
M  V30 8284 C 787.577 0.419258 -2.02608 0
M  V30 8285 C 787.992 1.53578 -1.09814 0
M  V30 8286 O 787.349 1.82185 -0.107149 0
M  V30 8287 C 787.4 0.953955 -3.48686 0
M  V30 8288 O 787.121 -0.11805 -4.37941 0
M  V30 8289 C 788.622 1.66506 -4.10841 0
M  V30 8290 H 785.842 0.10296 -0.663054 0
M  V30 8291 H 788.386 -0.333776 -2.01758 0
M  V30 8292 H 786.541 1.65727 -3.50162 0
M  V30 8293 H 786.955 0.283359 -5.23734 0
M  V30 8294 H 788.429 1.99123 -5.14834 0
M  V30 8295 H 788.906 2.57705 -3.55647 0
M  V30 8296 H 789.512 1.00703 -4.13206 0
M  V30 8297 N 787.827 1.57504 0.0551401 0
M  V30 8298 C 788.79 2.03826 1.04821 0
M  V30 8299 C 789.79 0.937968 1.30609 0
M  V30 8300 O 790.98 1.20237 1.2605 0
M  V30 8301 C 788.112 2.43309 2.38775 0
M  V30 8302 H 789.305 2.92802 0.6486 0
M  V30 8303 H 786.858 1.53368 0.301315 0
M  V30 8304 H 787.593 1.5741 2.83536 0
M  V30 8305 H 787.378 3.23615 2.21395 0
M  V30 8306 H 788.868 2.79666 3.10124 0
M  V30 8307 N 789.305 -0.326896 1.54172 0
M  V30 8308 C 790.551 -1.06681 1.72473 0
M  V30 8309 C 790.884 -1.87779 0.49523 0
M  V30 8310 O 790.159 -1.87754 -0.507803 0
M  V30 8311 C 790.442 -1.99429 2.99834 0
M  V30 8312 C 790.295 -1.21682 4.33028 0
M  V30 8313 C 791.614 -2.99002 3.22933 0
M  V30 8314 H 788.733 -0.386438 0.627563 0
M  V30 8315 H 791.375 -0.343779 1.86864 0
M  V30 8316 H 789.525 -2.61081 2.87696 0
M  V30 8317 H 791.197 -0.625153 4.57044 0
M  V30 8318 H 789.44 -0.519045 4.30684 0
M  V30 8319 H 790.111 -1.89766 5.18356 0
M  V30 8320 H 792.587 -2.4747 3.34511 0
M  V30 8321 H 791.463 -3.61085 4.13412 0
M  V30 8322 H 791.724 -3.71281 2.40006 0
M  V30 8323 N 790.784 -1.46188 -0.588786 0
M  V30 8324 C 792.012 -1.54743 -1.37339 0
M  V30 8325 C 792.427 -0.186446 -1.87877 0
M  V30 8326 O 791.784 0.815247 -1.63279 0
M  V30 8327 C 791.835 -2.54727 -2.56508 0
M  V30 8328 O 791.556 -3.85539 -2.08066 0
M  V30 8329 C 793.057 -2.73163 -3.49137 0
M  V30 8330 H 790.277 -0.523484 -0.419768 0
M  V30 8331 H 792.821 -1.91543 -0.716345 0
M  V30 8332 H 790.976 -2.20948 -3.18215 0
M  V30 8333 H 791.39 -4.39905 -2.85629 0
M  V30 8334 H 792.864 -3.47057 -4.2925 0
M  V30 8335 H 793.341 -1.79856 -4.00685 0
M  V30 8336 H 793.947 -3.08014 -2.9327 0
M  V30 8337 N 792.262 0.832906 -1.33792 0
M  V30 8338 C 793.51 1.58539 -1.25338 0
M  V30 8339 C 793.831 1.94175 0.179204 0
M  V30 8340 O 793.101 1.61458 1.10941 0
M  V30 8341 H 791.681 0.58784 -0.460926 0
M  V30 8342 H 794.343 0.995064 -1.67584 0
M  V30 8343 H 793.439 2.51268 -1.85123 0
M  V30 8344 N 793.74 1.17359 1.05189 0
M  V30 8345 C 794.986 0.963413 1.78455 0
M  V30 8346 C 795.319 -0.506703 1.87473 0
M  V30 8347 O 794.594 -1.37611 1.37453 0
M  V30 8348 C 794.877 1.60519 3.22344 0
M  V30 8349 C 794.73 3.14741 3.21338 0
M  V30 8350 C 796.049 1.3091 4.20179 0
M  V30 8351 H 793.168 0.351412 0.647826 0
M  V30 8352 H 795.81 1.44858 1.22948 0
M  V30 8353 H 793.96 1.19265 3.69741 0
M  V30 8354 H 795.632 3.65053 2.82017 0
M  V30 8355 H 793.875 3.4749 2.59679 0
M  V30 8356 H 794.546 3.54775 4.22894 0
M  V30 8357 H 797.022 1.66635 3.81277 0
M  V30 8358 H 795.898 1.784 5.191 0
M  V30 8359 H 796.159 0.229908 4.41502 0
M  V30 8360 N 795.218 -1.23913 0.973828 0
M  V30 8361 C 796.629 -1.73992 0.677021 0
M  V30 8362 C 796.98 -1.78833 -0.807036 0
M  V30 8363 O 796.105 -1.42183 -1.63135 0
M  V30 8364 C 796.7 -3.15985 1.22226 0
M  V30 8365 C 795.259 -3.63547 0.975228 0
M  V30 8366 C 794.406 -2.42001 1.35392 0
M  V30 8367 H 797.357 -1.09529 1.14844 0
M  V30 8368 H 797.378 -3.75875 0.591489 0
M  V30 8369 H 796.89 -3.12429 2.30238 0
M  V30 8370 H 794.991 -3.72493 -0.0891047 0
M  V30 8371 H 795.104 -4.50693 1.62518 0
M  V30 8372 H 793.468 -2.42708 0.772334 0
M  V30 8373 H 794.251 -2.41122 2.44367 0
M  V30 8374 N 796.696 -0.74468 -1.38897 0
M  V30 8375 C 797.921 -0.306119 -2.05128 0
M  V30 8376 C 798.346 1.0541 -1.55789 0
M  V30 8377 O 797.704 1.66993 -0.705909 0
M  V30 8378 C 797.752 -0.328195 -3.59103 0
M  V30 8379 O 796.856 0.680876 -4.06741 0
M  V30 8380 H 796.197 -0.137209 -0.649669 0
M  V30 8381 H 798.727 -1.01331 -1.77745 0
M  V30 8382 H 798.737 -0.175956 -4.0762 0
M  V30 8383 H 797.412 -1.32067 -3.94374 0
M  V30 8384 H 795.989 0.49398 -3.69614 0
M  V30 8385 N 798.174 1.49689 -0.493057 0
M  V30 8386 C 799.585 1.8665 -0.0433032 0
M  V30 8387 C 799.936 1.40607 1.36836 0
M  V30 8388 O 799.061 0.780503 2.01834 0
M  V30 8389 C 799.656 3.38724 -0.0718069 0
M  V30 8390 C 798.215 3.75015 0.32257 0
M  V30 8391 C 797.362 2.7366 -0.4478 0
M  V30 8392 H 800.313 1.42119 -0.706246 0
M  V30 8393 H 800.334 3.73522 0.725347 0
M  V30 8394 H 799.846 3.72204 -1.09935 0
M  V30 8395 H 797.947 3.47142 1.35364 0
M  V30 8396 H 798.06 4.79099 0.00864259 0
M  V30 8397 H 796.424 2.54498 0.101354 0
M  V30 8398 H 797.207 3.09985 -1.47527 0
M  V30 8399 N 799.652 0.226554 1.55963 0
M  V30 8400 C 801.068 -0.128733 1.5908 0
M  V30 8401 C 801.268 -1.58558 1.24345 0
M  V30 8402 O 800.324 -2.32661 0.981069 0
M  V30 8403 C 801.637 0.202076 3.0002 0
M  V30 8404 C 803.185 0.144718 3.12665 0
M  V30 8405 C 803.66 0.449272 4.55791 0
M  V30 8406 N 805.151 0.399026 4.61478 0
M  V30 8407 C 805.886 0.608106 5.70166 0
M  V30 8408 N 805.382 0.879227 6.87198 0
M  V30 8409 N 807.175 0.5402 5.59498 0
M  V30 8410 H 799.326 1.17686 1.76816 0
M  V30 8411 H 801.589 0.472072 0.822102 0
M  V30 8412 H 801.295 1.21341 3.30105 0
M  V30 8413 H 801.169 -0.480554 3.74126 0
M  V30 8414 H 803.556 -0.857261 2.82374 0
M  V30 8415 H 803.637 0.860899 2.40878 0
M  V30 8416 H 803.281 1.44871 4.86801 0
M  V30 8417 H 803.211 -0.288157 5.25811 0
M  V30 8418 H 805.702 0.197372 3.77384 0
M  V30 8419 H 806.015 1.02673 7.65949 0
M  V30 8420 H 804.36 0.916477 6.88931 0
M  V30 8421 H 807.551 0.328581 4.66945 0
M  V30 8422 H 807.724 0.706548 6.44137 0
M  V30 8423 N 801.13 -1.57531 -0.0467866 0
M  V30 8424 C 802.093 -2.04379 -1.03738 0
M  V30 8425 C 803.093 -0.944881 -1.3011 0
M  V30 8426 O 804.283 -1.20904 -1.25411 0
M  V30 8427 C 801.415 -2.44572 -2.37482 0
M  V30 8428 H 802.608 -2.93142 -0.633063 0
M  V30 8429 H 800.161 -1.53526 -0.293177 0
M  V30 8430 H 800.896 -1.58911 -2.82697 0
M  V30 8431 H 800.681 -3.24785 -2.19675 0
M  V30 8432 H 802.171 -2.81307 -3.08636 0
M  V30 8433 N 802.608 0.318715 -1.54344 0
M  V30 8434 C 803.836 1.0755 -1.7675 0
M  V30 8435 C 804.251 1.81543 -0.518422 0
M  V30 8436 O 803.608 1.75198 0.511078 0
M  V30 8437 C 803.659 2.06983 -2.96378 0
M  V30 8438 O 803.38 1.35995 -4.16458 0
M  V30 8439 C 804.881 2.94841 -3.31034 0
M  V30 8440 H 802.101 0.319711 -0.589937 0
M  V30 8441 H 804.645 0.363369 -2.01246 0
M  V30 8442 H 802.8 2.73724 -2.74142 0
M  V30 8443 H 803.214 2.02623 -4.83781 0
M  V30 8444 H 804.688 3.60496 -4.18027 0
M  V30 8445 H 805.165 3.62199 -2.48412 0
M  V30 8446 H 805.771 2.33656 -3.55366 0
M  V30 8447 N 804.086 1.46499 0.581025 0
M  V30 8448 C 805.363 1.42372 1.34125 0
M  V30 8449 C 805.743 0.108073 2.10823 0
M  V30 8450 O 805.091 -0.910366 2.09582 0
M  V30 8451 C 805.301 2.65445 2.26583 0
M  V30 8452 C 806.649 3.11664 2.88359 0
M  V30 8453 O 807.673 2.66006 2.36896 0
M  V30 8454 O 806.532 3.90974 3.81839 0
M  V30 8455 H 803.626 0.566262 0.602724 0
M  V30 8456 H 806.172 1.58667 0.601903 0
M  V30 8457 H 804.944 3.52756 1.69348 0
M  V30 8458 H 804.567 2.51618 3.07854 0
M  V30 8459 N 805.565 -0.825799 1.34232 0
M  V30 8460 C 806.976 -1.39835 1.23706 0
M  V30 8461 C 807.327 -1.95709 -0.138649 0
M  V30 8462 O 806.452 -1.89833 -1.03886 0
M  V30 8463 C 807.047 -2.54203 2.23978 0
M  V30 8464 C 805.606 -3.07374 2.17251 0
M  V30 8465 C 804.753 -1.80232 2.10741 0
M  V30 8466 H 807.704 -0.630442 1.4564 0
M  V30 8467 H 807.725 -3.32214 1.8551 0
M  V30 8468 H 807.237 -2.13506 3.24094 0
M  V30 8469 H 805.338 -3.52583 1.20483 0
M  V30 8470 H 805.451 -3.6666 3.08379 0
M  V30 8471 H 803.815 -2.01012 1.56417 0
M  V30 8472 H 804.598 -1.41713 3.12686 0
M  V30 8473 N 807.043 -1.17915 -1.04565 0
M  V30 8474 C 808.454 -0.976383 -1.59134 0
M  V30 8475 C 808.805 0.475267 -1.90357 0
M  V30 8476 O 807.93 1.35172 -1.6899 0
M  V30 8477 C 808.525 -1.76604 -2.89131 0
M  V30 8478 C 807.084 -1.60777 -3.40335 0
M  V30 8479 C 806.231 -1.76369 -2.13985 0
M  V30 8480 H 809.182 -1.32532 -0.872985 0
M  V30 8481 H 809.203 -1.25215 -3.59307 0
M  V30 8482 H 808.715 -2.82252 -2.66375 0
M  V30 8483 H 806.816 -0.576436 -3.68114 0
M  V30 8484 H 806.929 -2.40268 -4.14497 0
M  V30 8485 H 805.293 -1.19268 -2.25049 0
M  V30 8486 H 806.076 -2.83441 -1.9369 0
M  V30 8487 N 808.521 1.23394 -0.980386 0
M  V30 8488 C 809.746 1.96384 -0.666935 0
M  V30 8489 C 810.171 1.72087 0.759456 0
M  V30 8490 O 809.529 0.992328 1.51732 0
M  V30 8491 C 809.577 3.47499 -0.963177 0
M  V30 8492 O 808.681 4.12363 -0.0552051 0
M  V30 8493 H 808.022 0.614797 -0.250839 0
M  V30 8494 H 810.552 1.56831 -1.31398 0
M  V30 8495 H 810.562 3.97953 -0.899877 0
M  V30 8496 H 809.237 3.6451 -2.00264 0
M  V30 8497 H 807.814 3.72499 -0.172914 0
M  V30 8498 N 809.999 0.752036 1.385 0
M  V30 8499 C 810.949 0.0990189 2.27785 0
M  V30 8500 C 811.933 -0.694867 1.45122 0
M  V30 8501 O 813.125 -0.561077 1.67872 0
M  V30 8502 C 810.254 -0.794531 3.33979 0
M  V30 8503 C 809.34 0.00611984 4.241 0
M  V30 8504 N 809.731 1.04174 4.94956 0
M  V30 8505 C 808.029 -0.220934 4.45452 0
M  V30 8506 C 808.73 1.52601 5.61327 0
M  V30 8507 N 807.706 0.84159 5.37046 0
M  V30 8508 H 811.508 0.892208 2.8003 0
M  V30 8509 H 809.022 0.587934 1.51384 0
M  V30 8510 H 811.019 -1.27797 3.96829 0
M  V30 8511 H 809.679 -1.58669 2.83292 0
M  V30 8512 H 810.69 1.42349 4.97953 0
M  V30 8513 H 807.367 -0.986556 4.05676 0
M  V30 8514 H 808.757 2.38857 6.2801 0
M  V30 8515 N 811.477 -1.49425 0.500989 0
M  V30 8516 C 812.407 -2.31971 -0.266775 0
M  V30 8517 C 813.388 -1.40245 -0.962563 0
M  V30 8518 O 814.573 -1.69154 -0.953968 0
M  V30 8519 C 811.703 -3.20757 -1.33163 0
M  V30 8520 C 810.657 -4.21275 -0.75572 0
M  V30 8521 C 809.983 -4.98997 -1.92109 0
M  V30 8522 C 811.283 -5.21686 0.253213 0
M  V30 8523 H 812.977 -2.96408 0.422237 0
M  V30 8524 H 810.523 -1.4254 0.204505 0
M  V30 8525 H 812.476 -3.77315 -1.87646 0
M  V30 8526 H 811.2 -2.54263 -2.04983 0
M  V30 8527 H 809.859 -3.65861 -0.232637 0
M  V30 8528 H 809.507 -4.28951 -2.62698 0
M  V30 8529 H 809.207 -5.67011 -1.54182 0
M  V30 8530 H 810.731 -5.584 -2.47026 0
M  V30 8531 H 812.145 -5.72939 -0.203483 0
M  V30 8532 H 810.542 -5.9759 0.548322 0
M  V30 8533 H 811.612 -4.70596 1.16909 0
M  V30 8534 N 812.955 -0.234822 -1.55841 0
M  V30 8535 C 814.232 0.442961 -1.90518 0
M  V30 8536 C 814.612 1.76768 -1.15397 0
M  V30 8537 O 813.96 2.26928 -0.267534 0
M  V30 8538 C 814.17 0.622905 -3.43396 0
M  V30 8539 C 815.518 0.9243 -4.14417 0
M  V30 8540 O 816.542 0.709211 -3.49068 0
M  V30 8541 O 815.401 1.33323 -5.29988 0
M  V30 8542 H 812.495 0.236042 -0.792599 0
M  V30 8543 H 815.041 -0.277992 -1.67408 0
M  V30 8544 H 813.813 -0.310973 -3.90062 0
M  V30 8545 H 813.436 1.39485 -3.7233 0
M  V30 8546 N 814.433 1.57553 0.0384317 0
M  V30 8547 C 815.681 1.88468 0.729672 0
M  V30 8548 C 816.002 0.831302 1.76393 0
M  V30 8549 O 815.272 -0.13622 1.95426 0
M  V30 8550 H 813.852 0.695529 0.272485 0
M  V30 8551 H 816.514 1.94899 0.0066032 0
M  V30 8552 H 815.61 2.8705 1.22511 0
M  V30 8553 N 815.911 -0.310526 1.54511 0
M  V30 8554 C 817.322 -0.884142 1.64438 0
M  V30 8555 C 817.673 -1.88425 0.546855 0
M  V30 8556 O 816.798 -2.14049 -0.31811 0
M  V30 8557 C 817.393 -1.6104 2.9808 0
M  V30 8558 C 815.952 -2.13255 3.1016 0
M  V30 8559 C 815.099 -0.96213 2.60074 0
M  V30 8560 H 818.05 -0.0877666 1.58457 0
M  V30 8561 H 818.071 -2.47541 2.8897 0
M  V30 8562 H 817.583 -0.882255 3.77939 0
M  V30 8563 H 815.684 -2.89145 2.35002 0
M  V30 8564 H 815.797 -2.37361 4.16169 0
M  V30 8565 H 814.161 -1.34501 2.16291 0
M  V30 8566 H 814.944 -0.248098 3.42402 0
M  V30 8567 N 817.389 -1.46805 -0.573248 0
M  V30 8568 C 818.8 -1.46655 -1.15539 0
M  V30 8569 C 819.151 -0.2125 -1.95046 0
M  V30 8570 O 818.276 0.683759 -2.05314 0
M  V30 8571 C 818.871 -2.65711 -2.10198 0
M  V30 8572 C 817.43 -2.68572 -2.63716 0
M  V30 8573 C 816.577 -2.39498 -1.39772 0
M  V30 8574 H 819.528 -1.54547 -0.36068 0
M  V30 8575 H 819.549 -2.41768 -2.93817 0
M  V30 8576 H 819.061 -3.56967 -1.52303 0
M  V30 8577 H 817.162 -1.81414 -3.25453 0
M  V30 8578 H 817.275 -3.68809 -3.05805 0
M  V30 8579 H 815.639 -1.89749 -1.69904 0
M  V30 8580 H 816.422 -3.32942 -0.836943 0
M  V30 8581 N 818.867 0.818669 -1.34668 0
M  V30 8582 C 819.83 1.9114 -1.26483 0
M  V30 8583 C 820.83 1.598 -0.179044 0
M  V30 8584 O 822.02 1.6876 -0.431952 0
M  V30 8585 C 819.152 3.27285 -0.95381 0
M  V30 8586 H 820.345 1.9982 -2.23634 0
M  V30 8587 H 817.898 1.01314 -1.19018 0
M  V30 8588 H 818.633 3.24297 0.0143428 0
M  V30 8589 H 818.418 3.51416 -1.73924 0
M  V30 8590 H 819.908 4.07299 -0.921827 0
M  V30 8591 N 820.346 1.18468 1.03938 0
M  V30 8592 C 821.592 0.982286 1.77423 0
M  V30 8593 C 821.925 -0.48679 1.88 0
M  V30 8594 O 821.2 -1.36146 1.38905 0
M  V30 8595 C 821.483 1.63929 3.20623 0
M  V30 8596 C 821.336 3.18132 3.17982 0
M  V30 8597 C 822.655 1.3536 4.18767 0
M  V30 8598 H 819.774 0.358264 0.644062 0
M  V30 8599 H 822.416 1.46154 1.21405 0
M  V30 8600 H 820.566 1.2318 3.68455 0
M  V30 8601 H 822.238 3.68024 2.78129 0
M  V30 8602 H 820.481 3.50225 2.55978 0
M  V30 8603 H 821.152 3.5924 4.19107 0
M  V30 8604 H 823.628 1.70669 3.79488 0
M  V30 8605 H 822.504 1.83896 5.17178 0
M  V30 8606 H 822.765 0.276722 4.41233 0
M  V30 8607 N 821.824 -1.22873 0.986916 0
M  V30 8608 C 822.787 -2.2281 0.537442 0
M  V30 8609 C 823.787 -1.56331 -0.37646 0
M  V30 8610 O 824.977 -1.73376 -0.169247 0
M  V30 8611 C 822.109 -3.40195 -0.219082 0
M  V30 8612 H 823.302 -2.64089 1.42116 0
M  V30 8613 H 820.855 -1.35819 0.773488 0
M  V30 8614 H 821.59 -3.04381 -1.11905 0
M  V30 8615 H 821.375 -3.89657 0.437026 0
M  V30 8616 H 822.865 -4.14326 -0.521926 0
M  V30 8617 N 823.302 -0.75937 -1.38099 0
M  V30 8618 C 824.548 -0.318584 -2.00282 0
M  V30 8619 C 824.881 1.09854 -1.60143 0
M  V30 8620 O 824.156 1.75344 -0.841702 0
M  V30 8621 C 824.439 -0.448047 -3.57302 0
M  V30 8622 C 824.292 -1.9067 -4.07388 0
M  V30 8623 C 825.611 0.155119 -4.39827 0
M  V30 8624 H 822.73 -0.117233 -0.727616 0
M  V30 8625 H 825.372 -0.960097 -1.63958 0
M  V30 8626 H 823.522 0.0981003 -3.88376 0
M  V30 8627 H 825.194 -2.5116 -3.86932 0
M  V30 8628 H 823.437 -2.41979 -3.6004 0
M  V30 8629 H 824.108 -1.94841 -5.1647 0
M  V30 8630 H 826.584 -0.31073 -4.14938 0
M  V30 8631 H 825.46 0.0343264 -5.48889 0
M  V30 8632 H 825.721 1.24407 -4.24235 0
M  V30 8633 N 824.78 1.49157 -0.508906 0
M  V30 8634 C 826.028 2.02073 0.0327335 0
M  V30 8635 C 826.349 1.39012 1.3675 0
M  V30 8636 O 825.619 0.548153 1.88075 0
M  V30 8637 H 824.199 0.746848 0.0150864 0
M  V30 8638 H 826.861 1.83097 -0.667946 0
M  V30 8639 H 825.957 3.11707 0.1566 0
M  V30 8640 N 826.258 0.243083 1.55714 0
M  V30 8641 C 827.19 -0.690766 2.18543 0
M  V30 8642 C 828.203 -1.14163 1.16064 0
M  V30 8643 O 829.392 -1.06906 1.42946 0
M  V30 8644 C 826.492 -1.95016 2.77168 0
M  V30 8645 C 825.665 -1.65137 4.05029 0
M  V30 8646 C 824.724 -2.75998 4.48009 0
M  V30 8647 O 823.75 -2.43547 5.14464 0
M  V30 8648 N 824.952 -4.05414 4.15476 0
M  V30 8649 H 827.717 -0.153203 2.99308 0
M  V30 8650 H 825.278 0.0628968 1.61778 0
M  V30 8651 H 827.27 -2.68414 3.0288 0
M  V30 8652 H 825.84 -2.39762 2.00582 0
M  V30 8653 H 825.06 -0.752768 3.86946 0
M  V30 8654 H 826.348 -1.42633 4.88399 0
M  V30 8655 H 825.746 -4.34613 3.62116 0
M  V30 8656 H 824.303 -4.75288 4.46032 0
M  V30 8657 N 827.736 -1.57571 -0.0300757 0
M  V30 8658 C 828.976 -1.91074 -0.725946 0
M  V30 8659 C 829.34 -0.841545 -1.72575 0
M  V30 8660 O 830.541 -1.06088 -2.46979 0
M  V30 8661 C 828.812 -3.2973 -1.37888 0
M  V30 8662 S 830.371 -3.85065 -2.10405 0
M  V30 8663 H 827.189 -0.669084 -0.240515 0
M  V30 8664 H 829.791 -1.9549 0.019384 0
M  V30 8665 H 828.495 -4.05411 -0.637974 0
M  V30 8666 H 828.026 -3.28614 -2.16278 0
M  V30 8667 H 830.041 -3.63711 -3.37533 0
M  V30 8668 N 829.214 0.302327 -1.54673 0
M  V30 8669 C 830.625 0.875409 -1.64904 0
M  V30 8670 C 830.976 1.88132 -0.55684 0
M  V30 8671 O 830.101 2.14215 0.306754 0
M  V30 8672 C 830.696 1.59457 -2.9893 0
M  V30 8673 C 829.255 2.11607 -3.11287 0
M  V30 8674 C 828.402 0.948324 -2.6058 0
M  V30 8675 H 831.353 0.079362 -1.58501 0
M  V30 8676 H 831.374 2.46005 -2.90279 0
M  V30 8677 H 830.886 0.8622 -3.78402 0
M  V30 8678 H 828.987 2.87895 -2.36532 0
M  V30 8679 H 829.1 2.35151 -4.17422 0
M  V30 8680 H 827.464 1.33352 -2.17001 0
M  V30 8681 H 828.247 0.229936 -3.42529 0
M  V30 8682 N 830.692 1.47107 0.565454 0
M  V30 8683 C 831.622 1.61846 1.68309 0
M  V30 8684 C 832.603 0.468159 1.63531 0
M  V30 8685 O 833.788 0.696504 1.8128 0
M  V30 8686 C 830.918 1.62474 3.06952 0
M  V30 8687 C 829.872 2.76649 3.26572 0
M  V30 8688 C 829.198 2.62345 4.65917 0
M  V30 8689 C 830.498 4.18319 3.12741 0
M  V30 8690 H 832.192 2.55407 1.5623 0
M  V30 8691 H 829.738 1.22916 0.750179 0
M  V30 8692 H 831.691 1.71378 3.84977 0
M  V30 8693 H 830.415 0.654692 3.19971 0
M  V30 8694 H 829.074 2.67242 2.50952 0
M  V30 8695 H 828.722 1.63386 4.75725 0
M  V30 8696 H 828.422 3.38936 4.79996 0
M  V30 8697 H 829.946 2.73165 5.46089 0
M  V30 8698 H 831.36 4.28745 3.80593 0
M  V30 8699 H 829.757 4.95632 3.38333 0
M  V30 8700 H 830.827 4.37263 2.09592 0
M  V30 8701 N 832.17 -0.811516 1.35101 0
M  V30 8702 C 833.416 -1.57068 1.28287 0
M  V30 8703 C 833.749 -1.93667 -0.143808 0
M  V30 8704 O 833.024 -1.60953 -1.09199 0
M  V30 8705 C 833.307 -2.86259 2.18466 0
M  V30 8706 C 833.16 -2.56168 3.69727 0
M  V30 8707 C 834.479 -3.87924 2.07852 0
M  V30 8708 H 831.598 -0.569869 0.467353 0
M  V30 8709 H 834.24 -0.934023 1.65457 0
M  V30 8710 H 832.39 -3.4059 1.86898 0
M  V30 8711 H 834.062 -2.08059 4.11715 0
M  V30 8712 H 832.305 -1.89436 3.90252 0
M  V30 8713 H 832.976 -3.48344 4.28206 0
M  V30 8714 H 835.452 -3.4298 2.35593 0
M  V30 8715 H 834.328 -4.76106 2.73157 0
M  V30 8716 H 834.589 -4.2923 1.05896 0
M  V30 8717 N 833.648 -1.19017 -1.03309 0
M  V30 8718 C 834.896 -0.988258 -1.76289 0
M  V30 8719 C 835.217 0.482557 -1.88935 0
M  V30 8720 O 834.487 1.34969 -1.41987 0
M  V30 8721 H 833.067 -0.36267 -0.653054 0
M  V30 8722 H 835.729 -1.49836 -1.2464 0
M  V30 8723 H 834.825 -1.43273 -2.77271 0
M  V30 8724 N 835.127 1.22348 -0.993418 0
M  V30 8725 C 836.538 1.72893 -0.704616 0
M  V30 8726 C 836.889 1.80095 0.778483 0
M  V30 8727 O 836.014 1.4476 1.60853 0
M  V30 8728 C 836.609 3.14 -1.27237 0
M  V30 8729 C 835.168 3.61949 -1.03294 0
M  V30 8730 C 834.315 2.39816 -1.39225 0
M  V30 8731 H 837.266 1.07688 -1.16572 0
M  V30 8732 H 837.287 3.74886 -0.651212 0
M  V30 8733 H 836.799 3.08727 -2.3518 0
M  V30 8734 H 834.9 3.72588 0.0298329 0
M  V30 8735 H 835.013 4.48051 -1.69668 0
M  V30 8736 H 833.377 2.41448 -0.810849 0
M  V30 8737 H 834.16 2.37203 -2.48172 0
M  V30 8738 N 836.605 0.766683 1.37694 0
M  V30 8739 C 837.853 0.328065 1.9942 0
M  V30 8740 C 838.174 -1.09775 1.61166 0
M  V30 8741 O 837.444 -1.75288 0.874686 0
M  V30 8742 H 836.024 0.11831 0.737572 0
M  V30 8743 H 838.686 0.983686 1.68255 0
M  V30 8744 H 837.782 0.401647 3.09505 0
M  V30 8745 N 838.083 -1.48885 0.516809 0
M  V30 8746 C 839.494 -1.86557 0.0729921 0
M  V30 8747 C 839.845 -1.42767 -1.34581 0
M  V30 8748 O 838.97 -0.812514 -2.00567 0
M  V30 8749 C 839.565 -3.38567 0.125686 0
M  V30 8750 C 838.124 -3.75481 -0.262867 0
M  V30 8751 C 837.271 -2.72913 0.491281 0
M  V30 8752 H 840.222 -1.40978 0.728767 0
M  V30 8753 H 840.243 -3.74629 -0.665831 0
M  V30 8754 H 839.755 -3.70408 1.15842 0
M  V30 8755 H 837.856 -3.49251 -1.29824 0
M  V30 8756 H 837.969 -4.79052 0.067579 0
M  V30 8757 H 836.333 -2.54627 -0.0608525 0
M  V30 8758 H 837.116 -3.07599 1.5244 0
M  V30 8759 N 839.561 -0.251338 -1.55583 0
M  V30 8760 C 840.494 0.687092 -2.1761 0
M  V30 8761 C 841.472 1.16963 -1.12953 0
M  V30 8762 O 842.656 1.24696 -1.41362 0
M  V30 8763 C 839.783 1.93429 -2.78034 0
M  V30 8764 C 838.829 1.58925 -3.95784 0
M  V30 8765 S 839.662 0.688019 -5.31062 0
M  V30 8766 C 840.818 1.94413 -5.94941 0
M  V30 8767 H 841.051 0.159982 -2.96869 0
M  V30 8768 H 838.584 -0.0357593 -1.54359 0
M  V30 8769 H 840.542 2.65028 -3.13481 0
M  V30 8770 H 839.203 2.43253 -1.98713 0
M  V30 8771 H 838.396 2.51668 -4.36668 0
M  V30 8772 H 837.998 0.953664 -3.61637 0
M  V30 8773 H 840.29 2.89087 -6.12727 0
M  V30 8774 H 841.233 1.5787 -6.90277 0
M  V30 8775 H 841.641 2.09824 -5.24056 0
M  V30 8776 N 841.039 1.57585 0.0217189 0
M  V30 8777 C 841.989 2.03506 1.02807 0
M  V30 8778 C 842.973 0.925716 1.31603 0
M  V30 8779 O 844.165 1.18958 1.31065 0
M  V30 8780 C 841.294 2.52407 2.32693 0
M  V30 8781 C 840.38 3.70176 2.06955 0
M  V30 8782 N 840.771 4.82641 1.513 0
M  V30 8783 C 839.069 3.77691 2.37204 0
M  V30 8784 C 839.77 5.64218 1.41536 0
M  V30 8785 N 838.746 5.09557 1.89348 0
M  V30 8786 H 842.548 2.87878 0.591899 0
M  V30 8787 H 840.062 1.60793 0.227875 0
M  V30 8788 H 842.059 2.83569 3.05605 0
M  V30 8789 H 840.719 1.69444 2.76982 0
M  V30 8790 H 841.73 5.03931 1.19472 0
M  V30 8791 H 838.407 3.05542 2.84517 0
M  V30 8792 H 839.797 6.64576 0.989333 0
M  V30 8793 N 842.517 -0.29412 1.54831 0
M  V30 8794 C 843.933 -0.640167 1.46199 0
M  V30 8795 C 844.133 -1.90426 0.658798 0
M  V30 8796 O 843.189 -2.51932 0.169228 0
M  V30 8797 C 844.502 -0.786763 2.90225 0
M  V30 8798 C 846.05 -0.882201 3.0031 0
M  V30 8799 C 846.525 -1.06074 4.45547 0
M  V30 8800 N 848.016 -1.12678 4.49286 0
M  V30 8801 C 848.751 -1.28334 5.58854 0
M  V30 8802 N 848.247 -1.40845 6.78332 0
M  V30 8803 N 850.04 -1.31277 5.46555 0
M  V30 8804 H 842.191 0.536334 2.05517 0
M  V30 8805 H 844.454 0.178363 0.93107 0
M  V30 8806 H 844.16 0.0713018 3.51628 0
M  V30 8807 H 844.034 -1.67364 3.38037 0
M  V30 8808 H 846.421 -1.73075 2.39017 0
M  V30 8809 H 846.502 0.0288405 2.55784 0
M  V30 8810 H 846.146 -0.216935 5.07437 0
M  V30 8811 H 846.076 -1.98611 4.8771 0
M  V30 8812 H 848.567 -1.04335 3.63212 0
M  V30 8813 H 848.88 -1.52566 7.57591 0
M  V30 8814 H 847.225 -1.37888 6.81184 0
M  V30 8815 H 850.416 -1.2112 4.52159 0
M  V30 8816 H 850.589 -1.43136 6.31994 0
M  V30 8817 N 843.995 -1.47404 -0.557645 0
M  V30 8818 C 845.411 -1.32913 -0.88353 0
M  V30 8819 C 845.611 -0.31929 -1.98954 0
M  V30 8820 O 844.667 0.26934 -2.51059 0
M  V30 8821 C 845.98 -2.72229 -1.27718 0
M  V30 8822 C 847.528 -2.8051 -1.38863 0
M  V30 8823 C 848.003 -4.20466 -1.81583 0
M  V30 8824 N 849.494 -4.23005 -1.88735 0
M  V30 8825 C 850.229 -5.2821 -2.23118 0
M  V30 8826 N 849.725 -6.4372 -2.56117 0
M  V30 8827 N 851.518 -5.15588 -2.23888 0
M  V30 8828 H 843.669 -2.11698 0.172557 0
M  V30 8829 H 845.932 -0.947889 0.0145334 0
M  V30 8830 H 845.638 -3.47556 -0.538329 0
M  V30 8831 H 845.512 -3.03971 -2.23342 0
M  V30 8832 H 847.899 -2.05457 -2.11829 0
M  V30 8833 H 847.98 -2.52423 -0.414274 0
M  V30 8834 H 847.624 -4.96025 -1.09187 0
M  V30 8835 H 847.554 -4.45977 -2.80021 0
M  V30 8836 H 850.045 -3.39674 -1.65621 0
M  V30 8837 H 850.358 -7.19754 -2.81378 0
M  V30 8838 H 848.703 -6.47041 -2.53698 0
M  V30 8839 H 851.894 -4.24374 -1.97546 0
M  V30 8840 H 852.067 -5.97685 -2.50353 0
M  V30 8841 N 845.473 0.80434 -1.35529 0
M  V30 8842 C 846.423 1.90565 -1.25175 0
M  V30 8843 C 847.407 1.60232 -0.146512 0
M  V30 8844 O 848.599 1.72918 -0.377943 0
M  V30 8845 C 845.728 3.2754 -1.02823 0
M  V30 8846 C 844.814 3.63932 -2.17748 0
M  V30 8847 N 845.205 3.71744 -3.42986 0
M  V30 8848 C 843.503 3.93901 -2.09184 0
M  V30 8849 C 844.204 4.03944 -4.18574 0
M  V30 8850 N 843.18 4.18146 -3.47355 0
M  V30 8851 H 846.982 1.9481 -2.20059 0
M  V30 8852 H 844.496 0.99905 -1.28034 0
M  V30 8853 H 846.493 4.06281 -0.934941 0
M  V30 8854 H 845.153 3.2458 -0.0882551 0
M  V30 8855 H 846.164 3.54765 -3.77309 0
M  V30 8856 H 842.841 3.98954 -1.23054 0
M  V30 8857 H 844.231 4.17036 -5.26811 0
M  V30 8858 N 846.951 1.19563 1.02676 0
M  V30 8859 C 847.881 0.959024 2.12897 0
M  V30 8860 C 848.862 -0.108382 1.69754 0
M  V30 8861 O 850.047 0.0470698 1.94143 0
M  V30 8862 C 847.177 0.499211 3.43693 0
M  V30 8863 C 846.131 1.5087 4.00528 0
M  V30 8864 C 845.457 0.905884 5.2697 0
M  V30 8865 C 846.757 2.88954 4.3509 0
M  V30 8866 H 848.451 1.88084 2.32948 0
M  V30 8867 H 845.997 0.905731 1.11949 0
M  V30 8868 H 847.95 0.320965 4.20176 0
M  V30 8869 H 846.674 -0.458205 3.2337 0
M  V30 8870 H 845.333 1.67413 3.26142 0
M  V30 8871 H 844.981 -0.0591506 5.02965 0
M  V30 8872 H 844.681 1.58 5.65959 0
M  V30 8873 H 846.205 0.73848 6.06118 0
M  V30 8874 H 847.619 2.75981 5.02501 0
M  V30 8875 H 846.016 3.53177 4.85166 0
M  V30 8876 H 847.086 3.41447 3.44299 0
M  V30 8877 N 848.429 -1.21819 0.999893 0
M  V30 8878 C 849.359 -2.26282 0.576096 0
M  V30 8879 C 850.34 -1.65317 -0.400537 0
M  V30 8880 O 851.525 -1.92028 -0.28964 0
M  V30 8881 C 848.655 -3.47147 -0.103145 0
M  V30 8882 C 847.609 -4.20594 0.792745 0
M  V30 8883 C 846.935 -5.34696 -0.0198026 0
M  V30 8884 C 848.235 -4.78533 2.09293 0
M  V30 8885 H 849.929 -2.61984 1.4493 0
M  V30 8886 H 847.475 -1.25935 0.698316 0
M  V30 8887 H 849.428 -4.1939 -0.411068 0
M  V30 8888 H 848.152 -3.1056 -1.01094 0
M  V30 8889 H 846.811 -3.50194 1.08442 0
M  V30 8890 H 846.459 -4.94352 -0.928729 0
M  V30 8891 H 846.159 -5.84764 0.576661 0
M  V30 8892 H 847.683 -6.09752 -0.321659 0
M  V30 8893 H 849.097 -5.42682 1.8485 0
M  V30 8894 H 847.494 -5.38968 2.63881 0
M  V30 8895 H 848.564 -3.98197 2.76708 0
M  V30 8896 N 849.908 -0.773975 -1.37286 0
M  V30 8897 C 850.838 -0.175782 -2.32837 0
M  V30 8898 C 851.819 0.680603 -1.5589 0
M  V30 8899 O 853.004 0.617607 -1.84117 0
M  V30 8900 C 850.134 0.702388 -3.40123 0
M  V30 8901 C 849.088 -0.0528687 -4.27967 0
M  V30 8902 C 848.414 0.944891 -5.26285 0
M  V30 8903 C 849.714 -1.23316 -5.07534 0
M  V30 8904 H 851.408 -0.974016 -2.83114 0
M  V30 8905 H 848.954 -0.469826 -1.3612 0
M  V30 8906 H 850.907 1.13069 -4.05947 0
M  V30 8907 H 849.631 1.53316 -2.88378 0
M  V30 8908 H 848.29 -0.461978 -3.63678 0
M  V30 8909 H 847.938 1.77028 -4.70819 0
M  V30 8910 H 847.638 0.444079 -5.8592 0
M  V30 8911 H 849.162 1.37209 -5.94984 0
M  V30 8912 H 850.576 -0.881395 -5.66484 0
M  V30 8913 H 848.973 -1.66621 -5.76504 0
M  V30 8914 H 850.043 -2.03617 -4.40077 0
M  V30 8915 N 851.386 1.48609 -0.524698 0
M  V30 8916 C 852.797 1.86516 -0.0828846 0
M  V30 8917 C 853.148 1.43478 1.33822 0
M  V30 8918 O 852.273 0.823139 2.00133 0
M  V30 8919 C 852.868 3.38495 -0.143639 0
M  V30 8920 C 851.427 3.75615 0.242951 0
M  V30 8921 C 850.574 2.72649 -0.505747 0
M  V30 8922 H 853.525 1.40589 -0.736233 0
M  V30 8923 H 853.546 3.74977 0.645955 0
M  V30 8924 H 853.058 3.69789 -1.17805 0
M  V30 8925 H 851.159 3.49935 1.27971 0
M  V30 8926 H 851.272 4.7901 -0.0929834 0
M  V30 8927 H 849.636 2.54656 0.0473482 0
M  V30 8928 H 850.419 3.06786 -1.54069 0
M  V30 8929 N 852.864 0.259585 1.55447 0
M  V30 8930 C 853.827 -0.621359 2.20617 0
M  V30 8931 C 854.827 -1.09317 1.17925 0
M  V30 8932 O 856.017 -0.995842 1.42929 0
M  V30 8933 C 853.149 -1.85546 2.85982 0
M  V30 8934 H 854.342 -0.0525833 2.99854 0
M  V30 8935 H 851.895 0.0101055 1.56297 0
M  V30 8936 H 852.63 -2.46515 2.10715 0
M  V30 8937 H 852.415 -1.52523 3.61219 0
M  V30 8938 H 853.905 -2.48227 3.35817 0
M  V30 8939 N 854.342 -1.57594 -0.0133615 0
M  V30 8940 C 855.758 -1.5527 -0.369255 0
M  V30 8941 C 855.958 -0.987751 -1.7563 0
M  V30 8942 O 855.014 -0.615683 -2.44879 0
M  V30 8943 C 856.327 -2.99602 -0.25672 0
M  V30 8944 C 857.875 -3.11227 -0.332647 0
M  V30 8945 C 858.35 -4.57321 -0.249387 0
M  V30 8946 N 859.841 -4.62177 -0.3077 0
M  V30 8947 C 860.576 -5.72781 -0.26641 0
M  V30 8948 N 860.072 -6.92575 -0.176494 0
M  V30 8949 N 861.865 -5.61204 -0.317295 0
M  V30 8950 H 854.016 -1.92662 0.894154 0
M  V30 8951 H 856.279 -0.884352 0.341505 0
M  V30 8952 H 855.985 -3.44723 0.697072 0
M  V30 8953 H 855.859 -3.6246 -1.04415 0
M  V30 8954 H 858.246 -2.66045 -1.27688 0
M  V30 8955 H 858.327 -2.51171 0.484412 0
M  V30 8956 H 857.971 -5.03174 0.691242 0
M  V30 8957 H 857.901 -5.15306 -1.08476 0
M  V30 8958 H 860.392 -3.75994 -0.379069 0
M  V30 8959 H 860.705 -7.72653 -0.150518 0
M  V30 8960 H 859.05 -6.94854 -0.142314 0
M  V30 8961 H 862.241 -4.66509 -0.385643 0
M  V30 8962 H 862.414 -6.47388 -0.28165 0
M  V30 8963 N 855.82 0.285905 -1.54985 0
M  V30 8964 C 857.066 1.02071 -1.75241 0
M  V30 8965 C 857.399 1.864 -0.544842 0
M  V30 8966 O 856.674 1.89034 0.457844 0
M  V30 8967 C 856.957 1.91409 -3.05016 0
M  V30 8968 C 856.81 1.10158 -4.36102 0
M  V30 8969 C 858.129 2.90335 -3.30747 0
M  V30 8970 H 855.248 0.369663 -0.637588 0
M  V30 8971 H 857.89 0.294114 -1.8771 0
M  V30 8972 H 856.04 2.53362 -2.94517 0
M  V30 8973 H 857.712 0.503756 -4.58541 0
M  V30 8974 H 855.955 0.404675 -4.31908 0
M  V30 8975 H 856.626 1.75956 -5.23205 0
M  V30 8976 H 859.102 2.38514 -3.40955 0
M  V30 8977 H 857.978 3.49997 -4.2284 0
M  V30 8978 H 858.239 3.64787 -2.49765 0
M  V30 8979 N 857.298 1.47698 0.54982 0
M  V30 8980 C 858.709 1.48474 1.13191 0
M  V30 8981 C 859.06 0.243504 1.94683 0
M  V30 8982 O 858.185 -0.651009 2.06375 0
M  V30 8983 C 858.78 2.69022 2.05944 0
M  V30 8984 C 857.339 2.72733 2.5941 0
M  V30 8985 C 856.486 2.41691 1.35944 0
M  V30 8986 H 859.437 1.55101 0.336048 0
M  V30 8987 H 859.458 2.46412 2.89934 0
M  V30 8988 H 858.97 3.59345 1.46605 0
M  V30 8989 H 857.071 1.86568 3.22526 0
M  V30 8990 H 857.184 3.73628 2.99899 0
M  V30 8991 H 855.548 1.92428 1.66864 0
M  V30 8992 H 856.331 3.34231 0.783869 0
M  V30 8993 N 858.776 -0.797141 1.35954 0
M  V30 8994 C 860.192 -1.09408 1.16198 0
M  V30 8995 C 860.392 -2.01491 -0.0191682 0
M  V30 8996 O 859.448 -2.42977 -0.686902 0
M  V30 8997 C 860.761 -1.71597 2.46931 0
M  V30 8998 C 862.309 -1.83974 2.53224 0
M  V30 8999 C 862.784 -2.49579 3.84024 0
M  V30 9000 N 864.275 -2.57055 3.85327 0
M  V30 9001 C 865.01 -3.08608 4.83268 0
M  V30 9002 N 864.506 -3.60527 5.91601 0
M  V30 9003 N 866.299 -3.07249 4.70696 0
M  V30 9004 H 858.45 -0.185209 2.11591 0
M  V30 9005 H 860.713 -0.144768 0.936881 0
M  V30 9006 H 860.419 -1.11404 3.3359 0
M  V30 9007 H 860.293 -2.71193 2.62172 0
M  V30 9008 H 862.68 -2.43308 1.66988 0
M  V30 9009 H 862.761 -0.83207 2.41889 0
M  V30 9010 H 862.405 -1.90892 4.70662 0
M  V30 9011 H 862.335 -3.50902 3.92651 0
M  V30 9012 H 864.826 -2.20283 3.07057 0
M  V30 9013 H 865.139 -3.98192 6.62317 0
M  V30 9014 H 863.484 -3.587 5.95281 0
M  V30 9015 H 866.675 -2.65972 3.85197 0
M  V30 9016 H 866.848 -3.47119 5.47186 0
M  V30 9017 N 860.254 -1.20106 -1.0204 0
M  V30 9018 C 861.665 -1.00992 -1.57027 0
M  V30 9019 C 862.016 0.434782 -1.91322 0
M  V30 9020 O 861.141 1.31557 -1.71819 0
M  V30 9021 C 861.736 -1.82697 -2.85319 0
M  V30 9022 C 860.295 -1.67959 -3.36848 0
M  V30 9023 C 859.442 -1.80868 -2.10195 0
M  V30 9024 H 862.393 -1.34354 -0.844676 0
M  V30 9025 H 862.414 -1.32809 -3.5657 0
M  V30 9026 H 861.926 -2.87839 -2.60328 0
M  V30 9027 H 860.027 -0.654389 -3.66809 0
M  V30 9028 H 860.14 -2.49006 -4.09308 0
M  V30 9029 H 858.504 -1.24015 -2.22469 0
M  V30 9030 H 859.287 -2.87486 -1.87635 0
M  V30 9031 N 861.732 1.21287 -1.00634 0
M  V30 9032 C 862.98 1.90013 -0.688438 0
M  V30 9033 C 863.301 1.78573 0.783365 0
M  V30 9034 O 862.571 1.1815 1.56261 0
M  V30 9035 H 861.151 0.703336 -0.251648 0
M  V30 9036 H 863.813 1.47346 -1.27574 0
M  V30 9037 H 862.909 2.96879 -0.962781 0
M  V30 9038 N 863.21 0.781244 1.36873 0
M  V30 9039 C 864.14 0.188128 2.32741 0
M  V30 9040 C 865.121 -0.672326 1.56249 0
M  V30 9041 O 866.306 -0.607835 1.84442 0
M  V30 9042 C 863.436 -0.684341 3.40491 0
M  V30 9043 C 862.39 0.0755641 4.27933 0
M  V30 9044 C 861.716 -0.916968 5.26779 0
M  V30 9045 C 863.016 1.26006 5.06873 0
M  V30 9046 H 864.71 0.989016 2.82593 0
M  V30 9047 H 862.256 0.477038 1.35869 0
M  V30 9048 H 864.209 -1.10915 4.06541 0
M  V30 9049 H 862.933 -1.51785 2.89187 0
M  V30 9050 H 861.592 0.481258 3.63427 0
M  V30 9051 H 861.24 -1.74528 4.71751 0
M  V30 9052 H 860.94 -0.413 5.86147 0
M  V30 9053 H 862.464 -1.34052 5.95703 0
M  V30 9054 H 863.878 0.911425 5.66009 0
M  V30 9055 H 862.275 1.69676 5.75613 0
M  V30 9056 H 863.345 2.05948 4.38991 0
M  V30 9057 N 864.689 -1.48329 0.532571 0
M  V30 9058 C 865.914 -2.074 0.00147755 0
M  V30 9059 C 866.339 -1.38615 -1.27151 0
M  V30 9060 O 865.697 -0.452949 -1.75551 0
M  V30 9061 C 865.745 -3.60029 -0.202866 0
M  V30 9062 O 864.849 -3.92327 -1.27097 0
M  V30 9063 H 864.19 -0.662777 0.0402883 0
M  V30 9064 H 866.72 -1.90701 0.741224 0
M  V30 9065 H 866.73 -4.05783 -0.424722 0
M  V30 9066 H 865.405 -4.09496 0.727033 0
M  V30 9067 H 863.982 -3.58348 -1.03156 0
M  V30 9068 N 866.167 -0.267825 -1.55308 0
M  V30 9069 C 867.077 0.633055 -2.25897 0
M  V30 9070 C 868.093 1.17613 -1.28231 0
M  V30 9071 O 869.269 1.20797 -1.61153 0
M  V30 9072 C 866.334 1.80397 -2.96071 0
M  V30 9073 C 865.395 1.29829 -4.09198 0
M  V30 9074 C 864.628 2.4134 -4.76016 0
M  V30 9075 O 864.851 3.60537 -4.42006 0
M  V30 9076 O 863.785 2.09909 -5.64111 0
M  V30 9077 H 867.611 0.0614381 -3.03638 0
M  V30 9078 H 865.196 -0.0355072 -1.49358 0
M  V30 9079 H 867.078 2.48685 -3.40197 0
M  V30 9080 H 865.753 2.36281 -2.21253 0
M  V30 9081 H 864.66 0.582086 -3.69544 0
M  V30 9082 H 865.993 0.785288 -4.85895 0
M  V30 9083 N 867.645 1.57599 0.00500368 0
M  V30 9084 C 868.608 2.07058 0.982832 0
M  V30 9085 C 869.608 0.979045 1.27559 0
M  V30 9086 O 870.798 1.24187 1.22161 0
M  V30 9087 C 867.93 2.50782 2.30914 0
M  V30 9088 H 869.123 2.94718 0.555119 0
M  V30 9089 H 866.676 1.54249 0.25237 0
M  V30 9090 H 867.411 1.66351 2.78385 0
M  V30 9091 H 867.196 3.30495 2.10987 0
M  V30 9092 H 868.686 2.89391 3.0107 0
M  V30 9093 N 869.123 -0.277682 1.55134 0
M  V30 9094 C 870.053 -1.34742 1.90701 0
M  V30 9095 C 871.034 -1.51757 0.768354 0
M  V30 9096 O 872.219 -1.64879 1.02609 0
M  V30 9097 C 869.349 -2.70775 2.17481 0
M  V30 9098 C 868.303 -2.68497 3.33307 0
M  V30 9099 C 867.629 -4.08037 3.45557 0
M  V30 9100 C 868.929 -2.28178 4.69821 0
M  V30 9101 H 870.623 -1.05224 2.803 0
M  V30 9102 H 868.169 -0.504738 1.34864 0
M  V30 9103 H 870.122 -3.45719 2.40949 0
M  V30 9104 H 868.846 -3.01867 1.24676 0
M  V30 9105 H 867.505 -1.9601 3.09799 0
M  V30 9106 H 867.153 -4.36344 2.50226 0
M  V30 9107 H 866.853 -4.07409 4.23429 0
M  V30 9108 H 868.377 -4.84726 3.71312 0
M  V30 9109 H 869.791 -2.92843 4.92865 0
M  V30 9110 H 868.188 -2.3872 5.50575 0
M  V30 9111 H 869.258 -1.23308 4.6896 0
M  V30 9112 N 870.601 -1.47988 -0.541979 0
M  V30 9113 C 871.826 -1.59286 -1.32826 0
M  V30 9114 C 872.251 -0.24894 -1.86445 0
M  V30 9115 O 871.609 0.777581 -1.63778 0
M  V30 9116 C 871.657 -2.6334 -2.46343 0
M  V30 9117 O 870.761 -2.19667 -3.49028 0
M  V30 9118 H 870.102 -0.534543 -0.393903 0
M  V30 9119 H 872.632 -1.93885 -0.653427 0
M  V30 9120 H 872.642 -2.84238 -2.92699 0
M  V30 9121 H 871.317 -3.60913 -2.06675 0
M  V30 9122 H 869.894 -2.08932 -3.08872 0
M  V30 9123 N 872.079 0.78992 -1.36375 0
M  V30 9124 C 873.009 1.91683 -1.33341 0
M  V30 9125 C 873.99 1.68861 -0.204965 0
M  V30 9126 O 875.175 1.89982 -0.402531 0
M  V30 9127 C 872.305 3.28696 -1.12143 0
M  V30 9128 C 871.259 3.66041 -2.21806 0
M  V30 9129 C 870.585 5.01399 -1.85751 0
M  V30 9130 C 871.885 3.74677 -3.63888 0
M  V30 9131 H 873.579 1.94478 -2.27637 0
M  V30 9132 H 871.125 0.934271 -1.09578 0
M  V30 9133 H 873.078 4.07151 -1.08656 0
M  V30 9134 H 871.802 3.26287 -0.142974 0
M  V30 9135 H 870.461 2.89883 -2.24418 0
M  V30 9136 H 870.109 4.9551 -0.864817 0
M  V30 9137 H 869.809 5.27355 -2.59173 0
M  V30 9138 H 871.333 5.82274 -1.83819 0
M  V30 9139 H 872.747 4.43324 -3.63506 0
M  V30 9140 H 871.144 4.12118 -4.3621 0
M  V30 9141 H 872.214 2.75795 -3.9883 0
M  V30 9142 N 873.557 1.20646 1.01402 0
M  V30 9143 C 874.487 0.98155 2.11867 0
M  V30 9144 C 875.468 -0.0903712 1.6986 0
M  V30 9145 O 876.653 0.0676586 1.94082 0
M  V30 9146 C 873.783 0.535636 3.43145 0
M  V30 9147 C 872.737 1.55109 3.98905 0
M  V30 9148 C 872.063 0.961725 5.2598 0
M  V30 9149 C 873.363 2.93552 4.32001 0
M  V30 9150 H 875.057 1.90544 2.3094 0
M  V30 9151 H 872.603 0.917554 1.10982 0
M  V30 9152 H 874.556 0.365512 4.19812 0
M  V30 9153 H 873.28 -0.423882 3.23838 0
M  V30 9154 H 871.939 1.70862 3.24348 0
M  V30 9155 H 871.587 -0.00580108 5.03 0
M  V30 9156 H 871.287 1.63993 5.64252 0
M  V30 9157 H 872.811 0.802726 6.053 0
M  V30 9158 H 874.225 2.81295 4.99546 0
M  V30 9159 H 872.622 3.58303 4.81393 0
M  V30 9160 H 873.692 3.4508 3.40658 0
M  V30 9161 N 875.035 -1.20752 1.01276 0
M  V30 9162 C 875.965 -2.25658 0.600064 0
M  V30 9163 C 876.946 -1.65733 -0.38298 0
M  V30 9164 O 878.131 -1.92324 -0.269256 0
M  V30 9165 C 875.261 -3.47237 -0.0663197 0
M  V30 9166 C 874.215 -4.1973 0.83731 0
M  V30 9167 C 873.541 -5.34687 0.0369102 0
M  V30 9168 C 874.841 -4.76286 2.14357 0
M  V30 9169 H 876.535 -2.60432 1.477 0
M  V30 9170 H 874.081 -1.25187 0.711634 0
M  V30 9171 H 876.034 -4.19803 -0.366563 0
M  V30 9172 H 874.758 -3.11615 -0.977944 0
M  V30 9173 H 873.417 -3.49024 1.1215 0
M  V30 9174 H 873.065 -4.95309 -0.876244 0
M  V30 9175 H 872.765 -5.84119 0.63865 0
M  V30 9176 H 874.289 -6.10059 -0.256968 0
M  V30 9177 H 875.703 -5.40691 1.90595 0
M  V30 9178 H 874.1 -5.36139 2.69583 0
M  V30 9179 H 875.17 -3.9524 2.80916 0
M  V30 9180 N 876.513 -0.788492 -1.36457 0
M  V30 9181 C 877.76 -0.360461 -1.99266 0
M  V30 9182 C 878.088 1.0676 -1.62581 0
M  V30 9183 O 877.343 1.75205 -0.871884 0
M  V30 9184 C 877.642 -0.470255 -3.54293 0
M  V30 9185 C 877.308 -1.85899 -4.10795 0
M  V30 9186 C 875.97 -2.23896 -4.25939 0
M  V30 9187 C 878.322 -2.76836 -4.41601 0
M  V30 9188 C 875.65 -3.52235 -4.69199 0
M  V30 9189 C 878.002 -4.04602 -4.86292 0
M  V30 9190 C 876.666 -4.42623 -4.99641 0
M  V30 9191 H 875.936 -0.131902 -0.729166 0
M  V30 9192 H 878.583 -1.00577 -1.62962 0
M  V30 9193 H 876.888 0.258559 -3.90946 0
M  V30 9194 H 878.585 -0.120119 -4.0082 0
M  V30 9195 H 875.175 -1.55372 -3.99447 0
M  V30 9196 H 879.359 -2.48735 -4.2947 0
M  V30 9197 H 874.615 -3.81565 -4.77722 0
M  V30 9198 H 878.789 -4.75182 -5.09092 0
M  V30 9199 H 876.416 -5.42125 -5.32921 0
M  V30 9200 N 877.991 1.48044 -0.54043 0
M  V30 9201 C 878.954 2.28273 0.205966 0
M  V30 9202 C 879.954 1.35983 0.858209 0
M  V30 9203 O 881.144 1.58776 0.716651 0
M  V30 9204 C 878.276 3.15174 1.29917 0
M  V30 9205 H 879.469 2.95727 -0.498555 0
M  V30 9206 H 877.022 1.53457 -0.296745 0
M  V30 9207 H 877.757 2.52374 2.03661 0
M  V30 9208 H 877.542 3.83074 0.836475 0
M  V30 9209 H 879.032 3.75666 1.82387 0
M  V30 9210 N 879.47 0.276058 1.55163 0
M  V30 9211 C 880.716 -0.340959 1.99913 0
M  V30 9212 C 881.049 -1.55434 1.16422 0
M  V30 9213 O 880.324 -1.93081 0.234517 0
M  V30 9214 C 880.607 -0.722211 3.52783 0
M  V30 9215 C 880.46 0.498575 4.47028 0
M  V30 9216 C 881.779 -1.5583 4.11589 0
M  V30 9217 H 878.898 -0.122455 0.726756 0
M  V30 9218 H 881.54 0.38319 1.86096 0
M  V30 9219 H 879.69 -1.33919 3.64689 0
M  V30 9220 H 881.362 1.13713 4.47065 0
M  V30 9221 H 879.605 1.13646 4.18649 0
M  V30 9222 H 880.276 0.188041 5.5168 0
M  V30 9223 H 882.752 -1.03722 4.02965 0
M  V30 9224 H 881.628 -1.79387 5.1876 0
M  V30 9225 H 881.889 -2.53963 3.61877 0
M  V30 9226 N 880.948 -1.576 0.00335426 0
M  V30 9227 C 882.194 -1.90996 -0.681799 0
M  V30 9228 C 882.527 -0.877643 -1.73237 0
M  V30 9229 O 881.802 0.103183 -1.94226 0
M  V30 9230 C 882.085 -3.34961 -1.32187 0
M  V30 9231 C 881.938 -4.48911 -0.28261 0
M  V30 9232 C 883.257 -3.78408 -2.24711 0
M  V30 9233 H 880.376 -0.694596 -0.246386 0
M  V30 9234 H 883.018 -1.89919 0.055336 0
M  V30 9235 H 881.168 -3.36008 -1.95014 0
M  V30 9236 H 882.84 -4.59999 0.346241 0
M  V30 9237 H 881.083 -4.32 0.394768 0
M  V30 9238 H 881.754 -5.46609 -0.769576 0
M  V30 9239 H 884.23 -3.78934 -1.71897 0
M  V30 9240 H 883.106 -4.79885 -2.66461 0
M  V30 9241 H 883.367 -3.12464 -3.1276 0
M  V30 9242 N 882.426 0.269451 -1.5528 0
M  V30 9243 C 883.356 1.33729 -1.91413 0
M  V30 9244 C 884.337 1.51348 -0.776391 0
M  V30 9245 O 885.522 1.64332 -1.03482 0
M  V30 9246 C 882.652 2.69618 -2.18914 0
M  V30 9247 C 881.606 2.66725 -3.34726 0
M  V30 9248 C 880.932 4.06199 -3.47716 0
M  V30 9249 C 882.232 2.25684 -4.71025 0
M  V30 9250 H 883.926 1.03736 -2.80854 0
M  V30 9251 H 881.472 0.497579 -1.3513 0
M  V30 9252 H 883.425 3.44436 -2.42779 0
M  V30 9253 H 882.149 3.01201 -1.26275 0
M  V30 9254 H 880.808 1.94365 -3.10834 0
M  V30 9255 H 880.456 4.3501 -2.52537 0
M  V30 9256 H 880.156 4.05157 -4.25583 0
M  V30 9257 H 881.68 4.8275 -3.73877 0
M  V30 9258 H 883.094 2.90225 -4.94411 0
M  V30 9259 H 881.491 2.35797 -5.51833 0
M  V30 9260 H 882.561 1.20819 -4.69607 0
M  V30 9261 N 883.904 1.48273 0.534124 0
M  V30 9262 C 885.129 1.59988 1.31979 0
M  V30 9263 C 885.554 0.258824 1.86311 0
M  V30 9264 O 884.912 -0.768885 1.64188 0
M  V30 9265 C 884.96 2.64642 2.44943 0
M  V30 9266 O 884.064 2.21515 3.47858 0
M  V30 9267 H 883.405 0.536625 0.391063 0
M  V30 9268 H 885.935 1.94229 0.643135 0
M  V30 9269 H 885.945 2.85786 2.91187 0
M  V30 9270 H 884.62 3.62004 2.04758 0
M  V30 9271 H 883.197 2.10567 3.0776 0
M  V30 9272 N 885.382 -0.782676 1.36792 0
M  V30 9273 C 886.798 -1.08169 1.17352 0
M  V30 9274 C 886.998 -2.015 0.0022037 0
M  V30 9275 O 886.054 -2.43692 -0.661093 0
M  V30 9276 C 887.367 -1.68969 2.48737 0
M  V30 9277 C 888.915 -1.81278 2.55161 0
M  V30 9278 C 889.39 -2.45492 3.86649 0
M  V30 9279 N 890.881 -2.52954 3.88032 0
M  V30 9280 C 891.616 -3.03465 4.86515 0
M  V30 9281 N 891.112 -3.54232 5.95392 0
M  V30 9282 N 892.905 -3.02239 4.73928 0
M  V30 9283 H 885.056 -0.162757 2.11775 0
M  V30 9284 H 887.319 -0.134823 0.938364 0
M  V30 9285 H 887.025 -1.07859 3.34753 0
M  V30 9286 H 886.899 -2.68397 2.65034 0
M  V30 9287 H 889.286 -2.41524 1.69559 0
M  V30 9288 H 889.367 -0.806367 2.42758 0
M  V30 9289 H 889.011 -1.85889 4.7266 0
M  V30 9290 H 888.941 -3.46718 3.96351 0
M  V30 9291 H 891.432 -2.17014 3.09376 0
M  V30 9292 H 891.745 -3.91145 6.66503 0
M  V30 9293 H 890.09 -3.52366 5.99052 0
M  V30 9294 H 893.281 -2.61871 3.87996 0
M  V30 9295 H 893.454 -3.41295 5.50837 0
M  V30 9296 N 886.86 -1.21182 -1.00761 0
M  V30 9297 C 887.823 -0.970339 -2.07646 0
M  V30 9298 C 888.823 0.0576345 -1.60697 0
M  V30 9299 O 890.013 -0.179369 -1.73274 0
M  V30 9300 C 887.145 -0.462703 -3.37745 0
M  V30 9301 H 888.338 -1.91856 -2.30502 0
M  V30 9302 H 885.891 -1.02844 -1.17698 0
M  V30 9303 H 886.626 0.490559 -3.20568 0
M  V30 9304 H 886.411 -1.20416 -3.73152 0
M  V30 9305 H 887.901 -0.313531 -4.16421 0
M  V30 9306 N 888.338 1.20213 -1.01915 0
M  V30 9307 C 889.301 2.21307 -0.596327 0
M  V30 9308 C 890.301 1.57274 0.334879 0
M  V30 9309 O 891.491 1.73764 0.12322 0
M  V30 9310 C 888.623 3.40657 0.128808 0
M  V30 9311 H 889.816 2.60228 -1.49068 0
M  V30 9312 H 887.369 1.33721 -0.809226 0
M  V30 9313 H 888.104 3.07241 1.03796 0
M  V30 9314 H 887.889 3.88361 -0.540183 0
M  V30 9315 H 889.379 4.15564 0.411892 0
M  V30 9316 N 889.816 0.795718 1.36037 0
M  V30 9317 C 890.779 0.204318 2.28287 0
M  V30 9318 C 891.779 -0.602017 1.49105 0
M  V30 9319 O 892.969 -0.422089 1.69009 0
M  V30 9320 C 890.101 -0.716431 3.33287 0
M  V30 9321 H 891.294 1.01781 2.821 0
M  V30 9322 H 888.847 0.565588 1.45708 0
M  V30 9323 H 889.582 -1.55403 2.84641 0
M  V30 9324 H 889.367 -0.140096 3.9185 0
M  V30 9325 H 890.857 -1.12488 4.02164 0
M  V30 9326 N 891.294 -1.47756 0.548274 0
M  V30 9327 C 892.224 -2.32702 -0.19284 0
M  V30 9328 C 893.205 -1.43237 -0.917457 0
M  V30 9329 O 894.39 -1.72103 -0.89967 0
M  V30 9330 C 891.52 -3.24831 -1.22891 0
M  V30 9331 C 890.474 -4.23466 -0.621312 0
M  V30 9332 C 889.8 -5.04856 -1.76137 0
M  V30 9333 C 891.1 -5.20616 0.419055 0
M  V30 9334 H 892.794 -2.94914 0.516323 0
M  V30 9335 H 890.34 -1.41818 0.24975 0
M  V30 9336 H 892.293 -3.83094 -1.75547 0
M  V30 9337 H 891.017 -2.60656 -1.9679 0
M  V30 9338 H 889.676 -3.66416 -0.116123 0
M  V30 9339 H 889.324 -4.37091 -2.48918 0
M  V30 9340 H 889.024 -5.71629 -1.36065 0
M  V30 9341 H 890.548 -5.65976 -2.29136 0
M  V30 9342 H 891.962 -5.73296 -0.0211034 0
M  V30 9343 H 890.359 -5.95543 0.738163 0
M  V30 9344 H 891.429 -4.66638 1.31822 0
M  V30 9345 N 892.772 -0.284283 -1.55015 0
M  V30 9346 C 894.02 0.329212 -1.99401 0
M  V30 9347 C 894.341 1.55687 -1.17416 0
M  V30 9348 O 893.611 1.94087 -0.265937 0
M  V30 9349 H 892.191 0.12463 -0.73653 0
M  V30 9350 H 894.853 -0.391743 -1.90922 0
M  V30 9351 H 893.949 0.61278 -3.06025 0
M  V30 9352 N 894.251 1.57596 -0.0117121 0
M  V30 9353 C 895.491 1.92932 0.675031 0
M  V30 9354 C 895.855 0.887004 1.70283 0
M  V30 9355 O 897.056 1.12599 2.4408 0
M  V30 9356 C 895.327 3.3327 1.29098 0
M  V30 9357 S 896.886 3.90509 2.00121 0
M  V30 9358 H 893.704 0.675226 0.22269 0
M  V30 9359 H 896.306 1.9537 -0.071208 0
M  V30 9360 H 895.01 4.0696 0.530262 0
M  V30 9361 H 894.541 3.34233 2.0749 0
M  V30 9362 H 896.556 3.72532 3.27771 0
M  V30 9363 N 895.729 -0.261212 1.5542 0
M  V30 9364 C 896.978 -0.989072 1.75785 0
M  V30 9365 C 897.291 -1.8702 0.572961 0
M  V30 9366 O 898.497 -2.63374 0.659289 0
M  V30 9367 C 896.953 -1.80857 3.11157 0
M  V30 9368 C 896.561 -0.975535 4.3725 0
M  V30 9369 C 898.305 -2.53003 3.40866 0
M  V30 9370 C 896.212 -1.7901 5.63657 0
M  V30 9371 H 895.142 -0.373019 0.655266 0
M  V30 9372 H 897.793 -0.244267 1.81867 0
M  V30 9373 H 896.175 -2.59479 2.99144 0
M  V30 9374 H 897.349 -0.232661 4.60212 0
M  V30 9375 H 895.664 -0.368083 4.1477 0
M  V30 9376 H 898.261 -3.14372 4.32521 0
M  V30 9377 H 898.604 -3.23891 2.61535 0
M  V30 9378 H 899.137 -1.81403 3.54031 0
M  V30 9379 H 895.876 -1.12522 6.4577 0
M  V30 9380 H 895.396 -2.50863 5.44819 0
M  V30 9381 H 897.075 -2.36082 6.0239 0
M  V30 9382 N 897.207 -1.48554 -0.526253 0
M  V30 9383 C 898.455 -1.56452 -1.27935 0
M  V30 9384 C 898.776 -0.24184 -1.93495 0
M  V30 9385 O 898.046 0.736917 -1.81511 0
M  V30 9386 H 896.626 -0.576379 -0.47518 0
M  V30 9387 H 899.288 -1.85039 -0.612083 0
M  V30 9388 H 898.384 -2.34751 -2.05666 0
M  V30 9389 N 898.685 0.775411 -1.37205 0
M  V30 9390 C 899.615 1.90258 -1.35367 0
M  V30 9391 C 900.596 1.68634 -0.222864 0
M  V30 9392 O 901.781 1.89545 -0.422659 0
M  V30 9393 C 898.911 3.27488 -1.15623 0
M  V30 9394 C 897.865 3.63668 -2.25676 0
M  V30 9395 C 897.191 4.994 -1.91059 0
M  V30 9396 C 898.491 3.70797 -3.67841 0
M  V30 9397 H 900.185 1.92053 -2.29687 0
M  V30 9398 H 897.731 0.922597 -1.10563 0
M  V30 9399 H 899.684 4.05976 -1.12968 0
M  V30 9400 H 898.408 3.26117 -0.177573 0
M  V30 9401 H 897.067 2.87486 -2.2748 0
M  V30 9402 H 896.715 4.94565 -0.917324 0
M  V30 9403 H 896.415 5.24576 -2.64751 0
M  V30 9404 H 897.939 5.80291 -1.89985 0
M  V30 9405 H 899.353 4.39444 -3.68187 0
M  V30 9406 H 897.75 4.07468 -4.40556 0
M  V30 9407 H 898.82 2.71549 -4.01732 0
M  V30 9408 N 900.163 1.21714 1.00117 0
M  V30 9409 C 901.409 1.03823 1.74208 0
M  V30 9410 C 901.742 -0.426733 1.89454 0
M  V30 9411 O 901.017 -1.31658 1.43166 0
M  V30 9412 C 901.3 1.74047 3.15246 0
M  V30 9413 C 901.153 3.28087 3.077 0
M  V30 9414 C 902.472 1.48614 4.14249 0
M  V30 9415 H 899.591 0.378573 0.632338 0
M  V30 9416 H 902.233 1.49942 1.16694 0
M  V30 9417 H 900.383 1.3484 3.64349 0
M  V30 9418 H 902.055 3.76686 2.6628 0
M  V30 9419 H 900.298 3.58191 2.44707 0
M  V30 9420 H 900.969 3.72392 4.07466 0
M  V30 9421 H 903.445 1.82656 3.73866 0
M  V30 9422 H 902.321 2.00257 5.11066 0
M  V30 9423 H 902.582 0.416957 4.40129 0
M  V30 9424 N 901.641 -1.19671 1.02551 0
M  V30 9425 C 902.604 -2.20987 0.608055 0
M  V30 9426 C 903.604 -1.5745 -0.326534 0
M  V30 9427 O 904.794 -1.73827 -0.114003 0
M  V30 9428 C 901.926 -3.4072 -0.11074 0
M  V30 9429 H 903.119 -2.59434 1.50446 0
M  V30 9430 H 900.672 -1.3329 0.816307 0
M  V30 9431 H 901.407 -3.07787 -1.02165 0
M  V30 9432 H 901.192 -3.88069 0.560772 0
M  V30 9433 H 902.682 -4.15776 -0.389848 0
M  V30 9434 N 903.119 -0.802921 -1.35613 0
M  V30 9435 C 904.069 -0.183492 -2.2726 0
M  V30 9436 C 905.053 0.640527 -1.47601 0
M  V30 9437 O 906.245 0.498386 -1.69838 0
M  V30 9438 C 903.374 0.67003 -3.36698 0
M  V30 9439 C 902.46 -0.163517 -4.23785 0
M  V30 9440 N 902.851 -1.22472 -4.90749 0
M  V30 9441 C 901.149 0.0554547 -4.45966 0
M  V30 9442 C 901.85 -1.73329 -5.55276 0
M  V30 9443 N 900.826 -1.04033 -5.33552 0
M  V30 9444 H 904.628 -0.995525 -2.76526 0
M  V30 9445 H 902.142 -0.643714 -1.49098 0
M  V30 9446 H 904.139 1.12981 -4.01299 0
M  V30 9447 H 902.799 1.48045 -2.88986 0
M  V30 9448 H 903.81 -1.60733 -4.92327 0
M  V30 9449 H 900.487 0.835312 -4.09058 0
M  V30 9450 H 901.877 -2.62 -6.18713 0
M  V30 9451 N 904.597 1.47463 -0.556102 0
M  V30 9452 C 905.56 2.28478 0.181743 0
M  V30 9453 C 906.56 1.36886 0.843738 0
M  V30 9454 O 907.75 1.59527 0.69977 0
M  V30 9455 C 904.882 3.16534 1.26566 0
M  V30 9456 H 906.075 2.95182 -0.529892 0
M  V30 9457 H 903.628 1.53134 -0.313005 0
M  V30 9458 H 904.363 2.5452 2.00973 0
M  V30 9459 H 904.148 3.83939 0.795798 0
M  V30 9460 H 905.638 3.77579 1.78393 0
M  V30 9461 N 906.075 0.2925 1.54862 0
M  V30 9462 C 907.323 -0.318633 1.99572 0
M  V30 9463 C 907.644 -1.55062 1.1824 0
M  V30 9464 O 906.914 -1.93943 0.276226 0
M  V30 9465 H 905.494 -0.120722 0.737181 0
M  V30 9466 H 908.156 0.401862 1.90712 0
M  V30 9467 H 907.252 -0.596542 3.06346 0
M  V30 9468 N 907.553 -1.57587 0.0200696 0
M  V30 9469 C 908.485 -2.06555 -0.993359 0
M  V30 9470 C 909.498 -0.987227 -1.29451 0
M  V30 9471 O 910.687 -1.26361 -1.26075 0
M  V30 9472 C 907.787 -2.4675 -2.3231 0
M  V30 9473 C 906.96 -3.77554 -2.20843 0
M  V30 9474 C 906.019 -4.04397 -3.36674 0
M  V30 9475 O 905.045 -4.7478 -3.13963 0
M  V30 9476 N 906.247 -3.53861 -4.60176 0
M  V30 9477 H 909.012 -2.9412 -0.575617 0
M  V30 9478 H 906.573 -1.61038 -0.166889 0
M  V30 9479 H 908.565 -2.61806 -3.08609 0
M  V30 9480 H 907.135 -1.64598 -2.65756 0
M  V30 9481 H 906.355 -3.72382 -1.29327 0
M  V30 9482 H 907.643 -4.63271 -2.10375 0
M  V30 9483 H 907.041 -2.96904 -4.81523 0
M  V30 9484 H 905.598 -3.74213 -5.33674 0
M  V30 9485 N 909.032 0.252966 -1.55557 0
M  V30 9486 C 909.962 1.31691 -1.9282 0
M  V30 9487 C 910.943 1.50516 -0.7924 0
M  V30 9488 O 912.128 1.63225 -1.05219 0
M  V30 9489 C 909.258 2.67281 -2.21762 0
M  V30 9490 C 908.212 2.6316 -3.37536 0
M  V30 9491 C 907.538 4.02488 -3.52005 0
M  V30 9492 C 908.838 2.20675 -4.73392 0
M  V30 9493 H 910.532 1.00751 -2.81939 0
M  V30 9494 H 908.078 0.483219 -1.3565 0
M  V30 9495 H 910.031 3.41842 -2.46419 0
M  V30 9496 H 908.755 2.99845 -1.29463 0
M  V30 9497 H 907.414 1.91057 -3.12878 0
M  V30 9498 H 907.062 4.32307 -2.57137 0
M  V30 9499 H 906.762 4.00621 -4.29857 0
M  V30 9500 H 908.286 4.78758 -3.78977 0
M  V30 9501 H 909.7 2.84965 -4.97461 0
M  V30 9502 H 908.097 2.29931 -5.54303 0
M  V30 9503 H 909.167 1.15831 -4.70862 0
M  V30 9504 N 910.51 1.48831 0.518367 0
M  V30 9505 C 911.738 1.6112 1.298 0
M  V30 9506 C 912.153 0.275872 1.86774 0
M  V30 9507 O 911.51 -0.736416 1.66983 0
M  V30 9508 C 911.561 2.66675 2.44063 0
M  V30 9509 O 911.282 3.95027 1.89434 0
M  V30 9510 C 912.783 2.8951 3.35706 0
M  V30 9511 H 910.003 0.542916 0.394314 0
M  V30 9512 H 912.547 1.94743 0.624142 0
M  V30 9513 H 910.702 2.35879 3.07311 0
M  V30 9514 H 911.116 4.53031 2.64316 0
M  V30 9515 H 912.59 3.67142 4.12202 0
M  V30 9516 H 913.067 1.98768 3.91648 0
M  V30 9517 H 913.673 3.21656 2.7824 0
M  V30 9518 N 911.988 -0.768124 1.37614 0
M  V30 9519 C 912.951 -1.86314 1.3349 0
M  V30 9520 C 913.951 -1.59025 0.23823 0
M  V30 9521 O 915.141 -1.6704 0.494288 0
M  V30 9522 C 912.273 -3.23519 1.07462 0
M  V30 9523 H 913.466 -1.91382 2.30896 0
M  V30 9524 H 911.019 -0.968267 1.22696 0
M  V30 9525 H 911.754 -3.24127 0.106028 0
M  V30 9526 H 911.539 -3.44719 1.86846 0
M  V30 9527 H 913.029 -4.03597 1.07236 0
M  V30 9528 N 913.466 -1.22244 -0.994698 0
M  V30 9529 C 914.712 -1.04746 -1.73655 0
M  V30 9530 C 915.045 0.41668 -1.89677 0
M  V30 9531 O 914.32 1.30897 -1.43862 0
M  V30 9532 C 914.603 -1.75716 -3.14318 0
M  V30 9533 C 914.456 -3.29714 -3.05955 0
M  V30 9534 C 915.775 -1.50809 -4.13455 0
M  V30 9535 H 912.894 -0.381921 -0.630322 0
M  V30 9536 H 915.536 -1.50559 -1.15897 0
M  V30 9537 H 913.686 -1.3677 -3.63629 0
M  V30 9538 H 915.358 -3.78093 -2.64279 0
M  V30 9539 H 913.601 -3.59484 -2.42804 0
M  V30 9540 H 914.272 -3.74547 -4.05485 0
M  V30 9541 H 916.748 -1.84636 -3.72892 0
M  V30 9542 H 915.624 -2.02964 -5.09997 0
M  V30 9543 H 915.885 -0.440292 -4.39902 0
M  V30 9544 N 914.944 1.19125 -1.03184 0
M  V30 9545 C 916.19 1.89428 -0.740857 0
M  V30 9546 C 916.545 1.78302 0.72291 0
M  V30 9547 O 915.838 1.16656 1.51994 0
M  V30 9548 C 916.032 3.39052 -1.13041 0
M  V30 9549 C 915.861 3.64739 -2.6305 0
M  V30 9550 C 914.631 3.82603 -3.30066 0
M  V30 9551 C 916.829 3.66052 -3.61262 0
M  V30 9552 N 914.811 3.95947 -4.69147 0
M  V30 9553 C 916.182 3.85003 -4.85976 0
M  V30 9554 C 918.237 3.49093 -3.55019 0
M  V30 9555 C 916.94 3.88753 -6.05197 0
M  V30 9556 C 918.966 3.54122 -4.73658 0
M  V30 9557 C 918.328 3.73561 -5.97187 0
M  V30 9558 H 914.427 0.71217 -0.323014 0
M  V30 9559 H 917.011 1.43146 -1.31974 0
M  V30 9560 H 915.182 3.8405 -0.579699 0
M  V30 9561 H 916.914 3.96887 -0.791369 0
M  V30 9562 H 913.669 3.81615 -2.80476 0
M  V30 9563 H 914.093 4.06461 -5.41404 0
M  V30 9564 H 918.735 3.33018 -2.60497 0
M  V30 9565 H 916.453 4.03619 -7.00084 0
M  V30 9566 H 920.039 3.42286 -4.70459 0
M  V30 9567 H 918.919 3.7733 -6.87453 0
M  V30 9568 N 916.422 0.810101 1.35185 0
M  V30 9569 C 917.838 0.494269 1.51754 0
M  V30 9570 C 918.038 -0.983907 1.75845 0
M  V30 9571 O 917.094 -1.76882 1.80191 0
M  V30 9572 C 918.407 1.34268 2.69059 0
M  V30 9573 C 919.955 1.33848 2.82938 0
M  V30 9574 C 920.43 2.17109 4.03271 0
M  V30 9575 N 921.921 2.14664 4.10456 0
M  V30 9576 C 922.656 2.75843 5.02691 0
M  V30 9577 N 922.152 3.45962 6.00235 0
M  V30 9578 N 923.945 2.65465 4.95464 0
M  V30 9579 H 916.096 1.76736 1.17805 0
M  V30 9580 H 918.359 0.752429 0.576676 0
M  V30 9581 H 918.065 2.39183 2.57845 0
M  V30 9582 H 917.939 0.998362 3.63748 0
M  V30 9583 H 920.326 0.29716 2.936 0
M  V30 9584 H 920.407 1.72269 1.89095 0
M  V30 9585 H 920.051 3.21283 3.93369 0
M  V30 9586 H 919.981 1.76046 4.96302 0
M  V30 9587 H 922.472 1.63648 3.40628 0
M  V30 9588 H 922.785 3.89922 6.67219 0
M  V30 9589 H 921.13 3.50067 6.00398 0
M  V30 9590 H 924.321 2.1027 4.18215 0
M  V30 9591 H 924.494 3.13433 5.67154 0
M  V30 9592 N 917.9 -1.47166 0.563914 0
M  V30 9593 C 919.316 -1.58018 0.224173 0
M  V30 9594 C 919.516 -1.56163 -1.27339 0
M  V30 9595 O 918.572 -1.4686 -2.05398 0
M  V30 9596 C 919.885 -2.88236 0.856762 0
M  V30 9597 C 921.433 -3.01833 0.82861 0
M  V30 9598 C 921.908 -4.34761 1.44039 0
M  V30 9599 N 923.399 -4.41413 1.40388 0
M  V30 9600 C 924.134 -5.42845 1.84681 0
M  V30 9601 N 923.63 -6.51052 2.3686 0
M  V30 9602 N 925.423 -5.33931 1.75711 0
M  V30 9603 H 917.574 -1.46615 1.53681 0
M  V30 9604 H 919.837 -0.698195 0.64127 0
M  V30 9605 H 919.543 -2.95349 1.90949 0
M  V30 9606 H 919.417 -3.75537 0.353766 0
M  V30 9607 H 921.804 -2.94312 -0.215451 0
M  V30 9608 H 921.885 -2.16056 1.36943 0
M  V30 9609 H 921.529 -4.43037 2.48355 0
M  V30 9610 H 921.459 -5.1928 0.874953 0
M  V30 9611 H 923.95 -3.63811 1.02227 0
M  V30 9612 H 924.263 -7.24633 2.68564 0
M  V30 9613 H 922.608 -6.51924 2.40875 0
M  V30 9614 H 925.799 -4.48295 1.34718 0
M  V30 9615 H 925.972 -6.12841 2.10547 0
M  V30 9616 N 919.378 -0.300708 -1.54705 0
M  V30 9617 C 920.789 0.191995 -1.8571 0
M  V30 9618 C 921.14 1.53447 -1.22264 0
M  V30 9619 O 920.265 2.10054 -0.520226 0
M  V30 9620 C 920.86 0.355148 -3.36933 0
M  V30 9621 C 919.419 0.792071 -3.67972 0
M  V30 9622 C 918.566 -0.099756 -2.77121 0
M  V30 9623 H 921.517 -0.521729 -1.49879 0
M  V30 9624 H 921.538 1.18977 -3.61421 0
M  V30 9625 H 921.05 -0.622075 -3.83082 0
M  V30 9626 H 919.151 1.77986 -3.27341 0
M  V30 9627 H 919.264 0.611661 -4.75179 0
M  V30 9628 H 917.628 0.420909 -2.51198 0
M  V30 9629 H 918.411 -1.07333 -3.2609 0
M  V30 9630 N 920.856 1.57574 -0.0284266 0
M  V30 9631 C 922.104 1.91393 0.649079 0
M  V30 9632 C 922.425 0.905368 1.72708 0
M  V30 9633 O 921.695 -0.0532107 1.95828 0
M  V30 9634 H 920.275 0.70646 0.24274 0
M  V30 9635 H 922.937 1.94752 -0.076066 0
M  V30 9636 H 922.033 2.91988 1.10226 0
M  V30 9637 N 922.334 -0.244713 1.55689 0
M  V30 9638 C 923.297 -1.2864 1.89695 0
M  V30 9639 C 924.297 -1.40969 0.773583 0
M  V30 9640 O 925.487 -1.39632 1.04156 0
M  V30 9641 C 922.619 -2.66379 2.12732 0
M  V30 9642 H 923.812 -0.997033 2.82841 0
M  V30 9643 H 921.365 -0.484103 1.48614 0
M  V30 9644 H 922.1 -3.00452 1.22062 0
M  V30 9645 H 921.885 -2.58812 2.94549 0
M  V30 9646 H 923.375 -3.41592 2.40218 0
M  V30 9647 N 923.813 -1.49104 -0.510467 0
M  V30 9648 C 924.776 -1.64569 -1.59529 0
M  V30 9649 C 925.776 -0.517937 -1.5223 0
M  V30 9650 O 926.966 -0.784183 -1.55551 0
M  V30 9651 C 924.098 -1.6342 -2.99177 0
M  V30 9652 H 925.291 -2.61318 -1.4715 0
M  V30 9653 H 922.844 -1.37993 -0.734001 0
M  V30 9654 H 923.579 -0.68221 -3.17043 0
M  V30 9655 H 923.364 -2.45312 -3.05883 0
M  V30 9656 H 924.854 -1.77474 -3.78011 0
M  V30 9657 N 925.291 0.760815 -1.38019 0
M  V30 9658 C 926.707 1.06289 -1.19058 0
M  V30 9659 C 926.907 2.01471 -0.0342603 0
M  V30 9660 O 925.963 2.44713 0.62224 0
M  V30 9661 C 927.276 1.6499 -2.51394 0
M  V30 9662 C 928.824 1.77196 -2.58013 0
M  V30 9663 C 929.299 2.3931 -3.90506 0
M  V30 9664 N 930.79 2.46749 -3.92007 0
M  V30 9665 C 931.525 2.95687 -4.91281 0
M  V30 9666 N 931.021 3.44715 -6.00952 0
M  V30 9667 N 932.814 2.94661 -4.78677 0
M  V30 9668 H 924.965 0.129045 -2.12008 0
M  V30 9669 H 927.228 0.119878 -0.94039 0
M  V30 9670 H 926.934 1.0252 -3.36426 0
M  V30 9671 H 926.808 2.64146 -2.6927 0
M  V30 9672 H 929.195 2.38796 -1.7338 0
M  V30 9673 H 929.276 0.767645 -2.4401 0
M  V30 9674 H 928.92 1.78346 -4.75558 0
M  V30 9675 H 928.85 3.40369 -4.01817 0
M  V30 9676 H 931.341 2.12064 -3.12789 0
M  V30 9677 H 931.654 3.80492 -6.72641 0
M  V30 9678 H 929.999 3.42791 -6.04582 0
M  V30 9679 H 933.19 2.55665 -3.92113 0
M  V30 9680 H 933.363 3.32489 -5.56197 0
M  V30 9681 N 926.769 1.22769 0.988202 0
M  V30 9682 C 927.732 1.00325 2.06076 0
M  V30 9683 C 928.732 -0.0320618 1.60768 0
M  V30 9684 O 929.922 0.206912 1.72967 0
M  V30 9685 C 927.054 0.516376 3.36966 0
M  V30 9686 H 928.247 1.95499 2.27421 0
M  V30 9687 H 925.8 1.04704 1.16047 0
M  V30 9688 H 926.535 -0.439498 3.21308 0
M  V30 9689 H 926.32 1.26337 3.71189 0
M  V30 9690 H 927.81 0.37974 4.1587 0
M  V30 9691 N 928.247 -1.18576 1.03814 0
M  V30 9692 C 929.658 -1.70159 0.768299 0
M  V30 9693 C 930.009 -1.8286 -0.711106 0
M  V30 9694 O 929.134 -1.5063 -1.55369 0
M  V30 9695 C 929.729 -3.09062 1.38804 0
M  V30 9696 C 928.288 -3.57866 1.16656 0
M  V30 9697 C 927.435 -2.34484 1.48029 0
M  V30 9698 H 930.386 -1.03287 1.20488 0
M  V30 9699 H 930.407 -3.72211 0.7899 0
M  V30 9700 H 929.919 -2.99785 2.46476 0
M  V30 9701 H 928.02 -3.72442 0.108471 0
M  V30 9702 H 928.133 -4.41445 1.8618 0
M  V30 9703 H 926.497 -2.38273 0.899902 0
M  V30 9704 H 927.28 -2.27829 2.56805 0
M  V30 9705 O 929.764 -0.952659 -1.3041 0
M  V30 9706 H 930.455 -0.5852 -1.84649 0
M  V30 END ATOM
M  V30 BEGIN BOND
M  V30 END BOND
M  V30 END CTAB
M  END
$$$$
