drugbank_target|B7JA91 Uncharacterized protein (DB02580)
 OpenBabel12092120503D

  0  0  0     0  0            999 V3000
M  V30 BEGIN CTAB
M  V30 COUNTS 2497 2524 0 0 0
M  V30 BEGIN ATOM
M  V30 1 H -0.908 1.98254 -0.117106 0
M  V30 2 N 0 1.576 0 0
M  V30 3 C 0.933 2.03868 1.02534 0
M  V30 4 C 1.911 0.928543 1.3348 0
M  V30 5 O 3.095 1.19667 1.45644 0
M  V30 6 C 0.222 2.43627 2.35294 0
M  V30 7 C -0.732 3.65373 2.2001 0
M  V30 8 S 0.101 5.13292 1.52614 0
M  V30 9 C 1.257 5.56322 2.86805 0
M  V30 10 H 1.49 2.90518 0.631377 0
M  V30 11 H -0.977 1.52953 0.210867 0
M  V30 12 H 0.981 2.67203 3.11629 0
M  V30 13 H -0.358 1.57376 2.7183 0
M  V30 14 H -1.165 3.90944 3.18086 0
M  V30 15 H -1.563 3.418 1.51819 0
M  V30 16 H 0.729 5.58782 3.83104 0
M  V30 17 H 1.672 6.56266 2.65933 0
M  V30 18 H 2.08 4.83886 2.90714 0
M  V30 19 N 1.4781 -0.272755 1.55222 0
M  V30 20 C 2.8891 -0.84378 1.66545 0
M  V30 21 C 3.2401 -1.87035 0.592641 0
M  V30 22 O 2.3651 -2.14761 -0.265818 0
M  V30 23 C 2.9601 -1.53723 3.01918 0
M  V30 24 C 1.5191 -2.05628 3.15268 0
M  V30 25 C 0.6661 -0.898424 2.62343 0
M  V30 26 H 3.6171 -0.0490998 1.58624 0
M  V30 27 H 3.6381 -2.40421 2.94921 0
M  V30 28 H 3.1501 -0.78983 3.79978 0
M  V30 29 H 1.2511 -2.83329 2.41983 0
M  V30 30 H 1.3641 -2.27142 4.21833 0
M  V30 31 H -0.2719 -1.29186 2.19506 0
M  V30 32 H 0.5111 -0.164528 3.42906 0
M  V30 33 N 2.9562 -1.48159 -0.537278 0
M  V30 34 C 3.8662 -1.64807 -1.6696 0
M  V30 35 C 4.8822 -0.530651 -1.65711 0
M  V30 36 O 6.0582 -0.800784 -1.84796 0
M  V30 37 C 3.1232 -1.67708 -3.03438 0
M  V30 38 C 2.1842 -2.91025 -3.156 0
M  V30 39 C 1.4172 -2.93778 -4.45567 0
M  V30 40 O 1.6402 -2.05153 -5.3223 0
M  V30 41 O 0.5742 -3.85868 -4.61941 0
M  V30 42 H 4.4002 -2.6066 -1.55853 0
M  V30 43 H 1.9852 -1.31475 -0.709549 0
M  V30 44 H 3.8672 -1.7218 -3.84619 0
M  V30 45 H 2.5422 -0.750278 -3.14885 0
M  V30 46 H 1.4492 -2.92089 -2.33741 0
M  V30 47 H 2.7822 -3.83065 -3.09066 0
M  V30 48 N 4.4343 0.785586 -1.36625 0
M  V30 49 C 5.3823 1.91978 -1.31329 0
M  V30 50 C 6.3763 1.68162 -0.204416 0
M  V30 51 O 7.5823 1.76122 -0.371645 0
M  V30 52 H 3.9573 0.631087 -0.408942 0
M  V30 53 H 5.9283 1.93562 -2.27104 0
M  V30 54 C 4.6773 3.29055 -1.12329 0
M  V30 55 H 4.0003 3.4795 -1.96903 0
M  V30 56 H 5.4403 4.08756 -1.12671 0
M  V30 57 C 3.8993 3.36461 0.171861 0
M  V30 58 O 4.4293 3.84576 1.16035 0
M  V30 59 N 2.6353 2.89782 0.217846 0
M  V30 60 H 2.1823 2.50819 -0.587183 0
M  V30 61 H 2.1403 2.95119 1.08408 0
M  V30 62 N 5.9124 1.20967 1.01018 0
M  V30 63 C 7.1404 1.04956 1.78303 0
M  V30 64 C 7.5554 -0.400915 1.84494 0
M  V30 65 O 6.9124 -1.27826 1.30257 0
M  V30 66 C 6.9634 1.63403 3.22462 0
M  V30 67 O 6.6844 3.02775 3.16637 0
M  V30 68 C 8.1854 1.52432 4.16268 0
M  V30 69 H 5.4054 0.368858 0.560522 0
M  V30 70 H 7.9494 1.60193 1.27116 0
M  V30 71 H 6.1044 1.1227 3.70775 0
M  V30 72 H 6.5184 3.30626 4.07169 0
M  V30 73 H 7.9924 1.98078 5.15237 0
M  V30 74 H 8.4694 0.477875 4.36592 0
M  V30 75 H 9.0754 2.02787 3.73841 0
M  V30 76 N 7.3905 -1.2043 1.01659 0
M  V30 77 C 8.3535 -2.21433 0.591616 0
M  V30 78 C 9.3535 -1.57203 -0.338226 0
M  V30 79 O 10.5435 -1.73737 -0.126918 0
M  V30 80 C 7.6755 -3.40628 -0.136058 0
M  V30 81 H 8.8685 -2.60545 1.48514 0
M  V30 82 H 6.4215 -1.33893 0.806379 0
M  V30 83 H 7.1565 -3.07019 -1.04449 0
M  V30 84 H 6.9415 -3.88475 0.531917 0
M  V30 85 H 8.4315 -4.15475 -0.420735 0
M  V30 86 N 8.8686 -0.792821 -1.36206 0
M  V30 87 C 9.8016 -0.139422 -2.27774 0
M  V30 88 C 10.7796 0.68649 -1.47398 0
M  V30 89 O 11.9636 0.656738 -1.7669 0
M  V30 90 C 9.0906 0.807947 -3.28922 0
M  V30 91 C 8.1366 0.0633999 -4.26453 0
M  V30 92 S 8.9696 -1.26319 -5.20388 0
M  V30 93 C 10.1256 -0.31991 -6.25082 0
M  V30 94 H 10.3586 -0.915809 -2.82843 0
M  V30 95 H 7.8916 -0.587203 -1.42798 0
M  V30 96 H 9.8496 1.34908 -3.87699 0
M  V30 97 H 8.5106 1.55761 -2.72759 0
M  V30 98 H 7.7036 0.782386 -4.9789 0
M  V30 99 H 7.3056 -0.407352 -3.71775 0
M  V30 100 H 9.5976 0.499985 -6.75653 0
M  V30 101 H 10.5406 -1.00307 -7.00959 0
M  V30 102 H 10.9486 0.0782694 -5.64446 0
M  V30 103 N 10.3467 1.47872 -0.545128 0
M  V30 104 C 11.3097 2.28337 0.198717 0
M  V30 105 C 12.3097 1.36255 0.853888 0
M  V30 106 O 13.4997 1.59003 0.711606 0
M  V30 107 C 10.6317 3.15585 1.28915 0
M  V30 108 H 11.8247 2.95567 -0.507941 0
M  V30 109 H 9.3777 1.53362 -0.301616 0
M  V30 110 H 10.1127 2.53019 2.02859 0
M  V30 111 H 9.8977 3.83337 0.824309 0
M  V30 112 H 11.3877 3.76243 1.81194 0
M  V30 113 N 11.8248 0.280983 1.55075 0
M  V30 114 C 12.7878 -0.590896 2.21452 0
M  V30 115 C 13.7878 -1.07682 1.19421 0
M  V30 116 O 14.9778 -0.97605 1.44288 0
M  V30 117 C 12.1098 -1.81587 2.88511 0
M  V30 118 H 13.3028 -0.0112554 2.99898 0
M  V30 119 H 10.8558 0.0316438 1.56268 0
M  V30 120 H 11.5908 -2.43587 2.14093 0
M  V30 121 H 11.3758 -1.4753 3.63287 0
M  V30 122 H 12.8658 -2.43575 3.39206 0
M  V30 123 N 13.3029 -1.57598 0.00835791 0
M  V30 124 C 14.2329 -2.1198 -0.979113 0
M  V30 125 C 15.2139 -1.03091 -1.35301 0
M  V30 126 O 16.3989 -1.30818 -1.43528 0
M  V30 127 C 13.5289 -2.62995 -2.26828 0
M  V30 128 C 12.4829 -3.76485 -2.03576 0
M  V30 129 C 11.8089 -4.13846 -3.38579 0
M  V30 130 C 13.1089 -5.0342 -1.39161 0
M  V30 131 H 14.8029 -2.94738 -0.526281 0
M  V30 132 H 12.3489 -1.41783 -0.251704 0
M  V30 133 H 14.3019 -2.99669 -2.96271 0
M  V30 134 H 13.0259 -1.7737 -2.7424 0
M  V30 135 H 11.6849 -3.40217 -1.36557 0
M  V30 136 H 11.3329 -3.25232 -3.83709 0
M  V30 137 H 11.0329 -4.90312 -3.23834 0
M  V30 138 H 12.5569 -4.53086 -4.09323 0
M  V30 139 H 13.9709 -5.37812 -1.98573 0
M  V30 140 H 12.3679 -5.84746 -1.34878 0
M  V30 141 H 13.4379 -4.83548 -0.361868 0
M  V30 142 N 14.781 0.264519 -1.55364 0
M  V30 143 C 15.711 1.33121 -1.91836 0
M  V30 144 C 16.692 1.51101 -0.781192 0
M  V30 145 O 17.877 1.64003 -1.04003 0
M  V30 146 C 15.007 2.68921 -2.19769 0
M  V30 147 C 13.961 2.65661 -3.35571 0
M  V30 148 C 13.287 4.05093 -3.49004 0
M  V30 149 C 14.587 2.24187 -4.71739 0
M  V30 150 H 16.281 1.02844 -2.81182 0
M  V30 151 H 13.827 0.493286 -1.35287 0
M  V30 152 H 15.78 3.43663 -2.43872 0
M  V30 153 H 14.504 3.00799 -1.27231 0
M  V30 154 H 13.163 1.93377 -3.1145 0
M  V30 155 H 12.811 4.34206 -2.53917 0
M  V30 156 H 12.511 4.03804 -4.26868 0
M  V30 157 H 14.035 4.81561 -3.75408 0
M  V30 158 H 15.449 2.88654 -4.9533 0
M  V30 159 H 13.846 2.34044 -5.52579 0
M  V30 160 H 14.916 1.19327 -4.69988 0
M  V30 161 N 16.2591 1.48442 0.529413 0
M  V30 162 C 17.6701 1.5002 1.11134 0
M  V30 163 C 18.0211 0.27031 1.94329 0
M  V30 164 O 17.1461 -0.622507 2.07253 0
M  V30 165 C 17.7411 2.71834 2.02217 0
M  V30 166 C 16.3001 2.76283 2.55627 0
M  V30 167 C 15.4471 2.43542 1.326 0
M  V30 168 H 18.3981 1.5555 0.314641 0
M  V30 169 H 18.4191 2.50384 2.8651 0
M  V30 170 H 17.9311 3.61331 1.41639 0
M  V30 171 H 16.0321 1.90995 3.19924 0
M  V30 172 H 16.1451 3.77725 2.94721 0
M  V30 173 H 14.5091 1.94709 1.64196 0
M  V30 174 H 15.2921 3.3528 0.737734 0
M  V30 175 N 17.7372 -0.778329 1.37039 0
M  V30 176 C 18.6472 -1.92253 1.34446 0
M  V30 177 C 19.6632 -1.72267 0.244991 0
M  V30 178 O 20.8392 -1.95615 0.479258 0
M  V30 179 C 17.9042 -3.27282 1.144 0
M  V30 180 C 16.9652 -3.59969 2.33925 0
M  V30 181 C 16.1982 -4.88555 2.14825 0
M  V30 182 O 16.4212 -5.59113 1.12912 0
M  V30 183 O 15.3552 -5.20153 3.02861 0
M  V30 184 H 19.1812 -1.97392 2.30803 0
M  V30 185 H 16.7662 -0.920154 1.17701 0
M  V30 186 H 18.6482 -4.08062 1.05182 0
M  V30 187 H 17.3232 -3.23011 0.211124 0
M  V30 188 H 16.2302 -2.7945 2.48714 0
M  V30 189 H 17.5632 -3.68976 3.25757 0
M  V30 190 N 19.2153 -1.21501 -1.00376 0
M  V30 191 C 20.1253 -0.991447 -2.12621 0
M  V30 192 C 21.1413 0.0568446 -1.73907 0
M  V30 193 O 22.3173 -0.13348 -2.00957 0
M  V30 194 C 19.3823 -0.560312 -3.42142 0
M  V30 195 C 18.4433 -1.68096 -3.95022 0
M  V30 196 C 17.6763 -1.2703 -5.18362 0
M  V30 197 O 17.8993 -0.144438 -5.70217 0
M  V30 198 O 16.8333 -2.08269 -5.64719 0
M  V30 199 H 20.6593 -1.93158 -2.34358 0
M  V30 200 H 18.2443 -0.999999 -1.10997 0
M  V30 201 H 20.1263 -0.329724 -4.20108 0
M  V30 202 H 18.8013 0.351089 -3.2179 0
M  V30 203 H 17.7083 -1.96597 -3.18278 0
M  V30 204 H 19.0413 -2.56983 -4.19786 0
M  V30 205 N 20.6934 1.19889 -1.02296 0
M  V30 206 C 21.9184 1.9393 -0.735237 0
M  V30 207 C 22.3434 1.74639 0.698782 0
M  V30 208 O 21.7014 1.04481 1.48167 0
M  V30 209 C 21.7494 3.43916 -1.08417 0
M  V30 210 O 20.8534 4.11917 -0.199446 0
M  V30 211 H 20.1944 0.605645 -0.272196 0
M  V30 212 H 22.7244 1.52137 -1.36804 0
M  V30 213 H 22.7344 3.9456 -1.03856 0
M  V30 214 H 21.4094 3.5728 -2.12894 0
M  V30 215 H 19.9864 3.71666 -0.303136 0
M  V30 216 N 22.1715 0.800033 1.35784 0
M  V30 217 C 23.1015 0.220184 2.3246 0
M  V30 218 C 24.0825 -0.65073 1.57161 0
M  V30 219 O 25.2675 -0.582359 1.85263 0
M  V30 220 C 22.3975 -0.637353 3.41402 0
M  V30 221 C 21.3515 0.134531 4.27789 0
M  V30 222 C 20.6775 -0.844285 5.27992 0
M  V30 223 C 21.9775 1.32979 5.05088 0
M  V30 224 H 23.6715 1.02787 2.81203 0
M  V30 225 H 21.2175 0.495717 1.35199 0
M  V30 226 H 23.1705 -1.05302 4.08031 0
M  V30 227 H 21.8945 -1.47785 2.91251 0
M  V30 228 H 20.5535 0.531296 3.6273 0
M  V30 229 H 20.2015 -1.68011 4.74111 0
M  V30 230 H 19.9015 -0.332184 5.8666 0
M  V30 231 H 21.4255 -1.2583 5.97494 0
M  V30 232 H 22.8395 0.98934 5.64699 0
M  V30 233 H 21.2365 1.77593 5.7322 0
M  V30 234 H 22.3065 2.11978 4.36111 0
M  V30 235 N 23.6496 -1.47581 0.552962 0
M  V30 236 C 24.8966 -2.02482 0.0273243 0
M  V30 237 C 25.2246 -1.42776 -1.32081 0
M  V30 238 O 24.4796 -0.571393 -1.87173 0
M  V30 239 C 24.7786 -3.57199 -0.119728 0
M  V30 240 C 24.4446 -4.35804 1.15697 0
M  V30 241 C 23.1066 -4.57 1.50681 0
M  V30 242 C 25.4586 -4.81167 2.00319 0
M  V30 243 C 22.7866 -5.20807 2.70142 0
M  V30 244 C 25.1386 -5.46293 3.18978 0
M  V30 245 C 23.8026 -5.65722 3.54281 0
M  V30 246 H 23.0726 -0.740933 0.00999866 0
M  V30 247 H 25.7196 -1.77302 0.72362 0
M  V30 248 H 24.0246 -3.81348 -0.89896 0
M  V30 249 H 25.7216 -3.97324 -0.541718 0
M  V30 250 H 22.3116 -4.19582 0.874561 0
M  V30 251 H 26.4956 -4.64574 1.74599 0
M  V30 252 H 21.7516 -5.34045 2.97668 0
M  V30 253 H 25.9256 -5.80407 3.84838 0
M  V30 254 H 23.5526 -6.14936 4.46942 0
M  V30 255 N 25.1277 -0.289203 -1.54924 0
M  V30 256 C 26.3747 0.323519 -1.99899 0
M  V30 257 C 26.7027 1.54797 -1.17762 0
M  V30 258 O 25.9577 1.94237 -0.238835 0
M  V30 259 C 26.2567 0.736119 -3.49737 0
M  V30 260 C 25.9227 -0.385276 -4.49251 0
M  V30 261 C 24.5847 -0.693156 -4.76181 0
M  V30 262 C 26.9367 -1.14021 -5.08575 0
M  V30 263 C 24.2647 -1.7593 -5.59701 0
M  V30 264 C 26.6167 -2.19619 -5.93254 0
M  V30 265 C 25.2807 -2.51026 -6.185 0
M  V30 266 H 24.5507 0.118384 -0.731482 0
M  V30 267 H 27.1977 -0.405847 -1.8715 0
M  V30 268 H 25.5027 1.54539 -3.60035 0
M  V30 269 H 27.1997 1.22118 -3.81953 0
M  V30 270 H 23.7897 -0.135202 -4.28387 0
M  V30 271 H 27.9737 -0.915611 -4.87781 0
M  V30 272 H 23.2297 -2.0075 -5.77503 0
M  V30 273 H 27.4037 -2.78581 -6.38252 0
M  V30 274 H 25.0307 -3.33772 -6.83008 0
M  V30 275 N 26.6058 1.57591 -0.0167156 0
M  V30 276 C 28.0218 1.55946 0.339557 0
M  V30 277 C 28.2218 1.02109 1.73713 0
M  V30 278 O 27.2778 0.662303 2.43659 0
M  V30 279 C 28.5908 3.00037 0.199499 0
M  V30 280 C 30.1388 3.11805 0.273193 0
M  V30 281 C 30.6138 4.57713 0.162068 0
M  V30 282 N 32.1048 4.6268 0.219444 0
M  V30 283 C 32.8398 5.73185 0.157054 0
M  V30 284 N 32.3358 6.92786 0.0442936 0
M  V30 285 N 34.1288 5.61707 0.21014 0
M  V30 286 H 26.2798 1.90921 -0.930758 0
M  V30 287 H 28.5428 0.877674 -0.358319 0
M  V30 288 H 28.2488 3.4333 -0.76273 0
M  V30 289 H 28.1228 3.64387 0.974786 0
M  V30 290 H 30.5098 2.68433 1.22587 0
M  V30 291 H 30.5908 2.50201 -0.532256 0
M  V30 292 H 30.2348 5.01763 -0.78714 0
M  V30 293 H 30.1648 5.17283 0.986222 0
M  V30 294 H 32.6558 3.76649 0.307246 0
M  V30 295 H 32.9688 7.728 0.00304069 0
M  V30 296 H 31.3138 6.94999 0.00968457 0
M  V30 297 H 34.5048 4.6716 0.296546 0
M  V30 298 H 34.6778 6.47807 0.158054 0
M  V30 299 N 28.0839 -0.256276 1.55502 0
M  V30 300 C 28.9939 -1.33882 1.92647 0
M  V30 301 C 30.0099 -1.53159 0.825727 0
M  V30 302 O 31.1859 -1.66963 1.12629 0
M  V30 303 C 28.2509 -2.6751 2.20543 0
M  V30 304 C 27.3119 -2.56836 3.43997 0
M  V30 305 C 26.5449 -3.84092 3.70553 0
M  V30 306 O 26.7679 -4.85545 2.99336 0
M  V30 307 O 25.7019 -3.83288 4.64084 0
M  V30 308 H 29.5279 -1.05374 2.84833 0
M  V30 309 H 27.1129 -0.456237 1.42263 0
M  V30 310 H 28.9949 -3.46492 2.39835 0
M  V30 311 H 27.6699 -2.9577 1.31536 0
M  V30 312 H 26.5769 -1.76172 3.30021 0
M  V30 313 H 27.9099 -2.33523 4.33275 0
M  V30 314 N 29.562 -1.4872 -0.521534 0
M  V30 315 C 30.492 -1.66771 -1.63431 0
M  V30 316 C 31.473 -0.516499 -1.62069 0
M  V30 317 O 32.658 -0.750013 -1.79132 0
M  V30 318 C 29.788 -1.71515 -3.01993 0
M  V30 319 C 28.742 -2.86222 -3.18216 0
M  V30 320 C 28.068 -2.76061 -4.57924 0
M  V30 321 C 29.368 -4.27419 -3.00184 0
M  V30 322 H 31.062 -2.59932 -1.48579 0
M  V30 323 H 28.608 -1.25089 -0.713358 0
M  V30 324 H 30.561 -1.82731 -3.7972 0
M  V30 325 H 29.285 -0.749393 -3.17886 0
M  V30 326 H 27.944 -2.74575 -2.42908 0
M  V30 327 H 27.592 -1.77437 -4.70665 0
M  V30 328 H 27.292 -3.53037 -4.69722 0
M  V30 329 H 28.816 -2.89256 -5.37739 0
M  V30 330 H 30.23 -4.39855 -3.67697 0
M  V30 331 H 28.627 -5.05458 -3.2347 0
M  V30 332 H 29.697 -4.43293 -1.96518 0
M  V30 333 N 31.0401 0.771051 -1.3745 0
M  V30 334 C 32.2861 1.5319 -1.32894 0
M  V30 335 C 32.6191 1.94008 0.0862511 0
M  V30 336 O 31.8941 1.64124 1.04373 0
M  V30 337 C 32.1771 2.79648 -2.26868 0
M  V30 338 C 32.0301 2.45079 -3.77169 0
M  V30 339 C 33.3491 3.81583 -2.19277 0
M  V30 340 H 30.4681 0.555744 -0.484064 0
M  V30 341 H 33.1101 0.884492 -1.68157 0
M  V30 342 H 31.2601 3.34891 -1.96926 0
M  V30 343 H 32.9321 1.95745 -4.1771 0
M  V30 344 H 31.1751 1.77767 -3.95704 0
M  V30 345 H 31.8461 3.35478 -4.38359 0
M  V30 346 H 34.3221 3.35835 -2.45671 0
M  V30 347 H 33.1981 4.67787 -2.87171 0
M  V30 348 H 33.4591 4.25897 -1.18592 0
M  V30 349 N 32.5182 1.22032 0.997298 0
M  V30 350 C 33.4652 0.986467 2.08656 0
M  V30 351 C 34.4352 -0.0902671 1.65855 0
M  V30 352 O 35.6202 0.0584294 1.90711 0
M  V30 353 C 32.7602 0.565569 3.40434 0
M  V30 354 C 31.8732 1.71259 3.96604 0
M  V30 355 C 31.0082 1.24011 5.16522 0
M  V30 356 C 30.0472 2.35896 5.64818 0
M  V30 357 N 29.1842 1.89726 6.7598 0
M  V30 358 H 34.0242 1.91892 2.27994 0
M  V30 359 H 31.5612 0.956199 1.11782 0
M  V30 360 H 33.5192 0.302738 4.161 0
M  V30 361 H 32.1492 -0.329879 3.2111 0
M  V30 362 H 31.2012 2.08986 3.17851 0
M  V30 363 H 32.5132 2.55436 4.28432 0
M  V30 364 H 31.6672 0.934395 5.99461 0
M  V30 365 H 30.4062 0.368487 4.86306 0
M  V30 366 H 29.4112 2.67261 4.8047 0
M  V30 367 H 30.6362 3.23567 5.97061 0
M  V30 368 H 28.5822 1.0492 6.47555 0
M  V30 369 H 28.4992 2.67471 7.07103 0
M  V30 370 H 29.7672 1.62211 7.62435 0
M  V30 371 N 33.9963 -1.19345 1.0293 0
M  V30 372 C 34.9283 -2.22036 0.56857 0
M  V30 373 C 35.9413 -1.58865 -0.355779 0
M  V30 374 O 37.1303 -1.77851 -0.152103 0
M  V30 375 C 34.2303 -3.38363 -0.190752 0
M  V30 376 C 33.4033 -4.31118 0.738643 0
M  V30 377 C 32.4623 -5.26194 0.0246497 0
M  V30 378 O 31.4883 -5.65461 0.651354 0
M  V30 379 N 32.6903 -5.66971 -1.24594 0
M  V30 380 H 35.4553 -2.6219 1.45177 0
M  V30 381 H 33.0163 -1.34015 0.908381 0
M  V30 382 H 35.0083 -3.98981 -0.677961 0
M  V30 383 H 33.5783 -2.96994 -0.975366 0
M  V30 384 H 32.7983 -3.68276 1.40593 0
M  V30 385 H 34.0863 -4.90001 1.37029 0
M  V30 386 H 33.4843 -5.37104 -1.77583 0
M  V30 387 H 32.0413 -6.2984 -1.67764 0
M  V30 388 N 35.4744 -0.807222 -1.35358 0
M  V30 389 C 36.7204 -0.397594 -1.99476 0
M  V30 390 C 37.0754 1.02405 -1.62883 0
M  V30 391 O 36.3684 1.70077 -0.882282 0
M  V30 392 C 36.5624 -0.519036 -3.53611 0
M  V30 393 C 36.3914 -1.95094 -4.05177 0
M  V30 394 C 35.1614 -2.57945 -4.34503 0
M  V30 395 C 37.3594 -2.91558 -4.23673 0
M  V30 396 N 35.3414 -3.92539 -4.72003 0
M  V30 397 C 36.7124 -4.11024 -4.64176 0
M  V30 398 C 38.7674 -2.88381 -4.05883 0
M  V30 399 C 37.4704 -5.27745 -4.88751 0
M  V30 400 C 39.4964 -4.04306 -4.31614 0
M  V30 401 C 38.8584 -5.22519 -4.72391 0
M  V30 402 H 34.9574 -0.193274 -0.75774 0
M  V30 403 H 37.5414 -1.0486 -1.6405 0
M  V30 404 H 35.7124 0.101979 -3.88266 0
M  V30 405 H 37.4444 -0.0839321 -4.04613 0
M  V30 406 H 34.1994 -2.09295 -4.24844 0
M  V30 407 H 34.6234 -4.61836 -4.95011 0
M  V30 408 H 39.2654 -1.98137 -3.73499 0
M  V30 409 H 36.9834 -6.1856 -5.20008 0
M  V30 410 H 40.5694 -4.03229 -4.19402 0
M  V30 411 H 39.4494 -6.1073 -4.91913 0
M  V30 412 N 36.9525 1.47285 -0.560781 0
M  V30 413 C 38.3685 1.58065 -0.22081 0
M  V30 414 C 38.5685 1.55892 1.27671 0
M  V30 415 O 37.6245 1.46422 2.0571 0
M  V30 416 C 38.9375 2.88418 -0.850625 0
M  V30 417 C 40.4855 3.02009 -0.822184 0
M  V30 418 C 40.9605 4.35066 -1.43113 0
M  V30 419 N 42.4515 4.41711 -1.39448 0
M  V30 420 C 43.1865 5.43237 -1.83525 0
M  V30 421 N 42.6825 6.51555 -2.35474 0
M  V30 422 N 44.4755 5.34304 -1.74574 0
M  V30 423 H 36.6265 1.46941 -1.53369 0
M  V30 424 H 38.8895 0.699558 -0.639783 0
M  V30 425 H 38.5955 2.95755 -1.9032 0
M  V30 426 H 38.4695 3.75612 -0.345773 0
M  V30 427 H 40.8565 2.94266 0.221714 0
M  V30 428 H 40.9375 2.16347 -1.36483 0
M  V30 429 H 40.5815 4.43565 -2.47412 0
M  V30 430 H 40.5115 5.19465 -0.863899 0
M  V30 431 H 43.0025 3.64027 -1.01452 0
M  V30 432 H 43.3155 7.25203 -2.67021 0
M  V30 433 H 41.6605 6.52435 -2.39487 0
M  V30 434 H 44.8515 4.48581 -1.33763 0
M  V30 435 H 45.0245 6.13288 -2.09242 0
M  V30 436 N 38.4306 0.297415 1.54768 0
M  V30 437 C 39.3936 -0.567375 2.22066 0
M  V30 438 C 40.3936 -1.06409 1.20556 0
M  V30 439 O 41.5836 -0.960691 1.45315 0
M  V30 440 C 38.7156 -1.78517 2.90421 0
M  V30 441 H 39.9086 0.0205534 2.99893 0
M  V30 442 H 37.4616 0.0482163 1.56226 0
M  V30 443 H 38.1966 -2.41303 2.16664 0
M  V30 444 H 37.9816 -1.43669 3.64831 0
M  V30 445 H 39.4716 -2.39964 3.41771 0
M  V30 446 N 39.9087 -1.5758 0.0250728 0
M  V30 447 C 40.8407 -2.06869 -0.986796 0
M  V30 448 C 41.8537 -0.991332 -1.29137 0
M  V30 449 O 43.0427 -1.26761 -1.25674 0
M  V30 450 C 40.1427 -2.47486 -2.31525 0
M  V30 451 C 39.3157 -3.78253 -2.19643 0
M  V30 452 C 38.3747 -4.05464 -3.35388 0
M  V30 453 O 37.4007 -4.75774 -3.12454 0
M  V30 454 N 38.6027 -3.55321 -4.59051 0
M  V30 455 H 41.3677 -2.94302 -0.566276 0
M  V30 456 H 38.9287 -1.6109 -0.161776 0
M  V30 457 H 40.9207 -2.62785 -3.07776 0
M  V30 458 H 39.4907 -1.65441 -2.65232 0
M  V30 459 H 38.7107 -3.7279 -1.28144 0
M  V30 460 H 39.9987 -4.63936 -2.08903 0
M  V30 461 H 39.3967 -2.98431 -4.80578 0
M  V30 462 H 37.9537 -3.75905 -5.32483 0
M  V30 463 N 41.3868 0.248026 -1.55636 0
M  V30 464 C 42.6638 0.998988 -1.68165 0
M  V30 465 C 43.0438 2.03409 -0.564621 0
M  V30 466 O 42.3918 2.24378 0.432076 0
M  V30 467 C 42.6018 1.63334 -3.0842 0
M  V30 468 C 43.9498 2.13562 -3.66983 0
M  V30 469 O 44.9738 1.73277 -3.11213 0
M  V30 470 O 43.8328 2.87526 -4.64749 0
M  V30 471 H 40.9268 0.464933 -0.683935 0
M  V30 472 H 43.4728 0.241902 -1.67967 0
M  V30 473 H 42.2448 0.884583 -3.8117 0
M  V30 474 H 41.8678 2.45666 -3.12624 0
M  V30 475 N 42.8649 1.48995 0.513639 0
M  V30 476 C 44.0899 1.61792 1.29762 0
M  V30 477 C 44.5149 0.284475 1.85936 0
M  V30 478 O 43.8729 -0.746185 1.65232 0
M  V30 479 C 43.9209 2.67993 2.41272 0
M  V30 480 O 43.0249 2.26287 3.44772 0
M  V30 481 H 42.3659 0.541963 0.38363 0
M  V30 482 H 44.8959 1.95097 0.616307 0
M  V30 483 H 44.9059 2.89772 2.87221 0
M  V30 484 H 43.5809 3.64791 1.9975 0
M  V30 485 H 42.1579 2.14788 3.04829 0
M  V30 486 N 44.343 -0.763751 1.37857 0
M  V30 487 C 45.573 -1.55067 1.3652 0
M  V30 488 C 45.981 -1.89135 -0.0494227 0
M  V30 489 O 45.324 -1.52529 -1.02375 0
M  V30 490 C 45.386 -2.8838 2.14656 0
M  V30 491 C 45.05 -2.76905 3.63555 0
M  V30 492 C 46.047 -2.4739 4.57268 0
M  V30 493 C 43.732 -2.94676 4.06781 0
M  V30 494 C 45.726 -2.35786 5.92186 0
M  V30 495 C 43.413 -2.82692 5.41782 0
M  V30 496 C 44.411 -2.53289 6.34298 0
M  V30 497 O 44.099 -2.41345 7.66817 0
M  V30 498 H 43.831 -0.486776 0.469069 0
M  V30 499 H 46.385 -0.953812 1.81911 0
M  V30 500 H 44.615 -3.50217 1.63967 0
M  V30 501 H 46.304 -3.49828 2.05852 0
M  V30 502 H 47.07 -2.33339 4.2518 0
M  V30 503 H 42.949 -3.16563 3.35126 0
M  V30 504 H 46.493 -2.12757 6.64365 0
M  V30 505 H 42.39 -2.96314 5.7347 0
M  V30 506 H 43.158 -2.56634 7.77226 0
M  V30 507 N 45.8211 -1.22559 -0.990812 0
M  V30 508 C 47.0691 -1.04933 -1.72724 0
M  V30 509 C 47.3901 0.416158 -1.90508 0
M  V30 510 O 46.6601 1.29918 -1.46622 0
M  V30 511 H 45.2401 -0.385296 -0.639965 0
M  V30 512 H 47.9021 -1.54105 -1.19322 0
M  V30 513 H 46.9981 -1.52886 -2.72089 0
M  V30 514 N 47.2992 1.18797 -1.03562 0
M  V30 515 C 48.5272 1.92599 -0.755869 0
M  V30 516 C 48.9422 1.75886 0.686271 0
M  V30 517 O 48.2992 1.08517 1.46732 0
M  V30 518 C 48.3502 3.44159 -1.10619 0
M  V30 519 O 48.0712 3.60341 -2.4917 0
M  V30 520 C 49.5722 4.3507 -0.850214 0
M  V30 521 H 46.7922 0.611587 -0.276048 0
M  V30 522 H 49.3362 1.50742 -1.38192 0
M  V30 523 H 47.4912 3.83823 -0.525194 0
M  V30 524 H 47.9052 4.54128 -2.62427 0
M  V30 525 H 49.3792 5.39989 -1.14523 0
M  V30 526 H 49.8562 4.38673 0.215176 0
M  V30 527 H 50.4622 4.01097 -1.41426 0
M  V30 528 N 48.7773 0.814389 1.34928 0
M  V30 529 C 50.0233 0.408167 1.99263 0
M  V30 530 C 50.3783 -1.0154 1.63424 0
M  V30 531 O 49.6713 -1.69607 0.891289 0
M  V30 532 C 49.8653 0.537781 3.53331 0
M  V30 533 C 49.6943 1.9724 4.04137 0
M  V30 534 C 48.4643 2.60245 4.33129 0
M  V30 535 C 50.6623 2.93801 4.2212 0
M  V30 536 N 48.6443 3.95036 4.69914 0
M  V30 537 C 50.0153 4.1348 4.6199 0
M  V30 538 C 52.0703 2.9053 4.04348 0
M  V30 539 C 50.7733 5.3033 4.85945 0
M  V30 540 C 52.7993 4.06589 4.29464 0
M  V30 541 C 52.1613 5.25017 4.69613 0
M  V30 542 H 48.2603 0.197289 0.756704 0
M  V30 543 H 50.8443 1.05728 1.63492 0
M  V30 544 H 49.0153 -0.0813868 3.88315 0
M  V30 545 H 50.7473 0.105389 4.04563 0
M  V30 546 H 47.5023 2.11545 4.23728 0
M  V30 547 H 47.9263 4.64455 4.92555 0
M  V30 548 H 52.5683 2.00115 3.72443 0
M  V30 549 H 50.2863 6.21309 5.16721 0
M  V30 550 H 53.8723 4.05447 4.17257 0
M  V30 551 H 52.7523 6.1333 4.88667 0
M  V30 552 N 50.2554 -1.46986 0.568584 0
M  V30 553 C 51.1654 -2.33942 -0.17555 0
M  V30 554 C 52.1814 -1.48891 -0.90041 0
M  V30 555 O 53.3574 -1.81794 -0.86676 0
M  V30 556 C 50.4224 -3.25811 -1.18524 0
M  V30 557 C 49.4834 -4.26757 -0.466582 0
M  V30 558 C 48.7164 -5.14236 -1.42817 0
M  V30 559 O 48.9394 -5.04379 -2.66379 0
M  V30 560 O 47.8734 -5.94412 -0.946453 0
M  V30 561 H 51.6994 -2.98896 0.538036 0
M  V30 562 H 49.2844 -1.4573 0.329097 0
M  V30 563 H 51.1664 -3.82527 -1.76779 0
M  V30 564 H 49.8414 -2.63471 -1.88055 0
M  V30 565 H 48.7484 -3.73769 0.157451 0
M  V30 566 H 50.0814 -4.91843 0.187485 0
M  V30 567 N 51.7335 -0.305618 -1.54608 0
M  V30 568 C 52.6805 0.568421 -2.23691 0
M  V30 569 C 53.6505 1.12592 -1.22116 0
M  V30 570 O 54.8355 1.16959 -1.50749 0
M  V30 571 C 51.9755 1.7322 -2.98477 0
M  V30 572 C 51.0885 1.20566 -4.14835 0
M  V30 573 C 50.2235 2.33368 -4.77193 0
M  V30 574 C 49.2625 1.7787 -5.85686 0
M  V30 575 N 48.3995 2.84263 -6.4198 0
M  V30 576 H 53.2395 -0.0272867 -2.97988 0
M  V30 577 H 50.7765 -0.0252363 -1.47078 0
M  V30 578 H 52.7345 2.41675 -3.40072 0
M  V30 579 H 51.3645 2.29947 -2.26548 0
M  V30 580 H 50.4165 0.413223 -3.78149 0
M  V30 581 H 51.7285 0.759417 -4.92985 0
M  V30 582 H 50.8825 3.09761 -5.21664 0
M  V30 583 H 49.6215 2.8132 -3.98385 0
M  V30 584 H 48.6265 0.99968 -5.40635 0
M  V30 585 H 49.8515 1.30816 -6.66381 0
M  V30 586 H 47.7975 3.31541 -5.66053 0
M  V30 587 H 47.7145 2.44149 -7.15491 0
M  V30 588 H 48.9825 3.6054 -6.91109 0
M  V30 589 N 53.2116 1.57565 -0.0334293 0
M  V30 590 C 54.1586 2.10478 0.946981 0
M  V30 591 C 55.1286 1.00787 1.32027 0
M  V30 592 O 56.3136 1.28232 1.41284 0
M  V30 593 C 53.4536 2.63994 2.22263 0
M  V30 594 C 52.5666 3.87709 1.90541 0
M  V30 595 C 51.7016 4.29604 3.12433 0
M  V30 596 C 50.7406 5.46065 2.76549 0
M  V30 597 N 49.8776 5.83096 3.9108 0
M  V30 598 H 54.7176 2.93963 0.488846 0
M  V30 599 H 52.2546 1.45296 0.22969 0
M  V30 600 H 54.2126 2.93114 2.96884 0
M  V30 601 H 52.8426 1.83333 2.65685 0
M  V30 602 H 51.8946 3.65291 1.06144 0
M  V30 603 H 53.2066 4.72403 1.60116 0
M  V30 604 H 52.3606 4.60182 3.9537 0
M  V30 605 H 51.0996 3.43685 3.46023 0
M  V30 606 H 50.1046 5.15176 1.92026 0
M  V30 607 H 51.3296 6.33685 2.44171 0
M  V30 608 H 49.2756 5.00132 4.24504 0
M  V30 609 H 49.1926 6.6244 3.64293 0
M  V30 610 H 50.4606 6.18282 4.74708 0
M  V30 611 N 54.6897 -0.239769 1.55765 0
M  V30 612 C 55.9147 -0.988373 1.82335 0
M  V30 613 C 56.3397 -1.77886 0.611421 0
M  V30 614 O 55.6977 -1.75889 -0.439639 0
M  V30 615 C 55.7457 -1.89627 3.06715 0
M  V30 616 O 54.8497 -2.98904 2.84131 0
M  V30 617 H 54.1907 -0.280858 0.601677 0
M  V30 618 H 56.7207 -0.258597 2.02959 0
M  V30 619 H 56.7307 -2.30957 3.36338 0
M  V30 620 H 55.4057 -1.31511 3.9456 0
M  V30 621 H 53.9827 -2.61651 2.65694 0
M  V30 622 N 56.1678 -1.49265 -0.50573 0
M  V30 623 C 57.4448 -1.49012 -1.26707 0
M  V30 624 C 57.8248 -0.215205 -2.1 0
M  V30 625 O 57.1728 0.802547 -2.13943 0
M  V30 626 C 57.3828 -2.7663 -2.12783 0
M  V30 627 C 58.7308 -3.25932 -2.72127 0
M  V30 628 O 59.7548 -2.77715 -2.23054 0
M  V30 629 O 58.6138 -4.09897 -3.61451 0
M  V30 630 H 55.7078 -0.596197 -0.57313 0
M  V30 631 H 58.2538 -1.61524 -0.52039 0
M  V30 632 H 57.0258 -3.60916 -1.5118 0
M  V30 633 H 56.6488 -2.66956 -2.94653 0
M  V30 634 N 57.6459 0.756429 -1.3826 0
M  V30 635 C 58.5789 1.87802 -1.29637 0
M  V30 636 C 59.5569 1.61667 -0.173939 0
M  V30 637 O 60.7409 1.85208 -0.350775 0
M  V30 638 C 57.8679 3.23354 -1.00797 0
M  V30 639 C 56.9139 3.68379 -2.14939 0
M  V30 640 S 57.7469 3.8025 -3.77054 0
M  V30 641 C 58.9029 5.18626 -3.50396 0
M  V30 642 H 59.1359 1.94829 -2.24564 0
M  V30 643 H 56.6689 0.919117 -1.24063 0
M  V30 644 H 58.6269 4.01637 -0.848413 0
M  V30 645 H 57.2879 3.14008 -0.0759369 0
M  V30 646 H 56.4809 4.66693 -1.90299 0
M  V30 647 H 56.0829 2.97242 -2.26988 0
M  V30 648 H 58.3749 6.04289 -3.06334 0
M  V30 649 H 59.3179 5.48286 -4.48094 0
M  V30 650 H 59.7259 4.87289 -2.84973 0
M  V30 651 N 59.124 1.23083 0.984299 0
M  V30 652 C 60.034 1.02515 2.11016 0
M  V30 653 C 61.05 -0.0291702 1.73976 0
M  V30 654 O 62.226 0.165434 2.00719 0
M  V30 655 C 59.291 0.614673 3.41208 0
M  V30 656 C 58.352 1.74359 3.92297 0
M  V30 657 C 57.585 1.35261 5.16275 0
M  V30 658 O 57.808 0.235136 5.69915 0
M  V30 659 O 56.742 2.17227 5.61334 0
M  V30 660 H 60.568 1.96862 2.31255 0
M  V30 661 H 58.153 1.01753 1.09392 0
M  V30 662 H 60.035 0.396518 4.1953 0
M  V30 663 H 58.71 -0.299851 3.22308 0
M  V30 664 H 57.617 2.01635 3.1511 0
M  V30 665 H 58.95 2.63629 4.15645 0
M  V30 666 N 60.6021 -1.18246 1.0419 0
M  V30 667 C 61.5321 -2.24127 0.654914 0
M  V30 668 C 62.5131 -1.66617 -0.342451 0
M  V30 669 O 63.6981 -1.92924 -0.222277 0
M  V30 670 C 60.8281 -3.47295 0.0183757 0
M  V30 671 C 59.7821 -4.17563 0.939414 0
M  V30 672 C 59.1081 -5.34438 0.167286 0
M  V30 673 C 60.4081 -4.70917 2.25908 0
M  V30 674 H 62.1021 -2.56753 1.54007 0
M  V30 675 H 59.6481 -1.23414 0.74195 0
M  V30 676 H 61.6011 -4.20572 -0.264082 0
M  V30 677 H 60.3251 -3.13907 -0.901664 0
M  V30 678 H 58.9841 -3.46186 1.20628 0
M  V30 679 H 58.6321 -4.97298 -0.7552 0
M  V30 680 H 58.3321 -5.82388 0.780901 0
M  V30 681 H 59.8561 -6.10504 -0.108125 0
M  V30 682 H 61.2701 -5.35882 2.03724 0
M  V30 683 H 59.6671 -5.29406 2.82577 0
M  V30 684 H 60.7371 -3.88272 2.9047 0
M  V30 685 N 62.0802 -0.821533 -1.34494 0
M  V30 686 C 63.0102 -0.257138 -2.3208 0
M  V30 687 C 63.9912 0.625645 -1.58176 0
M  V30 688 O 65.1762 0.552811 -1.86166 0
M  V30 689 C 62.3062 0.582958 -3.42372 0
M  V30 690 C 61.2602 -0.202571 -4.2752 0
M  V30 691 C 60.5862 0.760179 -5.29269 0
M  V30 692 C 61.8862 -1.40998 -5.02908 0
M  V30 693 H 63.5802 -1.07247 -2.79532 0
M  V30 694 H 61.1262 -0.517163 -1.34393 0
M  V30 695 H 63.0792 0.987972 -4.09655 0
M  V30 696 H 61.8032 1.43133 -2.93565 0
M  V30 697 H 60.4622 -0.588936 -3.61838 0
M  V30 698 H 60.1102 1.60447 -4.76724 0
M  V30 699 H 59.8102 0.238809 -5.87115 0
M  V30 700 H 61.3342 1.16308 -5.9942 0
M  V30 701 H 62.7482 -1.07905 -5.63054 0
M  V30 702 H 61.1452 -1.86689 -5.70322 0
M  V30 703 H 62.2152 -2.1889 -4.32684 0
M  V30 704 N 63.5583 1.46682 -0.576371 0
M  V30 705 C 64.5213 2.28707 0.150239 0
M  V30 706 C 65.5213 1.38035 0.824794 0
M  V30 707 O 66.7113 1.60476 0.677719 0
M  V30 708 C 63.8433 3.18248 1.22192 0
M  V30 709 H 65.0363 2.94423 -0.570521 0
M  V30 710 H 62.5893 1.52688 -0.334078 0
M  V30 711 H 63.3243 2.57265 1.97447 0
M  V30 712 H 63.1093 3.85 0.742812 0
M  V30 713 H 64.5993 3.80001 1.73172 0
M  V30 714 N 65.0364 0.313813 1.54444 0
M  V30 715 C 66.4474 -0.176243 1.85866 0
M  V30 716 C 66.7984 -1.52405 1.23561 0
M  V30 717 O 65.9234 -2.09605 0.538016 0
M  V30 718 C 66.5184 -0.32657 3.37222 0
M  V30 719 C 65.0774 -0.760846 3.6863 0
M  V30 720 C 64.2244 0.123247 2.77026 0
M  V30 721 H 67.1754 0.534418 1.49431 0
M  V30 722 H 67.1964 -1.15908 3.62416 0
M  V30 723 H 66.7084 0.654531 3.82541 0
M  V30 724 H 64.8094 -1.75204 3.28838 0
M  V30 725 H 64.9224 -0.571353 4.75681 0
M  V30 726 H 63.2864 -0.399597 2.51546 0
M  V30 727 H 64.0694 1.10094 3.25168 0
M  V30 728 N 66.5145 -1.57545 0.0417849 0
M  V30 729 C 67.7445 -1.96339 -0.642995 0
M  V30 730 C 68.1525 -0.917536 -1.65463 0
M  V30 731 O 67.4955 0.107747 -1.83384 0
M  V30 732 C 67.5575 -3.31333 -1.39494 0
M  V30 733 C 67.2215 -4.53796 -0.540204 0
M  V30 734 C 68.2185 -5.19553 0.189806 0
M  V30 735 C 65.9035 -5.0006 -0.473886 0
M  V30 736 C 67.8975 -6.29904 0.974674 0
M  V30 737 C 65.5845 -6.10289 0.314677 0
M  V30 738 C 66.5825 -6.75072 1.03765 0
M  V30 739 O 66.2705 -7.83183 1.81327 0
M  V30 740 H 66.0025 -0.651241 -0.181277 0
M  V30 741 H 68.5565 -2.05148 0.101665 0
M  V30 742 H 66.7865 -3.19052 -2.18502 0
M  V30 743 H 68.4755 -3.54942 -1.96904 0
M  V30 744 H 69.2415 -4.84774 0.147981 0
M  V30 745 H 65.1205 -4.49433 -1.0262 0
M  V30 746 H 68.6645 -6.80401 1.5395 0
M  V30 747 H 64.5615 -6.44506 0.358174 0
M  V30 748 H 65.3295 -7.99913 1.73438 0
M  V30 749 N 67.9926 0.231505 -1.5589 0
M  V30 750 C 69.2386 0.95877 -1.78705 0
M  V30 751 C 69.5716 1.8438 -0.609725 0
M  V30 752 O 68.8466 1.90521 0.391426 0
M  V30 753 C 69.1296 1.8062 -3.11526 0
M  V30 754 C 68.9826 0.948328 -4.39689 0
M  V30 755 C 70.3016 2.78585 -3.40703 0
M  V30 756 H 67.4206 0.347129 -0.650131 0
M  V30 757 H 70.0626 0.228259 -1.88624 0
M  V30 758 H 68.2126 2.42902 -3.03201 0
M  V30 759 H 69.8846 0.343016 -4.60023 0
M  V30 760 H 68.1276 0.253314 -4.3306 0
M  V30 761 H 68.7986 1.57543 -5.29041 0
M  V30 762 H 71.2746 2.26439 -3.49091 0
M  V30 763 H 70.1506 3.34988 -4.34826 0
M  V30 764 H 70.4116 3.55825 -2.62375 0
M  V30 765 N 69.4707 1.49531 0.497807 0
M  V30 766 C 70.4007 1.6935 1.60757 0
M  V30 767 C 71.3817 0.542218 1.61227 0
M  V30 768 O 72.5667 0.778417 1.77917 0
M  V30 769 C 69.6967 1.76298 2.99226 0
M  V30 770 C 68.6507 2.91248 3.13622 0
M  V30 771 C 67.9767 2.83312 4.53474 0
M  V30 772 C 69.2767 4.3214 2.93346 0
M  V30 773 H 70.9707 2.62263 1.44425 0
M  V30 774 H 68.5167 1.26208 0.693367 0
M  V30 775 H 70.4697 1.88749 3.76765 0
M  V30 776 H 69.1937 0.799871 3.16654 0
M  V30 777 H 67.8527 2.78404 2.38509 0
M  V30 778 H 67.5007 1.84902 4.67782 0
M  V30 779 H 67.2007 3.60465 4.64046 0
M  V30 780 H 68.7247 2.97775 5.33069 0
M  V30 781 H 70.1387 4.45649 3.60652 0
M  V30 782 H 68.5357 5.1054 3.15387 0
M  V30 783 H 69.6057 4.46363 1.89441 0
M  V30 784 N 70.9488 -0.749086 1.3866 0
M  V30 785 C 72.2258 -1.4992 1.25632 0
M  V30 786 C 72.6058 -2.10633 -0.140317 0
M  V30 787 O 71.9538 -1.97437 -1.15025 0
M  V30 788 C 72.1638 -2.56195 2.36992 0
M  V30 789 C 73.5118 -3.22972 2.75634 0
M  V30 790 O 74.5358 -2.66502 2.36337 0
M  V30 791 O 73.3948 -4.25122 3.43415 0
M  V30 792 H 70.4888 -0.665067 0.491544 0
M  V30 793 H 73.0348 -0.784113 1.50498 0
M  V30 794 H 71.8068 -2.09612 3.30422 0
M  V30 795 H 71.4298 -3.35279 2.13714 0
M  V30 796 N 72.4269 -1.23603 -0.977757 0
M  V30 797 C 73.3739 -1.01954 -2.07061 0
M  V30 798 C 74.3439 0.0638697 -1.65977 0
M  V30 799 O 75.5289 -0.0887624 -1.90593 0
M  V30 800 C 72.6689 -0.619658 -3.39491 0
M  V30 801 C 71.7819 -1.77547 -3.93829 0
M  V30 802 C 70.9169 -1.32212 -5.14484 0
M  V30 803 C 69.9559 -2.44852 -5.60994 0
M  V30 804 N 69.0929 -2.00456 -6.72876 0
M  V30 805 H 73.9329 -1.95495 -2.24913 0
M  V30 806 H 71.4699 -0.973861 -1.10247 0
M  V30 807 H 73.4279 -0.368898 -4.15566 0
M  V30 808 H 72.0579 0.278752 -3.21594 0
M  V30 809 H 71.1099 -2.14016 -3.14486 0
M  V30 810 H 72.4219 -2.62219 -4.24314 0
M  V30 811 H 71.5759 -1.02965 -5.97899 0
M  V30 812 H 70.3149 -0.445808 -4.85658 0
M  V30 813 H 69.3199 -2.74871 -4.76157 0
M  V30 814 H 70.5449 -3.33024 -5.91837 0
M  V30 815 H 68.4909 -1.15208 -6.45804 0
M  V30 816 H 68.4079 -2.78687 -7.02759 0
M  V30 817 H 69.6759 -1.7432 -7.59758 0
M  V30 818 N 73.905 1.17692 -1.04816 0
M  V30 819 C 74.815 2.25229 -0.65643 0
M  V30 820 C 75.831 1.71018 0.320761 0
M  V30 821 O 77.007 2.00649 0.173805 0
M  V30 822 C 74.072 3.46684 -0.0332629 0
M  V30 823 C 73.133 4.15997 -1.06042 0
M  V30 824 C 72.366 5.31654 -0.466893 0
M  V30 825 O 72.589 5.65777 0.724758 0
M  V30 826 O 71.523 5.89831 -1.1993 0
M  V30 827 H 75.349 2.61016 -1.55255 0
M  V30 828 H 72.934 1.24919 -0.81949 0
M  V30 829 H 74.816 4.20234 0.313256 0
M  V30 830 H 73.491 3.12703 0.836566 0
M  V30 831 H 72.398 3.44482 -1.45886 0
M  V30 832 H 73.731 4.53996 -1.90127 0
M  V30 833 N 75.3831 0.828654 1.34056 0
M  V30 834 C 76.3151 0.212052 2.28217 0
M  V30 835 C 77.3281 -0.601362 1.51286 0
M  V30 836 O 78.5171 -0.430104 1.73241 0
M  V30 837 C 75.6171 -0.72088 3.31144 0
M  V30 838 C 74.7901 0.0509587 4.3737 0
M  V30 839 C 73.8491 -0.803766 5.20025 0
M  V30 840 O 72.8751 -0.246667 5.68665 0
M  V30 841 N 74.0771 -2.1227 5.40298 0
M  V30 842 H 76.8421 1.02105 2.81771 0
M  V30 843 H 74.4031 0.686153 1.46641 0
M  V30 844 H 76.3951 -1.29742 3.8334 0
M  V30 845 H 74.9651 -1.43061 2.77943 0
M  V30 846 H 74.1851 0.808831 3.85813 0
M  V30 847 H 75.4731 0.582065 5.0546 0
M  V30 848 H 74.8711 -2.59898 5.02464 0
M  V30 849 H 73.4281 -2.64796 5.95589 0
M  V30 850 N 76.8612 -1.46375 0.584142 0
M  V30 851 C 78.2772 -1.57694 0.245929 0
M  V30 852 C 78.4772 -1.57903 -1.25175 0
M  V30 853 O 77.5332 -1.49676 -2.03355 0
M  V30 854 C 78.8462 -2.87028 0.896402 0
M  V30 855 C 80.3942 -3.00662 0.870127 0
M  V30 856 C 80.8692 -4.32734 1.50017 0
M  V30 857 N 82.3602 -4.39436 1.46458 0
M  V30 858 C 83.0952 -5.40248 1.92144 0
M  V30 859 N 82.5912 -6.47726 2.4581 0
M  V30 860 N 84.3842 -5.31459 1.83052 0
M  V30 861 H 76.5352 -1.44483 1.55687 0
M  V30 862 H 78.7982 -0.689291 0.650831 0
M  V30 863 H 78.5042 -2.9269 1.95002 0
M  V30 864 H 78.3782 -3.75014 0.405486 0
M  V30 865 H 80.7652 -2.94581 -0.174871 0
M  V30 866 H 80.8462 -2.14148 1.39908 0
M  V30 867 H 80.4902 -4.39573 2.54437 0
M  V30 868 H 80.4202 -5.18025 0.946432 0
M  V30 869 H 82.9112 -3.62367 1.07231 0
M  V30 870 H 83.2242 -7.20863 2.78525 0
M  V30 871 H 81.5692 -6.48542 2.49836 0
M  V30 872 H 84.7602 -4.46396 1.40883 0
M  V30 873 H 84.9332 -6.09881 2.18973 0
M  V30 874 N 78.3393 -0.321999 -1.54275 0
M  V30 875 C 79.7553 0.0306999 -1.5957 0
M  V30 876 C 79.9553 1.50614 -1.33857 0
M  V30 877 O 79.0113 2.2619 -1.12223 0
M  V30 878 C 80.3243 -0.386122 -2.98211 0
M  V30 879 C 81.8723 -0.336647 -3.11184 0
M  V30 880 C 82.3473 -0.728607 -4.52167 0
M  V30 881 N 83.8383 -0.681952 -4.58152 0
M  V30 882 C 84.5733 -0.957449 -5.6535 0
M  V30 883 N 84.0693 -1.3 -6.80494 0
M  V30 884 N 85.8623 -0.883113 -5.55119 0
M  V30 885 H 78.0133 -1.28332 -1.69247 0
M  V30 886 H 80.2763 -0.521716 -0.791528 0
M  V30 887 H 79.9823 -1.41404 -3.22022 0
M  V30 888 H 79.8563 0.249662 -3.76373 0
M  V30 889 H 82.2433 0.682058 -2.8711 0
M  V30 890 H 82.3243 -1.00734 -2.3513 0
M  V30 891 H 81.9683 -1.74522 -4.76974 0
M  V30 892 H 81.8983 -0.0356152 -5.26588 0
M  V30 893 H 84.3893 -0.428985 -3.75457 0
M  V30 894 H 84.7023 -1.49563 -7.58189 0
M  V30 895 H 83.0473 -1.33824 -6.81994 0
M  V30 896 H 86.2383 -0.615001 -4.64042 0
M  V30 897 H 86.4113 -1.10118 -6.38575 0
M  V30 898 N 79.8174 1.5752 -0.0501392 0
M  V30 899 C 80.7804 2.1037 0.909786 0
M  V30 900 C 81.7804 1.02308 1.24056 0
M  V30 901 O 82.9704 1.28385 1.17741 0
M  V30 902 C 80.1024 2.58708 2.21998 0
M  V30 903 H 81.2954 2.96479 0.451665 0
M  V30 904 H 78.8484 1.55038 0.198248 0
M  V30 905 H 79.5834 1.75989 2.72394 0
M  V30 906 H 79.3684 3.37675 1.99295 0
M  V30 907 H 80.8584 2.99747 2.9076 0
M  V30 908 N 81.2955 -0.223234 1.56011 0
M  V30 909 C 82.5445 -0.945912 1.78144 0
M  V30 910 C 82.8575 -1.85567 0.618396 0
M  V30 911 O 84.0635 -2.61688 0.723318 0
M  V30 912 C 82.5195 -1.73216 3.15475 0
M  V30 913 C 82.1275 -0.868619 4.39499 0
M  V30 914 C 83.8715 -2.44615 3.46935 0
M  V30 915 C 81.7785 -1.65212 5.67855 0
M  V30 916 H 80.7085 -0.356929 0.664167 0
M  V30 917 H 83.3595 -0.199845 1.82409 0
M  V30 918 H 81.7415 -2.52107 3.05382 0
M  V30 919 H 82.9155 -0.120366 4.60643 0
M  V30 920 H 81.2305 -0.26683 4.15544 0
M  V30 921 H 83.8275 -3.03732 4.40058 0
M  V30 922 H 84.1705 -3.17417 2.69355 0
M  V30 923 H 84.7035 -1.72715 3.58349 0
M  V30 924 H 81.4425 -0.967407 6.48322 0
M  V30 925 H 80.9625 -2.37503 5.50774 0
M  V30 926 H 82.6415 -2.21322 6.07968 0
M  V30 927 N 82.7736 -1.49793 -0.48987 0
M  V30 928 C 84.1846 -1.52914 -1.07118 0
M  V30 929 C 84.5356 -0.321738 -1.93544 0
M  V30 930 O 83.6606 0.567338 -2.08831 0
M  V30 931 C 84.2556 -2.771 -1.94938 0
M  V30 932 C 82.8146 -2.82963 -2.48212 0
M  V30 933 C 81.9616 -2.46972 -1.26096 0
M  V30 934 H 84.9126 -1.56329 -0.273289 0
M  V30 935 H 84.9336 -2.57892 -2.79771 0
M  V30 936 H 84.4456 -3.64959 -1.32009 0
M  V30 937 H 82.5466 -1.99411 -3.14748 0
M  V30 938 H 82.6596 -3.85406 -2.84603 0
M  V30 939 H 81.0236 -1.98994 -1.58976 0
M  V30 940 H 81.8066 -3.37118 -0.648581 0
M  V30 941 N 84.2517 0.741722 -1.39055 0
M  V30 942 C 85.5007 1.49656 -1.35225 0
M  V30 943 C 85.8137 1.95533 0.0512708 0
M  V30 944 O 87.0197 2.7067 0.212138 0
M  V30 945 C 85.4757 2.70389 -2.37525 0
M  V30 946 C 85.0837 2.31489 -3.83558 0
M  V30 947 C 86.8277 3.48236 -2.42759 0
M  V30 948 C 84.7347 3.48903 -4.77515 0
M  V30 949 H 83.6647 0.56197 -0.502699 0
M  V30 950 H 86.3157 0.809727 -1.64668 0
M  V30 951 H 84.6977 3.41113 -2.01142 0
M  V30 952 H 85.8717 1.68354 -4.28945 0
M  V30 953 H 84.1867 1.66749 -3.81554 0
M  V30 954 H 86.7837 4.35558 -3.1015 0
M  V30 955 H 87.1267 3.90229 -1.45008 0
M  V30 956 H 87.6597 2.84535 -2.78002 0
M  V30 957 H 84.3987 3.11966 -5.76504 0
M  V30 958 H 83.9187 4.11041 -4.36813 0
M  V30 959 H 85.5977 4.15328 -4.96096 0
M  V30 960 N 85.7298 1.2412 0.971189 0
M  V30 961 C 86.9788 1.07284 1.70801 0
M  V30 962 C 87.2918 -0.388902 1.91695 0
M  V30 963 O 88.4978 -0.677379 2.62914 0
M  V30 964 C 86.9538 1.87145 3.07416 0
M  V30 965 C 86.5618 3.37707 2.94377 0
M  V30 966 C 88.3058 1.78828 3.84995 0
M  V30 967 C 86.2128 4.09925 4.26281 0
M  V30 968 H 85.1428 0.397854 0.64049 0
M  V30 969 H 87.7938 1.4817 1.0825 0
M  V30 970 H 86.1758 1.39071 3.70777 0
M  V30 971 H 87.3498 3.93335 2.4005 0
M  V30 972 H 85.6648 3.46938 2.30267 0
M  V30 973 H 88.2618 2.30089 4.82662 0
M  V30 974 H 88.6048 0.75284 4.09436 0
M  V30 975 H 89.1378 2.24563 3.28354 0
M  V30 976 H 85.8768 5.13813 4.07033 0
M  V30 977 H 85.3968 3.59083 4.80437 0
M  V30 978 H 87.0758 4.1673 4.94919 0
M  V30 979 N 87.2079 -1.17134 1.05439 0
M  V30 980 C 88.4559 -1.87085 0.764429 0
M  V30 981 C 88.7769 -1.81584 -0.710787 0
M  V30 982 O 88.0469 -1.24349 -1.51374 0
M  V30 983 H 86.6269 -0.692627 0.279779 0
M  V30 984 H 89.2889 -1.42087 1.33406 0
M  V30 985 H 88.3849 -2.92759 1.0816 0
M  V30 986 N 88.686 -0.835752 -1.33615 0
M  V30 987 C 89.963 -0.352017 -1.92406 0
M  V30 988 C 90.343 1.16225 -1.76224 0
M  V30 989 O 89.691 1.97526 -1.14873 0
M  V30 990 C 89.901 -0.795485 -3.39813 0
M  V30 991 C 91.249 -0.801703 -4.16963 0
M  V30 992 O 92.273 -0.738889 -3.48452 0
M  V30 993 O 91.132 -0.886607 -5.3926 0
M  V30 994 H 88.226 -0.0989641 -0.821057 0
M  V30 995 H 90.772 -0.921397 -1.42507 0
M  V30 996 H 89.544 -1.83795 -3.45449 0
M  V30 997 H 89.167 -0.202505 -3.97084 0
M  V30 998 N 90.1641 1.46063 -0.591896 0
M  V30 999 C 91.5751 1.85944 -0.167822 0
M  V30 1000 C 91.9261 1.49429 1.27143 0
M  V30 1001 O 91.0511 0.913515 1.96173 0
M  V30 1002 C 91.6461 3.37489 -0.297794 0
M  V30 1003 C 90.2051 3.76332 0.0714732 0
M  V30 1004 C 89.3521 2.7006 -0.629509 0
M  V30 1005 H 92.3031 1.37087 -0.799555 0
M  V30 1006 H 92.3241 3.77532 0.474349 0
M  V30 1007 H 91.8361 3.64034 -1.3454 0
M  V30 1008 H 89.9371 3.55405 1.11886 0
M  V30 1009 H 90.0501 4.78088 -0.311245 0
M  V30 1010 H 88.4141 2.54607 -0.0687867 0
M  V30 1011 H 89.1971 2.99444 -1.67894 0
M  V30 1012 N 91.6422 0.330177 1.54103 0
M  V30 1013 C 92.9192 -0.325007 1.92881 0
M  V30 1014 C 93.2992 -1.6934 1.26045 0
M  V30 1015 O 92.6472 -2.24855 0.406526 0
M  V30 1016 C 92.8572 -0.410634 3.46576 0
M  V30 1017 C 94.2052 -0.667801 4.19316 0
M  V30 1018 O 95.2292 -0.49329 3.52768 0
M  V30 1019 O 94.0882 -1.00491 5.37181 0
M  V30 1020 H 91.1822 -0.186873 0.80561 0
M  V30 1021 H 93.7282 0.380376 1.65382 0
M  V30 1022 H 92.5002 0.550164 3.87413 0
M  V30 1023 H 92.1232 -1.16333 3.802 0
M  V30 1024 N 93.1203 -1.57491 0.0584922 0
M  V30 1025 C 94.5313 -1.80526 -0.476138 0
M  V30 1026 C 94.8823 -0.971334 -1.70469 0
M  V30 1027 O 94.0073 -0.190012 -2.15564 0
M  V30 1028 C 94.6023 -3.27424 -0.870587 0
M  V30 1029 C 93.1613 -3.51351 -1.35015 0
M  V30 1030 C 92.3083 -2.75343 -0.32887 0
M  V30 1031 H 95.2593 -1.56133 0.284312 0
M  V30 1032 H 95.2803 -3.38745 -1.73299 0
M  V30 1033 H 94.7923 -3.88093 0.0237627 0
M  V30 1034 H 92.8933 -2.95971 -2.26345 0
M  V30 1035 H 93.0063 -4.60059 -1.33726 0
M  V30 1036 H 91.3703 -2.417 -0.803321 0
M  V30 1037 H 92.1533 -3.38743 0.557521 0
M  V30 1038 N 94.5984 0.214957 -1.56127 0
M  V30 1039 C 95.5084 1.28727 -1.96129 0
M  V30 1040 C 96.5244 1.50916 -0.866044 0
M  V30 1041 O 97.7004 1.63918 -1.17016 0
M  V30 1042 C 94.7654 2.61569 -2.27558 0
M  V30 1043 C 93.8264 2.47625 -3.50685 0
M  V30 1044 C 93.0594 3.74132 -3.80606 0
M  V30 1045 O 93.2824 4.77438 -3.12104 0
M  V30 1046 O 92.2164 3.70849 -4.74083 0
M  V30 1047 H 96.0424 0.977855 -2.87527 0
M  V30 1048 H 93.6274 0.418358 -1.43423 0
M  V30 1049 H 95.5094 3.40012 -2.48938 0
M  V30 1050 H 94.1844 2.92178 -1.39332 0
M  V30 1051 H 93.0914 1.67361 -3.34576 0
M  V30 1052 H 94.4244 2.21954 -4.39315 0
M  V30 1053 N 96.0765 1.50051 0.48192 0
M  V30 1054 C 97.3255 1.59741 1.23149 0
M  V30 1055 C 97.6385 0.298163 1.93314 0
M  V30 1056 O 98.8445 0.273835 2.70116 0
M  V30 1057 C 97.3005 2.81926 2.23708 0
M  V30 1058 C 96.9085 4.18685 1.59396 0
M  V30 1059 C 98.6525 3.00956 2.99375 0
M  V30 1060 C 96.5595 5.3207 2.58178 0
M  V30 1061 H 95.4895 0.594838 0.46334 0
M  V30 1062 H 98.1405 1.76467 0.503169 0
M  V30 1063 H 96.5225 2.58736 2.99786 0
M  V30 1064 H 97.6965 4.52088 0.891811 0
M  V30 1065 H 96.0115 4.05171 0.960503 0
M  V30 1066 H 98.6085 3.82836 3.73283 0
M  V30 1067 H 98.9515 2.12258 3.58123 0
M  V30 1068 H 99.4845 3.24277 2.30411 0
M  V30 1069 H 96.2235 6.22888 2.04184 0
M  V30 1070 H 95.7435 5.03098 3.26577 0
M  V30 1071 H 97.4225 5.62196 3.20225 0
M  V30 1072 N 97.5546 -0.734337 1.39446 0
M  V30 1073 C 98.4846 -1.86155 1.40955 0
M  V30 1074 C 99.4656 -1.67898 0.272827 0
M  V30 1075 O 100.651 -1.88207 0.478743 0
M  V30 1076 C 97.7806 -3.23912 1.25294 0
M  V30 1077 C 96.7346 -3.56808 2.36373 0
M  V30 1078 C 96.0606 -4.93508 2.058 0
M  V30 1079 C 97.3606 -3.59713 3.78687 0
M  V30 1080 H 99.0546 -1.8515 2.35287 0
M  V30 1081 H 96.6006 -0.889367 1.13253 0
M  V30 1082 H 98.5536 -4.02443 1.2497 0
M  V30 1083 H 97.2776 -3.25446 0.274308 0
M  V30 1084 H 95.9366 -2.80606 2.35914 0
M  V30 1085 H 95.5846 -4.91623 1.06374 0
M  V30 1086 H 95.2846 -5.16486 2.80208 0
M  V30 1087 H 96.8086 -5.74396 2.07128 0
M  V30 1088 H 98.2226 -4.2832 3.81071 0
M  V30 1089 H 96.6196 -3.94209 4.52459 0
M  V30 1090 H 97.6896 -2.59504 4.09617 0
M  V30 1091 N 99.0327 -1.24633 -0.964593 0
M  V30 1092 C 100.279 -1.09957 -1.71117 0
M  V30 1093 C 100.634 0.357422 -1.89051 0
M  V30 1094 O 99.9267 1.26029 -1.44317 0
M  V30 1095 C 100.121 -1.7763 -3.10133 0
M  V30 1096 C 99.9497 -3.29759 -3.05759 0
M  V30 1097 C 98.7197 -3.98981 -3.10068 0
M  V30 1098 C 100.918 -4.26305 -2.87695 0
M  V30 1099 N 98.8997 -5.37966 -2.95747 0
M  V30 1100 C 100.271 -5.52308 -2.81702 0
M  V30 1101 C 102.326 -4.16842 -2.72299 0
M  V30 1102 C 101.029 -6.69931 -2.61887 0
M  V30 1103 C 103.055 -5.34147 -2.53853 0
M  V30 1104 C 102.417 -6.59084 -2.48572 0
M  V30 1105 H 98.5157 -0.457003 -0.634564 0
M  V30 1106 H 101.1 -1.57592 -1.14337 0
M  V30 1107 H 99.2707 -1.32504 -3.65099 0
M  V30 1108 H 101.003 -1.55786 -3.73514 0
M  V30 1109 H 97.7577 -3.50169 -3.18871 0
M  V30 1110 H 98.1817 -6.10877 -2.91818 0
M  V30 1111 H 102.824 -3.21007 -2.75163 0
M  V30 1112 H 100.542 -7.65886 -2.57767 0
M  V30 1113 H 104.128 -5.28678 -2.4288 0
M  V30 1114 H 103.008 -7.48324 -2.34481 0
M  V30 1115 N 100.511 1.16574 -1.06058 0
M  V30 1116 C 101.927 1.3904 -0.783585 0
M  V30 1117 C 102.127 1.91784 0.618145 0
M  V30 1118 O 101.183 2.11511 1.37911 0
M  V30 1119 C 102.496 2.37329 -1.84649 0
M  V30 1120 C 104.044 2.51018 -1.86973 0
M  V30 1121 C 104.519 3.52588 -2.92311 0
M  V30 1122 N 106.01 3.60113 -2.91329 0
M  V30 1123 C 106.745 4.38486 -3.69482 0
M  V30 1124 N 106.241 5.20302 -4.57447 0
M  V30 1125 N 108.034 4.33446 -3.57885 0
M  V30 1126 H 100.185 0.806725 -1.96483 0
M  V30 1127 H 102.448 0.417117 -0.851303 0
M  V30 1128 H 102.154 2.05663 -2.85299 0
M  V30 1129 H 102.028 3.36946 -1.6955 0
M  V30 1130 H 104.415 2.81989 -0.869827 0
M  V30 1131 H 104.496 1.51445 -2.0615 0
M  V30 1132 H 104.14 3.22354 -3.92492 0
M  V30 1133 H 104.07 4.51886 -2.70383 0
M  V30 1134 H 106.561 3.01707 -2.27555 0
M  V30 1135 H 106.874 5.77311 -5.13743 0
M  V30 1136 H 105.219 5.19653 -4.61503 0
M  V30 1137 H 108.41 3.68586 -2.88551 0
M  V30 1138 H 108.583 4.94279 -4.19037 0
M  V30 1139 N 101.989 0.842826 1.3317 0
M  V30 1140 C 103.235 0.441099 1.97945 0
M  V30 1141 C 103.568 -0.998024 1.66593 0
M  V30 1142 O 102.843 -1.69839 0.947898 0
M  V30 1143 C 103.126 0.666841 3.53872 0
M  V30 1144 C 102.979 2.15352 3.94897 0
M  V30 1145 C 104.298 0.115544 4.39948 0
M  V30 1146 H 101.417 0.161739 0.719034 0
M  V30 1147 H 104.059 1.05907 1.57746 0
M  V30 1148 H 102.209 0.140828 3.88245 0
M  V30 1149 H 103.881 2.7447 3.70761 0
M  V30 1150 H 102.124 2.63653 3.44484 0
M  V30 1151 H 102.795 2.26221 5.03516 0
M  V30 1152 H 105.271 0.565213 4.12243 0
M  V30 1153 H 104.147 0.303152 5.48062 0
M  V30 1154 H 104.408 -0.980935 4.3108 0
M  V30 1155 N 103.467 -1.45747 0.599634 0
M  V30 1156 C 104.377 -2.34262 -0.125888 0
M  V30 1157 C 105.393 -1.50768 -0.868625 0
M  V30 1158 O 106.569 -1.83592 -0.828003 0
M  V30 1159 C 103.634 -3.28252 -1.11587 0
M  V30 1160 C 102.695 -4.27651 -0.375956 0
M  V30 1161 C 101.928 -5.1715 -1.31877 0
M  V30 1162 O 102.151 -5.09916 -2.55621 0
M  V30 1163 O 101.085 -5.96286 -0.820157 0
M  V30 1164 H 104.911 -2.97688 0.601315 0
M  V30 1165 H 102.496 -1.44999 0.359934 0
M  V30 1166 H 104.378 -3.86191 -1.68626 0
M  V30 1167 H 103.053 -2.67401 -1.82424 0
M  V30 1168 H 101.96 -3.7335 0.236698 0
M  V30 1169 H 103.293 -4.91334 0.29177 0
M  V30 1170 N 104.945 -0.338344 -1.53925 0
M  V30 1171 C 105.875 0.51328 -2.27789 0
M  V30 1172 C 106.856 1.107 -1.29149 0
M  V30 1173 O 108.041 1.12937 -1.57984 0
M  V30 1174 C 105.171 1.66697 -3.04679 0
M  V30 1175 C 104.125 1.20183 -4.1078 0
M  V30 1176 C 103.451 2.44363 -4.75595 0
M  V30 1177 C 104.751 0.30605 -5.21403 0
M  V30 1178 H 106.445 -0.102883 -2.99223 0
M  V30 1179 H 103.991 -0.0509219 -1.4391 0
M  V30 1180 H 105.944 2.26915 -3.55088 0
M  V30 1181 H 104.668 2.30995 -2.30887 0
M  V30 1182 H 103.327 0.622499 -3.61276 0
M  V30 1183 H 102.975 3.07057 -3.98403 0
M  V30 1184 H 102.675 2.13925 -5.47275 0
M  V30 1185 H 104.199 3.05317 -5.28786 0
M  V30 1186 H 105.613 0.814929 -5.67478 0
M  V30 1187 H 104.01 0.0937929 -6.00027 0
M  V30 1188 H 105.08 -0.65921 -4.80398 0
M  V30 1189 N 106.423 1.57458 -0.0668435 0
M  V30 1190 C 107.67 1.93301 0.603406 0
M  V30 1191 C 107.998 0.946486 1.69917 0
M  V30 1192 O 107.253 -0.0387021 1.95662 0
M  V30 1193 C 107.552 3.35784 1.22409 0
M  V30 1194 C 107.218 4.50179 0.254955 0
M  V30 1195 C 105.88 4.81199 -0.0116746 0
M  V30 1196 C 108.232 5.19598 -0.408338 0
M  V30 1197 C 105.56 5.78978 -0.94877 0
M  V30 1198 C 107.912 6.18381 -1.33372 0
M  V30 1199 C 106.576 6.47821 -1.60887 0
M  V30 1200 H 105.846 0.707338 0.220802 0
M  V30 1201 H 108.493 1.91012 -0.136665 0
M  V30 1202 H 106.798 3.34515 2.03978 0
M  V30 1203 H 108.495 3.60804 1.74989 0
M  V30 1204 H 105.085 4.25983 0.472954 0
M  V30 1205 H 109.269 4.95832 -0.215456 0
M  V30 1206 H 104.525 6.00115 -1.16925 0
M  V30 1207 H 108.699 6.71277 -1.85367 0
M  V30 1208 H 106.326 7.23399 -2.33661 0
M  V30 1209 N 107.901 -0.206675 1.56239 0
M  V30 1210 C 109.131 -0.943975 1.83773 0
M  V30 1211 C 109.539 -1.77841 0.645703 0
M  V30 1212 O 108.882 -1.79403 -0.395008 0
M  V30 1213 C 108.944 -1.899 3.05251 0
M  V30 1214 C 108.608 -1.24764 4.39639 0
M  V30 1215 C 109.605 -0.630216 5.16066 0
M  V30 1216 C 107.29 -1.25496 4.8637 0
M  V30 1217 C 109.284 -0.0287946 6.37393 0
M  V30 1218 C 106.971 -0.649698 6.07637 0
M  V30 1219 C 107.969 -0.0376845 6.8299 0
M  V30 1220 O 107.657 0.55812 8.0196 0
M  V30 1221 H 107.389 -0.281508 0.614597 0
M  V30 1222 H 109.943 -0.222458 2.04192 0
M  V30 1223 H 108.173 -2.6599 2.80689 0
M  V30 1224 H 109.862 -2.5031 3.1953 0
M  V30 1225 H 110.628 -0.616785 4.81062 0
M  V30 1226 H 106.507 -1.72072 4.27683 0
M  V30 1227 H 110.051 0.449518 6.9615 0
M  V30 1228 H 105.948 -0.660592 6.42111 0
M  V30 1229 H 106.716 0.453891 8.17241 0
M  V30 1230 N 109.379 -1.50304 -0.473955 0
M  V30 1231 C 110.327 -1.69482 -1.59307 0
M  V30 1232 C 111.321 -0.560669 -1.59853 0
M  V30 1233 O 112.527 -0.741087 -1.64036 0
M  V30 1234 H 108.902 -0.534892 -0.528578 0
M  V30 1235 H 110.873 -2.63364 -1.40293 0
M  V30 1236 C 109.622 -1.80354 -2.97267 0
M  V30 1237 H 108.945 -2.67012 -2.97564 0
M  V30 1238 H 110.385 -1.97798 -3.75036 0
M  V30 1239 C 108.844 -0.55448 -3.32306 0
M  V30 1240 O 109.374 0.307661 -4.0052 0
M  V30 1241 N 107.58 -0.409354 -2.87702 0
M  V30 1242 H 107.127 -1.11196 -2.32364 0
M  V30 1243 H 107.085 0.425223 -3.11511 0
M  V30 1244 N 110.857 0.726932 -1.39834 0
M  V30 1245 C 111.82 1.82269 -1.38962 0
M  V30 1246 C 112.82 1.58248 -0.285334 0
M  V30 1247 O 114.01 1.65499 -0.54366 0
M  V30 1248 C 111.142 3.20186 -1.17019 0
M  V30 1249 H 112.335 1.84443 -2.36476 0
M  V30 1250 H 109.888 0.931416 -1.25516 0
M  V30 1251 H 110.623 3.23669 -0.202204 0
M  V30 1252 H 110.408 3.3902 -1.96998 0
M  V30 1253 H 111.898 4.00235 -1.1917 0
M  V30 1254 N 112.336 1.25143 0.95797 0
M  V30 1255 C 113.582 1.09855 1.70469 0
M  V30 1256 C 113.915 -0.360187 1.90831 0
M  V30 1257 O 113.19 -1.26568 1.47685 0
M  V30 1258 C 113.473 1.8497 3.08963 0
M  V30 1259 C 113.326 3.38652 2.96032 0
M  V30 1260 C 114.645 1.63016 4.08795 0
M  V30 1261 H 111.764 0.400465 0.618706 0
M  V30 1262 H 114.406 1.53933 1.11376 0
M  V30 1263 H 112.556 1.47505 3.59409 0
M  V30 1264 H 114.228 3.85772 2.52938 0
M  V30 1265 H 112.471 3.66534 2.32025 0
M  V30 1266 H 113.142 3.8642 3.94187 0
M  V30 1267 H 115.618 1.95625 3.67247 0
M  V30 1268 H 114.494 2.18015 5.03747 0
M  V30 1269 H 114.755 0.570692 4.38401 0
M  V30 1270 N 113.814 -1.1601 1.06675 0
M  V30 1271 C 115.062 -1.86264 0.784229 0
M  V30 1272 C 115.383 -1.82328 -0.691488 0
M  V30 1273 O 114.653 -1.25947 -1.50047 0
M  V30 1274 H 113.233 -0.689621 0.28711 0
M  V30 1275 H 115.895 -1.40664 1.34906 0
M  V30 1276 H 114.991 -2.91595 1.11259 0
M  V30 1277 N 115.292 -0.849877 -1.32721 0
M  V30 1278 C 116.222 -0.306308 -2.31482 0
M  V30 1279 C 117.203 0.591952 -1.59468 0
M  V30 1280 O 118.388 0.513199 -1.87296 0
M  V30 1281 C 115.518 0.510204 -3.43532 0
M  V30 1282 C 114.472 -0.293209 -4.26994 0
M  V30 1283 C 113.798 0.647743 -5.30762 0
M  V30 1284 C 115.098 -1.51634 -4.99804 0
M  V30 1285 H 116.792 -1.13153 -2.77195 0
M  V30 1286 H 114.338 -0.545553 -1.33266 0
M  V30 1287 H 116.291 0.900856 -4.11658 0
M  V30 1288 H 115.015 1.36874 -2.96535 0
M  V30 1289 H 113.674 -0.665555 -3.60508 0
M  V30 1290 H 113.322 1.50299 -4.8002 0
M  V30 1291 H 113.022 0.11422 -5.87489 0
M  V30 1292 H 114.546 1.03567 -6.01753 0
M  V30 1293 H 115.96 -1.19824 -5.60638 0
M  V30 1294 H 114.357 -1.98745 -5.66234 0
M  V30 1295 H 115.427 -2.28018 -4.27943 0
M  V30 1296 N 116.77 1.45427 -0.607355 0
M  V30 1297 C 117.733 2.28974 0.101693 0
M  V30 1298 C 118.733 1.39754 0.795329 0
M  V30 1299 O 119.923 1.61878 0.643527 0
M  V30 1300 C 117.055 3.20768 1.15414 0
M  V30 1301 H 118.248 2.93147 -0.632844 0
M  V30 1302 H 115.801 1.51945 -0.366391 0
M  V30 1303 H 116.536 2.61395 1.91945 0
M  V30 1304 H 116.321 3.86489 0.66098 0
M  V30 1305 H 117.811 3.83589 1.65073 0
M  V30 1306 N 118.248 0.346503 1.53744 0
M  V30 1307 C 119.476 -0.25041 2.05379 0
M  V30 1308 C 119.891 -1.43979 1.22129 0
M  V30 1309 O 119.248 -1.80677 0.257321 0
M  V30 1310 C 119.299 -0.662575 3.55376 0
M  V30 1311 O 119.02 0.479515 4.35468 0
M  V30 1312 C 120.521 -1.31989 4.23195 0
M  V30 1313 H 117.741 -0.0478198 0.669294 0
M  V30 1314 H 120.285 0.499346 1.9831 0
M  V30 1315 H 118.44 -1.36227 3.62658 0
M  V30 1316 H 118.854 0.15037 5.24284 0
M  V30 1317 H 120.328 -1.55902 5.29527 0
M  V30 1318 H 120.805 -2.27436 3.75725 0
M  V30 1319 H 121.411 -0.662154 4.20114 0
M  V30 1320 N 119.726 -1.57421 0.075193 0
M  V30 1321 C 120.636 -2.1642 -0.905511 0
M  V30 1322 C 121.652 -1.12828 -1.32461 0
M  V30 1323 O 122.828 -1.45109 -1.39661 0
M  V30 1324 C 119.893 -2.71693 -2.15369 0
M  V30 1325 C 118.954 -3.90171 -1.79068 0
M  V30 1326 C 118.187 -4.42798 -2.97936 0
M  V30 1327 O 118.41 -3.94416 -4.12058 0
M  V30 1328 O 117.344 -5.34085 -2.77555 0
M  V30 1329 H 121.17 -3.00588 -0.433626 0
M  V30 1330 H 118.755 -1.48664 -0.148067 0
M  V30 1331 H 120.637 -3.07104 -2.88557 0
M  V30 1332 H 119.312 -1.90582 -2.61649 0
M  V30 1333 H 118.219 -3.59606 -1.03122 0
M  V30 1334 H 119.552 -4.72584 -1.37569 0
M  V30 1335 N 121.204 0.198386 -1.56346 0
M  V30 1336 C 122.62 0.549085 -1.49857 0
M  V30 1337 C 122.82 1.86016 -0.774611 0
M  V30 1338 O 121.876 2.50416 -0.323776 0
M  V30 1339 C 123.189 0.606868 -2.94512 0
M  V30 1340 C 124.737 0.695925 -3.05165 0
M  V30 1341 C 125.212 0.784848 -4.51225 0
M  V30 1342 N 126.703 0.848463 -4.55363 0
M  V30 1343 C 127.438 0.937378 -5.65686 0
M  V30 1344 N 126.934 0.9888 -6.85707 0
M  V30 1345 N 128.727 0.974312 -5.53592 0
M  V30 1346 H 120.878 -0.661655 -2.01831 0
M  V30 1347 H 123.141 -0.235261 -0.918344 0
M  V30 1348 H 122.847 -0.28732 -3.50524 0
M  V30 1349 H 122.721 1.46268 -3.47686 0
M  V30 1350 H 125.108 1.58055 -2.49204 0
M  V30 1351 H 125.189 -0.186022 -2.55123 0
M  V30 1352 H 124.833 -0.0954072 -5.0781 0
M  V30 1353 H 124.763 1.68255 -4.98997 0
M  V30 1354 H 127.254 0.818103 -3.68938 0
M  V30 1355 H 127.567 1.05707 -7.65536 0
M  V30 1356 H 125.912 0.957534 -6.88372 0
M  V30 1357 H 129.103 0.930954 -4.58749 0
M  V30 1358 H 129.276 1.04015 -6.39597 0
M  V30 1359 N 122.682 1.50554 0.465978 0
M  V30 1360 C 123.645 1.69233 1.54574 0
M  V30 1361 C 124.645 0.562901 1.50626 0
M  V30 1362 O 125.835 0.830016 1.53155 0
M  V30 1363 C 122.967 1.7223 2.94193 0
M  V30 1364 H 124.16 2.65571 1.39327 0
M  V30 1365 H 121.713 1.40111 0.692711 0
M  V30 1366 H 122.448 0.77603 3.14878 0
M  V30 1367 H 122.233 2.54285 2.98466 0
M  V30 1368 H 123.723 1.88618 3.72576 0
M  V30 1369 N 124.16 -0.719506 1.40217 0
M  V30 1370 C 125.385 -1.51371 1.4178 0
M  V30 1371 C 125.81 -1.88091 0.0182355 0
M  V30 1372 O 125.168 -1.52997 -0.972707 0
M  V30 1373 C 125.216 -2.768 2.31115 0
M  V30 1374 O 124.32 -3.73349 1.7517 0
M  V30 1375 H 123.661 -0.456529 0.482159 0
M  V30 1376 H 126.191 -0.88644 1.844 0
M  V30 1377 H 126.201 -3.25371 2.46167 0
M  V30 1378 H 124.876 -2.49407 3.3282 0
M  V30 1379 H 123.453 -3.32179 1.69444 0
M  V30 1380 N 125.638 -1.25649 -0.95132 0
M  V30 1381 C 126.886 -1.10375 -1.69298 0
M  V30 1382 C 127.207 0.355339 -1.91735 0
M  V30 1383 O 126.477 1.25188 -1.50681 0
M  V30 1384 H 125.057 -0.405461 -0.627384 0
M  V30 1385 H 127.719 -1.57823 -1.14358 0
M  V30 1386 H 126.815 -1.61465 -2.67087 0
M  V30 1387 N 127.117 1.15442 -1.07289 0
M  V30 1388 C 128.363 1.86489 -0.796846 0
M  V30 1389 C 128.696 1.82078 0.675371 0
M  V30 1390 O 127.971 1.24346 1.4956 0
M  V30 1391 C 128.254 3.35626 -1.30489 0
M  V30 1392 C 128.107 3.48673 -2.84161 0
M  V30 1393 C 129.426 4.30357 -0.920907 0
M  V30 1394 H 126.545 0.677144 -0.290939 0
M  V30 1395 H 129.187 1.35633 -1.33056 0
M  V30 1396 H 127.337 3.79068 -0.850883 0
M  V30 1397 H 129.009 3.14099 -3.37846 0
M  V30 1398 H 127.252 2.90253 -3.22391 0
M  V30 1399 H 127.923 4.53453 -3.14777 0
M  V30 1400 H 130.399 3.94871 -1.3121 0
M  V30 1401 H 129.275 5.33193 -1.30372 0
M  V30 1402 H 129.536 4.4176 0.173226 0
M  V30 1403 N 128.595 0.856903 1.32268 0
M  V30 1404 C 129.528 0.247937 2.26849 0
M  V30 1405 C 130.506 -0.615382 1.50505 0
M  V30 1406 O 131.69 -0.571689 1.79622 0
M  V30 1407 C 128.817 -0.650093 3.32403 0
M  V30 1408 C 127.863 0.140138 4.2627 0
M  V30 1409 S 128.696 1.51004 5.13769 0
M  V30 1410 C 129.852 0.61778 6.22844 0
M  V30 1411 H 130.085 1.04971 2.78152 0
M  V30 1412 H 127.618 0.654665 1.39834 0
M  V30 1413 H 129.576 -1.16256 3.93694 0
M  V30 1414 H 128.237 -1.4257 2.7988 0
M  V30 1415 H 127.43 -0.543945 5.01056 0
M  V30 1416 H 127.032 0.584267 3.69408 0
M  V30 1417 H 129.324 -0.177053 6.77269 0
M  V30 1418 H 130.267 1.33636 6.95375 0
M  V30 1419 H 130.675 0.191124 5.64176 0
M  V30 1420 N 130.073 -1.45103 0.615059 0
M  V30 1421 C 131.319 -2.02483 0.113347 0
M  V30 1422 C 131.652 -1.48146 -1.25564 0
M  V30 1423 O 130.927 -0.659104 -1.82992 0
M  V30 1424 C 131.21 -3.60005 0.0825278 0
M  V30 1425 C 131.063 -4.2466 1.48271 0
M  V30 1426 C 132.382 -4.35972 -0.601401 0
M  V30 1427 H 129.501 -0.735764 0.0426632 0
M  V30 1428 H 132.143 -1.72868 0.788461 0
M  V30 1429 H 130.293 -3.85367 -0.492378 0
M  V30 1430 H 131.965 -4.10458 2.10527 0
M  V30 1431 H 130.208 -3.82772 2.04127 0
M  V30 1432 H 130.879 -5.336 1.41332 0
M  V30 1433 H 133.355 -4.15947 -0.112666 0
M  V30 1434 H 132.231 -5.45697 -0.592097 0
M  V30 1435 H 132.492 -4.09391 -1.66887 0
M  V30 1436 N 131.551 -0.354651 -1.53558 0
M  V30 1437 C 132.776 0.242153 -2.05981 0
M  V30 1438 C 133.201 1.42553 -1.2272 0
M  V30 1439 O 132.559 1.79656 -0.243604 0
M  V30 1440 C 132.607 0.624367 -3.55154 0
M  V30 1441 O 131.711 1.72301 -3.74681 0
M  V30 1442 H 131.052 0.0378432 -0.662921 0
M  V30 1443 H 133.582 -0.512087 -1.98088 0
M  V30 1444 H 133.592 0.898433 -3.97985 0
M  V30 1445 H 132.267 -0.240989 -4.15201 0
M  V30 1446 H 130.844 1.44535 -3.4375 0
M  V30 1447 N 133.029 1.57378 -0.0835403 0
M  V30 1448 C 134.44 1.81261 0.447358 0
M  V30 1449 C 134.791 0.998331 1.68902 0
M  V30 1450 O 133.916 0.224282 2.15235 0
M  V30 1451 C 134.511 3.28767 0.818386 0
M  V30 1452 C 133.07 3.53455 1.29409 0
M  V30 1453 C 132.217 2.75831 0.285024 0
M  V30 1454 H 135.168 1.5566 -0.309115 0
M  V30 1455 H 135.189 3.41459 1.67887 0
M  V30 1456 H 134.701 3.88006 -0.0855019 0
M  V30 1457 H 132.802 2.99534 2.21608 0
M  V30 1458 H 132.915 4.62128 1.2639 0
M  V30 1459 H 131.279 2.42947 0.764767 0
M  V30 1460 H 132.062 3.37813 -0.611341 0
M  V30 1461 N 134.507 -0.190092 1.56449 0
M  V30 1462 C 135.44 -1.26375 1.90012 0
M  V30 1463 C 136.418 -1.43705 0.760765 0
M  V30 1464 O 137.602 -1.59014 1.01226 0
M  V30 1465 C 134.729 -2.62962 2.13468 0
M  V30 1466 C 133.775 -2.62474 3.36169 0
M  V30 1467 S 134.608 -2.13412 4.91137 0
M  V30 1468 C 135.764 -3.51812 5.17667 0
M  V30 1469 H 135.997 -0.977181 2.80782 0
M  V30 1470 H 133.53 -0.393814 1.49293 0
M  V30 1471 H 135.488 -3.41583 2.27664 0
M  V30 1472 H 134.149 -2.88828 1.23439 0
M  V30 1473 H 133.342 -3.62918 3.49723 0
M  V30 1474 H 132.944 -1.91937 3.20992 0
M  V30 1475 H 135.236 -4.47706 5.08494 0
M  V30 1476 H 136.179 -3.43148 6.19399 0
M  V30 1477 H 136.587 -3.46956 4.45288 0
M  V30 1478 N 135.985 -1.50799 -0.457987 0
M  V30 1479 C 136.918 -1.65273 -1.57353 0
M  V30 1480 C 137.896 -0.500578 -1.54703 0
M  V30 1481 O 139.08 -0.721781 -1.74134 0
M  V30 1482 C 136.207 -1.64737 -2.95938 0
M  V30 1483 C 135.253 -2.8567 -3.16693 0
M  V30 1484 S 136.086 -4.46791 -2.95191 0
M  V30 1485 C 137.242 -4.48968 -4.36095 0
M  V30 1486 H 137.475 -2.59633 -1.44838 0
M  V30 1487 H 135.008 -1.40225 -0.64625 0
M  V30 1488 H 136.966 -1.65112 -3.7583 0
M  V30 1489 H 135.627 -0.715899 -3.05833 0
M  V30 1490 H 134.82 -2.81637 -4.17967 0
M  V30 1491 H 134.422 -2.8293 -2.44594 0
M  V30 1492 H 136.714 -4.23337 -5.28954 0
M  V30 1493 H 137.657 -5.50664 -4.45168 0
M  V30 1494 H 138.065 -3.78522 -4.18786 0
M  V30 1495 N 137.463 0.71206 -1.40597 0
M  V30 1496 C 138.41 1.82613 -1.41142 0
M  V30 1497 C 139.38 1.63925 -0.267903 0
M  V30 1498 O 140.565 1.85009 -0.466495 0
M  V30 1499 C 137.705 3.20354 -1.28324 0
M  V30 1500 C 136.818 3.50589 -2.52411 0
M  V30 1501 C 135.953 4.77855 -2.32009 0
M  V30 1502 C 134.992 5.01005 -3.51654 0
M  V30 1503 N 134.129 6.19487 -3.30425 0
M  V30 1504 H 138.969 1.81482 -2.36365 0
M  V30 1505 H 136.506 0.886475 -1.17388 0
M  V30 1506 H 138.464 3.99899 -1.18899 0
M  V30 1507 H 137.094 3.20705 -0.367189 0
M  V30 1508 H 136.146 2.65573 -2.72351 0
M  V30 1509 H 137.458 3.63604 -3.41458 0
M  V30 1510 H 136.612 5.65424 -2.19956 0
M  V30 1511 H 135.351 4.67056 -1.40392 0
M  V30 1512 H 134.356 4.1189 -3.64179 0
M  V30 1513 H 135.581 5.13674 -4.44202 0
M  V30 1514 H 133.527 6.09932 -2.41494 0
M  V30 1515 H 133.444 6.33194 -4.13039 0
M  V30 1516 H 134.712 7.09834 -3.22113 0
M  V30 1517 N 138.941 1.26152 0.944643 0
M  V30 1518 C 139.874 1.01729 2.04271 0
M  V30 1519 C 140.852 -0.0568101 1.62501 0
M  V30 1520 O 142.036 0.0848987 1.88309 0
M  V30 1521 C 139.163 0.539792 3.34371 0
M  V30 1522 C 138.209 1.60593 3.9511 0
M  V30 1523 S 139.042 3.19392 4.29825 0
M  V30 1524 C 140.198 2.73402 5.63029 0
M  V30 1525 H 140.431 1.94703 2.24673 0
M  V30 1526 H 137.964 1.09793 1.08558 0
M  V30 1527 H 139.922 0.270956 4.09605 0
M  V30 1528 H 138.583 -0.369609 3.11918 0
M  V30 1529 H 137.776 1.22275 4.88943 0
M  V30 1530 H 137.378 1.82596 3.26397 0
M  V30 1531 H 139.67 2.1765 6.41588 0
M  V30 1532 H 140.613 3.65913 6.06229 0
M  V30 1533 H 141.021 2.13077 5.22741 0
M  V30 1534 N 140.419 -1.14872 1.07899 0
M  V30 1535 C 141.644 -1.90202 0.826926 0
M  V30 1536 C 142.069 -1.77774 -0.614664 0
M  V30 1537 O 141.427 -1.11431 -1.43013 0
M  V30 1538 C 141.475 -3.38352 1.24702 0
M  V30 1539 O 140.579 -4.10497 0.39575 0
M  V30 1540 H 139.92 -0.591968 0.300782 0
M  V30 1541 H 142.45 -1.45437 1.43907 0
M  V30 1542 H 142.46 -3.89156 1.22563 0
M  V30 1543 H 141.135 -3.46715 2.29698 0
M  V30 1544 H 139.712 -3.69796 0.480117 0
M  V30 1545 N 141.898 -0.863906 -1.31812 0
M  V30 1546 C 142.848 -0.286898 -2.26188 0
M  V30 1547 C 143.832 0.572577 -1.50367 0
M  V30 1548 O 145.024 0.420447 -1.71934 0
M  V30 1549 C 142.153 0.515849 -3.39402 0
M  V30 1550 C 141.239 -0.356531 -4.22599 0
M  V30 1551 N 141.63 -1.44716 -4.84656 0
M  V30 1552 C 139.928 -0.147898 -4.45755 0
M  V30 1553 C 140.629 -1.98462 -5.46798 0
M  V30 1554 N 139.605 -1.28247 -5.28255 0
M  V30 1555 H 143.407 -1.12055 -2.717 0
M  V30 1556 H 140.921 -0.711012 -1.46008 0
M  V30 1557 H 142.918 0.945701 -4.06032 0
M  V30 1558 H 141.578 1.34718 -2.95434 0
M  V30 1559 H 142.589 -1.83008 -4.84488 0
M  V30 1560 H 139.266 0.647973 -4.12441 0
M  V30 1561 H 140.656 -2.89932 -6.06126 0
M  V30 1562 N 143.376 1.44774 -0.622745 0
M  V30 1563 C 144.286 2.34433 0.0886031 0
M  V30 1564 C 145.302 1.52131 0.844529 0
M  V30 1565 O 146.478 1.84886 0.798691 0
M  V30 1566 C 143.543 3.29986 1.0635 0
M  V30 1567 C 142.604 4.28195 0.307873 0
M  V30 1568 C 141.837 5.19183 1.23633 0
M  V30 1569 O 142.06 5.13918 2.47476 0
M  V30 1570 O 140.994 5.97515 0.725189 0
M  V30 1571 H 144.82 2.96693 -0.648599 0
M  V30 1572 H 142.405 1.44408 -0.382957 0
M  V30 1573 H 144.287 3.88825 1.6246 0
M  V30 1574 H 142.962 2.70269 1.78146 0
M  V30 1575 H 141.869 3.72927 -0.296064 0
M  V30 1576 H 143.202 4.90808 -0.3699 0
M  V30 1577 N 144.854 0.36279 1.53368 0
M  V30 1578 C 146.102 -0.227326 2.00817 0
M  V30 1579 C 146.423 -1.49511 1.25186 0
M  V30 1580 O 145.693 -1.92482 0.364348 0
M  V30 1581 H 144.273 -0.0869923 0.741917 0
M  V30 1582 H 146.935 0.488381 1.88682 0
M  V30 1583 H 146.031 -0.456273 3.08747 0
M  V30 1584 N 146.332 -1.57332 0.0918853 0
M  V30 1585 C 147.579 -1.94236 -0.572577 0
M  V30 1586 C 147.907 -0.973398 -1.6839 0
M  V30 1587 O 147.162 0.00756912 -1.95699 0
M  V30 1588 C 147.461 -3.37689 -1.17051 0
M  V30 1589 C 147.127 -4.50527 -0.183304 0
M  V30 1590 C 145.789 -4.81119 0.0882276 0
M  V30 1591 C 148.141 -5.18883 0.49095 0
M  V30 1592 C 145.469 -5.77395 1.04076 0
M  V30 1593 C 147.821 -6.1618 1.43193 0
M  V30 1594 C 146.485 -6.45179 1.71173 0
M  V30 1595 H 145.755 -0.710762 -0.209521 0
M  V30 1596 H 148.402 -1.9077 0.167036 0
M  V30 1597 H 146.707 -3.37718 -1.9863 0
M  V30 1598 H 148.404 -3.63543 -1.69227 0
M  V30 1599 H 144.994 -4.26681 -0.405124 0
M  V30 1600 H 149.178 -4.95427 0.294312 0
M  V30 1601 H 144.434 -5.98179 1.26457 0
M  V30 1602 H 148.608 -6.68243 1.96023 0
M  V30 1603 H 146.235 -7.1959 2.4514 0
M  V30 1604 N 147.81 0.181792 -1.56548 0
M  V30 1605 C 149.058 0.89832 -1.81038 0
M  V30 1606 C 149.379 1.83232 -0.667164 0
M  V30 1607 O 148.649 1.93372 0.313673 0
M  V30 1608 H 147.229 0.33471 -0.667816 0
M  V30 1609 H 149.891 0.184116 -1.94028 0
M  V30 1610 H 148.987 1.4815 -2.74696 0
M  V30 1611 N 149.288 1.51039 0.449983 0
M  V30 1612 C 150.704 1.38934 0.785462 0
M  V30 1613 C 150.904 0.461817 1.96136 0
M  V30 1614 O 149.96 -0.0877389 2.52348 0
M  V30 1615 C 151.273 2.80724 1.0777 0
M  V30 1616 C 152.821 2.89787 1.1829 0
M  V30 1617 C 153.296 4.32457 1.50815 0
M  V30 1618 N 154.787 4.35505 1.57764 0
M  V30 1619 C 155.522 5.42914 1.84477 0
M  V30 1620 N 155.018 6.60502 2.09068 0
M  V30 1621 N 156.811 5.3038 1.86155 0
M  V30 1622 H 148.962 2.09904 -0.324647 0
M  V30 1623 H 151.225 0.944378 -0.0827957 0
M  V30 1624 H 150.931 3.50531 0.286498 0
M  V30 1625 H 150.805 3.19273 2.00859 0
M  V30 1626 H 153.192 2.20186 1.96474 0
M  V30 1627 H 153.273 2.54752 0.231314 0
M  V30 1628 H 152.917 5.02603 0.731622 0
M  V30 1629 H 152.847 4.64995 2.47158 0
M  V30 1630 H 155.338 3.50724 1.40715 0
M  V30 1631 H 155.651 7.38158 2.28785 0
M  V30 1632 H 153.996 6.63639 2.06416 0
M  V30 1633 H 157.187 4.37505 1.66454 0
M  V30 1634 H 157.36 6.1417 2.06637 0
M  V30 1635 N 150.766 -0.704594 1.40972 0
M  V30 1636 C 151.699 -1.82861 1.36518 0
M  V30 1637 C 152.677 -1.6091 0.23382 0
M  V30 1638 O 153.861 -1.83778 0.419271 0
M  V30 1639 C 150.988 -3.1939 1.12729 0
M  V30 1640 C 150.034 -3.60148 2.28463 0
M  V30 1641 S 150.867 -3.65994 3.90907 0
M  V30 1642 C 152.023 -5.05264 3.69403 0
M  V30 1643 H 152.256 -1.86361 2.3164 0
M  V30 1644 H 149.789 -0.872439 1.27389 0
M  V30 1645 H 151.747 -3.98211 0.996893 0
M  V30 1646 H 150.408 -3.1351 0.192427 0
M  V30 1647 H 149.601 -4.59309 2.07489 0
M  V30 1648 H 149.203 -2.88612 2.37863 0
M  V30 1649 H 151.495 -5.92504 3.28551 0
M  V30 1650 H 152.438 -5.31278 4.68134 0
M  V30 1651 H 152.846 -4.76377 3.02862 0
M  V30 1652 N 152.244 -1.26651 -0.937939 0
M  V30 1653 C 153.49 -1.12553 -1.687 0
M  V30 1654 C 153.823 0.329782 -1.91379 0
M  V30 1655 O 153.098 1.24202 -1.4968 0
M  V30 1656 C 153.381 -1.89862 -3.05981 0
M  V30 1657 C 153.234 -3.43318 -2.90607 0
M  V30 1658 C 154.553 -1.69499 -4.0615 0
M  V30 1659 H 151.672 -0.410257 -0.612257 0
M  V30 1660 H 154.314 -1.55685 -1.08913 0
M  V30 1661 H 152.464 -1.53204 -3.57017 0
M  V30 1662 H 154.136 -3.89747 -2.46769 0
M  V30 1663 H 152.379 -3.70179 -2.26164 0
M  V30 1664 H 153.05 -3.92642 -3.8799 0
M  V30 1665 H 155.526 -2.01442 -3.64088 0
M  V30 1666 H 154.402 -2.26002 -5.00214 0
M  V30 1667 H 154.663 -0.640365 -4.37438 0
M  V30 1668 N 153.722 1.14298 -1.08507 0
M  V30 1669 C 154.652 2.21542 -0.737646 0
M  V30 1670 C 155.633 1.67773 0.280377 0
M  V30 1671 O 156.818 1.93616 0.150521 0
M  V30 1672 C 153.948 3.46988 -0.147259 0
M  V30 1673 C 152.902 4.13789 -1.09374 0
M  V30 1674 C 152.228 5.33449 -0.365524 0
M  V30 1675 C 153.528 4.62208 -2.4323 0
M  V30 1676 H 155.222 2.5086 -1.6343 0
M  V30 1677 H 152.768 1.20576 -0.787243 0
M  V30 1678 H 154.721 4.21262 0.107808 0
M  V30 1679 H 153.445 3.17037 0.784538 0
M  V30 1680 H 152.104 3.4147 -1.33393 0
M  V30 1681 H 151.752 4.99759 0.57011 0
M  V30 1682 H 151.452 5.79088 -0.996512 0
M  V30 1683 H 152.976 6.10485 -0.118534 0
M  V30 1684 H 154.39 5.27952 -2.23472 0
M  V30 1685 H 152.787 5.18553 -3.02031 0
M  V30 1686 H 153.857 3.77224 -3.04681 0
M  V30 1687 N 155.201 0.870884 1.31352 0
M  V30 1688 C 156.45 0.478408 1.95944 0
M  V30 1689 C 156.763 -0.974493 1.69597 0
M  V30 1690 O 157.969 -1.47316 2.28058 0
M  V30 1691 C 156.425 0.804609 3.50791 0
M  V30 1692 C 156.033 2.27433 3.85977 0
M  V30 1693 C 157.777 0.480648 4.2177 0
M  V30 1694 C 155.684 2.5429 5.33939 0
M  V30 1695 H 154.614 0.175175 0.733369 0
M  V30 1696 H 157.265 1.06391 1.4951 0
M  V30 1697 H 155.647 0.148347 3.95722 0
M  V30 1698 H 156.821 2.97373 3.52002 0
M  V30 1699 H 155.136 2.56442 3.28065 0
M  V30 1700 H 157.733 0.658519 5.30629 0
M  V30 1701 H 158.076 -0.578979 4.12254 0
M  V30 1702 H 158.609 1.09349 3.82476 0
M  V30 1703 H 155.348 3.58939 5.48491 0
M  V30 1704 H 154.868 1.88945 5.69263 0
M  V30 1705 H 156.547 2.39066 6.01212 0
M  V30 1706 N 156.679 -1.44442 0.630414 0
M  V30 1707 C 157.642 -2.29107 -0.0652523 0
M  V30 1708 C 158.642 -1.41002 -0.772995 0
M  V30 1709 O 159.832 -1.62881 -0.617692 0
M  V30 1710 C 156.964 -3.22564 -1.10296 0
M  V30 1711 H 158.157 -2.92103 0.679401 0
M  V30 1712 H 155.71 -1.51343 0.390517 0
M  V30 1713 H 156.445 -2.64416 -1.87762 0
M  V30 1714 H 156.23 -3.87491 -0.59941 0
M  V30 1715 H 157.72 -3.86167 -1.5895 0
M  V30 1716 N 158.157 -0.370918 -1.53173 0
M  V30 1717 C 159.405 0.216673 -2.00935 0
M  V30 1718 C 159.726 1.48845 -1.25977 0
M  V30 1719 O 158.996 1.92286 -0.374551 0
M  V30 1720 H 157.576 0.0830565 -0.742368 0
M  V30 1721 H 160.238 -0.49838 -1.8842 0
M  V30 1722 H 159.334 0.439893 -3.08984 0
M  V30 1723 N 159.635 1.57281 -0.100228 0
M  V30 1724 C 161.051 1.57527 0.256416 0
M  V30 1725 C 161.251 1.11173 1.68056 0
M  V30 1726 O 160.307 0.79053 2.39806 0
M  V30 1727 C 161.62 3.00673 0.0401747 0
M  V30 1728 C 163.168 3.12815 0.107528 0
M  V30 1729 C 163.643 4.57929 -0.0807834 0
M  V30 1730 N 165.134 4.63193 -0.0261207 0
M  V30 1731 C 165.869 5.73212 -0.146999 0
M  V30 1732 N 165.365 6.92047 -0.322999 0
M  V30 1733 N 167.158 5.62031 -0.0879044 0
M  V30 1734 H 159.309 1.85718 -1.03065 0
M  V30 1735 H 161.572 0.857446 -0.404339 0
M  V30 1736 H 161.278 3.38804 -0.943649 0
M  V30 1737 H 161.152 3.69042 0.780262 0
M  V30 1738 H 163.539 2.74554 1.08186 0
M  V30 1739 H 163.62 2.47028 -0.664134 0
M  V30 1740 H 163.264 4.96886 -1.05201 0
M  V30 1741 H 163.194 5.21783 0.710635 0
M  V30 1742 H 165.685 3.77748 0.107161 0
M  V30 1743 H 165.998 7.7173 -0.406608 0
M  V30 1744 H 164.343 6.94074 -0.358733 0
M  V30 1745 H 167.534 4.68075 0.048498 0
M  V30 1746 H 167.707 6.47734 -0.185557 0
M  V30 1747 N 161.113 -0.173488 1.56642 0
M  V30 1748 C 162.043 -1.2171 1.99271 0
M  V30 1749 C 163.024 -1.46289 0.867959 0
M  V30 1750 O 164.209 -1.5766 1.13388 0
M  V30 1751 C 161.339 -2.55651 2.35074 0
M  V30 1752 C 160.293 -2.45645 3.50489 0
M  V30 1753 C 159.619 -3.84056 3.72028 0
M  V30 1754 C 160.919 -1.96302 4.84007 0
M  V30 1755 H 162.613 -0.86275 2.867 0
M  V30 1756 H 160.159 -0.413571 1.37933 0
M  V30 1757 H 162.112 -3.2886 2.63494 0
M  V30 1758 H 160.836 -2.92869 1.44552 0
M  V30 1759 H 159.495 -1.7489 3.22194 0
M  V30 1760 H 159.143 -4.18664 2.788 0
M  V30 1761 H 158.843 -3.7823 4.49684 0
M  V30 1762 H 160.367 -4.58854 4.02846 0
M  V30 1763 H 161.781 -2.59284 5.11317 0
M  V30 1764 H 160.178 -2.01429 5.65284 0
M  V30 1765 H 161.248 -0.917226 4.76146 0
M  V30 1766 N 162.591 -1.51276 -0.441967 0
M  V30 1767 C 163.84 -1.6295 -1.18871 0
M  V30 1768 C 164.153 -0.349312 -1.92456 0
M  V30 1769 O 165.359 -0.345355 -2.69295 0
M  V30 1770 C 163.815 -2.87759 -2.16155 0
M  V30 1771 C 163.423 -4.22764 -1.48239 0
M  V30 1772 C 165.167 -3.08788 -2.91291 0
M  V30 1773 C 163.074 -5.38728 -2.4398 0
M  V30 1774 H 162.004 -0.606913 -0.447406 0
M  V30 1775 H 164.655 -1.77739 -0.456205 0
M  V30 1776 H 163.037 -2.66593 -2.92821 0
M  V30 1777 H 164.211 -4.54293 -0.771635 0
M  V30 1778 H 162.526 -4.07575 -0.852741 0
M  V30 1779 H 165.123 -3.92599 -3.63002 0
M  V30 1780 H 165.466 -2.21679 -3.5237 0
M  V30 1781 H 165.999 -3.30272 -2.21733 0
M  V30 1782 H 162.738 -6.28082 -1.87598 0
M  V30 1783 H 162.258 -5.1158 -3.13123 0
M  V30 1784 H 163.937 -5.70489 -3.05207 0
M  V30 1785 N 164.069 0.697108 -1.41344 0
M  V30 1786 C 165.315 1.4593 -1.40827 0
M  V30 1787 C 165.648 1.94193 -0.0167098 0
M  V30 1788 O 164.923 1.69425 0.955263 0
M  V30 1789 C 165.206 2.67229 -2.41373 0
M  V30 1790 C 165.059 2.24741 -3.8963 0
M  V30 1791 C 166.378 3.69423 -2.39196 0
M  V30 1792 H 163.497 0.529303 -0.512842 0
M  V30 1793 H 166.139 0.794112 -1.72609 0
M  V30 1794 H 164.289 3.23982 -2.14401 0
M  V30 1795 H 165.961 1.73327 -4.27499 0
M  V30 1796 H 164.204 1.56542 -4.0457 0
M  V30 1797 H 164.875 3.1177 -4.55525 0
M  V30 1798 H 167.351 3.2234 -2.63128 0
M  V30 1799 H 166.227 4.51907 -3.11563 0
M  V30 1800 H 166.488 4.19012 -1.41001 0
M  V30 1801 N 165.547 1.27147 0.931209 0
M  V30 1802 C 166.793 1.13446 1.68101 0
M  V30 1803 C 167.126 -0.319628 1.91552 0
M  V30 1804 O 166.401 -1.23407 1.50336 0
M  V30 1805 C 166.684 1.91482 3.0497 0
M  V30 1806 C 166.537 3.44855 2.88782 0
M  V30 1807 C 167.856 1.71651 4.05246 0
M  V30 1808 H 164.975 0.413498 0.610072 0
M  V30 1809 H 167.617 1.56261 1.08086 0
M  V30 1810 H 165.767 1.55095 3.56199 0
M  V30 1811 H 167.439 3.9105 2.44698 0
M  V30 1812 H 165.682 3.71373 2.24198 0
M  V30 1813 H 166.353 3.94694 3.85902 0
M  V30 1814 H 168.829 2.0337 3.63015 0
M  V30 1815 H 167.705 2.28651 4.99009 0
M  V30 1816 H 167.966 0.663555 4.37092 0
M  V30 1817 N 167.025 -1.13721 1.09112 0
M  V30 1818 C 167.973 -2.21103 0.722219 0
M  V30 1819 C 168.967 -1.67147 -0.275374 0
M  V30 1820 O 170.173 -1.79477 -0.137176 0
M  V30 1821 H 166.548 -0.720445 0.215553 0
M  V30 1822 H 168.519 -2.49483 1.63709 0
M  V30 1823 C 167.268 -3.47352 0.15543 0
M  V30 1824 H 166.591 -3.89206 0.914246 0
M  V30 1825 H 168.031 -4.2395 -0.0647967 0
M  V30 1826 C 166.49 -3.1814 -1.10852 0
M  V30 1827 O 167.02 -3.36604 -2.19227 0
M  V30 1828 N 165.226 -2.72045 -1.02176 0
M  V30 1829 H 164.773 -2.57221 -0.139764 0
M  V30 1830 H 164.731 -2.52875 -1.8682 0
M  V30 1831 N 168.503 -0.877838 -1.30888 0
M  V30 1832 C 169.45 -0.337538 -2.28318 0
M  V30 1833 C 170.42 0.568346 -1.56074 0
M  V30 1834 O 171.605 0.498298 -1.84178 0
M  V30 1835 C 168.745 0.448142 -3.42178 0
M  V30 1836 C 167.858 -0.48615 -4.29256 0
M  V30 1837 C 166.993 0.314427 -5.30269 0
M  V30 1838 C 166.032 -0.615791 -6.08995 0
M  V30 1839 N 165.169 0.14902 -7.01942 0
M  V30 1840 H 170.009 -1.17356 -2.73919 0
M  V30 1841 H 167.546 -0.590094 -1.34745 0
M  V30 1842 H 169.504 0.919517 -4.06941 0
M  V30 1843 H 168.134 1.24879 -2.97666 0
M  V30 1844 H 167.186 -1.076 -3.64865 0
M  V30 1845 H 168.498 -1.19909 -4.84173 0
M  V30 1846 H 167.652 0.847969 -6.00745 0
M  V30 1847 H 166.391 1.06062 -4.76027 0
M  V30 1848 H 165.396 -1.16102 -5.37401 0
M  V30 1849 H 166.621 -1.36097 -6.65323 0
M  V30 1850 H 164.567 0.877884 -6.50099 0
M  V30 1851 H 164.484 -0.504433 -7.54315 0
M  V30 1852 H 165.752 0.663537 -7.76671 0
M  V30 1853 N 169.982 1.44106 -0.638065 0
M  V30 1854 C 170.914 2.28976 0.101205 0
M  V30 1855 C 171.927 1.4167 0.802088 0
M  V30 1856 O 173.116 1.65755 0.662375 0
M  V30 1857 C 170.216 3.18217 1.16581 0
M  V30 1858 C 169.389 4.33978 0.546066 0
M  V30 1859 C 168.448 5.04202 1.50554 0
M  V30 1860 O 167.474 5.59986 1.01999 0
M  V30 1861 N 168.676 5.06296 2.8398 0
M  V30 1862 H 171.441 2.93064 -0.627186 0
M  V30 1863 H 169.002 1.54629 -0.479731 0
M  V30 1864 H 170.994 3.62061 1.80815 0
M  V30 1865 H 169.564 2.55833 1.79634 0
M  V30 1866 H 168.784 3.93239 -0.275046 0
M  V30 1867 H 170.072 5.08675 0.112793 0
M  V30 1868 H 169.47 4.62319 3.26002 0
M  V30 1869 H 168.027 5.53907 3.43556 0
M  V30 1870 N 171.46 0.379036 1.52974 0
M  V30 1871 C 172.39 -0.452706 2.29069 0
M  V30 1872 C 173.371 -1.07237 1.32039 0
M  V30 1873 O 174.556 -1.08708 1.60923 0
M  V30 1874 C 171.686 -1.5856 3.08992 0
M  V30 1875 C 170.64 -1.0925 4.13822 0
M  V30 1876 C 169.966 -2.31668 4.81907 0
M  V30 1877 C 171.266 -0.167702 5.22031 0
M  V30 1878 H 172.96 0.182181 2.98845 0
M  V30 1879 H 170.506 0.0890592 1.43724 0
M  V30 1880 H 172.459 -2.1742 3.6098 0
M  V30 1881 H 171.183 -2.24792 2.36931 0
M  V30 1882 H 169.842 -0.526494 3.628 0
M  V30 1883 H 169.49 -2.96386 4.06404 0
M  V30 1884 H 169.19 -1.9934 5.52754 0
M  V30 1885 H 170.714 -2.91189 5.36695 0
M  V30 1886 H 172.128 -0.664186 5.6944 0
M  V30 1887 H 170.525 0.0653265 6.00064 0
M  V30 1888 H 171.595 0.786347 4.78482 0
M  V30 1889 N 172.938 -1.57226 0.108567 0
M  V30 1890 C 174.354 -1.5766 -0.248058 0
M  V30 1891 C 174.554 -1.12063 -1.67464 0
M  V30 1892 O 173.61 -0.803236 -2.39383 0
M  V30 1893 C 174.923 -3.0069 -0.0242287 0
M  V30 1894 C 176.471 -3.12868 -0.0909372 0
M  V30 1895 C 176.946 -4.57879 0.105067 0
M  V30 1896 N 178.437 -4.63172 0.0506846 0
M  V30 1897 C 179.172 -5.73126 0.177396 0
M  V30 1898 N 178.668 -6.91866 0.359696 0
M  V30 1899 N 180.461 -5.61977 0.117709 0
M  V30 1900 H 172.612 -1.85169 1.04049 0
M  V30 1901 H 174.875 -0.85529 0.40888 0
M  V30 1902 H 174.581 -3.38299 0.961604 0
M  V30 1903 H 174.455 -3.6945 -0.76068 0
M  V30 1904 H 176.842 -2.75124 -1.06729 0
M  V30 1905 H 176.923 -2.46672 0.677225 0
M  V30 1906 H 176.567 -4.96321 1.07834 0
M  V30 1907 H 176.497 -5.22153 -0.682954 0
M  V30 1908 H 178.988 -3.778 -0.0871266 0
M  V30 1909 H 179.301 -7.71503 0.447529 0
M  V30 1910 H 177.646 -6.93874 0.395536 0
M  V30 1911 H 180.837 -4.68094 -0.0236741 0
M  V30 1912 H 181.01 -6.47627 0.219905 0
M  V30 1913 N 174.416 0.165178 -1.56732 0
M  V30 1914 C 175.693 0.908443 -1.73224 0
M  V30 1915 C 176.073 2.0013 -0.67165 0
M  V30 1916 O 175.421 2.26353 0.31253 0
M  V30 1917 C 175.631 1.46756 -3.16644 0
M  V30 1918 C 176.979 1.93809 -3.77787 0
M  V30 1919 O 178.003 1.56537 -3.1996 0
M  V30 1920 O 176.862 2.62486 -4.79336 0
M  V30 1921 H 173.956 0.428025 -0.707618 0
M  V30 1922 H 176.502 0.152526 -1.69013 0
M  V30 1923 H 175.274 0.68129 -3.85323 0
M  V30 1924 H 174.897 2.28749 -3.25207 0
M  V30 1925 N 175.894 1.51508 0.433938 0
M  V30 1926 C 177.14 1.64588 1.18484 0
M  V30 1927 C 177.473 0.362666 1.90784 0
M  V30 1928 O 176.748 -0.637892 1.83742 0
M  V30 1929 C 177.031 2.85149 2.19913 0
M  V30 1930 C 176.884 4.23456 1.51674 0
M  V30 1931 C 178.203 3.01227 3.20858 0
M  V30 1932 H 175.322 0.598994 0.429389 0
M  V30 1933 H 177.964 1.84002 0.473647 0
M  V30 1934 H 176.114 2.68729 2.80566 0
M  V30 1935 H 177.786 4.51552 0.943322 0
M  V30 1936 H 176.029 4.25998 0.819035 0
M  V30 1937 H 176.7 5.03812 2.2556 0
M  V30 1938 H 179.176 3.16382 2.70263 0
M  V30 1939 H 178.052 3.87141 3.89118 0
M  V30 1940 H 178.313 2.13447 3.8716 0
M  V30 1941 N 177.372 -0.689602 1.41712 0
M  V30 1942 C 178.322 -1.79571 1.40493 0
M  V30 1943 C 179.306 -1.58473 0.278409 0
M  V30 1944 O 180.498 -1.69204 0.519532 0
M  V30 1945 C 177.627 -3.17923 1.29536 0
M  V30 1946 C 176.713 -3.44695 2.47075 0
M  V30 1947 N 177.104 -3.42132 3.72531 0
M  V30 1948 C 175.402 -3.75269 2.41017 0
M  V30 1949 C 176.103 -3.67976 4.50521 0
M  V30 1950 N 175.079 -3.88014 3.80718 0
M  V30 1951 H 178.881 -1.75961 2.35404 0
M  V30 1952 H 176.395 -0.889839 1.35851 0
M  V30 1953 H 178.392 -3.97167 1.26745 0
M  V30 1954 H 177.052 -3.22741 0.356153 0
M  V30 1955 H 178.063 -3.22375 4.05333 0
M  V30 1956 H 174.74 -3.87421 1.55599 0
M  V30 1957 H 176.13 -3.7208 5.59469 0
M  V30 1958 N 178.85 -1.27639 -0.924453 0
M  V30 1959 C 180.266 -1.05113 -1.20097 0
M  V30 1960 C 180.466 0.213262 -2.00368 0
M  V30 1961 O 179.522 0.91787 -2.35226 0
M  V30 1962 C 180.835 -2.29244 -1.94596 0
M  V30 1963 C 182.383 -2.34315 -2.07522 0
M  V30 1964 C 182.858 -3.58183 -2.85427 0
M  V30 1965 N 184.349 -3.5876 -2.92994 0
M  V30 1966 C 185.084 -4.51277 -3.53746 0
M  V30 1967 N 184.58 -5.54102 -4.15863 0
M  V30 1968 N 186.373 -4.38894 -3.51181 0
M  V30 1969 H 178.524 -2.08821 -0.388264 0
M  V30 1970 H 180.787 -0.918568 -0.234385 0
M  V30 1971 H 180.493 -3.21301 -1.43034 0
M  V30 1972 H 180.367 -2.34816 -2.95197 0
M  V30 1973 H 182.754 -1.42762 -2.58269 0
M  V30 1974 H 182.835 -2.32744 -1.06131 0
M  V30 1975 H 182.479 -4.50074 -2.35363 0
M  V30 1976 H 182.409 -3.57006 -3.8711 0
M  V30 1977 H 184.9 -2.84398 -2.4885 0
M  V30 1978 H 185.213 -6.20859 -4.60168 0
M  V30 1979 H 183.558 -5.57941 -4.144 0
M  V30 1980 H 186.749 -3.57772 -3.01856 0
M  V30 1981 H 186.922 -5.11186 -3.98237 0
M  V30 1982 N 180.328 1.1314 -1.09713 0
M  V30 1983 C 181.575 1.84484 -0.834987 0
M  V30 1984 C 181.903 1.83689 0.639418 0
M  V30 1985 O 181.158 1.2724 1.4869 0
M  V30 1986 C 181.457 3.32167 -1.3191 0
M  V30 1987 C 181.123 3.53139 -2.80363 0
M  V30 1988 C 179.785 3.58571 -3.20905 0
M  V30 1989 C 182.137 3.60866 -3.76065 0
M  V30 1990 C 179.465 3.69267 -4.55916 0
M  V30 1991 C 181.817 3.73089 -5.10869 0
M  V30 1992 C 180.481 3.76775 -5.50996 0
M  V30 1993 H 179.751 0.675073 -0.305544 0
M  V30 1994 H 182.398 1.33554 -1.37243 0
M  V30 1995 H 180.703 3.85469 -0.701517 0
M  V30 1996 H 182.4 3.85821 -1.09284 0
M  V30 1997 H 178.99 3.49569 -2.47991 0
M  V30 1998 H 183.174 3.55946 -3.45855 0
M  V30 1999 H 178.43 3.70388 -4.86438 0
M  V30 2000 H 182.604 3.78011 -5.84877 0
M  V30 2001 H 180.231 3.84815 -6.55608 0
M  V30 2002 N 181.806 0.884767 1.30421 0
M  V30 2003 C 183.054 0.502112 1.95763 0
M  V30 2004 C 183.375 -0.951815 1.70192 0
M  V30 2005 O 182.645 -1.6692 1.0254 0
M  V30 2006 H 181.225 0.182694 0.724315 0
M  V30 2007 H 183.887 1.1278 1.58955 0
M  V30 2008 H 182.983 0.672188 3.04775 0
M  V30 2009 N 183.284 -1.43765 0.645699 0
M  V30 2010 C 184.531 -2.01898 0.15604 0
M  V30 2011 C 184.859 -1.50887 -1.22733 0
M  V30 2012 O 184.114 -0.689271 -1.8316 0
M  V30 2013 C 184.413 -3.57238 0.107679 0
M  V30 2014 C 184.079 -4.27564 1.43178 0
M  V30 2015 C 182.741 -4.46492 1.7944 0
M  V30 2016 C 185.093 -4.67454 2.30513 0
M  V30 2017 C 182.421 -5.02573 3.02716 0
M  V30 2018 C 184.773 -5.24901 3.53074 0
M  V30 2019 C 183.437 -5.42046 3.89541 0
M  V30 2020 H 182.707 -0.738797 0.057099 0
M  V30 2021 H 185.354 -1.72341 0.834912 0
M  V30 2022 H 183.659 -3.86293 -0.654618 0
M  V30 2023 H 185.356 -3.99965 -0.287938 0
M  V30 2024 H 181.946 -4.13171 1.13963 0
M  V30 2025 H 186.13 -4.5253 2.0379 0
M  V30 2026 H 181.386 -5.14033 3.31028 0
M  V30 2027 H 185.56 -5.54758 4.20971 0
M  V30 2028 H 183.187 -5.85268 4.85145 0
M  V30 2029 N 184.763 -0.387143 -1.52771 0
M  V30 2030 C 186.174 0.0873634 -1.86495 0
M  V30 2031 C 186.525 1.46336 -1.30691 0
M  V30 2032 O 185.65 2.068 -0.637409 0
M  V30 2033 C 186.245 0.165305 -3.38396 0
M  V30 2034 C 184.804 0.584101 -3.7184 0
M  V30 2035 C 183.951 -0.255279 -2.76122 0
M  V30 2036 H 186.902 -0.605104 -1.46711 0
M  V30 2037 H 186.923 0.984848 -3.67534 0
M  V30 2038 H 186.435 -0.836301 -3.78982 0
M  V30 2039 H 184.536 1.59315 -3.36823 0
M  V30 2040 H 184.649 0.343749 -4.77865 0
M  V30 2041 H 183.013 0.279126 -2.53166 0
M  V30 2042 H 183.796 -1.25482 -3.19545 0
M  V30 2043 N 186.241 1.57166 -0.116904 0
M  V30 2044 C 187.466 1.999 0.55271 0
M  V30 2045 C 187.891 0.996039 1.59564 0
M  V30 2046 O 187.249 -0.032556 1.81271 0
M  V30 2047 C 187.297 3.4152 1.15742 0
M  V30 2048 O 186.401 3.44106 2.27299 0
M  V30 2049 H 185.742 0.649447 0.138258 0
M  V30 2050 H 188.272 2.03573 -0.204759 0
M  V30 2051 H 188.282 3.79684 1.49346 0
M  V30 2052 H 186.957 4.14034 0.393493 0
M  V30 2053 H 185.534 3.17759 1.9515 0
M  V30 2054 N 187.719 -0.156864 1.56817 0
M  V30 2055 C 188.652 -1.22316 1.9265 0
M  V30 2056 C 189.63 -1.42059 0.791076 0
M  V30 2057 O 190.814 -1.56831 1.04576 0
M  V30 2058 C 187.941 -2.58375 2.18998 0
M  V30 2059 C 186.987 -2.55284 3.41661 0
M  V30 2060 S 187.82 -2.02946 4.95553 0
M  V30 2061 C 188.976 -3.40753 5.25013 0
M  V30 2062 H 189.209 -0.917403 2.82791 0
M  V30 2063 H 186.742 -0.362059 1.50095 0
M  V30 2064 H 188.7 -3.36677 2.34859 0
M  V30 2065 H 187.361 -2.86145 1.29538 0
M  V30 2066 H 186.554 -3.55418 3.57343 0
M  V30 2067 H 186.156 -1.85086 3.24991 0
M  V30 2068 H 188.448 -4.36819 5.17876 0
M  V30 2069 H 189.391 -3.29933 6.26538 0
M  V30 2070 H 189.799 -3.37433 4.52548 0
M  V30 2071 N 189.197 -1.51736 -0.425897 0
M  V30 2072 C 190.107 -1.76738 -1.54275 0
M  V30 2073 C 191.123 -0.65211 -1.61318 0
M  V30 2074 O 192.299 -0.935654 -1.78346 0
M  V30 2075 C 189.364 -1.89755 -2.90162 0
M  V30 2076 C 188.425 -3.13633 -2.93143 0
M  V30 2077 C 187.658 -3.2602 -4.22548 0
M  V30 2078 O 187.881 -2.44067 -5.15546 0
M  V30 2079 O 186.815 -4.19071 -4.32046 0
M  V30 2080 H 190.641 -2.71502 -1.36089 0
M  V30 2081 H 188.226 -1.36376 -0.610069 0
M  V30 2082 H 190.108 -2.00236 -3.70788 0
M  V30 2083 H 188.783 -0.981785 -3.08452 0
M  V30 2084 H 187.69 -3.08622 -2.11431 0
M  V30 2085 H 189.023 -4.04936 -2.798 0
M  V30 2086 N 190.675 0.682077 -1.42076 0
M  V30 2087 C 191.622 1.79578 -1.44984 0
M  V30 2088 C 192.592 1.6332 -0.302614 0
M  V30 2089 O 193.777 1.83978 -0.505633 0
M  V30 2090 C 190.917 3.1756 -1.35091 0
M  V30 2091 C 190.03 3.45156 -2.59791 0
M  V30 2092 C 189.165 4.72826 -2.42093 0
M  V30 2093 C 188.204 4.93433 -3.62202 0
M  V30 2094 N 187.341 6.12338 -3.43491 0
M  V30 2095 H 192.181 1.76427 -2.40161 0
M  V30 2096 H 189.718 0.861376 -1.19242 0
M  V30 2097 H 191.676 3.97287 -1.27354 0
M  V30 2098 H 190.306 3.19854 -0.435133 0
M  V30 2099 H 189.358 2.59736 -2.77923 0
M  V30 2100 H 190.67 3.5628 -3.49094 0
M  V30 2101 H 189.824 5.60631 -2.319 0
M  V30 2102 H 188.563 4.63973 -1.50268 0
M  V30 2103 H 187.568 4.04073 -3.72834 0
M  V30 2104 H 188.793 5.04136 -4.54998 0
M  V30 2105 H 186.739 6.04672 -2.54377 0
M  V30 2106 H 186.656 6.2429 -4.26377 0
M  V30 2107 H 187.924 7.02841 -3.37097 0
M  V30 2108 N 192.153 1.28127 0.917671 0
M  V30 2109 C 193.083 1.14248 2.03641 0
M  V30 2110 C 194.064 0.0412748 1.7005 0
M  V30 2111 O 195.249 0.217566 1.92977 0
M  V30 2112 C 192.379 0.799431 3.37974 0
M  V30 2113 C 191.333 1.85497 3.85713 0
M  V30 2114 C 190.659 1.36565 5.16966 0
M  V30 2115 C 191.959 3.26085 4.08002 0
M  V30 2116 H 193.653 2.07835 2.15511 0
M  V30 2117 H 191.199 1.00064 1.03553 0
M  V30 2118 H 193.152 0.689114 4.15727 0
M  V30 2119 H 191.876 -0.172145 3.26146 0
M  V30 2120 H 190.535 1.95437 3.10161 0
M  V30 2121 H 190.183 0.383253 5.01538 0
M  V30 2122 H 189.883 2.07143 5.49878 0
M  V30 2123 H 191.407 1.26848 5.97279 0
M  V30 2124 H 192.821 3.19089 4.76293 0
M  V30 2125 H 191.218 3.94462 4.52238 0
M  V30 2126 H 192.288 3.70394 3.12948 0
M  V30 2127 N 193.631 -1.12557 1.10312 0
M  V30 2128 C 194.594 -2.16434 0.75424 0
M  V30 2129 C 195.594 -1.59278 -0.220685 0
M  V30 2130 O 196.784 -1.742 0.00230591 0
M  V30 2131 C 193.916 -3.40699 0.116987 0
M  V30 2132 H 195.109 -2.48811 1.67431 0
M  V30 2133 H 192.662 -1.27542 0.903475 0
M  V30 2134 H 193.397 -3.13921 -0.813877 0
M  V30 2135 H 193.182 -3.83459 0.818613 0
M  V30 2136 H 194.672 -4.17451 -0.111387 0
M  V30 2137 N 195.109 -0.891671 -1.2995 0
M  V30 2138 C 196.019 -0.367691 -2.31701 0
M  V30 2139 C 197.035 0.533486 -1.6562 0
M  V30 2140 O 198.211 0.424997 -1.96865 0
M  V30 2141 C 195.276 0.403406 -3.44345 0
M  V30 2142 C 194.337 -0.528328 -4.26037 0
M  V30 2143 C 193.57 0.206063 -5.33302 0
M  V30 2144 O 193.793 1.43119 -5.52153 0
M  V30 2145 O 192.727 -0.447281 -6.00236 0
M  V30 2146 H 196.553 -1.21163 -2.78484 0
M  V30 2147 H 194.138 -0.655725 -1.34241 0
M  V30 2148 H 196.02 0.839753 -4.12948 0
M  V30 2149 H 194.695 1.22354 -2.99685 0
M  V30 2150 H 193.602 -1.01362 -3.60106 0
M  V30 2151 H 194.935 -1.31465 -4.74318 0
M  V30 2152 N 196.587 1.43421 -0.653314 0
M  V30 2153 C 197.497 2.34568 0.0388565 0
M  V30 2154 C 198.513 1.53888 0.81207 0
M  V30 2155 O 199.689 1.86539 0.759294 0
M  V30 2156 C 196.754 3.32167 0.993269 0
M  V30 2157 C 195.815 4.28751 0.216977 0
M  V30 2158 C 195.048 5.21688 1.12593 0
M  V30 2159 O 195.271 5.19052 2.36519 0
M  V30 2160 O 194.205 5.98919 0.598284 0
M  V30 2161 H 198.031 2.95251 -0.711386 0
M  V30 2162 H 195.616 1.43564 -0.413502 0
M  V30 2163 H 197.498 3.92183 1.54176 0
M  V30 2164 H 196.173 2.73987 1.72374 0
M  V30 2165 H 195.08 3.72215 -0.375101 0
M  V30 2166 H 196.413 4.89913 -0.473924 0
M  V30 2167 N 198.065 0.39524 1.52563 0
M  V30 2168 C 199.313 -0.184678 2.01254 0
M  V30 2169 C 199.634 -1.46822 1.28329 0
M  V30 2170 O 198.904 -1.91666 0.405094 0
M  V30 2171 H 197.484 -0.0712355 0.743596 0
M  V30 2172 H 200.146 0.528293 1.87603 0
M  V30 2173 H 199.242 -0.390681 3.09645 0
M  V30 2174 N 199.544 -1.57102 0.125237 0
M  V30 2175 C 200.821 -1.86953 -0.575142 0
M  V30 2176 C 201.201 -1.02749 -1.84407 0
M  V30 2177 O 200.549 -0.108144 -2.28244 0
M  V30 2178 C 200.759 -3.38198 -0.861583 0
M  V30 2179 C 202.107 -4.06937 -1.21192 0
M  V30 2180 O 203.131 -3.43252 -0.951645 0
M  V30 2181 O 201.99 -5.19364 -1.70068 0
M  V30 2182 H 199.084 -0.774147 -0.290906 0
M  V30 2183 H 201.63 -1.68942 0.160211 0
M  V30 2184 H 200.402 -3.91282 0.0373647 0
M  V30 2185 H 200.025 -3.61661 -1.65188 0
M  V30 2186 N 201.022 0.148545 -1.56898 0
M  V30 2187 C 201.969 1.18345 -1.98149 0
M  V30 2188 C 202.939 1.42772 -0.848848 0
M  V30 2189 O 204.124 1.55132 -1.11079 0
M  V30 2190 C 201.264 2.51231 -2.36594 0
M  V30 2191 C 200.377 2.33991 -3.63142 0
M  V30 2192 C 199.512 3.59902 -3.90697 0
M  V30 2193 C 198.551 3.37692 -5.1052 0
M  V30 2194 N 197.688 4.5573 -5.34092 0
M  V30 2195 H 202.528 0.82467 -2.86362 0
M  V30 2196 H 200.065 0.395756 -1.41676 0
M  V30 2197 H 202.023 3.28713 -2.56912 0
M  V30 2198 H 200.653 2.85059 -1.51463 0
M  V30 2199 H 199.705 1.47572 -3.50609 0
M  V30 2200 H 201.017 2.13539 -4.5078 0
M  V30 2201 H 200.171 4.45813 -4.11505 0
M  V30 2202 H 198.91 3.83357 -3.01477 0
M  V30 2203 H 197.915 2.5017 -4.89587 0
M  V30 2204 H 199.14 3.15637 -6.0129 0
M  V30 2205 H 197.086 4.79361 -4.47827 0
M  V30 2206 H 197.003 4.38274 -6.15996 0
M  V30 2207 H 198.271 5.42858 -5.59397 0
M  V30 2208 N 202.5 1.5196 0.417844 0
M  V30 2209 C 203.43 1.77634 1.51554 0
M  V30 2210 C 204.411 0.626918 1.58126 0
M  V30 2211 O 205.596 0.871632 1.7354 0
M  V30 2212 C 202.726 1.91911 2.8946 0
M  V30 2213 C 201.68 3.07463 2.97743 0
M  V30 2214 C 201.006 3.06951 4.37819 0
M  V30 2215 C 202.306 4.47082 2.70027 0
M  V30 2216 H 204 2.6955 1.3032 0
M  V30 2217 H 201.546 1.29706 0.625492 0
M  V30 2218 H 203.499 2.08455 3.6623 0
M  V30 2219 H 202.223 0.966598 3.11969 0
M  V30 2220 H 200.882 2.90656 2.23416 0
M  V30 2221 H 200.53 2.09438 4.57323 0
M  V30 2222 H 200.23 3.84556 4.44286 0
M  V30 2223 H 201.754 3.25613 5.16535 0
M  V30 2224 H 203.168 4.6414 3.36522 0
M  V30 2225 H 201.565 5.2654 2.87881 0
M  V30 2226 H 202.635 4.55777 1.65514 0
M  V30 2227 N 203.978 -0.674533 1.42435 0
M  V30 2228 C 205.224 -1.43671 1.43131 0
M  V30 2229 C 205.557 -1.94142 0.0476021 0
M  V30 2230 O 204.832 -1.70924 -0.928188 0
M  V30 2231 C 205.115 -2.63355 2.45594 0
M  V30 2232 C 204.968 -2.18514 3.93156 0
M  V30 2233 C 206.287 -3.65571 2.45043 0
M  V30 2234 H 203.406 -0.521077 0.521198 0
M  V30 2235 H 206.048 -0.766551 1.7385 0
M  V30 2236 H 204.198 -3.2053 2.19528 0
M  V30 2237 H 205.87 -1.66504 4.30202 0
M  V30 2238 H 204.113 -1.50086 4.07009 0
M  V30 2239 H 204.784 -3.04484 4.60428 0
M  V30 2240 H 207.26 -3.18113 2.68223 0
M  V30 2241 H 206.136 -4.46893 3.18713 0
M  V30 2242 H 206.397 -4.16716 1.47649 0
M  V30 2243 N 205.456 -1.28612 -0.910864 0
M  V30 2244 C 206.419 -1.12803 -1.9952 0
M  V30 2245 C 207.419 -0.0668264 -1.60661 0
M  V30 2246 O 208.609 -0.312847 -1.71368 0
M  V30 2247 C 205.741 -0.72254 -3.33155 0
M  V30 2248 H 206.934 -2.09109 -2.14973 0
M  V30 2249 H 204.487 -1.11639 -1.09391 0
M  V30 2250 H 205.222 0.241152 -3.23402 0
M  V30 2251 H 205.007 -1.48916 -3.62721 0
M  V30 2252 H 206.497 -0.634666 -4.12749 0
M  V30 2253 N 206.934 1.1197 -1.10907 0
M  V30 2254 C 208.182 1.83225 -0.852819 0
M  V30 2255 C 208.503 1.84769 0.623341 0
M  V30 2256 O 207.773 1.3143 1.45269 0
M  V30 2257 H 206.353 0.67849 -0.312507 0
M  V30 2258 H 209.015 1.3556 -1.40033 0
M  V30 2259 H 208.111 2.87265 -1.22005 0
M  V30 2260 N 208.412 0.89855 1.29475 0
M  V30 2261 C 209.375 0.380272 2.26023 0
M  V30 2262 C 210.375 -0.484891 1.53315 0
M  V30 2263 O 211.565 -0.290108 1.71767 0
M  V30 2264 C 208.697 -0.45651 3.3783 0
M  V30 2265 H 209.89 1.23295 2.73383 0
M  V30 2266 H 207.443 0.676589 1.40897 0
M  V30 2267 H 208.178 -1.32922 2.95808 0
M  V30 2268 H 207.963 0.163393 3.91759 0
M  V30 2269 H 209.453 -0.810466 4.0966 0
M  V30 2270 N 209.89 -1.43072 0.660911 0
M  V30 2271 C 210.82 -2.33497 -0.0122829 0
M  V30 2272 C 211.801 -1.49903 -0.803925 0
M  V30 2273 O 212.986 -1.78546 -0.763864 0
M  V30 2274 C 210.116 -3.33363 -0.973994 0
M  V30 2275 C 209.07 -4.27003 -0.291928 0
M  V30 2276 C 208.396 -5.16967 -1.36562 0
M  V30 2277 C 209.696 -5.15816 0.820462 0
M  V30 2278 H 211.39 -2.90038 0.742873 0
M  V30 2279 H 208.936 -1.39461 0.358688 0
M  V30 2280 H 210.889 -3.95524 -1.45392 0
M  V30 2281 H 209.613 -2.75095 -1.7604 0
M  V30 2282 H 208.272 -3.66217 0.167623 0
M  V30 2283 H 207.92 -4.55034 -2.14366 0
M  V30 2284 H 207.62 -5.80441 -0.914454 0
M  V30 2285 H 209.144 -5.82003 -1.84675 0
M  V30 2286 H 210.558 -5.71742 0.422366 0
M  V30 2287 H 208.955 -5.8805 1.19656 0
M  V30 2288 H 210.025 -4.55045 1.67518 0
M  V30 2289 N 211.368 -0.403325 -1.52352 0
M  V30 2290 C 212.278 0.432009 -2.30588 0
M  V30 2291 C 213.294 1.05884 -1.38075 0
M  V30 2292 O 214.47 1.06161 -1.71148 0
M  V30 2293 C 211.535 1.53669 -3.10784 0
M  V30 2294 C 210.596 0.933525 -4.19027 0
M  V30 2295 C 209.829 1.98557 -4.9539 0
M  V30 2296 O 210.052 3.20283 -4.71991 0
M  V30 2297 O 208.986 1.59504 -5.80381 0
M  V30 2298 H 212.812 -0.205739 -3.03002 0
M  V30 2299 H 210.397 -0.166675 -1.48467 0
M  V30 2300 H 212.279 2.17814 -3.60742 0
M  V30 2301 H 210.954 2.15915 -2.41169 0
M  V30 2302 H 209.861 0.254954 -3.7323 0
M  V30 2303 H 211.194 0.35508 -4.90918 0
M  V30 2304 N 212.846 1.57033 -0.133567 0
M  V30 2305 C 213.779 2.11824 0.848872 0
M  V30 2306 C 214.757 1.03833 1.2513 0
M  V30 2307 O 215.941 1.31579 1.34978 0
M  V30 2308 C 213.068 2.62692 2.138 0
M  V30 2309 C 212.114 3.82705 1.88253 0
M  V30 2310 S 212.947 5.2438 1.08563 0
M  V30 2311 C 214.103 5.78627 2.38624 0
M  V30 2312 H 214.336 2.94824 0.38289 0
M  V30 2313 H 211.869 1.5419 0.0804796 0
M  V30 2314 H 213.827 2.92652 2.87863 0
M  V30 2315 H 212.488 1.79847 2.57515 0
M  V30 2316 H 211.681 4.16496 2.83809 0
M  V30 2317 H 211.283 3.53437 1.22305 0
M  V30 2318 H 213.575 5.8924 3.34369 0
M  V30 2319 H 214.518 6.76443 2.09358 0
M  V30 2320 H 214.926 5.06783 2.48658 0
M  V30 2321 N 214.325 -0.140222 1.56975 0
M  V30 2322 C 215.574 -0.850152 1.82908 0
M  V30 2323 C 215.887 -1.82028 0.715892 0
M  V30 2324 O 217.093 -2.57485 0.861016 0
M  V30 2325 C 215.549 -1.5625 3.24213 0
M  V30 2326 C 215.157 -0.63443 4.43485 0
M  V30 2327 C 216.901 -2.25881 3.59413 0
M  V30 2328 C 214.808 -1.34879 5.75814 0
M  V30 2329 H 213.738 -0.321221 0.682153 0
M  V30 2330 H 216.389 -0.102874 1.83211 0
M  V30 2331 H 214.771 -2.35565 3.18316 0
M  V30 2332 H 215.945 0.12398 4.60633 0
M  V30 2333 H 214.26 -0.0461836 4.16374 0
M  V30 2334 H 216.857 -2.79978 4.5554 0
M  V30 2335 H 217.2 -3.02693 2.85802 0
M  V30 2336 H 217.733 -1.53477 3.67001 0
M  V30 2337 H 214.472 -0.622385 6.52539 0
M  V30 2338 H 213.992 -2.07974 5.6259 0
M  V30 2339 H 215.671 -1.88784 6.18845 0
M  V30 2340 N 215.803 -1.52179 -0.40978 0
M  V30 2341 C 216.713 -1.78364 -1.52392 0
M  V30 2342 C 217.729 -0.669183 -1.60617 0
M  V30 2343 O 218.905 -0.954518 -1.77344 0
M  V30 2344 C 215.97 -1.92822 -2.88133 0
M  V30 2345 C 215.031 -3.16725 -2.898 0
M  V30 2346 C 214.264 -3.30483 -4.19067 0
M  V30 2347 O 214.487 -2.49522 -5.12928 0
M  V30 2348 O 213.421 -4.2363 -4.27576 0
M  V30 2349 H 217.247 -2.72931 -1.33201 0
M  V30 2350 H 214.832 -1.37016 -0.59557 0
M  V30 2351 H 216.714 -2.04157 -3.68643 0
M  V30 2352 H 215.389 -1.01444 -3.07393 0
M  V30 2353 H 214.296 -3.10848 -2.08146 0
M  V30 2354 H 215.629 -4.07881 -2.75489 0
M  V30 2355 N 217.281 0.66697 -1.42791 0
M  V30 2356 C 218.228 1.7803 -1.4688 0
M  V30 2357 C 219.198 1.6299 -0.319919 0
M  V30 2358 O 220.383 1.83432 -0.525118 0
M  V30 2359 C 217.523 3.1611 -1.38451 0
M  V30 2360 C 216.636 3.42381 -2.63437 0
M  V30 2361 C 215.771 4.70232 -2.47094 0
M  V30 2362 C 214.81 4.89564 -3.67415 0
M  V30 2363 N 213.947 6.08661 -3.49966 0
M  V30 2364 H 218.787 1.7387 -2.42019 0
M  V30 2365 H 216.324 0.84868 -1.20149 0
M  V30 2366 H 218.282 3.95914 -1.31561 0
M  V30 2367 H 216.912 3.19374 -0.469033 0
M  V30 2368 H 215.964 2.56774 -2.80662 0
M  V30 2369 H 217.276 3.52557 -3.52853 0
M  V30 2370 H 216.43 5.5814 -2.37834 0
M  V30 2371 H 215.169 4.62353 -1.5518 0
M  V30 2372 H 214.174 4.00096 -3.77099 0
M  V30 2373 H 215.399 4.99282 -4.6032 0
M  V30 2374 H 213.345 6.0194 -2.60776 0
M  V30 2375 H 213.262 6.19733 -4.32975 0
M  V30 2376 H 214.53 6.99226 -3.44532 0
M  V30 2377 N 218.759 1.29093 0.90403 0
M  V30 2378 C 220.006 1.16813 1.65411 0
M  V30 2379 C 220.334 -0.28128 1.92455 0
M  V30 2380 O 219.589 -1.22006 1.53013 0
M  V30 2381 C 219.888 1.92224 3.01305 0
M  V30 2382 C 219.554 3.41968 2.93885 0
M  V30 2383 C 218.216 3.82807 2.91569 0
M  V30 2384 C 220.568 4.37409 2.83413 0
M  V30 2385 C 217.896 5.1741 2.76594 0
M  V30 2386 C 220.248 5.72097 2.69977 0
M  V30 2387 C 218.912 6.12199 2.66024 0
M  V30 2388 H 218.182 0.42745 0.605283 0
M  V30 2389 H 220.829 1.59981 1.05254 0
M  V30 2390 H 219.134 1.41635 3.65304 0
M  V30 2391 H 220.831 1.80131 3.58265 0
M  V30 2392 H 217.421 3.09504 2.96488 0
M  V30 2393 H 221.605 4.06813 2.84283 0
M  V30 2394 H 216.861 5.47596 2.71935 0
M  V30 2395 H 221.035 6.45704 2.60844 0
M  V30 2396 H 218.662 7.16448 2.54178 0
M  V30 2397 N 220.237 -1.11381 1.11499 0
M  V30 2398 C 221.648 -1.6465 0.880191 0
M  V30 2399 C 221.999 -1.87199 -0.587434 0
M  V30 2400 O 221.124 -1.60667 -1.44966 0
M  V30 2401 C 221.719 -2.99105 1.59128 0
M  V30 2402 C 220.278 -3.49279 1.40289 0
M  V30 2403 C 219.425 -2.24077 1.63354 0
M  V30 2404 H 222.376 -0.950123 1.27116 0
M  V30 2405 H 222.397 -3.66107 1.03664 0
M  V30 2406 H 221.909 -2.82661 2.65941 0
M  V30 2407 H 220.01 -3.70887 0.356888 0
M  V30 2408 H 220.123 -4.2803 2.15238 0
M  V30 2409 H 218.487 -2.31733 1.05698 0
M  V30 2410 H 219.27 -2.10175 2.71443 0
M  V30 2411 N 221.715 -0.905404 -1.28997 0
M  V30 2412 C 222.625 -0.392246 -2.31298 0
M  V30 2413 C 223.641 0.515889 -1.66176 0
M  V30 2414 O 224.817 0.404093 -1.97304 0
M  V30 2415 C 221.882 0.36686 -3.44754 0
M  V30 2416 C 220.943 -0.573485 -4.25452 0
M  V30 2417 C 220.176 0.149488 -5.33491 0
M  V30 2418 O 220.399 1.37255 -5.5364 0
M  V30 2419 O 219.333 -0.510919 -5.99728 0
M  V30 2420 H 223.159 -1.2411 -2.77183 0
M  V30 2421 H 220.744 -0.669926 -1.33538 0
M  V30 2422 H 222.626 0.795907 -4.13816 0
M  V30 2423 H 221.301 1.19169 -3.00966 0
M  V30 2424 H 220.208 -1.05176 -3.59011 0
M  V30 2425 H 221.541 -1.36489 -4.72897 0
M  V30 2426 N 223.193 1.4272 -0.668489 0
M  V30 2427 C 224.439 2.01923 -0.188419 0
M  V30 2428 C 224.772 1.52704 1.19979 0
M  V30 2429 O 224.047 0.726566 1.8042 0
M  V30 2430 C 224.33 3.59451 -0.216085 0
M  V30 2431 C 224.183 4.18864 -1.6393 0
M  V30 2432 C 225.502 4.37903 0.439179 0
M  V30 2433 H 222.621 0.733674 -0.0699412 0
M  V30 2434 H 225.263 1.69822 -0.852076 0
M  V30 2435 H 223.413 3.86929 0.349012 0
M  V30 2436 H 225.085 4.02362 -2.25616 0
M  V30 2437 H 223.328 3.74933 -2.18193 0
M  V30 2438 H 223.999 5.27987 -1.61039 0
M  V30 2439 H 226.475 4.16079 -0.0417878 0
M  V30 2440 H 225.351 5.47519 0.389157 0
M  V30 2441 H 225.612 4.15303 1.51577 0
M  V30 2442 N 224.671 0.411399 1.52136 0
M  V30 2443 C 225.634 -0.401089 2.25663 0
M  V30 2444 C 226.634 -0.971732 1.28117 0
M  V30 2445 O 227.824 -0.850254 1.52041 0
M  V30 2446 C 224.956 -1.56483 3.02863 0
M  V30 2447 H 226.149 0.24295 2.98914 0
M  V30 2448 H 223.702 0.163968 1.55438 0
M  V30 2449 H 224.437 -2.24567 2.33967 0
M  V30 2450 H 224.222 -1.16211 3.74483 0
M  V30 2451 H 225.712 -2.13951 3.58629 0
M  V30 2452 N 226.149 -1.5696 0.141893 0
M  V30 2453 C 227.565 -1.58151 -0.21456 0
M  V30 2454 C 227.765 -1.1559 -1.65049 0
M  V30 2455 O 226.821 -0.853832 -2.37626 0
M  V30 2456 C 228.134 -3.00674 0.0395576 0
M  V30 2457 C 229.682 -3.1299 -0.0245529 0
M  V30 2458 C 230.157 -4.57554 0.202167 0
M  V30 2459 N 231.648 -4.62961 0.148919 0
M  V30 2460 C 232.383 -5.7262 0.298924 0
M  V30 2461 N 231.879 -6.90947 0.50637 0
M  V30 2462 N 233.672 -5.61601 0.236886 0
M  V30 2463 H 225.823 -1.8292 1.07953 0
M  V30 2464 H 228.086 -0.846425 0.42693 0
M  V30 2465 H 227.792 -3.36183 1.03315 0
M  V30 2466 H 227.666 -3.70981 -0.682143 0
M  V30 2467 H 230.053 -2.77326 -1.00869 0
M  V30 2468 H 230.134 -2.4518 0.729396 0
M  V30 2469 H 229.778 -4.93922 1.18338 0
M  V30 2470 H 229.708 -5.23484 -0.572044 0
M  V30 2471 H 232.199 -3.77899 -0.00697015 0
M  V30 2472 H 232.512 -7.7038 0.611076 0
M  V30 2473 H 230.857 -6.92878 0.542628 0
M  V30 2474 H 234.048 -4.68039 0.0756209 0
M  V30 2475 H 234.221 -6.47015 0.357227 0
M  V30 2476 N 227.627 0.131896 -1.57047 0
M  V30 2477 C 228.874 0.841932 -1.84168 0
M  V30 2478 C 229.202 1.8048 -0.725066 0
M  V30 2479 O 228.457 1.93618 0.284692 0
M  V30 2480 C 228.756 1.63703 -3.17704 0
M  V30 2481 C 228.422 0.81961 -4.43388 0
M  V30 2482 C 227.084 0.594148 -4.77518 0
M  V30 2483 C 229.436 0.248977 -5.20605 0
M  V30 2484 C 226.764 -0.212409 -5.86315 0
M  V30 2485 C 229.116 -0.544701 -6.30251 0
M  V30 2486 C 227.78 -0.780599 -6.6292 0
M  V30 2487 H 227.05 0.308085 -0.673917 0
M  V30 2488 H 229.697 0.104867 -1.91213 0
M  V30 2489 H 228.002 2.44464 -3.06177 0
M  V30 2490 H 229.699 2.19015 -3.35907 0
M  V30 2491 H 226.289 1.00542 -4.16641 0
M  V30 2492 H 230.473 0.410408 -4.946 0
M  V30 2493 H 225.729 -0.404524 -6.1006 0
M  V30 2494 H 229.903 -0.993922 -6.89271 0
M  V30 2495 H 227.53 -1.40742 -7.47058 0
M  V30 2496 O 229.144 1.59117 0.276399 0
M  V30 2497 H 229.835 1.70359 0.921826 0
M  V30 END ATOM
M  V30 BEGIN BOND
M  V30 END BOND
M  V30 END CTAB
M  END
$$$$
