drugbank_target|P23945 Follicle-stimulating hormone receptor (DB00032; DB00066; DB00094; DB00097; DB04786; DB09066)
 OpenBabel12092119303D

  0  0  0     0  0            999 V3000
M  V30 BEGIN CTAB
M  V30 COUNTS 11058 11179 0 0 0
M  V30 BEGIN ATOM
M  V30 1 H -0.908 1.98254 -0.117106 0
M  V30 2 N 0 1.576 0 0
M  V30 3 C 0.933 2.03868 1.02534 0
M  V30 4 C 1.911 0.928543 1.3348 0
M  V30 5 O 3.095 1.19667 1.45644 0
M  V30 6 C 0.222 2.43627 2.35294 0
M  V30 7 C -0.732 3.65373 2.2001 0
M  V30 8 S 0.101 5.13292 1.52614 0
M  V30 9 C 1.257 5.56322 2.86805 0
M  V30 10 H 1.49 2.90518 0.631377 0
M  V30 11 H -0.977 1.52953 0.210867 0
M  V30 12 H 0.981 2.67203 3.11629 0
M  V30 13 H -0.358 1.57376 2.7183 0
M  V30 14 H -1.165 3.90944 3.18086 0
M  V30 15 H -1.563 3.418 1.51819 0
M  V30 16 H 0.729 5.58782 3.83104 0
M  V30 17 H 1.672 6.56266 2.65933 0
M  V30 18 H 2.08 4.83886 2.90714 0
M  V30 19 N 1.4781 -0.272755 1.55222 0
M  V30 20 C 2.4411 -1.32041 1.87344 0
M  V30 21 C 3.4411 -1.42342 0.74803 0
M  V30 22 O 4.6311 -1.41488 1.0162 0
M  V30 23 C 1.7631 -2.70173 2.07893 0
M  V30 24 H 2.9561 -1.04789 2.80997 0
M  V30 25 H 0.5091 -0.51083 1.47717 0
M  V30 26 H 1.2441 -3.02605 1.16622 0
M  V30 27 H 1.0291 -2.64082 2.89833 0
M  V30 28 H 2.5191 -3.45869 2.34017 0
M  V30 29 N 2.9562 -1.48159 -0.537278 0
M  V30 30 C 3.8862 -1.65029 -1.6519 0
M  V30 31 C 4.8672 -0.499281 -1.62607 0
M  V30 32 O 6.0522 -0.730972 -1.79918 0
M  V30 33 C 3.1822 -1.68303 -3.03795 0
M  V30 34 C 2.1362 -2.8283 -3.21234 0
M  V30 35 C 1.4622 -2.71189 -4.60826 0
M  V30 36 C 2.7622 -4.24211 -3.04701 0
M  V30 37 H 4.4562 -2.58341 -1.51328 0
M  V30 38 H 2.0022 -1.24325 -0.726585 0
M  V30 39 H 3.9552 -1.78693 -3.81637 0
M  V30 40 H 2.6792 -0.715635 -3.18663 0
M  V30 41 H 1.3382 -2.71983 -2.45807 0
M  V30 42 H 0.9862 -1.72435 -4.7252 0
M  V30 43 H 0.6862 -3.48035 -4.7344 0
M  V30 44 H 2.2102 -2.83537 -5.40777 0
M  V30 45 H 3.6242 -4.3593 -3.72341 0
M  V30 46 H 2.0212 -5.01998 -3.28813 0
M  V30 47 H 3.0912 -4.41184 -2.01209 0
M  V30 48 N 4.4343 0.785586 -1.36625 0
M  V30 49 C 5.3643 1.91259 -1.33949 0
M  V30 50 C 6.3453 1.68795 -0.210325 0
M  V30 51 O 7.5303 1.89854 -0.408561 0
M  V30 52 C 4.6603 3.28339 -1.13186 0
M  V30 53 C 3.6143 3.65335 -2.22967 0
M  V30 54 C 2.9403 5.00806 -1.87342 0
M  V30 55 C 4.2403 3.7352 -3.65075 0
M  V30 56 H 5.9343 1.93755 -2.28253 0
M  V30 57 H 3.4803 0.930788 -1.09874 0
M  V30 58 H 5.4333 4.06804 -1.09948 0
M  V30 59 H 4.1573 3.2624 -0.153332 0
M  V30 60 H 2.8163 2.89169 -2.25337 0
M  V30 61 H 2.4643 4.95233 -0.880545 0
M  V30 62 H 2.1643 5.26529 -2.60846 0
M  V30 63 H 3.6883 5.81687 -1.85667 0
M  V30 64 H 5.1023 4.42168 -3.64911 0
M  V30 65 H 3.4993 4.10731 -4.37516 0
M  V30 66 H 4.5693 2.74527 -3.99703 0
M  V30 67 N 5.9124 1.20967 1.01018 0
M  V30 68 C 6.8424 0.988272 2.11555 0
M  V30 69 C 7.8234 -0.0849778 1.69888 0
M  V30 70 O 9.0084 0.0738202 1.9406 0
M  V30 71 C 6.1384 0.546528 3.42973 0
M  V30 72 C 5.0924 1.56375 3.9841 0
M  V30 73 C 4.4184 0.97842 5.25672 0
M  V30 74 C 5.7184 2.94922 4.31066 0
M  V30 75 H 7.4124 1.91276 2.30334 0
M  V30 76 H 4.9584 0.921073 1.1069 0
M  V30 77 H 6.9114 0.378839 4.19694 0
M  V30 78 H 5.6354 -0.413598 3.23971 0
M  V30 79 H 4.2944 1.71891 3.23804 0
M  V30 80 H 3.9424 0.0101688 5.02999 0
M  V30 81 H 3.6424 1.65784 5.63728 0
M  V30 82 H 5.1664 0.821939 6.05043 0
M  V30 83 H 6.5804 2.8288 4.9865 0
M  V30 84 H 4.9774 3.5983 4.80253 0
M  V30 85 H 6.0474 3.4616 3.39561 0
M  V30 86 N 7.3905 -1.2043 1.01659 0
M  V30 87 C 8.6365 -1.90079 0.706963 0
M  V30 88 C 8.9695 -1.78648 -0.761474 0
M  V30 89 O 8.2445 -1.17069 -1.55323 0
M  V30 90 C 8.5275 -3.41469 1.14327 0
M  V30 91 C 8.3805 -3.61833 2.67201 0
M  V30 92 C 9.6995 -4.34261 0.714529 0
M  V30 93 H 6.8185 -0.690254 0.2583 0
M  V30 94 H 9.4605 -1.41826 1.26433 0
M  V30 95 H 7.6105 -3.82696 0.669056 0
M  V30 96 H 9.2825 -3.2986 3.22475 0
M  V30 97 H 7.5255 -3.05304 3.08175 0
M  V30 98 H 8.1965 -4.67955 2.92783 0
M  V30 99 H 10.6725 -4.00682 1.12221 0
M  V30 100 H 9.5485 -5.38806 1.04784 0
M  V30 101 H 9.8095 -4.40431 -0.383799 0
M  V30 102 N 8.8686 -0.792821 -1.36206 0
M  V30 103 C 10.0936 -0.377701 -2.03932 0
M  V30 104 C 10.5186 0.998947 -1.59382 0
M  V30 105 O 9.8766 1.64421 -0.763903 0
M  V30 106 C 9.9246 -0.453635 -3.57735 0
M  V30 107 O 9.0286 0.538151 -4.08874 0
M  V30 108 H 8.3696 -0.159855 -0.644471 0
M  V30 109 H 10.8996 -1.07488 -1.7409 0
M  V30 110 H 10.9096 -0.318464 -4.06755 0
M  V30 111 H 9.5846 -1.45784 -3.89512 0
M  V30 112 H 8.1616 0.364359 -3.71116 0
M  V30 113 N 10.3467 1.47872 -0.545128 0
M  V30 114 C 11.2767 2.32661 0.197793 0
M  V30 115 C 12.2577 1.43041 0.920504 0
M  V30 116 O 13.4427 1.71912 0.90333 0
M  V30 117 C 10.5727 3.24569 1.23582 0
M  V30 118 C 9.5267 4.23333 0.630323 0
M  V30 119 C 8.8527 5.0448 1.77211 0
M  V30 120 C 10.1527 5.20704 -0.407974 0
M  V30 121 H 11.8467 2.95024 -0.510045 0
M  V30 122 H 9.3927 1.4187 -0.246731 0
M  V30 123 H 11.3457 3.8272 1.76362 0
M  V30 124 H 10.0697 2.60236 1.97344 0
M  V30 125 H 8.7287 3.6639 0.123922 0
M  V30 126 H 8.3767 4.36561 2.49847 0
M  V30 127 H 8.0767 5.71339 1.37281 0
M  V30 128 H 9.6007 5.65487 2.3034 0
M  V30 129 H 11.0147 5.7329 0.033305 0
M  V30 130 H 9.4117 5.95699 -0.725486 0
M  V30 131 H 10.4817 4.66917 -1.30828 0
M  V30 132 N 11.8248 0.280983 1.55075 0
M  V30 133 C 12.7548 -0.597469 2.25727 0
M  V30 134 C 13.7358 -1.15417 1.24952 0
M  V30 135 O 14.9208 -1.18722 1.53684 0
M  V30 136 C 12.0508 -1.7789 2.98283 0
M  V30 137 C 11.0048 -1.35347 4.06036 0
M  V30 138 C 10.3308 -2.61846 4.66198 0
M  V30 139 C 11.6308 -0.499354 5.19907 0
M  V30 140 H 13.3248 -0.00824265 2.99399 0
M  V30 141 H 10.8708 -0.0025244 1.44 0
M  V30 142 H 12.8238 -2.39937 3.46422 0
M  V30 143 H 11.5478 -2.39405 2.22155 0
M  V30 144 H 10.2068 -0.756156 3.58717 0
M  V30 145 H 9.8548 -3.21632 3.86732 0
M  V30 146 H 9.5548 -2.3409 5.38958 0
M  V30 147 H 11.0788 -3.24732 5.1709 0
M  V30 148 H 12.4928 -1.02498 5.64063 0
M  V30 149 H 10.8898 -0.316424 5.99265 0
M  V30 150 H 11.9598 0.480459 4.82514 0
M  V30 151 N 13.3029 -1.57598 0.00835791 0
M  V30 152 C 14.2659 -2.07884 -0.965242 0
M  V30 153 C 15.2659 -0.989825 -1.26725 0
M  V30 154 O 16.4559 -1.25218 -1.21104 0
M  V30 155 C 13.5879 -2.52731 -2.28779 0
M  V30 156 H 14.7809 -2.95178 -0.530112 0
M  V30 157 H 12.3339 -1.54458 -0.239283 0
M  V30 158 H 13.0689 -1.68705 -2.76964 0
M  V30 159 H 12.8539 -3.32272 -2.08177 0
M  V30 160 H 14.3439 -2.91933 -2.98605 0
M  V30 161 N 14.781 0.264519 -1.55364 0
M  V30 162 C 16.028 0.994986 -1.7637 0
M  V30 163 C 16.356 1.85976 -0.5695 0
M  V30 164 O 15.611 1.90509 0.44776 0
M  V30 165 C 15.91 1.9004 -3.02687 0
M  V30 166 C 15.576 1.19243 -4.34847 0
M  V30 167 C 14.238 0.996709 -4.70764 0
M  V30 168 C 16.59 0.689296 -5.16622 0
M  V30 169 C 13.918 0.285261 -5.86006 0
M  V30 170 C 16.27 -0.00860079 -6.32599 0
M  V30 171 C 14.934 -0.215963 -6.67151 0
M  V30 172 H 14.204 0.364091 -0.645383 0
M  V30 173 H 16.851 0.266543 -1.89636 0
M  V30 174 H 15.156 2.69533 -2.84357 0
M  V30 175 H 16.853 2.46695 -3.16137 0
M  V30 176 H 13.443 1.3549 -4.06621 0
M  V30 177 H 17.627 0.828108 -4.89342 0
M  V30 178 H 12.883 0.113961 -6.11294 0
M  V30 179 H 17.057 -0.406186 -6.95214 0
M  V30 180 H 14.684 -0.769217 -7.56298 0
M  V30 181 N 16.2591 1.48442 0.529413 0
M  V30 182 C 17.1891 1.65902 1.64313 0
M  V30 183 C 18.1701 0.507897 1.6234 0
M  V30 184 O 19.3551 0.740503 1.79528 0
M  V30 185 C 16.4851 1.69911 3.02898 0
M  V30 186 C 15.4391 2.8453 3.19729 0
M  V30 187 C 14.7651 2.73629 4.59381 0
M  V30 188 C 16.0651 4.25821 3.02447 0
M  V30 189 H 17.7591 2.5914 1.49955 0
M  V30 190 H 15.3051 1.24709 0.719982 0
M  V30 191 H 17.2581 1.80715 3.80684 0
M  V30 192 H 15.9821 0.732524 3.18279 0
M  V30 193 H 14.6411 2.73283 2.44361 0
M  V30 194 H 14.2891 1.74938 4.71599 0
M  V30 195 H 13.9891 3.50541 4.71588 0
M  V30 196 H 15.5131 2.86401 5.39265 0
M  V30 197 H 16.9271 4.37898 3.70024 0
M  V30 198 H 15.3241 5.03735 3.26146 0
M  V30 199 H 16.3941 4.42244 1.98867 0
M  V30 200 N 17.7372 -0.778329 1.37039 0
M  V30 201 C 18.9622 -1.57248 1.35233 0
M  V30 202 C 19.3872 -1.87999 -0.0615568 0
M  V30 203 O 18.7452 -1.48734 -1.03672 0
M  V30 204 C 18.7932 -2.86353 2.19167 0
M  V30 205 O 17.8972 -3.80442 1.59178 0
M  V30 206 H 17.2382 -0.476569 0.462362 0
M  V30 207 H 19.7682 -0.963853 1.80474 0
M  V30 208 H 19.7782 -3.35519 2.32145 0
M  V30 209 H 18.4532 -2.63299 3.21942 0
M  V30 210 H 17.0302 -3.39067 1.55203 0
M  V30 211 N 19.2153 -1.21501 -1.00376 0
M  V30 212 C 20.1453 -0.999478 -2.11028 0
M  V30 213 C 21.1263 0.0759671 -1.6993 0
M  V30 214 O 22.3113 -0.0841106 -1.94018 0
M  V30 215 C 19.4413 -0.564709 -3.42678 0
M  V30 216 C 18.3953 -1.58486 -3.97576 0
M  V30 217 C 17.7213 -1.00628 -5.25146 0
M  V30 218 C 19.0213 -2.97204 -4.29496 0
M  V30 219 H 20.7153 -1.92495 -2.29317 0
M  V30 220 H 18.2613 -0.92693 -1.102 0
M  V30 221 H 20.2143 -0.401091 -4.19487 0
M  V30 222 H 18.9383 0.396411 -3.24185 0
M  V30 223 H 17.5973 -1.73606 -3.22888 0
M  V30 224 H 17.2453 -0.0368439 -5.02987 0
M  V30 225 H 16.9453 -1.68771 -5.62841 0
M  V30 226 H 18.4693 -0.854015 -6.04598 0
M  V30 227 H 19.8833 -2.8552 -4.97143 0
M  V30 228 H 18.2803 -3.62372 -4.78338 0
M  V30 229 H 19.3503 -3.47956 -3.3772 0
M  V30 230 N 20.6934 1.19889 -1.02296 0
M  V30 231 C 21.9414 1.89046 -0.714558 0
M  V30 232 C 22.2624 1.79636 0.758681 0
M  V30 233 O 21.5324 1.20292 1.54618 0
M  V30 234 H 20.1124 0.699802 -0.261317 0
M  V30 235 H 22.7744 1.45574 -1.29592 0
M  V30 236 H 21.8704 2.95524 -1.0036 0
M  V30 237 N 22.1715 0.800033 1.35784 0
M  V30 238 C 23.3965 0.388511 2.03729 0
M  V30 239 C 23.8215 -0.990481 1.5991 0
M  V30 240 O 23.1795 -1.64013 0.772612 0
M  V30 241 C 23.2275 0.4726 3.5749 0
M  V30 242 O 22.3315 -0.51646 4.09153 0
M  V30 243 H 21.6725 0.163271 0.643614 0
M  V30 244 H 24.2025 1.0841 1.73518 0
M  V30 245 H 24.2125 0.34003 4.06581 0
M  V30 246 H 22.8875 1.47848 3.88734 0
M  V30 247 H 21.4645 -0.344673 3.71304 0
M  V30 248 N 23.6496 -1.47581 0.552962 0
M  V30 249 C 24.8976 -2.02082 0.0272703 0
M  V30 250 C 25.2186 -1.4301 -1.32563 0
M  V30 251 O 24.4886 -0.603745 -1.86365 0
M  V30 252 H 23.0686 -0.746966 0.00709182 0
M  V30 253 H 25.7306 -1.81033 0.722008 0
M  V30 254 H 24.8266 -3.12034 -0.0639951 0
M  V30 255 N 25.1277 -0.289203 -1.54924 0
M  V30 256 C 26.3677 0.324536 -2.01807 0
M  V30 257 C 26.7317 1.5199 -1.17316 0
M  V30 258 O 27.9327 2.20422 -1.53843 0
M  V30 259 C 26.2037 0.683578 -3.50802 0
M  V30 260 S 27.7627 1.28185 -4.19659 0
M  V30 261 H 24.5807 0.100236 -0.703899 0
M  V30 262 H 27.1827 -0.414325 -1.91059 0
M  V30 263 H 25.8867 -0.195073 -4.09936 0
M  V30 264 H 25.4177 1.45354 -3.65562 0
M  V30 265 H 27.4327 2.57006 -4.24456 0
M  V30 266 N 26.6058 1.57591 -0.0167156 0
M  V30 267 C 27.5558 2.05953 0.978137 0
M  V30 268 C 28.5398 0.957532 1.29306 0
M  V30 269 O 29.7318 1.22119 1.28125 0
M  V30 270 C 26.8608 2.58006 2.26468 0
M  V30 271 C 25.9468 3.75113 1.97867 0
M  V30 272 N 26.3378 4.86187 1.39486 0
M  V30 273 C 24.6358 3.83363 2.27924 0
M  V30 274 C 25.3368 5.67502 1.27735 0
M  V30 275 N 24.3128 5.14023 1.76866 0
M  V30 276 H 28.1148 2.89236 0.521522 0
M  V30 277 H 25.6288 1.61301 0.188596 0
M  V30 278 H 27.6258 2.90937 2.98599 0
M  V30 279 H 26.2858 1.76148 2.72767 0
M  V30 280 H 27.2968 5.06695 1.07147 0
M  V30 281 H 23.9738 3.1239 2.76982 0
M  V30 282 H 25.3638 6.66791 0.826978 0
M  V30 283 N 28.0839 -0.256276 1.55502 0
M  V30 284 C 29.0339 -1.31981 1.85916 0
M  V30 285 C 30.0179 -1.43927 0.719296 0
M  V30 286 O 31.2099 -1.47326 0.981019 0
M  V30 287 C 28.3389 -2.67703 2.14918 0
M  V30 288 C 27.4249 -2.59801 3.35208 0
M  V30 289 N 27.8159 -2.21524 4.54709 0
M  V30 290 C 26.1139 -2.90832 3.38131 0
M  V30 291 C 26.8149 -2.24024 5.36832 0
M  V30 292 N 25.7909 -2.63158 4.75656 0
M  V30 293 H 29.5929 -1.01423 2.75845 0
M  V30 294 H 27.1069 -0.464911 1.55603 0
M  V30 295 H 29.1039 -3.44445 2.34869 0
M  V30 296 H 27.7639 -2.99137 1.26282 0
M  V30 297 H 28.7749 -1.93223 4.80505 0
M  V30 298 H 25.4519 -3.26867 2.59739 0
M  V30 299 H 26.8419 -1.9685 6.42417 0
M  V30 300 N 29.562 -1.4872 -0.521534 0
M  V30 301 C 30.978 -1.35028 -0.850855 0
M  V30 302 C 31.178 -0.367712 -1.98116 0
M  V30 303 O 30.234 0.208037 -2.51642 0
M  V30 304 C 31.547 -2.75263 -1.21041 0
M  V30 305 C 33.095 -2.83813 -1.31981 0
M  V30 306 C 33.57 -4.24769 -1.71276 0
M  V30 307 N 35.061 -4.27482 -1.78363 0
M  V30 308 C 35.796 -5.33494 -2.1017 0
M  V30 309 N 35.292 -6.49775 -2.40343 0
M  V30 310 N 37.085 -5.20894 -2.11248 0
M  V30 311 H 29.236 -2.11214 0.22413 0
M  V30 312 H 31.499 -0.947252 0.0376439 0
M  V30 313 H 31.205 -3.48765 -0.453415 0
M  V30 314 H 31.079 -3.09327 -2.15863 0
M  V30 315 H 33.466 -2.10561 -2.06756 0
M  V30 316 H 33.547 -2.53358 -0.352596 0
M  V30 317 H 33.191 -4.9854 -0.970588 0
M  V30 318 H 33.121 -4.52673 -2.69062 0
M  V30 319 H 35.612 -3.43611 -1.57288 0
M  V30 320 H 35.925 -7.26402 -2.63743 0
M  V30 321 H 34.27 -6.53035 -2.37844 0
M  V30 322 H 37.461 -4.29065 -1.87139 0
M  V30 323 H 37.634 -6.03612 -2.35704 0
M  V30 324 N 31.0401 0.771051 -1.3745 0
M  V30 325 C 32.2891 1.52491 -1.3202 0
M  V30 326 C 32.6021 1.9538 0.0927347 0
M  V30 327 O 33.8081 2.70159 0.269503 0
M  V30 328 C 32.2641 2.75366 -2.31736 0
M  V30 329 C 31.8721 2.39573 -3.78562 0
M  V30 330 C 33.6161 3.53307 -2.35318 0
M  V30 331 C 31.5231 3.58954 -4.70007 0
M  V30 332 H 30.4531 0.572506 -0.490666 0
M  V30 333 H 33.1041 0.844474 -1.62914 0
M  V30 334 H 31.4861 3.45303 -1.93861 0
M  V30 335 H 32.6601 1.77415 -4.25277 0
M  V30 336 H 30.9751 1.74805 -3.77932 0
M  V30 337 H 33.5721 4.42039 -3.00842 0
M  V30 338 H 33.9151 3.93217 -1.36698 0
M  V30 339 H 34.4481 2.90367 -2.71904 0
M  V30 340 H 31.1871 3.24125 -5.69757 0
M  V30 341 H 30.7071 4.20214 -4.27996 0
M  V30 342 H 32.3861 4.25758 -4.87175 0
M  V30 343 N 32.5182 1.22032 0.997298 0
M  V30 344 C 33.7582 1.05375 1.75144 0
M  V30 345 C 34.1222 -0.404696 1.87686 0
M  V30 346 O 35.3232 -0.691998 2.5974 0
M  V30 347 C 33.5942 1.74046 3.12158 0
M  V30 348 S 35.1532 1.72745 4.03366 0
M  V30 349 H 31.9712 0.377449 0.602539 0
M  V30 350 H 34.5732 1.54902 1.19272 0
M  V30 351 H 33.2772 2.79332 3.00669 0
M  V30 352 H 32.8082 1.24731 3.73103 0
M  V30 353 H 34.8232 0.774015 4.90126 0
M  V30 354 N 33.9963 -1.19345 1.0293 0
M  V30 355 C 34.9463 -2.20472 0.58104 0
M  V30 356 C 35.9303 -1.56578 -0.370442 0
M  V30 357 O 37.1223 -1.75963 -0.191344 0
M  V30 358 C 34.2513 -3.43236 -0.066306 0
M  V30 359 C 33.3373 -4.14274 0.907642 0
M  V30 360 N 33.7283 -4.61492 2.07023 0
M  V30 361 C 32.0263 -4.39966 0.731177 0
M  V30 362 C 32.7273 -5.1605 2.68454 0
M  V30 363 N 31.7033 -5.06875 1.96414 0
M  V30 364 H 35.5053 -2.54659 1.46717 0
M  V30 365 H 33.0193 -1.35423 0.896345 0
M  V30 366 H 35.0163 -4.14927 -0.405068 0
M  V30 367 H 33.6763 -3.10549 -0.948118 0
M  V30 368 H 34.6873 -4.56304 2.44963 0
M  V30 369 H 31.3643 -4.17377 -0.101507 0
M  V30 370 H 32.7543 -5.6287 3.66915 0
M  V30 371 N 35.4744 -0.807222 -1.35358 0
M  V30 372 C 36.7144 -0.393534 -2.00576 0
M  V30 373 C 37.0784 1.0203 -1.62647 0
M  V30 374 O 38.2794 1.53603 -2.20589 0
M  V30 375 C 36.5504 -0.572017 -3.52793 0
M  V30 376 S 38.1094 -0.248845 -4.38094 0
M  V30 377 H 34.9274 -0.149425 -0.695121 0
M  V30 378 H 37.5294 -1.04961 -1.64935 0
M  V30 379 H 36.2334 -1.60097 -3.77885 0
M  V30 380 H 35.7644 0.099359 -3.93275 0
M  V30 381 H 37.7794 0.943253 -4.87152 0
M  V30 382 N 36.9525 1.47285 -0.560781 0
M  V30 383 C 38.1775 2.07359 -0.0410566 0
M  V30 384 C 38.6025 1.41017 1.24483 0
M  V30 385 O 37.9605 0.486368 1.74654 0
M  V30 386 C 38.0085 3.6035 0.134123 0
M  V30 387 O 37.1125 3.94681 1.19587 0
M  V30 388 H 36.4535 0.661887 -0.0529291 0
M  V30 389 H 38.9835 1.89252 -0.777482 0
M  V30 390 H 38.9935 4.0652 0.347207 0
M  V30 391 H 37.6685 4.08034 -0.805047 0
M  V30 392 H 36.2455 3.60251 0.962987 0
M  V30 393 N 38.4306 0.297415 1.54768 0
M  V30 394 C 39.3786 -0.596051 2.24833 0
M  V30 395 C 40.3726 -1.13992 1.25308 0
M  V30 396 O 41.5786 -1.09098 1.4317 0
M  V30 397 H 37.9536 -0.210814 0.721846 0
M  V30 398 H 39.9246 0.0174667 2.98395 0
M  V30 399 C 38.6736 -1.75818 2.99972 0
M  V30 400 H 37.9966 -1.3489 3.76357 0
M  V30 401 H 39.4366 -2.35949 3.52284 0
M  V30 402 C 37.8956 -2.66014 2.06732 0
M  V30 403 O 38.4256 -3.67009 1.63302 0
M  V30 404 N 36.6316 -2.33669 1.72763 0
M  V30 405 H 36.1786 -1.51586 2.08277 0
M  V30 406 H 36.1366 -2.94285 1.10652 0
M  V30 407 N 39.9087 -1.5758 0.0250728 0
M  V30 408 C 41.3247 -1.56124 -0.331282 0
M  V30 409 C 41.5247 -1.03029 -1.73169 0
M  V30 410 O 40.5807 -0.675215 -2.43305 0
M  V30 411 C 41.8937 -3.00139 -0.183584 0
M  V30 412 C 43.4417 -3.11946 -0.256654 0
M  V30 413 C 43.9167 -4.57793 -0.137792 0
M  V30 414 N 45.4077 -4.6279 -0.194904 0
M  V30 415 C 46.1427 -5.7326 -0.126655 0
M  V30 416 N 45.6387 -6.928 -0.00755288 0
M  V30 417 N 47.4317 -5.61811 -0.180348 0
M  V30 418 H 39.5827 -1.90424 0.94087 0
M  V30 419 H 41.8457 -0.875761 0.362968 0
M  V30 420 H 41.5517 -3.4292 0.780927 0
M  V30 421 H 41.4257 -3.64899 -0.955448 0
M  V30 422 H 43.8127 -2.69079 -1.21162 0
M  V30 423 H 43.8937 -2.49915 0.545517 0
M  V30 424 H 43.5377 -5.01339 0.813739 0
M  V30 425 H 43.4677 -5.17798 -0.958775 0
M  V30 426 H 45.9587 -3.76807 -0.287267 0
M  V30 427 H 46.2717 -7.72791 0.0379428 0
M  V30 428 H 44.6167 -6.94995 0.0271731 0
M  V30 429 H 47.8077 -4.6731 -0.271767 0
M  V30 430 H 47.9807 -6.47882 -0.123697 0
M  V30 431 N 41.3868 0.248026 -1.55636 0
M  V30 432 C 42.6328 0.97767 -1.77678 0
M  V30 433 C 42.9658 1.85016 -0.590135 0
M  V30 434 O 42.2408 1.90095 0.411611 0
M  V30 435 C 42.5238 1.83914 -3.09593 0
M  V30 436 C 42.3768 0.99491 -4.38659 0
M  V30 437 C 43.6958 2.82183 -3.37729 0
M  V30 438 H 40.8148 0.354005 -0.646413 0
M  V30 439 H 43.4568 0.248253 -1.88371 0
M  V30 440 H 41.6068 2.46104 -3.00608 0
M  V30 441 H 43.2788 0.391789 -4.59633 0
M  V30 442 H 41.5218 0.299231 -4.32767 0
M  V30 443 H 42.1928 1.63145 -5.2734 0
M  V30 444 H 44.6688 2.30129 -3.4667 0
M  V30 445 H 43.5448 3.39582 -4.31249 0
M  V30 446 H 43.8058 3.58588 -2.58586 0
M  V30 447 N 42.8649 1.48995 0.513639 0
M  V30 448 C 44.1119 1.57843 1.26854 0
M  V30 449 C 44.4399 0.259501 1.92761 0
M  V30 450 O 43.6949 -0.75159 1.80692 0
M  V30 451 C 43.9939 2.67756 2.36731 0
M  V30 452 C 43.6599 4.09669 1.88368 0
M  V30 453 C 42.3219 4.48291 1.74896 0
M  V30 454 C 44.6739 4.98537 1.52021 0
M  V30 455 C 42.0019 5.73568 1.23438 0
M  V30 456 C 44.3539 6.24319 1.0202 0
M  V30 457 C 43.0179 6.61783 0.871778 0
M  V30 458 H 42.2879 0.577587 0.464192 0
M  V30 459 H 44.9349 1.82778 0.571366 0
M  V30 460 H 43.2399 2.36743 3.12185 0
M  V30 461 H 44.9369 2.71813 2.9482 0
M  V30 462 H 41.5269 3.79176 1.99808 0
M  V30 463 H 45.7109 4.69363 1.61281 0
M  V30 464 H 40.9669 6.01304 1.10648 0
M  V30 465 H 45.1409 6.92566 0.729722 0
M  V30 466 H 42.7679 7.5874 0.470852 0
M  V30 467 N 44.343 -0.763751 1.37857 0
M  V30 468 C 45.273 -1.89103 1.36975 0
M  V30 469 C 46.254 -1.68439 0.237152 0
M  V30 470 O 47.439 -1.8918 0.438713 0
M  V30 471 C 44.569 -3.26496 1.18395 0
M  V30 472 C 43.523 -3.61741 2.28751 0
M  V30 473 C 42.849 -4.97762 1.95286 0
M  V30 474 C 44.149 -3.67665 3.70972 0
M  V30 475 H 45.843 -1.90099 2.31307 0
M  V30 476 H 43.389 -0.91319 1.11341 0
M  V30 477 H 45.342 -4.05003 1.16406 0
M  V30 478 H 44.066 -3.25955 0.205215 0
M  V30 479 H 42.725 -2.85547 2.29909 0
M  V30 480 H 42.373 -4.93769 0.959221 0
M  V30 481 H 42.073 -5.22313 2.69189 0
M  V30 482 H 43.597 -5.7866 1.94898 0
M  V30 483 H 45.011 -4.36307 3.719 0
M  V30 484 H 43.408 -4.03718 4.43995 0
M  V30 485 H 44.478 -2.68134 4.0402 0
M  V30 486 N 45.8211 -1.22559 -0.990812 0
M  V30 487 C 47.0611 -1.06302 -1.74583 0
M  V30 488 C 47.4251 0.394737 -1.87898 0
M  V30 489 O 48.6261 0.678214 -2.60103 0
M  V30 490 C 46.8971 -1.75699 -3.11231 0
M  V30 491 S 48.4561 -1.74882 -4.02445 0
M  V30 492 H 45.2741 -0.380639 -0.600529 0
M  V30 493 H 47.8761 -1.55532 -1.18449 0
M  V30 494 H 46.5801 -2.80923 -2.99183 0
M  V30 495 H 46.1111 -1.26708 -3.72436 0
M  V30 496 H 48.1261 -0.799997 -4.89709 0
M  V30 497 N 47.2992 1.18797 -1.03562 0
M  V30 498 C 48.2312 2.21731 -0.580337 0
M  V30 499 C 49.2442 1.59051 0.347349 0
M  V30 500 O 50.4332 1.77929 0.142669 0
M  V30 501 C 47.5332 3.38459 0.172805 0
M  V30 502 C 46.7062 4.3072 -0.761496 0
M  V30 503 C 45.7652 5.26174 -0.0525547 0
M  V30 504 O 44.7912 5.65108 -0.681333 0
M  V30 505 N 45.9932 5.67624 1.21586 0
M  V30 506 H 48.7582 2.61417 -1.46565 0
M  V30 507 H 46.3192 1.33531 -0.915476 0
M  V30 508 H 48.3112 3.99335 0.656793 0
M  V30 509 H 46.8812 2.97507 0.959602 0
M  V30 510 H 46.1012 3.67525 -1.42544 0
M  V30 511 H 47.3892 4.89267 -1.39626 0
M  V30 512 H 46.7872 5.38038 1.74732 0
M  V30 513 H 45.3442 6.30721 1.64421 0
M  V30 514 N 48.7773 0.814389 1.34928 0
M  V30 515 C 49.6873 0.231978 2.3345 0
M  V30 516 C 50.7033 -0.629139 1.62228 0
M  V30 517 O 51.8793 -0.539052 1.94052 0
M  V30 518 C 48.9443 -0.603482 3.41407 0
M  V30 519 C 48.0053 0.279037 4.28392 0
M  V30 520 C 47.2383 -0.516643 5.31193 0
M  V30 521 O 47.4613 -1.75068 5.4287 0
M  V30 522 O 46.3953 0.0965652 6.01823 0
M  V30 523 H 50.2213 1.04721 2.85074 0
M  V30 524 H 47.8063 0.576343 1.37836 0
M  V30 525 H 49.6883 -1.07908 4.0735 0
M  V30 526 H 48.3633 -1.39618 2.92042 0
M  V30 527 H 47.2703 0.801948 3.65403 0
M  V30 528 H 48.6033 1.03588 4.81176 0
M  V30 529 N 50.2554 -1.46986 0.568584 0
M  V30 530 C 51.4804 -2.07335 0.0520528 0
M  V30 531 C 51.9054 -1.41675 -1.23733 0
M  V30 532 O 51.2634 -0.495623 -1.74394 0
M  V30 533 C 51.3114 -3.60417 -0.11501 0
M  V30 534 O 50.4154 -3.95309 -1.17492 0
M  V30 535 H 49.7564 -0.661597 0.0564385 0
M  V30 536 H 52.2864 -1.88837 0.787507 0
M  V30 537 H 52.2964 -4.06698 -0.325644 0
M  V30 538 H 50.9714 -4.07601 0.826675 0
M  V30 539 H 49.5484 -3.60757 -0.943869 0
M  V30 540 N 51.7335 -0.305618 -1.54608 0
M  V30 541 C 52.6805 0.568421 -2.23691 0
M  V30 542 C 53.6505 1.12592 -1.22116 0
M  V30 543 O 54.8355 1.16959 -1.50749 0
M  V30 544 C 51.9755 1.7322 -2.98477 0
M  V30 545 C 51.0885 1.20566 -4.14835 0
M  V30 546 C 50.2235 2.33368 -4.77193 0
M  V30 547 C 49.2625 1.7787 -5.85686 0
M  V30 548 N 48.3995 2.84263 -6.4198 0
M  V30 549 H 53.2395 -0.0272867 -2.97988 0
M  V30 550 H 50.7765 -0.0252363 -1.47078 0
M  V30 551 H 52.7345 2.41675 -3.40072 0
M  V30 552 H 51.3645 2.29947 -2.26548 0
M  V30 553 H 50.4165 0.413223 -3.78149 0
M  V30 554 H 51.7285 0.759417 -4.92985 0
M  V30 555 H 50.8825 3.09761 -5.21664 0
M  V30 556 H 49.6215 2.8132 -3.98385 0
M  V30 557 H 48.6265 0.99968 -5.40635 0
M  V30 558 H 49.8515 1.30816 -6.66381 0
M  V30 559 H 47.7975 3.31541 -5.66053 0
M  V30 560 H 47.7145 2.44149 -7.15491 0
M  V30 561 H 48.9825 3.6054 -6.91109 0
M  V30 562 N 53.2116 1.57565 -0.0334293 0
M  V30 563 C 54.4576 1.92262 0.645226 0
M  V30 564 C 54.7906 0.910543 1.71531 0
M  V30 565 O 54.0656 -0.066099 1.94388 0
M  V30 566 C 54.3486 3.37422 1.2577 0
M  V30 567 C 54.2016 4.49369 0.196891 0
M  V30 568 C 55.5206 3.82628 2.17449 0
M  V30 569 H 52.6396 0.699171 0.233085 0
M  V30 570 H 55.2816 1.89779 -0.0915694 0
M  V30 571 H 53.4316 3.39669 1.88566 0
M  V30 572 H 55.1036 4.59254 -0.433962 0
M  V30 573 H 53.3466 4.31168 -0.477137 0
M  V30 574 H 54.0176 5.47978 0.665124 0
M  V30 575 H 56.4936 3.82145 1.64634 0
M  V30 576 H 55.3696 4.84883 2.57254 0
M  V30 577 H 55.6306 3.18376 3.0674 0
M  V30 578 N 54.6897 -0.239769 1.55765 0
M  V30 579 C 55.9177 -0.98417 1.81994 0
M  V30 580 C 56.3327 -1.7867 0.610124 0
M  V30 581 O 55.6897 -1.77571 -0.421271 0
M  V30 582 C 55.7407 -1.91635 3.06526 0
M  V30 583 O 55.4617 -1.14629 4.22838 0
M  V30 584 C 56.9627 -2.77616 3.45607 0
M  V30 585 H 54.1827 -0.28928 0.605441 0
M  V30 586 H 56.7267 -0.260499 2.02834 0
M  V30 587 H 54.8817 -2.5942 2.87715 0
M  V30 588 H 55.2957 -1.77745 4.93464 0
M  V30 589 H 56.7697 -3.38759 4.35828 0
M  V30 590 H 57.2467 -3.4909 2.6652 0
M  V30 591 H 57.8527 -2.15271 3.66795 0
M  V30 592 N 56.1678 -1.49265 -0.50573 0
M  V30 593 C 57.0778 -1.68312 -1.63427 0
M  V30 594 C 58.0938 -0.565682 -1.64548 0
M  V30 595 O 59.2698 -0.839801 -1.83055 0
M  V30 596 C 56.3348 -1.74107 -2.99813 0
M  V30 597 C 55.3958 -2.97653 -3.09356 0
M  V30 598 C 54.6288 -3.03163 -4.39236 0
M  V30 599 O 54.8518 -2.16396 -5.27758 0
M  V30 600 O 53.7858 -3.9558 -4.53652 0
M  V30 601 H 57.6118 -2.63907 -1.50289 0
M  V30 602 H 55.1968 -1.32951 -0.681502 0
M  V30 603 H 57.0788 -1.803 -3.80881 0
M  V30 604 H 55.7538 -0.816901 -3.13223 0
M  V30 605 H 54.6608 -2.96981 -2.27493 0
M  V30 606 H 55.9938 -3.89535 -3.00871 0
M  V30 607 N 57.6459 0.756429 -1.3826 0
M  V30 608 C 58.8949 1.51082 -1.3363 0
M  V30 609 C 59.2079 1.95467 0.0720068 0
M  V30 610 O 60.4139 2.7043 0.240834 0
M  V30 611 C 58.8699 2.72893 -2.34644 0
M  V30 612 C 58.4779 2.35544 -3.81081 0
M  V30 613 C 60.2219 3.50791 -2.39052 0
M  V30 614 C 58.1289 3.53948 -4.73787 0
M  V30 615 H 57.0589 0.56727 -0.49671 0
M  V30 616 H 59.7099 0.827147 -1.638 0
M  V30 617 H 58.0919 3.43227 -1.97513 0
M  V30 618 H 59.2659 1.72894 -4.27135 0
M  V30 619 H 57.5809 1.70786 -3.79764 0
M  V30 620 H 60.1779 4.38823 -3.05513 0
M  V30 621 H 60.5209 3.91745 -1.40861 0
M  V30 622 H 61.0539 2.87467 -2.74968 0
M  V30 623 H 57.7929 3.18064 -5.73163 0
M  V30 624 H 57.3129 4.15651 -4.32428 0
M  V30 625 H 58.9919 4.20566 -4.91663 0
M  V30 626 N 59.124 1.23083 0.984299 0
M  V30 627 C 60.535 1.05609 1.5396 0
M  V30 628 C 60.886 -0.377793 1.92528 0
M  V30 629 O 60.011 -1.26398 1.75649 0
M  V30 630 C 60.606 1.91087 2.7977 0
M  V30 631 C 59.165 1.77885 3.31713 0
M  V30 632 C 58.312 1.87028 2.04733 0
M  V30 633 H 61.263 1.36802 0.804419 0
M  V30 634 H 61.284 1.43336 3.5247 0
M  V30 635 H 60.796 2.9544 2.51668 0
M  V30 636 H 58.897 0.762995 3.64704 0
M  V30 637 H 59.01 2.61047 4.01735 0
M  V30 638 H 57.374 1.30565 2.18689 0
M  V30 639 H 58.157 2.92929 1.79017 0
M  V30 640 N 60.6021 -1.18246 1.0419 0
M  V30 641 C 61.8271 -1.92736 0.765996 0
M  V30 642 C 62.2521 -1.75728 -0.67091 0
M  V30 643 O 61.6101 -1.06825 -1.46486 0
M  V30 644 C 61.6581 -3.42148 1.13875 0
M  V30 645 O 60.7621 -4.11548 0.264954 0
M  V30 646 H 60.1031 -0.601238 0.281797 0
M  V30 647 H 62.6331 -1.49942 1.39207 0
M  V30 648 H 62.6431 -3.92858 1.1012 0
M  V30 649 H 61.3181 -3.53848 2.18551 0
M  V30 650 H 59.8951 -3.71137 0.362226 0
M  V30 651 N 62.0802 -0.821533 -1.34494 0
M  V30 652 C 63.3572 -0.33159 -1.92769 0
M  V30 653 C 63.7372 1.18088 -1.74981 0
M  V30 654 O 63.0852 1.98733 -1.12772 0
M  V30 655 C 63.2952 -0.759398 -3.40638 0
M  V30 656 C 64.6432 -0.757433 -4.1779 0
M  V30 657 O 65.6672 -0.70189 -3.49216 0
M  V30 658 O 64.5262 -0.829361 -5.4017 0
M  V30 659 H 61.6202 -0.0902502 -0.822061 0
M  V30 660 H 64.1662 -0.906231 -1.43477 0
M  V30 661 H 62.9382 -1.8012 -3.47379 0
M  V30 662 H 62.5612 -0.160378 -3.97276 0
M  V30 663 N 63.5583 1.46682 -0.576371 0
M  V30 664 C 64.4883 2.33028 0.148397 0
M  V30 665 C 65.4693 1.44961 0.889956 0
M  V30 666 O 66.6543 1.73789 0.866662 0
M  V30 667 C 63.7843 3.27117 1.1667 0
M  V30 668 C 62.7383 4.24575 0.540386 0
M  V30 669 C 62.0643 5.08126 1.6647 0
M  V30 670 C 63.3643 5.19722 -0.518331 0
M  V30 671 H 65.0583 2.93875 -0.572509 0
M  V30 672 H 62.6043 1.41315 -0.276768 0
M  V30 673 H 64.5573 3.86374 1.68204 0
M  V30 674 H 63.2813 2.64364 1.9178 0
M  V30 675 H 61.9403 3.66571 0.0461769 0
M  V30 676 H 61.5883 4.41762 2.40531 0
M  V30 677 H 61.2883 5.74122 1.25131 0
M  V30 678 H 62.8123 5.70246 2.18293 0
M  V30 679 H 64.2263 5.73232 -0.0883058 0
M  V30 680 H 62.6233 5.94026 -0.851679 0
M  V30 681 H 63.6933 4.64037 -1.40703 0
M  V30 682 N 65.0364 0.313813 1.54444 0
M  V30 683 C 66.4474 -0.176243 1.85866 0
M  V30 684 C 66.7984 -1.52405 1.23561 0
M  V30 685 O 65.9234 -2.09605 0.538016 0
M  V30 686 C 66.5184 -0.32657 3.37222 0
M  V30 687 C 65.0774 -0.760846 3.6863 0
M  V30 688 C 64.2244 0.123247 2.77026 0
M  V30 689 H 67.1754 0.534418 1.49431 0
M  V30 690 H 67.1964 -1.15908 3.62416 0
M  V30 691 H 66.7084 0.654531 3.82541 0
M  V30 692 H 64.8094 -1.75204 3.28838 0
M  V30 693 H 64.9224 -0.571353 4.75681 0
M  V30 694 H 63.2864 -0.399597 2.51546 0
M  V30 695 H 64.0694 1.10094 3.25168 0
M  V30 696 N 66.5145 -1.57545 0.0417849 0
M  V30 697 C 67.9305 -1.56467 -0.314704 0
M  V30 698 C 68.1305 -1.04859 -1.72066 0
M  V30 699 O 67.1865 -0.700983 -2.42575 0
M  V30 700 C 68.4995 -3.00317 -0.15174 0
M  V30 701 C 70.0475 -3.12201 -0.223553 0
M  V30 702 C 70.5225 -4.57913 -0.0892295 0
M  V30 703 N 72.0135 -4.6297 -0.145808 0
M  V30 704 C 72.7485 -5.73362 -0.0658459 0
M  V30 705 N 72.2445 -6.92769 0.0659282 0
M  V30 706 N 74.0375 -5.6197 -0.12075 0
M  V30 707 H 66.1885 -1.89416 0.961014 0
M  V30 708 H 68.4515 -0.871862 0.372237 0
M  V30 709 H 68.1575 -3.42073 0.817254 0
M  V30 710 H 68.0315 -3.65892 -0.916692 0
M  V30 711 H 70.4185 -2.70349 -1.18301 0
M  V30 712 H 70.4995 -2.49323 0.571994 0
M  V30 713 H 70.1435 -5.00448 0.866867 0
M  V30 714 H 70.0735 -5.18786 -0.903802 0
M  V30 715 H 72.5645 -3.7709 -0.247286 0
M  V30 716 H 72.8775 -7.72707 0.119905 0
M  V30 717 H 71.2225 -6.94927 0.100885 0
M  V30 718 H 74.4135 -4.67572 -0.222187 0
M  V30 719 H 74.5865 -6.47977 -0.0549735 0
M  V30 720 N 67.9926 0.231505 -1.5589 0
M  V30 721 C 68.9406 1.30649 -1.92441 0
M  V30 722 C 69.9346 1.49037 -0.805254 0
M  V30 723 O 71.1406 1.50329 -0.990007 0
M  V30 724 H 67.5156 0.437812 -0.611412 0
M  V30 725 H 69.4866 0.970973 -2.82161 0
M  V30 726 C 68.2356 2.65179 -2.24889 0
M  V30 727 H 67.5586 2.51835 -3.10514 0
M  V30 728 H 68.9986 3.39234 -2.54355 0
M  V30 729 C 67.4576 3.19439 -1.07054 0
M  V30 730 O 67.9876 4.00371 -0.326499 0
M  V30 731 N 66.1936 2.77675 -0.85703 0
M  V30 732 H 65.7406 2.11969 -1.46379 0
M  V30 733 H 65.6986 3.14321 -0.0703223 0
M  V30 734 N 69.4707 1.49531 0.497807 0
M  V30 735 C 70.4337 1.65916 1.58128 0
M  V30 736 C 71.4337 0.530825 1.51786 0
M  V30 737 O 72.6237 0.797342 1.54881 0
M  V30 738 C 69.7557 1.65951 2.9778 0
M  V30 739 H 70.9487 2.62556 1.44929 0
M  V30 740 H 68.5017 1.38611 0.722275 0
M  V30 741 H 69.2367 0.709065 3.16453 0
M  V30 742 H 69.0217 2.47897 3.03792 0
M  V30 743 H 70.5117 1.80673 3.76493 0
M  V30 744 N 70.9488 -0.749086 1.3866 0
M  V30 745 C 72.1978 -1.50371 1.3443 0
M  V30 746 C 72.5108 -1.95503 -0.0616397 0
M  V30 747 O 73.7168 -2.70554 -0.226489 0
M  V30 748 C 72.1728 -2.71644 2.36088 0
M  V30 749 C 71.7808 -2.3352 3.82325 0
M  V30 750 C 73.5248 -3.49518 2.40909 0
M  V30 751 C 71.4318 -3.51431 4.75658 0
M  V30 752 H 70.3618 -0.564628 0.499712 0
M  V30 753 H 73.0128 -0.818449 1.64237 0
M  V30 754 H 71.3948 -3.42175 1.9933 0
M  V30 755 H 72.5688 -1.70627 4.28046 0
M  V30 756 H 70.8838 -1.6877 3.80665 0
M  V30 757 H 73.4808 -4.37197 3.07836 0
M  V30 758 H 73.8238 -3.90992 1.42937 0
M  V30 759 H 74.3568 -2.86005 2.76489 0
M  V30 760 H 71.0958 -3.15019 5.74842 0
M  V30 761 H 70.6158 -4.13352 4.34627 0
M  V30 762 H 72.2948 -4.17953 4.93887 0
M  V30 763 N 72.4269 -1.23603 -0.977757 0
M  V30 764 C 73.3369 -1.03632 -2.1047 0
M  V30 765 C 74.3529 0.0199435 -1.73989 0
M  V30 766 O 75.5289 -0.176076 -2.00629 0
M  V30 767 C 72.5939 -0.63276 -3.40877 0
M  V30 768 C 71.6549 -1.76437 -3.91367 0
M  V30 769 C 70.8879 -1.37997 -5.15551 0
M  V30 770 O 71.1109 -0.265357 -5.69782 0
M  V30 771 O 70.0449 -2.20201 -5.60174 0
M  V30 772 H 73.8709 -1.98086 -2.30208 0
M  V30 773 H 71.4559 -1.02332 -1.08851 0
M  V30 774 H 73.3379 -0.418761 -4.19314 0
M  V30 775 H 72.0129 0.282754 -3.22463 0
M  V30 776 H 70.9199 -2.03304 -3.14036 0
M  V30 777 H 72.2529 -2.6583 -4.14241 0
M  V30 778 N 73.905 1.17692 -1.04816 0
M  V30 779 C 74.835 2.23777 -0.666791 0
M  V30 780 C 75.816 1.66796 0.33361 0
M  V30 781 O 77.001 1.93039 0.212042 0
M  V30 782 C 74.131 3.47281 -0.0367933 0
M  V30 783 C 73.085 4.17059 -0.961546 0
M  V30 784 C 72.411 5.34342 -0.195626 0
M  V30 785 C 73.711 4.69713 -2.28402 0
M  V30 786 H 75.405 2.55933 -1.55367 0
M  V30 787 H 72.951 1.23019 -0.748484 0
M  V30 788 H 74.904 4.20706 0.241775 0
M  V30 789 H 73.628 3.14381 0.885004 0
M  V30 790 H 72.287 3.45541 -1.22462 0
M  V30 791 H 71.935 4.97692 0.728816 0
M  V30 792 H 71.635 5.81966 -0.811775 0
M  V30 793 H 73.159 6.10553 0.0757473 0
M  V30 794 H 74.573 5.34794 -2.06563 0
M  V30 795 H 72.97 5.279 -2.8538 0
M  V30 796 H 74.04 3.86726 -2.92525 0
M  V30 797 N 75.3831 0.828654 1.34056 0
M  V30 798 C 76.7991 0.515135 1.51058 0
M  V30 799 C 76.9991 -0.959581 1.77184 0
M  V30 800 O 76.0551 -1.74382 1.82612 0
M  V30 801 C 77.3681 1.37963 2.67183 0
M  V30 802 C 78.9161 1.37735 2.81066 0
M  V30 803 C 79.3911 2.22645 4.00241 0
M  V30 804 N 80.8821 2.203 4.07458 0
M  V30 805 C 81.6171 2.82744 4.98842 0
M  V30 806 N 81.1131 3.54201 5.9541 0
M  V30 807 N 82.9061 2.72268 4.91759 0
M  V30 808 H 75.0571 1.78343 1.15358 0
M  V30 809 H 77.3201 0.760304 0.566252 0
M  V30 810 H 77.0261 2.42714 2.54525 0
M  V30 811 H 76.9001 1.0484 3.62338 0
M  V30 812 H 79.2871 0.337593 2.93163 0
M  V30 813 H 79.3681 1.74859 1.86703 0
M  V30 814 H 79.0121 3.26674 3.88905 0
M  V30 815 H 78.9421 1.82869 4.93829 0
M  V30 816 H 81.4331 1.68327 3.38341 0
M  V30 817 H 81.7461 3.9908 6.61782 0
M  V30 818 H 80.0911 3.58308 5.95517 0
M  V30 819 H 83.2821 2.16014 4.15278 0
M  V30 820 H 83.4551 3.21219 5.62781 0
M  V30 821 N 76.8612 -1.46375 0.584142 0
M  V30 822 C 78.1082 -2.02378 0.0702675 0
M  V30 823 C 78.4362 -1.45545 -1.29023 0
M  V30 824 O 77.6912 -0.610967 -1.85918 0
M  V30 825 C 77.9902 -3.57373 -0.0439342 0
M  V30 826 C 77.6562 -4.33252 1.24915 0
M  V30 827 C 76.3182 -4.53701 1.60341 0
M  V30 828 C 78.6702 -4.7681 2.1048 0
M  V30 829 C 75.9982 -5.1496 2.81128 0
M  V30 830 C 78.3502 -5.39404 3.30494 0
M  V30 831 C 77.0142 -5.5808 3.66201 0
M  V30 832 H 76.2842 -0.740554 0.0257127 0
M  V30 833 H 78.9312 -1.75727 0.761065 0
M  V30 834 H 77.2362 -3.83169 -0.817869 0
M  V30 835 H 78.9332 -3.98384 -0.457318 0
M  V30 836 H 75.5232 -4.17633 0.963364 0
M  V30 837 H 79.7072 -4.60766 1.84414 0
M  V30 838 H 74.9632 -5.27611 3.08928 0
M  V30 839 H 79.1372 -5.72114 3.97063 0
M  V30 840 H 76.7642 -6.05318 4.59885 0
M  V30 841 N 78.3393 -0.321999 -1.54275 0
M  V30 842 C 79.5853 0.281461 -2.00837 0
M  V30 843 C 79.9183 1.51909 -1.20985 0
M  V30 844 O 79.1933 1.923 -0.291733 0
M  V30 845 C 79.4763 0.617162 -3.54772 0
M  V30 846 C 79.3293 -0.631064 -4.45351 0
M  V30 847 C 80.6483 1.43542 -4.16033 0
M  V30 848 H 77.7673 0.100826 -0.730071 0
M  V30 849 H 80.4093 -0.438268 -1.84876 0
M  V30 850 H 78.5593 1.23034 -3.68504 0
M  V30 851 H 80.2313 -1.26934 -4.43492 0
M  V30 852 H 78.4743 -1.26025 -4.15091 0
M  V30 853 H 79.1453 -0.351735 -5.50878 0
M  V30 854 H 81.6213 0.917134 -4.05867 0
M  V30 855 H 80.4973 1.63907 -5.23856 0
M  V30 856 H 80.7583 2.43108 -3.69257 0
M  V30 857 N 79.8174 1.5752 -0.0501392 0
M  V30 858 C 80.7474 2.14502 0.922566 0
M  V30 859 C 81.7284 1.06642 1.3252 0
M  V30 860 O 82.9134 1.34577 1.4001 0
M  V30 861 C 80.0434 2.68916 2.19776 0
M  V30 862 C 78.9974 3.8175 1.93523 0
M  V30 863 C 78.3234 4.22677 3.27487 0
M  V30 864 C 79.6234 5.06932 1.25765 0
M  V30 865 H 81.3174 2.9603 0.447952 0
M  V30 866 H 78.8634 1.42401 0.214024 0
M  V30 867 H 80.8164 3.07419 2.88222 0
M  V30 868 H 79.5404 1.84578 2.69441 0
M  V30 869 H 78.1994 3.43718 1.27489 0
M  V30 870 H 77.8474 3.35291 3.74952 0
M  V30 871 H 77.5474 4.98725 3.1072 0
M  V30 872 H 79.0714 4.63779 3.97166 0
M  V30 873 H 80.4854 5.42888 1.84244 0
M  V30 874 H 78.8824 5.88116 1.19328 0
M  V30 875 H 79.9524 4.84337 0.233536 0
M  V30 876 N 81.2955 -0.223234 1.56011 0
M  V30 877 C 82.5235 -0.964812 1.83027 0
M  V30 878 C 82.9385 -1.78013 0.62904 0
M  V30 879 O 82.2955 -1.78008 -0.402414 0
M  V30 880 C 82.3465 -1.88373 3.08542 0
M  V30 881 O 82.0675 -1.10137 4.2403 0
M  V30 882 C 83.5685 -2.73934 3.48533 0
M  V30 883 H 80.7885 -0.282842 0.608475 0
M  V30 884 H 83.3325 -0.238971 2.03099 0
M  V30 885 H 81.4875 -2.56354 2.9045 0
M  V30 886 H 81.9015 -1.72501 4.95322 0
M  V30 887 H 83.3755 -3.34117 4.39397 0
M  V30 888 H 83.8525 -3.46244 2.70207 0
M  V30 889 H 84.4585 -2.11369 3.69057 0
M  V30 890 N 82.7736 -1.49793 -0.48987 0
M  V30 891 C 83.7206 -1.67281 -1.59014 0
M  V30 892 C 84.6906 -0.514177 -1.57941 0
M  V30 893 O 85.8756 -0.742533 -1.75759 0
M  V30 894 C 83.0156 -1.75569 -2.97102 0
M  V30 895 C 82.1286 -3.0281 -3.08107 0
M  V30 896 C 81.2636 -3.02008 -4.36995 0
M  V30 897 C 80.3026 -4.23782 -4.41673 0
M  V30 898 N 79.4396 -4.20826 -5.62005 0
M  V30 899 H 84.2796 -2.61224 -1.43409 0
M  V30 900 H 81.8166 -1.29508 -0.697565 0
M  V30 901 H 83.7746 -1.78354 -3.77155 0
M  V30 902 H 82.4046 -0.850827 -3.11385 0
M  V30 903 H 81.4566 -3.09584 -2.21047 0
M  V30 904 H 82.7686 -3.92801 -3.07423 0
M  V30 905 H 81.9226 -3.03418 -5.25378 0
M  V30 906 H 80.6616 -2.09815 -4.4026 0
M  V30 907 H 79.6666 -4.22604 -3.5169 0
M  V30 908 H 80.8916 -5.17181 -4.40115 0
M  V30 909 H 78.8376 -3.31476 -5.66091 0
M  V30 910 H 78.7546 -5.04564 -5.62984 0
M  V30 911 H 80.0226 -4.26355 -6.52565 0
M  V30 912 N 84.2517 0.741722 -1.39055 0
M  V30 913 C 85.1817 1.869 -1.39966 0
M  V30 914 C 86.1627 1.6804 -0.26392 0
M  V30 915 O 87.3477 1.88458 -0.468755 0
M  V30 916 C 84.4777 3.24572 -1.23574 0
M  V30 917 C 83.4317 3.58056 -2.34477 0
M  V30 918 C 82.7577 4.94593 -2.0318 0
M  V30 919 C 84.0577 3.61716 -3.76774 0
M  V30 920 H 85.7517 1.86395 -2.34302 0
M  V30 921 H 83.2977 0.895361 -1.1278 0
M  V30 922 H 85.2507 4.031 -1.22834 0
M  V30 923 H 83.9747 3.25587 -0.257045 0
M  V30 924 H 82.6337 2.81854 -2.34423 0
M  V30 925 H 82.2817 4.92181 -1.03765 0
M  V30 926 H 81.9817 5.17964 -2.77465 0
M  V30 927 H 83.5057 5.75486 -2.04079 0
M  V30 928 H 84.9197 4.30335 -3.78794 0
M  V30 929 H 83.3167 3.96603 -4.50362 0
M  V30 930 H 84.3867 2.61672 -4.08235 0
M  V30 931 N 85.7298 1.2412 0.971189 0
M  V30 932 C 87.1458 1.00584 1.23916 0
M  V30 933 C 87.3458 -0.287481 1.99439 0
M  V30 934 O 86.4018 -1.00454 2.31658 0
M  V30 935 C 87.7148 2.21864 2.0297 0
M  V30 936 C 89.2628 2.26452 2.16076 0
M  V30 937 C 89.7378 3.47343 2.98524 0
M  V30 938 N 91.2288 3.47639 3.06107 0
M  V30 939 C 91.9638 4.37837 3.70251 0
M  V30 940 N 91.4598 5.38286 4.36142 0
M  V30 941 N 93.2528 4.25558 3.67228 0
M  V30 942 H 85.4038 2.07236 0.465499 0
M  V30 943 H 87.6668 0.909236 0.268315 0
M  V30 944 H 87.3728 3.15771 1.54861 0
M  V30 945 H 87.2468 2.23698 3.03709 0
M  V30 946 H 89.6338 1.33078 2.6339 0
M  V30 947 H 89.7148 2.28645 1.14696 0
M  V30 948 H 89.3588 4.41029 2.51905 0
M  V30 949 H 89.2888 3.42393 4.00093 0
M  V30 950 H 91.7798 2.74966 2.59233 0
M  V30 951 H 92.0928 6.03352 4.82894 0
M  V30 952 H 90.4378 5.42176 4.34822 0
M  V30 953 H 93.6288 3.46322 3.14927 0
M  V30 954 H 93.8018 4.96054 4.16935 0
M  V30 955 N 87.2079 -1.17134 1.05439 0
M  V30 956 C 88.4539 -1.87733 0.767077 0
M  V30 957 C 88.7869 -1.8098 -0.704253 0
M  V30 958 O 88.0619 -1.21951 -1.5152 0
M  V30 959 C 88.3449 -3.37659 1.25133 0
M  V30 960 C 88.1979 -3.53149 2.78578 0
M  V30 961 C 89.5169 -4.31768 0.852324 0
M  V30 962 H 86.6359 -0.681687 0.280129 0
M  V30 963 H 89.2779 -1.37732 1.30881 0
M  V30 964 H 87.4279 -3.80373 0.790469 0
M  V30 965 H 89.0999 -3.19434 3.32806 0
M  V30 966 H 87.3429 -2.95345 3.17732 0
M  V30 967 H 88.0139 -4.58403 3.07523 0
M  V30 968 H 90.4899 -3.96909 1.24911 0
M  V30 969 H 89.3659 -5.35199 1.21873 0
M  V30 970 H 89.6269 -4.41429 -0.243485 0
M  V30 971 N 88.686 -0.835752 -1.33615 0
M  V30 972 C 89.935 -0.426289 -1.97144 0
M  V30 973 C 90.248 1.01912 -1.66953 0
M  V30 974 O 91.454 1.53311 -2.24072 0
M  V30 975 C 89.91 -0.711321 -3.52801 0
M  V30 976 C 89.518 -2.1712 -3.91871 0
M  V30 977 C 91.262 -0.368654 -4.22896 0
M  V30 978 C 89.169 -2.40044 -5.40493 0
M  V30 979 H 88.099 -0.15567 -0.737755 0
M  V30 980 H 90.75 -1.0239 -1.52278 0
M  V30 981 H 89.132 -0.0433766 -3.95976 0
M  V30 982 H 90.306 -2.87936 -3.59763 0
M  V30 983 H 88.621 -2.47654 -3.34749 0
M  V30 984 H 91.218 -0.517601 -5.32189 0
M  V30 985 H 91.561 0.688078 -4.10574 0
M  V30 986 H 92.094 -0.991702 -3.8524 0
M  V30 987 H 88.833 -3.44271 -5.57815 0
M  V30 988 H 88.353 -1.73785 -5.74072 0
M  V30 989 H 90.032 -2.23042 -6.0734 0
M  V30 990 N 90.1641 1.46063 -0.591896 0
M  V30 991 C 91.0961 2.28539 0.174001 0
M  V30 992 C 92.1091 1.39047 0.846753 0
M  V30 993 O 93.2981 1.63564 0.714774 0
M  V30 994 C 90.3981 3.14347 1.26645 0
M  V30 995 C 89.5711 4.32021 0.683856 0
M  V30 996 C 88.6301 4.99157 1.66518 0
M  V30 997 O 87.6561 5.56458 1.19763 0
M  V30 998 N 88.8581 4.97005 2.99943 0
M  V30 999 H 91.6231 2.94911 -0.533633 0
M  V30 1000 H 89.1841 1.56077 -0.430294 0
M  V30 1001 H 91.1761 3.56125 1.92242 0
M  V30 1002 H 89.7461 2.49988 1.87682 0
M  V30 1003 H 88.9661 3.93915 -0.1498 0
M  V30 1004 H 90.2541 5.08059 0.274567 0
M  V30 1005 H 89.6521 4.51714 3.40545 0
M  V30 1006 H 88.2091 5.42696 3.61004 0
M  V30 1007 N 91.6422 0.330177 1.54103 0
M  V30 1008 C 92.5892 -0.532762 2.24567 0
M  V30 1009 C 93.5592 -1.10635 1.23892 0
M  V30 1010 O 94.7442 -1.14546 1.5259 0
M  V30 1011 C 91.8842 -1.6845 3.01195 0
M  V30 1012 C 90.9972 -1.13951 4.167 0
M  V30 1013 C 90.1322 -2.25746 4.80845 0
M  V30 1014 C 89.1712 -1.6853 5.88442 0
M  V30 1015 N 88.3082 -2.74014 6.46421 0
M  V30 1016 H 93.1482 0.0746905 2.97906 0
M  V30 1017 H 90.6852 0.048632 1.4702 0
M  V30 1018 H 92.6432 -2.36234 3.43874 0
M  V30 1019 H 91.2732 -2.26314 2.30178 0
M  V30 1020 H 90.3252 -0.35301 3.78758 0
M  V30 1021 H 91.6372 -0.680892 4.94131 0
M  V30 1022 H 90.7912 -3.01422 5.26526 0
M  V30 1023 H 89.5302 -2.74947 4.0281 0
M  V30 1024 H 88.5352 -0.913543 5.42157 0
M  V30 1025 H 89.7602 -1.20198 6.68378 0
M  V30 1026 H 87.7062 -3.22494 5.71256 0
M  V30 1027 H 87.6232 -2.32735 7.19285 0
M  V30 1028 H 88.8912 -3.49499 6.96757 0
M  V30 1029 N 93.1203 -1.57491 0.0584922 0
M  V30 1030 C 94.3683 -1.92597 -0.612436 0
M  V30 1031 C 94.6893 -0.938162 -1.70949 0
M  V30 1032 O 93.9593 0.0158301 -1.95894 0
M  V30 1033 H 92.5393 -0.710964 -0.229214 0
M  V30 1034 H 95.2013 -1.94571 0.113218 0
M  V30 1035 H 94.2973 -2.94038 -1.04633 0
M  V30 1036 N 94.5984 0.214957 -1.56127 0
M  V30 1037 C 95.5614 1.24997 -1.92116 0
M  V30 1038 C 96.5614 1.39467 -0.800344 0
M  V30 1039 O 97.7514 1.37619 -1.06802 0
M  V30 1040 C 94.8834 2.62271 -2.17777 0
M  V30 1041 H 96.0764 0.942875 -2.84693 0
M  V30 1042 H 93.6294 0.455654 -1.49511 0
M  V30 1043 H 94.3644 2.98068 -1.27773 0
M  V30 1044 H 94.1494 2.53143 -2.99434 0
M  V30 1045 H 95.6394 3.36946 -2.46693 0
M  V30 1046 N 96.0765 1.50051 0.48192 0
M  V30 1047 C 97.3235 1.60498 1.23477 0
M  V30 1048 C 97.6515 0.300331 1.92167 0
M  V30 1049 O 96.9065 -0.713094 1.82246 0
M  V30 1050 C 97.2055 2.72717 2.30998 0
M  V30 1051 C 96.8715 4.13572 1.79636 0
M  V30 1052 C 95.5335 4.519 1.65348 0
M  V30 1053 C 97.8855 5.01649 1.41412 0
M  V30 1054 C 95.2135 5.76057 1.11244 0
M  V30 1055 C 97.5655 6.26343 0.887538 0
M  V30 1056 C 96.2295 6.63483 0.731207 0
M  V30 1057 H 95.4995 0.587303 0.451836 0
M  V30 1058 H 98.1465 1.83948 0.532468 0
M  V30 1059 H 96.4515 2.43312 3.07094 0
M  V30 1060 H 98.1485 2.78006 2.88988 0
M  V30 1061 H 94.7385 3.83329 1.91721 0
M  V30 1062 H 98.9225 4.72679 1.51289 0
M  V30 1063 H 94.1785 6.03516 0.978686 0
M  V30 1064 H 98.3525 6.93958 0.582654 0
M  V30 1065 H 95.9795 7.59568 0.309806 0
M  V30 1066 N 97.5546 -0.734337 1.39446 0
M  V30 1067 C 98.7796 -1.52866 1.40167 0
M  V30 1068 C 99.2046 -1.881 -0.00171513 0
M  V30 1069 O 98.5626 -1.51957 -0.988879 0
M  V30 1070 C 98.6106 -2.79235 2.28167 0
M  V30 1071 O 97.7146 -3.75185 1.71201 0
M  V30 1072 H 97.0556 -0.461618 0.477289 0
M  V30 1073 H 99.5856 -0.905949 1.8345 0
M  V30 1074 H 99.5956 -3.27963 2.42702 0
M  V30 1075 H 98.2706 -2.52923 3.30156 0
M  V30 1076 H 96.8476 -3.33958 1.65912 0
M  V30 1077 N 99.0327 -1.24633 -0.964593 0
M  V30 1078 C 100.281 -1.08573 -1.70459 0
M  V30 1079 C 100.602 0.375655 -1.91347 0
M  V30 1080 O 99.8717 1.26779 -1.49345 0
M  V30 1081 H 98.4517 -0.398784 -0.631649 0
M  V30 1082 H 101.114 -1.56601 -1.16026 0
M  V30 1083 H 100.21 -1.58623 -2.68785 0
M  V30 1084 N 100.511 1.16574 -1.06058 0
M  V30 1085 C 101.758 1.87047 -0.775873 0
M  V30 1086 C 102.086 1.81562 0.697534 0
M  V30 1087 O 101.341 1.22445 1.52662 0
M  V30 1088 C 101.64 3.36195 -1.21275 0
M  V30 1089 C 101.306 3.6188 -2.68986 0
M  V30 1090 C 99.9678 3.68599 -3.09335 0
M  V30 1091 C 102.32 3.72648 -3.64394 0
M  V30 1092 C 99.6478 3.83584 -4.43937 0
M  V30 1093 C 102 3.89154 -4.98741 0
M  V30 1094 C 100.664 3.94114 -5.3873 0
M  V30 1095 H 99.9338 0.684452 -0.283912 0
M  V30 1096 H 102.581 1.37853 -1.32925 0
M  V30 1097 H 100.886 3.87505 -0.578528 0
M  V30 1098 H 102.583 3.89103 -0.969542 0
M  V30 1099 H 99.1728 3.57281 -2.36744 0
M  V30 1100 H 103.357 3.66769 -3.34356 0
M  V30 1101 H 98.6128 3.85677 -4.74409 0
M  V30 1102 H 102.787 3.96427 -5.72554 0
M  V30 1103 H 100.414 4.05478 -6.43033 0
M  V30 1104 N 101.989 0.842826 1.3317 0
M  V30 1105 C 103.237 0.439577 1.97262 0
M  V30 1106 C 103.558 -1.00548 1.67078 0
M  V30 1107 O 102.828 -1.70098 0.971779 0
M  V30 1108 H 101.408 0.159558 0.72976 0
M  V30 1109 H 104.07 1.07665 1.62463 0
M  V30 1110 H 103.166 0.574886 3.0676 0
M  V30 1111 N 103.467 -1.45747 0.599634 0
M  V30 1112 C 104.744 -1.95585 0.0240846 0
M  V30 1113 C 105.124 -1.54217 -1.44154 0
M  V30 1114 O 104.472 -0.800903 -2.14004 0
M  V30 1115 C 104.682 -3.48344 0.21385 0
M  V30 1116 C 106.03 -4.24504 0.0904902 0
M  V30 1117 O 107.054 -3.55911 0.143558 0
M  V30 1118 O 105.913 -5.46491 -0.0310766 0
M  V30 1119 H 103.007 -0.82602 -0.0402478 0
M  V30 1120 H 105.553 -1.55951 0.669139 0
M  V30 1121 H 104.325 -3.71397 1.23206 0
M  V30 1122 H 103.948 -3.9485 -0.466842 0
M  V30 1123 N 104.945 -0.338344 -1.53925 0
M  V30 1124 C 105.875 0.51328 -2.27789 0
M  V30 1125 C 106.856 1.107 -1.29149 0
M  V30 1126 O 108.041 1.12937 -1.57984 0
M  V30 1127 C 105.171 1.66697 -3.04679 0
M  V30 1128 C 104.125 1.20183 -4.1078 0
M  V30 1129 C 103.451 2.44363 -4.75595 0
M  V30 1130 C 104.751 0.30605 -5.21403 0
M  V30 1131 H 106.445 -0.102883 -2.99223 0
M  V30 1132 H 103.991 -0.0509219 -1.4391 0
M  V30 1133 H 105.944 2.26915 -3.55088 0
M  V30 1134 H 104.668 2.30995 -2.30887 0
M  V30 1135 H 103.327 0.622499 -3.61276 0
M  V30 1136 H 102.975 3.07057 -3.98403 0
M  V30 1137 H 102.675 2.13925 -5.47275 0
M  V30 1138 H 104.199 3.05317 -5.28786 0
M  V30 1139 H 105.613 0.814929 -5.67478 0
M  V30 1140 H 104.01 0.0937929 -6.00027 0
M  V30 1141 H 105.08 -0.65921 -4.80398 0
M  V30 1142 N 106.423 1.57458 -0.0668435 0
M  V30 1143 C 107.333 2.15937 0.916975 0
M  V30 1144 C 108.349 1.12123 1.33058 0
M  V30 1145 O 109.525 1.44366 1.40429 0
M  V30 1146 C 106.59 2.70547 2.16807 0
M  V30 1147 C 105.651 3.89215 1.81135 0
M  V30 1148 C 104.884 4.41211 3.0028 0
M  V30 1149 O 105.107 3.92225 4.14144 0
M  V30 1150 O 104.041 5.32605 2.80384 0
M  V30 1151 H 107.867 3.00354 0.449561 0
M  V30 1152 H 105.452 1.48584 0.155949 0
M  V30 1153 H 107.334 3.0557 2.90181 0
M  V30 1154 H 106.009 1.89192 2.62656 0
M  V30 1155 H 104.916 3.59054 1.05028 0
M  V30 1156 H 106.249 4.71848 1.40073 0
M  V30 1157 N 107.901 -0.206675 1.56239 0
M  V30 1158 C 108.848 -1.25617 1.93621 0
M  V30 1159 C 109.818 -1.45824 0.795274 0
M  V30 1160 O 111.003 -1.59148 1.05245 0
M  V30 1161 C 108.143 -2.59839 2.27107 0
M  V30 1162 C 107.256 -2.47308 3.54207 0
M  V30 1163 C 106.391 -3.74155 3.7707 0
M  V30 1164 C 105.43 -3.56407 4.97635 0
M  V30 1165 N 104.567 -4.75238 5.1681 0
M  V30 1166 H 109.407 -0.930383 2.83104 0
M  V30 1167 H 106.944 -0.448065 1.4011 0
M  V30 1168 H 108.902 -3.38021 2.44535 0
M  V30 1169 H 107.532 -2.90485 1.40778 0
M  V30 1170 H 106.584 -1.60483 3.4489 0
M  V30 1171 H 107.896 -2.30122 4.42544 0
M  V30 1172 H 107.05 -4.60778 3.94675 0
M  V30 1173 H 105.789 -3.94282 2.87042 0
M  V30 1174 H 104.794 -2.68168 4.79964 0
M  V30 1175 H 106.019 -3.37736 5.89161 0
M  V30 1176 H 103.965 -4.95651 4.29728 0
M  V30 1177 H 103.882 -4.60835 5.99306 0
M  V30 1178 H 105.15 -5.63246 5.38864 0
M  V30 1179 N 109.379 -1.50304 -0.473955 0
M  V30 1180 C 110.628 -1.60392 -1.22301 0
M  V30 1181 C 110.941 -0.308411 -1.93153 0
M  V30 1182 O 112.147 -0.288156 -2.69966 0
M  V30 1183 C 110.603 -2.83109 -2.2221 0
M  V30 1184 C 110.211 -4.19524 -1.57173 0
M  V30 1185 C 111.955 -3.0254 -2.97775 0
M  V30 1186 C 109.862 -5.33431 -2.55353 0
M  V30 1187 H 108.792 -0.597286 -0.460179 0
M  V30 1188 H 111.443 -1.76731 -0.493803 0
M  V30 1189 H 109.825 -2.60322 -2.9841 0
M  V30 1190 H 110.999 -4.52554 -0.867824 0
M  V30 1191 H 109.314 -4.05674 -0.939002 0
M  V30 1192 H 111.911 -3.84811 -3.71248 0
M  V30 1193 H 112.254 -2.14154 -3.56992 0
M  V30 1194 H 112.787 -3.25494 -2.28688 0
M  V30 1195 H 109.526 -6.23962 -2.00878 0
M  V30 1196 H 109.046 -5.04823 -3.23904 0
M  V30 1197 H 110.725 -5.63887 -3.17239 0
M  V30 1198 N 110.857 0.726932 -1.39834 0
M  V30 1199 C 111.767 1.87131 -1.41489 0
M  V30 1200 C 112.783 1.71239 -0.308757 0
M  V30 1201 O 113.959 1.93701 -0.551529 0
M  V30 1202 C 111.024 3.22811 -1.26468 0
M  V30 1203 C 110.085 3.51039 -2.47124 0
M  V30 1204 C 109.318 4.80245 -2.3281 0
M  V30 1205 O 109.541 5.54537 -1.33585 0
M  V30 1206 O 108.475 5.08554 -3.21957 0
M  V30 1207 H 112.301 1.8869 -2.3797 0
M  V30 1208 H 109.886 0.875837 -1.21035 0
M  V30 1209 H 111.768 4.03877 -1.20255 0
M  V30 1210 H 110.443 3.22005 -0.330862 0
M  V30 1211 H 109.35 2.70027 -2.58914 0
M  V30 1212 H 110.683 3.56632 -3.39227 0
M  V30 1213 N 112.336 1.25143 0.95797 0
M  V30 1214 C 113.585 1.0909 1.69654 0
M  V30 1215 C 113.898 -0.368548 1.92097 0
M  V30 1216 O 115.104 -0.649455 2.63618 0
M  V30 1217 C 113.56 1.90395 3.05414 0
M  V30 1218 C 113.168 3.4081 2.90779 0
M  V30 1219 C 114.912 1.82901 3.83076 0
M  V30 1220 C 112.819 4.14423 4.21909 0
M  V30 1221 H 111.749 0.404625 0.636235 0
M  V30 1222 H 114.4 1.4931 1.06672 0
M  V30 1223 H 112.782 1.42996 3.69281 0
M  V30 1224 H 113.956 3.95859 2.35865 0
M  V30 1225 H 112.271 3.49361 2.26575 0
M  V30 1226 H 114.868 2.35196 4.80195 0
M  V30 1227 H 115.211 0.796224 4.08615 0
M  V30 1228 H 115.744 2.28033 3.25954 0
M  V30 1229 H 112.483 5.18102 4.01561 0
M  V30 1230 H 112.003 3.64159 4.76601 0
M  V30 1231 H 113.682 4.21956 4.90471 0
M  V30 1232 N 113.814 -1.1601 1.06675 0
M  V30 1233 C 115.039 -1.91068 0.806706 0
M  V30 1234 C 115.464 -1.77112 -0.633485 0
M  V30 1235 O 114.822 -1.09908 -1.44187 0
M  V30 1236 C 114.87 -3.39655 1.21106 0
M  V30 1237 O 113.974 -4.10893 0.352189 0
M  V30 1238 H 113.315 -0.595125 0.294486 0
M  V30 1239 H 115.845 -1.46955 1.42356 0
M  V30 1240 H 115.855 -3.90434 1.18428 0
M  V30 1241 H 114.53 -3.49132 2.26008 0
M  V30 1242 H 113.107 -3.70285 0.440868 0
M  V30 1243 N 115.292 -0.849877 -1.32721 0
M  V30 1244 C 116.224 -0.248332 -2.27851 0
M  V30 1245 C 117.237 0.577218 -1.52224 0
M  V30 1246 O 118.426 0.402489 -1.73903 0
M  V30 1247 C 115.526 0.668107 -3.32249 0
M  V30 1248 C 114.699 -0.120534 -4.37234 0
M  V30 1249 C 113.758 0.720932 -5.21238 0
M  V30 1250 O 112.784 0.156166 -5.68986 0
M  V30 1251 N 113.986 2.03647 -5.43607 0
M  V30 1252 H 116.751 -1.06575 -2.80111 0
M  V30 1253 H 114.312 -0.709395 -1.45531 0
M  V30 1254 H 116.304 1.23627 -3.85355 0
M  V30 1255 H 114.874 1.38621 -2.80184 0
M  V30 1256 H 114.094 -0.870108 -3.84477 0
M  V30 1257 H 115.382 -0.662406 -5.0447 0
M  V30 1258 H 114.78 2.51871 -5.06535 0
M  V30 1259 H 113.337 2.55287 -5.99727 0
M  V30 1260 N 116.77 1.45427 -0.607355 0
M  V30 1261 C 117.718 2.32269 0.12411 0
M  V30 1262 C 118.712 1.45955 0.859854 0
M  V30 1263 O 119.918 1.6244 0.775447 0
M  V30 1264 H 116.293 0.749691 0.0588839 0
M  V30 1265 H 118.264 2.91743 -0.626762 0
M  V30 1266 C 117.013 3.29567 1.1082 0
M  V30 1267 H 116.336 3.95978 0.551492 0
M  V30 1268 H 117.776 3.93061 1.58995 0
M  V30 1269 C 116.235 2.56722 2.18164 0
M  V30 1270 O 116.765 2.34842 3.25902 0
M  V30 1271 N 114.971 2.16861 1.93442 0
M  V30 1272 H 114.518 2.34855 1.05834 0
M  V30 1273 H 114.476 1.68444 2.65469 0
M  V30 1274 N 118.248 0.346503 1.53744 0
M  V30 1275 C 119.525 -0.304532 1.93215 0
M  V30 1276 C 119.905 -1.67993 1.27834 0
M  V30 1277 O 119.253 -2.24411 0.430352 0
M  V30 1278 C 119.463 -0.373852 3.46992 0
M  V30 1279 C 120.811 -0.62329 4.2 0
M  V30 1280 O 121.835 -0.455847 3.53271 0
M  V30 1281 O 120.694 -0.947879 5.38217 0
M  V30 1282 H 117.788 -0.178318 0.807547 0
M  V30 1283 H 120.334 0.397895 1.64969 0
M  V30 1284 H 119.106 0.591224 3.86808 0
M  V30 1285 H 118.729 -1.12294 3.81413 0
M  V30 1286 N 119.726 -1.57421 0.075193 0
M  V30 1287 C 120.972 -1.93905 -0.594025 0
M  V30 1288 C 121.305 -0.955701 -1.69056 0
M  V30 1289 O 120.58 0.0145373 -1.94495 0
M  V30 1290 C 120.863 -3.40638 -1.1678 0
M  V30 1291 C 120.716 -4.49733 -0.0776792 0
M  V30 1292 C 122.035 -3.88259 -2.07228 0
M  V30 1293 H 119.154 -0.705105 -0.214466 0
M  V30 1294 H 121.796 -1.8947 0.141854 0
M  V30 1295 H 119.946 -3.44549 -1.79494 0
M  V30 1296 H 121.618 -4.57942 0.555573 0
M  V30 1297 H 119.861 -4.29751 0.591286 0
M  V30 1298 H 120.532 -5.49549 -0.519603 0
M  V30 1299 H 123.008 -3.86376 -1.54445 0
M  V30 1300 H 121.884 -4.91533 -2.44308 0
M  V30 1301 H 122.145 -3.26396 -2.98191 0
M  V30 1302 N 121.204 0.198386 -1.56346 0
M  V30 1303 C 122.134 1.24865 -1.9731 0
M  V30 1304 C 123.115 1.47651 -0.844576 0
M  V30 1305 O 124.3 1.59444 -1.10866 0
M  V30 1306 C 121.43 2.59358 -2.30977 0
M  V30 1307 C 120.384 2.5119 -3.46537 0
M  V30 1308 C 119.71 3.89926 -3.65871 0
M  V30 1309 C 121.01 2.03977 -4.80823 0
M  V30 1310 H 122.704 0.908252 -2.85291 0
M  V30 1311 H 120.25 0.435462 -1.37258 0
M  V30 1312 H 122.203 3.33011 -2.58228 0
M  V30 1313 H 120.927 2.95132 -1.39874 0
M  V30 1314 H 119.586 1.79993 -3.19371 0
M  V30 1315 H 119.234 4.23046 -2.72105 0
M  V30 1316 H 118.934 3.85336 -4.4361 0
M  V30 1317 H 120.458 4.65205 -3.95495 0
M  V30 1318 H 121.872 2.67386 -5.07127 0
M  V30 1319 H 120.269 2.10397 -5.62008 0
M  V30 1320 H 121.339 0.992861 -4.74626 0
M  V30 1321 N 122.682 1.50554 0.465978 0
M  V30 1322 C 123.592 1.72585 1.58907 0
M  V30 1323 C 124.608 0.60911 1.6299 0
M  V30 1324 O 125.784 0.88804 1.80765 0
M  V30 1325 C 122.849 1.81995 2.95091 0
M  V30 1326 C 121.91 3.05751 3.01355 0
M  V30 1327 C 121.143 3.14702 4.31043 0
M  V30 1328 O 121.366 2.30313 5.21835 0
M  V30 1329 O 120.3 4.07468 4.43005 0
M  V30 1330 H 124.126 2.67799 1.43239 0
M  V30 1331 H 121.711 1.34711 0.646013 0
M  V30 1332 H 123.593 1.90335 3.75966 0
M  V30 1333 H 122.268 0.899659 3.10947 0
M  V30 1334 H 121.175 3.02908 2.19539 0
M  V30 1335 H 122.508 3.97375 2.90437 0
M  V30 1336 N 124.16 -0.719506 1.40217 0
M  V30 1337 C 125.406 -1.48152 1.38488 0
M  V30 1338 C 125.739 -1.94195 -0.0141867 0
M  V30 1339 O 125.014 -1.67884 -0.982096 0
M  V30 1340 C 125.297 -2.71035 2.37091 0
M  V30 1341 C 125.15 -2.30912 3.86005 0
M  V30 1342 C 126.469 -3.73182 2.33288 0
M  V30 1343 H 123.588 -0.537395 0.504357 0
M  V30 1344 H 126.23 -0.821472 1.71324 0
M  V30 1345 H 124.38 -3.27352 2.0922 0
M  V30 1346 H 126.052 -1.80107 4.24687 0
M  V30 1347 H 124.295 -1.62958 4.02029 0
M  V30 1348 H 124.966 -3.18978 4.50508 0
M  V30 1349 H 127.442 -3.26485 2.57966 0
M  V30 1350 H 126.318 -4.56806 3.04334 0
M  V30 1351 H 126.579 -4.21202 1.34317 0
M  V30 1352 N 125.638 -1.25649 -0.95132 0
M  V30 1353 C 126.887 -1.09988 -1.69073 0
M  V30 1354 C 127.2 0.358355 -1.92289 0
M  V30 1355 O 128.406 0.635466 -2.63958 0
M  V30 1356 C 126.862 -1.92012 -3.044 0
M  V30 1357 C 126.47 -3.42347 -2.88968 0
M  V30 1358 C 128.214 -1.8493 -3.82101 0
M  V30 1359 C 126.121 -4.16655 -4.19705 0
M  V30 1360 H 125.051 -0.407993 -0.63408 0
M  V30 1361 H 127.702 -1.49873 -1.05879 0
M  V30 1362 H 126.084 -1.44952 -3.68517 0
M  V30 1363 H 127.258 -3.97104 -2.33762 0
M  V30 1364 H 125.573 -3.50557 -2.24719 0
M  V30 1365 H 128.17 -2.37739 -4.78941 0
M  V30 1366 H 128.513 -0.817883 -4.08187 0
M  V30 1367 H 129.046 -2.29758 -3.2474 0
M  V30 1368 H 125.785 -5.20224 -3.98807 0
M  V30 1369 H 125.305 -3.66681 -4.74663 0
M  V30 1370 H 126.984 -4.24551 -4.88227 0
M  V30 1371 N 127.117 1.15442 -1.07289 0
M  V30 1372 C 128.027 2.23786 -0.704057 0
M  V30 1373 C 129.043 1.7166 0.284413 0
M  V30 1374 O 130.219 2.00972 0.131205 0
M  V30 1375 C 127.284 3.46535 -0.106792 0
M  V30 1376 C 126.345 4.13654 -1.14842 0
M  V30 1377 C 125.578 5.30544 -0.57956 0
M  V30 1378 O 125.801 5.67187 0.604585 0
M  V30 1379 O 124.735 5.87154 -1.32414 0
M  V30 1380 H 128.561 2.57664 -1.60757 0
M  V30 1381 H 126.146 1.23152 -0.845803 0
M  V30 1382 H 128.028 4.20804 0.224048 0
M  V30 1383 H 126.703 3.14407 0.770049 0
M  V30 1384 H 125.61 3.4131 -1.5316 0
M  V30 1385 H 126.943 4.49861 -1.99714 0
M  V30 1386 N 128.595 0.856903 1.32268 0
M  V30 1387 C 129.558 0.308171 2.27119 0
M  V30 1388 C 130.558 -0.533421 1.51695 0
M  V30 1389 O 131.748 -0.344607 1.70757 0
M  V30 1390 C 128.88 -0.563757 3.36206 0
M  V30 1391 H 130.073 1.14535 2.77167 0
M  V30 1392 H 127.626 0.631421 1.42978 0
M  V30 1393 H 128.361 -1.42266 2.91429 0
M  V30 1394 H 128.146 0.0386749 3.92081 0
M  V30 1395 H 129.636 -0.940386 4.06874 0
M  V30 1396 N 130.073 -1.45103 0.615059 0
M  V30 1397 C 131.35 -1.95549 0.0448276 0
M  V30 1398 C 131.73 -1.55737 -1.4251 0
M  V30 1399 O 131.078 -0.823556 -2.13143 0
M  V30 1400 C 131.288 -3.48098 0.250785 0
M  V30 1401 C 132.636 -4.24384 0.135509 0
M  V30 1402 O 133.66 -3.55738 0.181299 0
M  V30 1403 O 132.519 -5.46493 0.0268878 0
M  V30 1404 H 129.613 -0.8264 -0.0314845 0
M  V30 1405 H 132.159 -1.55232 0.685642 0
M  V30 1406 H 130.931 -3.7007 1.27139 0
M  V30 1407 H 130.554 -3.95323 -0.424937 0
M  V30 1408 N 131.551 -0.354651 -1.53558 0
M  V30 1409 C 132.797 0.238797 -2.01389 0
M  V30 1410 C 133.13 1.49309 -1.2418 0
M  V30 1411 O 132.405 1.91638 -0.332457 0
M  V30 1412 C 132.688 0.541771 -3.56001 0
M  V30 1413 C 132.541 -0.725388 -4.43912 0
M  V30 1414 C 133.86 1.34685 -4.18984 0
M  V30 1415 H 130.979 0.0853177 -0.732045 0
M  V30 1416 H 133.621 -0.477384 -1.83905 0
M  V30 1417 H 131.771 1.15189 -3.71031 0
M  V30 1418 H 133.443 -1.36313 -4.407 0
M  V30 1419 H 131.686 -1.34801 -4.12324 0
M  V30 1420 H 132.357 -0.468505 -5.50008 0
M  V30 1421 H 134.833 0.830837 -4.07721 0
M  V30 1422 H 133.709 1.52759 -5.27215 0
M  V30 1423 H 133.97 2.35221 -3.74331 0
M  V30 1424 N 133.029 1.57378 -0.0835403 0
M  V30 1425 C 134.276 1.9393 0.58287 0
M  V30 1426 C 134.604 0.964455 1.68904 0
M  V30 1427 O 133.859 -0.0179474 1.95692 0
M  V30 1428 C 134.158 3.37063 1.1884 0
M  V30 1429 C 133.824 4.50424 0.207194 0
M  V30 1430 C 132.486 4.81159 -0.0627115 0
M  V30 1431 C 134.838 5.19136 -0.463426 0
M  V30 1432 C 132.166 5.77939 -1.01012 0
M  V30 1433 C 134.518 6.16931 -1.39924 0
M  V30 1434 C 133.182 6.46078 -1.67749 0
M  V30 1435 H 132.452 0.70964 0.213287 0
M  V30 1436 H 135.099 1.90856 -0.156916 0
M  V30 1437 H 133.404 3.3666 2.00418 0
M  V30 1438 H 135.101 3.6264 1.71153 0
M  V30 1439 H 131.691 4.2646 0.427747 0
M  V30 1440 H 135.875 4.95576 -0.268034 0
M  V30 1441 H 131.131 5.98842 -1.23283 0
M  V30 1442 H 135.305 6.69273 -1.92476 0
M  V30 1443 H 132.932 7.2088 -2.41321 0
M  V30 1444 N 134.507 -0.190092 1.56449 0
M  V30 1445 C 135.732 -0.929864 1.85387 0
M  V30 1446 C 136.157 -1.7585 0.667704 0
M  V30 1447 O 135.515 -1.77198 -0.383459 0
M  V30 1448 C 135.563 -1.79773 3.12593 0
M  V30 1449 O 134.667 -2.89713 2.93496 0
M  V30 1450 H 134.008 -0.261574 0.610307 0
M  V30 1451 H 136.538 -0.193896 2.03679 0
M  V30 1452 H 136.548 -2.20139 3.43515 0
M  V30 1453 H 135.223 -1.18892 3.98544 0
M  V30 1454 H 133.8 -2.53065 2.73884 0
M  V30 1455 N 135.985 -1.50799 -0.457987 0
M  V30 1456 C 136.933 -1.71162 -1.575 0
M  V30 1457 C 137.927 -0.577592 -1.59249 0
M  V30 1458 O 139.133 -0.758443 -1.63241 0
M  V30 1459 H 135.508 -0.540468 -0.522875 0
M  V30 1460 H 137.479 -2.64837 -1.37492 0
M  V30 1461 C 136.228 -1.83496 -2.95338 0
M  V30 1462 H 135.551 -2.70153 -2.94716 0
M  V30 1463 H 136.991 -2.01765 -3.72917 0
M  V30 1464 C 135.45 -0.589694 -3.31699 0
M  V30 1465 O 135.98 0.265163 -4.00824 0
M  V30 1466 N 134.186 -0.439845 -2.87252 0
M  V30 1467 H 133.733 -1.13655 -2.31172 0
M  V30 1468 H 133.691 0.392159 -3.11945 0
M  V30 1469 N 137.463 0.71206 -1.40597 0
M  V30 1470 C 138.393 1.83889 -1.43899 0
M  V30 1471 C 139.374 1.67442 -0.299504 0
M  V30 1472 O 140.559 1.87421 -0.508624 0
M  V30 1473 C 137.689 3.21877 -1.30431 0
M  V30 1474 C 136.643 3.53002 -2.42019 0
M  V30 1475 C 135.969 4.90172 -2.13626 0
M  V30 1476 C 137.269 3.53643 -3.84362 0
M  V30 1477 H 138.963 1.81383 -2.38203 0
M  V30 1478 H 136.509 0.871237 -1.14654 0
M  V30 1479 H 138.462 4.00404 -1.31357 0
M  V30 1480 H 137.186 3.24968 -0.326049 0
M  V30 1481 H 135.845 2.76818 -2.40349 0
M  V30 1482 H 135.493 4.89869 -1.14182 0
M  V30 1483 H 135.193 5.11962 -2.88389 0
M  V30 1484 H 136.717 5.71028 -2.1624 0
M  V30 1485 H 138.131 4.22203 -3.87837 0
M  V30 1486 H 136.528 3.86961 -4.58673 0
M  V30 1487 H 137.598 2.52954 -4.13693 0
M  V30 1488 N 138.941 1.26152 0.944643 0
M  V30 1489 C 140.352 1.10454 1.50522 0
M  V30 1490 C 140.703 -0.31635 1.93633 0
M  V30 1491 O 139.828 -1.20746 1.79581 0
M  V30 1492 C 140.423 1.99891 2.73549 0
M  V30 1493 C 138.982 1.88348 3.25886 0
M  V30 1494 C 138.129 1.93447 1.9868 0
M  V30 1495 H 141.08 1.39292 0.760489 0
M  V30 1496 H 141.101 1.54477 3.47732 0
M  V30 1497 H 140.613 3.03297 2.42141 0
M  V30 1498 H 138.714 0.878636 3.62092 0
M  V30 1499 H 138.827 2.73696 3.93227 0
M  V30 1500 H 137.191 1.37456 2.14425 0
M  V30 1501 H 137.974 2.98476 1.69607 0
M  V30 1502 N 140.419 -1.14872 1.07899 0
M  V30 1503 C 141.366 -2.19791 0.704319 0
M  V30 1504 C 142.336 -1.63238 -0.306987 0
M  V30 1505 O 143.521 -1.8983 -0.192171 0
M  V30 1506 C 140.661 -3.44911 0.114244 0
M  V30 1507 C 139.774 -4.15637 1.1777 0
M  V30 1508 C 138.909 -5.28324 0.552037 0
M  V30 1509 C 137.948 -5.90875 1.59789 0
M  V30 1510 N 137.085 -6.95022 0.994404 0
M  V30 1511 H 141.925 -2.5119 1.60336 0
M  V30 1512 H 139.462 -1.23356 0.801352 0
M  V30 1513 H 141.42 -4.16477 -0.245544 0
M  V30 1514 H 140.05 -3.14011 -0.74813 0
M  V30 1515 H 139.102 -3.42512 1.65499 0
M  V30 1516 H 140.414 -4.5823 1.97046 0
M  V30 1517 H 139.568 -6.06538 0.1402 0
M  V30 1518 H 138.307 -4.86939 -0.272431 0
M  V30 1519 H 137.312 -5.11369 2.01945 0
M  V30 1520 H 138.537 -6.34337 2.42474 0
M  V30 1521 H 136.483 -6.55722 0.190939 0
M  V30 1522 H 136.4 -7.36073 1.72432 0
M  V30 1523 H 137.668 -7.77123 0.608253 0
M  V30 1524 N 141.898 -0.863906 -1.31812 0
M  V30 1525 C 142.828 -0.330843 -2.31144 0
M  V30 1526 C 143.809 0.575005 -1.60087 0
M  V30 1527 O 144.994 0.493304 -1.8783 0
M  V30 1528 C 142.124 0.47374 -3.44054 0
M  V30 1529 C 141.078 -0.338481 -4.26659 0
M  V30 1530 C 140.404 0.591412 -5.31419 0
M  V30 1531 C 141.704 -1.56926 -4.98168 0
M  V30 1532 H 143.398 -1.16086 -2.75979 0
M  V30 1533 H 140.944 -0.559657 -1.32679 0
M  V30 1534 H 142.897 0.857143 -4.12591 0
M  V30 1535 H 141.621 1.33721 -2.9797 0
M  V30 1536 H 140.28 -0.703754 -3.59782 0
M  V30 1537 H 139.928 1.45199 -4.81587 0
M  V30 1538 H 139.628 0.0519022 -5.87577 0
M  V30 1539 H 141.152 0.97179 -6.02817 0
M  V30 1540 H 142.566 -1.25764 -5.59336 0
M  V30 1541 H 140.963 -2.04739 -5.64094 0
M  V30 1542 H 142.033 -2.32544 -4.25501 0
M  V30 1543 N 143.376 1.44774 -0.622745 0
M  V30 1544 C 144.326 2.2774 0.108889 0
M  V30 1545 C 145.31 1.38189 0.824175 0
M  V30 1546 O 146.502 1.62063 0.711664 0
M  V30 1547 C 143.631 3.25353 1.09546 0
M  V30 1548 C 142.717 4.22392 0.380232 0
M  V30 1549 N 143.108 5.02388 -0.586535 0
M  V30 1550 C 141.406 4.41588 0.625792 0
M  V30 1551 C 142.107 5.72894 -1.00834 0
M  V30 1552 N 141.083 5.42479 -0.348878 0
M  V30 1553 H 144.885 2.86993 -0.63341 0
M  V30 1554 H 142.399 1.5611 -0.447589 0
M  V30 1555 H 144.396 3.83538 1.63414 0
M  V30 1556 H 143.056 2.6766 1.83815 0
M  V30 1557 H 144.067 5.0885 -0.963975 0
M  V30 1558 H 140.744 3.95003 1.352 0
M  V30 1559 H 142.134 6.47158 -1.80656 0
M  V30 1560 N 144.854 0.36279 1.53368 0
M  V30 1561 C 145.764 -0.492994 2.29362 0
M  V30 1562 C 146.78 -1.09507 1.35219 0
M  V30 1563 O 147.956 -1.10662 1.68273 0
M  V30 1564 C 145.021 -1.61855 3.066 0
M  V30 1565 C 144.082 -1.04429 4.16405 0
M  V30 1566 C 143.315 -2.11621 4.89951 0
M  V30 1567 O 143.538 -3.32684 4.63333 0
M  V30 1568 O 142.472 -1.74835 5.75948 0
M  V30 1569 H 146.298 0.125331 3.03441 0
M  V30 1570 H 143.883 0.127253 1.48857 0
M  V30 1571 H 145.765 -2.27302 3.54841 0
M  V30 1572 H 144.44 -2.22233 2.3536 0
M  V30 1573 H 143.347 -0.353819 3.72423 0
M  V30 1574 H 144.68 -0.485113 4.89804 0
M  V30 1575 N 146.332 -1.57332 0.0918853 0
M  V30 1576 C 147.581 -1.93412 -0.572249 0
M  V30 1577 C 147.894 -0.975515 -1.69538 0
M  V30 1578 O 149.1 -1.22991 -2.42045 0
M  V30 1579 C 147.556 -3.43648 -1.0693 0
M  V30 1580 C 147.164 -4.47994 0.0239049 0
M  V30 1581 C 148.908 -3.88695 -1.70635 0
M  V30 1582 C 146.815 -5.89381 -0.488319 0
M  V30 1583 H 145.745 -0.721939 -0.217532 0
M  V30 1584 H 148.396 -1.82735 0.167369 0
M  V30 1585 H 146.778 -3.49466 -1.8625 0
M  V30 1586 H 147.952 -4.53815 0.799277 0
M  V30 1587 H 146.267 -4.12536 0.565946 0
M  V30 1588 H 148.864 -4.91725 -2.10025 0
M  V30 1589 H 149.207 -3.27166 -2.57426 0
M  V30 1590 H 149.74 -3.85564 -0.979023 0
M  V30 1591 H 146.479 -6.54602 0.342906 0
M  V30 1592 H 145.999 -5.87037 -1.23077 0
M  V30 1593 H 147.678 -6.39863 -0.958317 0
M  V30 1594 N 147.81 0.181792 -1.56548 0
M  V30 1595 C 149.226 0.53316 -1.50431 0
M  V30 1596 C 149.426 1.85184 -0.794297 0
M  V30 1597 O 148.482 2.50058 -0.350318 0
M  V30 1598 C 149.795 0.575597 -2.9514 0
M  V30 1599 C 151.343 0.663519 -3.05886 0
M  V30 1600 C 151.818 0.736946 -4.52032 0
M  V30 1601 N 153.309 0.800118 -4.56237 0
M  V30 1602 C 154.044 0.877327 -5.66649 0
M  V30 1603 N 153.54 0.916016 -6.86718 0
M  V30 1604 N 155.333 0.915542 -5.54594 0
M  V30 1605 H 147.484 -0.683025 -2.01118 0
M  V30 1606 H 149.747 -0.244988 -0.915797 0
M  V30 1607 H 149.453 -0.324482 -3.502 0
M  V30 1608 H 149.327 1.42572 -3.49218 0
M  V30 1609 H 151.714 1.55403 -2.50867 0
M  V30 1610 H 151.795 -0.21307 -2.54911 0
M  V30 1611 H 151.439 -0.149262 -5.07681 0
M  V30 1612 H 151.369 1.62953 -5.00753 0
M  V30 1613 H 153.86 0.778926 -3.69785 0
M  V30 1614 H 154.173 0.975813 -7.66614 0
M  V30 1615 H 152.518 0.884469 -6.89349 0
M  V30 1616 H 155.709 0.882245 -4.59711 0
M  V30 1617 H 155.882 0.972253 -6.40665 0
M  V30 1618 N 149.288 1.51039 0.449983 0
M  V30 1619 C 150.537 1.62317 1.19733 0
M  V30 1620 C 150.85 0.339101 1.92638 0
M  V30 1621 O 152.056 0.331069 2.69474 0
M  V30 1622 C 150.512 2.86608 2.17678 0
M  V30 1623 C 150.12 4.21972 1.50479 0
M  V30 1624 C 151.864 3.07239 2.92924 0
M  V30 1625 C 149.771 5.37426 2.46834 0
M  V30 1626 H 148.701 0.604532 0.450619 0
M  V30 1627 H 151.352 1.77494 0.465625 0
M  V30 1628 H 149.734 2.65037 2.94231 0
M  V30 1629 H 150.908 4.53878 0.795716 0
M  V30 1630 H 149.223 4.07117 0.874344 0
M  V30 1631 H 151.82 3.90668 3.65079 0
M  V30 1632 H 152.163 2.19807 3.5354 0
M  V30 1633 H 152.696 3.29091 2.23481 0
M  V30 1634 H 149.435 6.27079 1.90926 0
M  V30 1635 H 148.955 5.09912 3.15832 0
M  V30 1636 H 150.634 5.68862 3.08228 0
M  V30 1637 N 150.766 -0.704594 1.40972 0
M  V30 1638 C 151.676 -1.84856 1.44448 0
M  V30 1639 C 152.692 -1.70726 0.335961 0
M  V30 1640 O 153.868 -1.92799 0.582276 0
M  V30 1641 C 150.933 -3.20758 1.31587 0
M  V30 1642 C 149.994 -3.47063 2.52677 0
M  V30 1643 C 149.227 -4.76481 2.4042 0
M  V30 1644 O 149.45 -5.52341 1.42391 0
M  V30 1645 O 148.384 -5.03367 3.30007 0
M  V30 1646 H 152.21 -1.8488 2.40942 0
M  V30 1647 H 149.795 -0.85647 1.22413 0
M  V30 1648 H 151.677 -4.01913 1.26665 0
M  V30 1649 H 150.352 -3.21438 0.382049 0
M  V30 1650 H 149.259 -2.65873 2.63177 0
M  V30 1651 H 150.592 -3.5119 3.44858 0
M  V30 1652 N 152.244 -1.26651 -0.937939 0
M  V30 1653 C 153.191 -1.0849 -2.03712 0
M  V30 1654 C 154.161 0.011033 -1.66096 0
M  V30 1655 O 155.346 -0.149353 -1.90215 0
M  V30 1656 C 152.486 -0.72735 -3.37348 0
M  V30 1657 C 151.599 -1.89986 -3.87981 0
M  V30 1658 C 150.734 -1.48513 -5.10017 0
M  V30 1659 C 149.773 -2.62575 -5.5292 0
M  V30 1660 N 148.91 -2.21762 -6.66158 0
M  V30 1661 H 153.75 -2.02551 -2.18579 0
M  V30 1662 H 151.287 -1.00844 -1.07093 0
M  V30 1663 H 153.245 -0.50092 -4.14182 0
M  V30 1664 H 151.875 0.176298 -3.22318 0
M  V30 1665 H 150.927 -2.23913 -3.07518 0
M  V30 1666 H 152.239 -2.75586 -4.15757 0
M  V30 1667 H 151.393 -1.21934 -5.94321 0
M  V30 1668 H 150.132 -0.60009 -4.83994 0
M  V30 1669 H 149.137 -2.8988 -4.67172 0
M  V30 1670 H 150.362 -3.51685 -5.80943 0
M  V30 1671 H 148.308 -1.35696 -6.41812 0
M  V30 1672 H 148.225 -3.00903 -6.93537 0
M  V30 1673 H 149.493 -1.98403 -7.53828 0
M  V30 1674 N 153.722 1.14298 -1.08507 0
M  V30 1675 C 154.685 2.17607 -0.719711 0
M  V30 1676 C 155.685 1.58907 0.245997 0
M  V30 1677 O 156.875 1.74181 0.0254081 0
M  V30 1678 C 154.007 3.40842 -0.0627695 0
M  V30 1679 H 155.2 2.51443 -1.63452 0
M  V30 1680 H 152.753 1.28963 -0.88307 0
M  V30 1681 H 153.488 3.12587 0.863716 0
M  V30 1682 H 153.273 3.84713 -0.757504 0
M  V30 1683 H 154.763 4.17221 0.177786 0
M  V30 1684 N 155.201 0.870884 1.31352 0
M  V30 1685 C 156.149 0.316445 2.30437 0
M  V30 1686 C 157.143 -0.568965 1.59559 0
M  V30 1687 O 158.349 -0.454964 1.74155 0
M  V30 1688 H 154.724 0.0836521 0.747333 0
M  V30 1689 H 156.695 1.16606 2.74673 0
M  V30 1690 C 155.444 -0.46635 3.44558 0
M  V30 1691 H 154.767 0.205687 3.99271 0
M  V30 1692 H 156.207 -0.819614 4.16003 0
M  V30 1693 C 154.666 -1.65797 2.9328 0
M  V30 1694 O 155.196 -2.75728 2.92125 0
M  V30 1695 N 153.402 -1.49041 2.4947 0
M  V30 1696 H 152.949 -0.59612 2.50608 0
M  V30 1697 H 152.907 -2.28911 2.15516 0
M  V30 1698 N 156.679 -1.44442 0.630414 0
M  V30 1699 C 157.627 -2.32437 -0.0871428 0
M  V30 1700 C 158.621 -1.47304 -0.836525 0
M  V30 1701 O 159.827 -1.63653 -0.749506 0
M  V30 1702 H 156.202 -0.750533 -0.0469495 0
M  V30 1703 H 158.173 -2.90709 0.673096 0
M  V30 1704 C 156.922 -3.31288 -1.05563 0
M  V30 1705 H 156.245 -3.96805 -0.488426 0
M  V30 1706 H 157.685 -3.9554 -1.52721 0
M  V30 1707 C 156.144 -2.6016 -2.14052 0
M  V30 1708 O 156.674 -2.39997 -3.22124 0
M  V30 1709 N 154.88 -2.19911 -1.89967 0
M  V30 1710 H 154.427 -2.36509 -1.02085 0
M  V30 1711 H 154.385 -1.72646 -2.62756 0
M  V30 1712 N 158.157 -0.370918 -1.53173 0
M  V30 1713 C 159.087 0.464847 -2.28826 0
M  V30 1714 C 160.068 1.07936 -1.31468 0
M  V30 1715 O 161.253 1.0956 -1.60344 0
M  V30 1716 C 158.383 1.60196 -3.08147 0
M  V30 1717 C 157.337 1.11443 -4.13237 0
M  V30 1718 C 156.663 2.3422 -4.80672 0
M  V30 1719 C 157.963 0.195384 -5.21934 0
M  V30 1720 H 159.657 -0.166329 -2.98938 0
M  V30 1721 H 157.203 -0.0814359 -1.4377 0
M  V30 1722 H 159.156 2.19332 -3.59822 0
M  V30 1723 H 157.88 2.26045 -2.35735 0
M  V30 1724 H 156.539 0.545727 -3.62515 0
M  V30 1725 H 156.187 2.98537 -4.04827 0
M  V30 1726 H 155.887 2.02269 -5.51689 0
M  V30 1727 H 157.411 2.94032 -5.35143 0
M  V30 1728 H 158.825 0.694375 -5.69079 0
M  V30 1729 H 157.222 -0.0335027 -6.00091 0
M  V30 1730 H 158.292 -0.760961 -4.78892 0
M  V30 1731 N 159.635 1.57281 -0.100228 0
M  V30 1732 C 160.565 2.17328 0.853857 0
M  V30 1733 C 161.546 1.10804 1.2906 0
M  V30 1734 O 162.731 1.38963 1.35657 0
M  V30 1735 C 159.861 2.75772 2.11109 0
M  V30 1736 C 158.815 3.87713 1.81279 0
M  V30 1737 C 158.141 4.32882 3.13874 0
M  V30 1738 C 159.441 5.10677 1.09574 0
M  V30 1739 H 161.135 2.97305 0.353545 0
M  V30 1740 H 158.681 1.43009 0.168612 0
M  V30 1741 H 160.634 3.16433 2.78296 0
M  V30 1742 H 159.358 1.93057 2.63432 0
M  V30 1743 H 158.017 3.476 1.16489 0
M  V30 1744 H 157.665 3.47051 3.64095 0
M  V30 1745 H 157.365 5.08358 2.94696 0
M  V30 1746 H 158.889 4.7618 3.82211 0
M  V30 1747 H 160.303 5.48474 1.66879 0
M  V30 1748 H 158.7 5.91615 1.00557 0
M  V30 1749 H 159.77 4.84835 0.0793299 0
M  V30 1750 N 161.113 -0.173488 1.56642 0
M  V30 1751 C 162.343 -0.904781 1.85734 0
M  V30 1752 C 162.751 -1.76431 0.68328 0
M  V30 1753 O 162.094 -1.802 -0.356865 0
M  V30 1754 C 162.156 -1.83382 3.09211 0
M  V30 1755 C 161.82 -1.15411 4.42187 0
M  V30 1756 C 162.817 -0.520609 5.17287 0
M  V30 1757 C 160.502 -1.15151 4.88923 0
M  V30 1758 C 162.496 0.106412 6.37311 0
M  V30 1759 C 160.183 -0.520664 6.08878 0
M  V30 1760 C 161.181 0.107196 6.82916 0
M  V30 1761 O 160.869 0.728102 8.00596 0
M  V30 1762 H 160.601 -0.268408 0.62043 0
M  V30 1763 H 163.155 -0.179096 2.04618 0
M  V30 1764 H 161.385 -2.59976 2.86268 0
M  V30 1765 H 163.074 -2.43476 3.24768 0
M  V30 1766 H 163.84 -0.514606 4.82262 0
M  V30 1767 H 159.719 -1.62961 4.31236 0
M  V30 1768 H 163.263 0.597081 6.9504 0
M  V30 1769 H 159.16 -0.524242 6.43368 0
M  V30 1770 H 159.928 0.627138 8.16094 0
M  V30 1771 N 162.591 -1.51276 -0.441967 0
M  V30 1772 C 163.84 -1.6295 -1.18871 0
M  V30 1773 C 164.153 -0.349312 -1.92456 0
M  V30 1774 O 165.359 -0.345355 -2.69295 0
M  V30 1775 C 163.815 -2.87759 -2.16155 0
M  V30 1776 C 163.423 -4.22764 -1.48239 0
M  V30 1777 C 165.167 -3.08788 -2.91291 0
M  V30 1778 C 163.074 -5.38728 -2.4398 0
M  V30 1779 H 162.004 -0.606913 -0.447406 0
M  V30 1780 H 164.655 -1.77739 -0.456205 0
M  V30 1781 H 163.037 -2.66593 -2.92821 0
M  V30 1782 H 164.211 -4.54293 -0.771635 0
M  V30 1783 H 162.526 -4.07575 -0.852741 0
M  V30 1784 H 165.123 -3.92599 -3.63002 0
M  V30 1785 H 165.466 -2.21679 -3.5237 0
M  V30 1786 H 165.999 -3.30272 -2.21733 0
M  V30 1787 H 162.738 -6.28082 -1.87598 0
M  V30 1788 H 162.258 -5.1158 -3.13123 0
M  V30 1789 H 163.937 -5.70489 -3.05207 0
M  V30 1790 N 164.069 0.697108 -1.41344 0
M  V30 1791 C 165.017 1.83237 -1.43272 0
M  V30 1792 C 166.011 1.66522 -0.310947 0
M  V30 1793 O 167.217 1.73402 -0.482899 0
M  V30 1794 H 163.592 0.603802 -0.448249 0
M  V30 1795 H 165.563 1.78727 -2.38954 0
M  V30 1796 C 164.312 3.21245 -1.33029 0
M  V30 1797 H 163.635 3.34723 -2.18633 0
M  V30 1798 H 165.075 4.00763 -1.38439 0
M  V30 1799 C 163.534 3.36873 -0.0424635 0
M  V30 1800 O 164.064 3.91177 0.913421 0
M  V30 1801 N 162.27 2.90581 0.0331145 0
M  V30 1802 H 161.817 2.46577 -0.745506 0
M  V30 1803 H 161.775 3.01416 0.894199 0
M  V30 1804 N 165.547 1.27147 0.931209 0
M  V30 1805 C 166.958 1.12044 1.49342 0
M  V30 1806 C 167.309 -0.295795 1.93957 0
M  V30 1807 O 166.434 -1.18835 1.80852 0
M  V30 1808 C 167.029 2.02781 2.71414 0
M  V30 1809 C 165.588 1.91794 3.2387 0
M  V30 1810 C 164.735 1.95543 1.96617 0
M  V30 1811 H 167.686 1.40091 0.745672 0
M  V30 1812 H 167.707 1.58156 3.46074 0
M  V30 1813 H 167.219 3.05848 2.38911 0
M  V30 1814 H 165.32 0.916992 3.6114 0
M  V30 1815 H 165.433 2.77852 3.90302 0
M  V30 1816 H 163.797 1.39722 2.12955 0
M  V30 1817 H 164.58 3.00259 1.66432 0
M  V30 1818 N 167.025 -1.13721 1.09112 0
M  V30 1819 C 167.935 -2.22638 0.73957 0
M  V30 1820 C 168.951 -1.72091 -0.257068 0
M  V30 1821 O 170.127 -2.01155 -0.0992154 0
M  V30 1822 C 167.192 -3.46322 0.16191 0
M  V30 1823 C 166.253 -4.11775 1.21408 0
M  V30 1824 C 165.486 -5.29555 0.663891 0
M  V30 1825 O 165.709 -5.68077 -0.514274 0
M  V30 1826 O 164.643 -5.84973 1.41738 0
M  V30 1827 H 168.469 -2.55074 1.64836 0
M  V30 1828 H 166.054 -1.21791 0.865289 0
M  V30 1829 H 167.936 -4.21107 -0.157073 0
M  V30 1830 H 166.611 -3.15593 -0.719932 0
M  V30 1831 H 165.518 -3.3883 1.58571 0
M  V30 1832 H 166.851 -4.46627 2.06845 0
M  V30 1833 N 168.503 -0.877838 -1.30888 0
M  V30 1834 C 169.466 -0.344265 -2.266 0
M  V30 1835 C 170.466 0.50922 -1.52524 0
M  V30 1836 O 171.656 0.317398 -1.71284 0
M  V30 1837 C 168.788 0.510198 -3.37061 0
M  V30 1838 H 169.981 -1.1893 -2.7531 0
M  V30 1839 H 167.534 -0.654088 -1.41956 0
M  V30 1840 H 168.269 1.37612 -2.93655 0
M  V30 1841 H 168.054 -0.101047 -3.9197 0
M  V30 1842 H 169.544 0.875537 -4.08319 0
M  V30 1843 N 169.982 1.44106 -0.638065 0
M  V30 1844 C 171.229 2.01978 -0.14533 0
M  V30 1845 C 171.557 1.50234 1.23532 0
M  V30 1846 O 170.812 0.679548 1.83523 0
M  V30 1847 C 171.111 3.5729 -0.0887327 0
M  V30 1848 C 170.777 4.28317 -1.40909 0
M  V30 1849 C 169.439 4.47437 -1.77069 0
M  V30 1850 C 171.791 4.6867 -2.28031 0
M  V30 1851 C 169.119 5.04171 -3.00047 0
M  V30 1852 C 171.471 5.26766 -3.50286 0
M  V30 1853 C 170.135 5.44104 -3.86661 0
M  V30 1854 H 169.405 0.739089 -0.0531801 0
M  V30 1855 H 172.052 1.72781 -0.825761 0
M  V30 1856 H 170.357 3.8594 0.675095 0
M  V30 1857 H 172.054 3.99807 0.309145 0
M  V30 1858 H 168.644 4.1377 -1.1177 0
M  V30 1859 H 172.828 4.53604 -2.01388 0
M  V30 1860 H 168.084 5.15782 -3.28298 0
M  V30 1861 H 172.258 5.56983 -4.18023 0
M  V30 1862 H 169.885 5.87832 -4.82034 0
M  V30 1863 N 171.46 0.379036 1.52974 0
M  V30 1864 C 172.392 -0.495963 2.2377 0
M  V30 1865 C 173.405 -1.03517 1.25651 0
M  V30 1866 O 174.594 -0.939249 1.51791 0
M  V30 1867 C 171.694 -1.69894 2.93239 0
M  V30 1868 C 170.867 -1.2889 4.17979 0
M  V30 1869 C 169.926 -2.35543 4.70538 0
M  V30 1870 O 168.952 -1.97375 5.33883 0
M  V30 1871 N 170.154 -3.67318 4.49508 0
M  V30 1872 H 172.919 0.110523 2.99496 0
M  V30 1873 H 170.48 0.204878 1.60598 0
M  V30 1874 H 172.472 -2.40747 3.25304 0
M  V30 1875 H 171.042 -2.212 2.20883 0
M  V30 1876 H 170.262 -0.409676 3.92065 0
M  V30 1877 H 171.55 -0.991443 4.99047 0
M  V30 1878 H 170.948 -4.01095 3.98923 0
M  V30 1879 H 169.505 -4.34235 4.8609 0
M  V30 1880 N 172.938 -1.57226 0.108567 0
M  V30 1881 C 173.886 -2.16002 -0.862885 0
M  V30 1882 C 174.88 -1.10644 -1.28274 0
M  V30 1883 O 176.086 -1.28966 -1.2557 0
M  V30 1884 H 172.461 -0.691148 -0.296342 0
M  V30 1885 H 174.432 -2.96427 -0.342575 0
M  V30 1886 C 173.181 -2.76576 -2.10716 0
M  V30 1887 H 172.504 -3.5734 -1.793 0
M  V30 1888 H 173.944 -3.21253 -2.76717 0
M  V30 1889 C 172.403 -1.73137 -2.89007 0
M  V30 1890 O 172.933 -1.17842 -3.84026 0
M  V30 1891 N 171.139 -1.43317 -2.52801 0
M  V30 1892 H 170.686 -1.88473 -1.75601 0
M  V30 1893 H 170.644 -0.743485 -3.05483 0
M  V30 1894 N 174.416 0.165178 -1.56732 0
M  V30 1895 C 175.346 1.20651 -1.99914 0
M  V30 1896 C 176.327 1.45827 -0.875705 0
M  V30 1897 O 177.512 1.57057 -1.14223 0
M  V30 1898 C 174.642 2.54401 -2.36427 0
M  V30 1899 C 173.596 2.43782 -3.51787 0
M  V30 1900 C 172.922 3.82078 -3.7406 0
M  V30 1901 C 174.222 1.93732 -4.85041 0
M  V30 1902 H 175.916 0.847534 -2.87154 0
M  V30 1903 H 173.462 0.40625 -1.38151 0
M  V30 1904 H 175.415 3.27458 -2.65234 0
M  V30 1905 H 174.139 2.92098 -1.46103 0
M  V30 1906 H 172.798 1.73178 -3.23117 0
M  V30 1907 H 172.446 4.17179 -2.81017 0
M  V30 1908 H 172.146 3.7584 -4.51684 0
M  V30 1909 H 173.67 4.56712 -4.05274 0
M  V30 1910 H 175.084 2.56569 -5.12684 0
M  V30 1911 H 173.481 1.98428 -5.66345 0
M  V30 1912 H 174.551 0.891962 -4.76626 0
M  V30 1913 N 175.894 1.51508 0.433938 0
M  V30 1914 C 177.305 1.56784 1.01369 0
M  V30 1915 C 177.656 0.393349 1.92217 0
M  V30 1916 O 176.781 -0.489441 2.10792 0
M  V30 1917 C 177.376 2.84144 1.8452 0
M  V30 1918 C 175.935 2.9198 2.37539 0
M  V30 1919 C 175.082 2.51482 1.16843 0
M  V30 1920 H 178.033 1.57236 0.215081 0
M  V30 1921 H 178.054 2.68098 2.70007 0
M  V30 1922 H 177.566 3.69607 1.18373 0
M  V30 1923 H 175.667 2.10955 3.0713 0
M  V30 1924 H 175.78 3.95704 2.70103 0
M  V30 1925 H 174.144 2.04758 1.51481 0
M  V30 1926 H 174.927 3.39293 0.523015 0
M  V30 1927 N 177.372 -0.689602 1.41712 0
M  V30 1928 C 178.32 -1.82475 1.44242 0
M  V30 1929 C 179.314 -1.66354 0.319774 0
M  V30 1930 O 180.52 -1.73143 0.492089 0
M  V30 1931 H 176.895 -0.601416 0.451445 0
M  V30 1932 H 178.866 -1.77458 2.39899 0
M  V30 1933 C 177.615 -3.20535 1.3473 0
M  V30 1934 H 176.938 -3.33559 2.20405 0
M  V30 1935 H 178.378 -4.00023 1.40562 0
M  V30 1936 C 176.837 -3.36846 0.0603281 0
M  V30 1937 O 177.367 -3.91656 -0.892663 0
M  V30 1938 N 175.573 -2.90595 -0.0177039 0
M  V30 1939 H 175.12 -2.46178 0.758572 0
M  V30 1940 H 175.078 -3.01886 -0.878201 0
M  V30 1941 N 178.85 -1.27639 -0.924453 0
M  V30 1942 C 179.78 -1.13166 -2.04244 0
M  V30 1943 C 180.761 -0.032256 -1.70069 0
M  V30 1944 O 181.946 -0.207328 -1.9309 0
M  V30 1945 C 179.076 -0.781496 -3.38393 0
M  V30 1946 C 178.03 -1.83449 -3.86692 0
M  V30 1947 C 177.356 -1.33822 -5.17683 0
M  V30 1948 C 178.656 -3.23917 -4.09726 0
M  V30 1949 H 180.35 -2.06689 -2.1661 0
M  V30 1950 H 177.896 -0.995136 -1.04082 0
M  V30 1951 H 179.849 -0.667057 -4.16087 0
M  V30 1952 H 178.573 0.189439 -3.2605 0
M  V30 1953 H 177.232 -1.93789 -3.11193 0
M  V30 1954 H 176.88 -0.35665 -5.01734 0
M  V30 1955 H 176.58 -2.04224 -5.50968 0
M  V30 1956 H 178.104 -1.23679 -5.97943 0
M  V30 1957 H 179.518 -3.16559 -4.77978 0
M  V30 1958 H 177.915 -3.92059 -4.54324 0
M  V30 1959 H 178.985 -3.68729 -3.14908 0
M  V30 1960 N 180.328 1.1314 -1.09713 0
M  V30 1961 C 181.26 2.18343 -0.697056 0
M  V30 1962 C 182.273 1.60669 0.262551 0
M  V30 1963 O 183.462 1.78435 0.0481527 0
M  V30 1964 C 180.562 3.38899 -0.00684728 0
M  V30 1965 C 179.735 4.26078 -0.988741 0
M  V30 1966 C 178.794 5.25155 -0.331394 0
M  V30 1967 O 177.82 5.60701 -0.979926 0
M  V30 1968 N 179.022 5.73271 0.913261 0
M  V30 1969 H 181.787 2.5328 -1.60216 0
M  V30 1970 H 179.348 1.28491 -0.984971 0
M  V30 1971 H 181.34 4.02255 0.444191 0
M  V30 1972 H 179.91 3.02175 0.800551 0
M  V30 1973 H 179.13 3.59453 -1.61826 0
M  V30 1974 H 180.418 4.81178 -1.65364 0
M  V30 1975 H 179.816 5.46544 1.45966 0
M  V30 1976 H 178.373 6.3855 1.30757 0
M  V30 1977 N 181.806 0.884767 1.30421 0
M  V30 1978 C 183.036 0.517293 2.00019 0
M  V30 1979 C 183.444 -0.898632 1.66497 0
M  V30 1980 O 182.787 -1.60245 0.898181 0
M  V30 1981 C 182.849 0.612025 3.54252 0
M  V30 1982 C 182.513 1.99222 4.1129 0
M  V30 1983 C 183.51 2.9616 4.273 0
M  V30 1984 C 181.195 2.29755 4.46674 0
M  V30 1985 C 183.189 4.21764 4.77906 0
M  V30 1986 C 180.876 3.55606 4.96979 0
M  V30 1987 C 181.874 4.51425 5.12547 0
M  V30 1988 O 181.562 5.75043 5.61766 0
M  V30 1989 H 181.294 0.198529 0.64619 0
M  V30 1990 H 183.848 1.1919 1.67281 0
M  V30 1991 H 182.078 -0.119561 3.86515 0
M  V30 1992 H 183.767 0.255859 4.05093 0
M  V30 1993 H 184.533 2.73882 4.00267 0
M  V30 1994 H 180.412 1.55942 4.33824 0
M  V30 1995 H 183.956 4.96561 4.89972 0
M  V30 1996 H 179.853 3.7772 5.23448 0
M  V30 1997 H 180.621 5.77422 5.80109 0
M  V30 1998 N 183.284 -1.43765 0.645699 0
M  V30 1999 C 184.214 -2.33471 -0.0370477 0
M  V30 2000 C 185.195 -1.49042 -0.819779 0
M  V30 2001 O 186.38 -1.77726 -0.782758 0
M  V30 2002 C 183.51 -3.32311 -1.0093 0
M  V30 2003 C 182.464 -4.2667 -0.337201 0
M  V30 2004 C 181.79 -5.1549 -1.42037 0
M  V30 2005 C 183.09 -5.16657 0.765706 0
M  V30 2006 H 184.784 -2.90809 0.712069 0
M  V30 2007 H 182.33 -1.39834 0.343876 0
M  V30 2008 H 184.283 -3.9396 -1.49578 0
M  V30 2009 H 183.007 -2.73213 -1.78948 0
M  V30 2010 H 181.666 -3.66374 0.128771 0
M  V30 2011 H 181.314 -4.52735 -2.1918 0
M  V30 2012 H 181.014 -5.79438 -0.975966 0
M  V30 2013 H 182.538 -5.80012 -1.90838 0
M  V30 2014 H 183.952 -5.72158 0.361702 0
M  V30 2015 H 182.349 -5.89286 1.13413 0
M  V30 2016 H 183.419 -4.56796 1.62683 0
M  V30 2017 N 184.763 -0.387143 -1.52771 0
M  V30 2018 C 185.693 0.440551 -2.29306 0
M  V30 2019 C 186.674 1.06535 -1.32606 0
M  V30 2020 O 187.859 1.07853 -1.61497 0
M  V30 2021 C 184.989 1.56919 -3.09829 0
M  V30 2022 C 183.943 1.07054 -4.14395 0
M  V30 2023 C 183.269 2.29109 -4.83129 0
M  V30 2024 C 184.569 0.140015 -5.22112 0
M  V30 2025 H 186.263 -0.198026 -2.98744 0
M  V30 2026 H 183.809 -0.09668 -1.43675 0
M  V30 2027 H 185.762 2.15503 -3.62128 0
M  V30 2028 H 184.486 2.23532 -2.3812 0
M  V30 2029 H 183.145 0.507247 -3.63074 0
M  V30 2030 H 182.793 2.94227 -4.0797 0
M  V30 2031 H 182.493 1.96406 -5.53804 0
M  V30 2032 H 184.017 2.88339 -5.38231 0
M  V30 2033 H 185.431 0.633978 -5.69784 0
M  V30 2034 H 183.828 -0.0971485 -6.00021 0
M  V30 2035 H 184.898 -0.811711 -4.78058 0
M  V30 2036 N 186.241 1.57166 -0.116904 0
M  V30 2037 C 187.49 1.94298 0.541407 0
M  V30 2038 C 187.803 1.00236 1.67964 0
M  V30 2039 O 189.009 1.26826 2.40057 0
M  V30 2040 C 187.465 3.45306 1.01449 0
M  V30 2041 C 187.073 4.47899 -0.0951738 0
M  V30 2042 C 188.817 3.91361 1.6443 0
M  V30 2043 C 186.724 5.90083 0.394491 0
M  V30 2044 H 185.654 0.725308 0.206019 0
M  V30 2045 H 188.305 1.82446 -0.196419 0
M  V30 2046 H 186.687 3.52385 1.80667 0
M  V30 2047 H 187.861 4.52486 -0.871374 0
M  V30 2048 H 186.176 4.11583 -0.631505 0
M  V30 2049 H 188.773 4.95004 2.02176 0
M  V30 2050 H 189.116 3.3122 2.52189 0
M  V30 2051 H 189.649 3.87073 0.917559 0
M  V30 2052 H 186.388 6.53974 -0.447004 0
M  V30 2053 H 185.908 5.88921 1.13722 0
M  V30 2054 H 187.587 6.41307 0.856399 0
M  V30 2055 N 187.719 -0.156864 1.56817 0
M  V30 2056 C 188.944 -0.890331 1.87318 0
M  V30 2057 C 189.369 -1.74394 0.704855 0
M  V30 2058 O 188.727 -1.77972 -0.345786 0
M  V30 2059 C 188.775 -1.73102 3.16336 0
M  V30 2060 O 187.879 -2.83422 2.99576 0
M  V30 2061 H 187.22 -0.24857 0.615718 0
M  V30 2062 H 189.75 -0.150649 2.04045 0
M  V30 2063 H 189.76 -2.12803 3.48107 0
M  V30 2064 H 188.435 -1.10412 4.00976 0
M  V30 2065 H 187.012 -2.47199 2.7919 0
M  V30 2066 N 189.197 -1.51736 -0.425897 0
M  V30 2067 C 190.145 -1.74464 -1.53834 0
M  V30 2068 C 191.139 -0.611241 -1.57988 0
M  V30 2069 O 192.345 -0.792899 -1.61596 0
M  V30 2070 H 188.72 -0.551437 -0.511293 0
M  V30 2071 H 190.691 -2.67694 -1.31843 0
M  V30 2072 C 189.44 -1.8972 -2.91379 0
M  V30 2073 H 188.763 -2.76344 -2.88919 0
M  V30 2074 H 190.203 -2.09629 -3.68553 0
M  V30 2075 C 188.662 -0.65992 -3.30374 0
M  V30 2076 O 189.192 0.180083 -4.01296 0
M  V30 2077 N 187.398 -0.500677 -2.86254 0
M  V30 2078 H 186.945 -1.18532 -2.28709 0
M  V30 2079 H 186.903 0.325903 -3.12706 0
M  V30 2080 N 190.675 0.682077 -1.42076 0
M  V30 2081 C 191.903 1.47057 -1.4554 0
M  V30 2082 C 192.318 1.8869 -0.0645779 0
M  V30 2083 O 191.675 1.57666 0.919115 0
M  V30 2084 C 191.726 2.72442 -2.37609 0
M  V30 2085 O 191.447 2.32559 -3.71279 0
M  V30 2086 C 192.948 3.66069 -2.50017 0
M  V30 2087 H 190.168 0.452737 -0.495248 0
M  V30 2088 H 192.712 0.838695 -1.8651 0
M  V30 2089 H 190.867 3.31835 -1.9991 0
M  V30 2090 H 191.281 3.13475 -4.20516 0
M  V30 2091 H 192.755 4.50792 -3.18576 0
M  V30 2092 H 193.232 4.11476 -1.53572 0
M  V30 2093 H 193.838 3.12572 -2.88407 0
M  V30 2094 N 192.153 1.28127 0.917671 0
M  V30 2095 C 193.401 1.14825 1.66312 0
M  V30 2096 C 193.722 -0.304379 1.9261 0
M  V30 2097 O 192.992 -1.21149 1.53947 0
M  V30 2098 H 191.572 0.421953 0.616413 0
M  V30 2099 H 194.234 1.608 1.10134 0
M  V30 2100 H 193.33 1.68489 2.62712 0
M  V30 2101 N 193.631 -1.12557 1.10312 0
M  V30 2102 C 194.88 -1.83395 0.839588 0
M  V30 2103 C 195.193 -1.84939 -0.636929 0
M  V30 2104 O 196.399 -2.51761 -1.01631 0
M  V30 2105 C 194.855 -3.29303 1.45215 0
M  V30 2106 C 194.463 -3.36122 2.96186 0
M  V30 2107 C 196.207 -4.05121 1.26796 0
M  V30 2108 C 194.114 -4.76357 3.50483 0
M  V30 2109 H 193.044 -0.687133 0.310425 0
M  V30 2110 H 195.695 -1.26746 1.32694 0
M  V30 2111 H 194.077 -3.85812 0.892469 0
M  V30 2112 H 195.251 -2.89559 3.58458 0
M  V30 2113 H 193.566 -2.73776 3.13745 0
M  V30 2114 H 196.163 -5.08668 1.64806 0
M  V30 2115 H 196.506 -4.15773 0.209409 0
M  V30 2116 H 197.039 -3.54967 1.79563 0
M  V30 2117 H 193.778 -4.70899 4.55998 0
M  V30 2118 H 193.298 -5.23377 2.92978 0
M  V30 2119 H 194.977 -5.45294 3.48228 0
M  V30 2120 N 195.109 -0.891671 -1.2995 0
M  V30 2121 C 196.056 -0.361736 -2.27948 0
M  V30 2122 C 197.026 0.551761 -1.56668 0
M  V30 2123 O 198.211 0.478736 -1.84696 0
M  V30 2124 C 195.351 0.411825 -3.42634 0
M  V30 2125 C 194.464 -0.531651 -4.28716 0
M  V30 2126 C 193.599 0.258167 -5.30572 0
M  V30 2127 C 192.638 -0.680349 -6.08307 0
M  V30 2128 N 191.775 0.0745613 -7.0206 0
M  V30 2129 H 196.615 -1.20254 -2.72659 0
M  V30 2130 H 194.152 -0.604352 -1.34112 0
M  V30 2131 H 196.11 0.876304 -4.07893 0
M  V30 2132 H 194.74 1.21715 -2.98974 0
M  V30 2133 H 193.792 -1.11463 -3.63703 0
M  V30 2134 H 195.104 -1.25038 -4.82874 0
M  V30 2135 H 194.258 0.784204 -6.0161 0
M  V30 2136 H 192.997 1.01008 -4.77126 0
M  V30 2137 H 192.002 -1.21796 -5.3614 0
M  V30 2138 H 193.227 -1.43145 -6.63842 0
M  V30 2139 H 191.173 0.808883 -6.50994 0
M  V30 2140 H 191.09 -0.584409 -7.53738 0
M  V30 2141 H 192.358 0.581123 -7.77331 0
M  V30 2142 N 196.587 1.43421 -0.653314 0
M  V30 2143 C 197.537 2.2792 0.060558 0
M  V30 2144 C 198.521 1.39906 0.794677 0
M  V30 2145 O 199.713 1.63536 0.677128 0
M  V30 2146 C 196.842 3.27603 1.0262 0
M  V30 2147 C 195.928 4.23104 0.290551 0
M  V30 2148 N 196.319 5.01031 -0.692967 0
M  V30 2149 C 194.617 4.42816 0.531984 0
M  V30 2150 C 195.318 5.70626 -1.12963 0
M  V30 2151 N 194.294 5.41617 -0.463867 0
M  V30 2152 H 198.096 2.85585 -0.694143 0
M  V30 2153 H 195.61 1.55126 -0.480602 0
M  V30 2154 H 197.607 3.86918 1.55242 0
M  V30 2155 H 196.267 2.71499 1.78096 0
M  V30 2156 H 197.278 5.0669 -1.07169 0
M  V30 2157 H 193.955 3.97782 1.26791 0
M  V30 2158 H 195.345 6.4318 -1.94343 0
M  V30 2159 N 198.065 0.39524 1.52563 0
M  V30 2160 C 198.995 -0.428384 2.29537 0
M  V30 2161 C 199.976 -1.05831 1.33169 0
M  V30 2162 O 201.161 -1.06995 1.62067 0
M  V30 2163 C 198.291 -1.55274 3.10656 0
M  V30 2164 C 197.245 -1.04855 4.14957 0
M  V30 2165 C 196.571 -2.26543 4.84337 0
M  V30 2166 C 197.871 -0.112324 5.22179 0
M  V30 2167 H 199.565 0.213867 2.98635 0
M  V30 2168 H 197.111 0.104298 1.43622 0
M  V30 2169 H 199.064 -2.1358 3.63265 0
M  V30 2170 H 197.788 -2.22266 2.39302 0
M  V30 2171 H 196.447 -0.487985 3.63338 0
M  V30 2172 H 196.095 -2.92059 4.09525 0
M  V30 2173 H 195.795 -1.93466 5.54837 0
M  V30 2174 H 197.319 -2.85481 5.39753 0
M  V30 2175 H 198.733 -0.603752 5.70112 0
M  V30 2176 H 197.13 0.128968 5.99961 0
M  V30 2177 H 198.2 0.837052 4.77621 0
M  V30 2178 N 199.544 -1.57102 0.125237 0
M  V30 2179 C 200.955 -1.82384 -0.399142 0
M  V30 2180 C 201.306 -1.04276 -1.66195 0
M  V30 2181 O 200.431 -0.281269 -2.14564 0
M  V30 2182 C 201.026 -3.30821 -0.730932 0
M  V30 2183 C 199.585 -3.56762 -1.19992 0
M  V30 2184 C 198.732 -2.7649 -0.211792 0
M  V30 2185 H 201.683 -1.54786 0.350277 0
M  V30 2186 H 201.704 -3.4579 -1.58775 0
M  V30 2187 H 201.216 -3.87643 0.188345 0
M  V30 2188 H 199.317 -3.05305 -2.13588 0
M  V30 2189 H 199.43 -4.65317 -1.14093 0
M  V30 2190 H 197.794 -2.4489 -0.700085 0
M  V30 2191 H 198.577 -3.36073 0.700691 0
M  V30 2192 N 201.022 0.148545 -1.56898 0
M  V30 2193 C 202.299 0.890019 -1.74178 0
M  V30 2194 C 202.679 1.99407 -0.692839 0
M  V30 2195 O 202.027 2.26671 0.288505 0
M  V30 2196 C 202.237 1.43389 -3.18183 0
M  V30 2197 C 203.585 1.89791 -3.79822 0
M  V30 2198 O 204.609 1.53134 -3.21603 0
M  V30 2199 O 203.468 2.57387 -4.82093 0
M  V30 2200 H 200.562 0.420496 -0.712118 0
M  V30 2201 H 203.108 0.134591 -1.69165 0
M  V30 2202 H 201.88 0.640383 -3.86024 0
M  V30 2203 H 201.503 2.25287 -3.27615 0
M  V30 2204 N 202.5 1.5196 0.417844 0
M  V30 2205 C 203.746 1.65836 1.16732 0
M  V30 2206 C 204.079 0.382881 1.90388 0
M  V30 2207 O 203.354 -0.618368 1.84408 0
M  V30 2208 C 203.637 2.87466 2.16876 0
M  V30 2209 C 203.49 4.25041 1.47174 0
M  V30 2210 C 204.809 3.04613 3.17646 0
M  V30 2211 H 201.928 0.603515 0.423011 0
M  V30 2212 H 204.57 1.84494 0.454105 0
M  V30 2213 H 202.72 2.71689 2.777 0
M  V30 2214 H 204.392 4.52527 0.895376 0
M  V30 2215 H 202.635 4.26843 0.773806 0
M  V30 2216 H 203.306 5.06176 2.20204 0
M  V30 2217 H 205.782 3.1923 2.66892 0
M  V30 2218 H 204.658 3.91247 3.8499 0
M  V30 2219 H 204.919 2.17541 3.84874 0
M  V30 2220 N 203.978 -0.674533 1.42435 0
M  V30 2221 C 204.928 -1.7807 1.4239 0
M  V30 2222 C 205.912 -1.58169 0.295202 0
M  V30 2223 O 207.104 -1.68643 0.537449 0
M  V30 2224 C 204.233 -3.16532 1.32901 0
M  V30 2225 C 203.319 -3.42055 2.50717 0
M  V30 2226 N 203.71 -3.38162 3.76139 0
M  V30 2227 C 202.008 -3.72692 2.44983 0
M  V30 2228 C 202.709 -3.63177 4.54398 0
M  V30 2229 N 201.685 -3.83954 3.84812 0
M  V30 2230 H 205.487 -1.73454 2.37257 0
M  V30 2231 H 203.001 -0.875381 1.36788 0
M  V30 2232 H 204.998 -3.958 1.30951 0
M  V30 2233 H 203.658 -3.22345 0.390363 0
M  V30 2234 H 204.669 -3.18057 4.0873 0
M  V30 2235 H 201.346 -3.85749 1.59699 0
M  V30 2236 H 202.736 -3.66125 5.63384 0
M  V30 2237 N 205.456 -1.28612 -0.910864 0
M  V30 2238 C 206.403 -1.12786 -2.01365 0
M  V30 2239 C 207.373 -0.024201 -1.66082 0
M  V30 2240 O 208.558 -0.189667 -1.89855 0
M  V30 2241 C 205.698 -0.798743 -3.35729 0
M  V30 2242 C 204.811 -1.98173 -3.83864 0
M  V30 2243 C 203.946 -1.59298 -5.06752 0
M  V30 2244 C 202.985 -2.74245 -5.47226 0
M  V30 2245 N 202.122 -2.35842 -6.61304 0
M  V30 2246 H 206.962 -2.07142 -2.14234 0
M  V30 2247 H 204.499 -1.03093 -1.0493 0
M  V30 2248 H 206.457 -0.588662 -4.13026 0
M  V30 2249 H 205.087 0.10789 -3.2262 0
M  V30 2250 H 204.139 -2.30386 -3.02699 0
M  V30 2251 H 205.451 -2.84343 -4.09818 0
M  V30 2252 H 204.605 -1.34513 -5.916 0
M  V30 2253 H 203.344 -0.702618 -4.82612 0
M  V30 2254 H 202.349 -2.99725 -4.60918 0
M  V30 2255 H 203.574 -3.63928 -5.73353 0
M  V30 2256 H 201.52 -1.49279 -6.38789 0
M  V30 2257 H 201.437 -3.15546 -6.86998 0
M  V30 2258 H 202.705 -2.14348 -7.4945 0
M  V30 2259 N 206.934 1.1197 -1.10907 0
M  V30 2260 C 208.183 1.82947 -0.849302 0
M  V30 2261 C 208.496 1.85275 0.627112 0
M  V30 2262 O 209.702 2.52296 1.00295 0
M  V30 2263 C 208.158 3.28529 -1.46959 0
M  V30 2264 C 207.766 3.34546 -2.97965 0
M  V30 2265 C 209.51 4.04443 -1.28942 0
M  V30 2266 C 207.417 4.74491 -3.53004 0
M  V30 2267 H 206.347 0.685477 -0.314065 0
M  V30 2268 H 208.998 1.2604 -1.33365 0
M  V30 2269 H 207.38 3.85333 -0.912917 0
M  V30 2270 H 208.554 2.87654 -3.59989 0
M  V30 2271 H 206.869 2.72108 -3.15192 0
M  V30 2272 H 209.466 5.07787 -1.67502 0
M  V30 2273 H 209.809 4.15656 -0.231456 0
M  V30 2274 H 210.342 3.5401 -1.81443 0
M  V30 2275 H 207.081 4.68474 -4.58489 0
M  V30 2276 H 206.601 5.21816 -2.9575 0
M  V30 2277 H 208.28 5.4344 -3.51115 0
M  V30 2278 N 208.412 0.89855 1.29475 0
M  V30 2279 C 209.362 0.346767 2.25348 0
M  V30 2280 C 210.346 -0.532509 1.51833 0
M  V30 2281 O 211.538 -0.374714 1.72988 0
M  V30 2282 C 208.667 -0.425681 3.40651 0
M  V30 2283 C 207.753 0.46845 4.21505 0
M  V30 2284 N 208.144 1.57514 4.80648 0
M  V30 2285 C 206.442 0.26603 4.45206 0
M  V30 2286 C 207.143 2.12889 5.41344 0
M  V30 2287 N 206.119 1.42208 5.24669 0
M  V30 2288 H 209.921 1.19219 2.68634 0
M  V30 2289 H 207.435 0.749473 1.44072 0
M  V30 2290 H 209.432 -0.837716 4.08397 0
M  V30 2291 H 208.092 -1.26838 2.98902 0
M  V30 2292 H 209.103 1.95789 4.79465 0
M  V30 2293 H 205.78 -0.538394 4.14014 0
M  V30 2294 H 207.17 3.05901 5.98226 0
M  V30 2295 N 209.89 -1.43072 0.660911 0
M  V30 2296 C 211.115 -2.06584 0.183805 0
M  V30 2297 C 211.54 -1.49257 -1.14472 0
M  V30 2298 O 210.898 -0.605528 -1.70889 0
M  V30 2299 C 210.946 -3.60418 0.114434 0
M  V30 2300 O 210.05 -4.01981 -0.921137 0
M  V30 2301 H 209.391 -0.656669 0.0983994 0
M  V30 2302 H 211.921 -1.83447 0.906006 0
M  V30 2303 H 211.931 -4.07946 -0.0663394 0
M  V30 2304 H 210.606 -4.01519 1.08422 0
M  V30 2305 H 209.183 -3.66029 -0.71253 0
M  V30 2306 N 211.368 -0.403325 -1.52352 0
M  V30 2307 C 212.298 0.416205 -2.29761 0
M  V30 2308 C 213.279 1.05123 -1.33728 0
M  V30 2309 O 214.464 1.06134 -1.62632 0
M  V30 2310 C 211.594 1.53624 -3.11475 0
M  V30 2311 C 210.548 1.02653 -4.15507 0
M  V30 2312 C 209.874 2.23971 -4.85532 0
M  V30 2313 C 211.174 0.08463 -5.22231 0
M  V30 2314 H 212.868 -0.229701 -2.98518 0
M  V30 2315 H 210.414 -0.111913 -1.43564 0
M  V30 2316 H 212.367 2.1165 -3.64393 0
M  V30 2317 H 211.091 2.20994 -2.40477 0
M  V30 2318 H 209.75 0.46871 -3.63591 0
M  V30 2319 H 209.398 2.89883 -4.11068 0
M  V30 2320 H 209.098 1.90521 -5.55856 0
M  V30 2321 H 210.622 2.82614 -5.41259 0
M  V30 2322 H 212.036 0.573509 -5.70424 0
M  V30 2323 H 210.433 -0.160783 -5.99885 0
M  V30 2324 H 211.503 -0.86237 -4.7717 0
M  V30 2325 N 212.846 1.57033 -0.133567 0
M  V30 2326 C 213.778 2.13176 0.841944 0
M  V30 2327 C 214.791 1.07794 1.22001 0
M  V30 2328 O 215.98 1.35117 1.16643 0
M  V30 2329 C 213.08 2.62847 2.13926 0
M  V30 2330 C 212.253 3.92486 1.93064 0
M  V30 2331 C 211.312 4.27605 3.0666 0
M  V30 2332 O 210.338 4.96168 2.78937 0
M  V30 2333 N 211.54 3.861 4.33483 0
M  V30 2334 H 214.305 2.97503 0.362192 0
M  V30 2335 H 211.866 1.61821 0.05042 0
M  V30 2336 H 213.858 2.83363 2.88942 0
M  V30 2337 H 212.428 1.83319 2.53205 0
M  V30 2338 H 211.648 3.80732 1.02159 0
M  V30 2339 H 212.936 4.77225 1.76447 0
M  V30 2340 H 212.334 3.30828 4.58878 0
M  V30 2341 H 210.891 4.11694 5.05323 0
M  V30 2342 N 214.325 -0.140222 1.56975 0
M  V30 2343 C 215.272 -1.17292 1.98774 0
M  V30 2344 C 216.242 -1.4232 0.856408 0
M  V30 2345 O 217.427 -1.54541 1.119 0
M  V30 2346 C 214.567 -2.49973 2.37923 0
M  V30 2347 C 213.68 -2.32062 3.64378 0
M  V30 2348 C 212.815 -3.57825 3.926 0
M  V30 2349 C 211.854 -3.3498 5.12303 0
M  V30 2350 N 210.991 -4.52891 5.36502 0
M  V30 2351 H 215.831 -0.809472 2.86795 0
M  V30 2352 H 213.368 -0.388237 1.41884 0
M  V30 2353 H 215.326 -3.27346 2.58652 0
M  V30 2354 H 213.956 -2.84252 1.52972 0
M  V30 2355 H 213.008 -1.45711 3.51387 0
M  V30 2356 H 214.32 -2.11145 4.51906 0
M  V30 2357 H 213.474 -4.43624 4.13863 0
M  V30 2358 H 212.213 -3.81753 3.03506 0
M  V30 2359 H 211.218 -2.4757 4.90906 0
M  V30 2360 H 212.443 -3.12444 6.02956 0
M  V30 2361 H 210.389 -4.76979 4.50363 0
M  V30 2362 H 210.306 -4.35001 6.18312 0
M  V30 2363 H 211.574 -5.39884 5.62268 0
M  V30 2364 N 215.803 -1.52179 -0.40978 0
M  V30 2365 C 217.049 -1.66453 -1.15851 0
M  V30 2366 C 217.382 -0.392972 -1.90182 0
M  V30 2367 O 216.657 0.608579 -1.84734 0
M  V30 2368 C 216.94 -2.88612 -2.15349 0
M  V30 2369 C 216.793 -4.25815 -1.44918 0
M  V30 2370 C 218.112 -3.06294 -3.16026 0
M  V30 2371 H 215.231 -0.60575 -0.419805 0
M  V30 2372 H 217.873 -1.84732 -0.444314 0
M  V30 2373 H 216.023 -2.73158 -2.76255 0
M  V30 2374 H 217.695 -4.52995 -0.871365 0
M  V30 2375 H 215.938 -4.27247 -0.751159 0
M  V30 2376 H 216.609 -5.07337 -2.17516 0
M  V30 2377 H 219.085 -3.20641 -2.65195 0
M  V30 2378 H 217.961 -3.93283 -3.8291 0
M  V30 2379 H 218.222 -2.19579 -3.83715 0
M  V30 2380 N 217.281 0.66697 -1.42791 0
M  V30 2381 C 218.211 1.79218 -1.49677 0
M  V30 2382 C 219.192 1.66405 -0.352623 0
M  V30 2383 O 220.377 1.85708 -0.567993 0
M  V30 2384 C 217.507 3.17565 -1.40605 0
M  V30 2385 C 216.461 3.45124 -2.53127 0
M  V30 2386 C 215.787 4.83127 -2.29112 0
M  V30 2387 C 217.087 3.41236 -3.95418 0
M  V30 2388 H 218.781 1.73713 -2.43853 0
M  V30 2389 H 216.327 0.83432 -1.17367 0
M  V30 2390 H 218.28 3.96022 -1.44029 0
M  V30 2391 H 217.004 3.23767 -0.429271 0
M  V30 2392 H 215.663 2.69031 -2.49034 0
M  V30 2393 H 215.311 4.85988 -1.29709 0
M  V30 2394 H 215.011 5.02528 -3.04531 0
M  V30 2395 H 216.535 5.63859 -2.34297 0
M  V30 2396 H 217.949 4.09651 -4.01073 0
M  V30 2397 H 216.346 3.72173 -4.70752 0
M  V30 2398 H 217.416 2.39665 -4.21532 0
M  V30 2399 N 218.759 1.29093 0.90403 0
M  V30 2400 C 219.689 1.16401 2.02418 0
M  V30 2401 C 220.67 0.0593085 1.69997 0
M  V30 2402 O 221.855 0.238021 1.92736 0
M  V30 2403 C 218.985 0.835233 3.37107 0
M  V30 2404 C 217.939 1.89578 3.83724 0
M  V30 2405 C 217.265 1.42041 5.15489 0
M  V30 2406 C 218.565 3.30394 4.04521 0
M  V30 2407 H 220.259 2.10109 2.13295 0
M  V30 2408 H 217.805 1.01157 1.02486 0
M  V30 2409 H 219.758 0.733169 4.14973 0
M  V30 2410 H 218.482 -0.137543 3.2631 0
M  V30 2411 H 217.141 1.98715 3.08071 0
M  V30 2412 H 216.789 0.436426 5.01103 0
M  V30 2413 H 216.489 2.12964 5.4765 0
M  V30 2414 H 218.013 1.33176 5.959 0
M  V30 2415 H 219.427 3.24123 4.72882 0
M  V30 2416 H 217.824 3.99237 4.48029 0
M  V30 2417 H 218.894 3.73692 3.09002 0
M  V30 2418 N 220.237 -1.11381 1.11499 0
M  V30 2419 C 221.514 -1.7955 0.775965 0
M  V30 2420 C 221.894 -1.97859 -0.73588 0
M  V30 2421 O 221.242 -1.56376 -1.66609 0
M  V30 2422 C 221.452 -3.13196 1.53977 0
M  V30 2423 C 222.8 -3.88227 1.71944 0
M  V30 2424 O 223.824 -3.22887 1.50407 0
M  V30 2425 O 222.683 -5.05477 2.07738 0
M  V30 2426 H 219.777 -0.777728 0.28119 0
M  V30 2427 H 222.323 -1.18118 1.21845 0
M  V30 2428 H 221.095 -2.95229 2.56818 0
M  V30 2429 H 220.718 -3.82342 1.09088 0
M  V30 2430 N 221.715 -0.905404 -1.28997 0
M  V30 2431 C 222.964 -0.530191 -1.94607 0
M  V30 2432 C 223.277 0.929185 -1.72121 0
M  V30 2433 O 224.483 1.41218 -2.31883 0
M  V30 2434 C 222.939 -0.897333 -3.48534 0
M  V30 2435 C 222.547 -2.37587 -3.79811 0
M  V30 2436 C 224.291 -0.592304 -4.20347 0
M  V30 2437 C 222.198 -2.68357 -5.27009 0
M  V30 2438 H 221.128 -0.194558 -0.728466 0
M  V30 2439 H 223.779 -1.10318 -1.46636 0
M  V30 2440 H 222.161 -0.253214 -3.9519 0
M  V30 2441 H 223.335 -3.06602 -3.43994 0
M  V30 2442 H 221.65 -2.6505 -3.2115 0
M  V30 2443 H 224.247 -0.798975 -5.28697 0
M  V30 2444 H 224.59 0.469474 -4.13644 0
M  V30 2445 H 225.123 -1.19452 -3.79442 0
M  V30 2446 H 221.862 -3.73355 -5.38782 0
M  V30 2447 H 221.382 -2.03971 -5.64053 0
M  V30 2448 H 223.061 -2.54922 -5.94663 0
M  V30 2449 N 223.193 1.4272 -0.668489 0
M  V30 2450 C 224.125 2.2914 0.052613 0
M  V30 2451 C 225.138 1.43339 0.771857 0
M  V30 2452 O 226.327 1.67123 0.627067 0
M  V30 2453 C 223.427 3.20618 1.09804 0
M  V30 2454 C 222.6 4.35039 0.45389 0
M  V30 2455 C 221.659 5.07282 1.39825 0
M  V30 2456 O 220.685 5.62024 0.900978 0
M  V30 2457 N 221.887 5.12206 2.73176 0
M  V30 2458 H 224.652 2.91668 -0.689209 0
M  V30 2459 H 222.213 1.53577 -0.512422 0
M  V30 2460 H 224.205 3.65815 1.73094 0
M  V30 2461 H 222.775 2.59585 1.74167 0
M  V30 2462 H 221.995 3.92567 -0.358396 0
M  V30 2463 H 223.283 5.088 0.00486972 0
M  V30 2464 H 222.681 4.6913 3.16122 0
M  V30 2465 H 221.238 5.61069 3.31729 0
M  V30 2466 N 224.671 0.411399 1.52136 0
M  V30 2467 C 225.948 -0.222308 1.94333 0
M  V30 2468 C 226.328 -1.6242 1.34844 0
M  V30 2469 O 225.676 -2.22384 0.525145 0
M  V30 2470 C 225.886 -0.226345 3.48265 0
M  V30 2471 C 227.234 -0.444592 4.22266 0
M  V30 2472 O 228.258 -0.305602 3.54887 0
M  V30 2473 O 227.117 -0.718749 5.41753 0
M  V30 2474 H 224.211 -0.143907 0.814383 0
M  V30 2475 H 226.757 0.467506 1.63133 0
M  V30 2476 H 225.529 0.75475 3.83952 0
M  V30 2477 H 225.152 -0.960163 3.85832 0
M  V30 2478 N 226.149 -1.5696 0.141893 0
M  V30 2479 C 227.097 -2.17784 -0.816874 0
M  V30 2480 C 228.091 -1.1334 -1.25899 0
M  V30 2481 O 229.297 -1.316 -1.22806 0
M  V30 2482 H 225.672 -0.697278 -0.281615 0
M  V30 2483 H 227.643 -2.97087 -0.279621 0
M  V30 2484 C 226.392 -2.80983 -2.04802 0
M  V30 2485 H 225.715 -3.61062 -1.7168 0
M  V30 2486 H 227.155 -3.2705 -2.69841 0
M  V30 2487 C 225.614 -1.79228 -2.8527 0
M  V30 2488 O 226.144 -1.25962 -3.8144 0
M  V30 2489 N 224.35 -1.48647 -2.49704 0
M  V30 2490 H 223.897 -1.92155 -1.71564 0
M  V30 2491 H 223.855 -0.808115 -3.03837 0
M  V30 2492 N 227.627 0.131896 -1.57047 0
M  V30 2493 C 228.876 0.84044 -1.83356 0
M  V30 2494 C 229.189 1.81646 -0.725535 0
M  V30 2495 O 230.395 2.57025 -0.874659 0
M  V30 2496 C 228.851 1.54528 -3.25037 0
M  V30 2497 C 228.459 0.610902 -4.43815 0
M  V30 2498 C 230.203 2.23972 -3.60606 0
M  V30 2499 C 228.11 1.31823 -5.76521 0
M  V30 2500 H 227.04 0.317599 -0.683847 0
M  V30 2501 H 229.691 0.0931561 -1.83263 0
M  V30 2502 H 228.073 2.33873 -3.19561 0
M  V30 2503 H 229.247 -0.148407 -4.60561 0
M  V30 2504 H 227.562 0.0241016 -4.16393 0
M  V30 2505 H 230.159 2.77558 -4.57018 0
M  V30 2506 H 230.502 3.01173 -2.87403 0
M  V30 2507 H 231.035 1.51529 -3.6781 0
M  V30 2508 H 227.774 0.587771 -6.52859 0
M  V30 2509 H 227.294 2.04987 -5.63685 0
M  V30 2510 H 228.973 1.855 -6.19838 0
M  V30 2511 N 229.106 1.52395 0.401703 0
M  V30 2512 C 230.054 1.7689 1.51039 0
M  V30 2513 C 231.048 0.636298 1.56996 0
M  V30 2514 O 232.254 0.818507 1.60314 0
M  V30 2515 H 228.629 0.559502 0.502456 0
M  V30 2516 H 230.6 2.69757 1.27568 0
M  V30 2517 C 229.349 1.94331 2.88324 0
M  V30 2518 H 228.672 2.80905 2.84486 0
M  V30 2519 H 230.112 2.15466 3.65172 0
M  V30 2520 C 228.571 0.712396 3.29282 0
M  V30 2521 O 229.101 -0.116218 4.01532 0
M  V30 2522 N 227.307 0.546154 2.85422 0
M  V30 2523 H 226.854 1.22156 2.26794 0
M  V30 2524 H 226.812 -0.276113 3.13185 0
M  V30 2525 N 230.584 -0.659388 1.43143 0
M  V30 2526 C 231.833 -1.41518 1.43721 0
M  V30 2527 C 232.146 -1.95499 0.0628176 0
M  V30 2528 O 233.352 -2.71446 -0.0539683 0
M  V30 2529 C 231.808 -2.5608 2.52885 0
M  V30 2530 C 231.416 -2.08733 3.96402 0
M  V30 2531 C 233.16 -3.3349 2.62649 0
M  V30 2532 C 231.067 -3.20469 4.97045 0
M  V30 2533 H 229.997 -0.531705 0.534608 0
M  V30 2534 H 232.648 -0.712343 1.69109 0
M  V30 2535 H 231.03 -3.28805 2.20688 0
M  V30 2536 H 232.204 -1.43059 4.3803 0
M  V30 2537 H 230.519 -1.44219 3.90627 0
M  V30 2538 H 233.116 -4.16734 3.35017 0
M  V30 2539 H 233.459 -3.8111 1.67513 0
M  V30 2540 H 233.992 -2.67842 2.94118 0
M  V30 2541 H 230.731 -2.77824 5.93712 0
M  V30 2542 H 230.251 -3.84874 4.60034 0
M  V30 2543 H 231.93 -3.85698 5.19467 0
M  V30 2544 N 232.062 -1.29571 -0.897171 0
M  V30 2545 C 233.012 -1.11539 -1.98855 0
M  V30 2546 C 233.996 -0.0340716 -1.60864 0
M  V30 2547 O 235.188 -0.256062 -1.75138 0
M  V30 2548 C 232.317 -0.796603 -3.3393 0
M  V30 2549 C 231.403 -1.91758 -3.78272 0
M  V30 2550 N 231.794 -3.16143 -3.94826 0
M  V30 2551 C 230.092 -1.81119 -4.07568 0
M  V30 2552 C 230.793 -3.89293 -4.32233 0
M  V30 2553 N 229.769 -3.17255 -4.41419 0
M  V30 2554 H 233.571 -2.05894 -2.09726 0
M  V30 2555 H 231.085 -1.20732 -1.08616 0
M  V30 2556 H 233.082 -0.648459 -4.11826 0
M  V30 2557 H 231.742 0.139003 -3.24402 0
M  V30 2558 H 232.753 -3.5157 -3.80288 0
M  V30 2559 H 229.43 -0.948461 -4.06584 0
M  V30 2560 H 230.82 -4.9635 -4.52865 0
M  V30 2561 N 233.54 1.10788 -1.12088 0
M  V30 2562 C 234.768 1.86461 -0.896651 0
M  V30 2563 C 235.183 1.80492 0.553912 0
M  V30 2564 O 234.54 1.19102 1.38278 0
M  V30 2565 C 234.591 3.35006 -1.35843 0
M  V30 2566 O 234.312 3.40866 -2.75213 0
M  V30 2567 C 235.813 4.27565 -1.1706 0
M  V30 2568 H 233.033 0.589425 -0.320654 0
M  V30 2569 H 235.577 1.40076 -1.48993 0
M  V30 2570 H 233.732 3.7887 -0.808458 0
M  V30 2571 H 234.146 4.33411 -2.9539 0
M  V30 2572 H 235.62 5.30007 -1.54263 0
M  V30 2573 H 236.097 4.3906 -0.110814 0
M  V30 2574 H 236.703 3.89501 -1.70789 0
M  V30 2575 N 235.018 0.912232 1.28515 0
M  V30 2576 C 236.267 0.540504 1.94323 0
M  V30 2577 C 236.58 -0.920044 1.72611 0
M  V30 2578 O 237.786 -1.39986 2.32629 0
M  V30 2579 C 236.242 0.915803 3.48053 0
M  V30 2580 C 235.85 2.39598 3.78546 0
M  V30 2581 C 237.594 0.614588 4.20027 0
M  V30 2582 C 235.501 2.71148 5.25578 0
M  V30 2583 H 234.431 0.198418 0.727424 0
M  V30 2584 H 237.082 1.11094 1.46049 0
M  V30 2585 H 235.464 0.274168 3.9505 0
M  V30 2586 H 236.638 3.08422 3.42364 0
M  V30 2587 H 234.953 2.66749 3.1974 0
M  V30 2588 H 237.55 0.827002 5.28266 0
M  V30 2589 H 237.893 -0.447531 4.13887 0
M  V30 2590 H 238.426 1.21462 3.78803 0
M  V30 2591 H 235.165 3.76207 5.36794 0
M  V30 2592 H 234.685 2.0696 5.62963 0
M  V30 2593 H 236.364 2.58072 5.93302 0
M  V30 2594 N 236.496 -1.42363 0.676048 0
M  V30 2595 C 237.406 -2.346 -0.00153389 0
M  V30 2596 C 238.422 -1.5516 -0.787485 0
M  V30 2597 O 239.598 -1.87723 -0.729521 0
M  V30 2598 C 236.663 -3.33705 -0.940298 0
M  V30 2599 C 235.724 -4.29042 -0.148739 0
M  V30 2600 C 234.957 -5.23413 -1.04279 0
M  V30 2601 O 235.18 -5.22749 -2.28232 0
M  V30 2602 O 234.114 -5.99795 -0.502925 0
M  V30 2603 H 237.94 -2.94082 0.758268 0
M  V30 2604 H 235.525 -1.42888 0.436289 0
M  V30 2605 H 237.407 -3.94586 -1.47917 0
M  V30 2606 H 236.082 -2.76695 -1.67993 0
M  V30 2607 H 234.989 -3.71571 0.43427 0
M  V30 2608 H 236.322 -4.89097 0.551805 0
M  V30 2609 N 237.974 -0.419461 -1.51915 0
M  V30 2610 C 239.39 -0.0708431 -1.59443 0
M  V30 2611 C 239.59 1.41796 -1.43164 0
M  V30 2612 O 238.646 2.18596 -1.26381 0
M  V30 2613 C 239.959 -0.574991 -2.95151 0
M  V30 2614 C 241.507 -0.533867 -3.08413 0
M  V30 2615 C 241.982 -1.01469 -4.46618 0
M  V30 2616 N 243.473 -0.971939 -4.52888 0
M  V30 2617 C 244.208 -1.31505 -5.58116 0
M  V30 2618 N 243.704 -1.73014 -6.70849 0
M  V30 2619 N 245.497 -1.23436 -5.48379 0
M  V30 2620 H 237.648 -1.38836 -1.60743 0
M  V30 2621 H 239.911 -0.570998 -0.756747 0
M  V30 2622 H 239.617 -1.61597 -3.12377 0
M  V30 2623 H 239.491 0.00979777 -3.77199 0
M  V30 2624 H 241.878 0.498086 -2.90866 0
M  V30 2625 H 241.959 -1.15484 -2.28248 0
M  V30 2626 H 241.603 -2.04502 -4.6491 0
M  V30 2627 H 241.533 -0.370433 -5.25295 0
M  V30 2628 H 244.024 -0.666893 -3.71969 0
M  V30 2629 H 244.337 -1.97479 -7.47143 0
M  V30 2630 H 242.682 -1.76926 -6.72103 0
M  V30 2631 H 245.873 -0.908869 -4.59192 0
M  V30 2632 H 246.046 -1.50506 -6.30279 0
M  V30 2633 N 239.452 1.56882 -0.150215 0
M  V30 2634 C 240.4 2.18214 0.805313 0
M  V30 2635 C 241.394 1.14006 1.25296 0
M  V30 2636 O 242.6 1.3225 1.22107 0
M  V30 2637 H 238.975 0.698762 0.277913 0
M  V30 2638 H 240.946 2.97231 0.263862 0
M  V30 2639 C 239.695 2.82065 2.03309 0
M  V30 2640 H 239.018 3.61968 1.69763 0
M  V30 2641 H 240.458 3.28477 2.68103 0
M  V30 2642 C 238.917 1.80739 2.84315 0
M  V30 2643 O 239.447 1.27983 3.80767 0
M  V30 2644 N 237.653 1.4997 2.48913 0
M  V30 2645 H 237.2 1.93062 1.70542 0
M  V30 2646 H 237.158 0.824217 3.03404 0
M  V30 2647 N 240.93 -0.123565 1.57115 0
M  V30 2648 C 242.155 -0.850398 1.89164 0
M  V30 2649 C 242.58 -1.7286 0.741688 0
M  V30 2650 O 241.938 -1.78665 -0.307958 0
M  V30 2651 C 241.986 -1.66353 3.19936 0
M  V30 2652 O 241.09 -2.77004 3.0552 0
M  V30 2653 H 240.431 -0.235454 0.620852 0
M  V30 2654 H 242.961 -0.107335 2.04318 0
M  V30 2655 H 242.971 -2.05372 3.52543 0
M  V30 2656 H 241.646 -1.01881 4.03228 0
M  V30 2657 H 240.223 -2.41221 2.84371 0
M  V30 2658 N 242.408 -1.52605 -0.393616 0
M  V30 2659 C 243.655 -1.67424 -1.1391 0
M  V30 2660 C 243.983 -0.411859 -1.90089 0
M  V30 2661 O 243.238 0.605626 -1.86093 0
M  V30 2662 C 243.537 -2.85721 -2.14705 0
M  V30 2663 C 243.203 -4.23342 -1.55218 0
M  V30 2664 C 241.865 -4.60771 -1.3872 0
M  V30 2665 C 244.217 -5.09041 -1.11924 0
M  V30 2666 C 241.545 -5.81563 -0.774689 0
M  V30 2667 C 243.897 -6.30452 -0.520853 0
M  V30 2668 C 242.561 -6.66617 -0.343134 0
M  V30 2669 H 241.831 -0.612648 -0.416826 0
M  V30 2670 H 244.478 -1.8674 -0.424315 0
M  V30 2671 H 242.783 -2.60803 -2.92385 0
M  V30 2672 H 244.48 -2.94382 -2.72288 0
M  V30 2673 H 241.07 -3.93855 -1.69045 0
M  V30 2674 H 245.254 -4.80695 -1.23473 0
M  V30 2675 H 240.51 -6.08196 -0.625154 0
M  V30 2676 H 244.684 -6.96175 -0.177065 0
M  V30 2677 H 242.311 -7.60083 0.133571 0
M  V30 2678 N 243.887 0.651787 -1.4349 0
M  V30 2679 C 245.133 1.41376 -1.45398 0
M  V30 2680 C 245.466 1.94041 -0.0784823 0
M  V30 2681 O 244.741 1.72379 0.900878 0
M  V30 2682 C 245.024 2.59414 -2.49752 0
M  V30 2683 C 244.877 2.12232 -3.96582 0
M  V30 2684 C 246.196 3.61626 -2.50827 0
M  V30 2685 H 243.315 0.512719 -0.529422 0
M  V30 2686 H 245.957 0.738796 -1.75048 0
M  V30 2687 H 244.107 3.16997 -2.246 0
M  V30 2688 H 245.779 1.59639 -4.32797 0
M  V30 2689 H 244.022 1.43592 -4.09346 0
M  V30 2690 H 244.693 2.9712 -4.65214 0
M  V30 2691 H 247.169 3.13805 -2.7325 0
M  V30 2692 H 246.045 4.41766 -3.25783 0
M  V30 2693 H 246.306 4.14314 -1.5426 0
M  V30 2694 N 245.365 1.30045 0.890287 0
M  V30 2695 C 246.613 1.18327 1.63839 0
M  V30 2696 C 246.934 -0.263455 1.93212 0
M  V30 2697 O 246.204 -1.17856 1.56482 0
M  V30 2698 H 244.784 0.434933 0.607324 0
M  V30 2699 H 247.446 1.631 1.06698 0
M  V30 2700 H 246.542 1.74024 2.59079 0
M  V30 2701 N 246.843 -1.10192 1.12674 0
M  V30 2702 C 247.773 -2.18652 0.819362 0
M  V30 2703 C 248.754 -1.68698 -0.217915 0
M  V30 2704 O 249.939 -1.94041 -0.0785581 0
M  V30 2705 C 247.069 -3.46202 0.27594 0
M  V30 2706 C 246.023 -4.09444 1.24656 0
M  V30 2707 C 245.349 -5.31725 0.563258 0
M  V30 2708 C 246.649 -4.52863 2.60217 0
M  V30 2709 H 248.343 -2.44622 1.72628 0
M  V30 2710 H 245.889 -1.17571 0.831451 0
M  V30 2711 H 247.842 -4.21372 0.0486149 0
M  V30 2712 H 246.566 -3.1973 -0.666331 0
M  V30 2713 H 245.225 -3.36284 1.45974 0
M  V30 2714 H 244.873 -5.0153 -0.384235 0
M  V30 2715 H 244.573 -5.74991 1.21075 0
M  V30 2716 H 246.097 -6.09624 0.34503 0
M  V30 2717 H 247.511 -5.19294 2.42913 0
M  V30 2718 H 245.908 -5.06986 3.21068 0
M  V30 2719 H 246.978 -3.65656 3.18471 0
M  V30 2720 N 248.321 -0.919034 -1.28029 0
M  V30 2721 C 249.546 -0.570357 -1.99403 0
M  V30 2722 C 249.971 0.842486 -1.68178 0
M  V30 2723 O 249.329 1.56391 -0.917141 0
M  V30 2724 C 249.377 -0.792541 -3.51783 0
M  V30 2725 O 248.481 0.145988 -4.12142 0
M  V30 2726 H 247.822 -0.220555 -0.6263 0
M  V30 2727 H 250.352 -1.23592 -1.63053 0
M  V30 2728 H 250.362 -0.704708 -4.01868 0
M  V30 2729 H 249.037 -1.82247 -3.73844 0
M  V30 2730 H 247.614 0.00897528 -3.72899 0
M  V30 2731 N 249.799 1.42003 -0.683588 0
M  V30 2732 C 251.046 2.01413 -0.209514 0
M  V30 2733 C 251.374 1.54088 1.1869 0
M  V30 2734 O 250.629 0.737591 1.81268 0
M  V30 2735 C 250.928 3.56827 -0.202357 0
M  V30 2736 C 250.594 4.23617 -1.54464 0
M  V30 2737 C 249.256 4.41577 -1.91215 0
M  V30 2738 C 251.608 4.61178 -2.42826 0
M  V30 2739 C 248.936 4.9437 -3.15935 0
M  V30 2740 C 251.288 5.15355 -3.66867 0
M  V30 2741 C 249.952 5.31528 -4.03776 0
M  V30 2742 H 249.222 0.737023 -0.0766668 0
M  V30 2743 H 251.869 1.70067 -0.880312 0
M  V30 2744 H 250.174 3.87892 0.551969 0
M  V30 2745 H 251.871 4.00588 0.181793 0
M  V30 2746 H 248.461 4.10004 -1.24877 0
M  V30 2747 H 252.645 4.46968 -2.15717 0
M  V30 2748 H 247.901 5.05076 -3.44541 0
M  V30 2749 H 252.075 5.43402 -4.35531 0
M  V30 2750 H 249.702 5.72199 -5.00492 0
M  V30 2751 N 251.277 0.427512 1.51691 0
M  V30 2752 C 252.187 -0.39527 2.31246 0
M  V30 2753 C 253.203 -1.03674 1.39742 0
M  V30 2754 O 254.379 -1.03425 1.72816 0
M  V30 2755 C 251.444 -1.48706 3.13189 0
M  V30 2756 C 250.505 -0.866743 4.20459 0
M  V30 2757 C 249.738 -1.90651 4.98486 0
M  V30 2758 O 249.961 -3.12733 4.77026 0
M  V30 2759 O 248.895 -1.5025 5.82845 0
M  V30 2760 H 252.721 0.253918 3.02637 0
M  V30 2761 H 250.306 0.190274 1.48183 0
M  V30 2762 H 252.188 -2.12047 3.64162 0
M  V30 2763 H 250.863 -2.12051 2.44573 0
M  V30 2764 H 249.77 -0.195544 3.73589 0
M  V30 2765 H 251.103 -0.276934 4.9142 0
M  V30 2766 N 252.755 -1.56801 0.158532 0
M  V30 2767 C 253.98 -2.01295 -0.499516 0
M  V30 2768 C 254.405 -1.03799 -1.56867 0
M  V30 2769 O 253.763 -0.0155162 -1.81293 0
M  V30 2770 C 253.811 -3.44469 -1.06647 0
M  V30 2771 O 252.915 -3.50012 -2.18095 0
M  V30 2772 H 252.256 -0.652884 -0.12099 0
M  V30 2773 H 254.786 -2.02958 0.258661 0
M  V30 2774 H 254.796 -3.8351 -1.39227 0
M  V30 2775 H 253.471 -4.14932 -0.283581 0
M  V30 2776 H 252.048 -3.22822 -1.86656 0
M  V30 2777 N 254.233 0.115231 -1.57178 0
M  V30 2778 C 255.479 0.82357 -1.85325 0
M  V30 2779 C 255.812 1.79349 -0.744814 0
M  V30 2780 O 255.087 1.92899 0.249024 0
M  V30 2781 C 255.37 1.57014 -3.24066 0
M  V30 2782 C 255.223 0.619565 -4.45513 0
M  V30 2783 C 256.542 2.52545 -3.60429 0
M  V30 2784 H 253.661 0.297948 -0.674089 0
M  V30 2785 H 256.303 0.0877138 -1.89797 0
M  V30 2786 H 254.453 2.19742 -3.20383 0
M  V30 2787 H 256.125 0.000837639 -4.613 0
M  V30 2788 H 254.368 -0.0686174 -4.33746 0
M  V30 2789 H 255.039 1.17866 -5.3927 0
M  V30 2790 H 257.515 1.9992 -3.64926 0
M  V30 2791 H 256.391 3.01811 -4.58477 0
M  V30 2792 H 256.652 3.35383 -2.88047 0
M  V30 2793 N 255.711 1.52812 0.385517 0
M  V30 2794 C 256.96 1.67249 1.12741 0
M  V30 2795 C 257.273 0.4205 1.91027 0
M  V30 2796 O 258.479 0.445064 2.67827 0
M  V30 2797 C 256.935 2.95583 2.05326 0
M  V30 2798 C 256.543 4.27974 1.32447 0
M  V30 2799 C 258.287 3.19386 2.7963 0
M  V30 2800 C 256.194 5.47412 2.23818 0
M  V30 2801 H 255.124 0.6231 0.424573 0
M  V30 2802 H 257.775 1.79309 0.389924 0
M  V30 2803 H 256.157 2.77277 2.82725 0
M  V30 2804 H 257.331 4.56844 0.602495 0
M  V30 2805 H 255.646 4.10459 0.700885 0
M  V30 2806 H 258.243 4.05801 3.48181 0
M  V30 2807 H 258.586 2.34604 3.43899 0
M  V30 2808 H 259.119 3.38274 2.09322 0
M  V30 2809 H 255.858 6.34612 1.64157 0
M  V30 2810 H 255.378 5.22849 2.93921 0
M  V30 2811 H 257.057 5.81423 2.83824 0
M  V30 2812 N 257.189 -0.644168 1.43834 0
M  V30 2813 C 258.119 -1.76814 1.52509 0
M  V30 2814 C 259.1 -1.65823 0.379052 0
M  V30 2815 O 260.285 -1.84781 0.597466 0
M  V30 2816 C 257.415 -3.15288 1.4564 0
M  V30 2817 C 256.369 -3.41053 2.58586 0
M  V30 2818 C 255.695 -4.79421 2.36769 0
M  V30 2819 C 256.995 -3.34902 4.00797 0
M  V30 2820 H 258.689 -1.69812 2.46586 0
M  V30 2821 H 256.235 -0.815542 1.1868 0
M  V30 2822 H 258.188 -3.93681 1.50311 0
M  V30 2823 H 256.912 -3.23043 0.480725 0
M  V30 2824 H 255.571 -2.65035 2.53282 0
M  V30 2825 H 255.219 -4.83863 1.37424 0
M  V30 2826 H 254.919 -4.9762 3.12487 0
M  V30 2827 H 256.443 -5.6006 2.43238 0
M  V30 2828 H 257.857 -4.03218 4.07539 0
M  V30 2829 H 256.254 -3.64637 4.76613 0
M  V30 2830 H 257.324 -2.32928 4.25291 0
M  V30 2831 N 258.668 -1.30515 -0.883378 0
M  V30 2832 C 259.914 -1.20617 -1.63778 0
M  V30 2833 C 260.269 0.236469 -1.90941 0
M  V30 2834 O 259.562 1.16596 -1.52039 0
M  V30 2835 C 259.756 -1.96994 -2.98209 0
M  V30 2836 C 259.585 -3.48537 -2.84169 0
M  V30 2837 C 258.355 -4.17893 -2.84067 0
M  V30 2838 C 260.553 -4.43738 -2.60001 0
M  V30 2839 N 258.535 -5.55685 -2.60936 0
M  V30 2840 C 259.906 -5.69105 -2.46007 0
M  V30 2841 C 261.961 -4.33316 -2.45239 0
M  V30 2842 C 260.664 -6.8523 -2.18752 0
M  V30 2843 C 262.69 -5.4921 -2.19369 0
M  V30 2844 C 262.052 -6.73558 -2.06153 0
M  V30 2845 H 258.151 -0.496434 -0.604216 0
M  V30 2846 H 260.735 -1.64544 -1.04083 0
M  V30 2847 H 258.906 -1.55455 -3.55933 0
M  V30 2848 H 260.638 -1.79225 -3.62851 0
M  V30 2849 H 257.393 -3.69739 -2.95956 0
M  V30 2850 H 257.817 -6.28199 -2.52378 0
M  V30 2851 H 262.459 -3.37856 -2.54191 0
M  V30 2852 H 260.177 -7.80729 -2.08537 0
M  V30 2853 H 263.763 -5.43054 -2.08766 0
M  V30 2854 H 262.643 -7.61721 -1.86416 0
M  V30 2855 N 260.146 1.09593 -1.13257 0
M  V30 2856 C 261.076 2.18214 -0.830946 0
M  V30 2857 C 262.057 1.68812 0.208966 0
M  V30 2858 O 263.242 1.9408 0.0682666 0
M  V30 2859 C 260.372 3.46051 -0.294296 0
M  V30 2860 C 259.326 4.08778 -1.26826 0
M  V30 2861 C 258.652 5.31419 -0.591449 0
M  V30 2862 C 259.952 4.51476 -2.62615 0
M  V30 2863 H 261.646 2.43703 -1.73923 0
M  V30 2864 H 259.192 1.17128 -0.837675 0
M  V30 2865 H 261.145 4.2134 -0.0709606 0
M  V30 2866 H 259.869 3.20079 0.649366 0
M  V30 2867 H 258.528 3.35505 -1.47756 0
M  V30 2868 H 258.176 5.01727 0.357633 0
M  V30 2869 H 257.876 5.74341 -1.24123 0
M  V30 2870 H 259.4 6.09433 -0.377355 0
M  V30 2871 H 260.814 5.17999 -2.45663 0
M  V30 2872 H 259.211 5.05277 -3.23752 0
M  V30 2873 H 260.281 3.63962 -3.20406 0
M  V30 2874 N 261.624 0.925811 1.2754 0
M  V30 2875 C 262.572 0.413897 2.28888 0
M  V30 2876 C 263.566 -0.500779 1.61829 0
M  V30 2877 O 264.772 -0.38069 1.75928 0
M  V30 2878 H 261.147 0.115274 0.743112 0
M  V30 2879 H 263.118 1.28151 2.69481 0
M  V30 2880 C 261.867 -0.319792 3.46226 0
M  V30 2881 H 261.19 0.374846 3.98039 0
M  V30 2882 H 262.63 -0.642435 4.19105 0
M  V30 2883 C 261.089 -1.53209 3.00048 0
M  V30 2884 O 261.619 -2.6309 3.03557 0
M  V30 2885 N 259.825 -1.38326 2.55566 0
M  V30 2886 H 259.372 -0.489292 2.5291 0
M  V30 2887 H 259.33 -2.19564 2.25031 0
M  V30 2888 N 263.102 -1.41638 0.69111 0
M  V30 2889 C 264.049 -2.30789 0.0229705 0
M  V30 2890 C 265.019 -1.46863 -0.775911 0
M  V30 2891 O 266.204 -1.75661 -0.74485 0
M  V30 2892 C 263.344 -3.32868 -0.910666 0
M  V30 2893 C 262.457 -4.31875 -0.103874 0
M  V30 2894 C 261.592 -5.21024 -1.03475 0
M  V30 2895 C 260.631 -6.11702 -0.220598 0
M  V30 2896 N 259.768 -6.93349 -1.10504 0
M  V30 2897 H 264.608 -2.87366 0.788978 0
M  V30 2898 H 262.145 -1.41535 0.400794 0
M  V30 2899 H 264.103 -3.90596 -1.46597 0
M  V30 2900 H 262.733 -2.77851 -1.64312 0
M  V30 2901 H 261.785 -3.76131 0.568285 0
M  V30 2902 H 263.097 -4.96003 0.527504 0
M  V30 2903 H 262.251 -5.83565 -1.65943 0
M  V30 2904 H 260.99 -4.57112 -1.69999 0
M  V30 2905 H 259.995 -5.48215 0.417187 0
M  V30 2906 H 261.22 -6.77668 0.440784 0
M  V30 2907 H 259.166 -6.3205 -1.75638 0
M  V30 2908 H 259.083 -7.54146 -0.529125 0
M  V30 2909 H 260.351 -7.60362 -1.71667 0
M  V30 2910 N 264.58 -0.43555 -1.51462 0
M  V30 2911 C 265.528 0.391205 -2.29287 0
M  V30 2912 C 266.522 1.02247 -1.35062 0
M  V30 2913 O 267.728 0.957646 -1.52411 0
M  V30 2914 H 264.103 0.144968 -0.737895 0
M  V30 2915 H 266.074 -0.286051 -2.97026 0
M  V30 2916 C 264.823 1.48096 -3.14583 0
M  V30 2917 H 264.146 1.00457 -3.86973 0
M  V30 2918 H 265.586 2.03273 -3.72097 0
M  V30 2919 C 264.045 2.46321 -2.29843 0
M  V30 2920 O 264.575 3.50815 -1.95682 0
M  V30 2921 N 262.781 2.17166 -1.931 0
M  V30 2922 H 262.328 1.32218 -2.21079 0
M  V30 2923 H 262.286 2.83127 -1.36698 0
M  V30 2924 N 266.058 1.56714 -0.166846 0
M  V30 2925 C 267.306 1.96358 0.478305 0
M  V30 2926 C 267.627 1.0537 1.6408 0
M  V30 2927 O 266.897 0.119154 1.95537 0
M  V30 2928 H 265.477 0.725065 0.179692 0
M  V30 2929 H 268.139 1.93329 -0.246985 0
M  V30 2930 H 267.235 3.00547 0.841292 0
M  V30 2931 N 267.536 -0.106894 1.57237 0
M  V30 2932 C 268.785 -0.811163 1.8467 0
M  V30 2933 C 269.098 -1.80469 0.754342 0
M  V30 2934 O 270.304 -2.55601 0.915439 0
M  V30 2935 C 268.76 -1.49337 3.27454 0
M  V30 2936 C 268.368 -0.540217 4.44731 0
M  V30 2937 C 270.112 -2.18206 3.64124 0
M  V30 2938 C 268.019 -1.22634 5.78545 0
M  V30 2939 H 266.949 -0.306679 0.688813 0
M  V30 2940 H 269.6 -0.0639887 1.83388 0
M  V30 2941 H 267.982 -2.2876 3.23241 0
M  V30 2942 H 269.156 0.221659 4.60267 0
M  V30 2943 H 267.471 0.042146 4.16379 0
M  V30 2944 H 270.068 -2.70253 4.61376 0
M  V30 2945 H 270.411 -2.96562 2.92158 0
M  V30 2946 H 270.944 -1.45658 3.70174 0
M  V30 2947 H 267.683 -0.483832 6.53712 0
M  V30 2948 H 267.203 -1.95993 5.66874 0
M  V30 2949 H 268.882 -1.75615 6.2271 0
M  V30 2950 N 269.014 -1.53014 -0.377408 0
M  V30 2951 C 269.946 -1.74884 -1.48149 0
M  V30 2952 C 270.959 -0.629433 -1.5014 0
M  V30 2953 O 272.148 -0.905416 -1.53833 0
M  V30 2954 C 269.248 -1.80299 -2.86959 0
M  V30 2955 C 268.421 -3.09776 -3.08801 0
M  V30 2956 C 267.48 -3.06586 -4.27658 0
M  V30 2957 O 266.506 -3.80419 -4.23403 0
M  V30 2958 N 267.708 -2.26578 -5.34455 0
M  V30 2959 H 270.473 -2.70147 -1.29771 0
M  V30 2960 H 268.034 -1.51646 -0.56703 0
M  V30 2961 H 270.026 -1.75657 -3.64591 0
M  V30 2962 H 268.596 -0.92372 -2.98641 0
M  V30 2963 H 267.816 -3.27815 -2.18931 0
M  V30 2964 H 269.104 -3.95366 -3.20255 0
M  V30 2965 H 268.502 -1.66081 -5.40771 0
M  V30 2966 H 267.059 -2.27766 -6.10709 0
M  V30 2967 N 270.492 0.636531 -1.44174 0
M  V30 2968 C 271.402 1.77754 -1.53103 0
M  V30 2969 C 272.418 1.68928 -0.417034 0
M  V30 2970 O 273.594 1.89801 -0.6736 0
M  V30 2971 C 270.659 3.14115 -1.46741 0
M  V30 2972 C 269.72 3.34612 -2.68948 0
M  V30 2973 C 268.953 4.64467 -2.6288 0
M  V30 2974 O 269.176 5.44919 -1.68581 0
M  V30 2975 O 268.11 4.87049 -3.53648 0
M  V30 2976 H 271.936 1.73174 -2.49489 0
M  V30 2977 H 269.521 0.79709 -1.2636 0
M  V30 2978 H 271.403 3.95412 -1.45696 0
M  V30 2979 H 270.078 3.19249 -0.534975 0
M  V30 2980 H 268.985 2.53014 -2.75562 0
M  V30 2981 H 270.318 3.34336 -3.61221 0
M  V30 2982 N 271.97 1.30982 0.876444 0
M  V30 2983 C 273.219 1.19658 1.62373 0
M  V30 2984 C 273.532 -0.245636 1.94052 0
M  V30 2985 O 274.738 -0.48049 2.67214 0
M  V30 2986 C 273.194 2.09433 2.92687 0
M  V30 2987 C 272.802 3.58613 2.68516 0
M  V30 2988 C 274.546 2.06893 3.70669 0
M  V30 2989 C 272.453 4.40416 3.94699 0
M  V30 2990 H 271.383 0.444268 0.609214 0
M  V30 2991 H 274.034 1.55791 0.969605 0
M  V30 2992 H 272.416 1.66191 3.59439 0
M  V30 2993 H 273.59 4.10058 2.10212 0
M  V30 2994 H 271.905 3.63063 2.03898 0
M  V30 2995 H 274.502 2.65258 4.64265 0
M  V30 2996 H 274.845 1.05448 4.02724 0
M  V30 2997 H 275.378 2.48301 3.10792 0
M  V30 2998 H 272.117 5.42591 3.67798 0
M  V30 2999 H 271.637 3.93731 4.52477 0
M  V30 3000 H 273.316 4.52294 4.62644 0
M  V30 3001 N 273.449 -1.08991 1.13837 0
M  V30 3002 C 274.399 -2.1393 0.788535 0
M  V30 3003 C 275.383 -1.59396 -0.219516 0
M  V30 3004 O 276.575 -1.76985 -0.0227557 0
M  V30 3005 C 273.704 -3.42305 0.261147 0
M  V30 3006 C 272.79 -4.03736 1.29837 0
M  V30 3007 N 273.181 -4.39659 2.50067 0
M  V30 3008 C 271.479 -4.30993 1.1472 0
M  V30 3009 C 272.18 -4.88113 3.16419 0
M  V30 3010 N 271.156 -4.85846 2.43832 0
M  V30 3011 H 274.958 -2.39516 1.70322 0
M  V30 3012 H 272.472 -1.26263 1.02134 0
M  V30 3013 H 274.469 -4.16899 -0.0077405 0
M  V30 3014 H 273.129 -3.18172 -0.647805 0
M  V30 3015 H 274.14 -4.30878 2.8734 0
M  V30 3016 H 270.817 -4.16444 0.296773 0
M  V30 3017 H 272.207 -5.25336 4.18894 0
M  V30 3018 N 274.927 -0.932562 -1.27047 0
M  V30 3019 C 275.875 -0.42603 -2.28665 0
M  V30 3020 C 276.869 0.49219 -1.62092 0
M  V30 3021 O 278.075 0.371355 -1.76128 0
M  V30 3022 H 274.45 -0.119213 -0.742491 0
M  V30 3023 H 276.421 -1.29579 -2.68797 0
M  V30 3024 C 275.17 0.301426 -3.46391 0
M  V30 3025 H 274.493 -0.39595 -3.97834 0
M  V30 3026 H 275.933 0.6202 -4.1944 0
M  V30 3027 C 274.392 1.51616 -3.00856 0
M  V30 3028 O 274.922 2.61476 -3.04948 0
M  V30 3029 N 273.128 1.36969 -2.56296 0
M  V30 3030 H 272.675 0.475873 -2.53166 0
M  V30 3031 H 272.633 2.18368 -2.26192 0
M  V30 3032 N 276.405 1.4127 -0.698611 0
M  V30 3033 C 277.645 2.03044 -0.235062 0
M  V30 3034 C 278.009 1.54146 1.14468 0
M  V30 3035 O 279.21 2.07867 1.70425 0
M  V30 3036 C 277.481 3.56192 -0.293651 0
M  V30 3037 S 279.04 4.38696 0.0954053 0
M  V30 3038 H 275.858 0.704697 -0.0944648 0
M  V30 3039 H 278.46 1.72656 -0.917064 0
M  V30 3040 H 277.164 3.89274 -1.29977 0
M  V30 3041 H 276.695 3.91285 0.407397 0
M  V30 3042 H 278.71 4.78257 1.3223 0
M  V30 3043 N 277.883 0.443576 1.51229 0
M  V30 3044 C 278.846 -0.353132 2.26463 0
M  V30 3045 C 279.846 -0.944338 1.3015 0
M  V30 3046 O 281.036 -0.817813 1.5381 0
M  V30 3047 C 278.168 -1.50023 3.06114 0
M  V30 3048 H 279.361 0.3063 2.98332 0
M  V30 3049 H 276.914 0.196902 1.55055 0
M  V30 3050 H 277.649 -2.19553 2.38677 0
M  V30 3051 H 277.434 -1.08241 3.76864 0
M  V30 3052 H 278.924 -2.06296 3.63087 0
M  V30 3053 N 279.361 -1.56624 0.175154 0
M  V30 3054 C 280.608 -1.96999 -0.468811 0
M  V30 3055 C 280.936 -1.06129 -1.62994 0
M  V30 3056 O 280.191 -0.0961771 -1.95464 0
M  V30 3057 C 280.49 -3.43419 -0.989864 0
M  V30 3058 C 280.156 -4.50866 0.0557687 0
M  V30 3059 C 278.818 -4.79975 0.343134 0
M  V30 3060 C 281.17 -5.15551 0.765308 0
M  V30 3061 C 278.498 -5.71066 1.34536 0
M  V30 3062 C 280.85 -6.07724 1.75654 0
M  V30 3063 C 279.514 -6.35199 2.05132 0
M  V30 3064 H 278.784 -0.720869 -0.17155 0
M  V30 3065 H 281.431 -1.89616 0.267924 0
M  V30 3066 H 279.736 -3.47772 -1.80449 0
M  V30 3067 H 281.433 -3.72002 -1.49719 0
M  V30 3068 H 278.023 -4.28229 -0.178381 0
M  V30 3069 H 282.207 -4.9317 0.556513 0
M  V30 3070 H 277.463 -5.90635 1.57988 0
M  V30 3071 H 281.637 -6.56912 2.31169 0
M  V30 3072 H 279.264 -7.05584 2.8294 0
M  V30 3073 N 280.839 0.0985539 -1.57292 0
M  V30 3074 C 281.787 1.1387 -2.02821 0
M  V30 3075 C 282.781 1.41676 -0.928666 0
M  V30 3076 O 283.987 1.41398 -1.11385 0
M  V30 3077 H 280.362 0.384419 -0.646317 0
M  V30 3078 H 282.333 0.728347 -2.89375 0
M  V30 3079 C 281.082 2.45166 -2.46554 0
M  V30 3080 H 280.405 2.24613 -3.3074 0
M  V30 3081 H 281.845 3.16456 -2.8219 0
M  V30 3082 C 280.304 3.09216 -1.33742 0
M  V30 3083 O 280.834 3.96163 -0.66464 0
M  V30 3084 N 279.04 2.69413 -1.08928 0
M  V30 3085 H 278.587 1.98801 -1.63817 0
M  V30 3086 H 278.545 3.12594 -0.336458 0
M  V30 3087 N 282.317 1.53212 0.369288 0
M  V30 3088 C 283.565 1.68881 1.11012 0
M  V30 3089 C 283.886 0.441285 1.89941 0
M  V30 3090 O 283.156 -0.544623 1.88177 0
M  V30 3091 H 281.736 0.622569 0.412816 0
M  V30 3092 H 284.398 1.90391 0.416802 0
M  V30 3093 H 283.494 2.54822 1.80201 0
M  V30 3094 N 283.795 -0.628877 1.44509 0
M  V30 3095 C 285.023 -1.41554 1.50897 0
M  V30 3096 C 285.438 -1.8832 0.134564 0
M  V30 3097 O 284.795 -1.60969 -0.859965 0
M  V30 3098 C 284.846 -2.63435 2.47556 0
M  V30 3099 O 284.567 -2.18619 3.79654 0
M  V30 3100 C 286.068 -3.56537 2.63431 0
M  V30 3101 H 283.288 -0.434044 0.511709 0
M  V30 3102 H 285.832 -0.768895 1.89495 0
M  V30 3103 H 283.987 -3.24187 2.12089 0
M  V30 3104 H 284.401 -2.97652 4.31861 0
M  V30 3105 H 285.875 -4.38657 3.35088 0
M  V30 3106 H 286.352 -4.05493 1.68738 0
M  V30 3107 H 286.958 -3.01653 2.9981 0
M  V30 3108 N 285.273 -1.31445 -0.869486 0
M  V30 3109 C 286.205 -1.14955 -1.98287 0
M  V30 3110 C 287.218 -0.0885037 -1.62559 0
M  V30 3111 O 288.407 -0.336044 -1.75308 0
M  V30 3112 C 285.507 -0.734255 -3.3085 0
M  V30 3113 C 284.68 -1.88042 -3.94917 0
M  V30 3114 C 283.739 -1.4511 -5.05796 0
M  V30 3115 O 282.765 -2.16082 -5.2659 0
M  V30 3116 N 283.967 -0.338763 -5.79511 0
M  V30 3117 H 286.732 -2.10856 -2.12979 0
M  V30 3118 H 284.293 -1.23786 -1.04349 0
M  V30 3119 H 286.285 -0.42975 -4.02412 0
M  V30 3120 H 284.855 0.133158 -3.12316 0
M  V30 3121 H 284.075 -2.35222 -3.1633 0
M  V30 3122 H 285.363 -2.6481 -4.34457 0
M  V30 3123 H 284.761 0.252274 -5.65137 0
M  V30 3124 H 283.318 -0.0937925 -6.51733 0
M  V30 3125 N 286.751 1.08385 -1.14413 0
M  V30 3126 C 287.681 2.17321 -0.854044 0
M  V30 3127 C 288.662 1.69024 0.191049 0
M  V30 3128 O 289.847 1.94141 0.0476779 0
M  V30 3129 C 286.977 3.45719 -0.330983 0
M  V30 3130 C 285.931 4.07409 -1.31155 0
M  V30 3131 C 285.257 5.30762 -0.64778 0
M  V30 3132 C 286.557 4.48665 -2.67388 0
M  V30 3133 H 288.251 2.41845 -1.76498 0
M  V30 3134 H 285.797 1.16233 -0.850051 0
M  V30 3135 H 287.75 4.21241 -0.115645 0
M  V30 3136 H 286.474 3.2075 0.615381 0
M  V30 3137 H 285.133 3.33919 -1.51306 0
M  V30 3138 H 284.781 5.02078 0.304398 0
M  V30 3139 H 284.481 5.72992 -1.30207 0
M  V30 3140 H 286.005 6.08998 -0.441972 0
M  V30 3141 H 287.419 5.15364 -2.51143 0
M  V30 3142 H 285.816 5.01814 -3.29093 0
M  V30 3143 H 286.886 3.60543 -3.24248 0
M  V30 3144 N 288.23 0.939286 1.26551 0
M  V30 3145 C 289.507 0.5038 1.89001 0
M  V30 3146 C 289.887 -1.01854 1.84903 0
M  V30 3147 O 289.235 -1.87773 1.30206 0
M  V30 3148 C 289.445 1.063 3.32417 0
M  V30 3149 C 290.793 1.13051 4.09273 0
M  V30 3150 O 291.817 1.01345 3.41479 0
M  V30 3151 O 290.676 1.31233 5.30509 0
M  V30 3152 H 287.77 0.163897 0.810597 0
M  V30 3153 H 290.316 1.03173 1.34735 0
M  V30 3154 H 289.088 2.10665 3.29752 0
M  V30 3155 H 288.711 0.517408 3.94219 0
M  V30 3156 N 289.708 -1.40897 0.706093 0
M  V30 3157 C 290.618 -2.3455 0.0482286 0
M  V30 3158 C 291.634 -1.56796 -0.754396 0
M  V30 3159 O 292.81 -1.89228 -0.689538 0
M  V30 3160 C 289.875 -3.35625 -0.869303 0
M  V30 3161 C 288.936 -4.29261 -0.0576994 0
M  V30 3162 C 288.169 -5.25508 -0.931531 0
M  V30 3163 O 288.392 -5.27472 -2.17092 0
M  V30 3164 O 287.326 -6.00727 -0.375587 0
M  V30 3165 H 291.152 -2.92407 0.820476 0
M  V30 3166 H 288.737 -1.4193 0.4665 0
M  V30 3167 H 290.619 -3.97635 -1.39514 0
M  V30 3168 H 289.294 -2.80196 -1.62086 0
M  V30 3169 H 288.201 -3.70566 0.512988 0
M  V30 3170 H 289.534 -4.87817 0.655426 0
M  V30 3171 N 291.186 -0.45159 -1.50991 0
M  V30 3172 C 292.116 0.342898 -2.30969 0
M  V30 3173 C 293.097 1.00815 -1.37005 0
M  V30 3174 O 294.282 1.00907 -1.65926 0
M  V30 3175 C 291.412 1.43637 -3.16205 0
M  V30 3176 C 290.366 0.893818 -4.18563 0
M  V30 3177 C 289.692 2.08411 -4.92411 0
M  V30 3178 C 290.992 -0.0815568 -5.22236 0
M  V30 3179 H 292.686 -0.324556 -2.97636 0
M  V30 3180 H 290.232 -0.157531 -1.43136 0
M  V30 3181 H 292.185 1.9995 -3.70942 0
M  V30 3182 H 290.909 2.13232 -2.47386 0
M  V30 3183 H 289.568 0.352798 -3.64898 0
M  V30 3184 H 289.216 2.76658 -4.20082 0
M  V30 3185 H 288.916 1.72741 -5.61636 0
M  V30 3186 H 290.44 2.65251 -5.49976 0
M  V30 3187 H 291.854 0.391742 -5.7196 0
M  V30 3188 H 290.251 -0.351551 -5.99069 0
M  V30 3189 H 291.321 -1.01374 -4.74185 0
M  V30 3190 N 292.664 1.56529 -0.183458 0
M  V30 3191 C 293.612 2.19873 0.758845 0
M  V30 3192 C 294.606 1.16638 1.22849 0
M  V30 3193 O 295.812 1.3481 1.19274 0
M  V30 3194 H 292.187 0.7045 0.263029 0
M  V30 3195 H 294.158 2.97724 0.200755 0
M  V30 3196 C 292.907 2.86314 1.9728 0
M  V30 3197 H 292.23 3.65487 1.62047 0
M  V30 3198 H 293.67 3.3409 2.61075 0
M  V30 3199 C 292.129 1.86729 2.80418 0
M  V30 3200 O 292.659 1.36031 3.77966 0
M  V30 3201 N 290.865 1.55216 2.45675 0
M  V30 3202 H 290.412 1.96636 1.66409 0
M  V30 3203 H 290.37 0.888388 3.01588 0
M  V30 3204 N 294.142 -0.090211 1.57342 0
M  V30 3205 C 295.072 -1.10976 2.05443 0
M  V30 3206 C 296.053 -1.41482 0.944284 0
M  V30 3207 O 297.238 -1.51428 1.21586 0
M  V30 3208 C 294.368 -2.42831 2.48295 0
M  V30 3209 C 293.322 -2.26721 3.63018 0
M  V30 3210 C 292.648 -3.63796 3.91863 0
M  V30 3211 C 293.948 -1.7037 4.93732 0
M  V30 3212 H 295.642 -0.709564 2.9087 0
M  V30 3213 H 293.188 -0.339874 1.39932 0
M  V30 3214 H 295.141 -3.14431 2.80555 0
M  V30 3215 H 293.865 -2.84795 1.59873 0
M  V30 3216 H 292.524 -1.57565 3.31012 0
M  V30 3217 H 292.172 -4.03297 3.00601 0
M  V30 3218 H 291.872 -3.53861 4.69101 0
M  V30 3219 H 293.396 -4.36855 4.26603 0
M  V30 3220 H 294.81 -2.31816 5.24342 0
M  V30 3221 H 293.207 -1.71181 5.75167 0
M  V30 3222 H 294.277 -0.663542 4.80339 0
M  V30 3223 N 295.62 -1.53406 -0.361157 0
M  V30 3224 C 296.845 -1.74024 -1.12829 0
M  V30 3225 C 297.27 -0.470069 -1.82132 0
M  V30 3226 O 296.628 0.57619 -1.719 0
M  V30 3227 C 296.676 -2.90903 -2.13091 0
M  V30 3228 O 295.78 -2.59821 -3.20261 0
M  V30 3229 H 295.121 -0.577804 -0.327168 0
M  V30 3230 H 297.651 -2.00307 -0.41693 0
M  V30 3231 H 297.661 -3.17194 -2.56616 0
M  V30 3232 H 296.336 -3.83034 -1.62042 0
M  V30 3233 H 294.913 -2.44362 -2.81677 0
M  V30 3234 N 297.098 0.621204 -1.44841 0
M  V30 3235 C 298.375 1.38 -1.38619 0
M  V30 3236 C 298.755 2.11041 -0.0498935 0
M  V30 3237 O 298.103 2.06992 0.967816 0
M  V30 3238 C 298.313 2.33817 -2.59096 0
M  V30 3239 C 299.661 2.96844 -3.03593 0
M  V30 3240 O 300.685 2.44141 -2.59371 0
M  V30 3241 O 299.544 3.92476 -3.80296 0
M  V30 3242 H 296.638 0.61811 -0.549426 0
M  V30 3243 H 299.184 0.645429 -1.56947 0
M  V30 3244 H 297.956 1.79012 -3.47952 0
M  V30 3245 H 297.579 3.14676 -2.43032 0
M  V30 3246 N 298.576 1.31904 0.862503 0
M  V30 3247 C 299.524 1.20125 1.9918 0
M  V30 3248 C 300.518 0.107824 1.69056 0
M  V30 3249 O 301.724 0.270223 1.7796 0
M  V30 3250 H 298.099 0.372148 0.65346 0
M  V30 3251 H 300.07 2.15652 2.06244 0
M  V30 3252 C 298.819 0.933099 3.34946 0
M  V30 3253 H 298.142 1.76664 3.5865 0
M  V30 3254 H 299.582 0.890892 4.14535 0
M  V30 3255 C 298.041 -0.364172 3.34926 0
M  V30 3256 O 298.571 -1.37858 3.77304 0
M  V30 3257 N 296.777 -0.383362 2.8806 0
M  V30 3258 H 296.324 0.442651 2.53768 0
M  V30 3259 H 296.282 -1.25123 2.8843 0
M  V30 3260 N 300.054 -1.07777 1.14986 0
M  V30 3261 C 301.002 -2.16964 0.838406 0
M  V30 3262 C 301.996 -1.68372 -0.186386 0
M  V30 3263 O 303.202 -1.79951 -0.0418465 0
M  V30 3264 H 299.577 -0.708006 0.253439 0
M  V30 3265 H 301.548 -2.40454 1.76704 0
M  V30 3266 C 300.297 -3.4604 0.339335 0
M  V30 3267 H 299.62 -3.83813 1.11927 0
M  V30 3268 H 301.06 -4.23698 0.160021 0
M  V30 3269 C 299.519 -3.23569 -0.938325 0
M  V30 3270 O 300.049 -3.47752 -2.01077 0
M  V30 3271 N 298.255 -2.77079 -0.876117 0
M  V30 3272 H 297.802 -2.576 -0.00322037 0
M  V30 3273 H 297.76 -2.62422 -1.73153 0
M  V30 3274 N 301.532 -0.945985 -1.26051 0
M  V30 3275 C 302.48 -0.450259 -2.282 0
M  V30 3276 C 303.474 0.47497 -1.62605 0
M  V30 3277 O 304.68 0.352653 -1.76512 0
M  V30 3278 H 301.055 -0.127081 -0.741184 0
M  V30 3279 H 303.026 -1.32422 -2.67408 0
M  V30 3280 C 301.775 0.26467 -3.46691 0
M  V30 3281 H 301.098 -0.438123 -3.97392 0
M  V30 3282 H 302.538 0.575678 -4.20074 0
M  V30 3283 C 300.997 1.48416 -3.02447 0
M  V30 3284 O 301.527 2.58227 -3.07704 0
M  V30 3285 N 299.733 1.34243 -2.57735 0
M  V30 3286 H 299.28 0.448994 -2.53657 0
M  V30 3287 H 299.238 2.15957 -2.28495 0
M  V30 3288 N 303.011 1.40521 -0.713556 0
M  V30 3289 C 303.941 2.33381 -0.0743864 0
M  V30 3290 C 304.922 1.52784 0.747735 0
M  V30 3291 O 306.107 1.81258 0.697071 0
M  V30 3292 C 303.237 3.36748 0.849598 0
M  V30 3293 C 302.191 4.27793 0.133247 0
M  V30 3294 C 301.517 5.21679 1.17281 0
M  V30 3295 C 302.817 5.12415 -1.01134 0
M  V30 3296 H 304.511 2.87081 -0.850007 0
M  V30 3297 H 302.057 1.38034 -0.410201 0
M  V30 3298 H 304.01 4.00648 1.30612 0
M  V30 3299 H 302.734 2.81439 1.65709 0
M  V30 3300 H 301.393 3.65342 -0.303426 0
M  V30 3301 H 301.041 4.62677 1.9733 0
M  V30 3302 H 300.741 5.83435 0.698397 0
M  V30 3303 H 302.265 5.88456 1.62947 0
M  V30 3304 H 303.679 5.69781 -0.634274 0
M  V30 3305 H 302.076 5.83203 -1.41399 0
M  V30 3306 H 303.146 4.48514 -1.84292 0
M  V30 3307 N 304.489 0.459591 1.5075 0
M  V30 3308 C 305.399 -0.34613 2.32033 0
M  V30 3309 C 306.415 -1.00686 1.41909 0
M  V30 3310 O 307.591 -0.997361 1.7497 0
M  V30 3311 C 304.656 -1.42029 3.16273 0
M  V30 3312 C 303.717 -0.777362 4.22203 0
M  V30 3313 C 302.95 -1.80034 5.02418 0
M  V30 3314 O 303.173 -3.02544 4.83553 0
M  V30 3315 O 302.107 -1.37853 5.85901 0
M  V30 3316 H 305.933 0.318054 3.0203 0
M  V30 3317 H 303.518 0.221663 1.47746 0
M  V30 3318 H 305.4 -2.04275 3.68578 0
M  V30 3319 H 304.075 -2.06815 2.49016 0
M  V30 3320 H 302.982 -0.116256 3.73919 0
M  V30 3321 H 304.315 -0.172634 4.91897 0
M  V30 3322 N 305.967 -1.56429 0.191757 0
M  V30 3323 C 306.877 -2.22541 -0.742481 0
M  V30 3324 C 307.893 -1.22342 -1.23727 0
M  V30 3325 O 309.069 -1.55069 -1.28513 0
M  V30 3326 C 306.134 -2.8692 -1.94623 0
M  V30 3327 C 305.195 -4.02378 -1.49633 0
M  V30 3328 C 304.428 -4.63678 -2.6427 0
M  V30 3329 O 304.651 -4.23895 -3.81666 0
M  V30 3330 O 303.585 -5.53202 -2.37174 0
M  V30 3331 H 307.411 -3.02977 -0.209462 0
M  V30 3332 H 304.996 -1.49353 -0.0373832 0
M  V30 3333 H 306.878 -3.27663 -2.64982 0
M  V30 3334 H 305.553 -2.09466 -2.46791 0
M  V30 3335 H 304.46 -3.66265 -0.761636 0
M  V30 3336 H 305.793 -4.81487 -1.02134 0
M  V30 3337 N 307.445 0.0818655 -1.57387 0
M  V30 3338 C 308.375 1.09885 -2.06028 0
M  V30 3339 C 309.356 1.4098 -0.951774 0
M  V30 3340 O 310.541 1.50781 -1.22387 0
M  V30 3341 C 307.671 2.4151 -2.4958 0
M  V30 3342 C 306.625 2.24792 -3.64215 0
M  V30 3343 C 305.951 3.61712 -3.93787 0
M  V30 3344 C 307.251 1.67749 -4.94629 0
M  V30 3345 H 308.945 0.694128 -2.91243 0
M  V30 3346 H 306.491 0.332448 -1.4011 0
M  V30 3347 H 308.444 3.12939 -2.82219 0
M  V30 3348 H 307.168 2.83943 -1.61381 0
M  V30 3349 H 305.827 1.55807 -3.31843 0
M  V30 3350 H 305.475 4.01697 -3.02735 0
M  V30 3351 H 305.175 3.51368 -4.70971 0
M  V30 3352 H 306.699 4.34587 -4.28913 0
M  V30 3353 H 308.113 2.29032 -5.25564 0
M  V30 3354 H 306.51 1.68128 -5.76067 0
M  V30 3355 H 307.58 0.638059 -4.80684 0
M  V30 3356 N 308.923 1.53595 0.353017 0
M  V30 3357 C 310.334 1.61937 0.929153 0
M  V30 3358 C 310.685 0.494686 1.89861 0
M  V30 3359 O 309.81 -0.377017 2.1309 0
M  V30 3360 C 310.405 2.93526 1.69199 0
M  V30 3361 C 308.964 3.04161 2.21727 0
M  V30 3362 C 308.111 2.57322 1.03348 0
M  V30 3363 H 311.062 1.58155 0.131431 0
M  V30 3364 H 311.083 2.82034 2.55416 0
M  V30 3365 H 310.595 3.75362 0.986144 0
M  V30 3366 H 308.696 2.26938 2.95516 0
M  V30 3367 H 308.809 4.09465 2.48748 0
M  V30 3368 H 307.173 2.12499 1.40414 0
M  V30 3369 H 307.956 3.41588 0.342428 0
M  V30 3370 N 310.401 -0.613514 1.45168 0
M  V30 3371 C 311.349 -1.74572 1.53712 0
M  V30 3372 C 312.343 -1.64426 0.407505 0
M  V30 3373 O 313.549 -1.70291 0.583176 0
M  V30 3374 H 309.924 -0.576641 0.48269 0
M  V30 3375 H 311.895 -1.64492 2.48968 0
M  V30 3376 C 310.644 -3.12943 1.51532 0
M  V30 3377 H 309.967 -3.21407 2.37776 0
M  V30 3378 H 311.407 -3.9201 1.61569 0
M  V30 3379 C 309.866 -3.36053 0.238798 0
M  V30 3380 O 310.396 -3.95837 -0.6838 0
M  V30 3381 N 308.602 -2.9028 0.136359 0
M  V30 3382 H 308.149 -2.41811 0.887999 0
M  V30 3383 H 308.107 -3.06116 -0.716944 0
M  V30 3384 N 311.879 -1.3236 -0.855495 0
M  V30 3385 C 313.156 -1.13491 -1.59309 0
M  V30 3386 C 313.536 0.30503 -2.08885 0
M  V30 3387 O 312.884 1.30151 -1.87811 0
M  V30 3388 C 313.094 -2.16176 -2.73987 0
M  V30 3389 C 314.442 -2.49463 -3.43589 0
M  V30 3390 O 315.466 -2.14715 -2.84211 0
M  V30 3391 O 314.325 -3.09027 -4.50738 0
M  V30 3392 H 311.419 -0.437887 -0.701559 0
M  V30 3393 H 313.965 -1.43887 -0.899696 0
M  V30 3394 H 312.737 -3.1297 -2.34873 0
M  V30 3395 H 312.36 -1.86769 -3.51003 0
M  V30 3396 N 313.357 1.07166 -1.15556 0
M  V30 3397 C 314.603 1.80065 -0.932984 0
M  V30 3398 C 314.936 1.86586 0.53845 0
M  V30 3399 O 314.211 1.35098 1.39924 0
M  V30 3400 C 314.494 3.25022 -1.55025 0
M  V30 3401 C 314.347 3.26634 -3.09242 0
M  V30 3402 C 315.666 4.22341 -1.2376 0
M  V30 3403 H 312.785 0.653697 -0.340366 0
M  V30 3404 H 315.427 1.25389 -1.4275 0
M  V30 3405 H 313.577 3.71712 -1.12972 0
M  V30 3406 H 315.249 2.88173 -3.60214 0
M  V30 3407 H 313.492 2.65539 -3.43033 0
M  V30 3408 H 314.163 4.28854 -3.47546 0
M  V30 3409 H 316.639 3.8405 -1.60139 0
M  V30 3410 H 315.515 5.22053 -1.69564 0
M  V30 3411 H 315.776 4.41828 -0.154938 0
M  V30 3412 N 314.835 0.952656 1.25548 0
M  V30 3413 C 316.082 0.606373 1.93208 0
M  V30 3414 C 316.41 -0.85631 1.74636 0
M  V30 3415 O 315.665 -1.62951 1.08376 0
M  V30 3416 C 315.964 0.908818 3.45652 0
M  V30 3417 C 315.63 2.35722 3.84378 0
M  V30 3418 C 314.292 2.75312 3.9466 0
M  V30 3419 C 316.644 3.29793 4.03591 0
M  V30 3420 C 313.972 4.08047 4.21562 0
M  V30 3421 C 316.324 4.62138 4.31985 0
M  V30 3422 C 314.988 5.01528 4.40484 0
M  V30 3423 H 314.258 0.221888 0.706998 0
M  V30 3424 H 316.905 1.20132 1.49133 0
M  V30 3425 H 315.21 0.231456 3.91116 0
M  V30 3426 H 316.907 0.619498 3.96186 0
M  V30 3427 H 313.497 2.04017 3.76928 0
M  V30 3428 H 317.681 3.00397 3.95064 0
M  V30 3429 H 312.937 4.38212 4.26357 0
M  V30 3430 H 317.111 5.35012 4.45797 0
M  V30 3431 H 314.738 6.04406 4.61083 0
M  V30 3432 N 316.313 -1.40141 0.720998 0
M  V30 3433 C 317.263 -2.27949 0.0482544 0
M  V30 3434 C 318.247 -1.43538 -0.727021 0
M  V30 3435 O 319.439 -1.6658 -0.598332 0
M  V30 3436 C 316.568 -3.32126 -0.868729 0
M  V30 3437 C 315.654 -4.24008 -0.0883515 0
M  V30 3438 N 316.045 -4.97154 0.931226 0
M  V30 3439 C 314.343 -4.4485 -0.320105 0
M  V30 3440 C 315.044 -5.64587 1.4006 0
M  V30 3441 N 314.02 -5.38787 0.721752 0
M  V30 3442 H 317.822 -2.81948 0.829609 0
M  V30 3443 H 315.336 -1.52656 0.554067 0
M  V30 3444 H 317.333 -3.93884 -1.36605 0
M  V30 3445 H 315.993 -2.79687 -1.6494 0
M  V30 3446 H 317.004 -5.01 1.31222 0
M  V30 3447 H 313.681 -4.03378 -1.07668 0
M  V30 3448 H 315.071 -6.33175 2.24808 0
M  V30 3449 N 317.792 -0.46758 -1.50504 0
M  V30 3450 C 319.04 0.0884469 -2.01906 0
M  V30 3451 C 319.361 1.40532 -1.35188 0
M  V30 3452 O 318.631 1.89515 -0.496079 0
M  V30 3453 H 317.211 0.0356765 -0.746148 0
M  V30 3454 H 319.873 -0.6172 -1.84869 0
M  V30 3455 H 318.969 0.2425 -3.11156 0
M  V30 3456 N 319.27 1.56325 -0.20005 0
M  V30 3457 C 320.233 2.18084 0.705132 0
M  V30 3458 C 321.233 1.13666 1.1374 0
M  V30 3459 O 322.423 1.39023 1.04968 0
M  V30 3460 C 319.555 2.78689 1.96329 0
M  V30 3461 H 320.748 2.99435 0.167023 0
M  V30 3462 H 318.301 1.56221 0.0495725 0
M  V30 3463 H 319.036 2.0115 2.5438 0
M  V30 3464 H 318.821 3.55133 1.66202 0
M  V30 3465 H 320.311 3.26096 2.60866 0
M  V30 3466 N 320.748 -0.0735177 1.57428 0
M  V30 3467 C 321.973 -0.789787 1.91774 0
M  V30 3468 C 322.398 -1.70413 0.796306 0
M  V30 3469 O 321.756 -1.79555 -0.250961 0
M  V30 3470 C 321.804 -1.5609 3.25067 0
M  V30 3471 O 320.908 -2.67144 3.14178 0
M  V30 3472 H 320.249 -0.215582 0.628029 0
M  V30 3473 H 322.779 -0.0422781 2.04556 0
M  V30 3474 H 322.789 -1.94052 3.58898 0
M  V30 3475 H 321.464 -0.890015 4.06265 0
M  V30 3476 H 320.041 -2.32052 2.91901 0
M  V30 3477 N 322.226 -1.5378 -0.344866 0
M  V30 3478 C 323.474 -1.70625 -1.08311 0
M  V30 3479 C 323.795 -0.471447 -1.89215 0
M  V30 3480 O 323.065 0.514616 -1.8902 0
M  V30 3481 H 321.645 -0.629058 -0.402859 0
M  V30 3482 H 324.307 -1.9103 -0.386459 0
M  V30 3483 H 323.403 -2.57656 -1.76124 0
M  V30 3484 N 323.704 0.605807 -1.45491 0
M  V30 3485 C 325.115 1.18777 -1.44045 0
M  V30 3486 C 325.466 1.95471 -0.169001 0
M  V30 3487 O 324.591 2.0374 0.729324 0
M  V30 3488 C 325.186 2.16064 -2.60963 0
M  V30 3489 C 323.745 2.69633 -2.62631 0
M  V30 3490 C 322.892 1.45072 -2.36325 0
M  V30 3491 H 325.843 0.395017 -1.53705 0
M  V30 3492 H 325.864 2.9913 -2.35163 0
M  V30 3493 H 325.376 1.60217 -3.53486 0
M  V30 3494 H 323.477 3.29414 -1.74119 0
M  V30 3495 H 323.59 3.13944 -3.61906 0
M  V30 3496 H 321.954 1.74089 -1.85917 0
M  V30 3497 H 322.737 0.910899 -3.30995 0
M  V30 3498 N 325.182 1.32811 0.848464 0
M  V30 3499 C 326.428 1.23907 1.60546 0
M  V30 3500 C 326.761 -0.197161 1.93197 0
M  V30 3501 O 326.036 -1.13596 1.5788 0
M  V30 3502 C 326.319 2.10489 2.92175 0
M  V30 3503 C 326.172 3.62522 2.66266 0
M  V30 3504 C 327.491 1.97075 3.93509 0
M  V30 3505 H 324.61 0.451459 0.58254 0
M  V30 3506 H 327.252 1.62818 0.979296 0
M  V30 3507 H 325.402 1.77434 3.45614 0
M  V30 3508 H 327.074 4.05821 2.19334 0
M  V30 3509 H 325.317 3.84879 2.00126 0
M  V30 3510 H 325.988 4.18437 3.6002 0
M  V30 3511 H 328.464 2.26045 3.49346 0
M  V30 3512 H 327.34 2.59923 4.83457 0
M  V30 3513 H 327.601 0.940186 4.31987 0
M  V30 3514 N 326.66 -1.06551 1.16123 0
M  V30 3515 C 327.909 -1.78687 0.935622 0
M  V30 3516 C 328.222 -1.88056 -0.538001 0
M  V30 3517 O 329.428 -2.56794 -0.88143 0
M  V30 3518 C 327.884 -3.21143 1.62466 0
M  V30 3519 C 327.492 -3.19949 3.13587 0
M  V30 3520 C 329.236 -3.9783 1.48092 0
M  V30 3521 C 327.143 -4.57108 3.75241 0
M  V30 3522 H 326.073 -0.669712 0.346412 0
M  V30 3523 H 328.724 -1.19534 1.39226 0
M  V30 3524 H 327.106 -3.80539 1.09572 0
M  V30 3525 H 328.28 -2.70151 3.73303 0
M  V30 3526 H 326.595 -2.5676 3.27816 0
M  V30 3527 H 329.192 -4.99217 1.91538 0
M  V30 3528 H 329.535 -4.14078 0.429507 0
M  V30 3529 H 330.068 -3.4495 1.98127 0
M  V30 3530 H 326.807 -4.46065 4.80319 0
M  V30 3531 H 326.327 -5.07111 3.20309 0
M  V30 3532 H 328.006 -5.26069 3.76644 0
M  V30 3533 N 328.138 -0.959301 -1.25041 0
M  V30 3534 C 329.068 -0.501388 -2.28053 0
M  V30 3535 C 330.049 0.454673 -1.63911 0
M  V30 3536 O 331.234 0.352618 -1.90972 0
M  V30 3537 C 328.364 0.217224 -3.4662 0
M  V30 3538 C 327.318 -0.654034 -4.22973 0
M  V30 3539 C 326.644 0.195589 -5.34342 0
M  V30 3540 C 327.944 -1.93447 -4.85155 0
M  V30 3541 H 329.638 -1.36238 -2.66608 0
M  V30 3542 H 327.184 -0.656534 -1.28163 0
M  V30 3543 H 329.137 0.548732 -4.17812 0
M  V30 3544 H 327.861 1.1125 -3.07068 0
M  V30 3545 H 326.52 -0.968693 -3.5357 0
M  V30 3546 H 326.168 1.09076 -4.91031 0
M  V30 3547 H 325.868 -0.384091 -5.86343 0
M  V30 3548 H 327.392 0.521958 -6.08365 0
M  V30 3549 H 328.806 -1.66908 -5.48466 0
M  V30 3550 H 327.203 -2.46018 -5.47353 0
M  V30 3551 H 328.273 -2.63466 -4.07079 0
M  V30 3552 N 329.616 1.39756 -0.72842 0
M  V30 3553 C 330.893 1.94574 -0.200079 0
M  V30 3554 C 331.273 1.66569 1.29684 0
M  V30 3555 O 330.621 0.990326 2.05924 0
M  V30 3556 C 330.831 3.45004 -0.526608 0
M  V30 3557 C 332.179 4.21965 -0.472318 0
M  V30 3558 O 333.203 3.53173 -0.463413 0
M  V30 3559 O 332.062 5.44552 -0.461075 0
M  V30 3560 H 329.156 0.826289 -0.0342851 0
M  V30 3561 H 331.702 1.49293 -0.806829 0
M  V30 3562 H 330.474 3.58796 -1.56144 0
M  V30 3563 H 330.097 3.97449 0.109449 0
M  V30 3564 N 331.094 0.475555 1.50254 0
M  V30 3565 C 332.343 -0.0795996 2.01543 0
M  V30 3566 C 332.656 -1.4038 1.36209 0
M  V30 3567 O 333.862 -2.04415 1.7868 0
M  V30 3568 C 332.318 -0.192363 3.59386 0
M  V30 3569 C 331.926 1.12367 4.33679 0
M  V30 3570 C 333.67 -0.699238 4.18701 0
M  V30 3571 C 331.577 0.974453 5.83317 0
M  V30 3572 H 330.507 -0.0335228 0.753254 0
M  V30 3573 H 333.158 0.611128 1.73025 0
M  V30 3574 H 331.54 -0.946974 3.84511 0
M  V30 3575 H 332.714 1.88958 4.20276 0
M  V30 3576 H 331.029 1.562 3.85993 0
M  V30 3577 H 333.626 -0.827978 5.28251 0
M  V30 3578 H 333.969 -1.69171 3.80377 0
M  V30 3579 H 334.502 -0.00188807 3.978 0
M  V30 3580 H 331.241 1.94042 6.26121 0
M  V30 3581 H 330.761 0.248998 5.99283 0
M  V30 3582 H 332.44 0.642867 6.43798 0
M  V30 3583 N 332.573 -1.56217 0.208337 0
M  V30 3584 C 333.798 -2.02782 -0.435222 0
M  V30 3585 C 334.223 -1.08738 -1.53485 0
M  V30 3586 O 333.581 -0.0731855 -1.81152 0
M  V30 3587 C 333.629 -3.47687 -0.956335 0
M  V30 3588 O 332.733 -3.56773 -2.06849 0
M  V30 3589 H 332.074 -0.656403 -0.100158 0
M  V30 3590 H 334.604 -2.02033 0.3231 0
M  V30 3591 H 334.614 -3.87745 -1.26955 0
M  V30 3592 H 333.289 -4.15624 -0.15143 0
M  V30 3593 H 331.866 -3.28597 -1.76292 0
M  V30 3594 N 334.051 0.0651679 -1.57465 0
M  V30 3595 C 335.467 0.420105 -1.53972 0
M  V30 3596 C 335.667 1.78782 -0.929474 0
M  V30 3597 O 334.723 2.46771 -0.534839 0
M  V30 3598 C 336.036 0.355084 -2.98596 0
M  V30 3599 C 337.584 0.434792 -3.09965 0
M  V30 3600 C 338.059 0.399609 -4.56253 0
M  V30 3601 N 339.55 0.459488 -4.60915 0
M  V30 3602 C 340.285 0.454584 -5.71595 0
M  V30 3603 N 339.781 0.404102 -6.9162 0
M  V30 3604 N 341.574 0.501635 -5.59857 0
M  V30 3605 H 333.725 -0.830328 -1.95498 0
M  V30 3606 H 335.988 -0.312244 -0.895102 0
M  V30 3607 H 335.694 -0.583357 -3.46828 0
M  V30 3608 H 335.568 1.16275 -3.58831 0
M  V30 3609 H 337.955 1.36366 -2.61703 0
M  V30 3610 H 338.036 -0.40157 -2.52628 0
M  V30 3611 H 337.68 -0.525436 -5.05175 0
M  V30 3612 H 337.61 1.25359 -5.11461 0
M  V30 3613 H 340.101 0.502482 -3.74544 0
M  V30 3614 H 340.414 0.404468 -7.71741 0
M  V30 3615 H 338.759 0.37069 -6.94011 0
M  V30 3616 H 341.95 0.538812 -4.64989 0
M  V30 3617 H 342.123 0.494345 -6.46112 0
M  V30 3618 N 335.529 1.53961 0.336706 0
M  V30 3619 C 336.757 1.75483 1.09605 0
M  V30 3620 C 337.172 0.4972 1.82136 0
M  V30 3621 O 336.529 -0.53149 1.74589 0
M  V30 3622 C 336.58 2.93943 2.10428 0
M  V30 3623 O 336.301 4.14842 1.40846 0
M  V30 3624 C 337.802 3.27571 2.98684 0
M  V30 3625 H 335.022 0.586166 0.326574 0
M  V30 3626 H 337.566 2.00808 0.38683 0
M  V30 3627 H 335.721 2.70929 2.76905 0
M  V30 3628 H 336.135 4.81383 2.08255 0
M  V30 3629 H 337.609 4.13791 3.6535 0
M  V30 3630 H 338.086 2.44168 3.65074 0
M  V30 3631 H 338.692 3.52615 2.37787 0
M  V30 3632 N 337.007 -0.598083 1.45811 0
M  V30 3633 C 338.423 -0.919847 1.30426 0
M  V30 3634 C 338.623 -1.99759 0.264303 0
M  V30 3635 O 337.679 -2.50221 -0.338472 0
M  V30 3636 C 338.992 -1.35176 2.68603 0
M  V30 3637 C 340.54 -1.46546 2.76574 0
M  V30 3638 C 341.015 -1.9311 4.15298 0
M  V30 3639 N 342.506 -2.00328 4.1764 0
M  V30 3640 C 343.241 -2.37599 5.21856 0
M  V30 3641 N 342.737 -2.73771 6.36413 0
M  V30 3642 N 344.53 -2.38021 5.09218 0
M  V30 3643 H 336.681 0.114111 2.12093 0
M  V30 3644 H 338.944 -0.0116121 0.947929 0
M  V30 3645 H 338.65 -0.633969 3.45939 0
M  V30 3646 H 338.524 -2.3164 2.97696 0
M  V30 3647 H 340.911 -2.17415 1.99537 0
M  V30 3648 H 340.992 -0.483727 2.51185 0
M  V30 3649 H 340.636 -1.22824 4.92825 0
M  V30 3650 H 340.566 -2.92213 4.38086 0
M  V30 3651 H 343.057 -1.74925 3.34977 0
M  V30 3652 H 343.37 -3.0112 7.11721 0
M  V30 3653 H 341.715 -2.71445 6.39799 0
M  V30 3654 H 344.906 -2.09174 4.18765 0
M  V30 3655 H 345.079 -2.66741 5.90554 0
M  V30 3656 N 338.485 -1.33259 -0.841409 0
M  V30 3657 C 339.734 -1.23921 -1.59143 0
M  V30 3658 C 340.047 0.1941 -1.94635 0
M  V30 3659 O 341.253 0.409474 -2.68394 0
M  V30 3660 C 339.709 -2.17119 -2.87032 0
M  V30 3661 C 339.317 -3.65606 -2.58914 0
M  V30 3662 C 341.061 -2.16648 -3.65053 0
M  V30 3663 C 338.968 -4.50726 -3.82884 0
M  V30 3664 H 337.898 -0.460264 -0.597221 0
M  V30 3665 H 340.549 -1.58307 -0.927959 0
M  V30 3666 H 338.931 -1.75663 -3.54906 0
M  V30 3667 H 340.105 -4.15487 -1.99267 0
M  V30 3668 H 338.42 -3.68341 -1.942 0
M  V30 3669 H 341.017 -2.77474 -4.57069 0
M  V30 3670 H 341.36 -1.16088 -3.99787 0
M  V30 3671 H 341.893 -2.56453 -3.041 0
M  V30 3672 H 338.632 -5.52151 -3.53283 0
M  V30 3673 H 338.152 -4.0559 -4.41879 0
M  V30 3674 H 339.831 -4.64401 -4.50489 0
M  V30 3675 N 339.963 1.05934 -1.16686 0
M  V30 3676 C 340.913 2.11764 -0.844978 0
M  V30 3677 C 341.897 1.59922 0.177178 0
M  V30 3678 O 343.089 1.76983 -0.0241768 0
M  V30 3679 C 340.218 3.41493 -0.351812 0
M  V30 3680 C 339.304 4.00152 -1.40496 0
M  V30 3681 N 339.695 4.32874 -2.61636 0
M  V30 3682 C 337.993 4.278 -1.26106 0
M  V30 3683 C 338.694 4.79552 -3.29249 0
M  V30 3684 N 337.67 4.79211 -2.56628 0
M  V30 3685 H 341.472 2.34916 -1.76612 0
M  V30 3686 H 338.986 1.23511 -1.05446 0
M  V30 3687 H 340.983 4.16773 -0.102796 0
M  V30 3688 H 339.643 3.19778 0.56322 0
M  V30 3689 H 340.654 4.23109 -2.98663 0
M  V30 3690 H 337.331 4.15511 -0.407081 0
M  V30 3691 H 338.721 5.14045 -4.32675 0
M  V30 3692 N 341.441 0.965919 1.2453 0
M  V30 3693 C 342.666 0.643971 1.97149 0
M  V30 3694 C 343.091 -0.779487 1.71189 0
M  V30 3695 O 342.449 -1.5288 0.974553 0
M  V30 3696 C 342.497 0.922557 3.48599 0
M  V30 3697 O 341.601 0.00707672 4.12399 0
M  V30 3698 H 340.942 0.243647 0.617683 0
M  V30 3699 H 343.472 1.29558 1.58353 0
M  V30 3700 H 343.482 0.853373 3.98976 0
M  V30 3701 H 342.157 1.95996 3.66822 0
M  V30 3702 H 340.734 0.12943 3.72675 0
M  V30 3703 N 342.919 -1.39368 0.735821 0
M  V30 3704 C 343.849 -2.33234 0.111506 0
M  V30 3705 C 344.83 -1.53954 -0.723334 0
M  V30 3706 O 346.015 -1.82344 -0.668147 0
M  V30 3707 C 343.145 -3.38057 -0.795917 0
M  V30 3708 C 342.099 -4.2795 -0.065172 0
M  V30 3709 C 341.425 -5.23479 -1.08967 0
M  V30 3710 C 342.725 -5.10741 1.09273 0
M  V30 3711 H 344.419 -2.85692 0.895571 0
M  V30 3712 H 341.965 -1.37364 0.432109 0
M  V30 3713 H 343.918 -4.02675 -1.24221 0
M  V30 3714 H 342.642 -2.8404 -1.61211 0
M  V30 3715 H 341.301 -3.64813 0.361511 0
M  V30 3716 H 340.949 -4.65758 -1.89944 0
M  V30 3717 H 340.649 -5.84472 -0.605489 0
M  V30 3718 H 342.173 -5.90974 -1.53565 0
M  V30 3719 H 343.587 -5.68699 0.724841 0
M  V30 3720 H 341.984 -5.8088 1.50659 0
M  V30 3721 H 343.054 -4.45525 1.91404 0
M  V30 3722 N 344.397 -0.483516 -1.5 0
M  V30 3723 C 345.808 -0.0314176 -1.86674 0
M  V30 3724 C 346.159 1.37728 -1.39733 0
M  V30 3725 O 345.284 2.02327 -0.767635 0
M  V30 3726 C 345.879 -0.0502376 -3.38763 0
M  V30 3727 C 344.438 0.346442 -3.74802 0
M  V30 3728 C 343.585 -0.430366 -2.7394 0
M  V30 3729 H 346.536 -0.697182 -1.42566 0
M  V30 3730 H 346.557 0.749116 -3.73053 0
M  V30 3731 H 346.069 -1.07563 -3.72897 0
M  V30 3732 H 344.17 1.37572 -3.46273 0
M  V30 3733 H 344.283 0.0391486 -4.79084 0
M  V30 3734 H 342.647 0.117557 -2.54429 0
M  V30 3735 H 343.43 -1.4555 -3.10918 0
M  V30 3736 N 345.875 1.56104 -0.216619 0
M  V30 3737 C 347.1 2.0301 0.424462 0
M  V30 3738 C 347.525 1.0955 1.52907 0
M  V30 3739 O 346.883 0.0827914 1.81111 0
M  V30 3740 C 346.931 3.4819 0.937883 0
M  V30 3741 O 346.035 3.57865 2.04955 0
M  V30 3742 H 345.376 0.656925 0.0966755 0
M  V30 3743 H 347.906 2.01859 -0.33381 0
M  V30 3744 H 347.916 3.88413 1.24897 0
M  V30 3745 H 346.591 4.15699 0.129387 0
M  V30 3746 H 345.168 3.29527 1.74546 0
M  V30 3747 N 347.353 -0.0568162 1.57498 0
M  V30 3748 C 348.583 -0.764515 1.91934 0
M  V30 3749 C 348.991 -1.70877 0.81227 0
M  V30 3750 O 348.334 -1.82351 -0.222213 0
M  V30 3751 C 348.396 -1.5994 3.21962 0
M  V30 3752 C 348.06 -0.822925 4.4953 0
M  V30 3753 C 349.057 -0.135464 5.19723 0
M  V30 3754 C 346.742 -0.785666 4.96117 0
M  V30 3755 C 348.736 0.578861 6.34766 0
M  V30 3756 C 346.423 -0.0675784 6.11063 0
M  V30 3757 C 347.421 0.613471 6.80239 0
M  V30 3758 O 347.109 1.31996 7.92989 0
M  V30 3759 H 346.841 -0.221647 0.63863 0
M  V30 3760 H 349.395 -0.0268218 2.05382 0
M  V30 3761 H 347.625 -2.38026 3.04763 0
M  V30 3762 H 349.314 -2.18715 3.41934 0
M  V30 3763 H 350.08 -0.155458 4.84751 0
M  V30 3764 H 345.959 -1.30524 4.42136 0
M  V30 3765 H 349.503 1.111 6.88696 0
M  V30 3766 H 345.4 -0.0455636 6.45484 0
M  V30 3767 H 346.168 1.23077 8.09194 0
M  V30 3768 N 348.832 -1.54138 -0.328536 0
M  V30 3769 C 350.08 -1.71765 -1.06496 0
M  V30 3770 C 350.401 -0.49149 -1.88704 0
M  V30 3771 O 349.671 0.494539 -1.89555 0
M  V30 3772 H 348.251 -0.633295 -0.396164 0
M  V30 3773 H 350.913 -1.91429 -0.366176 0
M  V30 3774 H 350.009 -2.5951 -1.73381 0
M  V30 3775 N 350.31 0.590341 -1.46126 0
M  V30 3776 C 351.24 1.71032 -1.58966 0
M  V30 3777 C 352.221 1.64302 -0.440335 0
M  V30 3778 O 353.406 1.82436 -0.665634 0
M  V30 3779 C 350.536 3.09665 -1.57241 0
M  V30 3780 C 349.49 3.31221 -2.71066 0
M  V30 3781 C 348.816 4.70303 -2.54399 0
M  V30 3782 C 350.116 3.19796 -4.1295 0
M  V30 3783 H 351.81 1.60543 -2.52718 0
M  V30 3784 H 349.356 0.770933 -1.21625 0
M  V30 3785 H 351.309 3.87831 -1.64819 0
M  V30 3786 H 350.033 3.21036 -0.600289 0
M  V30 3787 H 348.692 2.55452 -2.62944 0
M  V30 3788 H 348.34 4.78429 -1.55288 0
M  V30 3789 H 348.04 4.85679 -3.30741 0
M  V30 3790 H 349.564 5.50647 -2.63857 0
M  V30 3791 H 350.978 3.87815 -4.22223 0
M  V30 3792 H 349.375 3.46696 -4.89818 0
M  V30 3793 H 350.445 2.16983 -4.33643 0
M  V30 3794 N 351.788 1.33704 0.83433 0
M  V30 3795 C 352.698 1.26382 1.97648 0
M  V30 3796 C 353.714 0.173548 1.73132 0
M  V30 3797 O 354.89 0.397962 1.97429 0
M  V30 3798 C 351.955 1.00769 3.31733 0
M  V30 3799 C 351.016 2.1884 3.69334 0
M  V30 3800 C 350.249 1.9444 4.9702 0
M  V30 3801 O 350.472 0.896961 5.63303 0
M  V30 3802 O 349.406 2.81093 5.32231 0
M  V30 3803 H 353.232 2.22444 2.06767 0
M  V30 3804 H 350.817 1.13795 0.968037 0
M  V30 3805 H 352.699 0.882186 4.12062 0
M  V30 3806 H 351.374 0.0773783 3.23608 0
M  V30 3807 H 350.281 2.36946 2.89495 0
M  V30 3808 H 351.614 3.10221 3.82131 0
M  V30 3809 N 353.266 -1.05314 1.17247 0
M  V30 3810 C 354.214 -2.15137 0.884238 0
M  V30 3811 C 355.208 -1.68729 -0.15063 0
M  V30 3812 O 356.414 -1.8 -0.00366673 0
M  V30 3813 H 352.789 -0.702471 0.2684 0
M  V30 3814 H 354.76 -2.36652 1.81764 0
M  V30 3815 C 353.509 -3.45243 0.412659 0
M  V30 3816 H 352.832 -3.81352 1.20043 0
M  V30 3817 H 354.272 -4.23263 0.249858 0
M  V30 3818 C 352.731 -3.25487 -0.86948 0
M  V30 3819 O 353.261 -3.51938 -1.93655 0
M  V30 3820 N 351.467 -2.78875 -0.817147 0
M  V30 3821 H 351.014 -2.57549 0.0514211 0
M  V30 3822 H 350.972 -2.66036 -1.67547 0
M  V30 3823 N 354.744 -0.972509 -1.24016 0
M  V30 3824 C 355.674 -0.525548 -2.27509 0
M  V30 3825 C 356.655 0.437262 -1.64384 0
M  V30 3826 O 357.84 0.332343 -1.91335 0
M  V30 3827 C 354.97 0.180448 -3.46831 0
M  V30 3828 C 353.924 -0.698859 -4.22256 0
M  V30 3829 C 353.25 0.138903 -5.3452 0
M  V30 3830 C 354.55 -1.98582 -4.83076 0
M  V30 3831 H 356.244 -1.39058 -2.65148 0
M  V30 3832 H 353.79 -0.67009 -1.27459 0
M  V30 3833 H 355.743 0.504387 -4.18371 0
M  V30 3834 H 354.467 1.07987 -3.08231 0
M  V30 3835 H 353.126 -1.00614 -3.52523 0
M  V30 3836 H 352.774 1.03862 -4.9216 0
M  V30 3837 H 352.474 -0.446259 -5.85903 0
M  V30 3838 H 353.998 0.457404 -6.08884 0
M  V30 3839 H 355.412 -1.72715 -5.46665 0
M  V30 3840 H 353.809 -2.5181 -5.44713 0
M  V30 3841 H 354.879 -2.67769 -4.04262 0
M  V30 3842 N 356.222 1.38976 -0.743202 0
M  V30 3843 C 357.169 2.30544 -0.10861 0
M  V30 3844 C 358.139 1.49642 0.720869 0
M  V30 3845 O 359.324 1.78304 0.679142 0
M  V30 3846 C 356.464 3.36018 0.786496 0
M  V30 3847 C 355.577 4.31963 -0.0564849 0
M  V30 3848 C 354.712 5.24506 0.840657 0
M  V30 3849 C 353.751 6.121 -0.00658363 0
M  V30 3850 N 352.888 6.96973 0.846943 0
M  V30 3851 H 357.728 2.8424 -0.895088 0
M  V30 3852 H 355.265 1.3995 -0.453048 0
M  V30 3853 H 357.223 3.95768 1.31999 0
M  V30 3854 H 355.853 2.83758 1.53887 0
M  V30 3855 H 354.905 3.73763 -0.707492 0
M  V30 3856 H 356.217 4.93703 -0.711229 0
M  V30 3857 H 355.371 5.89322 1.4417 0
M  V30 3858 H 354.11 4.63107 1.52916 0
M  V30 3859 H 353.115 5.46289 -0.620366 0
M  V30 3860 H 354.34 6.75565 -0.691992 0
M  V30 3861 H 352.286 6.38133 1.52059 0
M  V30 3862 H 352.203 7.5559 0.248864 0
M  V30 3863 H 353.471 7.6621 1.43328 0
M  V30 3864 N 357.7 0.491464 1.49741 0
M  V30 3865 C 358.647 -0.292027 2.28945 0
M  V30 3866 C 359.617 -0.968973 1.34908 0
M  V30 3867 O 360.802 -0.97748 1.6386 0
M  V30 3868 C 357.942 -1.35617 3.17336 0
M  V30 3869 C 357.055 -0.691957 4.26422 0
M  V30 3870 C 356.19 -1.73572 5.02042 0
M  V30 3871 C 355.229 -1.05286 6.02977 0
M  V30 3872 N 354.366 -2.0404 6.71798 0
M  V30 3873 H 359.206 0.389654 2.95442 0
M  V30 3874 H 356.743 0.204003 1.45679 0
M  V30 3875 H 358.701 -1.98502 3.66951 0
M  V30 3876 H 357.331 -2.00674 2.52844 0
M  V30 3877 H 356.383 0.0499523 3.80367 0
M  V30 3878 H 357.695 -0.153946 4.98562 0
M  V30 3879 H 356.849 -2.43987 5.55478 0
M  V30 3880 H 355.588 -2.30757 4.29654 0
M  V30 3881 H 354.593 -0.334446 5.48782 0
M  V30 3882 H 355.818 -0.487636 6.77347 0
M  V30 3883 H 353.764 -2.60205 6.02187 0
M  V30 3884 H 353.681 -1.55279 7.39881 0
M  V30 3885 H 354.949 -2.73772 7.29842 0
M  V30 3886 N 359.178 -1.55987 0.224894 0
M  V30 3887 C 360.108 -2.23426 -0.678457 0
M  V30 3888 C 361.089 -1.20709 -1.19847 0
M  V30 3889 O 362.274 -1.49304 -1.24186 0
M  V30 3890 C 359.404 -2.91676 -1.88527 0
M  V30 3891 C 358.358 -4.00893 -1.49896 0
M  V30 3892 C 357.684 -4.56455 -2.78483 0
M  V30 3893 C 358.984 -5.17769 -0.686461 0
M  V30 3894 H 360.678 -2.99175 -0.116173 0
M  V30 3895 H 358.224 -1.43897 -0.054436 0
M  V30 3896 H 360.177 -3.37547 -2.5227 0
M  V30 3897 H 358.901 -2.1338 -2.47258 0
M  V30 3898 H 357.56 -3.55758 -0.884985 0
M  V30 3899 H 357.208 -3.74886 -3.35365 0
M  V30 3900 H 356.908 -5.30169 -2.53368 0
M  V30 3901 H 358.432 -5.05047 -3.43162 0
M  V30 3902 H 359.846 -5.60001 -1.22767 0
M  V30 3903 H 358.243 -5.97735 -0.532259 0
M  V30 3904 H 359.313 -4.83932 0.306196 0
M  V30 3905 N 360.656 0.0484629 -1.57525 0
M  V30 3906 C 362.072 0.40375 -1.54409 0
M  V30 3907 C 362.272 1.77786 -0.948384 0
M  V30 3908 O 361.328 2.46189 -0.560983 0
M  V30 3909 C 362.641 0.323394 -2.98956 0
M  V30 3910 C 364.189 0.401892 -3.10409 0
M  V30 3911 C 364.664 0.351195 -4.56652 0
M  V30 3912 N 366.155 0.410576 -4.61377 0
M  V30 3913 C 366.89 0.393933 -5.72045 0
M  V30 3914 N 366.386 0.330724 -6.9201 0
M  V30 3915 N 368.179 0.442227 -5.60358 0
M  V30 3916 H 360.33 -0.851016 -1.94606 0
M  V30 3917 H 362.593 -0.321721 -0.89174 0
M  V30 3918 H 362.299 -0.62011 -3.4619 0
M  V30 3919 H 362.173 1.12463 -3.60044 0
M  V30 3920 H 364.56 1.33582 -2.63134 0
M  V30 3921 H 364.641 -0.428342 -2.52188 0
M  V30 3922 H 364.285 -0.578987 -5.04589 0
M  V30 3923 H 364.215 1.19928 -5.12762 0
M  V30 3924 H 366.706 0.462729 -3.75056 0
M  V30 3925 H 367.019 0.322592 -7.72126 0
M  V30 3926 H 365.364 0.29706 -6.94365 0
M  V30 3927 H 368.555 0.489464 -4.65534 0
M  V30 3928 H 368.728 0.425788 -6.466 0
M  V30 3929 N 362.134 1.5431 0.320358 0
M  V30 3930 C 363.097 1.83195 1.3774 0
M  V30 3931 C 364.097 0.703906 1.44575 0
M  V30 3932 O 365.287 0.972214 1.44546 0
M  V30 3933 C 362.419 1.99487 2.76438 0
M  V30 3934 H 363.612 2.77642 1.1338 0
M  V30 3935 H 361.165 1.46076 0.556012 0
M  V30 3936 H 361.9 1.07262 3.06048 0
M  V30 3937 H 361.685 2.81575 2.7287 0
M  V30 3938 H 363.175 2.23271 3.52902 0
M  V30 3939 N 363.613 -0.582584 1.46437 0
M  V30 3940 C 365.029 -0.905962 1.31394 0
M  V30 3941 C 365.229 -1.99468 0.285476 0
M  V30 3942 O 364.285 -2.50566 -0.311914 0
M  V30 3943 C 365.598 -1.3232 2.70022 0
M  V30 3944 C 367.146 -1.43604 2.78113 0
M  V30 3945 C 367.621 -1.88694 4.17323 0
M  V30 3946 N 369.112 -1.95887 4.19741 0
M  V30 3947 C 369.847 -2.32051 5.24347 0
M  V30 3948 N 369.343 -2.67006 6.39281 0
M  V30 3949 N 371.136 -2.32606 5.11713 0
M  V30 3950 H 363.287 0.1366 2.1196 0
M  V30 3951 H 365.55 -0.00155736 0.947999 0
M  V30 3952 H 365.256 -0.597242 3.46592 0
M  V30 3953 H 365.13 -2.28469 3.00136 0
M  V30 3954 H 367.517 -2.15286 2.01832 0
M  V30 3955 H 367.598 -0.457059 2.51684 0
M  V30 3956 H 367.242 -1.1759 4.941 0
M  V30 3957 H 367.172 -2.8755 4.4116 0
M  V30 3958 H 369.663 -1.71362 3.36814 0
M  V30 3959 H 369.976 -2.93554 7.14875 0
M  V30 3960 H 368.321 -2.64644 6.42642 0
M  V30 3961 H 371.512 -2.04721 4.2096 0
M  V30 3962 H 371.685 -2.60462 5.93349 0
M  V30 3963 N 365.091 -1.34144 -0.827227 0
M  V30 3964 C 366.316 -1.29476 -1.62021 0
M  V30 3965 C 366.741 0.129292 -1.87655 0
M  V30 3966 O 366.099 1.08967 -1.449 0
M  V30 3967 C 366.147 -2.08702 -2.94068 0
M  V30 3968 O 365.251 -1.45359 -3.85933 0
M  V30 3969 H 364.592 -0.444881 -0.492927 0
M  V30 3970 H 367.122 -1.76882 -1.02829 0
M  V30 3971 H 367.132 -2.19898 -3.43669 0
M  V30 3972 H 365.807 -3.12241 -2.74734 0
M  V30 3973 H 364.384 -1.42879 -3.44442 0
M  V30 3974 N 366.569 1.04691 -1.17803 0
M  V30 3975 C 367.797 1.81446 -0.99423 0
M  V30 3976 C 368.212 1.83174 0.457459 0
M  V30 3977 O 367.569 1.26265 1.31771 0
M  V30 3978 C 367.62 3.27334 -1.5341 0
M  V30 3979 O 367.341 3.25798 -2.92895 0
M  V30 3980 C 368.842 4.20759 -1.39559 0
M  V30 3981 H 366.062 0.571599 -0.351447 0
M  V30 3982 H 368.606 1.31982 -1.56208 0
M  V30 3983 H 366.761 3.74052 -1.00815 0
M  V30 3984 H 367.175 4.17144 -3.17949 0
M  V30 3985 H 368.649 5.21084 -1.82141 0
M  V30 3986 H 369.126 4.37856 -0.343394 0
M  V30 3987 H 369.732 3.79901 -1.91195 0
M  V30 3988 N 368.047 0.979072 1.23499 0
M  V30 3989 C 369.277 0.664237 1.95631 0
M  V30 3990 C 369.685 -0.772653 1.72704 0
M  V30 3991 O 369.028 -1.53141 1.01457 0
M  V30 3992 C 369.09 0.873115 3.48736 0
M  V30 3993 C 368.754 2.29182 3.95379 0
M  V30 3994 C 369.751 3.2704 4.04155 0
M  V30 3995 C 367.436 2.62256 4.28401 0
M  V30 3996 C 369.43 4.56052 4.45304 0
M  V30 3997 C 367.117 3.91491 4.69231 0
M  V30 3998 C 368.115 4.88201 4.77649 0
M  V30 3999 O 367.803 6.15129 5.17563 0
M  V30 4000 H 367.535 0.245915 0.629684 0
M  V30 4001 H 370.089 1.3127 1.57979 0
M  V30 4002 H 368.319 0.167476 3.86337 0
M  V30 4003 H 370.008 0.555642 4.02079 0
M  V30 4004 H 370.774 3.02819 3.78848 0
M  V30 4005 H 366.653 1.87692 4.21061 0
M  V30 4006 H 370.197 5.31538 4.51789 0
M  V30 4007 H 366.094 4.15508 4.93987 0
M  V30 4008 H 366.862 6.18862 5.35679 0
M  V30 4009 N 369.525 -1.3858 0.750561 0
M  V30 4010 C 370.473 -2.32339 0.110162 0
M  V30 4011 C 371.467 -1.53864 -0.708674 0
M  V30 4012 O 372.673 -1.69417 -0.608112 0
M  V30 4013 H 369.048 -0.751812 0.0168275 0
M  V30 4014 H 371.019 -2.83959 0.917053 0
M  V30 4015 C 369.768 -3.39043 -0.771067 0
M  V30 4016 H 369.091 -3.99517 -0.150374 0
M  V30 4017 H 370.531 -4.07061 -1.1865 0
M  V30 4018 C 368.99 -2.77365 -1.91234 0
M  V30 4019 O 369.52 -2.66434 -3.00626 0
M  V30 4020 N 367.726 -2.35219 -1.70646 0
M  V30 4021 H 367.273 -2.4431 -0.81673 0
M  V30 4022 H 367.231 -1.94294 -2.47178 0
M  V30 4023 N 371.003 -0.499398 -1.49478 0
M  V30 4024 C 371.933 0.269244 -2.31943 0
M  V30 4025 C 372.914 0.964054 -1.40143 0
M  V30 4026 O 374.099 0.955767 -1.69052 0
M  V30 4027 C 371.229 1.33504 -3.20615 0
M  V30 4028 C 370.183 0.760202 -4.21195 0
M  V30 4029 C 369.509 1.9264 -4.98792 0
M  V30 4030 C 370.809 -0.247661 -5.21712 0
M  V30 4031 H 372.503 -0.419082 -2.96452 0
M  V30 4032 H 370.049 -0.202988 -1.42562 0
M  V30 4033 H 372.002 1.88048 -3.77115 0
M  V30 4034 H 370.726 2.05253 -2.54045 0
M  V30 4035 H 369.385 0.23653 -3.65836 0
M  V30 4036 H 369.033 2.63154 -4.28671 0
M  V30 4037 H 368.733 1.54785 -5.66847 0
M  V30 4038 H 370.257 2.4762 -5.58137 0
M  V30 4039 H 371.671 0.209579 -5.72917 0
M  V30 4040 H 370.068 -0.541962 -5.97648 0
M  V30 4041 H 371.138 -1.16409 -4.7072 0
M  V30 4042 N 372.481 1.55866 -0.233164 0
M  V30 4043 C 373.428 2.20796 0.67215 0
M  V30 4044 C 374.398 1.16731 1.18166 0
M  V30 4045 O 375.583 1.45129 1.23864 0
M  V30 4046 C 372.723 2.90072 1.86955 0
M  V30 4047 C 371.836 4.08759 1.39786 0
M  V30 4048 C 370.971 4.65787 2.55374 0
M  V30 4049 C 370.01 5.76752 2.04998 0
M  V30 4050 N 369.147 6.28021 3.13901 0
M  V30 4051 H 373.987 2.9779 0.111749 0
M  V30 4052 H 371.524 1.47036 0.0434007 0
M  V30 4053 H 373.482 3.28428 2.57276 0
M  V30 4054 H 372.112 2.15575 2.40265 0
M  V30 4055 H 371.164 3.7581 0.589173 0
M  V30 4056 H 372.476 4.88906 0.98856 0
M  V30 4057 H 371.63 5.06646 3.33758 0
M  V30 4058 H 370.369 3.84828 2.99598 0
M  V30 4059 H 369.374 5.35383 1.25079 0
M  V30 4060 H 370.599 6.59553 1.61759 0
M  V30 4061 H 368.545 5.49971 3.57586 0
M  V30 4062 H 368.462 7.03323 2.7726 0
M  V30 4063 H 369.73 6.73538 3.92386 0
M  V30 4064 N 373.959 -0.0401083 1.57549 0
M  V30 4065 C 374.906 -1.04413 2.05831 0
M  V30 4066 C 375.876 -1.36585 0.945184 0
M  V30 4067 O 377.061 -1.47112 1.21502 0
M  V30 4068 C 374.201 -2.34336 2.53339 0
M  V30 4069 C 373.314 -2.08419 3.78398 0
M  V30 4070 C 372.449 -3.32133 4.14561 0
M  V30 4071 C 371.488 -3.01721 5.3257 0
M  V30 4072 N 370.625 -4.17855 5.64218 0
M  V30 4073 H 375.465 -0.625442 2.91363 0
M  V30 4074 H 373.002 -0.297218 1.44066 0
M  V30 4075 H 374.96 -3.10234 2.78946 0
M  V30 4076 H 373.59 -2.73948 1.7074 0
M  V30 4077 H 372.642 -1.23069 3.59942 0
M  V30 4078 H 373.954 -1.81978 4.64419 0
M  V30 4079 H 373.108 -4.16406 4.41238 0
M  V30 4080 H 371.847 -3.61678 3.2717 0
M  V30 4081 H 370.852 -2.15849 5.05657 0
M  V30 4082 H 372.077 -2.73466 6.21605 0
M  V30 4083 H 370.023 -4.47372 4.79786 0
M  V30 4084 H 369.94 -3.94798 6.44725 0
M  V30 4085 H 371.208 -5.03033 5.95465 0
M  V30 4086 N 375.437 -1.54477 -0.31217 0
M  V30 4087 C 376.367 -1.87652 -1.38957 0
M  V30 4088 C 377.348 -0.734358 -1.53431 0
M  V30 4089 O 378.533 -0.98911 -1.67123 0
M  V30 4090 C 375.663 -2.11396 -2.75552 0
M  V30 4091 C 374.617 -3.27243 -2.75855 0
M  V30 4092 C 373.943 -3.36382 -4.15633 0
M  V30 4093 C 375.243 -4.64622 -2.38587 0
M  V30 4094 H 376.937 -2.77887 -1.11442 0
M  V30 4095 H 374.483 -1.33707 -0.534655 0
M  V30 4096 H 376.436 -2.33189 -3.51 0
M  V30 4097 H 375.16 -1.17921 -3.04569 0
M  V30 4098 H 373.819 -3.05356 -2.02863 0
M  V30 4099 H 373.467 -2.40445 -4.41809 0
M  V30 4100 H 373.167 -4.14249 -4.1674 0
M  V30 4101 H 374.691 -3.60422 -4.92877 0
M  V30 4102 H 376.105 -4.86219 -3.03749 0
M  V30 4103 H 374.502 -5.45121 -2.50925 0
M  V30 4104 H 375.572 -4.66097 -1.33723 0
M  V30 4105 N 376.915 0.57481 -1.46744 0
M  V30 4106 C 378.326 1.15695 -1.46532 0
M  V30 4107 C 378.677 1.95068 -0.210425 0
M  V30 4108 O 377.802 2.05241 0.685944 0
M  V30 4109 C 378.397 2.1048 -2.65487 0
M  V30 4110 C 376.956 2.64002 -2.68291 0
M  V30 4111 C 376.103 1.40026 -2.39349 0
M  V30 4112 H 379.054 0.362325 -1.54509 0
M  V30 4113 H 379.075 2.94074 -2.41455 0
M  V30 4114 H 378.587 1.52683 -3.56805 0
M  V30 4115 H 376.688 3.25646 -1.81067 0
M  V30 4116 H 376.801 3.06197 -3.68483 0
M  V30 4117 H 375.165 1.70106 -1.89568 0
M  V30 4118 H 375.948 0.840485 -3.32852 0
M  V30 4119 N 378.394 1.34581 0.820102 0
M  V30 4120 C 379.622 1.3018 1.60813 0
M  V30 4121 C 380.037 -0.123551 1.88395 0
M  V30 4122 O 379.394 -1.07148 1.47735 0
M  V30 4123 C 379.445 2.09312 2.94739 0
M  V30 4124 O 379.166 3.46288 2.68358 0
M  V30 4125 C 380.667 2.1234 3.89136 0
M  V30 4126 H 377.887 0.447726 0.499782 0
M  V30 4127 H 380.431 1.77237 1.02017 0
M  V30 4128 H 378.586 1.65889 3.50085 0
M  V30 4129 H 379 3.87227 3.53774 0
M  V30 4130 H 380.474 2.72126 4.80262 0
M  V30 4131 H 380.951 1.11854 4.24718 0
M  V30 4132 H 381.557 2.55864 3.39726 0
M  V30 4133 N 379.872 -1.04064 1.18357 0
M  V30 4134 C 380.802 -2.14001 0.934113 0
M  V30 4135 C 381.783 -1.69616 -0.128186 0
M  V30 4136 O 382.968 -1.94185 0.0244093 0
M  V30 4137 C 380.098 -3.44253 0.459066 0
M  V30 4138 C 379.052 -4.02261 1.46185 0
M  V30 4139 C 378.378 -5.27992 0.844322 0
M  V30 4140 C 379.678 -4.38432 2.83856 0
M  V30 4141 H 381.372 -2.35127 1.85352 0
M  V30 4142 H 378.918 -1.12998 0.892604 0
M  V30 4143 H 380.871 -4.20522 0.271907 0
M  V30 4144 H 379.595 -3.22813 -0.495912 0
M  V30 4145 H 378.254 -3.28074 1.63595 0
M  V30 4146 H 377.902 -5.02862 -0.117845 0
M  V30 4147 H 377.602 -5.67765 1.51384 0
M  V30 4148 H 379.126 -6.06938 0.667693 0
M  V30 4149 H 380.54 -5.05688 2.70098 0
M  V30 4150 H 378.937 -4.89254 3.47491 0
M  V30 4151 H 380.007 -3.4826 3.37406 0
M  V30 4152 N 381.35 -0.985608 -1.22978 0
M  V30 4153 C 382.26 -0.538548 -2.28335 0
M  V30 4154 C 383.276 0.409163 -1.69121 0
M  V30 4155 O 384.452 0.277797 -1.99475 0
M  V30 4156 C 381.517 0.146867 -3.46389 0
M  V30 4157 C 380.578 -0.842896 -4.20944 0
M  V30 4158 C 379.811 -0.190095 -5.33361 0
M  V30 4159 O 380.034 1.01767 -5.61248 0
M  V30 4160 O 378.968 -0.891289 -5.95264 0
M  V30 4161 H 382.794 -1.41487 -2.68729 0
M  V30 4162 H 380.379 -0.753495 -1.29007 0
M  V30 4163 H 382.261 0.531125 -4.1804 0
M  V30 4164 H 380.936 0.997871 -3.07935 0
M  V30 4165 H 379.843 -1.27795 -3.51595 0
M  V30 4166 H 381.176 -1.66287 -4.6326 0
M  V30 4167 N 382.828 1.3818 -0.7579 0
M  V30 4168 C 383.775 2.30416 -0.133057 0
M  V30 4169 C 384.745 1.50398 0.704957 0
M  V30 4170 O 385.93 1.79014 0.660192 0
M  V30 4171 C 383.07 3.36834 0.750813 0
M  V30 4172 C 382.183 4.31879 -0.102297 0
M  V30 4173 C 381.318 5.25368 0.784979 0
M  V30 4174 C 380.357 6.12058 -0.0715046 0
M  V30 4175 N 379.494 6.97832 0.772972 0
M  V30 4176 H 384.334 2.83274 -0.925186 0
M  V30 4177 H 381.871 1.39461 -0.467866 0
M  V30 4178 H 383.829 3.97145 1.27794 0
M  V30 4179 H 382.459 2.85374 1.50868 0
M  V30 4180 H 381.511 3.72991 -0.747095 0
M  V30 4181 H 382.823 4.92921 -0.763552 0
M  V30 4182 H 381.977 5.90818 1.37911 0
M  V30 4183 H 380.716 4.64703 1.47996 0
M  V30 4184 H 379.721 5.456 -0.678272 0
M  V30 4185 H 380.946 6.74793 -0.763606 0
M  V30 4186 H 378.892 6.3971 1.45282 0
M  V30 4187 H 378.809 7.55812 0.168709 0
M  V30 4188 H 380.077 7.67687 1.35194 0
M  V30 4189 N 384.306 0.507319 1.49211 0
M  V30 4190 C 385.236 -0.256939 2.32082 0
M  V30 4191 C 386.217 -0.956609 1.40652 0
M  V30 4192 O 387.402 -0.946788 1.69557 0
M  V30 4193 C 384.532 -1.31802 3.21318 0
M  V30 4194 C 383.486 -0.737855 4.21592 0
M  V30 4195 C 382.812 -1.89992 4.99807 0
M  V30 4196 C 384.112 0.275325 5.21574 0
M  V30 4197 H 385.806 0.434798 2.96226 0
M  V30 4198 H 383.352 0.210546 1.42452 0
M  V30 4199 H 385.305 -1.86045 3.78107 0
M  V30 4200 H 384.029 -2.03903 2.5513 0
M  V30 4201 H 382.688 -0.217126 3.65956 0
M  V30 4202 H 382.336 -2.60877 4.30061 0
M  V30 4203 H 382.036 -1.51777 5.6766 0
M  V30 4204 H 383.56 -2.44657 5.59442 0
M  V30 4205 H 384.974 -0.179193 5.7302 0
M  V30 4206 H 383.371 0.573649 5.97352 0
M  V30 4207 H 384.441 1.18903 4.70096 0
M  V30 4208 N 385.784 -1.5574 0.241426 0
M  V30 4209 C 387.03 -1.99104 -0.385406 0
M  V30 4210 C 387.363 -1.1293 -1.57988 0
M  V30 4211 O 386.638 -0.191449 -1.93555 0
M  V30 4212 C 386.921 -3.51087 -0.800616 0
M  V30 4213 C 386.774 -4.48028 0.398874 0
M  V30 4214 C 388.093 -4.08015 -1.64959 0
M  V30 4215 H 385.212 -0.723848 -0.138614 0
M  V30 4216 H 387.854 -1.86903 0.341642 0
M  V30 4217 H 386.004 -3.61615 -1.4201 0
M  V30 4218 H 387.676 -4.49487 1.03726 0
M  V30 4219 H 385.919 -4.21077 1.04293 0
M  V30 4220 H 386.59 -5.51962 0.0651056 0
M  V30 4221 H 389.066 -4.00555 -1.12672 0
M  V30 4222 H 387.942 -5.14635 -1.90898 0
M  V30 4223 H 388.203 -3.56131 -2.61961 0
M  V30 4224 N 387.262 0.0317525 -1.57568 0
M  V30 4225 C 388.225 1.01783 -2.0536 0
M  V30 4226 C 389.225 1.29203 -0.957253 0
M  V30 4227 O 390.415 1.24251 -1.22095 0
M  V30 4228 C 387.547 2.35137 -2.46827 0
M  V30 4229 H 388.74 0.605062 -2.93733 0
M  V30 4230 H 386.293 0.278514 -1.53799 0
M  V30 4231 H 387.028 2.81168 -1.61602 0
M  V30 4232 H 386.813 2.16566 -3.26866 0
M  V30 4233 H 388.303 3.05938 -2.84239 0
M  V30 4234 N 388.74 1.54641 0.303973 0
M  V30 4235 C 389.67 1.88386 1.3796 0
M  V30 4236 C 390.651 0.742485 1.5304 0
M  V30 4237 O 391.836 0.997959 1.66597 0
M  V30 4238 C 388.966 2.12854 2.74427 0
M  V30 4239 C 387.92 3.28702 2.74115 0
M  V30 4240 C 387.246 3.38582 4.13844 0
M  V30 4241 C 388.546 4.65881 2.3612 0
M  V30 4242 H 390.24 2.78474 1.09966 0
M  V30 4243 H 387.786 1.33988 0.527556 0
M  V30 4244 H 389.739 2.35047 3.49758 0
M  V30 4245 H 388.463 1.19535 3.03939 0
M  V30 4246 H 387.122 3.06428 2.0124 0
M  V30 4247 H 386.77 2.42784 4.40528 0
M  V30 4248 H 386.47 4.16453 4.14537 0
M  V30 4249 H 387.994 3.63031 4.90959 0
M  V30 4250 H 389.408 4.87823 3.01167 0
M  V30 4251 H 387.805 5.46444 2.48031 0
M  V30 4252 H 388.875 4.66799 1.3125 0
M  V30 4253 N 390.218 -0.567019 1.47046 0
M  V30 4254 C 391.151 -1.69016 1.53326 0
M  V30 4255 C 392.129 -1.57949 0.386126 0
M  V30 4256 O 393.313 -1.78945 0.592529 0
M  V30 4257 C 390.44 -3.07191 1.42658 0
M  V30 4258 C 389.486 -3.36733 2.6175 0
M  V30 4259 S 390.319 -3.27069 4.24012 0
M  V30 4260 C 391.475 -4.67755 4.1588 0
M  V30 4261 H 391.708 -1.63434 2.48348 0
M  V30 4262 H 389.241 -0.747048 1.35124 0
M  V30 4263 H 391.199 -3.86897 1.37191 0
M  V30 4264 H 389.86 -3.10249 0.490369 0
M  V30 4265 H 389.053 -4.37441 2.50323 0
M  V30 4266 H 388.655 -2.64627 2.64289 0
M  V30 4267 H 390.947 -5.58491 3.83529 0
M  V30 4268 H 391.89 -4.84239 5.16641 0
M  V30 4269 H 392.298 -4.45341 3.46889 0
M  V30 4270 N 391.696 -1.35014 -0.812953 0
M  V30 4271 C 392.606 -1.2951 -1.95613 0
M  V30 4272 C 393.622 -0.20107 -1.72834 0
M  V30 4273 O 394.798 -0.42932 -1.96771 0
M  V30 4274 C 391.863 -1.06033 -3.30088 0
M  V30 4275 C 390.924 -2.24688 -3.65805 0
M  V30 4276 C 390.157 -2.02322 -4.93864 0
M  V30 4277 O 390.38 -0.986464 -5.61805 0
M  V30 4278 O 389.314 -2.89525 -5.27692 0
M  V30 4279 H 393.14 -2.25705 -2.03202 0
M  V30 4280 H 390.725 -1.15321 -0.949811 0
M  V30 4281 H 392.607 -0.94763 -4.10607 0
M  V30 4282 H 391.282 -0.128852 -3.23443 0
M  V30 4283 H 390.189 -2.41521 -2.85689 0
M  V30 4284 H 391.522 -3.16261 -3.77147 0
M  V30 4285 N 393.175 1.03435 -1.18907 0
M  V30 4286 C 394.138 2.09756 -0.923844 0
M  V30 4287 C 395.138 1.60528 0.093416 0
M  V30 4288 O 396.328 1.73631 -0.140727 0
M  V30 4289 C 393.46 3.38692 -0.387354 0
M  V30 4290 H 394.653 2.34719 -1.86674 0
M  V30 4291 H 392.206 1.19959 -1.00197 0
M  V30 4292 H 392.941 3.19396 0.561845 0
M  V30 4293 H 392.726 3.75742 -1.12074 0
M  V30 4294 H 394.216 4.17016 -0.220694 0
M  V30 4295 N 394.653 0.992116 1.22453 0
M  V30 4296 C 395.878 0.685644 1.95739 0
M  V30 4297 C 396.303 -0.743 1.72804 0
M  V30 4298 O 395.661 -1.50778 1.00676 0
M  V30 4299 C 395.709 0.996293 3.46564 0
M  V30 4300 O 394.813 0.0945512 4.12292 0
M  V30 4301 H 394.154 0.256694 0.612376 0
M  V30 4302 H 396.684 1.32888 1.5557 0
M  V30 4303 H 396.694 0.93781 3.97076 0
M  V30 4304 H 395.369 2.03733 3.62582 0
M  V30 4305 H 393.946 0.208451 3.72317 0
M  V30 4306 N 396.131 -1.37776 0.765217 0
M  V30 4307 C 397.061 -2.32945 0.160953 0
M  V30 4308 C 398.042 -1.55454 -0.690516 0
M  V30 4309 O 399.227 -1.83721 -0.629318 0
M  V30 4310 C 396.357 -3.39669 -0.724031 0
M  V30 4311 C 395.311 -4.27992 0.0256173 0
M  V30 4312 C 394.637 -5.25673 -0.978383 0
M  V30 4313 C 395.937 -5.08309 1.20082 0
M  V30 4314 H 397.631 -2.83728 0.955969 0
M  V30 4315 H 395.177 -1.36416 0.461149 0
M  V30 4316 H 397.13 -4.05219 -1.15652 0
M  V30 4317 H 395.854 -2.87396 -1.5515 0
M  V30 4318 H 394.513 -3.63964 0.438812 0
M  V30 4319 H 394.161 -4.69682 -1.80022 0
M  V30 4320 H 393.861 -5.85625 -0.481378 0
M  V30 4321 H 395.385 -5.94098 -1.40995 0
M  V30 4322 H 396.799 -5.67034 0.845307 0
M  V30 4323 H 395.196 -5.77554 1.62947 0
M  V30 4324 H 396.266 -4.41365 2.00811 0
M  V30 4325 N 397.609 -0.515225 -1.4894 0
M  V30 4326 C 398.837 0.0206034 -2.0689 0
M  V30 4327 C 399.252 1.29514 -1.37374 0
M  V30 4328 O 398.609 1.76698 -0.456529 0
M  V30 4329 C 398.66 0.26351 -3.60538 0
M  V30 4330 O 398.381 -0.960517 -4.27441 0
M  V30 4331 C 399.882 0.841383 -4.35242 0
M  V30 4332 H 397.102 -0.0268608 -0.670462 0
M  V30 4333 H 399.646 -0.716651 -1.91532 0
M  V30 4334 H 397.801 0.950777 -3.75552 0
M  V30 4335 H 398.215 -0.73212 -5.19365 0
M  V30 4336 H 399.689 0.96085 -5.43573 0
M  V30 4337 H 400.166 1.8427 -3.98674 0
M  V30 4338 H 400.772 0.191143 -4.2487 0
M  V30 4339 N 399.087 1.5561 -0.249682 0
M  V30 4340 C 400.317 2.03116 0.377803 0
M  V30 4341 C 400.725 1.12822 1.51881 0
M  V30 4342 O 400.068 0.13562 1.83199 0
M  V30 4343 C 400.13 3.46866 0.944693 0
M  V30 4344 C 399.794 4.56955 -0.0644259 0
M  V30 4345 C 400.791 5.12485 -0.874957 0
M  V30 4346 C 398.476 5.01936 -0.19132 0
M  V30 4347 C 400.47 6.11491 -1.79881 0
M  V30 4348 C 398.157 6.00773 -1.11868 0
M  V30 4349 C 399.155 6.5543 -1.92095 0
M  V30 4350 O 398.843 7.5234 -2.83267 0
M  V30 4351 H 398.575 0.669489 0.0935961 0
M  V30 4352 H 401.129 2.02004 -0.371966 0
M  V30 4353 H 399.359 3.45136 1.74407 0
M  V30 4354 H 401.048 3.77856 1.48255 0
M  V30 4355 H 401.814 4.78564 -0.787523 0
M  V30 4356 H 397.693 4.59055 0.423072 0
M  V30 4357 H 401.237 6.54078 -2.42543 0
M  V30 4358 H 397.134 6.34114 -1.20703 0
M  V30 4359 H 397.902 7.69966 -2.7766 0
M  V30 4360 N 400.565 -0.0233959 1.57583 0
M  V30 4361 C 401.976 -0.56927 1.77809 0
M  V30 4362 C 402.327 -1.75284 0.881472 0
M  V30 4363 O 401.452 -2.1626 0.0777805 0
M  V30 4364 C 402.047 -1.03949 3.22459 0
M  V30 4365 C 400.606 -1.53084 3.43864 0
M  V30 4366 C 399.753 -0.471454 2.73263 0
M  V30 4367 H 402.704 0.202825 1.57399 0
M  V30 4368 H 402.725 -1.90661 3.29285 0
M  V30 4369 H 402.237 -0.177865 3.87692 0
M  V30 4370 H 400.338 -2.41414 2.83814 0
M  V30 4371 H 400.451 -1.57443 4.52491 0
M  V30 4372 H 398.815 -0.927788 2.37201 0
M  V30 4373 H 399.598 0.380808 3.41181 0
M  V30 4374 N 402.043 -1.548 -0.295768 0
M  V30 4375 C 403.268 -1.78653 -1.05346 0
M  V30 4376 C 403.693 -0.546894 -1.79974 0
M  V30 4377 O 403.051 0.502763 -1.7419 0
M  V30 4378 C 403.099 -2.99679 -2.00561 0
M  V30 4379 O 402.203 -2.7317 -3.08953 0
M  V30 4380 H 401.544 -0.59116 -0.302367 0
M  V30 4381 H 404.074 -2.01895 -0.331598 0
M  V30 4382 H 404.084 -3.27793 -2.42932 0
M  V30 4383 H 402.759 -3.89562 -1.4565 0
M  V30 4384 H 401.336 -2.56089 -2.71059 0
M  V30 4385 N 403.521 0.559213 -1.47345 0
M  V30 4386 C 404.471 1.66192 -1.5609 0
M  V30 4387 C 405.455 1.55323 -0.419957 0
M  V30 4388 O 406.647 1.63839 -0.669762 0
M  V30 4389 C 403.776 3.0497 -1.57634 0
M  V30 4390 C 402.862 3.2105 -2.77106 0
M  V30 4391 N 403.253 3.07203 -4.01821 0
M  V30 4392 C 401.551 3.52046 -2.73825 0
M  V30 4393 C 402.252 3.25919 -4.81821 0
M  V30 4394 N 401.228 3.52161 -4.14106 0
M  V30 4395 H 405.03 1.54052 -2.5029 0
M  V30 4396 H 402.544 0.763914 -1.43311 0
M  V30 4397 H 404.541 3.84142 -1.61989 0
M  V30 4398 H 403.201 3.18224 -0.645281 0
M  V30 4399 H 404.212 2.84572 -4.32711 0
M  V30 4400 H 400.889 3.71839 -1.89848 0
M  V30 4401 H 402.279 3.20198 -5.90697 0
M  V30 4402 N 404.999 1.35443 0.805782 0
M  V30 4403 C 406.239 1.30127 1.57627 0
M  V30 4404 C 406.603 -0.122567 1.91608 0
M  V30 4405 O 407.804 -0.300107 2.67119 0
M  V30 4406 C 406.075 2.18314 2.82973 0
M  V30 4407 S 407.634 2.30521 3.7337 0
M  V30 4408 H 404.452 0.462439 0.540066 0
M  V30 4409 H 407.054 1.70843 0.95042 0
M  V30 4410 H 405.758 3.20741 2.56034 0
M  V30 4411 H 405.289 1.78558 3.50543 0
M  V30 4412 H 407.304 1.49062 4.73281 0
M  V30 4413 N 406.477 -1.02803 1.19454 0
M  V30 4414 C 407.717 -1.77769 1.00883 0
M  V30 4415 C 408.081 -1.86596 -0.45233 0
M  V30 4416 O 409.282 -2.57895 -0.757877 0
M  V30 4417 C 407.553 -3.16486 1.66046 0
M  V30 4418 S 409.112 -4.07632 1.62424 0
M  V30 4419 H 405.93 -0.611949 0.361993 0
M  V30 4420 H 408.532 -1.23175 1.51816 0
M  V30 4421 H 407.236 -3.0768 2.7159 0
M  V30 4422 H 406.767 -3.76156 1.15196 0
M  V30 4423 H 408.782 -4.91937 0.64903 0
M  V30 4424 N 407.956 -0.998596 -1.21925 0
M  V30 4425 C 408.919 -0.558679 -2.22287 0
M  V30 4426 C 409.919 0.361525 -1.56683 0
M  V30 4427 O 411.109 0.152695 -1.73529 0
M  V30 4428 C 408.241 0.18661 -3.40389 0
M  V30 4429 H 409.434 -1.4463 -2.62721 0
M  V30 4430 H 406.987 -0.786413 -1.35075 0
M  V30 4431 H 407.722 1.08996 -3.05435 0
M  V30 4432 H 407.507 -0.474188 -3.89222 0
M  V30 4433 H 408.997 0.482367 -4.14805 0
M  V30 4434 N 409.434 1.37368 -0.772513 0
M  V30 4435 C 410.681 1.99673 -0.337182 0
M  V30 4436 C 411.009 1.61324 1.0865 0
M  V30 4437 O 410.264 0.851377 1.7621 0
M  V30 4438 C 410.563 3.54817 -0.428876 0
M  V30 4439 C 410.229 4.12936 -1.81092 0
M  V30 4440 C 408.891 4.28523 -2.1891 0
M  V30 4441 C 411.243 4.44801 -2.71664 0
M  V30 4442 C 408.571 4.73277 -3.46735 0
M  V30 4443 C 410.923 4.90981 -3.98899 0
M  V30 4444 C 409.587 5.04773 -4.36761 0
M  V30 4445 H 408.857 0.730656 -0.123384 0
M  V30 4446 H 411.504 1.64124 -0.986686 0
M  V30 4447 H 409.809 3.90618 0.304167 0
M  V30 4448 H 411.506 4.00933 -0.0733334 0
M  V30 4449 H 408.096 4.01233 -1.50699 0
M  V30 4450 H 412.28 4.32344 -2.43706 0
M  V30 4451 H 407.536 4.82142 -3.75964 0
M  V30 4452 H 411.71 5.14603 -4.69208 0
M  V30 4453 H 409.337 5.39211 -5.35868 0
M  V30 4454 N 410.912 0.523116 1.48665 0
M  V30 4455 C 411.875 -0.232592 2.28017 0
M  V30 4456 C 412.875 -0.874021 1.34972 0
M  V30 4457 O 414.065 -0.735132 1.57929 0
M  V30 4458 C 411.197 -1.33586 3.13636 0
M  V30 4459 H 412.39 0.464008 2.96289 0
M  V30 4460 H 409.943 0.278816 1.53793 0
M  V30 4461 H 410.678 -2.06593 2.4998 0
M  V30 4462 H 410.463 -0.881125 3.82071 0
M  V30 4463 H 411.953 -1.86759 3.73511 0
M  V30 4464 N 412.39 -1.55475 0.257931 0
M  V30 4465 C 413.338 -2.23244 -0.653076 0
M  V30 4466 C 414.332 -1.22366 -1.17144 0
M  V30 4467 O 415.538 -1.40347 -1.12706 0
M  V30 4468 H 411.913 -0.716247 -0.229117 0
M  V30 4469 H 413.884 -2.98343 -0.0584788 0
M  V30 4470 C 412.633 -2.95401 -1.83395 0
M  V30 4471 H 411.956 -3.72802 -1.44424 0
M  V30 4472 H 413.396 -3.46165 -2.44838 0
M  V30 4473 C 411.855 -1.99895 -2.71189 0
M  V30 4474 O 412.385 -1.53909 -3.71046 0
M  V30 4475 N 410.591 -1.6676 -2.3799 0
M  V30 4476 H 410.138 -2.04352 -1.56837 0
M  V30 4477 H 410.096 -1.03127 -2.97005 0
M  V30 4478 N 413.868 0.0150385 -1.57593 0
M  V30 4479 C 415.114 0.69849 -1.91031 0
M  V30 4480 C 415.469 1.72208 -0.85804 0
M  V30 4481 O 414.762 1.91147 0.131614 0
M  V30 4482 C 414.956 1.39686 -3.28972 0
M  V30 4483 C 414.785 0.442428 -4.47518 0
M  V30 4484 C 413.555 0.0583223 -5.05266 0
M  V30 4485 C 415.753 -0.285072 -5.13509 0
M  V30 4486 N 413.735 -0.895893 -6.07328 0
M  V30 4487 C 415.106 -1.09447 -6.10263 0
M  V30 4488 C 417.161 -0.350518 -4.96665 0
M  V30 4489 C 415.864 -1.96333 -6.91987 0
M  V30 4490 C 417.89 -1.20655 -5.78962 0
M  V30 4491 C 417.252 -2.00383 -6.75297 0
M  V30 4492 H 413.351 0.22926 -0.747639 0
M  V30 4493 H 415.935 -0.0417748 -1.94655 0
M  V30 4494 H 414.106 2.1075 -3.2625 0
M  V30 4495 H 415.838 2.03381 -3.49883 0
M  V30 4496 H 412.593 0.423506 -4.71703 0
M  V30 4497 H 413.017 -1.36792 -6.63036 0
M  V30 4498 H 417.659 0.251596 -4.22051 0
M  V30 4499 H 415.377 -2.57618 -7.65936 0
M  V30 4500 H 418.963 -1.2609 -5.67972 0
M  V30 4501 H 417.843 -2.65552 -7.3787 0
M  V30 4502 N 415.346 1.54954 0.287554 0
M  V30 4503 C 416.762 1.46469 0.633964 0
M  V30 4504 C 416.962 0.666865 1.90145 0
M  V30 4505 O 416.018 0.179906 2.51858 0
M  V30 4506 C 417.331 2.90556 0.774454 0
M  V30 4507 C 418.879 3.00681 0.869462 0
M  V30 4508 C 419.354 4.45993 1.04184 0
M  V30 4509 N 420.845 4.4976 1.10772 0
M  V30 4510 C 421.58 5.59393 1.25964 0
M  V30 4511 N 421.076 6.78923 1.37968 0
M  V30 4512 N 422.869 5.47107 1.28959 0
M  V30 4513 H 415.02 2.05288 -0.545041 0
M  V30 4514 H 417.283 0.930305 -0.182308 0
M  V30 4515 H 416.989 3.51594 -0.086207 0
M  V30 4516 H 416.863 3.38743 1.6593 0
M  V30 4517 H 419.25 2.39749 1.7206 0
M  V30 4518 H 419.331 2.55769 -0.0396831 0
M  V30 4519 H 418.975 5.07524 0.195422 0
M  V30 4520 H 418.905 4.88548 1.96542 0
M  V30 4521 H 421.396 3.63651 1.02794 0
M  V30 4522 H 421.709 7.58231 1.49353 0
M  V30 4523 H 420.054 6.81763 1.34999 0
M  V30 4524 H 423.245 4.52668 1.19202 0
M  V30 4525 H 423.418 6.32595 1.40455 0
M  V30 4526 N 416.824 -0.551391 1.4764 0
M  V30 4527 C 418.24 -0.877887 1.33287 0
M  V30 4528 C 418.44 -1.98817 0.327721 0
M  V30 4529 O 417.496 -2.51171 -0.258695 0
M  V30 4530 C 418.809 -1.26563 2.72768 0
M  V30 4531 C 420.357 -1.37673 2.81097 0
M  V30 4532 C 420.832 -1.79799 4.21232 0
M  V30 4533 N 422.323 -1.8694 4.23802 0
M  V30 4534 C 423.058 -2.20876 5.29151 0
M  V30 4535 N 422.554 -2.53386 6.448 0
M  V30 4536 N 424.347 -2.217 5.16532 0
M  V30 4537 H 416.498 0.18153 2.11623 0
M  V30 4538 H 418.761 0.0185514 0.947818 0
M  V30 4539 H 418.467 -0.523591 3.47781 0
M  V30 4540 H 418.341 -2.22052 3.04915 0
M  V30 4541 H 420.728 -2.10956 2.06353 0
M  V30 4542 H 420.809 -0.40357 2.52596 0
M  V30 4543 H 420.453 -1.07083 4.96483 0
M  V30 4544 H 420.383 -2.78128 4.4716 0
M  V30 4545 H 422.874 -1.64179 3.40373 0
M  V30 4546 H 423.187 -2.78325 7.20941 0
M  V30 4547 H 421.532 -2.50953 6.48111 0
M  V30 4548 H 424.723 -1.95745 4.25207 0
M  V30 4549 H 424.896 -2.47818 5.98741 0
M  V30 4550 N 418.302 -1.35869 -0.798587 0
M  V30 4551 C 419.234 -1.25305 -1.91915 0
M  V30 4552 C 420.247 -0.174548 -1.61862 0
M  V30 4553 O 421.436 -0.428499 -1.73281 0
M  V30 4554 C 418.536 -0.9086 -3.26493 0
M  V30 4555 C 417.709 -2.08711 -3.84394 0
M  V30 4556 C 416.768 -1.71717 -4.97393 0
M  V30 4557 O 415.794 -2.43692 -5.14396 0
M  V30 4558 N 416.996 -0.645473 -5.769 0
M  V30 4559 H 419.761 -2.21849 -2.01502 0
M  V30 4560 H 417.322 -1.29143 -0.976408 0
M  V30 4561 H 419.314 -0.642455 -3.99568 0
M  V30 4562 H 417.884 -0.0325815 -3.12583 0
M  V30 4563 H 417.104 -2.51659 -3.03416 0
M  V30 4564 H 418.392 -2.87468 -4.19809 0
M  V30 4565 H 417.79 -0.047648 -5.6568 0
M  V30 4566 H 416.347 -0.43913 -6.50319 0
M  V30 4567 N 419.78 1.02168 -1.19998 0
M  V30 4568 C 421.029 1.75091 -1.0013 0
M  V30 4569 C 421.342 1.89923 0.467835 0
M  V30 4570 O 422.548 2.59888 0.785515 0
M  V30 4571 C 421.004 3.14892 -1.74273 0
M  V30 4572 C 420.612 3.0809 -3.25245 0
M  V30 4573 C 422.356 3.9206 -1.62755 0
M  V30 4574 C 420.263 4.42867 -3.91948 0
M  V30 4575 H 419.193 0.656394 -0.37103 0
M  V30 4576 H 421.844 1.14284 -1.43567 0
M  V30 4577 H 420.226 3.7621 -1.2362 0
M  V30 4578 H 421.4 2.5611 -3.83072 0
M  V30 4579 H 419.715 2.44416 -3.3712 0
M  V30 4580 H 422.312 4.91764 -2.09934 0
M  V30 4581 H 422.655 4.12199 -0.582894 0
M  V30 4582 H 423.188 3.37359 -2.10793 0
M  V30 4583 H 419.927 4.27931 -4.96543 0
M  V30 4584 H 419.447 4.94874 -3.3891 0
M  V30 4585 H 421.126 5.11728 -3.95909 0
M  V30 4586 N 421.258 1.00505 1.21394 0
M  V30 4587 C 422.483 0.706367 1.95001 0
M  V30 4588 C 422.908 -0.72463 1.73582 0
M  V30 4589 O 422.266 -1.49702 1.0227 0
M  V30 4590 C 422.314 1.03299 3.45487 0
M  V30 4591 O 421.418 0.138275 4.12168 0
M  V30 4592 H 420.759 0.263175 0.609619 0
M  V30 4593 H 423.289 1.34531 1.54151 0
M  V30 4594 H 423.299 0.979872 3.96059 0
M  V30 4595 H 421.974 2.07567 3.60401 0
M  V30 4596 H 420.551 0.247928 3.72075 0
M  V30 4597 N 422.737 -1.36956 0.779787 0
M  V30 4598 C 423.647 -2.33965 0.172491 0
M  V30 4599 C 424.663 -1.60574 -0.670222 0
M  V30 4600 O 425.839 -1.92617 -0.588263 0
M  V30 4601 C 422.904 -3.39761 -0.690173 0
M  V30 4602 C 421.965 -4.28964 0.169924 0
M  V30 4603 C 421.198 -5.29707 -0.651662 0
M  V30 4604 O 421.421 -5.38238 -1.88827 0
M  V30 4605 O 420.355 -6.01873 -0.0566264 0
M  V30 4606 H 424.181 -2.87647 0.974321 0
M  V30 4607 H 421.766 -1.39258 0.541078 0
M  V30 4608 H 423.648 -4.04471 -1.1824 0
M  V30 4609 H 422.323 -2.88394 -1.47006 0
M  V30 4610 H 421.23 -3.67326 0.708696 0
M  V30 4611 H 422.563 -4.83656 0.913085 0
M  V30 4612 N 424.215 -0.530993 -1.48385 0
M  V30 4613 C 425.145 0.219985 -2.32461 0
M  V30 4614 C 426.126 0.934111 -1.42156 0
M  V30 4615 O 427.311 0.919694 -1.71042 0
M  V30 4616 C 424.441 1.26674 -3.23375 0
M  V30 4617 C 423.395 0.67069 -4.22712 0
M  V30 4618 C 422.721 1.82017 -5.02766 0
M  V30 4619 C 424.021 -0.358268 -5.2107 0
M  V30 4620 H 425.715 -0.48187 -2.95497 0
M  V30 4621 H 423.261 -0.233182 -1.42099 0
M  V30 4622 H 425.214 1.80006 -3.81019 0
M  V30 4623 H 423.938 1.99818 -2.58341 0
M  V30 4624 H 422.597 0.158878 -3.66256 0
M  V30 4625 H 422.245 2.54002 -4.34157 0
M  V30 4626 H 421.945 1.42727 -5.70003 0
M  V30 4627 H 423.469 2.35725 -5.63264 0
M  V30 4628 H 424.883 0.0880081 -5.73232 0
M  V30 4629 H 423.28 -0.66861 -5.96364 0
M  V30 4630 H 424.35 -1.26367 -4.68145 0
M  V30 4631 N 425.693 1.55336 -0.266172 0
M  V30 4632 C 426.643 2.18848 0.639497 0
M  V30 4633 C 427.627 1.1503 1.12503 0
M  V30 4634 O 428.819 1.40875 1.0716 0
M  V30 4635 C 425.948 2.90626 1.82733 0
M  V30 4636 C 425.034 4.01723 1.35939 0
M  V30 4637 N 425.425 5.02145 0.606988 0
M  V30 4638 C 423.723 4.1463 1.6431 0
M  V30 4639 C 424.424 5.80572 0.362138 0
M  V30 4640 N 423.4 5.35551 0.931971 0
M  V30 4641 H 427.202 2.93845 0.0567057 0
M  V30 4642 H 424.716 1.62252 -0.0693312 0
M  V30 4643 H 426.713 3.34569 2.48735 0
M  V30 4644 H 425.373 2.17137 2.41416 0
M  V30 4645 H 426.384 5.17271 0.255198 0
M  V30 4646 H 423.061 3.52326 2.23993 0
M  V30 4647 H 424.451 6.71472 -0.239848 0
M  V30 4648 N 427.171 -0.0066808 1.57599 0
M  V30 4649 C 428.582 -0.550379 1.78403 0
M  V30 4650 C 428.933 -1.74339 0.900014 0
M  V30 4651 O 428.058 -2.16166 0.100713 0
M  V30 4652 C 428.653 -1.00523 3.23544 0
M  V30 4653 C 427.212 -1.49428 3.45468 0
M  V30 4654 C 426.359 -0.442444 2.73748 0
M  V30 4655 H 429.31 0.219508 1.57175 0
M  V30 4656 H 429.331 -1.87157 3.31289 0
M  V30 4657 H 428.843 -0.136735 3.87859 0
M  V30 4658 H 426.944 -2.3839 2.86358 0
M  V30 4659 H 427.057 -1.52635 4.54136 0
M  V30 4660 H 425.421 -0.902578 2.38171 0
M  V30 4661 H 426.204 0.416973 3.40758 0
M  V30 4662 N 428.649 -1.55105 -0.279332 0
M  V30 4663 C 429.898 -1.74618 -1.00952 0
M  V30 4664 C 430.211 -0.551096 -1.87676 0
M  V30 4665 O 431.417 -0.628507 -2.64125 0
M  V30 4666 C 429.873 -3.09025 -1.84476 0
M  V30 4667 C 429.481 -4.36081 -1.0265 0
M  V30 4668 C 431.225 -3.37891 -2.56963 0
M  V30 4669 C 429.132 -5.6153 -1.85576 0
M  V30 4670 H 428.062 -0.650868 -0.38064 0
M  V30 4671 H 430.713 -1.81569 -0.265475 0
M  V30 4672 H 429.095 -2.96095 -2.62952 0
M  V30 4673 H 430.269 -4.59909 -0.286354 0
M  V30 4674 H 428.584 -4.14312 -0.416464 0
M  V30 4675 H 431.181 -4.28822 -3.19399 0
M  V30 4676 H 431.524 -2.57737 -3.26921 0
M  V30 4677 H 432.057 -3.5189 -1.85522 0
M  V30 4678 H 428.796 -6.44413 -1.2005 0
M  V30 4679 H 428.316 -5.41854 -2.57204 0
M  V30 4680 H 429.995 -5.99594 -2.43096 0
M  V30 4681 N 430.127 0.543554 -1.4793 0
M  V30 4682 C 431.367 1.31072 -1.56843 0
M  V30 4683 C 431.731 1.90604 -0.231124 0
M  V30 4684 O 432.932 2.68091 -0.195165 0
M  V30 4685 C 431.203 2.38106 -2.66533 0
M  V30 4686 S 432.762 3.24729 -2.95122 0
M  V30 4687 H 429.58 0.446035 -0.553691 0
M  V30 4688 H 432.182 0.620777 -1.85382 0
M  V30 4689 H 430.886 1.92828 -3.62278 0
M  V30 4690 H 430.417 3.11824 -2.39852 0
M  V30 4691 H 432.432 4.37891 -2.3338 0
M  V30 4692 N 431.605 1.3629 0.791371 0
M  V30 4693 C 432.553 1.30514 1.92533 0
M  V30 4694 C 433.547 0.197285 1.68247 0
M  V30 4695 O 434.753 0.364176 1.76278 0
M  V30 4696 H 431.128 0.406263 0.632815 0
M  V30 4697 H 433.099 2.26282 1.94523 0
M  V30 4698 C 431.848 1.10933 3.29529 0
M  V30 4699 H 431.171 1.95427 3.48781 0
M  V30 4700 H 432.611 1.10937 4.0923 0
M  V30 4701 C 431.07 -0.186123 3.36385 0
M  V30 4702 O 431.6 -1.17664 3.84081 0
M  V30 4703 N 429.806 -0.230128 2.89687 0
M  V30 4704 H 429.353 0.576545 2.51065 0
M  V30 4705 H 429.311 -1.09658 2.94657 0
M  V30 4706 N 433.083 -1.0153 1.20538 0
M  V30 4707 C 434.03 -2.10098 0.955383 0
M  V30 4708 C 435 -1.65702 -0.114878 0
M  V30 4709 O 436.185 -1.90776 0.0301118 0
M  V30 4710 C 433.325 -3.41236 0.514969 0
M  V30 4711 C 432.438 -3.99102 1.65353 0
M  V30 4712 C 431.573 -5.18306 1.16329 0
M  V30 4713 C 430.612 -5.68258 2.27485 0
M  V30 4714 N 429.749 -6.78722 1.7967 0
M  V30 4715 H 434.589 -2.30818 1.88486 0
M  V30 4716 H 432.126 -1.13189 0.939499 0
M  V30 4717 H 434.084 -4.16504 0.240935 0
M  V30 4718 H 432.714 -3.20585 -0.377512 0
M  V30 4719 H 431.766 -3.20918 2.04245 0
M  V30 4720 H 433.078 -4.32177 2.49047 0
M  V30 4721 H 432.232 -6.00782 0.845302 0
M  V30 4722 H 430.971 -4.86799 0.296254 0
M  V30 4723 H 429.976 -4.84385 2.60099 0
M  V30 4724 H 431.201 -6.01798 3.14667 0
M  V30 4725 H 429.147 -6.49042 0.95295 0
M  V30 4726 H 429.064 -7.10996 2.56944 0
M  V30 4727 H 430.332 -7.64759 1.50875 0
M  V30 4728 N 434.561 -1.01147 -1.20859 0
M  V30 4729 C 435.786 -0.716698 -1.94623 0
M  V30 4730 C 436.211 0.715415 -1.73964 0
M  V30 4731 O 435.569 1.49157 -1.03062 0
M  V30 4732 C 435.617 -1.0513 -3.44935 0
M  V30 4733 O 434.721 -0.160131 -4.12089 0
M  V30 4734 H 434.062 -0.266404 -0.608214 0
M  V30 4735 H 436.592 -1.35346 -1.53436 0
M  V30 4736 H 436.602 -1.00086 -3.95533 0
M  V30 4737 H 435.277 -2.09475 -3.59295 0
M  V30 4738 H 433.854 -0.267657 -3.71938 0
M  V30 4739 N 436.039 1.36541 -0.78704 0
M  V30 4740 C 437.288 1.98552 -0.35494 0
M  V30 4741 C 437.601 1.63171 1.07864 0
M  V30 4742 O 438.807 2.18399 1.61289 0
M  V30 4743 C 437.263 3.55136 -0.583671 0
M  V30 4744 C 436.871 3.99444 -2.02851 0
M  V30 4745 C 438.615 4.2395 -0.215957 0
M  V30 4746 C 436.522 5.48796 -2.20403 0
M  V30 4747 H 435.452 0.742888 -0.128972 0
M  V30 4748 H 438.103 1.5587 -0.968337 0
M  V30 4749 H 436.485 3.95875 0.0994046 0
M  V30 4750 H 437.659 3.6991 -2.74779 0
M  V30 4751 H 435.974 3.43459 -2.35425 0
M  V30 4752 H 438.571 5.33709 -0.325405 0
M  V30 4753 H 438.914 4.07827 0.835646 0
M  V30 4754 H 439.447 3.88565 -0.852175 0
M  V30 4755 H 436.186 5.69864 -3.23937 0
M  V30 4756 H 435.706 5.79964 -1.52977 0
M  V30 4757 H 437.385 6.14986 -2.01002 0
M  V30 4758 N 437.518 0.538854 1.48102 0
M  V30 4759 C 438.448 -0.207654 2.32575 0
M  V30 4760 C 439.429 -0.926559 1.4265 0
M  V30 4761 O 440.614 -0.91061 1.71527 0
M  V30 4762 C 437.744 -1.24957 3.24042 0
M  V30 4763 C 436.698 -0.648263 4.23062 0
M  V30 4764 C 436.024 -1.79348 5.03725 0
M  V30 4765 C 437.324 0.385897 5.20872 0
M  V30 4766 H 439.018 0.497534 2.95237 0
M  V30 4767 H 436.564 0.240715 1.41974 0
M  V30 4768 H 438.517 -1.77983 3.81969 0
M  V30 4769 H 437.241 -1.98446 2.59397 0
M  V30 4770 H 435.9 -0.139452 3.66335 0
M  V30 4771 H 435.548 -2.51696 4.35498 0
M  V30 4772 H 435.248 -1.39702 5.70751 0
M  V30 4773 H 436.772 -2.32735 5.64506 0
M  V30 4774 H 438.186 -0.057607 5.73271 0
M  V30 4775 H 436.583 0.700227 5.96001 0
M  V30 4776 H 437.653 1.28848 4.67468 0
M  V30 4777 N 438.996 -1.55193 0.274407 0
M  V30 4778 C 440.412 -1.59401 -0.0797543 0
M  V30 4779 C 440.612 -1.29162 -1.54659 0
M  V30 4780 O 439.668 -1.05215 -2.29534 0
M  V30 4781 C 440.981 -2.99257 0.294238 0
M  V30 4782 C 442.529 -3.12072 0.240796 0
M  V30 4783 C 443.004 -4.54194 0.589218 0
M  V30 4784 N 444.495 -4.60033 0.540744 0
M  V30 4785 C 445.23 -5.68027 0.783147 0
M  V30 4786 N 444.726 -6.8417 1.09013 0
M  V30 4787 N 446.519 -5.57572 0.711993 0
M  V30 4788 H 438.67 -1.73113 1.23067 0
M  V30 4789 H 440.933 -0.807197 0.497129 0
M  V30 4790 H 440.639 -3.26217 1.31435 0
M  V30 4791 H 440.513 -3.75427 -0.365281 0
M  V30 4792 H 442.9 -2.84877 -0.770024 0
M  V30 4793 H 442.981 -2.38117 0.934563 0
M  V30 4794 H 442.625 -4.82115 1.59772 0
M  V30 4795 H 442.555 -5.26448 -0.126331 0
M  V30 4796 H 445.046 -3.76599 0.313327 0
M  V30 4797 H 445.359 -7.6243 1.26178 0
M  V30 4798 H 443.704 -6.85787 1.12789 0
M  V30 4799 H 446.895 -4.65714 0.472014 0
M  V30 4800 H 447.068 -6.41659 0.90429 0
M  V30 4801 N 440.474 -0.00167713 -1.576 0
M  V30 4802 C 441.406 1.0174 -2.05382 0
M  V30 4803 C 442.419 1.30595 -0.972052 0
M  V30 4804 O 443.608 1.27542 -1.24882 0
M  V30 4805 C 440.708 2.35174 -2.44022 0
M  V30 4806 C 439.881 2.25234 -3.74951 0
M  V30 4807 C 438.94 3.4137 -4.00441 0
M  V30 4808 O 437.966 3.19483 -4.71083 0
M  V30 4809 N 439.168 4.64275 -3.48467 0
M  V30 4810 H 441.933 0.609902 -2.93428 0
M  V30 4811 H 439.494 0.185672 -1.60832 0
M  V30 4812 H 441.486 3.11643 -2.58187 0
M  V30 4813 H 440.056 2.67659 -1.61485 0
M  V30 4814 H 439.276 1.33664 -3.70847 0
M  V30 4815 H 440.564 2.15767 -4.60784 0
M  V30 4816 H 439.962 4.84955 -2.91264 0
M  V30 4817 H 438.519 5.38005 -3.67959 0
M  V30 4818 N 441.952 1.55251 0.271103 0
M  V30 4819 C 442.862 1.9136 1.35714 0
M  V30 4820 C 443.878 0.811075 1.5394 0
M  V30 4821 O 445.054 1.11031 1.6803 0
M  V30 4822 C 442.119 2.1798 2.69603 0
M  V30 4823 C 441.18 3.4153 2.60107 0
M  V30 4824 C 440.413 3.66871 3.8761 0
M  V30 4825 O 440.636 2.94689 4.8838 0
M  V30 4826 O 439.57 4.60405 3.87699 0
M  V30 4827 H 443.396 2.83815 1.08088 0
M  V30 4828 H 440.981 1.41821 0.469792 0
M  V30 4829 H 442.863 2.36518 3.48765 0
M  V30 4830 H 441.538 1.28708 2.97012 0
M  V30 4831 H 440.445 3.28325 1.79314 0
M  V30 4832 H 441.778 4.31027 2.37647 0
M  V30 4833 N 443.43 -0.535701 1.48216 0
M  V30 4834 C 444.676 -1.29375 1.56173 0
M  V30 4835 C 445.009 -1.92804 0.232429 0
M  V30 4836 O 444.284 -1.78992 -0.761048 0
M  V30 4837 C 444.567 -2.38747 2.69577 0
M  V30 4838 C 444.42 -1.80046 4.12193 0
M  V30 4839 C 445.739 -3.40551 2.78771 0
M  V30 4840 H 442.858 -0.469027 0.568491 0
M  V30 4841 H 445.5 -0.597358 1.80365 0
M  V30 4842 H 443.65 -2.98147 2.4908 0
M  V30 4843 H 445.322 -1.24742 4.44114 0
M  V30 4844 H 443.565 -1.10609 4.19462 0
M  V30 4845 H 444.236 -2.59212 4.87353 0
M  V30 4846 H 446.712 -2.91099 2.97322 0
M  V30 4847 H 445.588 -4.1448 3.59857 0
M  V30 4848 H 445.849 -4.00746 1.86696 0
M  V30 4849 N 444.908 -1.36708 -0.784132 0
M  V30 4850 C 446.185 -1.21776 -1.53069 0
M  V30 4851 C 446.565 0.193876 -2.10208 0
M  V30 4852 O 445.913 1.20012 -1.94446 0
M  V30 4853 C 446.123 -2.30395 -2.62143 0
M  V30 4854 C 447.471 -2.67325 -3.29882 0
M  V30 4855 O 448.495 -2.29478 -2.7243 0
M  V30 4856 O 447.354 -3.32485 -4.33724 0
M  V30 4857 H 444.448 -0.474459 -0.677361 0
M  V30 4858 H 446.994 -1.48454 -0.82216 0
M  V30 4859 H 445.766 -3.2498 -2.17953 0
M  V30 4860 H 445.389 -2.05112 -3.40609 0
M  V30 4861 N 446.386 1.0089 -1.21074 0
M  V30 4862 C 447.616 1.77933 -1.04993 0
M  V30 4863 C 448.024 1.84847 0.403495 0
M  V30 4864 O 447.367 1.30606 1.29181 0
M  V30 4865 C 447.429 3.23541 -1.56722 0
M  V30 4866 C 447.093 3.40214 -3.05129 0
M  V30 4867 C 448.09 3.2881 -4.02716 0
M  V30 4868 C 445.775 3.65781 -3.44252 0
M  V30 4869 C 447.769 3.42732 -5.37414 0
M  V30 4870 C 445.456 3.79346 -4.79103 0
M  V30 4871 C 446.454 3.67827 -5.75493 0
M  V30 4872 O 446.142 3.80965 -7.07899 0
M  V30 4873 H 445.874 0.566157 -0.369381 0
M  V30 4874 H 448.428 1.27826 -1.60779 0
M  V30 4875 H 446.658 3.74766 -0.953285 0
M  V30 4876 H 448.347 3.82245 -1.36543 0
M  V30 4877 H 449.113 3.08986 -3.73835 0
M  V30 4878 H 444.992 3.73831 -2.69762 0
M  V30 4879 H 448.536 3.33658 -6.12632 0
M  V30 4880 H 444.433 3.98672 -5.07672 0
M  V30 4881 H 445.201 3.97937 -7.15254 0
M  V30 4882 N 447.864 1.01787 1.20321 0
M  V30 4883 C 448.797 0.533882 2.21867 0
M  V30 4884 C 449.775 -0.419361 1.57099 0
M  V30 4885 O 450.959 -0.339062 1.85426 0
M  V30 4886 C 448.086 -0.222899 3.37966 0
M  V30 4887 C 447.132 0.680091 4.21043 0
M  V30 4888 S 447.965 2.14997 4.90445 0
M  V30 4889 C 449.121 1.40339 6.09964 0
M  V30 4890 H 449.354 1.39429 2.62577 0
M  V30 4891 H 446.887 0.826867 1.30393 0
M  V30 4892 H 448.845 -0.653425 4.05266 0
M  V30 4893 H 447.506 -1.0589 2.95713 0
M  V30 4894 H 446.699 0.0964704 5.03908 0
M  V30 4895 H 446.301 1.04845 3.59004 0
M  V30 4896 H 448.593 0.68407 6.74038 0
M  V30 4897 H 449.536 2.20823 6.72787 0
M  V30 4898 H 449.944 0.905716 5.57187 0
M  V30 4899 N 449.342 -1.36122 0.79427 0
M  V30 4900 C 450.57 -2.03362 0.380989 0
M  V30 4901 C 450.985 -1.59881 -1.00416 0
M  V30 4902 O 450.342 -0.790515 -1.6449 0
M  V30 4903 C 450.393 -3.58804 0.440649 0
M  V30 4904 O 450.114 -4.007 1.77118 0
M  V30 4905 C 451.615 -4.43296 0.0186117 0
M  V30 4906 H 448.835 -0.652526 0.156367 0
M  V30 4907 H 451.379 -1.73998 1.07447 0
M  V30 4908 H 449.534 -3.8686 -0.204458 0
M  V30 4909 H 449.948 -4.95309 1.72538 0
M  V30 4910 H 451.422 -5.51887 0.111488 0
M  V30 4911 H 451.899 -4.2684 -1.03461 0
M  V30 4912 H 452.505 -4.20512 0.636395 0
M  V30 4913 N 450.82 -0.546701 -1.47814 0
M  V30 4914 C 451.752 0.244196 -2.27895 0
M  V30 4915 C 452.765 0.88911 -1.36377 0
M  V30 4916 O 453.954 0.764733 -1.61289 0
M  V30 4917 C 451.054 1.36252 -3.10304 0
M  V30 4918 C 450.227 0.816382 -4.29714 0
M  V30 4919 C 449.286 1.81789 -4.93801 0
M  V30 4920 O 448.312 1.36818 -5.52512 0
M  V30 4921 N 449.514 3.15085 -4.87547 0
M  V30 4922 H 452.279 -0.442694 -2.96412 0
M  V30 4923 H 449.84 -0.382095 -1.57327 0
M  V30 4924 H 451.832 2.03102 -3.50045 0
M  V30 4925 H 450.402 1.95281 -2.44099 0
M  V30 4926 H 449.622 -0.0285981 -3.9419 0
M  V30 4927 H 450.91 0.430668 -5.06974 0
M  V30 4928 H 450.308 3.54275 -4.41028 0
M  V30 4929 H 448.865 3.77522 -5.31339 0
M  V30 4930 N 452.299 1.55045 -0.282633 0
M  V30 4931 C 453.262 2.21515 0.588539 0
M  V30 4932 C 454.262 1.19535 1.07554 0
M  V30 4933 O 455.452 1.44391 0.974514 0
M  V30 4934 C 452.584 2.88704 1.8128 0
M  V30 4935 H 453.777 2.99899 0.00806397 0
M  V30 4936 H 451.33 1.56265 -0.0333067 0
M  V30 4937 H 452.065 2.14352 2.43359 0
M  V30 4938 H 451.85 3.63443 1.47144 0
M  V30 4939 H 453.34 3.39465 2.43214 0
M  V30 4940 N 453.777 0.010035 1.57597 0
M  V30 4941 C 455.193 -0.346164 1.55801 0
M  V30 4942 C 455.393 -1.74144 1.01371 0
M  V30 4943 O 454.449 -2.43938 0.651968 0
M  V30 4944 C 455.762 -0.212216 2.9995 0
M  V30 4945 C 457.31 -0.286409 3.11687 0
M  V30 4946 C 457.785 -0.18147 4.5764 0
M  V30 4947 N 459.276 -0.239056 4.62583 0
M  V30 4948 C 460.011 -0.181351 5.73113 0
M  V30 4949 N 459.507 -0.073661 6.92761 0
M  V30 4950 N 461.3 -0.233949 5.61613 0
M  V30 4951 H 453.451 0.922657 1.91313 0
M  V30 4952 H 455.714 0.354595 0.879185 0
M  V30 4953 H 455.42 0.748169 3.4365 0
M  V30 4954 H 455.294 -0.990224 3.6397 0
M  V30 4955 H 457.681 -1.23724 2.67911 0
M  V30 4956 H 457.762 0.521645 2.50425 0
M  V30 4957 H 457.406 0.765863 5.02093 0
M  V30 4958 H 457.336 -1.00814 5.1686 0
M  V30 4959 H 459.827 -0.32321 3.76515 0
M  V30 4960 H 460.14 -0.0358003 7.72792 0
M  V30 4961 H 458.485 -0.0391461 6.94989 0
M  V30 4962 H 461.676 -0.316347 4.6703 0
M  V30 4963 H 461.849 -0.185514 6.47734 0
M  V30 4964 N 455.255 -1.55392 -0.262866 0
M  V30 4965 C 456.503 -1.76127 -0.991147 0
M  V30 4966 C 456.824 -0.571083 -1.8645 0
M  V30 4967 O 456.094 0.413698 -1.91482 0
M  V30 4968 H 454.674 -0.649528 -0.368948 0
M  V30 4969 H 457.336 -1.9281 -0.284655 0
M  V30 4970 H 456.432 -2.6663 -1.62219 0
M  V30 4971 N 456.733 0.527833 -1.48498 0
M  V30 4972 C 457.665 1.6482 -1.5927 0
M  V30 4973 C 458.678 1.55659 -0.476869 0
M  V30 4974 O 459.867 1.62081 -0.747806 0
M  V30 4975 C 456.967 3.0348 -1.50842 0
M  V30 4976 C 456.14 3.381 -2.77502 0
M  V30 4977 C 455.199 4.5605 -2.62497 0
M  V30 4978 O 454.225 4.59165 -3.36387 0
M  V30 4979 N 455.427 5.54353 -1.72257 0
M  V30 4980 H 458.192 1.56015 -2.55889 0
M  V30 4981 H 455.753 0.715152 -1.45249 0
M  V30 4982 H 457.745 3.80264 -1.38496 0
M  V30 4983 H 456.315 3.06352 -0.621887 0
M  V30 4984 H 455.535 2.50473 -3.04396 0
M  V30 4985 H 456.823 3.58017 -3.61527 0
M  V30 4986 H 456.221 5.54617 -1.11431 0
M  V30 4987 H 454.778 6.30347 -1.65849 0
M  V30 4988 N 458.211 1.37122 0.776871 0
M  V30 4989 C 459.627 1.1781 1.07671 0
M  V30 4990 C 459.827 0.0107454 2.01497 0
M  V30 4991 O 458.883 -0.650756 2.4397 0
M  V30 4992 C 460.196 2.49451 1.67913 0
M  V30 4993 C 461.744 2.55927 1.80195 0
M  V30 4994 C 462.219 3.87686 2.43851 0
M  V30 4995 N 463.71 3.891 2.51307 0
M  V30 4996 C 464.445 4.87797 3.014 0
M  V30 4997 N 463.941 5.96888 3.51705 0
M  V30 4998 N 465.734 4.75205 3.00227 0
M  V30 4999 H 457.885 2.11843 0.153778 0
M  V30 5000 H 460.148 0.938927 0.130844 0
M  V30 5001 H 459.854 3.35207 1.06439 0
M  V30 5002 H 459.728 2.66169 2.67271 0
M  V30 5003 H 462.115 1.70582 2.40803 0
M  V30 5004 H 462.196 2.43097 0.796069 0
M  V30 5005 H 461.84 4.73444 1.83884 0
M  V30 5006 H 461.77 3.97817 3.45035 0
M  V30 5007 H 464.261 3.10293 2.157 0
M  V30 5008 H 464.574 6.68155 3.88316 0
M  V30 5009 H 462.919 6.0054 3.49824 0
M  V30 5010 H 466.11 3.89103 2.60224 0
M  V30 5011 H 466.283 5.52279 3.38957 0
M  V30 5012 N 459.689 -1.00246 1.21608 0
M  V30 5013 C 460.914 -1.78167 1.06167 0
M  V30 5014 C 461.339 -1.84138 -0.384035 0
M  V30 5015 O 460.697 -1.28683 -1.27712 0
M  V30 5016 C 460.745 -3.19786 1.66642 0
M  V30 5017 O 459.849 -4.02153 0.913613 0
M  V30 5018 H 459.19 -0.549 0.37349 0
M  V30 5019 H 461.72 -1.25994 1.61204 0
M  V30 5020 H 461.73 -3.70451 1.70969 0
M  V30 5021 H 460.405 -3.14754 2.7185 0
M  V30 5022 H 458.982 -3.60711 0.945635 0
M  V30 5023 N 461.167 -1.02423 -1.1978 0
M  V30 5024 C 462.392 -0.7373 -1.93852 0
M  V30 5025 C 462.817 0.696923 -1.74713 0
M  V30 5026 O 462.175 1.48056 -1.04638 0
M  V30 5027 C 462.223 -1.08783 -3.438 0
M  V30 5028 O 461.327 -0.20383 -4.11896 0
M  V30 5029 H 460.668 -0.27284 -0.605355 0
M  V30 5030 H 463.198 -1.36966 -1.51992 0
M  V30 5031 H 463.208 -1.04276 -3.9445 0
M  V30 5032 H 461.883 -2.13274 -3.57053 0
M  V30 5033 H 460.46 -0.307091 -3.71633 0
M  V30 5034 N 462.645 1.35699 -0.801477 0
M  V30 5035 C 463.575 2.32436 -0.222658 0
M  V30 5036 C 464.556 1.5723 0.649057 0
M  V30 5037 O 465.741 1.85324 0.580387 0
M  V30 5038 C 462.871 3.41469 0.633719 0
M  V30 5039 C 461.825 4.27774 -0.139083 0
M  V30 5040 C 461.151 5.28082 0.838666 0
M  V30 5041 C 462.451 5.04946 -1.33517 0
M  V30 5042 H 464.145 2.81094 -1.03086 0
M  V30 5043 H 461.691 1.35146 -0.497155 0
M  V30 5044 H 463.644 4.08143 1.04868 0
M  V30 5045 H 462.368 2.91408 1.47475 0
M  V30 5046 H 461.027 3.62673 -0.535156 0
M  V30 5047 H 460.675 4.7429 1.67506 0
M  V30 5048 H 460.375 5.86695 0.32594 0
M  V30 5049 H 461.899 5.97628 1.25194 0
M  V30 5050 H 463.313 5.64593 -0.995349 0
M  V30 5051 H 461.71 5.7303 -1.78202 0
M  V30 5052 H 462.78 4.35886 -2.12442 0
M  V30 5053 N 464.123 0.554532 1.47522 0
M  V30 5054 C 465.086 -0.184174 2.28459 0
M  V30 5055 C 466.086 -0.845195 1.36796 0
M  V30 5056 O 467.276 -0.701467 1.59452 0
M  V30 5057 C 464.408 -1.26903 3.16399 0
M  V30 5058 H 465.601 0.526751 2.95238 0
M  V30 5059 H 463.154 0.311375 1.53167 0
M  V30 5060 H 463.889 -2.01244 2.54306 0
M  V30 5061 H 463.674 -0.799883 3.83854 0
M  V30 5062 H 465.164 -1.78794 3.77389 0
M  V30 5063 N 465.601 -1.54893 0.290851 0
M  V30 5064 C 466.511 -2.26812 -0.59945 0
M  V30 5065 C 467.527 -1.29963 -1.15696 0
M  V30 5066 O 468.703 -1.62928 -1.18391 0
M  V30 5067 C 465.768 -2.98716 -1.75982 0
M  V30 5068 C 464.829 -4.1108 -1.2374 0
M  V30 5069 C 464.062 -4.79546 -2.34246 0
M  V30 5070 O 464.285 -4.47309 -3.53936 0
M  V30 5071 O 463.219 -5.67165 -2.01512 0
M  V30 5072 H 467.045 -3.03696 -0.0163561 0
M  V30 5073 H 464.63 -1.49289 0.0576755 0
M  V30 5074 H 466.512 -3.43851 -2.43607 0
M  V30 5075 H 465.187 -2.24737 -2.3297 0
M  V30 5076 H 464.094 -3.70367 -0.527163 0
M  V30 5077 H 465.427 -4.87007 -0.71307 0
M  V30 5078 N 467.08 -0.0183926 -1.57589 0
M  V30 5079 C 468.357 0.700621 -1.82622 0
M  V30 5080 C 468.737 1.90951 -0.90005 0
M  V30 5081 O 468.085 2.28452 0.0469145 0
M  V30 5082 C 468.295 1.08899 -3.31575 0
M  V30 5083 C 469.643 1.48514 -3.9778 0
M  V30 5084 O 470.667 1.18227 -3.36007 0
M  V30 5085 O 469.526 2.04903 -5.06633 0
M  V30 5086 H 466.62 0.342743 -0.752633 0
M  V30 5087 H 469.166 -0.0452548 -1.6964 0
M  V30 5088 H 467.938 0.228113 -3.90635 0
M  V30 5089 H 467.561 1.89338 -3.49624 0
M  V30 5090 N 468.558 1.5553 0.254621 0
M  V30 5091 C 469.506 1.9048 1.33492 0
M  V30 5092 C 470.5 0.78304 1.50216 0
M  V30 5093 O 471.706 0.967582 1.51782 0
M  V30 5094 H 468.081 0.604846 0.44684 0
M  V30 5095 H 470.052 2.80688 1.01275 0
M  V30 5096 C 468.801 2.20928 2.68489 0
M  V30 5097 H 468.124 3.06742 2.56417 0
M  V30 5098 H 469.564 2.49291 3.42972 0
M  V30 5099 C 468.023 1.023 3.20993 0
M  V30 5100 O 468.553 0.267027 4.00811 0
M  V30 5101 N 466.759 0.815714 2.78917 0
M  V30 5102 H 466.306 1.43217 2.14119 0
M  V30 5103 H 466.264 0.0236532 3.14391 0
M  V30 5104 N 470.036 -0.519951 1.48776 0
M  V30 5105 C 470.946 -1.65025 1.66745 0
M  V30 5106 C 471.962 -1.6508 0.549954 0
M  V30 5107 O 473.138 -1.83848 0.822295 0
M  V30 5108 C 470.203 -3.0146 1.71238 0
M  V30 5109 C 469.264 -3.12182 2.94688 0
M  V30 5110 C 468.497 -4.42109 2.98958 0
M  V30 5111 O 468.72 -5.29799 2.1135 0
M  V30 5112 O 467.654 -4.57406 3.91233 0
M  V30 5113 H 471.48 -1.52801 2.62461 0
M  V30 5114 H 469.065 -0.694157 1.32294 0
M  V30 5115 H 470.947 -3.82584 1.76657 0
M  V30 5116 H 469.622 -3.13988 0.786975 0
M  V30 5117 H 468.529 -2.30316 2.94797 0
M  V30 5118 H 469.862 -3.04574 3.86646 0
M  V30 5119 N 471.514 -1.37532 -0.769588 0
M  V30 5120 C 472.739 -1.36231 -1.56384 0
M  V30 5121 C 473.164 0.0495849 -1.88035 0
M  V30 5122 O 472.522 1.02723 -1.49391 0
M  V30 5123 C 472.57 -2.20986 -2.84952 0
M  V30 5124 O 471.674 -1.61597 -3.79421 0
M  V30 5125 H 471.015 -0.465387 -0.473615 0
M  V30 5126 H 473.545 -1.81085 -0.952342 0
M  V30 5127 H 473.555 -2.34277 -3.34034 0
M  V30 5128 H 472.23 -3.23612 -2.61243 0
M  V30 5129 H 470.807 -1.57359 -3.38072 0
M  V30 5130 N 472.992 0.995999 -1.22138 0
M  V30 5131 C 474.217 1.77601 -1.0711 0
M  V30 5132 C 474.642 1.84339 0.374264 0
M  V30 5133 O 474 1.29359 1.27028 0
M  V30 5134 C 474.048 3.18897 -1.68336 0
M  V30 5135 O 473.152 4.01663 -0.934928 0
M  V30 5136 H 472.493 0.547011 -0.376397 0
M  V30 5137 H 475.023 1.25137 -1.6187 0
M  V30 5138 H 475.033 3.69539 -1.72931 0
M  V30 5139 H 473.708 3.13308 -2.73516 0
M  V30 5140 H 472.285 3.60204 -0.964751 0
M  V30 5141 N 474.47 1.03057 1.19235 0
M  V30 5142 C 475.7 0.746613 1.92638 0
M  V30 5143 C 476.108 -0.698708 1.75826 0
M  V30 5144 O 475.451 -1.487 1.07861 0
M  V30 5145 C 475.513 1.02024 3.44719 0
M  V30 5146 C 475.177 2.45745 3.85303 0
M  V30 5147 C 476.174 3.43887 3.8992 0
M  V30 5148 C 473.859 2.8019 4.16892 0
M  V30 5149 C 475.853 4.74529 4.2556 0
M  V30 5150 C 473.54 4.1104 4.52205 0
M  V30 5151 C 474.538 5.0802 4.56513 0
M  V30 5152 O 474.226 6.36527 4.91008 0
M  V30 5153 H 473.958 0.272401 0.618687 0
M  V30 5154 H 476.512 1.37853 1.52269 0
M  V30 5155 H 474.742 0.331184 3.85279 0
M  V30 5156 H 476.431 0.725677 3.9936 0
M  V30 5157 H 477.197 3.18614 3.65664 0
M  V30 5158 H 473.076 2.05382 4.12722 0
M  V30 5159 H 476.62 5.50222 4.28838 0
M  V30 5160 H 472.517 4.36086 4.7592 0
M  V30 5161 H 473.285 6.41025 5.08949 0
M  V30 5162 N 475.948 -1.35272 0.808662 0
M  V30 5163 C 477.173 -2.03477 0.401475 0
M  V30 5164 C 477.598 -1.60537 -0.980279 0
M  V30 5165 O 476.956 -0.78304 -1.63518 0
M  V30 5166 C 477.004 -3.57181 0.495354 0
M  V30 5167 O 476.108 -4.09474 -0.490397 0
M  V30 5168 H 475.449 -0.642561 0.167366 0
M  V30 5169 H 477.979 -1.72824 1.09512 0
M  V30 5170 H 477.989 -4.06356 0.365912 0
M  V30 5171 H 476.664 -3.87784 1.5032 0
M  V30 5172 H 475.241 -3.71516 -0.321023 0
M  V30 5173 N 477.426 -0.562348 -1.47226 0
M  V30 5174 C 478.842 -0.222492 -1.58042 0
M  V30 5175 C 479.042 1.27505 -1.56028 0
M  V30 5176 O 478.098 2.05555 -1.46641 0
M  V30 5177 C 479.411 -0.853694 -2.88327 0
M  V30 5178 C 480.959 -0.825397 -3.01921 0
M  V30 5179 C 481.434 -1.43576 -4.34914 0
M  V30 5180 N 482.925 -1.39918 -4.41562 0
M  V30 5181 C 483.66 -1.84103 -5.43041 0
M  V30 5182 N 483.156 -2.36167 -6.51304 0
M  V30 5183 N 484.949 -1.75142 -5.34118 0
M  V30 5184 H 477.1 -1.53525 -1.46778 0
M  V30 5185 H 479.363 -0.640527 -0.698877 0
M  V30 5186 H 479.069 -1.90635 -2.95552 0
M  V30 5187 H 478.943 -0.34977 -3.75575 0
M  V30 5188 H 481.33 0.218583 -2.94289 0
M  V30 5189 H 481.411 -1.36713 -2.16202 0
M  V30 5190 H 481.055 -2.47884 -4.43301 0
M  V30 5191 H 480.985 -0.869427 -5.19373 0
M  V30 5192 H 483.476 -1.0184 -3.63919 0
M  V30 5193 H 483.789 -2.67793 -7.24919 0
M  V30 5194 H 482.134 -2.40181 -6.52179 0
M  V30 5195 H 485.325 -1.34241 -4.48439 0
M  V30 5196 H 485.498 -2.09895 -6.13065 0
M  V30 5197 N 478.904 1.54736 -0.299062 0
M  V30 5198 C 480.152 1.99706 0.31017 0
M  V30 5199 C 480.473 1.18896 1.54559 0
M  V30 5200 O 479.743 0.284445 1.93824 0
M  V30 5201 H 478.323 0.737686 0.117596 0
M  V30 5202 H 480.985 1.9054 -0.409943 0
M  V30 5203 H 480.081 3.06596 0.58355 0
M  V30 5204 N 480.382 0.0267497 1.57577 0
M  V30 5205 C 481.629 -0.652404 1.91703 0
M  V30 5206 C 481.957 -1.72271 0.902936 0
M  V30 5207 O 481.212 -1.955 -0.0884843 0
M  V30 5208 C 481.511 -1.30914 3.3256 0
M  V30 5209 C 481.177 -0.369441 4.49384 0
M  V30 5210 C 479.839 -0.110791 4.81072 0
M  V30 5211 C 482.191 0.275971 5.20469 0
M  V30 5212 C 479.519 0.801116 5.81205 0
M  V30 5213 C 481.871 1.17592 6.21575 0
M  V30 5214 C 480.535 1.44348 6.51705 0
M  V30 5215 H 479.805 -0.238732 0.70149 0
M  V30 5216 H 482.452 0.0880091 1.91298 0
M  V30 5217 H 480.757 -2.12425 3.29216 0
M  V30 5218 H 482.454 -1.84115 3.56234 0
M  V30 5219 H 479.044 -0.581211 4.24641 0
M  V30 5220 H 483.228 0.0892 4.9622 0
M  V30 5221 H 478.484 1.01614 6.02897 0
M  V30 5222 H 482.658 1.68223 6.75777 0
M  V30 5223 H 480.285 2.15176 7.29111 0
M  V30 5224 N 481.861 -1.55662 -0.24637 0
M  V30 5225 C 483.138 -1.68272 -0.997198 0
M  V30 5226 C 483.518 -0.566785 -2.03349 0
M  V30 5227 O 482.866 0.429688 -2.24424 0
M  V30 5228 C 483.076 -3.08594 -1.63006 0
M  V30 5229 C 484.424 -3.6721 -2.13171 0
M  V30 5230 O 485.448 -3.11397 -1.72946 0
M  V30 5231 O 484.307 -4.65054 -2.87031 0
M  V30 5232 H 481.401 -0.684429 -0.464205 0
M  V30 5233 H 483.947 -1.67993 -0.240114 0
M  V30 5234 H 482.719 -3.81264 -0.880527 0
M  V30 5235 H 482.342 -3.12886 -2.45333 0
M  V30 5236 N 483.339 0.512053 -1.4905 0
M  V30 5237 C 484.272 1.63209 -1.59493 0
M  V30 5238 C 485.25 1.56407 -0.444481 0
M  V30 5239 O 486.434 1.76623 -0.658535 0
M  V30 5240 C 483.561 3.01685 -1.53961 0
M  V30 5241 C 482.607 3.26786 -2.74068 0
M  V30 5242 S 483.44 3.11107 -4.35859 0
M  V30 5243 C 484.596 4.51997 -4.32954 0
M  V30 5244 H 484.829 1.54104 -2.54243 0
M  V30 5245 H 482.362 0.696382 -1.37804 0
M  V30 5246 H 484.32 3.81538 -1.51455 0
M  V30 5247 H 482.981 3.08215 -0.605178 0
M  V30 5248 H 482.174 4.27849 -2.66386 0
M  V30 5249 H 481.776 2.54635 -2.73928 0
M  V30 5250 H 484.068 5.43871 -4.03993 0
M  V30 5251 H 485.011 4.64731 -5.34257 0
M  V30 5252 H 485.419 4.32159 -3.63178 0
M  V30 5253 N 484.817 1.37938 0.762283 0
M  V30 5254 C 486.045 1.36883 1.55147 0
M  V30 5255 C 486.46 -0.0435348 1.8875 0
M  V30 5256 O 485.817 -1.00786 1.52146 0
M  V30 5257 C 485.868 2.21624 2.85596 0
M  V30 5258 O 485.589 3.57358 2.5343 0
M  V30 5259 C 487.09 2.28653 3.7978 0
M  V30 5260 H 484.31 0.468521 0.480343 0
M  V30 5261 H 486.854 1.81404 0.944079 0
M  V30 5262 H 485.009 1.80588 3.42734 0
M  V30 5263 H 485.423 4.01883 3.37032 0
M  V30 5264 H 486.897 2.9225 4.68288 0
M  V30 5265 H 487.374 1.29767 4.19592 0
M  V30 5266 H 487.98 2.70043 3.28568 0
M  V30 5267 N 486.295 -0.989507 1.22664 0
M  V30 5268 C 487.525 -1.7624 1.0781 0
M  V30 5269 C 487.933 -1.85466 -0.374036 0
M  V30 5270 O 487.276 -1.32645 -1.27087 0
M  V30 5271 C 487.338 -3.21007 1.61849 0
M  V30 5272 C 487.002 -3.35316 3.10503 0
M  V30 5273 C 487.999 -3.22362 4.07896 0
M  V30 5274 C 485.684 -3.60258 3.50028 0
M  V30 5275 C 487.678 -3.34139 5.42798 0
M  V30 5276 C 485.365 -3.71676 4.85078 0
M  V30 5277 C 486.363 -3.58625 5.81272 0
M  V30 5278 O 486.051 -3.69655 7.1387 0
M  V30 5279 H 485.783 -0.560209 0.378341 0
M  V30 5280 H 488.337 -1.25252 1.62792 0
M  V30 5281 H 486.567 -3.73202 1.01279 0
M  V30 5282 H 488.256 -3.80024 1.42606 0
M  V30 5283 H 489.022 -3.03 3.78703 0
M  V30 5284 H 484.901 -3.69492 2.75675 0
M  V30 5285 H 488.445 -3.23869 6.17863 0
M  V30 5286 H 484.342 -3.90545 5.1395 0
M  V30 5287 H 485.11 -3.86507 7.21495 0
M  V30 5288 N 487.773 -1.03688 -1.18687 0
M  V30 5289 C 489.001 -0.757918 -1.92518 0
M  V30 5290 C 489.416 0.684398 -1.75959 0
M  V30 5291 O 488.773 1.46617 -1.08673 0
M  V30 5292 C 488.824 -1.10985 -3.44042 0
M  V30 5293 O 488.545 -2.49554 -3.60076 0
M  V30 5294 C 490.046 -0.854844 -4.3498 0
M  V30 5295 H 487.266 -0.276699 -0.611293 0
M  V30 5296 H 489.81 -1.38352 -1.50595 0
M  V30 5297 H 487.965 -0.529279 -3.83767 0
M  V30 5298 H 488.379 -2.6291 -4.53849 0
M  V30 5299 H 489.853 -1.15098 -5.39867 0
M  V30 5300 H 490.33 0.210507 -4.38695 0
M  V30 5301 H 490.936 -1.41853 -4.00946 0
M  V30 5302 N 489.251 1.34841 -0.815825 0
M  V30 5303 C 490.161 2.33425 -0.234462 0
M  V30 5304 C 491.177 1.62295 0.627413 0
M  V30 5305 O 492.353 1.94109 0.536987 0
M  V30 5306 C 489.418 3.41471 0.599849 0
M  V30 5307 C 488.479 4.28362 -0.283596 0
M  V30 5308 C 487.712 5.31248 0.51099 0
M  V30 5309 O 487.935 5.43056 1.7449 0
M  V30 5310 O 486.869 6.01812 -0.10297 0
M  V30 5311 H 490.695 2.84962 -1.05024 0
M  V30 5312 H 488.28 1.37774 -0.577809 0
M  V30 5313 H 490.162 4.07464 1.07475 0
M  V30 5314 H 488.837 2.9219 1.39308 0
M  V30 5315 H 487.744 3.65318 -0.805836 0
M  V30 5316 H 489.077 4.81066 -1.041 0
M  V30 5317 N 490.729 0.570148 1.46925 0
M  V30 5318 C 491.976 0.0509529 2.02436 0
M  V30 5319 C 492.304 -1.30405 1.44308 0
M  V30 5320 O 491.559 -1.86493 0.593198 0
M  V30 5321 C 491.858 -0.0780336 3.57315 0
M  V30 5322 C 491.524 1.20775 4.34424 0
M  V30 5323 C 490.186 1.56004 4.5521 0
M  V30 5324 C 492.538 2.0592 4.78797 0
M  V30 5325 C 489.866 2.76201 5.17619 0
M  V30 5326 C 492.218 3.25332 5.42533 0
M  V30 5327 C 490.882 3.60859 5.61549 0
M  V30 5328 H 490.152 0.018645 0.740765 0
M  V30 5329 H 492.799 0.744262 1.76445 0
M  V30 5330 H 491.104 -0.854394 3.82371 0
M  V30 5331 H 492.801 -0.495312 3.97929 0
M  V30 5332 H 489.391 0.923469 4.18533 0
M  V30 5333 H 493.575 1.80008 4.62505 0
M  V30 5334 H 488.831 3.0388 5.30535 0
M  V30 5335 H 493.005 3.91586 5.75876 0
M  V30 5336 H 490.632 4.54088 6.09678 0
M  V30 5337 N 492.207 -1.54576 0.307264 0
M  V30 5338 C 493.484 -1.92377 -0.353605 0
M  V30 5339 C 493.864 -1.23517 -1.71192 0
M  V30 5340 O 493.212 -0.373101 -2.25433 0
M  V30 5341 C 493.422 -3.45928 -0.462039 0
M  V30 5342 C 494.77 -4.18278 -0.729975 0
M  V30 5343 O 495.794 -3.51997 -0.545605 0
M  V30 5344 O 494.653 -5.3563 -1.08454 0
M  V30 5345 H 491.747 -0.802747 -0.198812 0
M  V30 5346 H 494.293 -1.65929 0.355783 0
M  V30 5347 H 493.065 -3.88187 0.492592 0
M  V30 5348 H 492.688 -3.78431 -1.21965 0
M  V30 5349 N 493.685 -0.035106 -1.57561 0
M  V30 5350 C 494.915 0.651312 -1.96065 0
M  V30 5351 C 495.323 1.6585 -0.910514 0
M  V30 5352 O 494.666 1.83336 0.11552 0
M  V30 5353 C 494.728 1.40897 -3.30739 0
M  V30 5354 C 494.392 0.559436 -4.53563 0
M  V30 5355 C 495.389 -0.16778 -5.19629 0
M  V30 5356 C 493.074 0.495079 -4.99854 0
M  V30 5357 C 495.068 -0.947963 -6.30311 0
M  V30 5358 C 492.755 -0.288804 -6.10417 0
M  V30 5359 C 493.753 -1.00903 -6.75505 0
M  V30 5360 O 493.441 -1.78005 -7.83945 0
M  V30 5361 H 493.173 0.184036 -0.650467 0
M  V30 5362 H 495.727 -0.0929677 -2.05189 0
M  V30 5363 H 493.957 2.19852 -3.18123 0
M  V30 5364 H 495.646 1.98407 -3.54104 0
M  V30 5365 H 496.412 -0.12743 -4.84833 0
M  V30 5366 H 492.291 1.04524 -4.48994 0
M  V30 5367 H 495.835 -1.51064 -6.81047 0
M  V30 5368 H 491.732 -0.33085 -6.44652 0
M  V30 5369 H 492.5 -1.70046 -8.00641 0
M  V30 5370 N 495.163 1.55791 0.238111 0
M  V30 5371 C 496.44 1.68798 0.98826 0
M  V30 5372 C 496.82 0.577562 2.03045 0
M  V30 5373 O 496.168 -0.41778 2.24648 0
M  V30 5374 C 496.378 3.09454 1.61367 0
M  V30 5375 C 497.726 3.68335 2.11221 0
M  V30 5376 O 498.75 3.1231 1.71292 0
M  V30 5377 O 497.609 4.6657 2.84561 0
M  V30 5378 H 494.703 0.686881 0.460568 0
M  V30 5379 H 497.249 1.68118 0.231202 0
M  V30 5380 H 496.021 3.81726 0.860295 0
M  V30 5381 H 495.644 3.14182 2.4367 0
M  V30 5382 N 496.642 -0.504142 1.49319 0
M  V30 5383 C 497.572 -1.61473 1.68667 0
M  V30 5384 C 498.553 -1.61455 0.535378 0
M  V30 5385 O 499.738 -1.78245 0.770868 0
M  V30 5386 C 496.868 -2.99971 1.75028 0
M  V30 5387 C 495.822 -3.14854 2.89916 0
M  V30 5388 C 495.148 -4.54671 2.81387 0
M  V30 5389 C 496.448 -2.95176 4.30893 0
M  V30 5390 H 498.142 -1.45535 2.61648 0
M  V30 5391 H 495.688 -0.698711 1.25913 0
M  V30 5392 H 497.641 -3.77562 1.8715 0
M  V30 5393 H 496.365 -3.1699 0.786441 0
M  V30 5394 H 495.024 -2.39687 2.77391 0
M  V30 5395 H 494.672 -4.68562 1.82917 0
M  V30 5396 H 494.372 -4.6557 3.58494 0
M  V30 5397 H 495.896 -5.34327 2.95512 0
M  V30 5398 H 497.31 -3.62538 4.44116 0
M  V30 5399 H 495.707 -3.17549 5.09198 0
M  V30 5400 H 496.777 -1.91332 4.45556 0
M  V30 5401 N 498.12 -1.38341 -0.754957 0
M  V30 5402 C 499.36 -1.35888 -1.52689 0
M  V30 5403 C 499.724 0.0513682 -1.91931 0
M  V30 5404 O 500.925 0.200761 -2.68049 0
M  V30 5405 C 499.196 -2.28666 -2.74676 0
M  V30 5406 S 500.755 -2.4422 -3.64558 0
M  V30 5407 H 497.573 -0.482165 -0.522531 0
M  V30 5408 H 500.175 -1.74253 -0.886358 0
M  V30 5409 H 498.879 -3.30023 -2.43953 0
M  V30 5410 H 498.41 -1.91445 -3.43675 0
M  V30 5411 H 500.425 -1.66525 -4.67423 0
M  V30 5412 N 499.598 0.982988 -1.23187 0
M  V30 5413 C 500.546 2.09616 -1.00817 0
M  V30 5414 C 501.54 1.6932 0.0519995 0
M  V30 5415 O 502.746 1.79715 -0.101284 0
M  V30 5416 H 499.121 0.685628 -0.308899 0
M  V30 5417 H 501.092 2.25652 -1.95253 0
M  V30 5418 C 499.841 3.42249 -0.613243 0
M  V30 5419 H 499.164 3.73705 -1.42073 0
M  V30 5420 H 500.604 4.21086 -0.496208 0
M  V30 5421 C 499.063 3.30002 0.678233 0
M  V30 5422 O 499.593 3.6263 1.72807 0
M  V30 5423 N 497.799 2.83164 0.653165 0
M  V30 5424 H 497.346 2.56811 -0.201492 0
M  V30 5425 H 497.304 2.75352 1.51752 0
M  V30 5426 N 501.076 1.04316 1.18135 0
M  V30 5427 C 501.986 0.646876 2.25505 0
M  V30 5428 C 503.002 -0.328008 1.7088 0
M  V30 5429 O 504.178 -0.182309 2.00573 0
M  V30 5430 C 501.243 0.0185664 3.46695 0
M  V30 5431 C 500.304 1.04277 4.16443 0
M  V30 5432 C 499.537 0.444352 5.31847 0
M  V30 5433 O 499.76 -0.748735 5.65465 0
M  V30 5434 O 498.694 1.17428 5.90334 0
M  V30 5435 H 502.52 1.54147 2.61672 0
M  V30 5436 H 500.105 0.814188 1.25265 0
M  V30 5437 H 501.987 -0.331068 4.20097 0
M  V30 5438 H 500.662 -0.849814 3.12346 0
M  V30 5439 H 499.569 1.44425 3.45098 0
M  V30 5440 H 500.902 1.882 4.54798 0
M  V30 5441 N 502.554 -1.34406 0.822964 0
M  V30 5442 C 503.8 -1.98578 0.411666 0
M  V30 5443 C 504.133 -1.65093 -1.02264 0
M  V30 5444 O 503.408 -0.92258 -1.71227 0
M  V30 5445 C 503.691 -3.54823 0.614235 0
M  V30 5446 C 503.544 -3.9805 2.09466 0
M  V30 5447 C 504.863 -4.40071 0.050221 0
M  V30 5448 H 501.982 -0.721355 0.151047 0
M  V30 5449 H 504.624 -1.59301 1.03554 0
M  V30 5450 H 502.774 -3.88411 0.0831774 0
M  V30 5451 H 504.446 -3.74795 2.68936 0
M  V30 5452 H 502.689 -3.4836 2.5851 0
M  V30 5453 H 503.36 -5.06819 2.18721 0
M  V30 5454 H 505.836 -4.13037 0.503953 0
M  V30 5455 H 504.712 -5.48452 0.221759 0
M  V30 5456 H 504.973 -4.29576 -1.04482 0
M  V30 5457 N 504.032 -0.577932 -1.46621 0
M  V30 5458 C 505.278 -0.0617793 -2.02706 0
M  V30 5459 C 505.611 1.29294 -1.44903 0
M  V30 5460 O 504.886 1.8461 -0.61232 0
M  V30 5461 C 505.169 0.00911824 -3.60099 0
M  V30 5462 C 505.022 -1.37416 -4.28295 0
M  V30 5463 C 506.341 0.712159 -4.343 0
M  V30 5464 H 503.46 -0.0239246 -0.736612 0
M  V30 5465 H 506.102 -0.744211 -1.74818 0
M  V30 5466 H 504.252 0.590292 -3.83989 0
M  V30 5467 H 505.924 -2.00013 -4.15683 0
M  V30 5468 H 504.167 -1.94319 -3.87843 0
M  V30 5469 H 504.838 -1.27707 -5.37024 0
M  V30 5470 H 507.314 0.218486 -4.15526 0
M  V30 5471 H 506.19 0.730782 -5.44014 0
M  V30 5472 H 506.451 1.77251 -4.05012 0
M  V30 5473 N 505.51 1.54411 -0.315457 0
M  V30 5474 C 506.787 1.92562 0.343398 0
M  V30 5475 C 507.167 1.24423 1.70535 0
M  V30 5476 O 506.515 0.385051 2.25232 0
M  V30 5477 C 506.725 3.46168 0.443687 0
M  V30 5478 C 508.073 4.18659 0.707783 0
M  V30 5479 O 509.097 3.52281 0.52693 0
M  V30 5480 O 507.956 5.36198 1.05612 0
M  V30 5481 H 505.05 0.80379 0.194552 0
M  V30 5482 H 507.596 1.65738 -0.364577 0
M  V30 5483 H 506.368 3.8792 -0.513172 0
M  V30 5484 H 505.991 3.79073 1.19956 0
M  V30 5485 N 506.988 0.0434614 1.5754 0
M  V30 5486 C 508.234 -0.632971 1.92669 0
M  V30 5487 C 508.567 -1.70947 0.921446 0
M  V30 5488 O 507.842 -1.94426 -0.0537202 0
M  V30 5489 C 508.125 -1.23619 3.38216 0
M  V30 5490 C 507.978 -0.168274 4.49485 0
M  V30 5491 C 509.297 -2.15008 3.84005 0
M  V30 5492 H 506.416 -0.228629 0.700641 0
M  V30 5493 H 509.058 0.103651 1.89717 0
M  V30 5494 H 507.208 -1.864 3.40863 0
M  V30 5495 H 508.88 0.463196 4.58969 0
M  V30 5496 H 507.123 0.504581 4.30855 0
M  V30 5497 H 507.794 -0.630218 5.48391 0
M  V30 5498 H 510.27 -1.62198 3.83185 0
M  V30 5499 H 509.146 -2.54161 4.86511 0
M  V30 5500 H 509.407 -3.04707 3.20322 0
M  V30 5501 N 508.466 -1.55915 -0.229846 0
M  V30 5502 C 509.694 -1.82617 -0.972562 0
M  V30 5503 C 510.109 -0.621488 -1.78278 0
M  V30 5504 O 509.466 0.409956 -1.77836 0
M  V30 5505 C 509.517 -3.0774 -1.89679 0
M  V30 5506 O 509.238 -4.23559 -1.11934 0
M  V30 5507 C 510.739 -3.47368 -2.75409 0
M  V30 5508 H 507.959 -0.60727 -0.285419 0
M  V30 5509 H 510.503 -2.02996 -0.247579 0
M  V30 5510 H 508.658 -2.89361 -2.57583 0
M  V30 5511 H 509.072 -4.94586 -1.74599 0
M  V30 5512 H 510.546 -4.37977 -3.35977 0
M  V30 5513 H 511.023 -2.68737 -3.47386 0
M  V30 5514 H 511.629 -3.68158 -2.12931 0
M  V30 5515 N 509.944 0.496216 -1.49584 0
M  V30 5516 C 511.184 1.26015 -1.60933 0
M  V30 5517 C 511.548 1.89772 -0.291646 0
M  V30 5518 O 512.749 2.67334 -0.280357 0
M  V30 5519 C 511.02 2.29506 -2.73974 0
M  V30 5520 S 512.579 3.15175 -3.05303 0
M  V30 5521 H 509.397 0.428194 -0.567601 0
M  V30 5522 H 511.999 0.561484 -1.87263 0
M  V30 5523 H 510.703 1.81205 -3.68229 0
M  V30 5524 H 510.234 3.04036 -2.49651 0
M  V30 5525 H 512.249 4.30244 -2.47193 0
M  V30 5526 N 511.423 1.38739 0.74761 0
M  V30 5527 C 512.648 1.38702 1.54197 0
M  V30 5528 C 513.073 -0.019664 1.8809 0
M  V30 5529 O 512.431 -1.00333 1.51006 0
M  V30 5530 C 512.479 2.25492 2.814 0
M  V30 5531 O 511.583 1.67613 3.76802 0
M  V30 5532 H 510.924 0.472863 0.466151 0
M  V30 5533 H 513.454 1.82577 0.923413 0
M  V30 5534 H 513.464 2.39561 3.30264 0
M  V30 5535 H 512.139 3.27727 2.56062 0
M  V30 5536 H 510.716 1.62718 3.35526 0
M  V30 5537 N 512.901 -0.976442 1.23707 0
M  V30 5538 C 514.312 -1.53284 1.06587 0
M  V30 5539 C 514.663 -1.92765 -0.365526 0
M  V30 5540 O 513.788 -1.7645 -1.25277 0
M  V30 5541 C 514.383 -2.78548 1.92864 0
M  V30 5542 C 512.942 -3.30574 1.79994 0
M  V30 5543 C 512.089 -2.03538 1.88328 0
M  V30 5544 H 515.04 -0.795692 1.37311 0
M  V30 5545 H 515.061 -3.5155 1.45577 0
M  V30 5546 H 514.573 -2.49782 2.97037 0
M  V30 5547 H 512.674 -3.64211 0.786202 0
M  V30 5548 H 512.787 -4.00065 2.636 0
M  V30 5549 H 511.151 -2.17853 1.31954 0
M  V30 5550 H 511.934 -1.77149 2.94063 0
M  V30 5551 N 514.379 -1.04941 -1.1758 0
M  V30 5552 C 515.326 -0.648155 -2.21512 0
M  V30 5553 C 516.296 0.348431 -1.62404 0
M  V30 5554 O 517.481 0.240419 -1.89279 0
M  V30 5555 C 514.621 -0.0264291 -3.4509 0
M  V30 5556 C 513.734 -1.07154 -4.185 0
M  V30 5557 C 512.869 -0.417403 -5.29558 0
M  V30 5558 C 511.908 -1.447 -5.94751 0
M  V30 5559 N 511.045 -0.817203 -6.97328 0
M  V30 5560 H 515.885 -1.53891 -2.55189 0
M  V30 5561 H 513.422 -0.769699 -1.25356 0
M  V30 5562 H 515.38 0.351456 -4.15717 0
M  V30 5563 H 514.01 0.827802 -3.12005 0
M  V30 5564 H 513.062 -1.56728 -3.46613 0
M  V30 5565 H 514.374 -1.8532 -4.63096 0
M  V30 5566 H 513.528 0.0142061 -6.06698 0
M  V30 5567 H 512.267 0.396265 -4.86087 0
M  V30 5568 H 511.272 -1.88865 -5.16343 0
M  V30 5569 H 512.497 -2.26252 -6.40302 0
M  V30 5570 H 510.443 -0.0239995 -6.55996 0
M  V30 5571 H 510.36 -1.53644 -7.40223 0
M  V30 5572 H 511.628 -0.410283 -7.7842 0
M  V30 5573 N 515.857 1.33968 -0.830081 0
M  V30 5574 C 517.268 1.80439 -0.479455 0
M  V30 5575 C 517.619 1.68756 1.00079 0
M  V30 5576 O 516.744 1.23171 1.77927 0
M  V30 5577 C 517.339 3.27611 -0.863505 0
M  V30 5578 C 515.898 3.72133 -0.565145 0
M  V30 5579 C 515.045 2.55549 -1.07657 0
M  V30 5580 H 517.996 1.21614 -1.0196 0
M  V30 5581 H 518.017 3.8012 -0.170083 0
M  V30 5582 H 517.529 3.36082 -1.94089 0
M  V30 5583 H 515.63 3.69196 0.502536 0
M  V30 5584 H 515.743 4.65963 -1.11422 0
M  V30 5585 H 514.107 2.49788 -0.497807 0
M  V30 5586 H 514.89 2.66786 -2.16055 0
M  V30 5587 N 517.335 0.585699 1.46312 0
M  V30 5588 C 518.612 0.00542031 1.95599 0
M  V30 5589 C 518.992 -1.45619 1.52834 0
M  V30 5590 O 518.34 -2.14759 0.780446 0
M  V30 5591 C 518.55 0.180601 3.48532 0
M  V30 5592 C 519.898 0.049979 4.24571 0
M  V30 5593 O 520.922 0.109589 3.56031 0
M  V30 5594 O 519.781 -0.0832226 5.46437 0
M  V30 5595 H 516.875 -0.0481281 0.825598 0
M  V30 5596 H 519.421 0.654227 1.56582 0
M  V30 5597 H 518.193 1.19657 3.72556 0
M  V30 5598 H 517.816 -0.504498 3.94386 0
M  V30 5599 N 518.813 -1.54241 0.323641 0
M  V30 5600 C 519.776 -2.22997 -0.529602 0
M  V30 5601 C 520.776 -1.22345 -1.04347 0
M  V30 5602 O 521.966 -1.46924 -0.935889 0
M  V30 5603 C 519.098 -2.93409 -1.73562 0
M  V30 5604 H 520.291 -2.99815 0.0714518 0
M  V30 5605 H 517.844 -1.56121 0.0747258 0
M  V30 5606 H 518.579 -2.20729 -2.37591 0
M  V30 5607 H 518.364 -3.67217 -1.37456 0
M  V30 5608 H 519.854 -3.45794 -2.34128 0
M  V30 5609 N 520.291 -0.0518155 -1.57515 0
M  V30 5610 C 521.538 0.621823 -1.92716 0
M  V30 5611 C 521.866 1.70813 -0.930229 0
M  V30 5612 O 521.121 1.95616 0.0573708 0
M  V30 5613 C 521.42 1.25607 -3.34601 0
M  V30 5614 C 521.086 0.297901 -4.49915 0
M  V30 5615 C 519.748 0.034243 -4.81188 0
M  V30 5616 C 522.1 -0.358738 -5.19964 0
M  V30 5617 C 519.428 -0.893479 -5.79857 0
M  V30 5618 C 521.78 -1.27466 -6.19625 0
M  V30 5619 C 520.444 -1.54698 -6.49326 0
M  V30 5620 H 519.714 0.227541 -0.705199 0
M  V30 5621 H 522.361 -0.118432 -1.91133 0
M  V30 5622 H 520.666 2.07161 -3.32553 0
M  V30 5623 H 522.363 1.78424 -3.59118 0
M  V30 5624 H 518.953 0.513581 -4.25512 0
M  V30 5625 H 523.137 -0.168133 -4.96015 0
M  V30 5626 H 518.393 -1.11193 -6.01204 0
M  V30 5627 H 522.567 -1.78953 -6.73015 0
M  V30 5628 H 520.194 -2.26748 -7.25596 0
M  V30 5629 N 521.769 1.56035 0.221574 0
M  V30 5630 C 522.717 1.93269 1.29421 0
M  V30 5631 C 523.711 0.814727 1.48521 0
M  V30 5632 O 524.917 0.999559 1.49696 0
M  V30 5633 H 521.292 0.614188 0.43391 0
M  V30 5634 H 523.263 2.82773 0.952987 0
M  V30 5635 C 522.012 2.26573 2.63742 0
M  V30 5636 H 521.335 3.12112 2.49853 0
M  V30 5637 H 522.775 2.5651 3.37607 0
M  V30 5638 C 521.234 1.09086 3.1875 0
M  V30 5639 O 521.764 0.351985 4.00155 0
M  V30 5640 N 519.97 0.874693 2.77124 0
M  V30 5641 H 519.517 1.47726 2.11033 0
M  V30 5642 H 519.475 0.0903349 3.1427 0
M  V30 5643 N 523.247 -0.488276 1.49845 0
M  V30 5644 C 524.658 -1.06955 1.53028 0
M  V30 5645 C 525.009 -1.9351 0.323797 0
M  V30 5646 O 524.134 -2.08891 -0.565116 0
M  V30 5647 C 524.729 -1.94643 2.77307 0
M  V30 5648 C 523.288 -2.4791 2.83227 0
M  V30 5649 C 522.435 -1.25833 2.47106 0
M  V30 5650 H 525.386 -0.271626 1.56358 0
M  V30 5651 H 525.407 -2.79496 2.5819 0
M  V30 5652 H 524.919 -1.31621 3.65099 0
M  V30 5653 H 523.02 -3.14535 1.99745 0
M  V30 5654 H 523.133 -2.84193 3.85709 0
M  V30 5655 H 521.497 -1.58764 1.99163 0
M  V30 5656 H 522.28 -0.644993 3.37186 0
M  V30 5657 N 524.725 -1.39134 -0.740242 0
M  V30 5658 C 525.965 -1.37499 -1.51239 0
M  V30 5659 C 526.329 0.0310084 -1.91975 0
M  V30 5660 O 527.53 0.172319 -2.68247 0
M  V30 5661 C 525.801 -2.31566 -2.72235 0
M  V30 5662 S 527.36 -2.48073 -3.61947 0
M  V30 5663 H 524.178 -0.48768 -0.517387 0
M  V30 5664 H 526.78 -1.75183 -0.867826 0
M  V30 5665 H 525.484 -3.32592 -2.40439 0
M  V30 5666 H 525.015 -1.9508 -3.41625 0
M  V30 5667 H 527.03 -1.71473 -4.6563 0
M  V30 5668 N 526.204 0.969867 -1.24223 0
M  V30 5669 C 527.114 2.09806 -1.0497 0
M  V30 5670 C 528.13 1.73998 0.00886455 0
M  V30 5671 O 529.306 2.00513 -0.188848 0
M  V30 5672 C 526.371 3.40467 -0.654452 0
M  V30 5673 C 525.432 3.90236 -1.78926 0
M  V30 5674 C 524.665 5.14662 -1.41277 0
M  V30 5675 O 524.888 5.69602 -0.301632 0
M  V30 5676 O 523.822 5.58761 -2.23763 0
M  V30 5677 H 527.648 2.28942 -1.99548 0
M  V30 5678 H 525.233 1.08197 -1.03023 0
M  V30 5679 H 527.115 4.19039 -0.445452 0
M  V30 5680 H 525.79 3.22636 0.262216 0
M  V30 5681 H 524.697 3.12735 -2.05299 0
M  V30 5682 H 526.03 4.1254 -2.68462 0
M  V30 5683 N 527.682 1.05563 1.17022 0
M  V30 5684 C 528.959 0.68165 1.83338 0
M  V30 5685 C 529.339 -0.837665 1.93769 0
M  V30 5686 O 528.687 -1.74507 1.47511 0
M  V30 5687 C 528.897 1.375 3.20772 0
M  V30 5688 C 530.245 1.51545 3.96635 0
M  V30 5689 O 531.269 1.33431 3.30264 0
M  V30 5690 O 530.128 1.812 5.15586 0
M  V30 5691 H 527.222 0.240412 0.791285 0
M  V30 5692 H 529.768 1.15545 1.24288 0
M  V30 5693 H 528.54 2.41135 3.08171 0
M  V30 5694 H 528.163 0.890798 3.87493 0
M  V30 5695 N 529.16 -1.33526 0.837174 0
M  V30 5696 C 530.409 -1.97098 0.428387 0
M  V30 5697 C 530.722 -1.67062 -1.01734 0
M  V30 5698 O 531.928 -2.24235 -1.53072 0
M  V30 5699 C 530.384 -3.52725 0.715075 0
M  V30 5700 C 529.992 -3.9164 2.17537 0
M  V30 5701 C 531.736 -4.22857 0.373154 0
M  V30 5702 C 529.643 -5.40237 2.40619 0
M  V30 5703 H 528.573 -0.737589 0.156455 0
M  V30 5704 H 531.224 -1.52169 1.02552 0
M  V30 5705 H 529.606 -3.95971 0.0475904 0
M  V30 5706 H 530.78 -3.59456 2.88319 0
M  V30 5707 H 529.095 -3.34485 2.4801 0
M  V30 5708 H 531.692 -5.32133 0.523264 0
M  V30 5709 H 532.035 -4.10647 -0.683708 0
M  V30 5710 H 532.568 -3.85135 0.995801 0
M  V30 5711 H 529.307 -5.57449 3.44864 0
M  V30 5712 H 528.827 -5.73887 1.74396 0
M  V30 5713 H 530.506 -6.07102 2.23688 0
M  V30 5714 N 530.638 -0.59345 -1.46 0
M  V30 5715 C 531.571 0.182196 -2.27472 0
M  V30 5716 C 532.549 0.886901 -1.36282 0
M  V30 5717 O 533.733 0.898627 -1.65701 0
M  V30 5718 C 530.86 1.26236 -3.14296 0
M  V30 5719 C 529.906 0.662331 -4.21326 0
M  V30 5720 S 530.739 -0.519017 -5.32979 0
M  V30 5721 C 531.895 0.562086 -6.23371 0
M  V30 5722 H 532.128 -0.509056 -2.92909 0
M  V30 5723 H 529.661 -0.380607 -1.49635 0
M  V30 5724 H 531.619 1.88075 -3.64881 0
M  V30 5725 H 530.28 1.92562 -2.48151 0
M  V30 5726 H 529.473 1.47461 -4.81945 0
M  V30 5727 H 529.075 0.119381 -3.73809 0
M  V30 5728 H 531.367 1.44494 -6.61912 0
M  V30 5729 H 532.31 -0.00760776 -7.081 0
M  V30 5730 H 532.718 0.871061 -5.57739 0
M  V30 5731 N 532.116 1.54067 -0.331816 0
M  V30 5732 C 533.364 2.00319 0.267739 0
M  V30 5733 C 533.685 1.22148 1.52003 0
M  V30 5734 O 532.955 0.325494 1.93177 0
M  V30 5735 H 531.535 0.740014 0.101922 0
M  V30 5736 H 534.197 1.89628 -0.450267 0
M  V30 5737 H 533.293 3.07765 0.518385 0
M  V30 5738 N 533.594 0.0601682 1.57485 0
M  V30 5739 C 534.824 -0.620037 1.97076 0
M  V30 5740 C 535.232 -1.64381 0.936784 0
M  V30 5741 O 534.575 -1.83497 -0.0863377 0
M  V30 5742 C 534.637 -1.35617 3.32939 0
M  V30 5743 C 534.301 -0.487208 4.54396 0
M  V30 5744 C 535.298 0.250428 5.19297 0
M  V30 5745 C 532.983 -0.415494 5.00579 0
M  V30 5746 C 534.977 1.04812 6.28723 0
M  V30 5747 C 532.664 0.385879 6.0988 0
M  V30 5748 C 533.662 1.11637 6.73815 0
M  V30 5749 O 533.35 1.90454 7.81014 0
M  V30 5750 H 533.082 -0.173664 0.653312 0
M  V30 5751 H 535.636 0.1256 2.05016 0
M  V30 5752 H 533.866 -2.14763 3.2158 0
M  V30 5753 H 535.555 -1.92749 3.57215 0
M  V30 5754 H 536.321 0.204546 4.84568 0
M  V30 5755 H 532.2 -0.973679 4.506 0
M  V30 5756 H 535.744 1.6188 6.78558 0
M  V30 5757 H 531.641 0.433366 6.44044 0
M  V30 5758 H 532.409 1.82762 7.97835 0
M  V30 5759 N 535.072 -1.5615 -0.213296 0
M  V30 5760 C 536.02 -1.93953 -1.28394 0
M  V30 5761 C 537.014 -0.822592 -1.48087 0
M  V30 5762 O 538.22 -1.00748 -1.49164 0
M  V30 5763 H 534.595 -0.61648 -0.430646 0
M  V30 5764 H 536.566 -2.83275 -0.937977 0
M  V30 5765 C 535.315 -2.27969 -2.62537 0
M  V30 5766 H 534.638 -3.13432 -2.48194 0
M  V30 5767 H 536.078 -2.58297 -3.36242 0
M  V30 5768 C 534.537 -1.10775 -3.18167 0
M  V30 5769 O 535.067 -0.373201 -3.99963 0
M  V30 5770 N 533.273 -0.889377 -2.76656 0
M  V30 5771 H 532.82 -1.48843 -2.10246 0
M  V30 5772 H 532.778 -0.107 -3.14218 0
M  V30 5773 N 536.55 0.480323 -1.50102 0
M  V30 5774 C 537.799 1.22979 -1.59872 0
M  V30 5775 C 538.112 1.93282 -0.30022 0
M  V30 5776 O 539.318 2.70086 -0.276709 0
M  V30 5777 C 537.774 2.23408 -2.82164 0
M  V30 5778 C 537.382 1.5895 -4.18854 0
M  V30 5779 C 539.126 2.99055 -3.01275 0
M  V30 5780 C 537.033 2.57611 -5.32344 0
M  V30 5781 H 535.963 0.462707 -0.59533 0
M  V30 5782 H 538.614 0.501291 -1.7652 0
M  V30 5783 H 536.996 2.99511 -2.59055 0
M  V30 5784 H 538.17 0.887 -4.52182 0
M  V30 5785 H 536.485 0.956191 -4.05273 0
M  V30 5786 H 539.082 3.72876 -3.83233 0
M  V30 5787 H 539.425 3.57897 -2.12639 0
M  V30 5788 H 539.958 2.30066 -3.24522 0
M  V30 5789 H 536.697 2.03521 -6.23105 0
M  V30 5790 H 536.217 3.26041 -5.03445 0
M  V30 5791 H 537.896 3.19627 -5.62537 0
M  V30 5792 N 538.028 1.39524 0.732853 0
M  V30 5793 C 538.958 1.41153 1.86005 0
M  V30 5794 C 539.939 0.274614 1.67869 0
M  V30 5795 O 541.124 0.480745 1.88155 0
M  V30 5796 C 538.254 1.25638 3.23778 0
M  V30 5797 C 537.208 2.36752 3.56556 0
M  V30 5798 C 536.534 2.06326 4.93289 0
M  V30 5799 C 537.834 3.79069 3.5931 0
M  V30 5800 H 539.528 2.35484 1.84899 0
M  V30 5801 H 537.074 1.13348 0.888162 0
M  V30 5802 H 539.027 1.25398 4.0231 0
M  V30 5803 H 537.751 0.277772 3.25417 0
M  V30 5804 H 536.41 2.36213 2.80355 0
M  V30 5805 H 536.058 1.06897 4.9151 0
M  V30 5806 H 535.758 2.80757 5.16187 0
M  V30 5807 H 537.282 2.07739 5.74175 0
M  V30 5808 H 538.696 3.81526 4.27914 0
M  V30 5809 H 537.093 4.52878 3.93728 0
M  V30 5810 H 538.163 4.09893 2.59068 0
M  V30 5811 N 539.506 -0.963266 1.24736 0
M  V30 5812 C 540.922 -1.23273 1.01371 0
M  V30 5813 C 541.122 -1.99618 -0.274776 0
M  V30 5814 O 540.178 -2.32293 -0.989769 0
M  V30 5815 C 541.491 -2.01554 2.23152 0
M  V30 5816 C 543.039 -2.14629 2.27823 0
M  V30 5817 C 543.514 -2.96307 3.49237 0
M  V30 5818 N 545.005 -3.03887 3.49581 0
M  V30 5819 C 545.74 -3.67456 4.40186 0
M  V30 5820 N 545.236 -4.32706 5.41052 0
M  V30 5821 N 547.029 -3.64511 4.27888 0
M  V30 5822 H 539.18 -0.452294 2.07528 0
M  V30 5823 H 541.443 -0.262521 0.910926 0
M  V30 5824 H 541.149 -1.52847 3.1675 0
M  V30 5825 H 541.023 -3.02278 2.25628 0
M  V30 5826 H 543.41 -2.62537 1.34753 0
M  V30 5827 H 543.491 -1.13238 2.2937 0
M  V30 5828 H 543.135 -2.49091 4.42624 0
M  V30 5829 H 543.065 -3.97905 3.44933 0
M  V30 5830 H 545.556 -2.57477 2.76611 0
M  V30 5831 H 545.869 -4.79042 6.06415 0
M  V30 5832 H 544.214 -4.31361 5.44934 0
M  V30 5833 H 547.405 -3.12715 3.4832 0
M  V30 5834 H 547.578 -4.13768 4.98698 0
M  V30 5835 N 540.985 -1.06182 -1.16461 0
M  V30 5836 C 542.231 -0.779015 -1.87241 0
M  V30 5837 C 542.564 0.692715 -1.81425 0
M  V30 5838 O 541.839 1.5074 -1.22913 0
M  V30 5839 C 542.122 -1.2728 -3.36856 0
M  V30 5840 C 541.975 -2.80821 -3.51368 0
M  V30 5841 C 543.294 -0.879799 -4.31216 0
M  V30 5842 H 540.413 -0.284464 -0.679889 0
M  V30 5843 H 543.055 -1.31755 -1.36896 0
M  V30 5844 H 541.205 -0.814673 -3.79862 0
M  V30 5845 H 542.877 -3.34833 -3.17308 0
M  V30 5846 H 541.12 -3.19606 -2.93316 0
M  V30 5847 H 541.791 -3.10435 -4.56436 0
M  V30 5848 H 544.267 -1.27436 -3.96105 0
M  V30 5849 H 543.143 -1.25278 -5.34412 0
M  V30 5850 H 543.404 0.215372 -4.41575 0
M  V30 5851 N 542.463 1.3308 -0.844243 0
M  V30 5852 C 543.393 2.3161 -0.296493 0
M  V30 5853 C 544.374 1.59215 0.598707 0
M  V30 5854 O 545.559 1.87077 0.521134 0
M  V30 5855 C 542.689 3.43313 0.524762 0
M  V30 5856 C 541.643 4.27115 -0.275106 0
M  V30 5857 C 540.969 5.30483 0.670236 0
M  V30 5858 C 542.269 5.00443 -1.49514 0
M  V30 5859 H 543.963 2.77672 -1.11976 0
M  V30 5860 H 541.509 1.33496 -0.539899 0
M  V30 5861 H 543.462 4.11273 0.918298 0
M  V30 5862 H 542.186 2.95952 1.3813 0
M  V30 5863 H 540.845 3.60787 -0.650267 0
M  V30 5864 H 540.493 4.79379 1.52332 0
M  V30 5865 H 540.193 5.87435 0.139123 0
M  V30 5866 H 541.717 6.01308 1.06117 0
M  V30 5867 H 543.131 5.61141 -1.17447 0
M  V30 5868 H 541.528 5.67071 -1.96343 0
M  V30 5869 H 542.598 4.28906 -2.26202 0
M  V30 5870 N 543.941 0.601185 1.45683 0
M  V30 5871 C 545.19 0.0914953 2.01492 0
M  V30 5872 C 545.503 -1.28331 1.47616 0
M  V30 5873 O 546.709 -1.88537 1.95362 0
M  V30 5874 C 545.165 0.11291 3.59723 0
M  V30 5875 C 544.773 1.48717 4.22596 0
M  V30 5876 C 546.517 -0.341871 4.23121 0
M  V30 5877 C 544.424 1.46531 5.7296 0
M  V30 5878 H 543.354 0.0304365 0.753385 0
M  V30 5879 H 546.005 0.755568 1.67223 0
M  V30 5880 H 544.387 -0.617692 3.91153 0
M  V30 5881 H 545.561 2.23897 4.02749 0
M  V30 5882 H 543.876 1.88351 3.71366 0
M  V30 5883 H 546.473 -0.377304 5.33367 0
M  V30 5884 H 546.816 -1.36325 3.93346 0
M  V30 5885 H 547.349 0.335256 3.96385 0
M  V30 5886 H 544.088 2.46408 6.07423 0
M  V30 5887 H 543.608 0.755997 5.95017 0
M  V30 5888 H 545.287 1.18618 6.36034 0
M  V30 5889 N 545.419 -1.53889 0.339982 0
M  V30 5890 C 546.665 -2.01849 -0.250694 0
M  V30 5891 C 547.02 -1.22356 -1.48482 0
M  V30 5892 O 546.313 -0.301906 -1.89206 0
M  V30 5893 C 546.507 -3.51968 -0.620735 0
M  V30 5894 C 546.336 -4.45996 0.575981 0
M  V30 5895 C 545.106 -4.93619 1.08019 0
M  V30 5896 C 547.304 -4.93923 1.43332 0
M  V30 5897 N 545.286 -5.7159 2.2396 0
M  V30 5898 C 546.657 -5.69982 2.43969 0
M  V30 5899 C 548.712 -4.76038 1.45918 0
M  V30 5900 C 547.415 -6.30057 3.47016 0
M  V30 5901 C 549.441 -5.36961 2.47845 0
M  V30 5902 C 548.803 -6.12884 3.47208 0
M  V30 5903 H 544.902 -0.780054 -0.0551368 0
M  V30 5904 H 547.486 -1.88722 0.478741 0
M  V30 5905 H 545.657 -3.65308 -1.31928 0
M  V30 5906 H 547.389 -3.86677 -1.19429 0
M  V30 5907 H 544.144 -4.69134 0.64884 0
M  V30 5908 H 544.568 -6.15247 2.82489 0
M  V30 5909 H 549.21 -4.16887 0.704608 0
M  V30 5910 H 546.928 -6.88319 4.23371 0
M  V30 5911 H 550.514 -5.2503 2.50668 0
M  V30 5912 H 549.394 -6.59187 4.24785 0
M  V30 5913 N 546.897 -0.0685191 -1.57451 0
M  V30 5914 C 548.144 0.601348 -1.93365 0
M  V30 5915 C 548.472 1.69816 -0.948294 0
M  V30 5916 O 547.727 1.95666 0.0366199 0
M  V30 5917 C 548.026 1.22051 -3.35914 0
M  V30 5918 C 547.692 0.250165 -4.50205 0
M  V30 5919 C 546.354 -0.0167954 -4.81197 0
M  V30 5920 C 548.706 -0.413867 -5.19554 0
M  V30 5921 C 546.034 -0.95493 -5.78876 0
M  V30 5922 C 548.386 -1.3403 -6.18238 0
M  V30 5923 C 547.05 -1.61576 -6.47649 0
M  V30 5924 H 546.32 0.220049 -0.707573 0
M  V30 5925 H 548.967 -0.138697 -1.90997 0
M  V30 5926 H 547.272 2.03622 -3.34732 0
M  V30 5927 H 548.969 1.74605 -3.6099 0
M  V30 5928 H 545.559 0.468421 -4.26033 0
M  V30 5929 H 549.743 -0.220733 -4.95809 0
M  V30 5930 H 544.999 -1.17563 -5.99991 0
M  V30 5931 H 549.173 -1.86081 -6.71079 0
M  V30 5932 H 546.8 -2.34431 -7.2315 0
M  V30 5933 N 548.375 1.56261 0.205012 0
M  V30 5934 C 549.624 1.79236 0.925058 0
M  V30 5935 C 549.937 0.640011 1.84833 0
M  V30 5936 O 551.143 0.753809 2.60826 0
M  V30 5937 C 549.599 3.17475 1.69522 0
M  V30 5938 C 549.207 4.40482 0.817269 0
M  V30 5939 C 550.951 3.49766 2.4055 0
M  V30 5940 C 548.858 5.69744 1.58573 0
M  V30 5941 H 547.788 0.668287 0.349153 0
M  V30 5942 H 550.439 1.82629 0.178544 0
M  V30 5943 H 548.821 3.08304 2.48526 0
M  V30 5944 H 549.995 4.60752 0.0665988 0
M  V30 5945 H 548.31 4.15827 0.218316 0
M  V30 5946 H 550.907 4.43573 2.98575 0
M  V30 5947 H 551.25 2.73041 3.14252 0
M  V30 5948 H 551.783 3.60341 1.68522 0
M  V30 5949 H 548.522 6.49407 0.891679 0
M  V30 5950 H 548.042 5.53509 2.31059 0
M  V30 5951 H 549.721 6.1051 2.14212 0
M  V30 5952 N 549.853 -0.472356 1.50355 0
M  V30 5953 C 551.078 -1.25251 1.65309 0
M  V30 5954 C 551.503 -1.85081 0.335643 0
M  V30 5955 O 550.861 -1.67227 -0.700335 0
M  V30 5956 C 550.909 -2.3379 2.74544 0
M  V30 5957 O 550.013 -3.38401 2.35709 0
M  V30 5958 H 549.354 -0.368539 0.552336 0
M  V30 5959 H 551.884 -0.562271 1.96722 0
M  V30 5960 H 551.894 -2.79121 2.97583 0
M  V30 5961 H 550.569 -1.89614 3.70161 0
M  V30 5962 H 549.146 -2.9879 2.23112 0
M  V30 5963 N 551.331 -1.39911 -0.725443 0
M  V30 5964 C 552.58 -1.36963 -1.48068 0
M  V30 5965 C 552.893 0.0284478 -1.95579 0
M  V30 5966 O 554.099 0.180535 -2.70899 0
M  V30 5967 C 552.555 -2.40664 -2.67598 0
M  V30 5968 C 552.163 -3.86234 -2.26997 0
M  V30 5969 C 553.907 -2.46807 -3.45379 0
M  V30 5970 C 551.814 -4.81554 -3.43307 0
M  V30 5971 H 550.744 -0.509223 -0.556065 0
M  V30 5972 H 553.395 -1.65602 -0.790454 0
M  V30 5973 H 551.777 -2.05109 -3.38742 0
M  V30 5974 H 552.951 -4.3088 -1.63337 0
M  V30 5975 H 551.266 -3.83475 -1.62284 0
M  V30 5976 H 553.863 -3.15213 -4.31909 0
M  V30 5977 H 554.206 -1.49552 -3.8851 0
M  V30 5978 H 554.739 -2.81303 -2.81271 0
M  V30 5979 H 551.478 -5.80106 -3.05217 0
M  V30 5980 H 550.998 -4.4158 -4.05915 0
M  V30 5981 H 552.677 -5.0091 -4.0951 0
M  V30 5982 N 552.809 0.956637 -1.25245 0
M  V30 5983 C 553.739 2.07058 -1.07931 0
M  V30 5984 C 554.72 1.70096 0.0110361 0
M  V30 5985 O 555.905 1.93555 -0.158121 0
M  V30 5986 C 553.035 3.40272 -0.695124 0
M  V30 5987 C 551.989 3.91235 -1.73549 0
M  V30 5988 C 551.315 5.20921 -1.20604 0
M  V30 5989 C 552.615 4.17837 -3.13385 0
M  V30 5990 H 554.309 2.218 -2.01109 0
M  V30 5991 H 551.855 1.06581 -0.968326 0
M  V30 5992 H 553.808 4.1765 -0.560949 0
M  V30 5993 H 552.532 3.25462 0.272355 0
M  V30 5994 H 551.191 3.16025 -1.85807 0
M  V30 5995 H 550.839 5.02479 -0.228846 0
M  V30 5996 H 550.539 5.55987 -1.90136 0
M  V30 5997 H 552.063 6.00897 -1.08421 0
M  V30 5998 H 553.477 4.8588 -3.04292 0
M  V30 5999 H 551.874 4.64154 -3.80369 0
M  V30 6000 H 552.944 3.2419 -3.60595 0
M  V30 6001 N 554.287 1.06798 1.15896 0
M  V30 6002 C 555.25 0.687328 2.18651 0
M  V30 6003 C 556.25 -0.269559 1.58524 0
M  V30 6004 O 557.44 -0.0512627 1.74125 0
M  V30 6005 C 554.572 0.0121642 3.40898 0
M  V30 6006 H 555.765 1.59701 2.53842 0
M  V30 6007 H 553.318 0.863828 1.3026 0
M  V30 6008 H 554.053 -0.910025 3.1127 0
M  V30 6009 H 553.838 0.700309 3.85795 0
M  V30 6010 H 555.328 -0.239703 4.16911 0
M  V30 6011 N 555.766 -1.3263 0.851289 0
M  V30 6012 C 557.015 -1.96633 0.449267 0
M  V30 6013 C 557.328 -1.68131 -0.999562 0
M  V30 6014 O 558.534 -2.25845 -1.50685 0
M  V30 6015 C 556.99 -3.51946 0.752446 0
M  V30 6016 C 556.598 -3.89311 2.21678 0
M  V30 6017 C 558.342 -4.22437 0.417983 0
M  V30 6018 C 556.249 -5.37655 2.46336 0
M  V30 6019 H 555.179 -0.735888 0.164269 0
M  V30 6020 H 557.83 -1.51073 1.0416 0
M  V30 6021 H 556.212 -3.95899 0.0895858 0
M  V30 6022 H 557.386 -3.56378 2.92115 0
M  V30 6023 H 555.701 -3.31836 2.51543 0
M  V30 6024 H 558.298 -5.31549 0.579674 0
M  V30 6025 H 558.641 -4.11349 -0.640115 0
M  V30 6026 H 559.174 -3.84057 1.03659 0
M  V30 6027 H 555.913 -5.5376 3.50757 0
M  V30 6028 H 555.433 -5.72005 1.80473 0
M  V30 6029 H 557.112 -6.04695 2.30115 0
M  V30 6030 N 557.244 -0.608902 -1.45362 0
M  V30 6031 C 558.472 -0.111013 -2.06602 0
M  V30 6032 C 558.887 1.20516 -1.45332 0
M  V30 6033 O 558.244 1.73437 -0.567978 0
M  V30 6034 C 558.295 0.033688 -3.61484 0
M  V30 6035 O 558.016 -1.23041 -4.20467 0
M  V30 6036 C 559.517 0.562882 -4.39712 0
M  V30 6037 H 556.737 -0.0694453 -0.667397 0
M  V30 6038 H 559.281 -0.837008 -1.86586 0
M  V30 6039 H 557.436 0.710016 -3.80838 0
M  V30 6040 H 557.85 -1.06094 -5.13658 0
M  V30 6041 H 559.324 0.613213 -5.48583 0
M  V30 6042 H 559.801 1.58543 -4.09586 0
M  V30 6043 H 560.407 -0.0794454 -4.25226 0
M  V30 6044 N 558.722 1.53707 -0.348139 0
M  V30 6045 C 559.97 2.00591 0.246478 0
M  V30 6046 C 560.291 1.23753 1.50699 0
M  V30 6047 O 559.561 0.345964 1.92821 0
M  V30 6048 H 558.141 0.741053 0.0940679 0
M  V30 6049 H 560.803 1.89139 -0.470354 0
M  V30 6050 H 559.899 3.08297 0.485714 0
M  V30 6051 N 560.2 0.0768682 1.57412 0
M  V30 6052 C 561.148 -0.906229 2.1422 0
M  V30 6053 C 562.142 -1.30477 1.08037 0
M  V30 6054 O 563.348 -1.28143 1.2641 0
M  V30 6055 H 559.723 -0.310207 0.685037 0
M  V30 6056 H 561.694 -0.402228 2.95677 0
M  V30 6057 C 560.443 -2.16245 2.72274 0
M  V30 6058 H 559.766 -1.86463 3.53655 0
M  V30 6059 H 561.206 -2.83134 3.15613 0
M  V30 6060 C 559.665 -2.92437 1.67279 0
M  V30 6061 O 560.195 -3.86322 1.10081 0
M  V30 6062 N 558.401 -2.55637 1.38195 0
M  V30 6063 H 557.948 -1.79363 1.84897 0
M  V30 6064 H 557.906 -3.06919 0.681787 0
M  V30 6065 N 561.678 -1.56367 -0.196722 0
M  V30 6066 C 562.927 -1.79724 -0.915539 0
M  V30 6067 C 563.24 -0.649804 -1.84491 0
M  V30 6068 O 564.446 -0.767631 -2.60422 0
M  V30 6069 C 562.902 -3.18369 -1.67836 0
M  V30 6070 C 562.51 -4.4091 -0.793897 0
M  V30 6071 C 564.254 -3.51037 -2.38691 0
M  V30 6072 C 562.161 -5.70577 -1.55549 0
M  V30 6073 H 561.091 -0.67013 -0.345604 0
M  V30 6074 H 563.742 -1.82721 -0.168856 0
M  V30 6075 H 562.124 -3.09617 -2.46887 0
M  V30 6076 H 563.298 -4.60781 -0.042163 0
M  V30 6077 H 561.613 -4.15937 -0.19626 0
M  V30 6078 H 564.21 -4.4515 -2.96219 0
M  V30 6079 H 564.553 -2.74704 -3.12799 0
M  V30 6080 H 565.086 -3.61229 -1.66608 0
M  V30 6081 H 561.825 -6.49871 -0.857226 0
M  V30 6082 H 561.345 -5.54726 -2.2812 0
M  V30 6083 H 563.024 -6.11637 -2.10971 0
M  V30 6084 N 563.156 0.464375 -1.50603 0
M  V30 6085 C 564.405 1.21277 -1.61167 0
M  V30 6086 C 564.718 1.92953 -0.320704 0
M  V30 6087 O 565.924 2.69778 -0.30534 0
M  V30 6088 C 564.38 2.20403 -2.84518 0
M  V30 6089 C 563.988 1.54499 -4.20516 0
M  V30 6090 C 565.732 2.95843 -3.0443 0
M  V30 6091 C 563.639 2.51951 -5.35047 0
M  V30 6092 H 562.569 0.456367 -0.600204 0
M  V30 6093 H 565.22 0.48254 -1.77042 0
M  V30 6094 H 563.602 2.96746 -2.62217 0
M  V30 6095 H 564.776 0.83899 -4.53098 0
M  V30 6096 H 563.091 0.913152 -4.06264 0
M  V30 6097 H 565.688 3.6879 -3.87167 0
M  V30 6098 H 566.031 3.55622 -2.16423 0
M  V30 6099 H 566.564 2.26611 -3.26944 0
M  V30 6100 H 563.303 1.96901 -6.25228 0
M  V30 6101 H 562.823 3.20683 -5.06875 0
M  V30 6102 H 564.502 3.13643 -5.65895 0
M  V30 6103 N 564.634 1.40294 0.718013 0
M  V30 6104 C 565.88 1.38645 1.48005 0
M  V30 6105 C 566.213 -0.0121202 1.94196 0
M  V30 6106 O 565.488 -0.980309 1.67989 0
M  V30 6107 C 565.771 2.37379 2.70782 0
M  V30 6108 C 565.624 3.8625 2.30501 0
M  V30 6109 C 566.943 2.33685 3.72933 0
M  V30 6110 H 564.062 0.504928 0.536858 0
M  V30 6111 H 566.704 1.71411 0.819649 0
M  V30 6112 H 564.854 2.09568 3.27129 0
M  V30 6113 H 566.526 4.24879 1.79655 0
M  V30 6114 H 564.769 4.02202 1.6253 0
M  V30 6115 H 565.44 4.50847 3.18498 0
M  V30 6116 H 567.916 2.58314 3.2621 0
M  V30 6117 H 566.792 3.0482 4.56482 0
M  V30 6118 H 567.053 1.34765 4.21059 0
M  V30 6119 N 566.112 -0.949982 1.2575 0
M  V30 6120 C 567.042 -2.06483 1.09028 0
M  V30 6121 C 568.023 -1.701 -0.00201532 0
M  V30 6122 O 569.208 -1.93469 0.168383 0
M  V30 6123 C 566.338 -3.39899 0.71316 0
M  V30 6124 C 565.292 -3.90309 1.75621 0
M  V30 6125 C 564.618 -5.20274 1.23365 0
M  V30 6126 C 565.918 -4.16169 3.15596 0
M  V30 6127 H 567.612 -2.20731 2.02283 0
M  V30 6128 H 565.158 -1.06066 0.973964 0
M  V30 6129 H 567.111 -4.17346 0.58309 0
M  V30 6130 H 565.835 -3.25602 -0.255091 0
M  V30 6131 H 564.494 -3.15035 1.8748 0
M  V30 6132 H 564.142 -5.02351 0.255491 0
M  V30 6133 H 563.842 -5.54971 1.93082 0
M  V30 6134 H 565.366 -6.00314 1.11607 0
M  V30 6135 H 566.78 -4.84259 3.06864 0
M  V30 6136 H 565.177 -4.62131 3.82825 0
M  V30 6137 H 566.247 -3.22273 3.6231 0
M  V30 6138 N 567.59 -1.07411 -1.15328 0
M  V30 6139 C 568.836 -0.798831 -1.86404 0
M  V30 6140 C 569.169 0.673433 -1.8215 0
M  V30 6141 O 568.444 1.49428 -1.24505 0
M  V30 6142 C 568.727 -1.30846 -3.35487 0
M  V30 6143 C 568.58 -2.84532 -3.4837 0
M  V30 6144 C 569.899 -0.925486 -4.30259 0
M  V30 6145 H 567.018 -0.291659 -0.676834 0
M  V30 6146 H 569.66 -1.332 -1.35491 0
M  V30 6147 H 567.81 -0.854916 -3.78977 0
M  V30 6148 H 569.482 -3.3818 -3.13739 0
M  V30 6149 H 567.725 -3.22699 -2.8991 0
M  V30 6150 H 568.396 -3.15259 -4.53118 0
M  V30 6151 H 570.872 -1.3163 -3.94731 0
M  V30 6152 H 569.748 -1.3094 -5.33053 0
M  V30 6153 H 570.009 0.168525 -4.41779 0
M  V30 6154 N 569.068 1.32177 -0.85831 0
M  V30 6155 C 570.317 1.96392 -0.459689 0
M  V30 6156 C 570.63 1.68659 0.990632 0
M  V30 6157 O 571.836 2.26641 1.49485 0
M  V30 6158 C 570.292 3.51542 -0.7711 0
M  V30 6159 C 569.9 3.8813 -2.2374 0
M  V30 6160 C 571.644 4.2221 -0.44038 0
M  V30 6161 C 569.551 5.36341 -2.49183 0
M  V30 6162 H 568.481 0.735007 -0.168169 0
M  V30 6163 H 571.132 1.50518 -1.0496 0
M  V30 6164 H 569.514 3.95846 -0.11058 0
M  V30 6165 H 570.688 3.54824 -2.94001 0
M  V30 6166 H 569.003 3.30497 -2.533 0
M  V30 6167 H 571.6 5.31234 -0.607855 0
M  V30 6168 H 571.943 4.11683 0.618291 0
M  V30 6169 H 572.476 3.83502 -1.05695 0
M  V30 6170 H 569.215 5.51892 -3.53689 0
M  V30 6171 H 568.735 5.7104 -1.83504 0
M  V30 6172 H 570.414 6.03466 -2.33318 0
M  V30 6173 N 570.547 0.616602 1.45037 0
M  V30 6174 C 571.477 -0.0840787 2.33349 0
M  V30 6175 C 572.458 -0.849641 1.4736 0
M  V30 6176 O 573.643 -0.818407 1.76113 0
M  V30 6177 C 570.773 -1.07604 3.3021 0
M  V30 6178 C 569.727 -0.423096 4.25904 0
M  V30 6179 C 569.053 -1.52394 5.12523 0
M  V30 6180 C 570.353 0.661457 5.18095 0
M  V30 6181 H 572.047 0.653333 2.92185 0
M  V30 6182 H 569.593 0.315634 1.40498 0
M  V30 6183 H 571.546 -1.57485 3.90866 0
M  V30 6184 H 570.27 -1.84416 2.69552 0
M  V30 6185 H 568.929 0.05493 3.66559 0
M  V30 6186 H 568.577 -2.28257 4.48227 0
M  V30 6187 H 568.277 -1.09251 5.77354 0
M  V30 6188 H 569.801 -2.02485 5.76049 0
M  V30 6189 H 571.215 0.246353 5.7277 0
M  V30 6190 H 569.612 1.01517 5.91451 0
M  V30 6191 H 570.682 1.53446 4.59981 0
M  V30 6192 N 572.025 -1.5352 0.356285 0
M  V30 6193 C 573.253 -2.05534 -0.237328 0
M  V30 6194 C 573.668 -1.23043 -1.43199 0
M  V30 6195 O 573.025 -0.268821 -1.80509 0
M  V30 6196 C 573.076 -3.55791 -0.639933 0
M  V30 6197 O 572.797 -4.35154 0.507233 0
M  V30 6198 C 574.298 -4.24027 -1.29292 0
M  V30 6199 H 571.518 -0.669585 -0.0435572 0
M  V30 6200 H 574.062 -1.97988 0.511963 0
M  V30 6201 H 572.217 -3.63518 -1.33915 0
M  V30 6202 H 572.631 -5.24178 0.18375 0
M  V30 6203 H 574.105 -5.30509 -1.52527 0
M  V30 6204 H 574.582 -3.77166 -2.25039 0
M  V30 6205 H 575.188 -4.20527 -0.63539 0
M  V30 6206 N 573.503 -0.0852151 -1.57369 0
M  V30 6207 C 574.731 0.58946 -1.98325 0
M  V30 6208 C 575.146 1.62333 -0.96403 0
M  V30 6209 O 574.503 1.82438 0.0476395 0
M  V30 6210 C 574.554 1.24604 -3.39347 0
M  V30 6211 O 574.275 0.253532 -4.37366 0
M  V30 6212 C 575.776 2.00726 -3.95252 0
M  V30 6213 H 572.996 0.158783 -0.651942 0
M  V30 6214 H 575.54 -0.161584 -2.03861 0
M  V30 6215 H 573.695 1.94808 -3.34856 0
M  V30 6216 H 574.109 0.726207 -5.19448 0
M  V30 6217 H 575.583 2.42039 -4.96106 0
M  V30 6218 H 576.06 2.86919 -3.32527 0
M  V30 6219 H 576.666 1.3536 -4.03185 0
M  V30 6220 N 574.981 1.5647 0.188427 0
M  V30 6221 C 576.206 1.85486 0.927891 0
M  V30 6222 C 576.631 0.669575 1.75779 0
M  V30 6223 O 575.989 -0.381573 1.77239 0
M  V30 6224 C 576.037 3.12784 1.7944 0
M  V30 6225 O 575.141 2.93805 2.894 0
M  V30 6226 H 574.482 0.610585 0.260925 0
M  V30 6227 H 577.012 2.037 0.191729 0
M  V30 6228 H 577.022 3.43749 2.19774 0
M  V30 6229 H 575.697 3.98671 1.18468 0
M  V30 6230 H 574.274 2.74153 2.52774 0
M  V30 6231 N 576.459 -0.456382 1.50847 0
M  V30 6232 C 577.391 -1.57033 1.66953 0
M  V30 6233 C 578.404 -1.53207 0.550593 0
M  V30 6234 O 579.593 -1.58328 0.824285 0
M  V30 6235 C 576.693 -2.95937 1.65149 0
M  V30 6236 C 575.866 -3.24475 2.93317 0
M  V30 6237 C 574.925 -4.43007 2.83957 0
M  V30 6238 O 573.951 -4.42592 3.57912 0
M  V30 6239 N 575.153 -5.45503 1.9851 0
M  V30 6240 H 577.918 -1.43629 2.63042 0
M  V30 6241 H 575.479 -0.645037 1.48495 0
M  V30 6242 H 577.471 -3.73224 1.56481 0
M  V30 6243 H 576.041 -3.03036 0.767343 0
M  V30 6244 H 575.261 -2.35664 3.16 0
M  V30 6245 H 576.549 -3.4036 3.78196 0
M  V30 6246 H 575.947 -5.48668 1.37766 0
M  V30 6247 H 574.504 -6.21716 1.95735 0
M  V30 6248 N 577.937 -1.40673 -0.710563 0
M  V30 6249 C 579.167 -1.4234 -1.49742 0
M  V30 6250 C 579.575 -0.022821 -1.89186 0
M  V30 6251 O 578.918 0.964773 -1.56326 0
M  V30 6252 C 578.98 -2.25509 -2.79975 0
M  V30 6253 C 578.644 -3.73862 -2.62824 0
M  V30 6254 C 579.641 -4.66379 -2.29752 0
M  V30 6255 C 577.326 -4.17735 -2.78932 0
M  V30 6256 C 579.32 -6.00756 -2.13006 0
M  V30 6257 C 577.007 -5.5218 -2.61802 0
M  V30 6258 C 578.005 -6.43505 -2.28888 0
M  V30 6259 O 577.693 -7.75472 -2.11894 0
M  V30 6260 H 577.425 -0.487311 -0.468513 0
M  V30 6261 H 579.979 -1.8542 -0.883668 0
M  V30 6262 H 578.209 -1.77218 -3.43701 0
M  V30 6263 H 579.898 -2.19058 -3.41714 0
M  V30 6264 H 580.664 -4.33778 -2.16936 0
M  V30 6265 H 576.543 -3.46967 -3.03537 0
M  V30 6266 H 580.087 -6.72003 -1.87237 0
M  V30 6267 H 575.984 -5.84365 -2.74204 0
M  V30 6268 H 576.752 -7.86458 -2.26775 0
M  V30 6269 N 579.415 0.9433 -1.26252 0
M  V30 6270 C 580.362 2.0417 -1.07625 0
M  V30 6271 C 581.332 1.6609 0.0180738 0
M  V30 6272 O 582.517 1.90276 -0.141289 0
M  V30 6273 C 579.657 3.37653 -0.713043 0
M  V30 6274 C 578.77 3.88783 -1.8834 0
M  V30 6275 C 577.905 5.10642 -1.4635 0
M  V30 6276 C 576.944 5.54028 -2.60229 0
M  V30 6277 N 576.081 6.67092 -2.18936 0
M  V30 6278 H 580.921 2.19436 -2.01623 0
M  V30 6279 H 578.458 1.07519 -1.00389 0
M  V30 6280 H 580.416 4.14391 -0.483358 0
M  V30 6281 H 579.046 3.22241 0.18996 0
M  V30 6282 H 578.098 3.08464 -2.22608 0
M  V30 6283 H 579.41 4.16922 -2.73821 0
M  V30 6284 H 578.564 5.94832 -1.19414 0
M  V30 6285 H 577.303 4.84244 -0.579568 0
M  V30 6286 H 576.308 4.68396 -2.87898 0
M  V30 6287 H 577.533 5.82429 -3.49219 0
M  V30 6288 H 575.479 6.42381 -1.32974 0
M  V30 6289 H 575.396 6.94806 -2.97961 0
M  V30 6290 H 576.664 7.54662 -1.95206 0
M  V30 6291 N 580.893 1.08022 1.14757 0
M  V30 6292 C 581.823 0.728248 2.21853 0
M  V30 6293 C 582.804 -0.287486 1.67653 0
M  V30 6294 O 583.989 -0.158727 1.9355 0
M  V30 6295 C 581.119 0.132549 3.47047 0
M  V30 6296 C 580.073 1.07619 4.14249 0
M  V30 6297 C 579.399 0.342907 5.33599 0
M  V30 6298 C 580.699 2.41268 4.63235 0
M  V30 6299 H 582.393 1.62365 2.51551 0
M  V30 6300 H 579.939 0.782125 1.20908 0
M  V30 6301 H 581.892 -0.125665 4.21213 0
M  V30 6302 H 580.616 -0.797971 3.16702 0
M  V30 6303 H 579.275 1.31944 3.42033 0
M  V30 6304 H 578.923 -0.59129 4.99513 0
M  V30 6305 H 578.623 0.971955 5.79506 0
M  V30 6306 H 580.147 0.0926538 6.1053 0
M  V30 6307 H 581.561 2.21232 5.28894 0
M  V30 6308 H 579.958 2.9983 5.19829 0
M  V30 6309 H 581.028 3.03079 3.78512 0
M  V30 6310 N 582.371 -1.3172 0.865308 0
M  V30 6311 C 583.599 -2.01057 0.488251 0
M  V30 6312 C 584.014 -1.64979 -0.918 0
M  V30 6313 O 583.371 -0.876597 -1.60069 0
M  V30 6314 C 583.422 -3.55964 0.630224 0
M  V30 6315 O 583.143 -3.90749 1.98109 0
M  V30 6316 C 584.644 -4.42574 0.253567 0
M  V30 6317 H 581.864 -0.64332 0.190736 0
M  V30 6318 H 584.408 -1.68058 1.16519 0
M  V30 6319 H 582.563 -3.874 0.000895422 0
M  V30 6320 H 582.977 -4.85467 1.9855 0
M  V30 6321 H 584.451 -5.50521 0.403875 0
M  V30 6322 H 584.928 -4.31724 -0.806895 0
M  V30 6323 H 585.534 -4.16547 0.858404 0
M  V30 6324 N 583.85 -0.624285 -1.44708 0
M  V30 6325 C 585.096 -0.126237 -2.02407 0
M  V30 6326 C 585.428 1.24618 -1.48943 0
M  V30 6327 O 584.704 1.82569 -0.670742 0
M  V30 6328 C 584.986 -0.105449 -3.59946 0
M  V30 6329 C 584.84 -1.50972 -4.23707 0
M  V30 6330 C 586.159 0.573629 -4.36346 0
M  V30 6331 H 583.278 -0.0473472 -0.735478 0
M  V30 6332 H 585.92 -0.799452 -1.72362 0
M  V30 6333 H 584.07 0.46783 -3.85673 0
M  V30 6334 H 585.742 -2.13136 -4.0911 0
M  V30 6335 H 583.985 -2.0656 -3.81465 0
M  V30 6336 H 584.656 -1.44727 -5.32689 0
M  V30 6337 H 587.132 0.0861787 -4.16011 0
M  V30 6338 H 586.008 0.557338 -5.46063 0
M  V30 6339 H 586.269 1.64276 -4.10446 0
M  V30 6340 N 585.328 1.53329 -0.364422 0
M  V30 6341 C 586.739 1.86345 0.115039 0
M  V30 6342 C 587.09 1.28505 1.4826 0
M  V30 6343 O 586.215 0.606639 2.07723 0
M  V30 6344 C 586.81 3.38114 0.215522 0
M  V30 6345 C 585.369 3.70932 0.639237 0
M  V30 6346 C 584.516 2.76471 -0.214261 0
M  V30 6347 H 587.467 1.47593 -0.583258 0
M  V30 6348 H 587.488 3.66031 1.0393 0
M  V30 6349 H 587 3.80182 -0.779948 0
M  V30 6350 H 585.101 3.3442 1.64298 0
M  V30 6351 H 585.214 4.77302 0.41465 0
M  V30 6352 H 583.578 2.52724 0.316678 0
M  V30 6353 H 584.361 3.21373 -1.20725 0
M  V30 6354 N 586.806 0.0935595 1.57322 0
M  V30 6355 C 588.222 -0.263091 1.57417 0
M  V30 6356 C 588.422 -1.68526 1.1046 0
M  V30 6357 O 587.478 -2.40139 0.780357 0
M  V30 6358 C 588.791 -0.0529201 3.00653 0
M  V30 6359 C 590.339 -0.120788 3.12767 0
M  V30 6360 C 590.814 0.0613707 4.57959 0
M  V30 6361 N 592.305 0.00648534 4.632 0
M  V30 6362 C 593.04 0.122699 5.73269 0
M  V30 6363 N 592.536 0.29366 6.92177 0
M  V30 6364 N 594.329 0.0640787 5.62063 0
M  V30 6365 H 586.48 1.02277 1.86154 0
M  V30 6366 H 588.743 0.4007 0.859153 0
M  V30 6367 H 588.449 0.929279 3.39201 0
M  V30 6368 H 588.323 -0.795899 3.68708 0
M  V30 6369 H 590.71 -1.09349 2.74093 0
M  V30 6370 H 590.791 0.653656 2.47307 0
M  V30 6371 H 590.435 1.03093 4.97327 0
M  V30 6372 H 590.365 -0.732748 5.21477 0
M  V30 6373 H 592.856 -0.123173 3.77699 0
M  V30 6374 H 593.169 0.37389 7.71895 0
M  V30 6375 H 591.514 0.329307 6.94219 0
M  V30 6376 H 594.705 -0.0683396 4.6805 0
M  V30 6377 H 594.878 0.158097 6.47807 0
M  V30 6378 N 588.284 -1.56567 -0.180126 0
M  V30 6379 C 589.531 -1.81492 -0.898167 0
M  V30 6380 C 589.859 -0.669225 -1.82624 0
M  V30 6381 O 589.114 0.344096 -1.92651 0
M  V30 6382 C 589.413 -3.1252 -1.73395 0
M  V30 6383 C 589.079 -4.40658 -0.955567 0
M  V30 6384 C 587.741 -4.75465 -0.740707 0
M  V30 6385 C 590.093 -5.19593 -0.408948 0
M  V30 6386 C 587.421 -5.86691 0.0320128 0
M  V30 6387 C 589.773 -6.31627 0.350638 0
M  V30 6388 C 588.437 -6.65007 0.576378 0
M  V30 6389 H 587.707 -0.664125 -0.328662 0
M  V30 6390 H 590.354 -1.908 -0.163616 0
M  V30 6391 H 588.659 -2.98515 -2.53763 0
M  V30 6392 H 590.356 -3.29013 -2.29241 0
M  V30 6393 H 586.946 -4.13352 -1.13306 0
M  V30 6394 H 591.13 -4.93104 -0.562307 0
M  V30 6395 H 586.386 -6.11016 0.216735 0
M  V30 6396 H 590.56 -6.92001 0.781497 0
M  V30 6397 H 588.187 -7.51033 1.17703 0
M  V30 6398 N 589.762 0.448376 -1.51087 0
M  V30 6399 C 590.692 1.55102 -1.74544 0
M  V30 6400 C 591.673 1.59357 -0.594932 0
M  V30 6401 O 592.858 1.75261 -0.836491 0
M  V30 6402 C 589.988 2.93268 -1.86041 0
M  V30 6403 C 588.942 3.03877 -3.01402 0
M  V30 6404 C 588.268 4.43914 -2.98068 0
M  V30 6405 C 589.568 2.7898 -4.41551 0
M  V30 6406 H 591.262 1.35724 -2.66869 0
M  V30 6407 H 588.808 0.651498 -1.28419 0
M  V30 6408 H 590.761 3.70356 -2.01034 0
M  V30 6409 H 589.485 3.13853 -0.903548 0
M  V30 6410 H 588.144 2.29227 -2.86096 0
M  V30 6411 H 587.792 4.6145 -2.00182 0
M  V30 6412 H 587.492 4.51944 -3.75527 0
M  V30 6413 H 589.016 5.22991 -3.1514 0
M  V30 6414 H 590.43 3.45805 -4.57265 0
M  V30 6415 H 588.827 2.98431 -5.20633 0
M  V30 6416 H 589.897 1.74663 -4.5235 0
M  V30 6417 N 591.24 1.41047 0.703093 0
M  V30 6418 C 592.173 1.36713 1.82715 0
M  V30 6419 C 593.151 0.235533 1.60885 0
M  V30 6420 O 594.335 0.421227 1.83733 0
M  V30 6421 C 591.462 1.13069 3.1927 0
M  V30 6422 C 590.508 2.28846 3.59905 0
M  V30 6423 S 591.341 3.91297 3.65578 0
M  V30 6424 C 592.497 3.69941 5.04871 0
M  V30 6425 H 592.73 2.31838 1.86114 0
M  V30 6426 H 590.263 1.27481 0.871083 0
M  V30 6427 H 592.221 1.00113 3.98105 0
M  V30 6428 H 590.882 0.195763 3.13489 0
M  V30 6429 H 590.075 2.07977 4.59088 0
M  V30 6430 H 589.677 2.3817 2.88359 0
M  V30 6431 H 591.969 3.29181 5.92154 0
M  V30 6432 H 592.912 4.68699 5.30779 0
M  V30 6433 H 593.32 3.03369 4.76054 0
M  V30 6434 N 592.718 -0.936591 1.26751 0
M  V30 6435 C 593.958 -1.69796 1.13792 0
M  V30 6436 C 594.322 -1.89437 -0.312671 0
M  V30 6437 O 595.523 -2.62806 -0.564489 0
M  V30 6438 C 593.794 -3.03297 1.89065 0
M  V30 6439 S 595.353 -3.94461 1.92214 0
M  V30 6440 H 592.171 -0.583412 0.406389 0
M  V30 6441 H 594.773 -1.11575 1.60535 0
M  V30 6442 H 593.477 -2.86687 2.93665 0
M  V30 6443 H 593.008 -3.66575 1.42781 0
M  V30 6444 H 595.023 -4.85767 1.01215 0
M  V30 6445 N 594.196 -1.08629 -1.14182 0
M  V30 6446 C 595.144 -0.71284 -2.21408 0
M  V30 6447 C 596.138 0.282457 -1.67029 0
M  V30 6448 O 597.344 0.144783 -1.79417 0
M  V30 6449 H 593.719 -0.212497 -0.721352 0
M  V30 6450 H 595.69 -1.6265 -2.50175 0
M  V30 6451 C 594.439 -0.140704 -3.47415 0
M  V30 6452 H 593.762 -0.897739 -3.8959 0
M  V30 6453 H 595.202 0.0827677 -4.23919 0
M  V30 6454 C 593.661 1.122 -3.17668 0
M  V30 6455 O 594.191 2.20652 -3.35672 0
M  V30 6456 N 592.397 1.03328 -2.71609 0
M  V30 6457 H 591.944 0.150666 -2.57159 0
M  V30 6458 H 591.902 1.8789 -2.52081 0
M  V30 6459 N 595.674 1.31259 -0.872281 0
M  V30 6460 C 596.604 2.30929 -0.345554 0
M  V30 6461 C 597.585 1.60449 0.5648 0
M  V30 6462 O 598.77 1.8814 0.481335 0
M  V30 6463 C 595.9 3.44348 0.451823 0
M  V30 6464 C 594.854 4.26435 -0.365641 0
M  V30 6465 C 594.18 5.31785 0.557562 0
M  V30 6466 C 595.48 4.97159 -1.60095 0
M  V30 6467 H 597.174 2.75234 -1.17841 0
M  V30 6468 H 594.72 1.3232 -0.568094 0
M  V30 6469 H 596.673 4.13128 0.830854 0
M  V30 6470 H 595.397 2.98816 1.31821 0
M  V30 6471 H 594.056 3.59326 -0.726649 0
M  V30 6472 H 593.704 4.82502 1.4213 0
M  V30 6473 H 593.404 5.87598 0.0144878 0
M  V30 6474 H 594.928 6.03424 0.933387 0
M  V30 6475 H 596.342 5.58523 -1.29323 0
M  V30 6476 H 594.739 5.62779 -2.08327 0
M  V30 6477 H 595.809 4.24012 -2.35249 0
M  V30 6478 N 597.152 0.631951 1.44375 0
M  V30 6479 C 598.115 -0.0628142 2.29114 0
M  V30 6480 C 599.115 -0.771494 1.41084 0
M  V30 6481 O 600.305 -0.615959 1.62947 0
M  V30 6482 C 597.437 -1.09953 3.22681 0
M  V30 6483 H 598.63 0.682509 2.92031 0
M  V30 6484 H 596.183 0.392128 1.51301 0
M  V30 6485 H 596.918 -1.87481 2.64616 0
M  V30 6486 H 596.703 -0.595286 3.87555 0
M  V30 6487 H 598.193 -1.58538 3.86336 0
M  V30 6488 N 598.631 -1.53133 0.372548 0
M  V30 6489 C 599.878 -2.01356 -0.214959 0
M  V30 6490 C 600.206 -1.2596 -1.48204 0
M  V30 6491 O 599.461 -0.343511 -1.92662 0
M  V30 6492 C 599.76 -3.53206 -0.545938 0
M  V30 6493 C 599.426 -4.46511 0.627624 0
M  V30 6494 C 598.088 -4.71737 0.949615 0
M  V30 6495 C 600.44 -5.01666 1.41353 0
M  V30 6496 C 597.768 -5.4937 2.05936 0
M  V30 6497 C 600.12 -5.80511 2.51375 0
M  V30 6498 C 598.784 -6.04022 2.84101 0
M  V30 6499 H 598.054 -0.736813 -0.078659 0
M  V30 6500 H 600.701 -1.84682 0.506447 0
M  V30 6501 H 599.006 -3.67864 -1.34845 0
M  V30 6502 H 600.703 -3.87997 -1.01287 0
M  V30 6503 H 597.293 -4.27029 0.366635 0
M  V30 6504 H 601.477 -4.82117 1.17802 0
M  V30 6505 H 596.733 -5.65803 2.31682 0
M  V30 6506 H 600.907 -6.22255 3.12684 0
M  V30 6507 H 598.534 -6.63962 3.70214 0
M  V30 6508 N 600.109 -0.101901 -1.5727 0
M  V30 6509 C 601.072 0.840129 -2.13247 0
M  V30 6510 C 602.072 1.20625 -1.06331 0
M  V30 6511 O 603.262 1.13456 -1.32186 0
M  V30 6512 C 600.394 2.13372 -2.65867 0
M  V30 6513 H 601.587 0.353945 -2.97804 0
M  V30 6514 H 599.14 0.147167 -1.55606 0
M  V30 6515 H 599.875 2.66461 -1.84849 0
M  V30 6516 H 599.66 1.88085 -3.44044 0
M  V30 6517 H 601.15 2.80748 -3.09145 0
M  V30 6518 N 601.587 1.56661 0.17182 0
M  V30 6519 C 602.864 1.72838 0.915778 0
M  V30 6520 C 603.244 0.66316 2.00413 0
M  V30 6521 O 602.592 -0.322123 2.26218 0
M  V30 6522 C 602.802 3.16019 1.48097 0
M  V30 6523 C 604.15 3.76962 1.95408 0
M  V30 6524 O 605.174 3.19294 1.57892 0
M  V30 6525 O 604.033 4.78219 2.64516 0
M  V30 6526 H 601.127 0.705797 0.431021 0
M  V30 6527 H 603.673 1.68947 0.159689 0
M  V30 6528 H 602.445 3.85031 0.697618 0
M  V30 6529 H 602.068 3.24234 2.30126 0
M  V30 6530 N 603.065 -0.440357 1.51323 0
M  V30 6531 C 603.995 -1.54174 1.75364 0
M  V30 6532 C 604.976 -1.59039 0.603375 0
M  V30 6533 O 606.161 -1.74815 0.845774 0
M  V30 6534 C 603.291 -2.92277 1.87593 0
M  V30 6535 C 602.245 -3.02274 3.03009 0
M  V30 6536 C 601.571 -4.42327 3.00418 0
M  V30 6537 C 602.871 -2.76634 4.43024 0
M  V30 6538 H 604.565 -1.34307 2.67585 0
M  V30 6539 H 602.111 -0.644678 1.28763 0
M  V30 6540 H 604.064 -3.69284 2.02995 0
M  V30 6541 H 602.788 -3.13369 0.920179 0
M  V30 6542 H 601.447 -2.27706 2.87307 0
M  V30 6543 H 601.095 -4.60382 2.02626 0
M  V30 6544 H 600.795 -4.49946 3.77918 0
M  V30 6545 H 602.319 -5.21312 3.17909 0
M  V30 6546 H 603.733 -3.43376 4.59093 0
M  V30 6547 H 602.13 -2.95666 5.22208 0
M  V30 6548 H 603.2 -1.72262 4.5327 0
M  V30 6549 N 604.543 -1.41418 -0.695603 0
M  V30 6550 C 605.783 -1.42241 -1.46788 0
M  V30 6551 C 606.147 -0.0300827 -1.91976 0
M  V30 6552 O 607.348 0.0868914 -2.6866 0
M  V30 6553 C 605.619 -2.4011 -2.6473 0
M  V30 6554 S 607.178 -2.59462 -3.53871 0
M  V30 6555 H 603.996 -0.503893 -0.50161 0
M  V30 6556 H 606.598 -1.77855 -0.811654 0
M  V30 6557 H 605.302 -3.40073 -2.29736 0
M  V30 6558 H 604.833 -2.05849 -3.35246 0
M  V30 6559 H 606.848 -1.862 -4.59939 0
M  V30 6560 N 606.021 0.929856 -1.27246 0
M  V30 6561 C 607.27 1.67182 -1.12842 0
M  V30 6562 C 607.583 1.9287 0.325666 0
M  V30 6563 O 608.789 2.64999 0.590572 0
M  V30 6564 C 607.245 3.01097 -1.97151 0
M  V30 6565 C 606.853 2.83115 -3.47203 0
M  V30 6566 C 608.597 3.78907 -1.91389 0
M  V30 6567 C 606.504 4.12573 -4.23719 0
M  V30 6568 H 605.434 0.627064 -0.418697 0
M  V30 6569 H 608.085 1.0332 -1.51649 0
M  V30 6570 H 606.467 3.66004 -1.51186 0
M  V30 6571 H 607.641 2.26989 -4.01015 0
M  V30 6572 H 605.956 2.18736 -3.54321 0
M  V30 6573 H 608.553 4.74837 -2.45834 0
M  V30 6574 H 608.896 4.0674 -0.887047 0
M  V30 6575 H 609.429 3.20794 -2.35237 0
M  V30 6576 H 606.168 3.8992 -5.26918 0
M  V30 6577 H 605.688 4.68371 -3.74685 0
M  V30 6578 H 607.367 4.8095 -4.32777 0
M  V30 6579 N 607.499 1.09233 1.13605 0
M  V30 6580 C 608.747 0.825525 1.84471 0
M  V30 6581 C 609.068 -0.650702 1.83823 0
M  V30 6582 O 608.338 -1.47204 1.29259 0
M  V30 6583 H 606.918 0.3024 0.683054 0
M  V30 6584 H 609.58 1.38006 1.37624 0
M  V30 6585 H 608.676 1.17727 2.89045 0
M  V30 6586 N 608.977 -1.30795 0.87923 0
M  V30 6587 C 610.226 -1.95636 0.490875 0
M  V30 6588 C 610.539 -1.70214 -0.963674 0
M  V30 6589 O 611.745 -2.28991 -1.45861 0
M  V30 6590 C 610.201 -3.50271 0.826929 0
M  V30 6591 C 609.809 -3.84521 2.29886 0
M  V30 6592 C 611.553 -4.21456 0.507494 0
M  V30 6593 C 609.46 -5.32309 2.57685 0
M  V30 6594 H 608.39 -0.732238 0.179841 0
M  V30 6595 H 611.041 -1.48829 1.07341 0
M  V30 6596 H 609.423 -3.9562 0.173542 0
M  V30 6597 H 610.597 -3.50102 2.99609 0
M  V30 6598 H 608.912 -3.26425 2.58526 0
M  V30 6599 H 611.509 -5.30199 0.692293 0
M  V30 6600 H 611.852 -4.12614 -0.552718 0
M  V30 6601 H 612.385 -3.81772 1.11782 0
M  V30 6602 H 609.124 -5.46195 3.62424 0
M  V30 6603 H 608.644 -5.68048 1.92566 0
M  V30 6604 H 610.323 -5.99678 2.42889 0
M  V30 6605 N 610.455 -0.639598 -1.44038 0
M  V30 6606 C 611.685 -0.154586 -2.06021 0
M  V30 6607 C 612.093 1.17951 -1.47933 0
M  V30 6608 O 611.436 1.73627 -0.59994 0
M  V30 6609 C 611.498 0.0255459 -3.59491 0
M  V30 6610 C 611.162 -1.2317 -4.40089 0
M  V30 6611 C 612.159 -2.15735 -4.73027 0
M  V30 6612 C 609.844 -1.46949 -4.80324 0
M  V30 6613 C 611.838 -3.30382 -5.45093 0
M  V30 6614 C 609.525 -2.61891 -5.52138 0
M  V30 6615 C 610.523 -3.53433 -5.84443 0
M  V30 6616 O 610.211 -4.6637 -6.54793 0
M  V30 6617 H 609.943 -0.0808543 -0.671147 0
M  V30 6618 H 612.497 -0.876541 -1.85758 0
M  V30 6619 H 610.727 0.802733 -3.78276 0
M  V30 6620 H 612.416 0.466184 -4.03214 0
M  V30 6621 H 613.182 -1.98602 -4.42473 0
M  V30 6622 H 609.061 -0.765815 -4.54595 0
M  V30 6623 H 612.605 -4.01856 -5.70226 0
M  V30 6624 H 608.502 -2.78964 -5.82108 0
M  V30 6625 H 609.27 -4.6546 -6.73267 0
M  V30 6626 N 611.933 1.52934 -0.380664 0
M  V30 6627 C 612.863 2.29118 0.450268 0
M  V30 6628 C 613.844 1.32153 1.07096 0
M  V30 6629 O 615.029 1.61038 1.08537 0
M  V30 6630 C 612.159 3.09161 1.58231 0
M  V30 6631 C 611.113 4.13938 1.0881 0
M  V30 6632 C 610.439 4.82153 2.31155 0
M  V30 6633 C 611.739 5.22048 0.162146 0
M  V30 6634 H 613.433 2.98826 -0.185361 0
M  V30 6635 H 610.979 1.43715 -0.0905886 0
M  V30 6636 H 612.932 3.61211 2.17036 0
M  V30 6637 H 611.656 2.3717 2.2454 0
M  V30 6638 H 610.315 3.62855 0.522633 0
M  V30 6639 H 609.963 4.06719 2.95953 0
M  V30 6640 H 609.663 5.52966 1.98752 0
M  V30 6641 H 611.187 5.37004 2.90618 0
M  V30 6642 H 612.601 5.6951 0.658126 0
M  V30 6643 H 610.998 6.00057 -0.0717122 0
M  V30 6644 H 612.068 4.78398 -0.791438 0
M  V30 6645 N 613.412 0.11024 1.57214 0
M  V30 6646 C 614.342 -0.840002 2.17867 0
M  V30 6647 C 615.323 -1.28352 1.11624 0
M  V30 6648 O 616.508 -1.3477 1.39824 0
M  V30 6649 C 613.638 -2.09349 2.77111 0
M  V30 6650 C 612.592 -1.78807 3.8886 0
M  V30 6651 C 611.918 -3.11112 4.34872 0
M  V30 6652 C 613.218 -1.0632 5.11364 0
M  V30 6653 H 614.912 -0.334608 2.97524 0
M  V30 6654 H 612.458 -0.159502 1.43114 0
M  V30 6655 H 614.411 -2.76275 3.18198 0
M  V30 6656 H 613.135 -2.62198 1.9473 0
M  V30 6657 H 611.794 -1.14273 3.48335 0
M  V30 6658 H 611.442 -3.61877 3.49362 0
M  V30 6659 H 611.142 -2.91453 5.10224 0
M  V30 6660 H 612.666 -3.79171 4.78604 0
M  V30 6661 H 614.08 -1.63383 5.49526 0
M  V30 6662 H 612.477 -0.967876 5.92243 0
M  V30 6663 H 613.547 -0.0484569 4.84876 0
M  V30 6664 N 614.89 -1.56749 -0.16351 0
M  V30 6665 C 615.82 -2.00042 -1.20438 0
M  V30 6666 C 616.801 -0.877256 -1.45733 0
M  V30 6667 O 617.986 -1.1439 -1.56935 0
M  V30 6668 C 615.116 -2.36697 -2.54149 0
M  V30 6669 C 614.07 -3.52046 -2.43408 0
M  V30 6670 C 613.396 -3.74466 -3.81679 0
M  V30 6671 C 614.696 -4.85247 -1.93216 0
M  V30 6672 H 616.39 -2.87244 -0.844477 0
M  V30 6673 H 613.936 -1.38194 -0.40478 0
M  V30 6674 H 615.889 -2.65582 -3.27176 0
M  V30 6675 H 614.613 -1.46414 -2.91943 0
M  V30 6676 H 613.272 -3.23301 -1.72834 0
M  V30 6677 H 612.92 -2.81461 -4.1688 0
M  V30 6678 H 612.62 -4.52084 -3.75359 0
M  V30 6679 H 614.144 -4.0576 -4.5628 0
M  V30 6680 H 615.558 -5.12957 -2.56023 0
M  V30 6681 H 613.955 -5.66556 -1.97825 0
M  V30 6682 H 615.025 -4.7672 -0.88689 0
M  V30 6683 N 616.368 0.432326 -1.51554 0
M  V30 6684 C 617.617 1.17831 -1.63703 0
M  V30 6685 C 617.93 1.92229 -0.36156 0
M  V30 6686 O 619.136 2.69069 -0.362495 0
M  V30 6687 C 617.592 2.14318 -2.89129 0
M  V30 6688 C 617.2 1.45544 -4.23699 0
M  V30 6689 C 618.944 2.89319 -3.10636 0
M  V30 6690 C 616.851 2.40545 -5.4027 0
M  V30 6691 H 615.781 0.443533 -0.60975 0
M  V30 6692 H 618.432 0.444878 -1.78026 0
M  V30 6693 H 616.814 2.91117 -2.68452 0
M  V30 6694 H 617.988 0.742693 -4.54775 0
M  V30 6695 H 616.303 0.826772 -4.0811 0
M  V30 6696 H 618.9 3.60495 -3.94902 0
M  V30 6697 H 619.243 3.50951 -2.23918 0
M  V30 6698 H 619.776 2.19625 -3.31677 0
M  V30 6699 H 616.515 1.83594 -6.29264 0
M  V30 6700 H 616.035 3.09859 -5.13563 0
M  V30 6701 H 617.714 3.01569 -5.72421 0
M  V30 6702 N 617.846 1.41785 0.688094 0
M  V30 6703 C 618.809 1.43936 1.78368 0
M  V30 6704 C 619.809 0.328866 1.57401 0
M  V30 6705 O 620.999 0.589093 1.63937 0
M  V30 6706 C 618.131 1.25804 3.16838 0
M  V30 6707 H 619.324 2.41472 1.77852 0
M  V30 6708 H 616.877 1.28037 0.896448 0
M  V30 6709 H 617.612 0.291386 3.22988 0
M  V30 6710 H 617.397 2.06272 3.33458 0
M  V30 6711 H 618.887 1.30162 3.96797 0
M  V30 6712 N 619.324 -0.923095 1.27737 0
M  V30 6713 C 620.549 -1.71054 1.17283 0
M  V30 6714 C 620.974 -1.86208 -0.266153 0
M  V30 6715 O 620.332 -1.36545 -1.1927 0
M  V30 6716 C 620.38 -3.0854 1.86642 0
M  V30 6717 O 619.484 -3.95528 1.16752 0
M  V30 6718 H 618.825 -0.524136 0.407649 0
M  V30 6719 H 621.355 -1.15487 1.6889 0
M  V30 6720 H 621.365 -3.58828 1.94182 0
M  V30 6721 H 620.04 -2.96828 2.91317 0
M  V30 6722 H 618.617 -3.53967 1.17312 0
M  V30 6723 N 620.802 -1.09834 -1.13024 0
M  V30 6724 C 622.048 -0.83819 -1.84668 0
M  V30 6725 C 622.381 0.634645 -1.83537 0
M  V30 6726 O 621.656 1.46753 -1.27647 0
M  V30 6727 C 621.939 -1.37933 -3.32636 0
M  V30 6728 C 621.792 -2.91857 -3.42257 0
M  V30 6729 C 623.111 -1.01654 -4.28199 0
M  V30 6730 H 620.23 -0.30595 -0.670495 0
M  V30 6731 H 622.872 -1.36044 -1.32635 0
M  V30 6732 H 621.022 -0.935111 -3.77078 0
M  V30 6733 H 622.694 -3.44759 -3.06495 0
M  V30 6734 H 620.937 -3.28776 -2.83 0
M  V30 6735 H 621.608 -3.24799 -4.46329 0
M  V30 6736 H 624.084 -1.39973 -3.9185 0
M  V30 6737 H 622.96 -1.42217 -5.30156 0
M  V30 6738 H 623.221 0.0747794 -4.42037 0
M  V30 6739 N 622.28 1.30327 -0.886154 0
M  V30 6740 C 623.557 1.90922 -0.425217 0
M  V30 6741 C 623.937 1.80533 1.09413 0
M  V30 6742 O 623.285 1.2233 1.92996 0
M  V30 6743 C 623.495 3.36529 -0.924638 0
M  V30 6744 C 624.843 4.13598 -0.960305 0
M  V30 6745 O 625.867 3.45377 -0.871382 0
M  V30 6746 O 624.726 5.35482 -1.09184 0
M  V30 6747 H 621.82 0.81668 -0.130238 0
M  V30 6748 H 624.366 1.38886 -0.975132 0
M  V30 6749 H 623.138 3.38181 -1.96849 0
M  V30 6750 H 622.761 3.96021 -0.353955 0
M  V30 6751 N 623.758 0.647228 1.43697 0
M  V30 6752 C 625.007 0.155552 2.01099 0
M  V30 6753 C 625.32 -1.23569 1.51624 0
M  V30 6754 O 626.526 -1.82226 2.01261 0
M  V30 6755 C 624.982 0.227296 3.59182 0
M  V30 6756 C 624.59 1.62086 4.17651 0
M  V30 6757 C 626.334 -0.207085 4.23995 0
M  V30 6758 C 624.241 1.64685 5.68008 0
M  V30 6759 H 623.171 0.0543895 0.752036 0
M  V30 6760 H 625.822 0.808386 1.64734 0
M  V30 6761 H 624.204 -0.492937 3.9292 0
M  V30 6762 H 625.378 2.36597 3.95422 0
M  V30 6763 H 623.693 2.0007 3.65186 0
M  V30 6764 H 626.29 -0.207426 5.34298 0
M  V30 6765 H 626.633 -1.23742 3.97484 0
M  V30 6766 H 627.166 0.461193 3.95118 0
M  V30 6767 H 623.905 2.65608 5.99277 0
M  V30 6768 H 623.425 0.944914 5.9231 0
M  V30 6769 H 625.104 1.38792 6.31938 0
M  V30 6770 N 625.236 -1.5273 0.388769 0
M  V30 6771 C 626.186 -2.23238 -0.463567 0
M  V30 6772 C 627.17 -1.23606 -1.03007 0
M  V30 6773 O 628.362 -1.48945 -0.956261 0
M  V30 6774 C 625.491 -3.04228 -1.5906 0
M  V30 6775 C 624.577 -4.11255 -1.03587 0
M  V30 6776 N 624.968 -5.0538 -0.206038 0
M  V30 6777 C 623.266 -4.26376 -1.30841 0
M  V30 6778 C 623.967 -5.81613 0.100359 0
M  V30 6779 N 622.943 -5.41264 -0.503447 0
M  V30 6780 H 626.745 -2.93367 0.176978 0
M  V30 6781 H 624.259 -1.61188 0.198046 0
M  V30 6782 H 626.256 -3.53277 -2.21362 0
M  V30 6783 H 624.916 -2.35634 -2.23398 0
M  V30 6784 H 625.927 -5.17663 0.156659 0
M  V30 6785 H 622.604 -3.69011 -1.95287 0
M  V30 6786 H 623.994 -6.67442 0.772676 0
M  V30 6787 N 626.714 -0.118576 -1.57153 0
M  V30 6788 C 627.942 0.54726 -1.99531 0
M  V30 6789 C 628.357 1.60251 -0.998246 0
M  V30 6790 O 627.714 1.82498 0.00893106 0
M  V30 6791 C 627.765 1.17378 -3.41913 0
M  V30 6792 O 627.486 0.160703 -4.37805 0
M  V30 6793 C 628.987 1.92297 -3.9942 0
M  V30 6794 H 626.207 0.144919 -0.655164 0
M  V30 6795 H 628.751 -0.20479 -2.03472 0
M  V30 6796 H 626.906 1.87661 -3.38913 0
M  V30 6797 H 627.32 0.61586 -5.20872 0
M  V30 6798 H 628.794 2.31462 -5.01128 0
M  V30 6799 H 629.271 2.79801 -3.38538 0
M  V30 6800 H 629.877 1.26777 -4.05965 0
M  V30 6801 N 628.193 1.56834 0.155195 0
M  V30 6802 C 629.14 1.97646 1.19184 0
M  V30 6803 C 630.11 0.842788 1.4313 0
M  V30 6804 O 631.295 1.1042 1.55602 0
M  V30 6805 C 628.435 2.35527 2.52232 0
M  V30 6806 C 627.548 3.62147 2.35529 0
M  V30 6807 C 626.683 3.89167 3.61555 0
M  V30 6808 C 625.722 5.09084 3.39853 0
M  V30 6809 N 624.859 5.32156 4.5799 0
M  V30 6810 H 629.699 2.8601 0.836802 0
M  V30 6811 H 627.236 1.41507 0.401758 0
M  V30 6812 H 629.194 2.55516 3.29799 0
M  V30 6813 H 627.824 1.50253 2.85699 0
M  V30 6814 H 626.876 3.4998 1.49057 0
M  V30 6815 H 628.188 4.49871 2.15448 0
M  V30 6816 H 627.342 4.09611 4.47553 0
M  V30 6817 H 626.081 2.9985 3.84632 0
M  V30 6818 H 625.086 4.88522 2.52243 0
M  V30 6819 H 626.311 5.99947 3.18183 0
M  V30 6820 H 624.257 4.45791 4.81255 0
M  V30 6821 H 624.174 6.14133 4.40882 0
M  V30 6822 H 625.442 5.57091 5.45225 0
M  V30 6823 N 629.671 -0.424282 1.51781 0
M  V30 6824 C 630.896 -1.19928 1.6921 0
M  V30 6825 C 631.321 -1.8392 0.394355 0
M  V30 6826 O 630.679 -1.69371 -0.646778 0
M  V30 6827 C 630.727 -2.24937 2.81843 0
M  V30 6828 O 629.831 -3.3073 2.46356 0
M  V30 6829 H 629.172 -0.35078 0.563781 0
M  V30 6830 H 631.702 -0.499401 1.98412 0
M  V30 6831 H 631.712 -2.69512 3.06312 0
M  V30 6832 H 630.387 -1.77742 3.76006 0
M  V30 6833 H 628.964 -2.9154 2.32505 0
M  V30 6834 N 631.149 -1.42148 -0.680565 0
M  V30 6835 C 632.081 -1.41119 -1.80605 0
M  V30 6836 C 633.094 -0.311099 -1.598 0
M  V30 6837 O 634.283 -0.573813 -1.69026 0
M  V30 6838 C 631.383 -1.18204 -3.17618 0
M  V30 6839 C 630.556 -2.40537 -3.65322 0
M  V30 6840 C 629.615 -2.13254 -4.8105 0
M  V30 6841 O 628.641 -2.8641 -4.91892 0
M  V30 6842 N 629.843 -1.13208 -5.69354 0
M  V30 6843 H 632.608 -2.38128 -1.81975 0
M  V30 6844 H 630.169 -1.36953 -0.863446 0
M  V30 6845 H 632.161 -0.97878 -3.92686 0
M  V30 6846 H 630.731 -0.29738 -3.11182 0
M  V30 6847 H 629.951 -2.76468 -2.80996 0
M  V30 6848 H 631.239 -3.22012 -3.93936 0
M  V30 6849 H 630.637 -0.526893 -5.63241 0
M  V30 6850 H 629.194 -0.988699 -6.44258 0
M  V30 6851 N 632.627 0.916307 -1.28225 0
M  V30 6852 C 633.857 1.69654 -1.17902 0
M  V30 6853 C 634.265 1.87331 0.265268 0
M  V30 6854 O 633.608 1.39828 1.19137 0
M  V30 6855 C 633.67 3.11024 -1.80289 0
M  V30 6856 C 633.334 3.16643 -3.29525 0
M  V30 6857 C 634.331 2.98032 -4.25997 0
M  V30 6858 C 632.016 3.39238 -3.70436 0
M  V30 6859 C 634.01 3.01924 -5.61356 0
M  V30 6860 C 631.697 3.42762 -5.05922 0
M  V30 6861 C 632.695 3.24125 -6.01192 0
M  V30 6862 O 632.383 3.27406 -7.34208 0
M  V30 6863 H 632.115 0.537197 -0.41036 0
M  V30 6864 H 634.669 1.15547 -1.69817 0
M  V30 6865 H 632.899 3.66662 -1.22865 0
M  V30 6866 H 634.588 3.71063 -1.6452 0
M  V30 6867 H 635.354 2.80405 -3.95725 0
M  V30 6868 H 631.233 3.52791 -2.96749 0
M  V30 6869 H 634.777 2.87295 -6.35694 0
M  V30 6870 H 630.674 3.59916 -5.35846 0
M  V30 6871 H 631.442 3.43784 -7.42802 0
M  V30 6872 N 634.105 1.10431 1.1244 0
M  V30 6873 C 635.055 0.722378 2.16254 0
M  V30 6874 C 636.039 -0.268427 1.58645 0
M  V30 6875 O 637.231 -0.077169 1.76832 0
M  V30 6876 C 634.36 0.155763 3.42946 0
M  V30 6877 C 633.446 1.17361 4.07538 0
M  V30 6878 N 633.837 2.36429 4.47141 0
M  V30 6879 C 632.135 1.01412 4.34317 0
M  V30 6880 C 632.836 3.01259 4.97612 0
M  V30 6881 N 631.812 2.28777 4.93115 0
M  V30 6882 H 635.614 1.62876 2.4464 0
M  V30 6883 H 633.128 0.982031 1.29344 0
M  V30 6884 H 635.125 -0.135936 4.16678 0
M  V30 6885 H 633.785 -0.745339 3.1603 0
M  V30 6886 H 634.796 2.73954 4.39511 0
M  V30 6887 H 631.473 0.168574 4.1716 0
M  V30 6888 H 632.863 4.02541 5.37968 0
M  V30 6889 N 635.583 -1.29855 0.893053 0
M  V30 6890 C 636.531 -2.29867 0.355512 0
M  V30 6891 C 637.525 -1.60502 -0.541801 0
M  V30 6892 O 638.731 -1.74902 -0.425339 0
M  V30 6893 H 635.106 -0.745805 0.0963247 0
M  V30 6894 H 637.077 -2.72655 1.21252 0
M  V30 6895 C 635.826 -3.453 -0.407801 0
M  V30 6896 H 635.149 -3.98864 0.273426 0
M  V30 6897 H 636.589 -4.17334 -0.748887 0
M  V30 6898 C 635.048 -2.96051 -1.60795 0
M  V30 6899 O 635.578 -2.96763 -2.7073 0
M  V30 6900 N 633.784 -2.51963 -1.44786 0
M  V30 6901 H 633.331 -2.51583 -0.553498 0
M  V30 6902 H 633.289 -2.1937 -2.2522 0
M  V30 6903 N 637.061 -0.65484 -1.43351 0
M  V30 6904 C 638.291 -0.176429 -2.05845 0
M  V30 6905 C 638.699 1.16375 -1.49176 0
M  V30 6906 O 638.042 1.72981 -0.618322 0
M  V30 6907 C 638.104 -0.0125844 -3.59498 0
M  V30 6908 C 637.768 -1.27831 -4.38758 0
M  V30 6909 C 638.765 -2.2074 -4.70712 0
M  V30 6910 C 636.45 -1.52035 -4.78739 0
M  V30 6911 C 638.444 -3.36145 -5.41558 0
M  V30 6912 C 636.131 -2.67732 -5.49329 0
M  V30 6913 C 637.129 -3.59612 -5.80662 0
M  V30 6914 O 636.817 -4.73289 -6.4981 0
M  V30 6915 H 636.549 -0.0879682 -0.670252 0
M  V30 6916 H 639.103 -0.896193 -1.84818 0
M  V30 6917 H 637.333 0.762567 -3.79107 0
M  V30 6918 H 639.022 0.423392 -4.03686 0
M  V30 6919 H 639.788 -2.03284 -4.40341 0
M  V30 6920 H 635.667 -0.813987 -4.53757 0
M  V30 6921 H 639.211 -4.07881 -5.65932 0
M  V30 6922 H 635.108 -2.85122 -5.79116 0
M  V30 6923 H 635.876 -4.72575 -6.68293 0
M  V30 6924 N 638.539 1.52521 -0.396863 0
M  V30 6925 C 639.502 2.2527 0.422604 0
M  V30 6926 C 640.502 1.27184 0.983913 0
M  V30 6927 O 641.692 1.51222 0.864723 0
M  V30 6928 C 638.824 3.01356 1.59365 0
M  V30 6929 H 640.017 2.99133 -0.214416 0
M  V30 6930 H 637.57 1.55587 -0.149128 0
M  V30 6931 H 638.305 2.31813 2.26789 0
M  V30 6932 H 638.09 3.73357 1.19779 0
M  V30 6933 H 639.58 3.56571 2.17363 0
M  V30 6934 N 640.017 0.126909 1.57088 0
M  V30 6935 C 641.266 -0.529024 1.94639 0
M  V30 6936 C 641.579 -1.67323 1.01304 0
M  V30 6937 O 642.785 -2.39245 1.28352 0
M  V30 6938 C 641.241 -0.992483 3.45945 0
M  V30 6939 C 640.849 0.123691 4.47829 0
M  V30 6940 C 642.593 -1.61934 3.924 0
M  V30 6941 C 640.5 -0.356911 5.90322 0
M  V30 6942 H 639.43 -0.201397 0.726605 0
M  V30 6943 H 642.081 0.208032 1.82317 0
M  V30 6944 H 640.463 -1.7842 3.53528 0
M  V30 6945 H 641.637 0.900168 4.51922 0
M  V30 6946 H 639.952 0.657699 4.11173 0
M  V30 6947 H 642.549 -1.9902 4.96281 0
M  V30 6948 H 642.892 -2.50075 3.32819 0
M  V30 6949 H 643.425 -0.892894 3.8765 0
M  V30 6950 H 640.164 0.488636 6.53676 0
M  V30 6951 H 639.684 -1.0997 5.89633 0
M  V30 6952 H 641.363 -0.815547 6.41839 0
M  V30 6953 N 641.495 -1.56914 -0.146875 0
M  V30 6954 C 642.772 -1.74273 -0.888165 0
M  V30 6955 C 643.152 -0.69496 -1.99333 0
M  V30 6956 O 642.5 0.286093 -2.26702 0
M  V30 6957 C 642.71 -3.18336 -1.43051 0
M  V30 6958 C 644.058 -3.80024 -1.89387 0
M  V30 6959 O 645.082 -3.21765 -1.52792 0
M  V30 6960 O 643.941 -4.82367 -2.56874 0
M  V30 6961 H 641.035 -0.712565 -0.419738 0
M  V30 6962 H 643.581 -1.6918 -0.132791 0
M  V30 6963 H 642.353 -3.86092 -0.636274 0
M  V30 6964 H 641.976 -3.27854 -2.24938 0
M  V30 6965 N 642.974 0.416227 -1.52004 0
M  V30 6966 C 644.22 1.16233 -1.66917 0
M  V30 6967 C 644.575 1.8839 -0.390763 0
M  V30 6968 O 643.868 1.81479 0.614478 0
M  V30 6969 C 644.062 2.18923 -2.82502 0
M  V30 6970 C 643.891 1.56849 -4.2146 0
M  V30 6971 C 642.661 1.34426 -4.87091 0
M  V30 6972 C 644.859 1.03322 -5.03815 0
M  V30 6973 N 642.841 0.681703 -6.10103 0
M  V30 6974 C 644.212 0.497165 -6.18003 0
M  V30 6975 C 646.267 0.926997 -4.89194 0
M  V30 6976 C 644.97 -0.134687 -7.19174 0
M  V30 6977 C 646.996 0.309009 -5.90592 0
M  V30 6978 C 646.358 -0.216399 -7.04068 0
M  V30 6979 H 642.457 0.412252 -0.664509 0
M  V30 6980 H 645.041 0.455758 -1.89291 0
M  V30 6981 H 643.212 2.86946 -2.61756 0
M  V30 6982 H 644.944 2.85844 -2.86488 0
M  V30 6983 H 641.699 1.61183 -4.45328 0
M  V30 6984 H 642.123 0.367256 -6.76003 0
M  V30 6985 H 646.765 1.31904 -4.01698 0
M  V30 6986 H 644.483 -0.538811 -8.06302 0
M  V30 6987 H 648.069 0.228438 -5.81351 0
M  V30 6988 H 646.949 -0.687064 -7.81184 0
M  V30 6989 N 644.452 1.42507 0.673017 0
M  V30 6990 C 645.384 1.42074 1.79854 0
M  V30 6991 C 646.397 0.319569 1.59633 0
M  V30 6992 O 647.586 0.582769 1.68719 0
M  V30 6993 C 644.686 1.19886 3.16987 0
M  V30 6994 C 643.859 2.42471 3.64042 0
M  V30 6995 C 642.918 2.15802 4.79913 0
M  V30 6996 O 641.944 2.89015 4.90366 0
M  V30 6997 N 643.146 1.16225 5.68746 0
M  V30 6998 H 645.911 2.3909 1.8071 0
M  V30 6999 H 643.472 1.37409 0.856171 0
M  V30 7000 H 645.464 0.999591 3.92161 0
M  V30 7001 H 644.034 0.313879 3.1102 0
M  V30 7002 H 643.254 2.77954 2.79526 0
M  V30 7003 H 644.542 3.24097 3.92223 0
M  V30 7004 H 643.94 0.556756 5.62954 0
M  V30 7005 H 642.497 1.02285 6.43724 0
M  V30 7006 N 645.93 -0.909495 1.28709 0
M  V30 7007 C 647.158 -1.69272 1.18973 0
M  V30 7008 C 647.573 -1.87123 -0.251048 0
M  V30 7009 O 646.93 -1.40127 -1.16922 0
M  V30 7010 C 646.981 -3.08257 1.88839 0
M  V30 7011 O 646.702 -2.91228 3.27289 0
M  V30 7012 C 648.203 -4.02642 1.85457 0
M  V30 7013 H 645.423 -0.528999 0.412797 0
M  V30 7014 H 647.967 -1.13803 1.69909 0
M  V30 7015 H 646.122 -3.6053 1.41762 0
M  V30 7016 H 646.536 -3.79223 3.6234 0
M  V30 7017 H 648.01 -4.97613 2.38925 0
M  V30 7018 H 648.487 -4.31327 0.827893 0
M  V30 7019 H 649.093 -3.56298 2.32233 0
M  V30 7020 N 647.408 -1.11026 -1.11852 0
M  V30 7021 C 648.656 -0.854769 -1.83134 0
M  V30 7022 C 648.977 0.621375 -1.84835 0
M  V30 7023 O 648.247 1.45129 -1.31584 0
M  V30 7024 H 646.827 -0.313229 -0.678157 0
M  V30 7025 H 649.489 -1.40178 -1.35411 0
M  V30 7026 H 648.585 -1.22311 -2.87135 0
M  V30 7027 N 648.886 1.2938 -0.899927 0
M  V30 7028 C 649.849 2.25983 -0.382677 0
M  V30 7029 C 650.849 1.53366 0.483259 0
M  V30 7030 O 652.039 1.71798 0.28828 0
M  V30 7031 C 649.171 3.37878 0.452915 0
M  V30 7032 H 650.364 2.73252 -1.23586 0
M  V30 7033 H 647.917 1.40825 -0.678088 0
M  V30 7034 H 648.652 2.95949 1.32608 0
M  V30 7035 H 648.437 3.91742 -0.167562 0
M  V30 7036 H 649.927 4.09746 0.806107 0
M  V30 7037 N 650.364 0.662433 1.43002 0
M  V30 7038 C 651.612 0.179237 2.01304 0
M  V30 7039 C 651.933 -1.21428 1.52579 0
M  V30 7040 O 651.203 -1.81294 0.742252 0
M  V30 7041 H 649.783 0.0632725 0.744316 0
M  V30 7042 H 652.445 0.856169 1.75088 0
M  V30 7043 H 651.541 0.170957 3.11631 0
M  V30 7044 N 651.842 -1.52309 0.404946 0
M  V30 7045 C 653.082 -2.03677 -0.171779 0
M  V30 7046 C 653.446 -1.28419 -1.42733 0
M  V30 7047 O 654.647 -1.69991 -2.08222 0
M  V30 7048 C 652.918 -3.54951 -0.417701 0
M  V30 7049 S 654.477 -4.28114 -0.962472 0
M  V30 7050 H 651.295 -0.709445 -0.0469912 0
M  V30 7051 H 653.897 -1.874 0.556901 0
M  V30 7052 H 652.601 -4.07306 0.50295 0
M  V30 7053 H 652.132 -3.75462 -1.17437 0
M  V30 7054 H 654.147 -4.42589 -2.24342 0
M  V30 7055 N 653.32 -0.135238 -1.57019 0
M  V30 7056 C 654.597 0.563227 -1.87316 0
M  V30 7057 C 654.977 1.83749 -1.03921 0
M  V30 7058 O 654.325 2.2817 -0.122675 0
M  V30 7059 C 654.535 0.840031 -3.3874 0
M  V30 7060 C 655.883 1.18598 -4.077 0
M  V30 7061 O 656.907 0.92977 -3.43851 0
M  V30 7062 O 655.766 1.66758 -5.20436 0
M  V30 7063 H 652.86 0.285971 -0.775983 0
M  V30 7064 H 655.406 -0.170965 -1.68837 0
M  V30 7065 H 654.178 -0.0622785 -3.9125 0
M  V30 7066 H 653.801 1.62882 -3.62706 0
M  V30 7067 N 654.798 1.5699 0.138552 0
M  V30 7068 C 655.761 1.97984 1.15478 0
M  V30 7069 C 656.761 0.867416 1.35398 0
M  V30 7070 O 657.951 1.13387 1.32246 0
M  V30 7071 C 655.083 2.3031 2.51337 0
M  V30 7072 H 656.276 2.88953 0.802896 0
M  V30 7073 H 653.829 1.51555 0.382189 0
M  V30 7074 H 654.564 1.42159 2.91481 0
M  V30 7075 H 654.349 3.11425 2.38237 0
M  V30 7076 H 655.839 2.62834 3.24512 0
M  V30 7077 N 656.276 -0.40816 1.52223 0
M  V30 7078 C 657.239 -1.48 1.7501 0
M  V30 7079 C 658.239 -1.48367 0.619996 0
M  V30 7080 O 659.429 -1.49874 0.887881 0
M  V30 7081 C 656.561 -2.87403 1.83336 0
M  V30 7082 H 657.754 -1.29086 2.70697 0
M  V30 7083 H 655.307 -0.638715 1.42654 0
M  V30 7084 H 656.042 -3.11686 0.895677 0
M  V30 7085 H 655.827 -2.8854 2.65494 0
M  V30 7086 H 657.317 -3.65103 2.02705 0
M  V30 7087 N 657.755 -1.42862 -0.66545 0
M  V30 7088 C 659.003 -1.43546 -1.42264 0
M  V30 7089 C 659.324 -0.0563116 -1.94919 0
M  V30 7090 O 658.594 0.906568 -1.73661 0
M  V30 7091 H 657.174 -0.528464 -0.527953 0
M  V30 7092 H 659.836 -1.78363 -0.785665 0
M  V30 7093 H 658.932 -2.14079 -2.27105 0
M  V30 7094 N 659.233 0.902656 -1.29189 0
M  V30 7095 C 660.48 1.65287 -1.16989 0
M  V30 7096 C 660.808 1.92485 0.279232 0
M  V30 7097 O 660.063 1.53143 1.21843 0
M  V30 7098 C 660.362 3.011 -1.92545 0
M  V30 7099 C 660.028 2.93521 -3.42281 0
M  V30 7100 C 658.69 2.91161 -3.83117 0
M  V30 7101 C 661.042 2.82947 -4.3771 0
M  V30 7102 C 658.37 2.76043 -5.17704 0
M  V30 7103 C 660.722 2.69368 -5.72384 0
M  V30 7104 C 659.386 2.65373 -6.12482 0
M  V30 7105 H 658.656 0.604828 -0.428094 0
M  V30 7106 H 661.303 1.05084 -1.60092 0
M  V30 7107 H 659.608 3.65153 -1.42024 0
M  V30 7108 H 661.305 3.58073 -1.80512 0
M  V30 7109 H 657.895 2.96158 -3.09819 0
M  V30 7110 H 662.079 2.83849 -4.07116 0
M  V30 7111 H 657.335 2.71352 -5.47885 0
M  V30 7112 H 661.509 2.60156 -6.45981 0
M  V30 7113 H 659.136 2.53415 -7.16718 0
M  V30 7114 N 660.711 1.11618 1.11262 0
M  V30 7115 C 661.958 0.86618 1.8304 0
M  V30 7116 C 662.286 -0.608149 1.84748 0
M  V30 7117 O 661.541 -1.46508 1.29745 0
M  V30 7118 C 661.84 1.37529 3.2988 0
M  V30 7119 C 661.506 2.86317 3.4833 0
M  V30 7120 C 660.168 3.26945 3.53073 0
M  V30 7121 C 662.52 3.82136 3.54431 0
M  V30 7122 C 659.848 4.62117 3.61475 0
M  V30 7123 C 662.2 5.17128 3.64365 0
M  V30 7124 C 660.864 5.57312 3.67369 0
M  V30 7125 H 660.134 0.316958 0.66979 0
M  V30 7126 H 662.781 1.3949 1.31205 0
M  V30 7127 H 661.086 0.766842 3.84222 0
M  V30 7128 H 662.783 1.15817 3.83911 0
M  V30 7129 H 659.373 2.53889 3.45309 0
M  V30 7130 H 663.557 3.51847 3.50025 0
M  V30 7131 H 658.813 4.92655 3.62079 0
M  V30 7132 H 662.987 5.91208 3.68029 0
M  V30 7133 H 660.614 6.62045 3.73632 0
M  V30 7134 N 662.189 -1.289 0.906776 0
M  V30 7135 C 663.417 -1.99401 0.551969 0
M  V30 7136 C 663.832 -1.67816 -0.865048 0
M  V30 7137 O 663.189 -0.927078 -1.57199 0
M  V30 7138 C 663.24 -3.53779 0.743152 0
M  V30 7139 O 662.961 -3.84248 2.1044 0
M  V30 7140 C 664.462 -4.41543 0.39424 0
M  V30 7141 H 661.682 -0.636926 0.211106 0
M  V30 7142 H 664.226 -1.64266 1.21807 0
M  V30 7143 H 662.381 -3.87201 0.124143 0
M  V30 7144 H 662.795 -4.78904 2.13895 0
M  V30 7145 H 664.269 -5.48957 0.578814 0
M  V30 7146 H 664.746 -4.34073 -0.669137 0
M  V30 7147 H 665.352 -4.13605 0.990491 0
M  V30 7148 N 663.667 -0.670007 -1.42649 0
M  V30 7149 C 664.913 -0.190568 -2.01903 0
M  V30 7150 C 665.246 1.19817 -1.52832 0
M  V30 7151 O 664.521 1.80342 -0.728485 0
M  V30 7152 C 664.804 -0.21991 -3.59428 0
M  V30 7153 C 664.657 -1.64376 -4.18689 0
M  V30 7154 C 665.976 0.434519 -4.3795 0
M  V30 7155 H 663.095 -0.0707219 -0.733599 0
M  V30 7156 H 665.737 -0.853883 -1.69732 0
M  V30 7157 H 663.887 0.344894 -3.86966 0
M  V30 7158 H 665.559 -2.26044 -4.02122 0
M  V30 7159 H 663.802 -2.18591 -3.747 0
M  V30 7160 H 664.473 -1.61601 -5.27815 0
M  V30 7161 H 666.949 -0.0462156 -4.16074 0
M  V30 7162 H 665.825 0.38333 -5.4756 0
M  V30 7163 H 666.086 1.51135 -4.15464 0
M  V30 7164 N 665.145 1.52092 -0.413018 0
M  V30 7165 C 666.392 2.01855 0.161497 0
M  V30 7166 C 666.72 1.29845 1.44812 0
M  V30 7167 O 665.975 0.394471 1.91683 0
M  V30 7168 C 666.274 3.54529 0.4521 0
M  V30 7169 C 665.94 4.4469 -0.745788 0
M  V30 7170 C 664.602 4.69053 -1.07435 0
M  V30 7171 C 666.954 4.97742 -1.54604 0
M  V30 7172 C 664.282 5.43717 -2.20429 0
M  V30 7173 C 666.634 5.73642 -2.66678 0
M  V30 7174 C 665.298 5.96277 -3.00016 0
M  V30 7175 H 664.568 0.73864 0.0590961 0
M  V30 7176 H 667.215 1.83274 -0.555234 0
M  V30 7177 H 665.52 3.7131 1.25045 0
M  V30 7178 H 667.217 3.90546 0.909647 0
M  V30 7179 H 663.807 4.25907 -0.479725 0
M  V30 7180 H 667.991 4.78824 -1.30543 0
M  V30 7181 H 663.247 5.59462 -2.46602 0
M  V30 7182 H 667.421 6.13746 -3.29072 0
M  V30 7183 H 665.048 6.53913 -3.87688 0
M  V30 7184 N 666.623 0.143563 1.56945 0
M  V30 7185 C 667.586 -0.783295 2.154 0
M  V30 7186 C 668.586 -1.17763 1.09492 0
M  V30 7187 O 669.776 -1.09912 1.35148 0
M  V30 7188 C 666.908 -2.06248 2.7143 0
M  V30 7189 H 668.101 -0.274863 2.98638 0
M  V30 7190 H 665.654 -0.105859 1.55941 0
M  V30 7191 H 666.389 -2.61466 1.91849 0
M  V30 7192 H 666.174 -1.78897 3.4891 0
M  V30 7193 H 667.664 -2.72453 3.16479 0
M  V30 7194 N 668.101 -1.57061 -0.130224 0
M  V30 7195 C 669.326 -1.88802 -0.858409 0
M  V30 7196 C 669.751 -0.734353 -1.73173 0
M  V30 7197 O 669.109 0.315529 -1.78533 0
M  V30 7198 C 669.157 -3.19228 -1.67708 0
M  V30 7199 O 668.261 -3.04343 -2.78297 0
M  V30 7200 H 667.602 -0.619849 -0.238083 0
M  V30 7201 H 670.132 -2.04271 -0.115995 0
M  V30 7202 H 670.142 -3.51669 -2.06864 0
M  V30 7203 H 668.817 -4.02793 -1.0359 0
M  V30 7204 H 667.394 -2.83346 -2.42425 0
M  V30 7205 N 669.579 0.400081 -1.52437 0
M  V30 7206 C 670.489 1.51253 -1.79331 0
M  V30 7207 C 671.505 1.60188 -0.679396 0
M  V30 7208 O 672.681 1.76733 -0.965791 0
M  V30 7209 C 669.746 2.869 -1.94652 0
M  V30 7210 C 668.807 2.87777 -3.18564 0
M  V30 7211 C 668.04 4.16954 -3.33145 0
M  V30 7212 O 668.263 5.11329 -2.52783 0
M  V30 7213 O 667.197 4.2487 -4.26343 0
M  V30 7214 H 671.023 1.31461 -2.73773 0
M  V30 7215 H 668.608 0.586834 -1.37392 0
M  V30 7216 H 670.49 3.67336 -2.065 0
M  V30 7217 H 669.165 3.06741 -1.034 0
M  V30 7218 H 668.072 2.06162 -3.12167 0
M  V30 7219 H 669.405 2.72886 -4.09627 0
M  V30 7220 N 671.057 1.43213 0.657864 0
M  V30 7221 C 671.987 1.50815 1.78262 0
M  V30 7222 C 672.968 0.363211 1.66177 0
M  V30 7223 O 674.153 0.579806 1.85343 0
M  V30 7224 C 671.283 1.42625 3.16663 0
M  V30 7225 C 670.237 2.5532 3.43505 0
M  V30 7226 C 669.563 2.32184 4.81658 0
M  V30 7227 C 670.863 3.97583 3.38711 0
M  V30 7228 H 672.557 2.44954 1.72157 0
M  V30 7229 H 670.103 1.17896 0.82683 0
M  V30 7230 H 672.056 1.46548 3.95097 0
M  V30 7231 H 670.78 0.449877 3.23487 0
M  V30 7232 H 669.439 2.50742 2.6744 0
M  V30 7233 H 669.087 1.32801 4.85153 0
M  V30 7234 H 668.787 3.07724 5.00579 0
M  V30 7235 H 670.311 2.37883 5.62356 0
M  V30 7236 H 671.725 4.03673 4.07089 0
M  V30 7237 H 670.122 4.73112 3.69168 0
M  V30 7238 H 671.192 4.23049 2.36976 0
M  V30 7239 N 672.536 -0.895792 1.29666 0
M  V30 7240 C 673.761 -1.68528 1.20885 0
M  V30 7241 C 674.186 -1.8673 -0.226595 0
M  V30 7242 O 673.544 -1.39044 -1.16347 0
M  V30 7243 C 673.592 -3.04512 1.93144 0
M  V30 7244 O 672.696 -3.92963 1.25115 0
M  V30 7245 H 672.037 -0.515371 0.418675 0
M  V30 7246 H 674.567 -1.11878 1.71302 0
M  V30 7247 H 674.577 -3.54628 2.0175 0
M  V30 7248 H 673.252 -2.90582 2.97548 0
M  V30 7249 H 671.829 -3.51399 1.24794 0
M  V30 7250 N 674.014 -1.12206 -1.10668 0
M  V30 7251 C 675.26 -0.877172 -1.82848 0
M  V30 7252 C 675.593 0.595571 -1.84842 0
M  V30 7253 O 674.868 1.44013 -1.30731 0
M  V30 7254 C 675.151 -1.44957 -3.29635 0
M  V30 7255 C 675.004 -2.99051 -3.35989 0
M  V30 7256 C 676.323 -1.10714 -4.25946 0
M  V30 7257 H 673.442 -0.320103 -0.663854 0
M  V30 7258 H 676.084 -1.38827 -1.2972 0
M  V30 7259 H 674.234 -1.01488 -3.7501 0
M  V30 7260 H 675.906 -3.51182 -2.99113 0
M  V30 7261 H 674.149 -3.34705 -2.75962 0
M  V30 7262 H 674.82 -3.34194 -4.39339 0
M  V30 7263 H 677.296 -1.48254 -3.88793 0
M  V30 7264 H 676.172 -1.5343 -5.2702 0
M  V30 7265 H 676.433 -0.019 -4.42096 0
M  V30 7266 N 675.492 1.28418 -0.913599 0
M  V30 7267 C 676.722 1.98817 -0.56172 0
M  V30 7268 C 677.13 1.68457 0.861321 0
M  V30 7269 O 676.473 0.933653 1.58204 0
M  V30 7270 C 676.535 3.52801 -0.690785 0
M  V30 7271 C 676.199 4.0675 -2.08334 0
M  V30 7272 C 677.196 4.20597 -3.05604 0
M  V30 7273 C 674.881 4.41445 -2.39648 0
M  V30 7274 C 676.875 4.68392 -4.32305 0
M  V30 7275 C 674.562 4.88934 -3.66588 0
M  V30 7276 C 675.56 5.02364 -4.6273 0
M  V30 7277 O 675.248 5.48817 -5.87414 0
M  V30 7278 H 674.98 0.641608 -0.212874 0
M  V30 7279 H 677.534 1.64584 -1.22887 0
M  V30 7280 H 675.764 3.86686 0.0334336 0
M  V30 7281 H 677.453 4.04422 -0.346031 0
M  V30 7282 H 678.219 3.94067 -2.8273 0
M  V30 7283 H 674.098 4.30242 -1.65567 0
M  V30 7284 H 677.642 4.7879 -5.07352 0
M  V30 7285 H 673.539 5.14904 -3.89287 0
M  V30 7286 H 674.307 5.67103 -5.90201 0
M  V30 7287 N 676.97 0.677563 1.42291 0
M  V30 7288 C 678.198 0.209459 2.05837 0
M  V30 7289 C 678.613 -1.13444 1.50917 0
M  V30 7290 O 677.97 -1.70529 0.65008 0
M  V30 7291 C 678.021 0.138819 3.61233 0
M  V30 7292 O 677.742 1.42962 4.14118 0
M  V30 7293 C 679.243 -0.352449 4.41897 0
M  V30 7294 H 676.463 0.101209 0.663323 0
M  V30 7295 H 679.007 0.925077 1.8238 0
M  V30 7296 H 677.162 -0.527505 3.83792 0
M  V30 7297 H 677.576 1.3048 5.08011 0
M  V30 7298 H 679.05 -0.350778 5.50884 0
M  V30 7299 H 679.527 -1.3882 4.16684 0
M  V30 7300 H 680.133 0.282236 4.24362 0
M  V30 7301 N 678.448 -1.51871 0.421078 0
M  V30 7302 C 679.378 -2.30231 -0.389363 0
M  V30 7303 C 680.359 -1.34946 -1.03555 0
M  V30 7304 O 681.544 -1.63859 -1.04229 0
M  V30 7305 C 678.674 -3.13247 -1.49979 0
M  V30 7306 C 677.628 -4.16677 -0.977966 0
M  V30 7307 C 676.954 -4.88112 -2.1829 0
M  V30 7308 C 678.254 -5.22295 -0.0236775 0
M  V30 7309 H 679.948 -2.98229 0.264524 0
M  V30 7310 H 677.494 -1.43424 0.12866 0
M  V30 7311 H 679.447 -3.66838 -2.07383 0
M  V30 7312 H 678.171 -2.4304 -2.18173 0
M  V30 7313 H 676.83 -3.64114 -0.426245 0
M  V30 7314 H 676.478 -4.14423 -2.85066 0
M  V30 7315 H 676.178 -5.58041 -1.84021 0
M  V30 7316 H 677.702 -5.44521 -2.76278 0
M  V30 7317 H 679.116 -5.71055 -0.506899 0
M  V30 7318 H 677.513 -5.99656 0.230782 0
M  V30 7319 H 678.583 -4.76131 0.917999 0
M  V30 7320 N 679.926 -0.151884 -1.56866 0
M  V30 7321 C 681.154 0.504813 -2.00647 0
M  V30 7322 C 681.569 1.58098 -1.03201 0
M  V30 7323 O 680.926 1.82476 -0.0297814 0
M  V30 7324 C 680.977 1.10099 -3.44326 0
M  V30 7325 O 680.698 0.0678021 -4.38048 0
M  V30 7326 C 682.199 1.83782 -4.03409 0
M  V30 7327 H 679.419 0.130989 -0.65809 0
M  V30 7328 H 681.963 -0.247903 -2.02992 0
M  V30 7329 H 680.118 1.8043 -3.42817 0
M  V30 7330 H 680.532 0.505237 -5.22061 0
M  V30 7331 H 682.006 2.2078 -5.05925 0
M  V30 7332 H 682.483 2.72557 -3.44397 0
M  V30 7333 H 683.089 1.18138 -4.08563 0
M  V30 7334 N 681.404 1.57128 0.121893 0
M  V30 7335 C 682.367 1.99197 1.13372 0
M  V30 7336 C 683.367 0.881728 1.3447 0
M  V30 7337 O 684.557 1.14783 1.31036 0
M  V30 7338 C 681.689 2.32963 2.4888 0
M  V30 7339 H 682.882 2.89788 0.772204 0
M  V30 7340 H 680.435 1.51952 0.366093 0
M  V30 7341 H 681.17 1.45243 2.89957 0
M  V30 7342 H 680.955 3.13934 2.34921 0
M  V30 7343 H 682.445 2.66261 3.21706 0
M  V30 7344 N 682.882 -0.391992 1.52647 0
M  V30 7345 C 684.131 -1.13449 1.6677 0
M  V30 7346 C 684.444 -1.91203 0.412399 0
M  V30 7347 O 685.65 -2.68013 0.433707 0
M  V30 7348 C 684.106 -2.06577 2.9471 0
M  V30 7349 C 683.714 -1.3426 4.27409 0
M  V30 7350 C 685.458 -2.80981 3.18198 0
M  V30 7351 C 683.365 -2.26136 5.46458 0
M  V30 7352 H 682.295 -0.427211 0.621295 0
M  V30 7353 H 684.946 -0.397522 1.79142 0
M  V30 7354 H 683.328 -2.83898 2.76076 0
M  V30 7355 H 684.502 -0.621856 4.56585 0
M  V30 7356 H 682.817 -0.718279 4.10158 0
M  V30 7357 H 685.414 -3.49898 4.04321 0
M  V30 7358 H 685.757 -3.44891 2.33144 0
M  V30 7359 H 686.29 -2.10754 3.37383 0
M  V30 7360 H 683.029 -1.66846 6.33911 0
M  V30 7361 H 682.549 -2.96134 5.21598 0
M  V30 7362 H 684.228 -2.86286 5.80215 0
M  V30 7363 N 684.36 -1.4356 -0.65026 0
M  V30 7364 C 685.588 -1.48779 -1.43779 0
M  V30 7365 C 686.003 -0.106593 -1.88499 0
M  V30 7366 O 685.36 0.883766 -1.59674 0
M  V30 7367 C 685.411 -2.43618 -2.67081 0
M  V30 7368 O 685.132 -3.76367 -2.24231 0
M  V30 7369 C 686.633 -2.5811 -3.60409 0
M  V30 7370 H 683.853 -0.50521 -0.441593 0
M  V30 7371 H 686.397 -1.88332 -0.796941 0
M  V30 7372 H 684.552 -2.07253 -3.273 0
M  V30 7373 H 684.966 -4.27394 -3.0403 0
M  V30 7374 H 686.44 -3.28539 -4.43583 0
M  V30 7375 H 686.917 -1.627 -4.07953 0
M  V30 7376 H 687.523 -2.95298 -3.0607 0
M  V30 7377 N 685.838 0.888903 -1.30139 0
M  V30 7378 C 686.768 2.01046 -1.18755 0
M  V30 7379 C 687.749 1.69916 -0.0791438 0
M  V30 7380 O 688.934 1.92445 -0.260498 0
M  V30 7381 C 686.064 3.36109 -0.874518 0
M  V30 7382 C 685.018 3.81486 -1.94043 0
M  V30 7383 C 684.344 5.13796 -1.48047 0
M  V30 7384 C 685.644 4.00637 -3.35093 0
M  V30 7385 H 687.338 2.10828 -2.12584 0
M  V30 7386 H 684.884 1.01298 -1.02346 0
M  V30 7387 H 686.837 4.14089 -0.781548 0
M  V30 7388 H 685.561 3.26449 0.0994519 0
M  V30 7389 H 684.22 3.05731 -2.02297 0
M  V30 7390 H 683.868 5.0056 -0.494878 0
M  V30 7391 H 683.568 5.45127 -2.19341 0
M  V30 7392 H 685.092 5.94305 -1.40121 0
M  V30 7393 H 686.506 4.69067 -3.2962 0
M  V30 7394 H 684.903 4.43339 -4.04438 0
M  V30 7395 H 685.973 3.0462 -3.77273 0
M  V30 7396 N 687.317 1.12792 1.10072 0
M  V30 7397 C 688.227 0.812369 2.20086 0
M  V30 7398 C 689.243 -0.200349 1.72843 0
M  V30 7399 O 690.419 -0.0330262 2.01373 0
M  V30 7400 C 687.484 0.275685 3.45602 0
M  V30 7401 C 686.545 1.34881 4.07561 0
M  V30 7402 C 685.778 0.837639 5.27086 0
M  V30 7403 O 686.001 -0.327224 5.69461 0
M  V30 7404 O 684.935 1.60894 5.79997 0
M  V30 7405 H 688.761 1.73133 2.49517 0
M  V30 7406 H 686.346 0.904863 1.18881 0
M  V30 7407 H 688.228 -0.0185375 4.21396 0
M  V30 7408 H 686.903 -0.615783 3.17789 0
M  V30 7409 H 685.81 1.69625 3.33434 0
M  V30 7410 H 687.143 2.21418 4.39585 0
M  V30 7411 N 688.795 -1.27931 0.920396 0
M  V30 7412 C 690.211 -1.47085 0.619537 0
M  V30 7413 C 690.411 -1.83463 -0.833291 0
M  V30 7414 O 689.467 -1.94363 -1.61181 0
M  V30 7415 C 690.78 -2.56878 1.56314 0
M  V30 7416 C 692.328 -2.70743 1.57058 0
M  V30 7417 C 692.803 -3.83687 2.50097 0
M  V30 7418 N 694.294 -3.9105 2.48262 0
M  V30 7419 C 695.029 -4.77842 3.16945 0
M  V30 7420 N 694.525 -5.69176 3.94982 0
M  V30 7421 N 696.318 -4.71509 3.06 0
M  V30 7422 H 688.469 -1.02601 1.85975 0
M  V30 7423 H 690.732 -0.511682 0.798051 0
M  V30 7424 H 690.438 -2.36923 2.59923 0
M  V30 7425 H 690.312 -3.54117 1.29928 0
M  V30 7426 H 692.699 -2.90083 0.541832 0
M  V30 7427 H 692.78 -1.74015 1.8749 0
M  V30 7428 H 692.424 -3.65101 3.53077 0
M  V30 7429 H 692.354 -4.79827 2.16964 0
M  V30 7430 H 694.845 -3.25738 1.91581 0
M  V30 7431 H 695.158 -6.32245 4.44394 0
M  V30 7432 H 693.503 -5.68995 3.99086 0
M  V30 7433 H 696.694 -3.99151 2.44533 0
M  V30 7434 H 696.867 -5.38933 3.59799 0
M  V30 7435 N 690.273 -0.685099 -1.4193 0
M  V30 7436 C 691.519 -0.220688 -2.02199 0
M  V30 7437 C 691.874 1.16329 -1.5325 0
M  V30 7438 O 691.167 1.77175 -0.729345 0
M  V30 7439 C 691.361 -0.206154 -3.56805 0
M  V30 7440 C 691.19 -1.58718 -4.2076 0
M  V30 7441 C 689.96 -2.18747 -4.55497 0
M  V30 7442 C 692.158 -2.53182 -4.47664 0
M  V30 7443 N 690.14 -3.49523 -5.04685 0
M  V30 7444 C 691.511 -3.68625 -4.98514 0
M  V30 7445 C 693.566 -2.51582 -4.29664 0
M  V30 7446 C 692.269 -4.82734 -5.33255 0
M  V30 7447 C 694.295 -3.64795 -4.65487 0
M  V30 7448 C 693.657 -4.78967 -5.16498 0
M  V30 7449 H 689.756 -0.12591 -0.771797 0
M  V30 7450 H 692.34 -0.900316 -1.72634 0
M  V30 7451 H 690.511 0.442923 -3.85866 0
M  V30 7452 H 692.243 0.272103 -4.03784 0
M  V30 7453 H 688.998 -1.71135 -4.41599 0
M  V30 7454 H 689.422 -4.1653 -5.33696 0
M  V30 7455 H 694.064 -1.64535 -3.89472 0
M  V30 7456 H 691.782 -5.7045 -5.72375 0
M  V30 7457 H 695.368 -3.64796 -4.53227 0
M  V30 7458 H 694.248 -5.6512 -5.437 0
M  V30 7459 N 691.751 1.51645 -0.429126 0
M  V30 7460 C 692.701 2.24388 0.404217 0
M  V30 7461 C 693.685 1.26294 0.996933 0
M  V30 7462 O 694.877 1.51428 0.916434 0
M  V30 7463 C 692.006 3.08338 1.50938 0
M  V30 7464 C 691.092 4.13857 0.926464 0
M  V30 7465 N 691.483 5.05749 0.0719732 0
M  V30 7466 C 689.781 4.29695 1.19491 0
M  V30 7467 C 690.482 5.81143 -0.254528 0
M  V30 7468 N 689.458 5.42408 0.359763 0
M  V30 7469 H 693.26 2.92794 -0.254697 0
M  V30 7470 H 690.774 1.60606 -0.240712 0
M  V30 7471 H 692.771 3.59022 2.11918 0
M  V30 7472 H 691.431 2.41475 2.17072 0
M  V30 7473 H 692.442 5.17066 -0.293854 0
M  V30 7474 H 689.119 3.74059 1.85434 0
M  V30 7475 H 690.509 6.65159 -0.949365 0
M  V30 7476 N 693.229 0.160201 1.56784 0
M  V30 7477 C 694.457 -0.494165 2.00912 0
M  V30 7478 C 694.872 -1.57548 1.04038 0
M  V30 7479 O 694.229 -1.82457 0.0394581 0
M  V30 7480 C 694.28 -1.08271 3.44905 0
M  V30 7481 O 694.001 -0.0445704 4.38077 0
M  V30 7482 C 695.502 -1.8164 4.04378 0
M  V30 7483 H 692.722 -0.127498 0.658776 0
M  V30 7484 H 695.266 0.258665 2.02858 0
M  V30 7485 H 693.421 -1.78609 3.4377 0
M  V30 7486 H 693.835 -0.477544 5.22322 0
M  V30 7487 H 695.309 -2.18094 5.07089 0
M  V30 7488 H 695.786 -2.70727 3.45838 0
M  V30 7489 H 696.392 -1.15969 4.09184 0
M  V30 7490 N 694.707 -1.5719 -0.113559 0
M  V30 7491 C 695.956 -1.84325 -0.818984 0
M  V30 7492 C 696.269 -0.746685 -1.80787 0
M  V30 7493 O 697.475 -0.904596 -2.55987 0
M  V30 7494 C 695.931 -3.26818 -1.50724 0
M  V30 7495 C 695.539 -4.44498 -0.559065 0
M  V30 7496 C 697.283 -3.63196 -2.19748 0
M  V30 7497 C 695.19 -5.7802 -1.25086 0
M  V30 7498 H 694.12 -0.687507 -0.309596 0
M  V30 7499 H 696.771 -1.8336 -0.0717621 0
M  V30 7500 H 695.153 -3.22269 -2.30128 0
M  V30 7501 H 696.327 -4.60356 0.202146 0
M  V30 7502 H 694.642 -4.16393 0.024495 0
M  V30 7503 H 697.239 -4.60226 -2.72206 0
M  V30 7504 H 697.582 -2.90899 -2.97798 0
M  V30 7505 H 698.115 -3.69553 -1.47226 0
M  V30 7506 H 694.854 -6.53501 -0.511539 0
M  V30 7507 H 694.374 -5.66038 -1.98395 0
M  V30 7508 H 696.053 -6.2196 -1.78253 0
M  V30 7509 N 696.185 0.383891 -1.52853 0
M  V30 7510 C 697.413 1.1495 -1.7203 0
M  V30 7511 C 697.828 1.83578 -0.440957 0
M  V30 7512 O 697.185 1.72872 0.584925 0
M  V30 7513 C 697.236 2.19368 -2.87333 0
M  V30 7514 O 696.957 1.53536 -4.10315 0
M  V30 7515 C 698.458 3.08616 -3.18231 0
M  V30 7516 H 695.678 0.344445 -0.575846 0
M  V30 7517 H 698.222 0.448397 -1.99524 0
M  V30 7518 H 696.377 2.85105 -2.62286 0
M  V30 7519 H 696.791 2.2296 -4.74752 0
M  V30 7520 H 698.265 3.77902 -4.02361 0
M  V30 7521 H 698.742 3.72409 -2.32826 0
M  V30 7522 H 699.348 2.48518 -3.45136 0
M  V30 7523 N 697.663 1.43903 0.642637 0
M  V30 7524 C 698.613 1.46321 1.74854 0
M  V30 7525 C 699.597 0.330361 1.57472 0
M  V30 7526 O 700.789 0.574881 1.67404 0
M  V30 7527 C 697.918 1.39919 3.13493 0
M  V30 7528 C 697.004 2.58274 3.36385 0
M  V30 7529 N 697.395 3.83578 3.29699 0
M  V30 7530 C 695.693 2.53224 3.67142 0
M  V30 7531 C 696.394 4.62375 3.52965 0
M  V30 7532 N 695.37 3.93269 3.75287 0
M  V30 7533 H 699.172 2.41062 1.68126 0
M  V30 7534 H 696.686 1.38704 0.844693 0
M  V30 7535 H 698.683 1.39735 3.92785 0
M  V30 7536 H 697.343 0.46207 3.21395 0
M  V30 7537 H 698.354 4.15713 3.08874 0
M  V30 7538 H 695.031 1.68252 3.82096 0
M  V30 7539 H 696.421 5.714 3.53485 0
M  V30 7540 N 699.141 -0.881989 1.30609 0
M  V30 7541 C 700.104 -1.96957 1.1722 0
M  V30 7542 C 701.104 -1.60472 0.102598 0
M  V30 7543 O 702.294 -1.70628 0.350943 0
M  V30 7544 C 699.426 -3.31463 0.796572 0
M  V30 7545 H 700.619 -2.10262 2.13846 0
M  V30 7546 H 698.172 -1.06877 1.14048 0
M  V30 7547 H 698.907 -3.23859 -0.169053 0
M  V30 7548 H 698.692 -3.59314 1.56959 0
M  V30 7549 H 700.182 -4.11233 0.72645 0
M  V30 7550 N 700.619 -1.13374 -1.09472 0
M  V30 7551 C 701.552 -0.754354 -2.15371 0
M  V30 7552 C 702.53 0.259205 -1.60521 0
M  V30 7553 O 703.714 0.150819 -1.87896 0
M  V30 7554 C 700.841 -0.118197 -3.38494 0
M  V30 7555 C 699.887 -1.10017 -4.12066 0
M  V30 7556 S 700.72 -2.63242 -4.6633 0
M  V30 7557 C 701.876 -2.00984 -5.92753 0
M  V30 7558 H 702.109 -1.65135 -2.4722 0
M  V30 7559 H 699.642 -0.953838 -1.21414 0
M  V30 7560 H 701.6 0.242447 -4.09783 0
M  V30 7561 H 700.261 0.756065 -3.04865 0
M  V30 7562 H 699.454 -0.60287 -5.00381 0
M  V30 7563 H 699.056 -1.40426 -3.46636 0
M  V30 7564 H 701.348 -1.35863 -6.63738 0
M  V30 7565 H 702.291 -2.8738 -6.47162 0
M  V30 7566 H 702.699 -1.46161 -5.4525 0
M  V30 7567 N 702.098 1.27442 -0.927168 0
M  V30 7568 C 703.03 2.25975 -0.383158 0
M  V30 7569 C 704.043 1.55382 0.485832 0
M  V30 7570 O 705.232 1.75986 0.298541 0
M  V30 7571 C 702.332 3.35629 0.469688 0
M  V30 7572 C 701.505 4.35747 -0.379886 0
M  V30 7573 C 700.564 5.24598 0.410227 0
M  V30 7574 O 699.59 5.68909 -0.181888 0
M  V30 7575 N 700.792 5.54737 1.71017 0
M  V30 7576 H 703.557 2.7329 -1.23015 0
M  V30 7577 H 701.118 1.41063 -0.794539 0
M  V30 7578 H 703.11 3.92015 1.00532 0
M  V30 7579 H 701.68 2.87919 1.21744 0
M  V30 7580 H 700.9 3.78634 -1.09682 0
M  V30 7581 H 702.188 4.99648 -0.960717 0
M  V30 7582 H 701.586 5.20594 2.21356 0
M  V30 7583 H 700.143 6.13824 2.19234 0
M  V30 7584 N 703.576 0.692616 1.41565 0
M  V30 7585 C 704.506 0.0397325 2.33466 0
M  V30 7586 C 705.487 -0.770334 1.51657 0
M  V30 7587 O 706.672 -0.723903 1.80203 0
M  V30 7588 C 703.802 -0.899495 3.3545 0
M  V30 7589 C 702.756 -0.196738 4.27548 0
M  V30 7590 C 702.082 -1.25012 5.19881 0
M  V30 7591 C 703.382 0.935158 5.1386 0
M  V30 7592 H 705.076 0.807296 2.88311 0
M  V30 7593 H 702.622 0.389665 1.38628 0
M  V30 7594 H 704.575 -1.36545 3.98665 0
M  V30 7595 H 703.299 -1.69869 2.78948 0
M  V30 7596 H 701.958 0.249158 3.65752 0
M  V30 7597 H 701.606 -2.04177 4.59696 0
M  V30 7598 H 701.306 -0.784931 5.82334 0
M  V30 7599 H 702.83 -1.71665 5.85972 0
M  V30 7600 H 704.244 0.549619 5.70659 0
M  V30 7601 H 702.641 1.32726 5.85238 0
M  V30 7602 H 703.711 1.77613 4.512 0
M  V30 7603 N 705.054 -1.51416 0.437162 0
M  V30 7604 C 706.331 -1.94682 -0.189292 0
M  V30 7605 C 706.711 -1.37581 -1.60108 0
M  V30 7606 O 706.059 -0.562815 -2.2146 0
M  V30 7607 C 706.269 -3.48599 -0.167201 0
M  V30 7608 C 707.617 -4.2296 -0.372856 0
M  V30 7609 O 708.641 -3.55354 -0.245323 0
M  V30 7610 O 707.5 -5.42895 -0.626693 0
M  V30 7611 H 704.594 -0.816708 -0.130063 0
M  V30 7612 H 707.14 -1.62316 0.495128 0
M  V30 7613 H 705.912 -3.82616 0.81981 0
M  V30 7614 H 705.535 -3.87406 -0.894537 0
M  V30 7615 N 706.532 -0.168513 -1.56696 0
M  V30 7616 C 707.772 0.479648 -1.98693 0
M  V30 7617 C 708.136 1.60609 -1.05209 0
M  V30 7618 O 709.337 2.3166 -1.36334 0
M  V30 7619 C 707.608 0.952852 -3.44464 0
M  V30 7620 S 709.167 1.60259 -4.08488 0
M  V30 7621 H 705.985 0.154377 -0.694038 0
M  V30 7622 H 708.587 -0.265312 -1.93691 0
M  V30 7623 H 707.291 0.12257 -4.10217 0
M  V30 7624 H 706.822 1.73192 -3.53225 0
M  V30 7625 H 708.837 2.89065 -4.03307 0
M  V30 7626 N 708.01 1.57248 0.105221 0
M  V30 7627 C 708.957 2.01338 1.12835 0
M  V30 7628 C 709.927 0.887897 1.40377 0
M  V30 7629 O 711.112 1.15315 1.5201 0
M  V30 7630 C 708.252 2.43432 2.44611 0
M  V30 7631 C 707.365 3.69457 2.23888 0
M  V30 7632 C 706.5 4.00473 3.48991 0
M  V30 7633 C 705.539 5.19638 3.23485 0
M  V30 7634 N 704.676 5.46457 4.40828 0
M  V30 7635 H 709.516 2.88527 0.745386 0
M  V30 7636 H 707.053 1.42714 0.356535 0
M  V30 7637 H 709.011 2.65879 3.21503 0
M  V30 7638 H 707.641 1.59266 2.80774 0
M  V30 7639 H 706.693 3.54545 1.37847 0
M  V30 7640 H 708.005 4.56497 2.01026 0
M  V30 7641 H 707.159 4.23642 4.34295 0
M  V30 7642 H 705.898 3.11935 3.74897 0
M  V30 7643 H 704.903 4.96299 2.36574 0
M  V30 7644 H 706.128 6.09766 2.98935 0
M  V30 7645 H 704.074 4.60876 4.66829 0
M  V30 7646 H 703.991 6.27849 4.2112 0
M  V30 7647 H 705.259 5.74155 5.27225 0
M  V30 7648 N 709.488 -0.375779 1.53054 0
M  V30 7649 C 710.734 -1.12114 1.68992 0
M  V30 7650 C 711.067 -1.8926 0.435238 0
M  V30 7651 O 710.342 -1.86044 -0.567278 0
M  V30 7652 C 710.625 -2.08867 2.93337 0
M  V30 7653 C 710.478 -1.35397 4.28938 0
M  V30 7654 C 711.797 -3.09124 3.13257 0
M  V30 7655 H 708.916 -0.406207 0.614951 0
M  V30 7656 H 711.558 -0.403054 1.85676 0
M  V30 7657 H 709.708 -2.70102 2.79244 0
M  V30 7658 H 711.38 -0.770242 4.54824 0
M  V30 7659 H 709.623 -0.655801 4.28814 0
M  V30 7660 H 710.294 -2.06161 5.12056 0
M  V30 7661 H 712.77 -2.57987 3.26469 0
M  V30 7662 H 711.646 -3.74054 4.01715 0
M  V30 7663 H 711.907 -3.78729 2.28072 0
M  V30 7664 N 710.966 -1.44241 -0.634997 0
M  V30 7665 C 711.898 -1.46793 -1.76024 0
M  V30 7666 C 712.911 -0.361781 -1.58729 0
M  V30 7667 O 714.1 -0.627297 -1.67114 0
M  V30 7668 C 711.2 -1.28248 -3.13697 0
M  V30 7669 C 710.373 -2.52038 -3.57485 0
M  V30 7670 C 709.432 -2.2845 -4.74022 0
M  V30 7671 O 708.458 -3.01915 -4.82531 0
M  V30 7672 N 709.66 -1.31264 -5.65464 0
M  V30 7673 H 712.425 -2.43797 -1.74307 0
M  V30 7674 H 709.986 -1.39631 -0.819438 0
M  V30 7675 H 711.978 -1.10321 -3.89373 0
M  V30 7676 H 710.548 -0.39623 -3.10079 0
M  V30 7677 H 709.768 -2.85268 -2.72059 0
M  V30 7678 H 711.056 -3.34382 -3.83492 0
M  V30 7679 H 710.454 -0.705817 -5.6128 0
M  V30 7680 H 709.011 -1.19316 -6.40786 0
M  V30 7681 N 712.444 0.87505 -1.31075 0
M  V30 7682 C 713.374 1.99775 -1.20881 0
M  V30 7683 C 714.355 1.69822 -0.0971612 0
M  V30 7684 O 715.54 1.92158 -0.280895 0
M  V30 7685 C 712.67 3.35163 -0.910118 0
M  V30 7686 C 711.624 3.79406 -1.98078 0
M  V30 7687 C 710.95 5.12197 -1.53488 0
M  V30 7688 C 712.25 3.97061 -3.39323 0
M  V30 7689 H 713.944 2.08562 -2.14808 0
M  V30 7690 H 711.49 1.00207 -1.03415 0
M  V30 7691 H 713.443 4.13237 -0.825423 0
M  V30 7692 H 712.167 3.26536 0.064822 0
M  V30 7693 H 710.826 3.03568 -2.05528 0
M  V30 7694 H 710.474 5.00007 -0.547941 0
M  V30 7695 H 710.174 5.4277 -2.2511 0
M  V30 7696 H 711.698 5.92785 -1.46417 0
M  V30 7697 H 713.112 4.65545 -3.34576 0
M  V30 7698 H 711.509 4.39025 -4.09118 0
M  V30 7699 H 712.579 3.00601 -3.80483 0
M  V30 7700 N 713.922 1.13953 1.08869 0
M  V30 7701 C 715.338 0.878924 1.33218 0
M  V30 7702 C 715.538 -0.482478 1.95638 0
M  V30 7703 O 714.594 -1.22778 2.2064 0
M  V30 7704 C 715.907 2.00798 2.23832 0
M  V30 7705 C 717.455 2.04073 2.37325 0
M  V30 7706 C 717.93 3.16258 3.31278 0
M  V30 7707 N 719.421 3.15805 3.38853 0
M  V30 7708 C 720.156 3.99249 4.11567 0
M  V30 7709 N 719.652 4.92721 4.87029 0
M  V30 7710 N 721.445 3.87327 4.0735 0
M  V30 7711 H 713.596 2.01645 0.66731 0
M  V30 7712 H 715.859 0.878395 0.356547 0
M  V30 7713 H 715.565 2.98986 1.85203 0
M  V30 7714 H 715.439 1.92704 3.24261 0
M  V30 7715 H 717.826 1.06495 2.75214 0
M  V30 7716 H 717.907 2.16239 1.36654 0
M  V30 7717 H 717.551 4.14079 2.9411 0
M  V30 7718 H 717.481 3.0133 4.31866 0
M  V30 7719 H 719.972 2.48102 2.8505 0
M  V30 7720 H 720.285 5.52867 5.39961 0
M  V30 7721 H 718.63 4.96723 4.86098 0
M  V30 7722 H 721.821 3.13627 3.475 0
M  V30 7723 H 721.994 4.52585 4.63757 0
M  V30 7724 N 715.4 -1.26948 0.933913 0
M  V30 7725 C 716.35 -2.24306 0.408779 0
M  V30 7726 C 717.334 -1.53243 -0.490435 0
M  V30 7727 O 718.526 -1.73956 -0.326866 0
M  V30 7728 C 715.655 -3.41695 -0.331578 0
M  V30 7729 C 714.741 -4.20053 0.58451 0
M  V30 7730 N 715.132 -4.76122 1.70709 0
M  V30 7731 C 713.43 -4.44303 0.388703 0
M  V30 7732 C 714.131 -5.35267 2.27737 0
M  V30 7733 N 713.107 -5.20548 1.56622 0
M  V30 7734 H 716.909 -2.65244 1.26582 0
M  V30 7735 H 714.423 -1.4195 0.788919 0
M  V30 7736 H 716.42 -4.10552 -0.724774 0
M  V30 7737 H 715.08 -3.02286 -1.18547 0
M  V30 7738 H 716.091 -4.73884 2.08937 0
M  V30 7739 H 712.768 -4.15341 -0.424016 0
M  V30 7740 H 714.158 -5.89563 3.22282 0
M  V30 7741 N 716.879 -0.700114 -1.41195 0
M  V30 7742 C 717.842 -0.0465706 -2.29153 0
M  V30 7743 C 718.842 0.703302 -1.44604 0
M  V30 7744 O 720.032 0.537513 -1.657 0
M  V30 7745 C 717.164 0.944324 -3.2756 0
M  V30 7746 H 718.357 -0.821064 -2.88442 0
M  V30 7747 H 715.91 -0.463869 -1.49258 0
M  V30 7748 H 716.645 1.74642 -2.73259 0
M  V30 7749 H 716.43 0.409701 -3.89954 0
M  V30 7750 H 717.92 1.39925 -3.9346 0
M  V30 7751 N 718.357 1.51182 -0.445186 0
M  V30 7752 C 719.32 2.26501 0.350722 0
M  V30 7753 C 720.32 1.3025 0.942952 0
M  V30 7754 O 721.51 1.53897 0.816175 0
M  V30 7755 C 718.642 3.06274 1.49697 0
M  V30 7756 H 719.835 2.98299 -0.309474 0
M  V30 7757 H 717.388 1.55034 -0.198551 0
M  V30 7758 H 718.123 2.38911 2.19299 0
M  V30 7759 H 717.908 3.76979 1.0784 0
M  V30 7760 H 719.398 3.63306 2.05909 0
M  V30 7761 N 719.835 0.176821 1.56605 0
M  V30 7762 C 721.06 -0.47599 2.01864 0
M  V30 7763 C 721.485 -1.55645 1.05623 0
M  V30 7764 O 720.843 -1.81263 0.0366729 0
M  V30 7765 C 720.891 -1.02619 3.4569 0
M  V30 7766 O 719.995 -2.13996 3.52533 0
M  V30 7767 H 719.336 -0.113363 0.654251 0
M  V30 7768 H 721.866 0.28233 2.02643 0
M  V30 7769 H 721.876 -1.34742 3.85109 0
M  V30 7770 H 720.551 -0.235138 4.15235 0
M  V30 7771 H 719.128 -1.82876 3.24978 0
M  V30 7772 N 721.313 -1.57302 -0.09688 0
M  V30 7773 C 722.559 -1.86273 -0.801885 0
M  V30 7774 C 722.892 -0.765694 -1.78468 0
M  V30 7775 O 722.167 0.226495 -1.93177 0
M  V30 7776 C 722.45 -3.25876 -1.53221 0
M  V30 7777 C 722.303 -4.46205 -0.567529 0
M  V30 7778 C 723.622 -3.63352 -2.48321 0
M  V30 7779 H 720.741 -0.67752 -0.29006 0
M  V30 7780 H 723.383 -1.89887 -0.0655577 0
M  V30 7781 H 721.533 -3.22926 -2.15988 0
M  V30 7782 H 723.205 -4.6127 0.0529982 0
M  V30 7783 H 721.448 -4.33636 0.119233 0
M  V30 7784 H 722.119 -5.40608 -1.11564 0
M  V30 7785 H 724.595 -3.67234 -1.95648 0
M  V30 7786 H 723.471 -4.61968 -2.9644 0
M  V30 7787 H 723.732 -2.91941 -3.31998 0
M  V30 7788 N 722.791 0.367657 -1.53252 0
M  V30 7789 C 723.724 1.47264 -1.74323 0
M  V30 7790 C 724.702 1.51458 -0.591535 0
M  V30 7791 O 725.886 1.69542 -0.823883 0
M  V30 7792 C 723.013 2.85637 -1.82015 0
M  V30 7793 C 722.059 2.99176 -3.03967 0
M  V30 7794 S 722.892 2.68147 -4.63527 0
M  V30 7795 C 724.048 4.08673 -4.74065 0
M  V30 7796 H 724.281 1.29169 -2.67773 0
M  V30 7797 H 721.814 0.561866 -1.43814 0
M  V30 7798 H 723.772 3.65365 -1.87132 0
M  V30 7799 H 722.433 3.01043 -0.896195 0
M  V30 7800 H 721.626 4.00511 -3.05953 0
M  V30 7801 H 721.228 2.27367 -2.96952 0
M  V30 7802 H 723.52 5.02889 -4.53992 0
M  V30 7803 H 724.463 4.11693 -5.7612 0
M  V30 7804 H 724.871 3.95576 -4.02716 0
M  V30 7805 N 724.269 1.44576 0.627338 0
M  V30 7806 C 725.515 1.47777 1.38888 0
M  V30 7807 C 725.848 0.111406 1.9388 0
M  V30 7808 O 725.123 -0.87149 1.73883 0
M  V30 7809 C 725.406 2.54119 2.55138 0
M  V30 7810 C 725.259 4.00128 2.0547 0
M  V30 7811 C 726.578 2.56929 3.57317 0
M  V30 7812 H 723.697 0.538048 0.50366 0
M  V30 7813 H 726.339 1.76277 0.708978 0
M  V30 7814 H 724.489 2.29948 3.13139 0
M  V30 7815 H 726.161 4.35444 1.5227 0
M  V30 7816 H 724.404 4.11724 1.36623 0
M  V30 7817 H 725.075 4.7019 2.89181 0
M  V30 7818 H 727.551 2.78536 3.09122 0
M  V30 7819 H 726.427 3.33234 4.36173 0
M  V30 7820 H 726.688 1.6127 4.11636 0
M  V30 7821 N 725.747 -0.868086 1.31537 0
M  V30 7822 C 726.68 -1.97871 1.13676 0
M  V30 7823 C 727.658 -1.62551 0.0397589 0
M  V30 7824 O 728.842 -1.87473 0.196539 0
M  V30 7825 C 725.969 -3.30577 0.73734 0
M  V30 7826 C 725.015 -3.8488 1.83765 0
M  V30 7827 S 725.848 -4.10106 3.44345 0
M  V30 7828 C 727.004 -5.45806 3.06344 0
M  V30 7829 H 727.237 -2.12719 2.07697 0
M  V30 7830 H 724.77 -1.01849 1.16044 0
M  V30 7831 H 726.728 -4.07274 0.513641 0
M  V30 7832 H 725.389 -3.13562 -0.183787 0
M  V30 7833 H 724.582 -4.80821 1.51085 0
M  V30 7834 H 724.184 -3.14981 2.01651 0
M  V30 7835 H 726.476 -6.27535 2.55354 0
M  V30 7836 H 727.419 -5.83437 4.01257 0
M  V30 7837 H 727.827 -5.0917 2.43734 0
M  V30 7838 N 727.225 -1.14528 -1.08264 0
M  V30 7839 C 728.473 -0.912599 -1.80322 0
M  V30 7840 C 728.794 0.562256 -1.86718 0
M  V30 7841 O 728.064 1.40869 -1.36135 0
M  V30 7842 H 726.644 -0.334645 -0.667849 0
M  V30 7843 H 729.306 -1.44415 -1.30883 0
M  V30 7844 H 728.402 -1.31384 -2.83098 0
M  V30 7845 N 728.703 1.26451 -0.940633 0
M  V30 7846 C 729.949 1.94401 -0.598303 0
M  V30 7847 C 730.304 1.72449 0.853178 0
M  V30 7848 O 729.597 1.0506 1.60228 0
M  V30 7849 C 729.791 3.46503 -0.875794 0
M  V30 7850 C 729.62 3.83247 -2.3527 0
M  V30 7851 C 728.39 4.06032 -3.00776 0
M  V30 7852 C 730.588 3.91841 -3.33114 0
M  V30 7853 N 728.57 4.29656 -4.38485 0
M  V30 7854 C 729.941 4.19991 -4.56078 0
M  V30 7855 C 731.996 3.74466 -3.28146 0
M  V30 7856 C 730.699 4.32574 -5.74693 0
M  V30 7857 C 732.725 3.88281 -4.46085 0
M  V30 7858 C 732.087 4.16829 -5.67831 0
M  V30 7859 H 728.186 0.734168 -0.269297 0
M  V30 7860 H 730.77 1.52541 -1.20992 0
M  V30 7861 H 728.941 3.87292 -0.293223 0
M  V30 7862 H 730.673 4.01664 -0.494788 0
M  V30 7863 H 727.428 4.01369 -2.51396 0
M  V30 7864 H 727.852 4.45501 -5.09762 0
M  V30 7865 H 732.494 3.51424 -2.35077 0
M  V30 7866 H 730.212 4.54438 -6.68215 0
M  V30 7867 H 733.798 3.76241 -4.43773 0
M  V30 7868 H 732.678 4.27284 -6.5757 0
M  V30 7869 N 730.181 0.707592 1.40822 0
M  V30 7870 C 731.43 0.240705 2.00259 0
M  V30 7871 C 731.743 -1.17027 1.56729 0
M  V30 7872 O 732.949 -1.73526 2.08809 0
M  V30 7873 C 731.405 0.379432 3.57894 0
M  V30 7874 C 731.013 1.79654 4.104 0
M  V30 7875 C 732.757 -0.0270684 4.24491 0
M  V30 7876 C 730.664 1.88628 5.60512 0
M  V30 7877 H 729.594 0.0862369 0.749052 0
M  V30 7878 H 732.245 0.877528 1.61157 0
M  V30 7879 H 730.627 -0.325842 3.94657 0
M  V30 7880 H 731.801 2.53155 3.85032 0
M  V30 7881 H 730.116 2.15379 3.56372 0
M  V30 7882 H 732.713 0.0193743 5.34696 0
M  V30 7883 H 733.056 -1.06772 4.02375 0
M  V30 7884 H 733.589 0.628361 3.92806 0
M  V30 7885 H 730.328 2.90787 5.87472 0
M  V30 7886 H 729.848 1.19528 5.8777 0
M  V30 7887 H 731.527 1.6547 6.25483 0
M  V30 7888 N 731.66 -1.50943 0.453197 0
M  V30 7889 C 732.907 -2.02212 -0.107922 0
M  V30 7890 C 733.235 -1.33639 -1.41318 0
M  V30 7891 O 732.49 -0.445154 -1.9057 0
M  V30 7892 C 732.789 -3.55603 -0.357944 0
M  V30 7893 C 732.455 -4.42556 0.863427 0
M  V30 7894 C 731.117 -4.6604 1.19834 0
M  V30 7895 C 733.469 -4.93468 1.67747 0
M  V30 7896 C 730.797 -5.37681 2.34768 0
M  V30 7897 C 733.149 -5.6637 2.81793 0
M  V30 7898 C 731.813 -5.88113 3.1572 0
M  V30 7899 H 731.083 -0.739947 -0.0394916 0
M  V30 7900 H 733.73 -1.81738 0.60363 0
M  V30 7901 H 732.035 -3.74495 -1.15156 0
M  V30 7902 H 733.732 -3.92821 -0.805781 0
M  V30 7903 H 730.322 -4.24485 0.592478 0
M  V30 7904 H 734.506 -4.75194 1.43192 0
M  V30 7905 H 729.762 -5.52727 2.61348 0
M  V30 7906 H 733.936 -6.04806 3.45229 0
M  V30 7907 H 731.563 -6.43404 4.04889 0
M  V30 7908 N 733.138 -0.185124 -1.56509 0
M  V30 7909 C 734.101 0.72591 -2.17401 0
M  V30 7910 C 735.101 1.14819 -1.12575 0
M  V30 7911 O 736.291 1.0629 -1.38015 0
M  V30 7912 C 733.423 1.98979 -2.76803 0
M  V30 7913 H 734.616 0.195588 -2.99262 0
M  V30 7914 H 732.169 0.0644772 -1.56167 0
M  V30 7915 H 732.904 2.56287 -1.98714 0
M  V30 7916 H 732.689 1.69583 -3.53531 0
M  V30 7917 H 734.179 2.63966 -3.23592 0
M  V30 7918 N 734.616 1.57351 0.0885366 0
M  V30 7919 C 735.863 1.86419 0.790824 0
M  V30 7920 C 736.191 0.774561 1.78412 0
M  V30 7921 O 735.446 -0.23119 1.9433 0
M  V30 7922 C 735.745 3.22098 1.5488 0
M  V30 7923 C 735.411 4.4548 0.697025 0
M  V30 7924 C 734.073 4.78975 0.462237 0
M  V30 7925 C 736.425 5.21094 0.105315 0
M  V30 7926 C 733.753 5.85507 -0.374016 0
M  V30 7927 C 736.105 6.28509 -0.718298 0
M  V30 7928 C 734.769 6.60515 -0.963116 0
M  V30 7929 H 734.039 0.682157 0.289383 0
M  V30 7930 H 736.686 1.91429 0.0520961 0
M  V30 7931 H 734.991 3.12803 2.35927 0
M  V30 7932 H 736.688 3.41819 2.09669 0
M  V30 7933 H 733.278 4.19255 0.890137 0
M  V30 7934 H 737.462 4.95544 0.273856 0
M  V30 7935 H 732.718 6.08713 -0.572606 0
M  V30 7936 H 736.892 6.86268 -1.18362 0
M  V30 7937 H 734.519 7.42893 -1.6129 0
M  V30 7938 N 736.094 -0.359525 1.53444 0
M  V30 7939 C 737.057 -1.42357 1.7963 0
M  V30 7940 C 738.057 -1.46319 0.666884 0
M  V30 7941 O 739.247 -1.46974 0.935113 0
M  V30 7942 C 736.379 -2.81425 1.92387 0
M  V30 7943 H 737.572 -1.20409 2.74666 0
M  V30 7944 H 735.125 -0.593007 1.44614 0
M  V30 7945 H 735.86 -3.08679 0.994384 0
M  V30 7946 H 735.645 -2.79947 2.74539 0
M  V30 7947 H 737.135 -3.5847 2.14218 0
M  V30 7948 N 737.572 -1.44907 -0.619662 0
M  V30 7949 C 738.535 -1.52282 -1.71297 0
M  V30 7950 C 739.535 -0.40359 -1.55653 0
M  V30 7951 O 740.725 -0.666638 -1.6094 0
M  V30 7952 C 737.857 -1.40778 -3.10474 0
M  V30 7953 H 739.05 -2.49683 -1.66128 0
M  V30 7954 H 736.603 -1.32168 -0.834339 0
M  V30 7955 H 737.338 -0.445156 -3.2123 0
M  V30 7956 H 737.123 -2.21947 -3.23237 0
M  V30 7957 H 738.613 -1.48946 -3.90135 0
M  V30 7958 N 739.05 0.861098 -1.31996 0
M  V30 7959 C 740.013 1.95068 -1.20338 0
M  V30 7960 C 741.013 1.60289 -0.128114 0
M  V30 7961 O 742.203 1.70048 -0.378044 0
M  V30 7962 C 739.335 3.30153 -0.849205 0
M  V30 7963 H 740.528 2.06833 -2.17164 0
M  V30 7964 H 738.081 1.05049 -1.15734 0
M  V30 7965 H 738.816 3.24087 0.117508 0
M  V30 7966 H 738.601 3.56771 -1.62655 0
M  V30 7967 H 740.091 4.10025 -0.791782 0
M  V30 7968 N 740.528 1.15101 1.07655 0
M  V30 7969 C 741.458 0.867864 2.16773 0
M  V30 7970 C 742.439 -0.180283 1.69142 0
M  V30 7971 O 743.624 -0.0353152 1.94168 0
M  V30 7972 C 740.754 0.35299 3.45501 0
M  V30 7973 C 739.708 1.33746 4.06566 0
M  V30 7974 C 739.034 0.681562 5.30338 0
M  V30 7975 C 740.334 2.7024 4.46954 0
M  V30 7976 H 742.028 1.78034 2.40716 0
M  V30 7977 H 739.574 0.857435 1.15689 0
M  V30 7978 H 741.527 0.142465 4.21159 0
M  V30 7979 H 740.251 -0.594945 3.21135 0
M  V30 7980 H 738.91 1.53429 3.32949 0
M  V30 7981 H 738.558 -0.272422 5.02262 0
M  V30 7982 H 738.258 1.33853 5.72151 0
M  V30 7983 H 739.782 0.48074 6.08705 0
M  V30 7984 H 741.196 2.5442 5.13754 0
M  V30 7985 H 739.593 3.32282 4.99709 0
M  V30 7986 H 740.663 3.26537 3.58471 0
M  V30 7987 N 742.006 -1.2595 0.947325 0
M  V30 7988 C 743.253 -1.93463 0.598178 0
M  V30 7989 C 743.581 -1.74271 -0.863705 0
M  V30 7990 O 742.836 -1.07684 -1.63409 0
M  V30 7991 C 743.135 -3.46034 0.894158 0
M  V30 7992 C 742.801 -3.85373 2.3409 0
M  V30 7993 C 741.463 -3.95823 2.73637 0
M  V30 7994 C 743.815 -4.04986 3.2808 0
M  V30 7995 C 741.143 -4.23288 4.06257 0
M  V30 7996 C 743.495 -4.3394 4.60303 0
M  V30 7997 C 742.159 -4.42606 4.99656 0
M  V30 7998 H 741.429 -0.707933 0.218889 0
M  V30 7999 H 744.076 -1.4964 1.19499 0
M  V30 8000 H 742.381 -3.9121 0.214874 0
M  V30 8001 H 744.078 -3.96445 0.602698 0
M  V30 8002 H 740.668 -3.7779 2.02417 0
M  V30 8003 H 744.852 -3.96333 2.9872 0
M  V30 8004 H 740.108 -4.28211 4.36401 0
M  V30 8005 H 744.282 -4.48061 5.33118 0
M  V30 8006 H 741.909 -4.63641 6.02446 0
M  V30 8007 N 743.484 -0.715051 -1.40445 0
M  V30 8008 C 744.895 -0.326763 -1.83818 0
M  V30 8009 C 745.246 1.13851 -1.59789 0
M  V30 8010 O 744.371 1.87611 -1.07848 0
M  V30 8011 C 744.966 -0.586297 -3.33688 0
M  V30 8012 C 743.525 -0.251724 -3.75557 0
M  V30 8013 C 742.672 -0.858928 -2.63662 0
M  V30 8014 H 745.623 -0.914241 -1.2972 0
M  V30 8015 H 745.644 0.148636 -3.8021 0
M  V30 8016 H 745.156 -1.65281 -3.51146 0
M  V30 8017 H 743.257 0.809754 -3.63695 0
M  V30 8018 H 743.37 -0.720348 -4.73654 0
M  V30 8019 H 741.734 -0.287013 -2.53078 0
M  V30 8020 H 742.517 -1.9297 -2.83932 0
M  V30 8021 N 744.962 1.50701 -0.461195 0
M  V30 8022 C 746.211 2.01458 0.0988277 0
M  V30 8023 C 746.524 1.34863 1.41673 0
M  V30 8024 O 747.73 1.76721 2.06111 0
M  V30 8025 C 746.186 3.59186 0.226648 0
M  V30 8026 C 745.794 4.34732 -1.08223 0
M  V30 8027 C 747.538 4.18015 0.73916 0
M  V30 8028 C 745.445 5.8422 -0.918747 0
M  V30 8029 H 744.375 0.7529 0.040709 0
M  V30 8030 H 747.026 1.736 -0.594589 0
M  V30 8031 H 745.408 3.83589 0.983621 0
M  V30 8032 H 746.582 4.22059 -1.84939 0
M  V30 8033 H 744.897 3.87466 -1.52509 0
M  V30 8034 H 747.494 5.27436 0.878347 0
M  V30 8035 H 747.837 3.78746 1.72793 0
M  V30 8036 H 748.37 3.9778 0.0398469 0
M  V30 8037 H 745.109 6.27944 -1.88059 0
M  V30 8038 H 744.629 5.99493 -0.191801 0
M  V30 8039 H 746.308 6.44382 -0.581405 0
M  V30 8040 N 746.441 0.193421 1.56409 0
M  V30 8041 C 747.688 -0.445789 1.97532 0
M  V30 8042 C 748.016 -1.61744 1.08024 0
M  V30 8043 O 747.271 -1.95338 0.118982 0
M  V30 8044 C 747.57 -0.949718 3.44551 0
M  V30 8045 C 747.236 0.108383 4.5077 0
M  V30 8046 C 745.898 0.399126 4.79542 0
M  V30 8047 C 748.25 0.825423 5.14622 0
M  V30 8048 C 745.578 1.41192 5.69457 0
M  V30 8049 C 747.93 1.82735 6.05632 0
M  V30 8050 C 746.594 2.12531 6.32761 0
M  V30 8051 H 745.864 -0.163126 0.722822 0
M  V30 8052 H 748.511 0.290035 1.89291 0
M  V30 8053 H 746.816 -1.76378 3.49854 0
M  V30 8054 H 748.513 -1.45367 3.73724 0
M  V30 8055 H 745.103 -0.128392 4.28408 0
M  V30 8056 H 749.287 0.61403 4.92487 0
M  V30 8057 H 744.543 1.6487 5.88751 0
M  V30 8058 H 748.717 2.3882 6.5417 0
M  V30 8059 H 746.344 2.91155 7.02234 0
M  V30 8060 N 747.919 -1.57396 -0.0801906 0
M  V30 8061 C 749.167 -1.86467 -0.779384 0
M  V30 8062 C 749.488 -0.784243 -1.78535 0
M  V30 8063 O 748.758 0.187986 -1.94996 0
M  V30 8064 H 747.338 -0.68806 -0.29083 0
M  V30 8065 H 750 -1.94813 -0.0582749 0
M  V30 8066 H 749.096 -2.83701 -1.30078 0
M  V30 8067 N 749.397 0.351382 -1.53633 0
M  V30 8068 C 750.646 1.08988 -1.69719 0
M  V30 8069 C 750.959 1.90043 -0.462948 0
M  V30 8070 O 752.165 2.66769 -0.504613 0
M  V30 8071 C 750.621 1.98691 -3.00083 0
M  V30 8072 C 750.229 1.22881 -4.30818 0
M  V30 8073 C 751.973 2.72446 -3.25536 0
M  V30 8074 C 749.88 2.11568 -5.52262 0
M  V30 8075 H 748.81 0.410588 -0.632403 0
M  V30 8076 H 751.461 0.349886 -1.80133 0
M  V30 8077 H 749.843 2.76478 -2.83506 0
M  V30 8078 H 751.017 0.500582 -4.58073 0
M  V30 8079 H 749.332 0.60928 -4.11918 0
M  V30 8080 H 751.929 3.39055 -4.13456 0
M  V30 8081 H 752.272 3.38588 -2.42206 0
M  V30 8082 H 752.805 2.01735 -3.42852 0
M  V30 8083 H 749.544 1.4998 -6.38111 0
M  V30 8084 H 749.064 2.82201 -5.29266 0
M  V30 8085 H 750.743 2.70802 -5.87601 0
M  V30 8086 N 750.875 1.45233 0.611969 0
M  V30 8087 C 752.1 1.52767 1.40274 0
M  V30 8088 C 752.525 0.159701 1.87421 0
M  V30 8089 O 751.883 -0.854837 1.59882 0
M  V30 8090 C 751.931 2.51286 2.58626 0
M  V30 8091 O 751.035 2.02764 3.59111 0
M  V30 8092 H 750.376 0.515141 0.418958 0
M  V30 8093 H 752.906 1.90547 0.745188 0
M  V30 8094 H 752.916 2.69949 3.05927 0
M  V30 8095 H 751.591 3.50641 2.23659 0
M  V30 8096 H 750.168 1.93957 3.18489 0
M  V30 8097 N 752.353 -0.854086 1.3245 0
M  V30 8098 C 753.578 -1.64597 1.26185 0
M  V30 8099 C 754.003 -1.87357 -0.167074 0
M  V30 8100 O 753.361 -1.42675 -1.11864 0
M  V30 8101 C 753.409 -2.98213 2.02734 0
M  V30 8102 O 752.513 -3.88784 1.37554 0
M  V30 8103 H 751.854 -0.50179 0.434859 0
M  V30 8104 H 754.384 -1.06372 1.74775 0
M  V30 8105 H 754.394 -3.4803 2.1293 0
M  V30 8106 H 753.069 -2.80969 3.06642 0
M  V30 8107 H 751.646 -3.4725 1.3591 0
M  V30 8108 N 753.831 -1.1567 -1.07043 0
M  V30 8109 C 755.061 -0.956083 -1.83146 0
M  V30 8110 C 755.469 0.498969 -1.82502 0
M  V30 8111 O 754.812 1.35791 -1.23719 0
M  V30 8112 C 754.874 -1.39704 -3.31245 0
M  V30 8113 C 754.538 -2.87045 -3.55604 0
M  V30 8114 C 755.535 -3.85092 -3.49285 0
M  V30 8115 C 753.22 -3.24787 -3.8317 0
M  V30 8116 C 755.214 -5.18885 -3.70185 0
M  V30 8117 C 752.901 -4.58751 -4.03721 0
M  V30 8118 C 753.899 -5.55609 -3.97224 0
M  V30 8119 O 753.587 -6.87154 -4.17223 0
M  V30 8120 H 753.319 -0.339473 -0.58458 0
M  V30 8121 H 755.873 -1.53922 -1.36005 0
M  V30 8122 H 754.103 -0.757326 -3.79212 0
M  V30 8123 H 755.792 -1.16503 -3.88821 0
M  V30 8124 H 756.558 -3.5728 -3.27988 0
M  V30 8125 H 752.437 -2.49979 -3.87339 0
M  V30 8126 H 755.981 -5.94473 -3.6503 0
M  V30 8127 H 751.878 -4.86277 -4.24505 0
M  V30 8128 H 752.646 -6.93618 -4.34553 0
M  V30 8129 N 755.309 1.25446 -0.953992 0
M  V30 8130 C 756.242 2.24341 -0.417912 0
M  V30 8131 C 757.22 1.54709 0.5004 0
M  V30 8132 O 758.404 1.83414 0.434923 0
M  V30 8133 C 755.531 3.36352 0.398155 0
M  V30 8134 C 754.577 4.24007 -0.460461 0
M  V30 8135 S 755.41 5.00951 -1.89231 0
M  V30 8136 C 756.566 6.1643 -1.08465 0
M  V30 8137 H 756.799 2.69465 -1.25602 0
M  V30 8138 H 754.332 1.34512 -0.758018 0
M  V30 8139 H 756.29 4.01325 0.863059 0
M  V30 8140 H 754.951 2.89813 1.21108 0
M  V30 8141 H 754.144 5.03728 0.165415 0
M  V30 8142 H 753.746 3.63965 -0.860549 0
M  V30 8143 H 756.038 6.76681 -0.333017 0
M  V30 8144 H 756.981 6.8335 -1.85577 0
M  V30 8145 H 757.389 5.61139 -0.615062 0
M  V30 8146 N 756.787 0.722489 1.40064 0
M  V30 8147 C 757.734 0.0743738 2.3068 0
M  V30 8148 C 758.704 -0.743004 1.48555 0
M  V30 8149 O 759.889 -0.705536 1.77276 0
M  V30 8150 C 757.029 -0.836292 3.34814 0
M  V30 8151 C 756.142 -0.00764663 4.31999 0
M  V30 8152 C 755.277 -0.918428 5.232 0
M  V30 8153 C 754.316 -0.0842838 6.12042 0
M  V30 8154 N 753.453 -0.950316 6.95639 0
M  V30 8155 H 758.293 0.852794 2.85537 0
M  V30 8156 H 755.83 0.432222 1.40607 0
M  V30 8157 H 757.788 -1.3786 3.93765 0
M  V30 8158 H 756.418 -1.58082 2.81443 0
M  V30 8159 H 755.47 0.651928 3.74772 0
M  V30 8160 H 756.782 0.63786 4.94705 0
M  V30 8161 H 755.936 -1.52902 5.87116 0
M  V30 8162 H 754.675 -1.59774 4.60786 0
M  V30 8163 H 753.68 0.5392 5.4715 0
M  V30 8164 H 754.905 0.591628 6.76518 0
M  V30 8165 H 752.851 -1.61515 6.35806 0
M  V30 8166 H 752.768 -0.361004 7.55138 0
M  V30 8167 H 754.036 -1.54687 7.63997 0
M  V30 8168 N 758.265 -1.50454 0.469181 0
M  V30 8169 C 759.511 -2.02615 -0.0865971 0
M  V30 8170 C 759.844 -1.35062 -1.39542 0
M  V30 8171 O 759.119 -0.475701 -1.88593 0
M  V30 8172 C 759.402 -3.59068 -0.272385 0
M  V30 8173 C 759.255 -4.37196 1.05733 0
M  V30 8174 C 760.574 -4.2793 -1.0278 0
M  V30 8175 H 757.693 -0.736389 -0.0299977 0
M  V30 8176 H 760.335 -1.79792 0.614399 0
M  V30 8177 H 758.485 -3.78646 -0.869471 0
M  V30 8178 H 760.157 -4.29195 1.69084 0
M  V30 8179 H 758.4 -4.01013 1.65442 0
M  V30 8180 H 759.071 -5.44924 0.880997 0
M  V30 8181 H 761.547 -4.12816 -0.521718 0
M  V30 8182 H 760.423 -5.37214 -1.12659 0
M  V30 8183 H 760.684 -3.90968 -2.0639 0
M  V30 8184 N 759.743 -0.201713 -1.56304 0
M  V30 8185 C 760.968 0.443815 -2.02596 0
M  V30 8186 C 761.393 1.53945 -1.08086 0
M  V30 8187 O 760.751 1.81182 -0.0655056 0
M  V30 8188 C 760.799 0.971066 -3.47279 0
M  V30 8189 O 759.903 2.0836 -3.55893 0
M  V30 8190 H 759.244 0.10294 -0.655972 0
M  V30 8191 H 761.774 -0.314533 -2.02168 0
M  V30 8192 H 761.784 1.28598 -3.87204 0
M  V30 8193 H 760.459 0.169048 -4.15556 0
M  V30 8194 H 759.036 1.77683 -3.27846 0
M  V30 8195 N 761.222 1.57436 0.0718424 0
M  V30 8196 C 762.471 1.86431 0.769826 0
M  V30 8197 C 762.784 0.794355 1.78744 0
M  V30 8198 O 763.99 0.972148 2.53499 0
M  V30 8199 C 762.446 3.307 1.42006 0
M  V30 8200 C 762.054 4.45824 0.441017 0
M  V30 8201 C 763.798 3.68894 2.10041 0
M  V30 8202 C 761.705 5.81134 1.09717 0
M  V30 8203 H 760.635 0.695474 0.291259 0
M  V30 8204 H 763.286 1.83485 0.0231224 0
M  V30 8205 H 761.668 3.28257 2.21502 0
M  V30 8206 H 762.842 4.59659 -0.32413 0
M  V30 8207 H 761.157 4.16181 -0.134886 0
M  V30 8208 H 763.754 4.67281 2.59908 0
M  V30 8209 H 764.097 2.98692 2.89981 0
M  V30 8210 H 764.63 3.73326 1.37376 0
M  V30 8211 H 761.369 6.54628 0.338095 0
M  V30 8212 H 760.889 5.711 1.83317 0
M  V30 8213 H 762.568 6.26468 1.617 0
M  V30 8214 N 762.7 -0.34323 1.53817 0
M  V30 8215 C 763.94 -1.09188 1.72793 0
M  V30 8216 C 764.304 -1.85876 0.481062 0
M  V30 8217 O 765.505 -2.63158 0.547851 0
M  V30 8218 C 763.776 -2.00783 2.9567 0
M  V30 8219 S 765.335 -2.82866 3.35459 0
M  V30 8220 H 762.153 -0.368926 0.607795 0
M  V30 8221 H 764.755 -0.370265 1.91962 0
M  V30 8222 H 763.459 -1.43245 3.84589 0
M  V30 8223 H 762.99 -2.77381 2.78968 0
M  V30 8224 H 765.005 -4.03196 2.89218 0
M  V30 8225 N 764.178 -1.45556 -0.604258 0
M  V30 8226 C 765.108 -1.57327 -1.72541 0
M  V30 8227 C 766.089 -0.424637 -1.64714 0
M  V30 8228 O 767.274 -0.648196 -1.83063 0
M  V30 8229 C 764.404 -1.54279 -3.11152 0
M  V30 8230 C 763.358 -2.67893 -3.33792 0
M  V30 8231 C 762.684 -2.499 -4.72709 0
M  V30 8232 C 763.984 -4.0988 -3.23722 0
M  V30 8233 H 765.678 -2.51175 -1.62947 0
M  V30 8234 H 763.224 -1.20884 -0.782504 0
M  V30 8235 H 765.177 -1.6111 -3.89386 0
M  V30 8236 H 763.901 -0.569627 -3.21594 0
M  V30 8237 H 762.56 -2.60495 -2.57949 0
M  V30 8238 H 762.208 -1.50715 -4.79889 0
M  V30 8239 H 761.908 -3.26091 -4.88813 0
M  V30 8240 H 763.432 -2.5859 -5.5314 0
M  V30 8241 H 764.846 -4.18503 -3.91826 0
M  V30 8242 H 763.243 -4.86487 -3.51355 0
M  V30 8243 H 764.313 -4.31553 -2.21111 0
M  V30 8244 N 765.656 0.84705 -1.32902 0
M  V30 8245 C 767.067 1.41785 -1.21466 0
M  V30 8246 C 767.418 1.95464 0.169767 0
M  V30 8247 O 766.543 1.88157 1.06892 0
M  V30 8248 C 767.138 2.57734 -2.19906 0
M  V30 8249 C 765.697 3.10791 -2.12334 0
M  V30 8250 C 764.844 1.83562 -2.07847 0
M  V30 8251 H 767.795 0.653532 -1.44619 0
M  V30 8252 H 767.816 3.35123 -1.80202 0
M  V30 8253 H 767.328 2.18635 -3.20656 0
M  V30 8254 H 765.429 3.54455 -1.14858 0
M  V30 8255 H 765.542 3.71519 -3.02506 0
M  V30 8256 H 763.906 2.03475 -1.53199 0
M  V30 8257 H 764.689 1.4667 -3.10392 0
M  V30 8258 N 767.134 1.16236 1.06428 0
M  V30 8259 C 768.067 0.81119 2.13295 0
M  V30 8260 C 769.045 -0.216555 1.61151 0
M  V30 8261 O 770.229 -0.100949 1.88229 0
M  V30 8262 C 767.356 0.207901 3.38061 0
M  V30 8263 C 766.402 1.20904 4.09004 0
M  V30 8264 S 767.235 2.75513 4.59187 0
M  V30 8265 C 768.391 2.1663 5.87216 0
M  V30 8266 H 768.624 1.71632 2.42755 0
M  V30 8267 H 766.157 0.985693 1.18842 0
M  V30 8268 H 768.115 -0.133715 4.10282 0
M  V30 8269 H 766.776 -0.67497 3.06762 0
M  V30 8270 H 765.969 0.735326 4.98607 0
M  V30 8271 H 765.571 1.49567 3.42791 0
M  V30 8272 H 767.863 1.53413 6.59902 0
M  V30 8273 H 768.806 3.04437 6.39315 0
M  V30 8274 H 769.214 1.60565 5.41183 0
M  V30 8275 N 768.612 -1.24939 0.960631 0
M  V30 8276 C 769.889 -1.88118 0.535807 0
M  V30 8277 C 770.269 -1.86605 -0.987009 0
M  V30 8278 O 769.617 -1.33375 -1.85536 0
M  V30 8279 C 769.827 -3.30565 1.11927 0
M  V30 8280 C 771.175 -4.07296 1.19981 0
M  V30 8281 O 772.199 -3.39709 1.07126 0
M  V30 8282 O 771.058 -5.28206 1.40218 0
M  V30 8283 H 768.152 -0.807698 0.177631 0
M  V30 8284 H 770.698 -1.32964 1.05445 0
M  V30 8285 H 769.47 -3.26128 2.16231 0
M  V30 8286 H 769.093 -3.93284 0.584245 0
M  V30 8287 N 770.09 -0.729906 -1.39679 0
M  V30 8288 C 771.339 -0.272534 -1.9985 0
M  V30 8289 C 771.652 1.14519 -1.58571 0
M  V30 8290 O 772.858 1.70182 -2.11543 0
M  V30 8291 C 771.314 -0.436322 -3.57245 0
M  V30 8292 C 770.922 -1.86161 -4.0749 0
M  V30 8293 C 772.666 -0.0404679 -4.24481 0
M  V30 8294 C 770.573 -1.97522 -5.5744 0
M  V30 8295 H 769.503 -0.0981428 -0.747585 0
M  V30 8296 H 772.154 -0.903056 -1.59741 0
M  V30 8297 H 770.536 0.263015 -3.95126 0
M  V30 8298 H 771.71 -2.59248 -3.80955 0
M  V30 8299 H 770.025 -2.21021 -3.529 0
M  V30 8300 H 772.622 -0.104437 -5.34598 0
M  V30 8301 H 772.965 1.00357 -4.04023 0
M  V30 8302 H 773.498 -0.690774 -3.91757 0
M  V30 8303 H 770.237 -3.00096 -5.82771 0
M  V30 8304 H 769.757 -1.28864 -5.85794 0
M  V30 8305 H 771.436 -1.754 -6.22771 0
M  V30 8306 N 771.568 1.50203 -0.477153 0
M  V30 8307 C 772.845 1.95115 0.137609 0
M  V30 8308 C 773.225 1.41778 1.56404 0
M  V30 8309 O 772.573 0.621333 2.1989 0
M  V30 8310 C 772.783 3.4892 0.0747168 0
M  V30 8311 C 774.131 4.238 0.260585 0
M  V30 8312 O 775.155 3.5588 0.151021 0
M  V30 8313 O 774.014 5.44366 0.482534 0
M  V30 8314 H 771.108 0.81987 0.108364 0
M  V30 8315 H 773.654 1.60946 -0.537989 0
M  V30 8316 H 772.426 3.80308 -0.920966 0
M  V30 8317 H 772.049 3.89642 0.791509 0
M  V30 8318 N 773.046 0.209999 1.56195 0
M  V30 8319 C 774.271 -0.433064 2.02828 0
M  V30 8320 C 774.696 -1.5337 1.08901 0
M  V30 8321 O 774.054 -1.81144 0.0751132 0
M  V30 8322 C 774.102 -0.952635 3.47789 0
M  V30 8323 O 773.206 -2.0647 3.56993 0
M  V30 8324 H 772.547 -0.0994594 0.656509 0
M  V30 8325 H 775.077 0.32525 2.01998 0
M  V30 8326 H 775.087 -1.26542 3.8788 0
M  V30 8327 H 773.762 -0.147007 4.1564 0
M  V30 8328 H 772.339 -1.75942 3.28784 0
M  V30 8329 N 774.524 -1.57472 -0.0634922 0
M  V30 8330 C 775.935 -1.76303 -0.614337 0
M  V30 8331 C 776.286 -0.836578 -1.77471 0
M  V30 8332 O 775.411 -0.0227184 -2.16388 0
M  V30 8333 C 776.006 -3.19709 -1.12122 0
M  V30 8334 C 774.565 -3.39856 -1.61786 0
M  V30 8335 C 773.712 -2.71975 -0.540845 0
M  V30 8336 H 776.663 -1.57864 0.162702 0
M  V30 8337 H 776.684 -3.24326 -1.98979 0
M  V30 8338 H 776.196 -3.87114 -0.276472 0
M  V30 8339 H 774.297 -2.77578 -2.48558 0
M  V30 8340 H 774.41 -4.48338 -1.68908 0
M  V30 8341 H 772.774 -2.34763 -0.987854 0
M  V30 8342 H 773.557 -3.4204 0.293856 0
M  V30 8343 N 776.003 0.335068 -1.53997 0
M  V30 8344 C 776.933 1.41727 -1.85568 0
M  V30 8345 C 777.914 1.54505 -0.7115 0
M  V30 8346 O 779.099 1.68573 -0.964191 0
M  V30 8347 C 776.229 2.7866 -2.07282 0
M  V30 8348 C 775.183 2.80682 -3.23112 0
M  V30 8349 C 774.509 4.20581 -3.30175 0
M  V30 8350 C 775.809 2.45458 -4.61029 0
M  V30 8351 H 777.503 1.15555 -2.76202 0
M  V30 8352 H 775.049 0.554445 -1.32898 0
M  V30 8353 H 777.002 3.54423 -2.27952 0
M  V30 8354 H 775.726 3.06286 -1.13387 0
M  V30 8355 H 774.385 2.07373 -3.02311 0
M  V30 8356 H 774.033 4.4533 -2.33859 0
M  V30 8357 H 773.733 4.22843 -4.08016 0
M  V30 8358 H 775.257 4.98174 -3.53066 0
M  V30 8359 H 776.671 3.10934 -4.81656 0
M  V30 8360 H 775.068 2.5899 -5.41336 0
M  V30 8361 H 776.138 1.40628 -4.6406 0
M  V30 8362 N 777.481 1.45874 0.596531 0
M  V30 8363 C 778.706 1.54247 1.38646 0
M  V30 8364 C 779.131 0.179571 1.87241 0
M  V30 8365 O 778.489 -0.837831 1.6078 0
M  V30 8366 C 778.537 2.54015 2.55946 0
M  V30 8367 O 777.641 2.06561 3.5694 0
M  V30 8368 H 776.982 0.519555 0.413471 0
M  V30 8369 H 779.512 1.91327 0.724936 0
M  V30 8370 H 779.522 2.73179 3.03047 0
M  V30 8371 H 778.197 3.52994 2.19928 0
M  V30 8372 H 776.774 1.97324 3.16414 0
M  V30 8373 N 778.959 -0.83999 1.33349 0
M  V30 8374 C 779.891 -1.95678 1.19344 0
M  V30 8375 C 780.904 -1.62322 0.124692 0
M  V30 8376 O 782.093 -1.74516 0.375012 0
M  V30 8377 C 779.193 -3.29133 0.807771 0
M  V30 8378 C 778.366 -3.9063 1.96792 0
M  V30 8379 C 777.425 -5.02438 1.56341 0
M  V30 8380 O 776.451 -5.21646 2.27759 0
M  V30 8381 N 777.653 -5.78612 0.467767 0
M  V30 8382 H 780.418 -2.08229 2.15548 0
M  V30 8383 H 777.979 -1.01566 1.26079 0
M  V30 8384 H 779.971 -4.01355 0.519282 0
M  V30 8385 H 778.541 -3.12535 -0.063555 0
M  V30 8386 H 777.761 -3.11011 2.4221 0
M  V30 8387 H 779.049 -4.2845 2.74422 0
M  V30 8388 H 778.447 -5.65559 -0.126324 0
M  V30 8389 H 777.004 -6.51362 0.238945 0
M  V30 8390 N 780.437 -1.16799 -1.0581 0
M  V30 8391 C 781.367 -0.902241 -2.15364 0
M  V30 8392 C 782.348 0.153351 -1.69407 0
M  V30 8393 O 783.533 0.00442032 -1.94199 0
M  V30 8394 C 780.663 -0.407911 -3.44896 0
M  V30 8395 C 779.617 -1.40197 -4.04387 0
M  V30 8396 C 778.943 -0.765848 -5.29187 0
M  V30 8397 C 780.243 -2.77316 -4.42598 0
M  V30 8398 H 781.937 -1.81841 -2.37853 0
M  V30 8399 H 779.483 -0.875731 -1.14311 0
M  V30 8400 H 781.436 -0.20945 -4.20879 0
M  V30 8401 H 780.16 0.54378 -3.22041 0
M  V30 8402 H 778.819 -1.58707 -3.30466 0
M  V30 8403 H 778.467 0.192482 -5.02632 0
M  V30 8404 H 778.167 -1.42939 -5.69949 0
M  V30 8405 H 779.691 -0.577519 -6.07863 0
M  V30 8406 H 781.105 -2.62561 -5.09642 0
M  V30 8407 H 779.502 -3.4019 -4.94359 0
M  V30 8408 H 780.572 -3.32199 -3.53231 0
M  V30 8409 N 781.915 1.24427 -0.967243 0
M  V30 8410 C 783.145 1.96256 -0.64554 0
M  V30 8411 C 783.553 1.71959 0.789098 0
M  V30 8412 O 782.896 0.999913 1.54102 0
M  V30 8413 C 782.958 3.49553 -0.839798 0
M  V30 8414 C 782.622 3.97548 -2.25399 0
M  V30 8415 C 783.619 4.07257 -3.23168 0
M  V30 8416 C 781.304 4.30884 -2.58156 0
M  V30 8417 C 783.298 4.49635 -4.51782 0
M  V30 8418 C 780.985 4.72946 -3.86996 0
M  V30 8419 C 781.983 4.82286 -4.83621 0
M  V30 8420 O 781.671 5.23409 -6.10162 0
M  V30 8421 H 781.403 0.632002 -0.239895 0
M  V30 8422 H 783.957 1.59224 -1.29757 0
M  V30 8423 H 782.187 3.86479 -0.130603 0
M  V30 8424 H 783.876 4.02591 -0.517249 0
M  V30 8425 H 784.642 3.8172 -2.9919 0
M  V30 8426 H 780.521 4.22833 -1.83666 0
M  V30 8427 H 784.065 4.5684 -5.27203 0
M  V30 8428 H 779.962 4.9793 -4.10775 0
M  V30 8429 H 780.73 5.4156 -6.13722 0
M  V30 8430 N 783.393 0.737304 1.3929 0
M  V30 8431 C 784.639 0.286681 2.00763 0
M  V30 8432 C 784.972 -1.12388 1.58375 0
M  V30 8433 O 784.247 -1.76661 0.813699 0
M  V30 8434 C 784.53 0.391147 3.57969 0
M  V30 8435 C 784.383 1.84165 4.1037 0
M  V30 8436 C 785.702 -0.225072 4.39524 0
M  V30 8437 H 782.821 0.105642 0.729389 0
M  V30 8438 H 785.463 0.933892 1.65464 0
M  V30 8439 H 783.613 -0.159875 3.88171 0
M  V30 8440 H 785.285 2.44972 3.90879 0
M  V30 8441 H 783.528 2.3622 3.63844 0
M  V30 8442 H 784.199 1.866 5.19504 0
M  V30 8443 H 786.675 0.244677 4.1538 0
M  V30 8444 H 785.551 -0.121646 5.48765 0
M  V30 8445 H 785.812 -1.31141 4.22202 0
M  V30 8446 N 784.871 -1.49948 0.485112 0
M  V30 8447 C 785.804 -2.25531 -0.348027 0
M  V30 8448 C 786.782 -1.29433 -0.984172 0
M  V30 8449 O 787.966 -1.58687 -1.01738 0
M  V30 8450 C 785.093 -3.04225 -1.48878 0
M  V30 8451 C 784.139 -4.15355 -0.968616 0
M  V30 8452 S 784.972 -5.35347 0.127934 0
M  V30 8453 C 786.128 -6.17593 -1.01637 0
M  V30 8454 H 786.361 -2.95847 0.293529 0
M  V30 8455 H 783.894 -1.52018 0.27018 0
M  V30 8456 H 785.852 -3.50153 -2.14251 0
M  V30 8457 H 784.513 -2.33407 -2.1019 0
M  V30 8458 H 783.706 -4.69873 -1.82305 0
M  V30 8459 H 783.308 -3.71936 -0.392377 0
M  V30 8460 H 785.6 -6.49576 -1.92503 0
M  V30 8461 H 786.543 -7.0626 -0.510149 0
M  V30 8462 H 786.951 -5.49877 -1.27653 0
M  V30 8463 N 786.349 -0.21828 -1.56081 0
M  V30 8464 C 787.574 0.422302 -2.03055 0
M  V30 8465 C 787.999 1.5279 -1.09713 0
M  V30 8466 O 787.357 1.81102 -0.0847187 0
M  V30 8467 C 787.405 0.934177 -3.48289 0
M  V30 8468 O 786.509 2.04574 -3.58083 0
M  V30 8469 H 785.85 0.0959764 -0.657027 0
M  V30 8470 H 788.38 -0.335958 -2.01823 0
M  V30 8471 H 788.39 1.24484 -3.88546 0
M  V30 8472 H 787.065 0.124963 -4.15712 0
M  V30 8473 H 785.642 1.74196 -3.29712 0
M  V30 8474 N 787.827 1.57504 0.0551401 0
M  V30 8475 C 788.757 2.07864 1.06372 0
M  V30 8476 C 789.738 0.975565 1.39344 0
M  V30 8477 O 790.923 1.24929 1.48682 0
M  V30 8478 C 788.053 2.53643 2.3724 0
M  V30 8479 C 787.007 3.67978 2.18578 0
M  V30 8480 C 786.333 3.9987 3.54976 0
M  V30 8481 C 787.633 4.97405 1.59329 0
M  V30 8482 H 789.327 2.92379 0.644595 0
M  V30 8483 H 786.873 1.40654 0.308619 0
M  V30 8484 H 788.826 2.8749 3.08103 0
M  V30 8485 H 787.55 1.66177 2.81163 0
M  V30 8486 H 786.209 3.3444 1.50152 0
M  V30 8487 H 785.857 3.0951 3.965 0
M  V30 8488 H 785.557 4.76867 3.43324 0
M  V30 8489 H 787.081 4.36228 4.27244 0
M  V30 8490 H 788.495 5.29375 2.20078 0
M  V30 8491 H 786.892 5.78837 1.58327 0
M  V30 8492 H 787.962 4.81697 0.55638 0
M  V30 8493 N 789.305 -0.326896 1.54172 0
M  V30 8494 C 790.235 -1.40741 1.86317 0
M  V30 8495 C 791.216 -1.54125 0.719684 0
M  V30 8496 O 792.401 -1.6806 0.973117 0
M  V30 8497 C 789.531 -2.77557 2.08757 0
M  V30 8498 C 788.485 -2.78965 3.24596 0
M  V30 8499 C 787.811 -4.18824 3.32401 0
M  V30 8500 C 789.111 -2.4301 4.62324 0
M  V30 8501 H 790.805 -1.14088 2.76811 0
M  V30 8502 H 788.351 -0.547389 1.3319 0
M  V30 8503 H 790.304 -3.53209 2.29829 0
M  V30 8504 H 789.028 -3.0568 1.15009 0
M  V30 8505 H 787.687 -2.05767 3.03406 0
M  V30 8506 H 787.335 -4.44083 2.36218 0
M  V30 8507 H 787.035 -4.20673 4.10253 0
M  V30 8508 H 788.559 -4.96294 3.55703 0
M  V30 8509 H 789.973 -3.08375 4.83299 0
M  V30 8510 H 788.37 -2.56116 5.42701 0
M  V30 8511 H 789.44 -1.38165 4.64799 0
M  V30 8512 N 790.784 -1.46188 -0.588786 0
M  V30 8513 C 792.03 -1.51407 -1.34921 0
M  V30 8514 C 792.363 -0.162771 -1.93517 0
M  V30 8515 O 791.638 0.825082 -1.76132 0
M  V30 8516 C 791.921 -2.60795 -2.48311 0
M  V30 8517 C 791.774 -4.05435 -1.94789 0
M  V30 8518 C 793.093 -2.66313 -3.50379 0
M  V30 8519 H 790.212 -0.551213 -0.489217 0
M  V30 8520 H 792.854 -1.78095 -0.661993 0
M  V30 8521 H 791.004 -2.3817 -3.06932 0
M  V30 8522 H 792.676 -4.39328 -1.40672 0
M  V30 8523 H 790.919 -4.15202 -1.25659 0
M  V30 8524 H 791.59 -4.77691 -2.76613 0
M  V30 8525 H 794.066 -2.86634 -3.01629 0
M  V30 8526 H 792.942 -3.44681 -4.27184 0
M  V30 8527 H 793.203 -1.72127 -4.07216 0
M  V30 8528 N 792.262 0.832906 -1.33792 0
M  V30 8529 C 793.192 1.95828 -1.27176 0
M  V30 8530 C 794.173 1.69427 -0.15114 0
M  V30 8531 O 795.358 1.91167 -0.341886 0
M  V30 8532 C 792.488 3.32098 -1.01629 0
M  V30 8533 C 791.442 3.72912 -2.10049 0
M  V30 8534 C 790.768 5.07054 -1.69706 0
M  V30 8535 C 792.068 3.86064 -3.51783 0
M  V30 8536 H 793.762 2.01622 -2.21334 0
M  V30 8537 H 791.308 0.96866 -1.0655 0
M  V30 8538 H 793.261 4.10402 -0.956474 0
M  V30 8539 H 791.985 3.26577 -0.0390956 0
M  V30 8540 H 790.644 2.96876 -2.15082 0
M  V30 8541 H 790.292 4.9801 -0.706737 0
M  V30 8542 H 789.992 5.35333 -2.42264 0
M  V30 8543 H 791.516 5.87827 -1.65202 0
M  V30 8544 H 792.93 4.54665 -3.49218 0
M  V30 8545 H 791.327 4.25787 -4.22878 0
M  V30 8546 H 792.397 2.88344 -3.89854 0
M  V30 8547 N 793.74 1.17359 1.05189 0
M  V30 8548 C 794.688 0.886527 2.15043 0
M  V30 8549 C 795.682 -0.148834 1.68745 0
M  V30 8550 O 796.888 -0.00175123 1.8 0
M  V30 8551 H 793.263 0.269147 0.702185 0
M  V30 8552 H 795.234 1.82016 2.36459 0
M  V30 8553 C 793.983 0.416333 3.45198 0
M  V30 8554 H 793.306 1.20449 3.81225 0
M  V30 8555 H 794.746 0.254362 4.23236 0
M  V30 8556 C 793.205 -0.866016 3.25579 0
M  V30 8557 O 793.735 -1.9328 3.52144 0
M  V30 8558 N 791.941 -0.814179 2.78961 0
M  V30 8559 H 791.488 0.0541618 2.57543 0
M  V30 8560 H 791.446 -1.67264 2.66214 0
M  V30 8561 N 795.218 -1.23913 0.973828 0
M  V30 8562 C 796.464 -1.92436 0.640026 0
M  V30 8563 C 796.797 -1.75875 -0.823512 0
M  V30 8564 O 796.072 -1.11563 -1.59323 0
M  V30 8565 C 796.355 -3.4526 1.0231 0
M  V30 8566 C 796.208 -3.70961 2.54378 0
M  V30 8567 C 797.527 -4.36495 0.562155 0
M  V30 8568 H 794.646 -0.698868 0.233992 0
M  V30 8569 H 797.288 -1.46163 1.21393 0
M  V30 8570 H 795.438 -3.84802 0.534751 0
M  V30 8571 H 797.11 -3.40941 3.10737 0
M  V30 8572 H 795.353 -3.15899 2.97305 0
M  V30 8573 H 796.024 -4.77912 2.76232 0
M  V30 8574 H 798.5 -4.04363 0.981333 0
M  V30 8575 H 797.376 -5.42142 0.858689 0
M  V30 8576 H 797.637 -4.38818 -0.537659 0
M  V30 8577 N 796.696 -0.74468 -1.38897 0
M  V30 8578 C 797.626 -0.126355 -2.33158 0
M  V30 8579 C 798.607 0.713517 -1.54412 0
M  V30 8580 O 799.792 0.656523 -1.82766 0
M  V30 8581 C 796.922 0.774375 -3.38557 0
M  V30 8582 C 795.876 0.0379214 -4.27983 0
M  V30 8583 C 795.202 1.05631 -5.24162 0
M  V30 8584 C 796.502 -1.12523 -5.10035 0
M  V30 8585 H 798.196 -0.913744 -2.85116 0
M  V30 8586 H 795.742 -0.440847 -1.37086 0
M  V30 8587 H 797.695 1.21655 -4.03458 0
M  V30 8588 H 796.419 1.59399 -2.85061 0
M  V30 8589 H 795.078 -0.384733 -3.64576 0
M  V30 8590 H 794.726 1.86975 -4.66958 0
M  V30 8591 H 794.426 0.568261 -5.84846 0
M  V30 8592 H 795.95 1.49799 -5.9194 0
M  V30 8593 H 797.364 -0.761037 -5.68226 0
M  V30 8594 H 795.761 -1.54355 -5.79909 0
M  V30 8595 H 796.831 -1.94237 -4.44297 0
M  V30 8596 N 798.174 1.49689 -0.493057 0
M  V30 8597 C 799.137 2.27502 0.278485 0
M  V30 8598 C 800.137 1.33184 0.901037 0
M  V30 8599 O 801.327 1.56415 0.766801 0
M  V30 8600 C 798.459 3.10881 1.39878 0
M  V30 8601 H 799.652 2.97163 -0.404219 0
M  V30 8602 H 797.205 1.54324 -0.247774 0
M  V30 8603 H 797.94 2.45767 2.11587 0
M  V30 8604 H 797.725 3.80219 0.957924 0
M  V30 8605 H 799.215 3.69673 1.94247 0
M  V30 8606 N 799.652 0.226554 1.55963 0
M  V30 8607 C 800.899 -0.403789 1.98433 0
M  V30 8608 C 801.227 -1.59416 1.1143 0
M  V30 8609 O 800.482 -1.95042 0.160389 0
M  V30 8610 C 800.781 -0.87642 3.46488 0
M  V30 8611 C 800.447 0.203973 4.50438 0
M  V30 8612 C 799.109 0.500754 4.78587 0
M  V30 8613 C 801.461 0.934396 5.12756 0
M  V30 8614 C 798.789 1.53239 5.66334 0
M  V30 8615 C 801.141 1.9554 6.0162 0
M  V30 8616 C 799.805 2.25905 6.28111 0
M  V30 8617 H 799.075 -0.147757 0.726119 0
M  V30 8618 H 801.722 0.330121 1.88633 0
M  V30 8619 H 800.027 -1.68918 3.53517 0
M  V30 8620 H 801.724 -1.37407 3.76723 0
M  V30 8621 H 798.314 -0.0374917 4.28584 0
M  V30 8622 H 802.498 0.718355 4.91074 0
M  V30 8623 H 797.754 1.77321 5.85122 0
M  V30 8624 H 801.928 2.52642 6.48957 0
M  V30 8625 H 799.555 3.05985 6.959 0
M  V30 8626 N 801.13 -1.57531 -0.0467866 0
M  V30 8627 C 802.376 -1.8873 -0.742218 0
M  V30 8628 C 802.709 -0.822084 -1.75941 0
M  V30 8629 O 801.984 0.164922 -1.938 0
M  V30 8630 C 802.267 -3.30586 -1.42776 0
M  V30 8631 C 802.12 -4.47785 -0.425285 0
M  V30 8632 C 803.439 -3.71068 -2.36636 0
M  V30 8633 H 800.558 -0.686406 -0.268359 0
M  V30 8634 H 803.2 -1.89999 -0.00511341 0
M  V30 8635 H 801.35 -3.29634 -2.05605 0
M  V30 8636 H 803.022 -4.60867 0.199721 0
M  V30 8637 H 801.265 -4.33037 0.25713 0
M  V30 8638 H 801.936 -5.43884 -0.943086 0
M  V30 8639 H 804.412 -3.73273 -1.83866 0
M  V30 8640 H 803.288 -4.71165 -2.81593 0
M  V30 8641 H 803.549 -3.02355 -3.22542 0
M  V30 8642 N 802.608 0.318715 -1.54344 0
M  V30 8643 C 803.854 1.05765 -1.73037 0
M  V30 8644 C 804.187 1.87514 -0.505181 0
M  V30 8645 O 803.462 1.88021 0.497838 0
M  V30 8646 C 803.745 1.97836 -3.00887 0
M  V30 8647 C 803.598 1.19384 -4.33668 0
M  V30 8648 C 804.917 2.97285 -3.24514 0
M  V30 8649 H 802.036 0.383104 -0.629603 0
M  V30 8650 H 804.678 0.333864 -1.87044 0
M  V30 8651 H 802.828 2.59552 -2.89076 0
M  V30 8652 H 804.5 0.600906 -4.57369 0
M  V30 8653 H 802.743 0.496198 -4.30953 0
M  V30 8654 H 803.414 1.87014 -5.19355 0
M  V30 8655 H 805.89 2.45693 -3.35819 0
M  V30 8656 H 804.766 3.58887 -4.15321 0
M  V30 8657 H 805.027 3.70003 -2.41971 0
M  V30 8658 N 804.086 1.46499 0.581025 0
M  V30 8659 C 805.335 1.51162 1.3354 0
M  V30 8660 C 805.648 0.168433 1.94873 0
M  V30 8661 O 806.854 0.092883 2.71341 0
M  V30 8662 C 805.31 2.66362 2.42032 0
M  V30 8663 C 804.918 4.07109 1.86994 0
M  V30 8664 C 806.662 2.80297 3.188 0
M  V30 8665 C 804.569 5.13645 2.93125 0
M  V30 8666 H 803.499 0.562576 0.502021 0
M  V30 8667 H 806.15 1.72713 0.619863 0
M  V30 8668 H 804.532 2.38143 3.16392 0
M  V30 8669 H 805.706 4.45125 1.19166 0
M  V30 8670 H 804.021 3.97854 1.22887 0
M  V30 8671 H 806.618 3.5706 3.9801 0
M  V30 8672 H 806.961 1.87875 3.71495 0
M  V30 8673 H 807.494 3.0817 2.51547 0
M  V30 8674 H 804.233 6.07866 2.45315 0
M  V30 8675 H 803.753 4.80172 3.59437 0
M  V30 8676 H 805.432 5.39562 3.57046 0
M  V30 8677 N 805.565 -0.825799 1.34232 0
M  V30 8678 C 806.805 -1.59541 1.27773 0
M  V30 8679 C 807.169 -1.91405 -0.150998 0
M  V30 8680 O 808.37 -2.66644 -0.339728 0
M  V30 8681 C 806.641 -2.86183 2.14089 0
M  V30 8682 S 808.2 -3.76751 2.24953 0
M  V30 8683 H 805.018 -0.546871 0.454371 0
M  V30 8684 H 807.62 -0.975677 1.69413 0
M  V30 8685 H 806.324 -2.60767 3.16905 0
M  V30 8686 H 805.855 -3.53155 1.73335 0
M  V30 8687 H 807.87 -4.75442 1.4202 0
M  V30 8688 N 807.043 -1.17915 -1.04565 0
M  V30 8689 C 808.291 -0.969505 -1.77327 0
M  V30 8690 C 808.612 0.502569 -1.88412 0
M  V30 8691 O 807.882 1.36467 -1.40547 0
M  V30 8692 H 806.462 -0.355723 -0.656864 0
M  V30 8693 H 809.124 -1.48506 -1.26223 0
M  V30 8694 H 808.22 -1.40324 -2.78775 0
M  V30 8695 N 808.521 1.23394 -0.980386 0
M  V30 8696 C 809.761 1.93543 -0.657288 0
M  V30 8697 C 810.125 1.74791 0.794477 0
M  V30 8698 O 811.326 2.39089 1.2284 0
M  V30 8699 C 809.597 3.42025 -1.03701 0
M  V30 8700 S 811.156 4.30871 -0.830379 0
M  V30 8701 H 807.974 0.669012 -0.240717 0
M  V30 8702 H 810.576 1.49478 -1.26002 0
M  V30 8703 H 809.28 3.53183 -2.09022 0
M  V30 8704 H 808.811 3.91091 -0.425559 0
M  V30 8705 H 810.826 4.95377 0.285719 0
M  V30 8706 N 809.999 0.752036 1.385 0
M  V30 8707 C 811.229 0.317812 2.04141 0
M  V30 8708 C 811.637 -1.05822 1.56839 0
M  V30 8709 O 810.98 -1.68311 0.736016 0
M  V30 8710 C 811.042 0.260205 3.58557 0
M  V30 8711 C 810.706 1.57753 4.28909 0
M  V30 8712 C 811.703 2.52642 4.54387 0
M  V30 8713 C 809.388 1.84653 4.67128 0
M  V30 8714 C 811.382 3.72653 5.17116 0
M  V30 8715 C 809.069 3.04938 5.29581 0
M  V30 8716 C 810.067 3.98759 5.54509 0
M  V30 8717 O 809.755 5.16929 6.15662 0
M  V30 8718 H 809.487 0.133931 0.6626 0
M  V30 8719 H 812.041 1.02138 1.78205 0
M  V30 8720 H 810.271 -0.499596 3.83459 0
M  V30 8721 H 811.96 -0.144295 4.05643 0
M  V30 8722 H 812.726 2.33135 4.25292 0
M  V30 8723 H 808.605 1.12464 4.47071 0
M  V30 8724 H 812.149 4.45898 5.36489 0
M  V30 8725 H 808.046 3.24339 5.58099 0
M  V30 8726 H 808.814 5.1749 6.3415 0
M  V30 8727 N 811.477 -1.49425 0.500989 0
M  V30 8728 C 812.726 -2.01649 -0.04538 0
M  V30 8729 C 813.039 -1.38572 -1.38047 0
M  V30 8730 O 814.245 -1.82124 -2.01353 0
M  V30 8731 C 812.701 -3.5966 -0.131337 0
M  V30 8732 C 812.309 -4.3171 1.19711 0
M  V30 8733 C 814.053 -4.19828 -0.628071 0
M  V30 8734 C 811.96 -5.81579 1.07332 0
M  V30 8735 H 810.89 -0.753715 -0.0207329 0
M  V30 8736 H 813.541 -1.71962 0.640407 0
M  V30 8737 H 811.923 -3.86063 -0.881574 0
M  V30 8738 H 813.097 -4.17008 1.96064 0
M  V30 8739 H 811.412 -3.83286 1.62729 0
M  V30 8740 H 814.009 -5.2958 -0.738198 0
M  V30 8741 H 814.352 -3.83194 -1.6269 0
M  V30 8742 H 814.885 -3.97746 0.0656314 0
M  V30 8743 H 811.624 -6.22738 2.04642 0
M  V30 8744 H 811.144 -5.98774 0.350679 0
M  V30 8745 H 812.823 -6.42614 0.752047 0
M  V30 8746 N 812.955 -0.234822 -1.55841 0
M  V30 8747 C 813.905 0.68346 -2.17515 0
M  V30 8748 C 814.889 1.14798 -1.1274 0
M  V30 8749 O 816.081 1.09976 -1.38688 0
M  V30 8750 C 813.21 1.88551 -2.86886 0
M  V30 8751 C 812.296 1.44006 -3.98903 0
M  V30 8752 N 812.687 0.708034 -5.0082 0
M  V30 8753 C 810.985 1.7263 -4.11236 0
M  V30 8754 C 811.686 0.479036 -5.79724 0
M  V30 8755 N 810.662 1.03968 -5.33565 0
M  V30 8756 H 814.464 0.115897 -2.93671 0
M  V30 8757 H 811.978 -0.0366273 -1.62359 0
M  V30 8758 H 813.975 2.55425 -3.2949 0
M  V30 8759 H 812.635 2.45742 -2.12229 0
M  V30 8760 H 813.646 0.359363 -5.16652 0
M  V30 8761 H 810.323 2.31046 -3.47741 0
M  V30 8762 H 811.713 -0.104514 -6.71819 0
M  V30 8763 N 814.433 1.57553 0.0384317 0
M  V30 8764 C 815.682 1.88022 0.730108 0
M  V30 8765 C 815.995 0.83209 1.77019 0
M  V30 8766 O 817.201 1.0257 2.51379 0
M  V30 8767 C 815.657 3.33637 1.3496 0
M  V30 8768 C 815.265 4.46659 0.346352 0
M  V30 8769 C 817.009 3.73266 2.02169 0
M  V30 8770 C 814.916 5.8333 0.973652 0
M  V30 8771 H 813.846 0.701496 0.276442 0
M  V30 8772 H 816.497 1.83493 -0.0158028 0
M  V30 8773 H 814.879 3.32882 2.1449 0
M  V30 8774 H 816.053 4.58868 -0.421558 0
M  V30 8775 H 814.368 4.15802 -0.223133 0
M  V30 8776 H 816.965 4.72689 2.49938 0
M  V30 8777 H 817.308 3.04776 2.8358 0
M  V30 8778 H 817.841 3.76156 1.29427 0
M  V30 8779 H 814.58 6.55197 0.199163 0
M  V30 8780 H 814.1 5.7486 1.71162 0
M  V30 8781 H 815.779 6.29757 1.48376 0
M  V30 8782 N 815.911 -0.310526 1.54511 0
M  V30 8783 C 817.141 -1.06456 1.77061 0
M  V30 8784 C 817.549 -1.81755 0.525528 0
M  V30 8785 O 816.892 -1.76365 -0.513904 0
M  V30 8786 C 816.954 -2.09856 2.91892 0
M  V30 8787 C 816.618 -1.53838 4.30329 0
M  V30 8788 C 817.615 -0.973358 5.10707 0
M  V30 8789 C 815.3 -1.57688 4.76906 0
M  V30 8790 C 817.294 -0.454283 6.35779 0
M  V30 8791 C 814.981 -1.05393 6.01943 0
M  V30 8792 C 815.979 -0.493595 6.81214 0
M  V30 8793 O 815.667 0.0214506 8.03897 0
M  V30 8794 H 815.399 -0.321913 0.594431 0
M  V30 8795 H 817.953 -0.358289 2.02251 0
M  V30 8796 H 816.183 -2.84137 2.62304 0
M  V30 8797 H 817.872 -2.71085 3.02106 0
M  V30 8798 H 818.638 -0.936588 4.75871 0
M  V30 8799 H 814.517 -2.00242 4.1524 0
M  V30 8800 H 818.061 -0.0162657 6.97598 0
M  V30 8801 H 813.958 -1.08782 6.36268 0
M  V30 8802 H 814.726 -0.0927478 8.18447 0
M  V30 8803 N 817.389 -1.46805 -0.573248 0
M  V30 8804 C 818.319 -1.60951 -1.69165 0
M  V30 8805 C 819.3 -0.45948 -1.63777 0
M  V30 8806 O 820.485 -0.68688 -1.81647 0
M  V30 8807 C 817.615 -1.60844 -3.07809 0
M  V30 8808 C 816.569 -2.74913 -3.28035 0
M  V30 8809 C 815.895 -2.59871 -4.67302 0
M  V30 8810 C 817.195 -4.16654 -3.14955 0
M  V30 8811 H 818.889 -2.54574 -1.57582 0
M  V30 8812 H 816.435 -1.22516 -0.756686 0
M  V30 8813 H 818.388 -1.69334 -3.85881 0
M  V30 8814 H 817.112 -0.637714 -3.20314 0
M  V30 8815 H 815.771 -2.65908 -2.52366 0
M  V30 8816 H 815.419 -1.60861 -4.76585 0
M  V30 8817 H 815.119 -3.36386 -4.81786 0
M  V30 8818 H 816.643 -2.70265 -5.4753 0
M  V30 8819 H 818.057 -4.26721 -3.82861 0
M  V30 8820 H 816.454 -4.93831 -3.40956 0
M  V30 8821 H 817.524 -4.36146 -2.11908 0
M  V30 8822 N 818.867 0.818669 -1.34668 0
M  V30 8823 C 820.095 1.60674 -1.30351 0
M  V30 8824 C 820.51 1.88408 0.121546 0
M  V30 8825 O 819.867 1.47849 1.06991 0
M  V30 8826 C 819.918 2.94516 -2.09625 0
M  V30 8827 O 819.639 2.6799 -3.46573 0
M  V30 8828 C 821.14 3.8891 -2.12754 0
M  V30 8829 H 818.36 0.499306 -0.448258 0
M  V30 8830 H 820.904 1.01828 -1.77345 0
M  V30 8831 H 819.059 3.49908 -1.66262 0
M  V30 8832 H 819.473 3.53361 -3.87603 0
M  V30 8833 H 820.947 4.79972 -2.72637 0
M  V30 8834 H 821.424 4.24599 -1.12306 0
M  V30 8835 H 822.03 3.39453 -2.56225 0
M  V30 8836 N 820.346 1.18468 1.03938 0
M  V30 8837 C 821.592 0.982286 1.77423 0
M  V30 8838 C 821.925 -0.48679 1.88 0
M  V30 8839 O 821.2 -1.36146 1.38905 0
M  V30 8840 C 821.483 1.63929 3.20623 0
M  V30 8841 C 821.336 3.18132 3.17982 0
M  V30 8842 C 822.655 1.3536 4.18767 0
M  V30 8843 H 819.774 0.358264 0.644062 0
M  V30 8844 H 822.416 1.46154 1.21405 0
M  V30 8845 H 820.566 1.2318 3.68455 0
M  V30 8846 H 822.238 3.68024 2.78129 0
M  V30 8847 H 820.481 3.50225 2.55978 0
M  V30 8848 H 821.152 3.5924 4.19107 0
M  V30 8849 H 823.628 1.70669 3.79488 0
M  V30 8850 H 822.504 1.83896 5.17178 0
M  V30 8851 H 822.765 0.276722 4.41233 0
M  V30 8852 N 821.824 -1.22873 0.986916 0
M  V30 8853 C 823.24 -1.43594 0.696633 0
M  V30 8854 C 823.44 -1.87622 -0.734869 0
M  V30 8855 O 822.496 -2.02633 -1.50652 0
M  V30 8856 C 823.809 -2.48231 1.69711 0
M  V30 8857 C 825.357 -2.62037 1.71188 0
M  V30 8858 C 825.832 -3.6989 2.70084 0
M  V30 8859 N 827.323 -3.77341 2.68641 0
M  V30 8860 C 828.058 -4.6037 3.41829 0
M  V30 8861 N 827.554 -5.47438 4.24598 0
M  V30 8862 N 829.347 -4.54626 3.30563 0
M  V30 8863 H 821.498 -0.925982 1.91153 0
M  V30 8864 H 823.761 -0.46866 0.824052 0
M  V30 8865 H 823.467 -2.22812 2.72117 0
M  V30 8866 H 823.341 -3.46731 1.48516 0
M  V30 8867 H 825.728 -2.86803 0.694837 0
M  V30 8868 H 825.809 -1.63831 1.96451 0
M  V30 8869 H 825.453 -3.45872 3.71934 0
M  V30 8870 H 825.383 -4.67652 2.42093 0
M  V30 8871 H 827.874 -3.15124 2.08578 0
M  V30 8872 H 828.187 -6.078 4.77283 0
M  V30 8873 H 826.532 -5.4704 4.28687 0
M  V30 8874 H 829.723 -3.85627 2.65347 0
M  V30 8875 H 829.896 -5.19103 3.8786 0
M  V30 8876 N 823.302 -0.75937 -1.38099 0
M  V30 8877 C 824.25 -0.124954 -2.32264 0
M  V30 8878 C 825.244 0.698863 -1.54312 0
M  V30 8879 O 826.45 0.597312 -1.698 0
M  V30 8880 H 822.825 -0.0216142 -0.751689 0
M  V30 8881 H 824.796 -0.935115 -2.83369 0
M  V30 8882 C 823.545 0.749463 -3.39527 0
M  V30 8883 H 822.868 0.124932 -3.99605 0
M  V30 8884 H 824.308 1.16055 -4.07808 0
M  V30 8885 C 822.767 1.89464 -2.78577 0
M  V30 8886 O 823.297 2.98923 -2.68343 0
M  V30 8887 N 821.503 1.69145 -2.36301 0
M  V30 8888 H 821.05 0.801157 -2.44825 0
M  V30 8889 H 821.008 2.45936 -1.95864 0
M  V30 8890 N 824.78 1.49157 -0.508906 0
M  V30 8891 C 826.191 1.86593 -0.0630975 0
M  V30 8892 C 826.542 1.42051 1.35337 0
M  V30 8893 O 825.667 0.801866 2.00995 0
M  V30 8894 C 826.262 3.38629 -0.107729 0
M  V30 8895 C 824.821 3.75336 0.282776 0
M  V30 8896 C 823.968 2.7317 -0.4768 0
M  V30 8897 H 826.919 1.41362 -0.72128 0
M  V30 8898 H 826.94 3.74271 0.685689 0
M  V30 8899 H 826.452 3.71017 -1.13876 0
M  V30 8900 H 824.553 3.48558 1.31675 0
M  V30 8901 H 824.666 4.79081 -0.0421728 0
M  V30 8902 H 823.03 2.54591 0.0743552 0
M  V30 8903 H 823.813 3.08403 -1.50807 0
M  V30 8904 N 826.258 0.243083 1.55714 0
M  V30 8905 C 827.206 -0.674349 2.2261 0
M  V30 8906 C 828.2 -1.18307 1.21243 0
M  V30 8907 O 829.406 -1.1404 1.39265 0
M  V30 8908 H 825.781 -0.235941 0.714028 0
M  V30 8909 H 827.752 -0.0869446 2.98273 0
M  V30 8910 C 826.501 -1.86206 2.93637 0
M  V30 8911 H 825.824 -1.47975 3.71407 0
M  V30 8912 H 827.264 -2.4813 3.43813 0
M  V30 8913 C 825.723 -2.73084 1.97298 0
M  V30 8914 O 826.253 -3.72497 1.50361 0
M  V30 8915 N 824.459 -2.39571 1.64482 0
M  V30 8916 H 824.006 -1.5878 2.02846 0
M  V30 8917 H 823.964 -2.97976 1.00288 0
M  V30 8918 N 827.736 -1.57571 -0.0300757 0
M  V30 8919 C 828.985 -1.88407 -0.720126 0
M  V30 8920 C 829.298 -0.841466 -1.76575 0
M  V30 8921 O 830.504 -1.03902 -2.50832 0
M  V30 8922 C 828.96 -3.34348 -1.33188 0
M  V30 8923 C 828.568 -4.46837 -0.32266 0
M  V30 8924 C 830.312 -3.74333 -2.00187 0
M  V30 8925 C 828.219 -5.83838 -0.942703 0
M  V30 8926 H 827.149 -0.702952 -0.272718 0
M  V30 8927 H 829.8 -1.83482 0.0255337 0
M  V30 8928 H 828.182 -3.34014 -2.12721 0
M  V30 8929 H 829.356 -4.58638 0.445887 0
M  V30 8930 H 827.671 -4.15678 0.245181 0
M  V30 8931 H 830.268 -4.74008 -2.47428 0
M  V30 8932 H 830.611 -3.06275 -2.81959 0
M  V30 8933 H 831.144 -3.76837 -1.2743 0
M  V30 8934 H 827.883 -6.55294 -0.164413 0
M  V30 8935 H 827.403 -5.75759 -1.68111 0
M  V30 8936 H 829.082 -6.30535 -1.45034 0
M  V30 8937 N 829.214 0.302327 -1.54673 0
M  V30 8938 C 830.46 1.03924 -1.74149 0
M  V30 8939 C 830.793 1.86968 -0.525041 0
M  V30 8940 O 830.068 1.88538 0.477868 0
M  V30 8941 C 830.351 1.94633 -3.02969 0
M  V30 8942 C 830.204 1.14778 -4.34909 0
M  V30 8943 C 831.523 2.93826 -3.27649 0
M  V30 8944 H 828.642 0.376405 -0.633631 0
M  V30 8945 H 831.284 0.314007 -1.87387 0
M  V30 8946 H 829.434 2.56471 -2.91813 0
M  V30 8947 H 831.106 0.552363 -4.57981 0
M  V30 8948 H 829.349 0.450462 -4.31455 0
M  V30 8949 H 830.02 1.81495 -5.21309 0
M  V30 8950 H 832.496 2.42117 -3.38406 0
M  V30 8951 H 831.372 3.54462 -4.19104 0
M  V30 8952 H 831.633 3.67416 -2.45882 0
M  V30 8953 N 830.692 1.47107 0.565454 0
M  V30 8954 C 831.917 1.57153 1.35343 0
M  V30 8955 C 832.342 0.219247 1.86818 0
M  V30 8956 O 831.7 -0.803539 1.62521 0
M  V30 8957 C 831.748 2.59387 2.50501 0
M  V30 8958 O 830.852 2.14086 3.52478 0
M  V30 8959 H 830.193 0.528209 0.402357 0
M  V30 8960 H 832.723 1.92821 0.684189 0
M  V30 8961 H 832.733 2.79546 2.97184 0
M  V30 8962 H 831.408 3.57579 2.12391 0
M  V30 8963 H 829.985 2.03991 3.12157 0
M  V30 8964 N 832.17 -0.811516 1.35101 0
M  V30 8965 C 833.395 -1.60499 1.31358 0
M  V30 8966 C 833.82 -1.87793 -0.107383 0
M  V30 8967 O 833.178 -1.46161 -1.07268 0
M  V30 8968 C 833.226 -2.91612 2.12119 0
M  V30 8969 O 832.33 -3.84211 1.49853 0
M  V30 8970 H 831.671 -0.487702 0.450603 0
M  V30 8971 H 834.201 -1.00758 1.7807 0
M  V30 8972 H 834.211 -3.4108 2.23894 0
M  V30 8973 H 832.886 -2.71071 3.15426 0
M  V30 8974 H 831.463 -3.42751 1.46889 0
M  V30 8975 N 833.648 -1.19017 -1.03309 0
M  V30 8976 C 834.873 -1.01598 -1.80811 0
M  V30 8977 C 835.298 0.430773 -1.83101 0
M  V30 8978 O 834.656 1.30946 -1.25391 0
M  V30 8979 C 834.704 -1.5845 -3.23923 0
M  V30 8980 O 833.808 -0.810972 -4.04348 0
M  V30 8981 H 833.149 -0.359398 -0.558327 0
M  V30 8982 H 835.679 -1.57945 -1.30055 0
M  V30 8983 H 835.689 -1.61486 -3.74682 0
M  V30 8984 H 834.364 -2.63752 -3.21571 0
M  V30 8985 H 832.941 -0.85353 -3.63 0
M  V30 8986 N 835.127 1.22348 -0.993418 0
M  V30 8987 C 836.352 1.95666 -0.687727 0
M  V30 8988 C 836.777 1.72883 0.741161 0
M  V30 8989 O 836.135 1.00837 1.50671 0
M  V30 8990 C 836.183 3.46457 -0.99998 0
M  V30 8991 O 835.287 4.12281 -0.0989386 0
M  V30 8992 H 834.628 0.612102 -0.257346 0
M  V30 8993 H 837.158 1.55428 -1.33054 0
M  V30 8994 H 837.168 3.96976 -0.942035 0
M  V30 8995 H 835.843 3.62365 -2.04118 0
M  V30 8996 H 834.42 3.72295 -0.212413 0
M  V30 8997 N 836.605 0.766683 1.37694 0
M  V30 8998 C 837.882 0.25366 1.93948 0
M  V30 8999 C 838.262 -1.25041 1.70082 0
M  V30 9000 O 837.61 -2.03115 1.04674 0
M  V30 9001 C 837.82 0.621549 3.43421 0
M  V30 9002 C 839.168 0.588504 4.20502 0
M  V30 9003 O 840.192 0.560632 3.5176 0
M  V30 9004 O 839.051 0.61107 5.43073 0
M  V30 9005 H 836.145 0.0570586 0.825029 0
M  V30 9006 H 838.691 0.847693 1.47011 0
M  V30 9007 H 837.463 1.65979 3.54354 0
M  V30 9008 H 837.086 0.000197027 3.976 0
M  V30 9009 N 838.083 -1.48885 0.516809 0
M  V30 9010 C 839.311 -2.06892 -0.0184017 0
M  V30 9011 C 839.726 -1.37511 -1.29368 0
M  V30 9012 O 839.083 -0.458409 -1.76649 0
M  V30 9013 C 839.134 -3.60566 -0.259673 0
M  V30 9014 O 838.855 -4.27338 0.965065 0
M  V30 9015 C 840.356 -4.35331 -0.836751 0
M  V30 9016 H 837.576 -0.670433 0.0275743 0
M  V30 9017 H 840.12 -1.91455 0.718689 0
M  V30 9018 H 838.275 -3.75653 -0.94678 0
M  V30 9019 H 838.689 -5.19287 0.737647 0
M  V30 9020 H 840.163 -5.43675 -0.955065 0
M  V30 9021 H 840.64 -3.9887 -1.83845 0
M  V30 9022 H 841.246 -4.2489 -0.186622 0
M  V30 9023 N 839.561 -0.251338 -1.55583 0
M  V30 9024 C 840.977 0.103409 -1.59265 0
M  V30 9025 C 841.177 1.56559 -1.26852 0
M  V30 9026 O 840.233 2.31071 -1.01796 0
M  V30 9027 C 841.546 -0.249781 -2.99661 0
M  V30 9028 C 843.094 -0.194442 -3.12395 0
M  V30 9029 C 843.569 -0.521728 -4.55019 0
M  V30 9030 N 845.06 -0.472393 -4.60785 0
M  V30 9031 C 845.795 -0.698737 -5.69127 0
M  V30 9032 N 845.291 -0.988443 -6.85713 0
M  V30 9033 N 847.084 -0.629143 -5.58568 0
M  V30 9034 H 839.235 -1.20484 -1.74921 0
M  V30 9035 H 841.498 -0.485092 -0.814488 0
M  V30 9036 H 841.204 -1.26577 -3.28133 0
M  V30 9037 H 841.078 0.420973 -3.74844 0
M  V30 9038 H 843.465 0.812229 -2.83702 0
M  V30 9039 H 843.546 -0.899111 -2.39478 0
M  V30 9040 H 843.19 -1.52597 -4.84434 0
M  V30 9041 H 843.12 0.204468 -5.26203 0
M  V30 9042 H 845.611 -0.257386 -3.77022 0
M  V30 9043 H 845.924 -1.14846 -7.64219 0
M  V30 9044 H 844.269 -1.02596 -6.87386 0
M  V30 9045 H 847.46 -0.402826 -4.66364 0
M  V30 9046 H 847.633 -0.808935 -6.42931 0
M  V30 9047 N 841.039 1.57585 0.0217189 0
M  V30 9048 C 842.288 1.88786 0.710125 0
M  V30 9049 C 842.601 0.850819 1.76126 0
M  V30 9050 O 843.807 1.0523 2.50277 0
M  V30 9051 C 842.263 3.3505 1.31413 0
M  V30 9052 C 841.871 4.47001 0.298959 0
M  V30 9053 C 843.615 3.7539 1.98199 0
M  V30 9054 C 841.522 5.8433 0.911727 0
M  V30 9055 H 840.452 0.704388 0.268986 0
M  V30 9056 H 843.103 1.83466 -0.0352638 0
M  V30 9057 H 841.485 3.35138 2.10947 0
M  V30 9058 H 842.659 4.58395 -0.470203 0
M  V30 9059 H 840.974 4.15542 -0.267222 0
M  V30 9060 H 843.571 4.75314 2.4491 0
M  V30 9061 H 843.914 3.07766 2.80331 0
M  V30 9062 H 844.447 3.77508 1.2543 0
M  V30 9063 H 841.186 6.55372 0.129659 0
M  V30 9064 H 840.706 5.76643 1.65056 0
M  V30 9065 H 842.385 6.31295 1.41688 0
M  V30 9066 N 842.517 -0.29412 1.54831 0
M  V30 9067 C 843.48 -1.3461 1.85507 0
M  V30 9068 C 844.48 -1.43359 0.728343 0
M  V30 9069 O 845.67 -1.42875 0.996609 0
M  V30 9070 C 842.802 -2.73012 2.0415 0
M  V30 9071 H 843.995 -1.08651 2.79526 0
M  V30 9072 H 841.548 -0.531138 1.46999 0
M  V30 9073 H 842.283 -3.04183 1.12441 0
M  V30 9074 H 842.068 -2.68051 2.86166 0
M  V30 9075 H 843.558 -3.49061 2.29229 0
M  V30 9076 N 843.995 -1.47404 -0.557645 0
M  V30 9077 C 844.942 -1.59859 -1.66475 0
M  V30 9078 C 845.912 -0.441644 -1.60121 0
M  V30 9079 O 847.097 -0.661641 -1.78961 0
M  V30 9080 C 844.237 -1.61843 -3.04797 0
M  V30 9081 C 843.35 -2.8845 -3.2159 0
M  V30 9082 C 842.485 -2.81773 -4.50308 0
M  V30 9083 C 841.524 -4.03208 -4.60532 0
M  V30 9084 N 840.661 -3.94769 -5.80604 0
M  V30 9085 H 845.501 -2.54415 -1.55168 0
M  V30 9086 H 843.038 -1.26194 -0.755876 0
M  V30 9087 H 844.996 -1.60976 -3.84893 0
M  V30 9088 H 843.626 -0.707997 -3.1494 0
M  V30 9089 H 842.678 -2.99186 -2.34929 0
M  V30 9090 H 843.99 -3.78379 -3.25009 0
M  V30 9091 H 843.144 -2.79153 -5.38663 0
M  V30 9092 H 841.883 -1.89527 -4.49367 0
M  V30 9093 H 840.888 -4.06133 -3.70589 0
M  V30 9094 H 842.113 -4.9658 -4.63233 0
M  V30 9095 H 840.059 -3.05326 -5.80613 0
M  V30 9096 H 839.976 -4.78375 -5.854 0
M  V30 9097 H 841.244 -3.96165 -6.71322 0
M  V30 9098 N 845.473 0.80434 -1.35529 0
M  V30 9099 C 846.889 1.10023 -1.15616 0
M  V30 9100 C 847.089 2.01478 0.0298535 0
M  V30 9101 O 846.145 2.42609 0.699778 0
M  V30 9102 C 847.458 1.72905 -2.46017 0
M  V30 9103 C 849.006 1.85315 -2.52245 0
M  V30 9104 C 849.481 2.51612 -3.82695 0
M  V30 9105 N 850.972 2.59095 -3.83958 0
M  V30 9106 C 851.707 3.11167 -4.81625 0
M  V30 9107 N 851.203 3.63659 -5.89681 0
M  V30 9108 N 852.996 3.09741 -4.6906 0
M  V30 9109 H 845.147 0.196428 -2.1149 0
M  V30 9110 H 847.41 0.149735 -0.9361 0
M  V30 9111 H 847.116 1.13171 -3.32994 0
M  V30 9112 H 846.99 2.72579 -2.6073 0
M  V30 9113 H 849.377 2.44191 -1.65695 0
M  V30 9114 H 849.458 0.844886 -2.41444 0
M  V30 9115 H 849.102 1.93385 -4.69643 0
M  V30 9116 H 849.032 3.5298 -3.90785 0
M  V30 9117 H 851.523 2.21908 -3.05884 0
M  V30 9118 H 851.836 4.01699 -6.60195 0
M  V30 9119 H 850.181 3.61852 -5.9337 0
M  V30 9120 H 853.372 2.68011 -3.83781 0
M  V30 9121 H 853.545 3.50016 -5.45338 0
M  V30 9122 N 846.951 1.19563 1.02676 0
M  V30 9123 C 847.884 0.878638 2.10607 0
M  V30 9124 C 848.862 -0.165176 1.61759 0
M  V30 9125 O 850.046 -0.041014 1.88455 0
M  V30 9126 C 847.173 0.315347 3.37229 0
M  V30 9127 C 846.219 1.33855 4.04951 0
M  V30 9128 S 847.052 2.89982 4.50189 0
M  V30 9129 C 848.208 2.35202 5.80027 0
M  V30 9130 H 848.441 1.79268 2.37171 0
M  V30 9131 H 845.974 1.023 1.15646 0
M  V30 9132 H 847.932 -0.00311911 4.105 0
M  V30 9133 H 846.593 -0.577035 3.08754 0
M  V30 9134 H 845.786 0.893581 4.96015 0
M  V30 9135 H 845.388 1.60397 3.37859 0
M  V30 9136 H 847.68 1.74329 6.54687 0
M  V30 9137 H 848.623 3.24622 6.29306 0
M  V30 9138 H 849.031 1.77702 5.35801 0
M  V30 9139 N 848.429 -1.21819 0.999893 0
M  V30 9140 C 849.392 -2.22227 0.561044 0
M  V30 9141 C 850.392 -1.56722 -0.359858 0
M  V30 9142 O 851.582 -1.73546 -0.150848 0
M  V30 9143 C 848.714 -3.40409 -0.182987 0
M  V30 9144 H 849.907 -2.62567 1.44909 0
M  V30 9145 H 847.46 -1.34991 0.78785 0
M  V30 9146 H 848.195 -3.05551 -1.08671 0
M  V30 9147 H 847.98 -3.89171 0.47833 0
M  V30 9148 H 849.47 -4.14856 -0.477952 0
M  V30 9149 N 849.908 -0.773975 -1.37286 0
M  V30 9150 C 850.841 -0.108019 -2.27944 0
M  V30 9151 C 851.819 0.706737 -1.46438 0
M  V30 9152 O 853.003 0.681025 -1.75768 0
M  V30 9153 C 850.13 0.853199 -3.27778 0
M  V30 9154 C 849.176 0.122164 -4.26325 0
M  V30 9155 S 850.009 -1.19136 -5.22079 0
M  V30 9156 C 851.165 -0.233737 -6.25463 0
M  V30 9157 H 851.398 -0.876743 -2.84078 0
M  V30 9158 H 848.931 -0.567468 -1.43594 0
M  V30 9159 H 850.889 1.40238 -3.85803 0
M  V30 9160 H 849.55 1.59505 -2.70586 0
M  V30 9161 H 848.743 0.850926 -4.96765 0
M  V30 9162 H 848.345 -0.356079 -3.72301 0
M  V30 9163 H 850.637 0.59305 -6.74899 0
M  V30 9164 H 851.58 -0.906373 -7.02275 0
M  V30 9165 H 851.988 0.156048 -5.64284 0
M  V30 9166 N 851.386 1.48609 -0.524698 0
M  V30 9167 C 852.316 2.32366 0.229837 0
M  V30 9168 C 853.297 1.41759 0.940129 0
M  V30 9169 O 854.482 1.7065 0.926936 0
M  V30 9170 C 851.612 3.22835 1.28043 0
M  V30 9171 C 850.566 4.22424 0.688603 0
M  V30 9172 C 849.892 5.0199 1.84146 0
M  V30 9173 C 851.192 5.21217 -0.336176 0
M  V30 9174 H 852.886 2.95698 -0.469339 0
M  V30 9175 H 850.432 1.42197 -0.227156 0
M  V30 9176 H 852.385 3.80253 1.8162 0
M  V30 9177 H 851.109 2.57492 2.00912 0
M  V30 9178 H 849.768 3.66185 0.174402 0
M  V30 9179 H 849.416 4.33076 2.5584 0
M  V30 9180 H 849.116 5.69392 1.45142 0
M  V30 9181 H 850.64 5.62259 2.38111 0
M  V30 9182 H 852.054 5.7319 0.112307 0
M  V30 9183 H 850.451 5.96642 -0.643324 0
M  V30 9184 H 851.521 4.68676 -1.24381 0
M  V30 9185 N 852.864 0.259585 1.55447 0
M  V30 9186 C 854.113 -0.362163 1.98422 0
M  V30 9187 C 854.426 -1.58135 1.1512 0
M  V30 9188 O 855.632 -2.27506 1.48166 0
M  V30 9189 C 854.088 -0.695722 3.53111 0
M  V30 9190 C 853.696 0.502784 4.4517 0
M  V30 9191 C 855.44 -1.28096 4.04712 0
M  V30 9192 C 853.347 0.144674 5.91223 0
M  V30 9193 H 852.277 -0.139092 0.74106 0
M  V30 9194 H 854.928 0.361798 1.79898 0
M  V30 9195 H 853.31 -1.47816 3.67378 0
M  V30 9196 H 854.484 1.27994 4.42667 0
M  V30 9197 H 852.799 1.0038 4.0412 0
M  V30 9198 H 855.396 -1.56243 5.11363 0
M  V30 9199 H 855.739 -2.20969 3.52815 0
M  V30 9200 H 856.272 -0.561146 3.93822 0
M  V30 9201 H 853.011 1.04087 6.47183 0
M  V30 9202 H 852.531 -0.596023 5.96831 0
M  V30 9203 H 854.21 -0.268651 6.46442 0
M  V30 9204 N 854.342 -1.57594 -0.0133615 0
M  V30 9205 C 855.589 -1.8998 -0.70098 0
M  V30 9206 C 855.917 -0.858802 -1.74513 0
M  V30 9207 O 855.172 0.138209 -1.95211 0
M  V30 9208 C 855.471 -3.29121 -1.39336 0
M  V30 9209 C 855.137 -4.48298 -0.483687 0
M  V30 9210 C 853.799 -4.80635 -0.233186 0
M  V30 9211 C 856.151 -5.21003 0.143426 0
M  V30 9212 C 853.479 -5.83055 0.652943 0
M  V30 9213 C 855.831 -6.24366 1.01735 0
M  V30 9214 C 854.495 -6.55168 1.27716 0
M  V30 9215 H 853.765 -0.695187 -0.256507 0
M  V30 9216 H 856.412 -1.9146 0.0392965 0
M  V30 9217 H 854.717 -3.23703 -2.20735 0
M  V30 9218 H 856.414 -3.51433 -1.93121 0
M  V30 9219 H 853.004 -4.23024 -0.689092 0
M  V30 9220 H 857.188 -4.96286 -0.0371139 0
M  V30 9221 H 852.444 -6.05288 0.862379 0
M  V30 9222 H 856.618 -6.79839 1.5097 0
M  V30 9223 H 854.245 -7.34351 1.9655 0
M  V30 9224 N 855.82 0.285905 -1.54985 0
M  V30 9225 C 857.048 1.03776 -1.78992 0
M  V30 9226 C 857.463 1.80402 -0.556814 0
M  V30 9227 O 856.82 1.76242 0.473801 0
M  V30 9228 C 856.871 2.0065 -3.00702 0
M  V30 9229 O 856.592 1.27131 -4.19249 0
M  V30 9230 C 858.093 2.87753 -3.37214 0
M  V30 9231 H 855.313 0.307126 -0.596586 0
M  V30 9232 H 857.857 0.3206 -2.01971 0
M  V30 9233 H 856.012 2.67847 -2.79887 0
M  V30 9234 H 856.426 1.92316 -4.8797 0
M  V30 9235 H 857.9 3.51548 -4.2558 0
M  V30 9236 H 858.377 3.56848 -2.56039 0
M  V30 9237 H 858.983 2.26065 -3.60242 0
M  V30 9238 N 857.298 1.47698 0.54982 0
M  V30 9239 C 858.575 1.45185 1.31075 0
M  V30 9240 C 858.955 0.152768 2.10547 0
M  V30 9241 O 858.303 -0.865706 2.11466 0
M  V30 9242 C 858.513 2.70192 2.20902 0
M  V30 9243 C 859.861 3.1771 2.81683 0
M  V30 9244 O 860.885 2.70971 2.312 0
M  V30 9245 O 859.744 3.98986 3.7346 0
M  V30 9246 H 856.838 0.57892 0.590577 0
M  V30 9247 H 859.384 1.59908 0.568112 0
M  V30 9248 H 858.156 3.56269 1.61828 0
M  V30 9249 H 857.779 2.58091 3.02448 0
M  V30 9250 N 858.776 -0.797141 1.35954 0
M  V30 9251 C 860.023 -1.55468 1.29754 0
M  V30 9252 C 860.351 -1.94095 -0.125391 0
M  V30 9253 O 859.606 -1.62341 -1.09288 0
M  V30 9254 C 859.905 -2.84847 2.15863 0
M  V30 9255 C 859.571 -2.65394 3.64523 0
M  V30 9256 C 858.233 -2.59796 4.05042 0
M  V30 9257 C 860.585 -2.4727 4.58811 0
M  V30 9258 C 857.913 -2.3403 5.38002 0
M  V30 9259 C 860.265 -2.23032 5.91979 0
M  V30 9260 C 858.929 -2.15862 6.31633 0
M  V30 9261 H 858.199 -0.568897 0.474803 0
M  V30 9262 H 860.846 -0.920299 1.67937 0
M  V30 9263 H 859.151 -3.52712 1.70591 0
M  V30 9264 H 860.848 -3.42597 2.08395 0
M  V30 9265 H 857.438 -2.70602 3.32374 0
M  V30 9266 H 861.622 -2.506 4.28384 0
M  V30 9267 H 856.878 -2.26956 5.67715 0
M  V30 9268 H 861.052 -2.08001 6.64612 0
M  V30 9269 H 858.679 -1.9566 7.34589 0
M  V30 9270 N 860.254 -1.20106 -1.0204 0
M  V30 9271 C 861.184 -0.970301 -2.12385 0
M  V30 9272 C 862.165 0.099378 -1.69809 0
M  V30 9273 O 863.35 -0.057365 -1.94115 0
M  V30 9274 C 860.48 -0.517431 -3.43424 0
M  V30 9275 C 859.434 -1.52992 -3.99722 0
M  V30 9276 C 858.76 -0.933817 -5.26483 0
M  V30 9277 C 860.06 -2.91257 -4.33551 0
M  V30 9278 H 861.754 -1.89316 -2.31948 0
M  V30 9279 H 859.3 -0.911655 -1.11467 0
M  V30 9280 H 861.253 -0.343243 -4.2 0
M  V30 9281 H 859.977 0.441049 -3.23608 0
M  V30 9282 H 858.636 -1.6914 -3.2525 0
M  V30 9283 H 858.284 0.0324763 -5.0299 0
M  V30 9284 H 857.984 -1.60999 -5.65113 0
M  V30 9285 H 859.508 -0.770614 -6.05718 0
M  V30 9286 H 860.922 -2.78642 -5.0103 0
M  V30 9287 H 859.319 -3.55745 -4.83286 0
M  V30 9288 H 860.389 -3.43269 -3.42483 0
M  V30 9289 N 861.732 1.21287 -1.00634 0
M  V30 9290 C 862.972 1.92106 -0.698194 0
M  V30 9291 C 863.336 1.76437 0.757222 0
M  V30 9292 O 864.537 2.41641 1.17741 0
M  V30 9293 C 862.808 3.39748 -1.10932 0
M  V30 9294 S 864.367 4.29013 -0.921586 0
M  V30 9295 H 861.185 0.663755 -0.254853 0
M  V30 9296 H 863.787 1.46772 -1.29145 0
M  V30 9297 H 862.491 3.48669 -2.16467 0
M  V30 9298 H 862.022 3.90101 -0.508419 0
M  V30 9299 H 864.037 4.95871 0.180578 0
M  V30 9300 N 863.21 0.781244 1.36873 0
M  V30 9301 C 864.143 0.120106 2.27884 0
M  V30 9302 C 865.121 -0.698961 1.4681 0
M  V30 9303 O 866.305 -0.671694 1.76126 0
M  V30 9304 C 863.432 -0.835804 3.28226 0
M  V30 9305 C 862.478 -0.0995527 4.26384 0
M  V30 9306 S 863.311 1.21903 5.2144 0
M  V30 9307 C 864.467 0.266904 6.25331 0
M  V30 9308 H 864.7 0.891796 2.83609 0
M  V30 9309 H 862.233 0.575075 1.43291 0
M  V30 9310 H 864.191 -1.3819 3.86541 0
M  V30 9311 H 862.852 -1.58068 2.71428 0
M  V30 9312 H 862.045 -0.82457 4.97209 0
M  V30 9313 H 861.647 0.375818 3.72107 0
M  V30 9314 H 863.939 -0.55725 6.75204 0
M  V30 9315 H 864.882 0.943603 7.01785 0
M  V30 9316 H 865.29 -0.126121 5.64359 0
M  V30 9317 N 864.689 -1.48329 0.532571 0
M  V30 9318 C 865.652 -2.2816 -0.218069 0
M  V30 9319 C 866.652 -1.35526 -0.865409 0
M  V30 9320 O 867.842 -1.58394 -0.725061 0
M  V30 9321 C 864.974 -3.1448 -1.31586 0
M  V30 9322 H 866.167 -2.95987 0.482865 0
M  V30 9323 H 863.72 -1.53612 0.288603 0
M  V30 9324 H 864.455 -2.5129 -2.04997 0
M  V30 9325 H 864.24 -3.82625 -0.856779 0
M  V30 9326 H 865.73 -3.74693 -1.84377 0
M  V30 9327 N 866.167 -0.267825 -1.55308 0
M  V30 9328 C 867.578 0.231344 -1.85261 0
M  V30 9329 C 867.929 1.56006 -1.18982 0
M  V30 9330 O 867.054 2.1111 -0.475554 0
M  V30 9331 C 867.649 0.426537 -3.36104 0
M  V30 9332 C 866.208 0.869945 -3.66209 0
M  V30 9333 C 865.355 -0.0409522 -2.7727 0
M  V30 9334 H 868.306 -0.489821 -1.50952 0
M  V30 9335 H 868.327 1.26616 -3.58816 0
M  V30 9336 H 867.839 -0.540678 -3.84315 0
M  V30 9337 H 865.94 1.84889 -3.23492 0
M  V30 9338 H 866.053 0.712316 -4.73775 0
M  V30 9339 H 864.417 0.474097 -2.50249 0
M  V30 9340 H 865.2 -1.00392 -3.28293 0
M  V30 9341 N 867.645 1.57599 0.00500368 0
M  V30 9342 C 868.894 1.89528 0.690061 0
M  V30 9343 C 869.207 0.869451 1.75214 0
M  V30 9344 O 870.413 1.07879 2.49147 0
M  V30 9345 C 868.869 3.36425 1.27852 0
M  V30 9346 C 868.477 4.47293 0.251531 0
M  V30 9347 C 870.221 3.77471 1.94206 0
M  V30 9348 C 868.128 5.85264 0.8497 0
M  V30 9349 H 867.058 0.707201 0.2615 0
M  V30 9350 H 869.709 1.83418 -0.0547209 0
M  V30 9351 H 868.091 3.37356 2.07381 0
M  V30 9352 H 869.265 4.5787 -0.518796 0
M  V30 9353 H 867.58 4.15235 -0.311281 0
M  V30 9354 H 870.177 4.77884 2.39855 0
M  V30 9355 H 870.52 3.10722 2.77051 0
M  V30 9356 H 871.053 3.78817 1.21419 0
M  V30 9357 H 867.792 6.55472 0.0601408 0
M  V30 9358 H 867.312 5.78361 1.5893 0
M  V30 9359 H 868.991 6.32762 1.34984 0
M  V30 9360 N 869.123 -0.277682 1.55134 0
M  V30 9361 C 870.348 -1.03254 1.7987 0
M  V30 9362 C 870.773 -1.79324 0.567861 0
M  V30 9363 O 870.131 -1.74764 -0.4824 0
M  V30 9364 C 870.179 -1.9705 3.02 0
M  V30 9365 O 869.283 -3.05744 2.76757 0
M  V30 9366 H 868.624 -0.295447 0.594649 0
M  V30 9367 H 871.154 -0.308013 2.02268 0
M  V30 9368 H 871.164 -2.3909 3.30606 0
M  V30 9369 H 869.839 -1.41094 3.91236 0
M  V30 9370 H 868.416 -2.68052 2.59235 0
M  V30 9371 N 870.601 -1.47988 -0.541979 0
M  V30 9372 C 871.848 -1.55393 -1.29843 0
M  V30 9373 C 872.176 -0.222668 -1.93221 0
M  V30 9374 O 871.431 0.785936 -1.79225 0
M  V30 9375 C 871.73 -2.63189 -2.41798 0
M  V30 9376 C 871.396 -4.05999 -1.96151 0
M  V30 9377 C 870.058 -4.44872 -1.83419 0
M  V30 9378 C 872.41 -4.95545 -1.61507 0
M  V30 9379 C 869.738 -5.71108 -1.34361 0
M  V30 9380 C 872.09 -6.22259 -1.13915 0
M  V30 9381 C 870.754 -6.59998 -0.997911 0
M  V30 9382 H 870.024 -0.568623 -0.47513 0
M  V30 9383 H 872.671 -1.81654 -0.606142 0
M  V30 9384 H 870.976 -2.30743 -3.16647 0
M  V30 9385 H 872.673 -2.66138 -2.99953 0
M  V30 9386 H 869.263 -3.75294 -2.07008 0
M  V30 9387 H 873.447 -4.662 -1.70209 0
M  V30 9388 H 868.703 -5.99083 -1.22103 0
M  V30 9389 H 872.877 -6.91048 -0.861755 0
M  V30 9390 H 870.504 -7.57704 -0.615561 0
M  V30 9391 N 872.079 0.78992 -1.36375 0
M  V30 9392 C 873.326 1.54777 -1.30576 0
M  V30 9393 C 873.654 1.94159 0.115095 0
M  V30 9394 O 872.909 1.62918 1.08426 0
M  V30 9395 C 873.208 2.83698 -2.17371 0
M  V30 9396 C 872.874 2.63457 -3.65925 0
M  V30 9397 C 871.536 2.57645 -4.06415 0
M  V30 9398 C 873.888 2.44833 -4.60115 0
M  V30 9399 C 871.216 2.31174 -5.39236 0
M  V30 9400 C 873.568 2.19889 -5.93154 0
M  V30 9401 C 872.232 2.1251 -6.32768 0
M  V30 9402 H 871.502 0.566371 -0.477813 0
M  V30 9403 H 874.149 0.91138 -1.68422 0
M  V30 9404 H 872.454 3.51802 -1.72459 0
M  V30 9405 H 874.151 3.41487 -2.10209 0
M  V30 9406 H 870.741 2.68836 -3.33804 0
M  V30 9407 H 874.925 2.48325 -4.29707 0
M  V30 9408 H 870.181 2.23942 -5.68911 0
M  V30 9409 H 874.355 2.04473 -6.65705 0
M  V30 9410 H 871.982 1.91761 -7.35616 0
M  V30 9411 N 873.557 1.20646 1.01402 0
M  V30 9412 C 874.52 0.959314 2.08158 0
M  V30 9413 C 875.52 -0.0661558 1.60664 0
M  V30 9414 O 876.71 0.170177 1.73367 0
M  V30 9415 C 873.842 0.444785 3.37986 0
M  V30 9416 H 875.035 1.90631 2.31517 0
M  V30 9417 H 872.588 1.02219 1.18241 0
M  V30 9418 H 873.323 -0.507553 3.20304 0
M  V30 9419 H 873.108 1.18435 3.73785 0
M  V30 9420 H 874.598 0.291443 4.16582 0
M  V30 9421 N 875.035 -1.20752 1.01276 0
M  V30 9422 C 876.284 -1.8934 0.695229 0
M  V30 9423 C 876.597 -1.79459 -0.77806 0
M  V30 9424 O 877.803 -2.43146 -1.20799 0
M  V30 9425 C 876.259 -3.39548 1.1931 0
M  V30 9426 C 875.867 -3.58023 2.69302 0
M  V30 9427 C 877.611 -4.13714 0.950823 0
M  V30 9428 C 875.518 -5.02037 3.1259 0
M  V30 9429 H 874.448 -0.709084 0.25635 0
M  V30 9430 H 877.099 -1.36629 1.22494 0
M  V30 9431 H 875.481 -3.91559 0.591395 0
M  V30 9432 H 876.655 -3.16416 3.34989 0
M  V30 9433 H 874.97 -2.97222 2.9163 0
M  V30 9434 H 877.567 -5.19891 1.24971 0
M  V30 9435 H 877.91 -4.16147 -0.112791 0
M  V30 9436 H 878.443 -3.67792 1.51571 0
M  V30 9437 H 875.182 -5.04757 4.18211 0
M  V30 9438 H 874.702 -5.44469 2.51621 0
M  V30 9439 H 876.381 -5.70594 3.0501 0
M  V30 9440 N 876.513 -0.788492 -1.36457 0
M  V30 9441 C 877.738 -0.371224 -2.04051 0
M  V30 9442 C 878.163 1.004 -1.59064 0
M  V30 9443 O 877.521 1.64663 -0.758679 0
M  V30 9444 C 877.569 -0.442275 -3.57877 0
M  V30 9445 O 876.673 0.55113 -4.08701 0
M  V30 9446 H 876.014 -0.157808 -0.644975 0
M  V30 9447 H 878.544 -1.06935 -1.74431 0
M  V30 9448 H 878.554 -0.305548 -4.06854 0
M  V30 9449 H 877.229 -1.44547 -3.89973 0
M  V30 9450 H 875.806 0.37614 -3.70998 0
M  V30 9451 N 877.991 1.48044 -0.54043 0
M  V30 9452 C 878.954 2.28273 0.205966 0
M  V30 9453 C 879.954 1.35983 0.858209 0
M  V30 9454 O 881.144 1.58776 0.716651 0
M  V30 9455 C 878.276 3.15174 1.29917 0
M  V30 9456 H 879.469 2.95727 -0.498555 0
M  V30 9457 H 877.022 1.53457 -0.296745 0
M  V30 9458 H 877.757 2.52374 2.03661 0
M  V30 9459 H 877.542 3.83074 0.836475 0
M  V30 9460 H 879.032 3.75666 1.82387 0
M  V30 9461 N 879.47 0.276058 1.55163 0
M  V30 9462 C 880.695 -0.346648 2.04483 0
M  V30 9463 C 881.12 -1.48613 1.15308 0
M  V30 9464 O 880.478 -1.80663 0.151875 0
M  V30 9465 C 880.526 -0.804268 3.51517 0
M  V30 9466 O 879.63 -1.91143 3.65429 0
M  V30 9467 H 878.971 -0.0715251 0.660136 0
M  V30 9468 H 881.501 0.410631 2.00437 0
M  V30 9469 H 881.511 -1.09977 3.92898 0
M  V30 9470 H 880.186 0.0294123 4.1589 0
M  V30 9471 H 878.763 -1.61839 3.3595 0
M  V30 9472 N 880.948 -1.576 0.00335426 0
M  V30 9473 C 881.878 -2.11668 -0.985839 0
M  V30 9474 C 882.859 -1.02661 -1.35627 0
M  V30 9475 O 884.044 -1.30361 -1.43943 0
M  V30 9476 C 881.174 -2.62273 -2.27662 0
M  V30 9477 C 880.128 -3.75837 -2.0477 0
M  V30 9478 C 879.454 -4.12769 -3.39891 0
M  V30 9479 C 880.754 -5.02975 -1.40759 0
M  V30 9480 H 882.448 -2.9457 -0.535637 0
M  V30 9481 H 879.994 -1.41702 -0.256204 0
M  V30 9482 H 881.947 -2.98727 -2.97221 0
M  V30 9483 H 880.671 -1.76498 -2.74802 0
M  V30 9484 H 879.33 -3.39782 -1.37636 0
M  V30 9485 H 878.978 -3.24013 -3.8474 0
M  V30 9486 H 878.678 -4.89281 -3.25389 0
M  V30 9487 H 880.202 -4.51784 -4.1076 0
M  V30 9488 H 881.616 -5.37179 -2.00279 0
M  V30 9489 H 880.013 -5.84315 -1.36734 0
M  V30 9490 H 881.083 -4.83431 -0.377218 0
M  V30 9491 N 882.426 0.269451 -1.5528 0
M  V30 9492 C 883.373 1.33316 -1.88403 0
M  V30 9493 C 884.343 1.48909 -0.735881 0
M  V30 9494 O 885.528 1.63259 -0.987479 0
M  V30 9495 C 882.668 2.68778 -2.16454 0
M  V30 9496 C 881.781 2.61377 -3.43956 0
M  V30 9497 C 880.916 3.89042 -3.6169 0
M  V30 9498 C 879.955 3.76166 -4.82872 0
M  V30 9499 N 879.092 4.95673 -4.97245 0
M  V30 9500 H 883.932 1.04368 -2.79126 0
M  V30 9501 H 881.469 0.504147 -1.38191 0
M  V30 9502 H 883.427 3.47599 -2.30719 0
M  V30 9503 H 882.057 2.9592 -1.28961 0
M  V30 9504 H 881.109 1.74247 -3.38145 0
M  V30 9505 H 882.421 2.47764 -4.32914 0
M  V30 9506 H 881.575 4.76304 -3.75791 0
M  V30 9507 H 880.314 4.05526 -2.70924 0
M  V30 9508 H 879.319 2.87287 -4.68771 0
M  V30 9509 H 880.544 3.61198 -5.75077 0
M  V30 9510 H 878.49 5.12561 -4.09411 0
M  V30 9511 H 878.407 4.84605 -5.80254 0
M  V30 9512 H 879.675 5.84498 -5.15735 0
M  V30 9513 N 883.904 1.48273 0.534124 0
M  V30 9514 C 885.15 1.56311 1.29208 0
M  V30 9515 C 885.483 0.234481 1.92779 0
M  V30 9516 O 884.758 -0.759143 1.79073 0
M  V30 9517 C 885.041 2.69831 2.3846 0
M  V30 9518 C 884.894 4.12385 1.79608 0
M  V30 9519 C 886.213 2.79133 3.40254 0
M  V30 9520 H 883.332 0.56899 0.468422 0
M  V30 9521 H 885.974 1.80429 0.595438 0
M  V30 9522 H 884.124 2.49397 2.97881 0
M  V30 9523 H 885.796 4.44246 1.24269 0
M  V30 9524 H 884.039 4.19579 1.10162 0
M  V30 9525 H 884.71 4.87629 2.58693 0
M  V30 9526 H 887.186 2.97632 2.90783 0
M  V30 9527 H 886.062 3.60298 4.14097 0
M  V30 9528 H 886.323 1.87122 4.00547 0
M  V30 9529 N 885.382 -0.782676 1.36792 0
M  V30 9530 C 886.793 -1.35828 1.28092 0
M  V30 9531 C 887.144 -1.96052 -0.076315 0
M  V30 9532 O 886.269 -1.93042 -0.977935 0
M  V30 9533 C 886.864 -2.46949 2.31952 0
M  V30 9534 C 885.423 -3.00307 2.2692 0
M  V30 9535 C 884.57 -1.73436 2.16368 0
M  V30 9536 H 887.521 -0.583788 1.47572 0
M  V30 9537 H 887.542 -3.26144 1.95986 0
M  V30 9538 H 887.054 -2.03087 3.30722 0
M  V30 9539 H 885.155 -3.48571 1.31639 0
M  V30 9540 H 885.268 -3.56663 3.19887 0
M  V30 9541 H 883.632 -1.95934 1.62733 0
M  V30 9542 H 884.415 -1.31693 3.17036 0
M  V30 9543 N 886.86 -1.21182 -1.00761 0
M  V30 9544 C 887.79 -0.992773 -2.11344 0
M  V30 9545 C 888.771 0.0813618 -1.69905 0
M  V30 9546 O 889.956 -0.0779503 -1.94043 0
M  V30 9547 C 887.086 -0.553826 -3.42856 0
M  V30 9548 C 886.04 -1.57223 -3.98077 0
M  V30 9549 C 885.366 -0.989605 -5.25463 0
M  V30 9550 C 886.666 -2.95839 -4.30438 0
M  V30 9551 H 888.36 -1.91766 -2.29927 0
M  V30 9552 H 885.906 -0.923426 -1.10494 0
M  V30 9553 H 887.859 -0.387771 -4.19612 0
M  V30 9554 H 886.583 0.406702 -3.24058 0
M  V30 9555 H 885.242 -1.7258 -3.23437 0
M  V30 9556 H 884.89 -0.0208743 -5.02996 0
M  V30 9557 H 884.59 -1.66984 -5.63374 0
M  V30 9558 H 886.114 -0.834815 -6.04866 0
M  V30 9559 H 887.528 -2.8394 -4.98047 0
M  V30 9560 H 885.925 -3.60851 -4.79486 0
M  V30 9561 H 886.995 -3.46882 -3.38823 0
M  V30 9562 N 888.338 1.20213 -1.01915 0
M  V30 9563 C 889.587 1.88968 -0.705261 0
M  V30 9564 C 889.9 1.79869 0.768531 0
M  V30 9565 O 891.106 2.43783 1.19508 0
M  V30 9566 C 889.562 3.38911 -1.21109 0
M  V30 9567 C 889.17 3.5659 -2.71197 0
M  V30 9568 C 890.914 4.13204 -0.97275 0
M  V30 9569 C 888.821 5.00372 -3.15248 0
M  V30 9570 H 887.751 0.707715 -0.260107 0
M  V30 9571 H 890.402 1.35977 -1.23217 0
M  V30 9572 H 888.784 3.9124 -0.612152 0
M  V30 9573 H 889.958 3.14635 -3.36662 0
M  V30 9574 H 888.273 2.95671 -2.93202 0
M  V30 9575 H 890.87 5.19221 -1.27726 0
M  V30 9576 H 891.213 4.16201 0.09072 0
M  V30 9577 H 891.746 3.66983 -1.5352 0
M  V30 9578 H 888.485 5.02532 -4.20882 0
M  V30 9579 H 888.005 5.43127 -2.54505 0
M  V30 9580 H 889.684 5.68969 -3.08032 0
M  V30 9581 N 889.816 0.795718 1.36037 0
M  V30 9582 C 891.044 0.383153 2.03321 0
M  V30 9583 C 891.459 -1.00246 1.59988 0
M  V30 9584 O 890.816 -1.64406 0.792265 0
M  V30 9585 C 890.867 0.444467 3.58757 0
M  V30 9586 O 890.588 1.77544 4.00512 0
M  V30 9587 C 892.089 0.0233291 4.43294 0
M  V30 9588 H 889.309 0.157061 0.652359 0
M  V30 9589 H 891.853 1.07632 1.73884 0
M  V30 9590 H 890.008 -0.200341 3.86882 0
M  V30 9591 H 890.422 1.73065 4.95125 0
M  V30 9592 H 891.896 0.117361 5.51875 0
M  V30 9593 H 892.373 -1.03007 4.2695 0
M  V30 9594 H 892.979 0.64087 4.20444 0
M  V30 9595 N 891.294 -1.47756 0.548274 0
M  V30 9596 C 892.54 -2.02789 0.0209265 0
M  V30 9597 C 892.873 -1.42268 -1.32187 0
M  V30 9598 O 892.148 -0.575001 -1.85806 0
M  V30 9599 C 892.431 -3.60007 -0.0816674 0
M  V30 9600 C 892.284 -4.30977 1.28759 0
M  V30 9601 C 893.603 -4.32777 -0.799515 0
M  V30 9602 H 890.722 -0.736944 0.00907884 0
M  V30 9603 H 893.364 -1.76282 0.708839 0
M  V30 9604 H 891.514 -3.82722 -0.667537 0
M  V30 9605 H 893.186 -4.19629 1.91597 0
M  V30 9606 H 891.429 -3.9168 1.86466 0
M  V30 9607 H 892.1 -5.39488 1.16861 0
M  V30 9608 H 894.576 -4.15001 -0.30216 0
M  V30 9609 H 893.452 -5.42431 -0.840239 0
M  V30 9610 H 893.713 -4.01358 -1.85375 0
M  V30 9611 N 892.772 -0.284283 -1.55015 0
M  V30 9612 C 893.997 0.335799 -2.04664 0
M  V30 9613 C 894.422 1.47999 -1.16094 0
M  V30 9614 O 893.78 1.8058 -0.161454 0
M  V30 9615 C 893.828 0.785615 -3.51938 0
M  V30 9616 O 892.932 1.89202 -3.66437 0
M  V30 9617 H 892.273 0.0680233 -0.660506 0
M  V30 9618 H 894.803 -0.421255 -2.00216 0
M  V30 9619 H 894.813 1.07892 -3.93476 0
M  V30 9620 H 893.488 -0.0514675 -4.15868 0
M  V30 9621 H 892.065 1.60055 -3.36804 0
M  V30 9622 N 894.251 1.57596 -0.0117121 0
M  V30 9623 C 895.198 2.09153 0.975897 0
M  V30 9624 C 896.168 0.989579 1.33404 0
M  V30 9625 O 897.353 1.26273 1.43038 0
M  V30 9626 C 894.493 2.60906 2.2588 0
M  V30 9627 C 893.606 3.85046 1.95866 0
M  V30 9628 C 892.741 4.25257 3.18323 0
M  V30 9629 C 891.78 5.42202 2.84049 0
M  V30 9630 N 890.917 5.77651 3.99079 0
M  V30 9631 H 895.757 2.93261 0.52931 0
M  V30 9632 H 893.294 1.44965 0.249691 0
M  V30 9633 H 895.252 2.88995 3.00895 0
M  V30 9634 H 893.882 1.79654 2.68187 0
M  V30 9635 H 892.934 3.63794 1.11168 0
M  V30 9636 H 894.246 4.70151 1.66611 0
M  V30 9637 H 893.4 4.5469 4.01674 0
M  V30 9638 H 892.139 3.38884 3.50726 0
M  V30 9639 H 891.144 5.1248 1.99107 0
M  V30 9640 H 892.369 6.3026 2.52881 0
M  V30 9641 H 890.315 4.94235 4.31356 0
M  V30 9642 H 890.232 6.57356 3.73388 0
M  V30 9643 H 891.5 6.11681 4.83183 0
M  V30 9644 N 895.729 -0.261212 1.5542 0
M  V30 9645 C 896.692 -1.30645 1.8832 0
M  V30 9646 C 897.692 -1.41782 0.758588 0
M  V30 9647 O 898.882 -1.40729 1.02669 0
M  V30 9648 C 896.014 -2.6862 2.09895 0
M  V30 9649 H 897.207 -1.02698 2.81768 0
M  V30 9650 H 894.76 -0.499838 1.48092 0
M  V30 9651 H 895.495 -3.0173 1.18868 0
M  V30 9652 H 895.28 -2.61921 2.91787 0
M  V30 9653 H 896.77 -3.44121 2.36581 0
M  V30 9654 N 897.207 -1.48554 -0.526253 0
M  V30 9655 C 898.154 -1.63354 -1.63046 0
M  V30 9656 C 899.124 -0.475509 -1.59148 0
M  V30 9657 O 900.309 -0.699453 -1.77517 0
M  V30 9658 C 897.449 -1.68271 -3.01295 0
M  V30 9659 C 896.562 -2.95207 -3.15399 0
M  V30 9660 C 895.697 -2.91262 -4.4423 0
M  V30 9661 C 894.736 -4.12886 -4.51876 0
M  V30 9662 N 893.873 -4.06996 -5.721 0
M  V30 9663 H 898.713 -2.57649 -1.49737 0
M  V30 9664 H 896.25 -1.27769 -0.728938 0
M  V30 9665 H 898.208 -1.69104 -3.81392 0
M  V30 9666 H 896.838 -0.774641 -3.13367 0
M  V30 9667 H 895.89 -3.04102 -2.2853 0
M  V30 9668 H 897.202 -3.85187 -3.1691 0
M  V30 9669 H 896.356 -2.90516 -5.32621 0
M  V30 9670 H 895.095 -1.99016 -4.45246 0
M  V30 9671 H 894.1 -4.13902 -3.61891 0
M  V30 9672 H 895.325 -5.06294 -4.52596 0
M  V30 9673 H 893.271 -3.17573 -5.74006 0
M  V30 9674 H 893.188 -4.90685 -5.75121 0
M  V30 9675 H 894.456 -4.10315 -6.62768 0
M  V30 9676 N 898.685 0.775411 -1.37205 0
M  V30 9677 C 899.934 1.52909 -1.31536 0
M  V30 9678 C 900.247 1.9535 0.0989374 0
M  V30 9679 O 901.453 2.70072 0.278079 0
M  V30 9680 C 899.909 2.761 -2.30861 0
M  V30 9681 C 899.517 2.40773 -3.77799 0
M  V30 9682 C 901.261 3.54052 -2.34195 0
M  V30 9683 C 899.168 3.60444 -4.68865 0
M  V30 9684 H 898.098 0.574061 -0.488845 0
M  V30 9685 H 900.749 0.849642 -1.62645 0
M  V30 9686 H 899.131 3.45916 -1.92764 0
M  V30 9687 H 900.305 1.78764 -4.24712 0
M  V30 9688 H 898.62 1.76004 -3.77375 0
M  V30 9689 H 901.217 4.42992 -2.99437 0
M  V30 9690 H 901.56 3.93649 -1.35449 0
M  V30 9691 H 902.093 2.91229 -2.7098 0
M  V30 9692 H 898.832 3.25932 -5.68725 0
M  V30 9693 H 898.352 4.21571 -4.26659 0
M  V30 9694 H 900.031 4.27302 -4.85821 0
M  V30 9695 N 900.163 1.21714 1.00117 0
M  V30 9696 C 901.093 1.00397 2.10815 0
M  V30 9697 C 902.074 -0.0723502 1.69946 0
M  V30 9698 O 903.259 0.0882398 1.93999 0
M  V30 9699 C 900.389 0.572001 3.42557 0
M  V30 9700 C 899.343 1.59331 3.97237 0
M  V30 9701 C 898.669 1.01746 5.2493 0
M  V30 9702 C 899.969 2.98117 4.28863 0
M  V30 9703 H 901.663 1.92983 2.28906 0
M  V30 9704 H 899.209 0.929273 1.10002 0
M  V30 9705 H 901.162 0.410018 4.19401 0
M  V30 9706 H 899.886 -0.38951 3.24269 0
M  V30 9707 H 898.545 1.74293 3.22518 0
M  V30 9708 H 898.193 0.0475491 5.02978 0
M  V30 9709 H 897.893 1.69969 5.62481 0
M  V30 9710 H 899.417 0.866881 6.04415 0
M  V30 9711 H 900.831 2.86578 4.96534 0
M  V30 9712 H 899.228 3.63389 4.77565 0
M  V30 9713 H 900.298 3.48674 3.36979 0
M  V30 9714 N 901.641 -1.19671 1.02551 0
M  V30 9715 C 902.571 -2.25009 0.623965 0
M  V30 9716 C 903.552 -1.66129 -0.36538 0
M  V30 9717 O 904.737 -1.92599 -0.248842 0
M  V30 9718 C 901.867 -3.47287 -0.0294869 0
M  V30 9719 C 900.821 -4.18818 0.881781 0
M  V30 9720 C 900.147 -5.34618 0.0936189 0
M  V30 9721 C 901.447 -4.73986 2.19396 0
M  V30 9722 H 903.141 -2.58851 1.50454 0
M  V30 9723 H 900.687 -1.24425 0.724872 0
M  V30 9724 H 902.64 -4.20168 -0.322016 0
M  V30 9725 H 901.364 -3.12635 -0.944838 0
M  V30 9726 H 900.023 -3.47815 1.15845 0
M  V30 9727 H 899.671 -4.9621 -0.823661 0
M  V30 9728 H 899.371 -5.83409 0.700568 0
M  V30 9729 H 900.895 -6.10297 -0.192249 0
M  V30 9730 H 902.309 -5.38639 1.96319 0
M  V30 9731 H 900.706 -5.3325 2.75254 0
M  V30 9732 H 901.776 -3.92238 2.85092 0
M  V30 9733 N 903.119 -0.802921 -1.35613 0
M  V30 9734 C 904.365 -0.382141 -1.99167 0
M  V30 9735 C 904.698 1.04704 -1.63556 0
M  V30 9736 O 903.973 1.72578 -0.89706 0
M  V30 9737 C 904.256 -0.561493 -3.55695 0
M  V30 9738 C 904.109 -2.03534 -4.01116 0
M  V30 9739 C 905.428 0.0151135 -4.40097 0
M  V30 9740 H 902.547 -0.140322 -0.723518 0
M  V30 9741 H 905.189 -1.01177 -1.6082 0
M  V30 9742 H 903.339 -0.0255083 -3.88492 0
M  V30 9743 H 905.011 -2.63343 -3.78746 0
M  V30 9744 H 903.254 -2.5331 -3.52159 0
M  V30 9745 H 903.925 -2.11173 -5.1001 0
M  V30 9746 H 906.401 -0.442582 -4.1374 0
M  V30 9747 H 905.277 -0.140316 -5.48721 0
M  V30 9748 H 905.538 1.10848 -4.27978 0
M  V30 9749 N 904.597 1.47463 -0.556102 0
M  V30 9750 C 905.527 2.32801 0.180497 0
M  V30 9751 C 906.508 1.43721 0.909848 0
M  V30 9752 O 907.693 1.72578 0.89053 0
M  V30 9753 C 904.823 3.25478 1.21167 0
M  V30 9754 C 903.777 4.2379 0.598846 0
M  V30 9755 C 903.103 5.05783 1.73457 0
M  V30 9756 C 904.403 5.20387 -0.446659 0
M  V30 9757 H 906.097 2.94636 -0.531956 0
M  V30 9758 H 903.643 1.41683 -0.257267 0
M  V30 9759 H 905.596 3.8402 1.73513 0
M  V30 9760 H 904.32 2.61695 1.95405 0
M  V30 9761 H 902.979 3.66472 0.0966897 0
M  V30 9762 H 902.627 4.38405 2.46596 0
M  V30 9763 H 902.327 5.72343 1.33031 0
M  V30 9764 H 903.851 5.67183 2.26131 0
M  V30 9765 H 905.265 5.73299 -0.00930019 0
M  V30 9766 H 903.662 5.95143 -0.769735 0
M  V30 9767 H 904.732 4.65932 -1.34295 0
M  V30 9768 N 906.075 0.2925 1.54862 0
M  V30 9769 C 907.322 -0.319263 1.99967 0
M  V30 9770 C 907.65 -1.54547 1.18092 0
M  V30 9771 O 906.905 -1.94186 0.242969 0
M  V30 9772 C 907.204 -0.728674 3.49893 0
M  V30 9773 C 906.87 0.394836 4.49168 0
M  V30 9774 C 905.532 0.703289 4.76033 0
M  V30 9775 C 907.884 1.15103 5.08331 0
M  V30 9776 C 905.212 1.77121 5.59325 0
M  V30 9777 C 907.564 2.20881 5.92785 0
M  V30 9778 C 906.228 2.52342 6.17964 0
M  V30 9779 H 905.498 -0.116827 0.731733 0
M  V30 9780 H 908.145 0.40983 1.87063 0
M  V30 9781 H 906.45 -1.53772 3.60363 0
M  V30 9782 H 908.147 -1.21305 3.82212 0
M  V30 9783 H 904.737 0.144319 4.28357 0
M  V30 9784 H 908.921 0.92599 4.87585 0
M  V30 9785 H 904.177 2.01978 5.77074 0
M  V30 9786 H 908.351 2.79939 6.37657 0
M  V30 9787 H 905.978 3.35225 6.82296 0
M  V30 9788 N 907.553 -1.57587 0.0200696 0
M  V30 9789 C 908.503 -2.0616 -0.973751 0
M  V30 9790 C 909.487 -0.960282 -1.29102 0
M  V30 9791 O 910.679 -1.22391 -1.27865 0
M  V30 9792 C 907.808 -2.58487 -2.25919 0
M  V30 9793 C 906.894 -3.75533 -1.97068 0
M  V30 9794 N 907.285 -4.86482 -1.38451 0
M  V30 9795 C 905.583 -3.83847 -2.27107 0
M  V30 9796 C 906.284 -5.67773 -1.26527 0
M  V30 9797 N 905.26 -5.14398 -1.75772 0
M  V30 9798 H 909.062 -2.89346 -0.515365 0
M  V30 9799 H 906.576 -1.61341 -0.185163 0
M  V30 9800 H 908.573 -2.91572 -2.97979 0
M  V30 9801 H 907.233 -1.76728 -2.72392 0
M  V30 9802 H 908.244 -5.06922 -1.06069 0
M  V30 9803 H 904.921 -3.12978 -2.76316 0
M  V30 9804 H 906.311 -6.66966 -0.812785 0
M  V30 9805 N 909.032 0.252966 -1.55557 0
M  V30 9806 C 910.443 0.822503 -1.67606 0
M  V30 9807 C 910.794 1.86265 -0.616411 0
M  V30 9808 O 909.919 2.15082 0.238447 0
M  V30 9809 C 910.514 1.49866 -3.03852 0
M  V30 9810 C 909.073 2.01597 -3.17861 0
M  V30 9811 C 908.22 0.864943 -2.63465 0
M  V30 9812 H 911.171 0.0288958 -1.58674 0
M  V30 9813 H 911.192 2.36646 -2.97958 0
M  V30 9814 H 910.704 0.741378 -3.80953 0
M  V30 9815 H 908.805 2.80224 -2.45571 0
M  V30 9816 H 908.918 2.21752 -4.24692 0
M  V30 9817 H 907.282 1.2638 -2.21134 0
M  V30 9818 H 908.065 0.120847 -3.43087 0
M  V30 9819 N 910.51 1.48831 0.518367 0
M  V30 9820 C 911.759 1.5669 1.27008 0
M  V30 9821 C 912.072 0.250934 1.93984 0
M  V30 9822 O 913.278 0.207884 2.70703 0
M  V30 9823 C 911.734 2.76387 2.30517 0
M  V30 9824 C 911.342 4.14673 1.69559 0
M  V30 9825 C 913.086 2.93566 3.06625 0
M  V30 9826 C 910.993 5.25616 2.71076 0
M  V30 9827 H 909.923 0.583362 0.477708 0
M  V30 9828 H 912.574 1.75187 0.546052 0
M  V30 9829 H 910.956 2.51348 3.06006 0
M  V30 9830 H 912.13 4.49779 1.00179 0
M  V30 9831 H 910.445 4.02708 1.05902 0
M  V30 9832 H 913.042 3.7362 3.82508 0
M  V30 9833 H 913.385 2.03462 3.63193 0
M  V30 9834 H 913.918 3.18562 2.38251 0
M  V30 9835 H 910.657 6.17723 2.19313 0
M  V30 9836 H 910.177 4.94985 3.38748 0
M  V30 9837 H 911.856 5.5422 3.3384 0
M  V30 9838 N 911.988 -0.768124 1.37614 0
M  V30 9839 C 912.936 -1.9029 1.33763 0
M  V30 9840 C 913.93 -1.67888 0.225814 0
M  V30 9841 O 915.136 -1.75634 0.394043 0
M  V30 9842 H 911.511 -0.625828 0.416945 0
M  V30 9843 H 913.482 -1.90654 2.29551 0
M  V30 9844 C 912.231 -3.27598 1.16511 0
M  V30 9845 H 911.554 -3.45414 2.01318 0
M  V30 9846 H 912.994 -4.07288 1.17867 0
M  V30 9847 C 911.453 -3.36653 -0.129001 0
M  V30 9848 O 911.983 -3.86023 -1.11128 0
M  V30 9849 N 910.189 -2.90036 -0.180926 0
M  V30 9850 H 909.736 -2.5005 0.619076 0
M  V30 9851 H 909.694 -2.96475 -1.04641 0
M  V30 9852 N 913.466 -1.22244 -0.994698 0
M  V30 9853 C 914.691 -1.07299 -1.77487 0
M  V30 9854 C 915.116 0.372302 -1.84379 0
M  V30 9855 O 914.474 1.2689 -1.29494 0
M  V30 9856 C 914.522 -1.68675 -3.18718 0
M  V30 9857 O 913.626 -0.939202 -4.01563 0
M  V30 9858 H 912.967 -0.376979 -0.546611 0
M  V30 9859 H 915.497 -1.62003 -1.24965 0
M  V30 9860 H 915.507 -1.73324 -3.69354 0
M  V30 9861 H 914.182 -2.73849 -3.13017 0
M  V30 9862 H 912.759 -0.968583 -3.60101 0
M  V30 9863 N 914.944 1.19125 -1.03184 0
M  V30 9864 C 916.184 1.90582 -0.738785 0
M  V30 9865 C 916.548 1.78004 0.719627 0
M  V30 9866 O 917.749 2.44084 1.12589 0
M  V30 9867 C 916.02 3.37319 -1.18114 0
M  V30 9868 S 917.579 4.26962 -1.01238 0
M  V30 9869 H 914.397 0.6582 -0.268875 0
M  V30 9870 H 916.999 1.43999 -1.32229 0
M  V30 9871 H 915.703 3.43999 -2.23814 0
M  V30 9872 H 915.234 3.88935 -0.591051 0
M  V30 9873 H 917.249 4.96143 0.0753558 0
M  V30 9874 N 916.422 0.810101 1.35185 0
M  V30 9875 C 917.385 0.22852 2.28058 0
M  V30 9876 C 918.385 -0.586168 1.49735 0
M  V30 9877 O 919.575 -0.40414 1.69447 0
M  V30 9878 C 916.707 -0.681041 3.34028 0
M  V30 9879 H 917.9 1.04768 2.81005 0
M  V30 9880 H 915.453 0.58101 1.451 0
M  V30 9881 H 916.188 -1.52375 2.86273 0
M  V30 9882 H 915.973 -0.0985276 3.91976 0
M  V30 9883 H 917.463 -1.08217 4.03335 0
M  V30 9884 N 917.9 -1.47166 0.563914 0
M  V30 9885 C 918.848 -2.31798 -0.193009 0
M  V30 9886 C 919.842 -1.43338 -0.902805 0
M  V30 9887 O 921.048 -1.60067 -0.823328 0
M  V30 9888 H 917.423 -0.747613 -0.0811139 0
M  V30 9889 H 919.394 -2.93476 0.539876 0
M  V30 9890 C 918.143 -3.26131 -1.20555 0
M  V30 9891 H 917.466 -3.94166 -0.668803 0
M  V30 9892 H 918.906 -3.88167 -1.70593 0
M  V30 9893 C 917.365 -2.50132 -2.25689 0
M  V30 9894 O 917.895 -2.25064 -3.3273 0
M  V30 9895 N 916.101 -2.11022 -1.99795 0
M  V30 9896 H 915.648 -2.3161 -1.1276 0
M  V30 9897 H 915.606 -1.60489 -2.70353 0
M  V30 9898 N 919.378 -0.300708 -1.54705 0
M  V30 9899 C 920.789 0.191995 -1.8571 0
M  V30 9900 C 921.14 1.53447 -1.22264 0
M  V30 9901 O 920.265 2.10054 -0.520226 0
M  V30 9902 C 920.86 0.355148 -3.36933 0
M  V30 9903 C 919.419 0.792071 -3.67972 0
M  V30 9904 C 918.566 -0.099756 -2.77121 0
M  V30 9905 H 921.517 -0.521729 -1.49879 0
M  V30 9906 H 921.538 1.18977 -3.61421 0
M  V30 9907 H 921.05 -0.622075 -3.83082 0
M  V30 9908 H 919.151 1.77986 -3.27341 0
M  V30 9909 H 919.264 0.611661 -4.75179 0
M  V30 9910 H 917.628 0.420909 -2.51198 0
M  V30 9911 H 918.411 -1.07333 -3.2609 0
M  V30 9912 N 920.856 1.57574 -0.0284266 0
M  V30 9913 C 922.103 1.91772 0.650364 0
M  V30 9914 C 922.431 0.904769 1.72175 0
M  V30 9915 O 921.686 -0.0864038 1.95509 0
M  V30 9916 C 921.985 3.32699 1.3056 0
M  V30 9917 C 921.651 4.49423 0.364658 0
M  V30 9918 C 920.313 4.81084 0.105672 0
M  V30 9919 C 922.665 5.20439 -0.28151 0
M  V30 9920 C 919.993 5.81119 -0.8073 0
M  V30 9921 C 922.345 6.21449 -1.18253 0
M  V30 9922 C 921.009 6.51551 -1.45042 0
M  V30 9923 H 920.279 0.701744 0.237985 0
M  V30 9924 H 922.926 1.91288 -0.0900448 0
M  V30 9925 H 921.231 3.29441 2.12075 0
M  V30 9926 H 922.928 3.5643 1.83736 0
M  V30 9927 H 919.518 4.24703 0.576692 0
M  V30 9928 H 923.702 4.9621 -0.0944806 0
M  V30 9929 H 918.958 6.02788 -1.02256 0
M  V30 9930 H 923.132 6.75597 -1.68942 0
M  V30 9931 H 920.759 7.28882 -2.15951 0
M  V30 9932 N 922.334 -0.244713 1.55689 0
M  V30 9933 C 923.264 -1.30667 1.93516 0
M  V30 9934 C 924.245 -1.50094 0.800371 0
M  V30 9935 O 925.43 -1.62665 1.06083 0
M  V30 9936 C 922.56 -2.66101 2.23176 0
M  V30 9937 C 921.514 -2.61366 3.38927 0
M  V30 9938 C 920.84 -4.00616 3.54134 0
M  V30 9939 C 922.14 -2.18161 4.74555 0
M  V30 9940 H 923.834 -0.992546 2.82469 0
M  V30 9941 H 921.38 -0.476018 1.35905 0
M  V30 9942 H 923.333 -3.4053 2.48228 0
M  V30 9943 H 922.057 -2.99154 1.31051 0
M  V30 9944 H 920.716 -1.89395 3.13887 0
M  V30 9945 H 920.364 -4.30938 2.59426 0
M  V30 9946 H 920.064 -3.98335 4.31975 0
M  V30 9947 H 921.588 -4.76741 3.8151 0
M  V30 9948 H 923.002 -2.82323 4.98965 0
M  V30 9949 H 921.399 -2.26988 5.55515 0
M  V30 9950 H 922.469 -1.13333 4.7147 0
M  V30 9951 N 923.813 -1.49104 -0.510467 0
M  V30 9952 C 925.043 -1.61571 -1.28757 0
M  V30 9953 C 925.451 -0.282638 -1.87077 0
M  V30 9954 O 924.794 0.740749 -1.68103 0
M  V30 9955 C 924.856 -2.61851 -2.46322 0
M  V30 9956 C 924.52 -4.06438 -2.08942 0
M  V30 9957 C 925.517 -4.93532 -1.63469 0
M  V30 9958 C 923.202 -4.52109 -2.18867 0
M  V30 9959 C 925.196 -6.24331 -1.28411 0
M  V30 9960 C 922.883 -5.82924 -1.83421 0
M  V30 9961 C 923.881 -6.68858 -1.38267 0
M  V30 9962 O 923.569 -7.97236 -1.03296 0
M  V30 9963 H 923.301 -0.547082 -0.397086 0
M  V30 9964 H 925.855 -1.95806 -0.620424 0
M  V30 9965 H 924.085 -2.22777 -3.16081 0
M  V30 9966 H 925.774 -2.63947 -3.08362 0
M  V30 9967 H 926.54 -4.59479 -1.55255 0
M  V30 9968 H 922.419 -3.85395 -2.52966 0
M  V30 9969 H 925.963 -6.9136 -0.930946 0
M  V30 9970 H 921.86 -6.16507 -1.91282 0
M  V30 9971 H 922.628 -8.10163 -1.16525 0
M  V30 9972 N 925.291 0.760815 -1.38019 0
M  V30 9973 C 926.254 1.85604 -1.34476 0
M  V30 9974 C 927.254 1.58897 -0.24666 0
M  V30 9975 O 928.444 1.66776 -0.50314 0
M  V30 9976 C 925.576 3.22945 -1.09176 0
M  V30 9977 H 926.769 1.90155 -2.31908 0
M  V30 9978 H 924.322 0.961746 -1.23208 0
M  V30 9979 H 925.057 3.24066 -0.123216 0
M  V30 9980 H 924.842 3.43723 -1.88672 0
M  V30 9981 H 926.332 4.03022 -1.09375 0
M  V30 9982 N 926.769 1.22769 0.988202 0
M  V30 9983 C 928.018 1.0492 1.72263 0
M  V30 9984 C 928.331 -0.415282 1.91141 0
M  V30 9985 O 929.537 -0.713547 2.61956 0
M  V30 9986 C 927.993 1.82891 3.09966 0
M  V30 9987 C 927.601 3.33618 2.99003 0
M  V30 9988 C 929.345 1.73505 3.87423 0
M  V30 9989 C 927.252 4.04012 4.3189 0
M  V30 9990 H 926.182 0.38899 0.645912 0
M  V30 9991 H 928.833 1.46664 1.10281 0
M  V30 9992 H 927.215 1.33948 3.72658 0
M  V30 9993 H 928.389 3.8999 2.45448 0
M  V30 9994 H 926.704 3.43732 2.35027 0
M  V30 9995 H 929.301 2.23416 4.85787 0
M  V30 9996 H 929.644 0.696344 4.10435 0
M  V30 9997 H 930.177 2.20016 3.31418 0
M  V30 9998 H 926.916 5.08155 4.14075 0
M  V30 9999 H 926.436 3.52428 4.8534 0
M  V30 10000 H 928.115 4.0987 5.00615 0
M  V30 10001 N 928.247 -1.18576 1.03814 0
M  V30 10002 C 929.494 -1.88493 0.740036 0
M  V30 10003 C 929.822 -1.80198 -0.732056 0
M  V30 10004 O 929.077 -1.19509 -1.54971 0
M  V30 10005 C 929.376 -3.38448 1.14837 0
M  V30 10006 C 929.042 -3.66947 2.62031 0
M  V30 10007 C 927.704 -3.74435 3.02244 0
M  V30 10008 C 930.056 -3.79534 3.57217 0
M  V30 10009 C 927.384 -3.91986 4.36536 0
M  V30 10010 C 929.736 -3.986 4.91223 0
M  V30 10011 C 928.4 -4.04323 5.31111 0
M  V30 10012 H 927.67 -0.689746 0.270798 0
M  V30 10013 H 930.317 -1.40364 1.3027 0
M  V30 10014 H 928.622 -3.88539 0.504472 0
M  V30 10015 H 930.319 -3.90882 0.89511 0
M  V30 10016 H 926.909 -3.61734 2.29883 0
M  V30 10017 H 931.093 -3.73083 3.27296 0
M  V30 10018 H 926.349 -3.9466 4.66962 0
M  V30 10019 H 930.523 -4.07281 5.64885 0
M  V30 10020 H 928.15 -4.17676 6.35178 0
M  V30 10021 N 929.725 -0.817259 -1.34754 0
M  V30 10022 C 930.953 -0.415451 -2.02686 0
M  V30 10023 C 931.368 0.97688 -1.61563 0
M  V30 10024 O 930.725 1.63125 -0.818321 0
M  V30 10025 C 930.776 -0.501486 -3.58005 0
M  V30 10026 O 930.497 -1.83893 -3.97637 0
M  V30 10027 C 931.998 -0.0938504 -4.43201 0
M  V30 10028 H 929.218 -0.16742 -0.649778 0
M  V30 10029 H 931.762 -1.10384 -1.7215 0
M  V30 10030 H 929.917 0.138766 -3.87151 0
M  V30 10031 H 930.331 -1.8092 -4.92309 0
M  V30 10032 H 931.805 -0.205145 -5.51619 0
M  V30 10033 H 932.282 0.962011 -4.28535 0
M  V30 10034 H 932.888 -0.707677 -4.19371 0
M  V30 10035 N 931.203 1.46865 -0.571711 0
M  V30 10036 C 932.15 2.30189 0.167808 0
M  V30 10037 C 933.12 1.3995 0.89461 0
M  V30 10038 O 934.305 1.68905 0.887451 0
M  V30 10039 C 931.445 3.24205 1.1826 0
M  V30 10040 C 930.558 4.2954 0.460376 0
M  V30 10041 C 929.693 5.10693 1.46173 0
M  V30 10042 C 928.732 6.07788 0.725291 0
M  V30 10043 N 927.869 6.81847 1.67417 0
M  V30 10044 H 932.709 2.92902 -0.548831 0
M  V30 10045 H 930.246 1.44362 -0.282474 0
M  V30 10046 H 932.204 3.77147 1.7837 0
M  V30 10047 H 930.834 2.63324 1.86709 0
M  V30 10048 H 929.886 3.79541 -0.255546 0
M  V30 10049 H 931.198 4.98665 -0.115855 0
M  V30 10050 H 930.352 5.67857 2.13595 0
M  V30 10051 H 929.091 4.41502 2.07188 0
M  V30 10052 H 928.096 5.49787 0.037228 0
M  V30 10053 H 929.321 6.78993 0.120678 0
M  V30 10054 H 927.267 6.15376 2.27263 0
M  V30 10055 H 927.184 7.47195 1.15046 0
M  V30 10056 H 928.452 7.43577 2.33908 0
M  V30 10057 N 932.681 0.308908 1.54543 0
M  V30 10058 C 933.629 -0.579326 2.2527 0
M  V30 10059 C 934.623 -1.13058 1.26152 0
M  V30 10060 O 935.829 -1.08031 1.43977 0
M  V30 10061 H 932.204 -0.205444 0.723392 0
M  V30 10062 H 934.175 0.0396415 2.98374 0
M  V30 10063 C 932.924 -1.73584 3.01271 0
M  V30 10064 H 932.247 -1.32089 3.77349 0
M  V30 10065 H 933.687 -2.33324 3.54028 0
M  V30 10066 C 932.146 -2.6447 2.08703 0
M  V30 10067 O 932.676 -3.65785 1.66025 0
M  V30 10068 N 930.882 -2.32379 1.74495 0
M  V30 10069 H 930.429 -1.50034 2.09398 0
M  V30 10070 H 930.387 -2.93454 1.12836 0
M  V30 10071 N 934.159 -1.57557 0.0367827 0
M  V30 10072 C 935.406 -1.92114 -0.640185 0
M  V30 10073 C 935.734 -0.913887 -1.71693 0
M  V30 10074 O 934.989 0.0760343 -1.95552 0
M  V30 10075 C 935.288 -3.33387 -1.28794 0
M  V30 10076 C 934.954 -4.4961 -0.340819 0
M  V30 10077 C 933.616 -4.81133 -0.0801574 0
M  V30 10078 C 935.968 -5.20283 0.309106 0
M  V30 10079 C 933.296 -5.80683 0.838107 0
M  V30 10080 C 935.648 -6.20813 1.21547 0
M  V30 10081 C 934.312 -6.50773 1.48495 0
M  V30 10082 H 933.582 -0.702996 -0.23426 0
M  V30 10083 H 936.229 -1.91238 0.100188 0
M  V30 10084 H 934.534 -3.30561 -2.10324 0
M  V30 10085 H 936.231 -3.57399 -1.81843 0
M  V30 10086 H 932.821 -4.25002 -0.554161 0
M  V30 10087 H 937.005 -4.96153 0.120794 0
M  V30 10088 H 932.261 -6.02238 1.05451 0
M  V30 10089 H 936.435 -6.74692 1.72522 0
M  V30 10090 H 934.062 -7.27727 2.19814 0
M  V30 10091 N 935.637 0.236453 -1.55816 0
M  V30 10092 C 937.053 0.585465 -1.48474 0
M  V30 10093 C 937.253 1.8785 -0.72902 0
M  V30 10094 O 936.309 2.51131 -0.262614 0
M  V30 10095 C 937.622 0.678506 -2.92945 0
M  V30 10096 C 939.17 0.770135 -3.03378 0
M  V30 10097 C 939.645 0.894649 -4.49177 0
M  V30 10098 N 941.136 0.959253 -4.53158 0
M  V30 10099 C 941.871 1.07505 -5.63232 0
M  V30 10100 N 941.367 1.15572 -6.83092 0
M  V30 10101 N 943.16 1.10902 -5.51051 0
M  V30 10102 H 935.311 -0.612241 -2.03385 0
M  V30 10103 H 937.574 -0.212796 -0.923808 0
M  V30 10104 H 937.28 -0.201757 -3.51121 0
M  V30 10105 H 937.154 1.54703 -3.44016 0
M  V30 10106 H 939.541 1.64085 -2.45276 0
M  V30 10107 H 939.622 -0.123753 -2.555 0
M  V30 10108 H 939.266 0.0284537 -5.07892 0
M  V30 10109 H 939.196 1.80373 -4.94745 0
M  V30 10110 H 941.687 0.907827 -3.66834 0
M  V30 10111 H 942 1.24343 -7.62731 0
M  V30 10112 H 940.345 1.12511 -6.85833 0
M  V30 10113 H 943.536 1.04255 -4.56343 0
M  V30 10114 H 943.709 1.19581 -6.36871 0
M  V30 10115 N 937.115 1.49373 0.502552 0
M  V30 10116 C 938.531 1.36101 0.833591 0
M  V30 10117 C 938.731 0.392911 1.97632 0
M  V30 10118 O 937.787 -0.175975 2.51886 0
M  V30 10119 C 939.1 2.76782 1.17526 0
M  V30 10120 C 940.648 2.85471 1.28356 0
M  V30 10121 C 941.123 4.26915 1.65853 0
M  V30 10122 N 942.614 4.29719 1.72905 0
M  V30 10123 C 943.349 5.36127 2.0336 0
M  V30 10124 N 942.845 6.52782 2.32049 0
M  V30 10125 N 944.638 5.23542 2.04598 0
M  V30 10126 H 936.789 2.10912 -0.251008 0
M  V30 10127 H 939.052 0.946696 -0.0497037 0
M  V30 10128 H 938.758 3.49314 0.408965 0
M  V30 10129 H 938.632 3.1205 2.11907 0
M  V30 10130 H 941.019 2.13177 2.04058 0
M  V30 10131 H 941.1 2.53787 0.320304 0
M  V30 10132 H 940.744 4.99735 0.907022 0
M  V30 10133 H 940.674 4.56063 2.63276 0
M  V30 10134 H 943.165 3.45586 1.529 0
M  V30 10135 H 943.478 7.29701 2.54471 0
M  V30 10136 H 941.823 6.56011 2.29509 0
M  V30 10137 H 945.014 4.31413 1.8166 0
M  V30 10138 H 945.187 6.06565 2.27998 0
M  V30 10139 N 938.594 -0.753485 1.38421 0
M  V30 10140 C 939.871 -1.50318 1.25155 0
M  V30 10141 C 940.251 -2.10588 -0.147003 0
M  V30 10142 O 939.599 -1.97071 -1.15651 0
M  V30 10143 C 939.809 -2.56946 2.36177 0
M  V30 10144 C 941.157 -3.23846 2.74607 0
M  V30 10145 O 942.181 -2.67251 2.3549 0
M  V30 10146 O 941.04 -4.2621 3.42064 0
M  V30 10147 H 938.134 -0.666624 0.48943 0
M  V30 10148 H 940.68 -0.788887 1.50249 0
M  V30 10149 H 939.452 -2.1066 3.29754 0
M  V30 10150 H 939.075 -3.35956 2.12648 0
M  V30 10151 N 940.072 -1.23292 -0.981677 0
M  V30 10152 C 941.319 -1.06424 -1.72279 0
M  V30 10153 C 941.647 0.399055 -1.90362 0
M  V30 10154 O 940.902 1.31181 -1.45224 0
M  V30 10155 C 941.201 -1.73339 -3.12551 0
M  V30 10156 C 940.867 -3.23256 -3.14351 0
M  V30 10157 C 939.529 -3.64159 -3.14549 0
M  V30 10158 C 941.881 -4.1916 -3.09765 0
M  V30 10159 C 939.209 -4.99428 -3.07877 0
M  V30 10160 C 941.561 -5.54419 -3.04635 0
M  V30 10161 C 940.225 -5.94688 -3.03154 0
M  V30 10162 H 939.495 -0.389434 -0.630415 0
M  V30 10163 H 942.142 -1.53208 -1.1489 0
M  V30 10164 H 940.447 -1.18911 -3.73319 0
M  V30 10165 H 942.144 -1.57767 -3.68661 0
M  V30 10166 H 938.734 -2.90693 -3.14953 0
M  V30 10167 H 942.918 -3.88569 -3.08753 0
M  V30 10168 H 938.174 -5.29844 -3.05083 0
M  V30 10169 H 942.348 -6.28448 -3.00043 0
M  V30 10170 H 939.975 -6.99468 -2.97739 0
M  V30 10171 N 941.55 1.18024 -1.04442 0
M  V30 10172 C 942.797 1.88098 -0.750022 0
M  V30 10173 C 943.125 1.80583 0.722489 0
M  V30 10174 O 942.38 1.20329 1.54335 0
M  V30 10175 C 942.679 3.37834 -1.16631 0
M  V30 10176 C 942.345 3.65553 -2.63974 0
M  V30 10177 C 941.007 3.72827 -3.04226 0
M  V30 10178 C 943.359 3.77634 -3.59224 0
M  V30 10179 C 940.687 3.89666 -4.38608 0
M  V30 10180 C 943.039 3.9599 -4.9333 0
M  V30 10181 C 941.703 4.01501 -5.33248 0
M  V30 10182 H 940.973 0.6883 -0.274452 0
M  V30 10183 H 943.62 1.39671 -1.31012 0
M  V30 10184 H 941.925 3.88266 -0.525071 0
M  V30 10185 H 943.622 3.90402 -0.915827 0
M  V30 10186 H 940.212 3.6051 -2.31798 0
M  V30 10187 H 944.396 3.71342 -3.2927 0
M  V30 10188 H 939.652 3.92178 -4.69048 0
M  V30 10189 H 943.826 4.0428 -5.67037 0
M  V30 10190 H 941.453 4.14301 -6.37384 0
M  V30 10191 N 943.028 0.824394 1.34319 0
M  V30 10192 C 944.277 0.40956 1.97498 0
M  V30 10193 C 944.59 -1.03323 1.66083 0
M  V30 10194 O 945.796 -1.55205 2.22764 0
M  V30 10195 C 944.252 0.681384 3.53391 0
M  V30 10196 C 943.86 2.1379 3.93698 0
M  V30 10197 C 945.604 0.332788 4.23194 0
M  V30 10198 C 943.511 2.35453 5.42509 0
M  V30 10199 H 942.441 0.149409 0.739049 0
M  V30 10200 H 945.092 1.01095 1.5314 0
M  V30 10201 H 943.474 0.00980375 3.95999 0
M  V30 10202 H 944.648 2.84876 3.62191 0
M  V30 10203 H 942.963 2.44807 3.36836 0
M  V30 10204 H 945.56 0.472463 5.32609 0
M  V30 10205 H 945.903 -0.722862 4.09976 0
M  V30 10206 H 946.436 0.959005 3.86067 0
M  V30 10207 H 943.175 3.39529 5.60714 0
M  V30 10208 H 942.695 1.68912 5.75525 0
M  V30 10209 H 944.374 2.17885 6.09209 0
M  V30 10210 N 944.506 -1.46559 0.579492 0
M  V30 10211 C 945.436 -2.33059 -0.143437 0
M  V30 10212 C 946.417 -1.4515 -0.886868 0
M  V30 10213 O 947.602 -1.73973 -0.862961 0
M  V30 10214 C 944.732 -3.27364 -1.15973 0
M  V30 10215 C 943.686 -4.24689 -0.531348 0
M  V30 10216 C 943.012 -5.08479 -1.65388 0
M  V30 10217 C 944.312 -5.1961 0.529391 0
M  V30 10218 H 946.006 -2.93753 0.578762 0
M  V30 10219 H 943.552 -1.41256 0.279775 0
M  V30 10220 H 945.505 -3.86732 -1.67382 0
M  V30 10221 H 944.229 -2.64771 -1.91217 0
M  V30 10222 H 942.888 -3.6658 -0.0383749 0
M  V30 10223 H 942.536 -4.42273 -2.3959 0
M  V30 10224 H 942.236 -5.74387 -1.23909 0
M  V30 10225 H 943.76 -5.70709 -2.17079 0
M  V30 10226 H 945.174 -5.73212 0.100506 0
M  V30 10227 H 943.571 -5.93843 0.86432 0
M  V30 10228 H 944.641 -4.63737 1.4169 0
M  V30 10229 N 945.984 -0.3171 -1.54377 0
M  V30 10230 C 946.914 0.544623 -2.2706 0
M  V30 10231 C 947.895 1.12469 -1.27611 0
M  V30 10232 O 949.08 1.15103 -1.56413 0
M  V30 10233 C 946.21 1.70879 -3.02353 0
M  V30 10234 C 945.164 1.25833 -4.09084 0
M  V30 10235 C 944.49 2.50894 -4.72182 0
M  V30 10236 C 945.79 0.377876 -5.20931 0
M  V30 10237 H 947.484 -0.0616372 -2.99337 0
M  V30 10238 H 945.03 -0.0310848 -1.43966 0
M  V30 10239 H 946.983 2.31787 -3.51927 0
M  V30 10240 H 945.707 2.34155 -2.27682 0
M  V30 10241 H 944.366 0.672228 -3.60384 0
M  V30 10242 H 944.014 3.12518 -3.94134 0
M  V30 10243 H 943.714 2.21447 -5.44275 0
M  V30 10244 H 945.238 3.12575 -5.24528 0
M  V30 10245 H 946.652 0.893056 -5.66302 0
M  V30 10246 H 945.049 0.176474 -5.9984 0
M  V30 10247 H 946.119 -0.592943 -4.81261 0
M  V30 10248 N 947.462 1.57535 -0.0451378 0
M  V30 10249 C 948.687 1.97172 0.64326 0
M  V30 10250 C 949.112 0.922266 1.63939 0
M  V30 10251 O 948.47 -0.115155 1.80934 0
M  V30 10252 C 948.518 3.35889 1.3119 0
M  V30 10253 O 947.622 3.33387 2.42748 0
M  V30 10254 H 946.963 0.642469 0.167719 0
M  V30 10255 H 949.493 2.04295 -0.111747 0
M  V30 10256 H 949.503 3.72481 1.66499 0
M  V30 10257 H 948.178 4.1181 0.581823 0
M  V30 10258 H 946.755 3.08533 2.09432 0
M  V30 10259 N 948.94 -0.228186 1.55939 0
M  V30 10260 C 949.887 -1.28274 1.91871 0
M  V30 10261 C 950.857 -1.46906 0.775103 0
M  V30 10262 O 952.042 -1.60583 1.03042 0
M  V30 10263 C 949.182 -2.62945 2.23504 0
M  V30 10264 C 948.295 -2.52166 3.50766 0
M  V30 10265 C 947.43 -3.79316 3.71878 0
M  V30 10266 C 946.469 -3.63231 4.92676 0
M  V30 10267 N 945.606 -4.82315 5.10212 0
M  V30 10268 H 950.446 -0.96931 2.81795 0
M  V30 10269 H 947.983 -0.467331 1.39479 0
M  V30 10270 H 949.941 -3.41359 2.39854 0
M  V30 10271 H 948.571 -2.92397 1.36762 0
M  V30 10272 H 947.623 -1.65221 3.42646 0
M  V30 10273 H 948.935 -2.36199 4.39331 0
M  V30 10274 H 948.089 -4.66173 3.88288 0
M  V30 10275 H 946.828 -3.982 2.81581 0
M  V30 10276 H 945.833 -2.74757 4.76223 0
M  V30 10277 H 947.058 -3.45823 5.84451 0
M  V30 10278 H 945.004 -5.01526 4.22856 0
M  V30 10279 H 944.921 -4.6905 5.92898 0
M  V30 10280 H 946.189 -5.70618 5.31051 0
M  V30 10281 N 950.418 -1.49637 -0.494624 0
M  V30 10282 C 951.658 -1.61067 -1.25844 0
M  V30 10283 C 952.022 -0.293666 -1.89741 0
M  V30 10284 O 953.223 -0.283202 -2.67304 0
M  V30 10285 C 951.494 -2.74218 -2.29215 0
M  V30 10286 S 953.053 -3.05639 -3.1485 0
M  V30 10287 H 949.871 -0.568056 -0.42759 0
M  V30 10288 H 952.473 -1.87323 -0.559491 0
M  V30 10289 H 951.177 -3.68422 -1.80813 0
M  V30 10290 H 950.708 -2.49975 -3.0377 0
M  V30 10291 H 952.723 -2.47651 -4.29981 0
M  V30 10292 N 951.896 0.746133 -1.38819 0
M  V30 10293 C 953.144 1.50247 -1.35167 0
M  V30 10294 C 953.465 1.94921 0.0553531 0
M  V30 10295 O 952.735 1.68187 1.00449 0
M  V30 10296 H 951.315 0.557337 -0.497377 0
M  V30 10297 H 953.977 0.886472 -1.73573 0
M  V30 10298 H 953.073 2.38986 -2.00728 0
M  V30 10299 N 953.375 1.23811 0.975125 0
M  V30 10300 C 954.615 1.08517 1.73215 0
M  V30 10301 C 954.979 -0.370777 1.88386 0
M  V30 10302 O 956.18 -0.645036 2.60946 0
M  V30 10303 C 954.451 1.79649 3.08968 0
M  V30 10304 S 956.01 1.79993 4.00185 0
M  V30 10305 H 952.828 0.388256 0.595633 0
M  V30 10306 H 955.43 1.57028 1.16458 0
M  V30 10307 H 954.134 2.8471 2.95581 0
M  V30 10308 H 953.665 1.31441 3.70792 0
M  V30 10309 H 955.68 0.862294 4.8865 0
M  V30 10310 N 954.853 -1.17469 1.05066 0
M  V30 10311 C 956.083 -1.91343 0.779202 0
M  V30 10312 C 956.491 -1.76986 -0.668764 0
M  V30 10313 O 955.834 -1.1037 -1.46848 0
M  V30 10314 C 955.896 -3.42938 1.0786 0
M  V30 10315 C 955.56 -3.81076 2.52249 0
M  V30 10316 C 956.557 -3.84027 3.50456 0
M  V30 10317 C 954.242 -4.12076 2.87225 0
M  V30 10318 C 956.236 -4.17445 4.81683 0
M  V30 10319 C 953.923 -4.45163 4.18656 0
M  V30 10320 C 954.921 -4.47825 5.15696 0
M  V30 10321 O 954.609 -4.80133 6.44769 0
M  V30 10322 H 954.341 -0.613974 0.282863 0
M  V30 10323 H 956.895 -1.49907 1.40417 0
M  V30 10324 H 955.125 -3.84662 0.39653 0
M  V30 10325 H 956.814 -3.98071 0.793357 0
M  V30 10326 H 957.58 -3.60203 3.24775 0
M  V30 10327 H 953.459 -4.09176 2.12358 0
M  V30 10328 H 957.003 -4.19437 5.57421 0
M  V30 10329 H 952.9 -4.68449 4.44101 0
M  V30 10330 H 953.668 -4.97995 6.49571 0
M  V30 10331 N 956.331 -0.831506 -1.3388 0
M  V30 10332 C 957.241 -0.261688 -2.33136 0
M  V30 10333 C 958.257 0.608429 -1.63016 0
M  V30 10334 O 959.433 0.514297 -1.94723 0
M  V30 10335 C 956.498 0.559957 -3.42148 0
M  V30 10336 C 955.559 -0.333569 -4.28002 0
M  V30 10337 C 954.792 0.448956 -5.31808 0
M  V30 10338 O 955.015 1.6814 -5.45055 0
M  V30 10339 O 953.949 -0.173197 -6.01651 0
M  V30 10340 H 957.775 -1.08343 -2.83717 0
M  V30 10341 H 955.36 -0.593849 -1.3709 0
M  V30 10342 H 957.242 1.02712 -4.08691 0
M  V30 10343 H 955.917 1.35888 -2.93796 0
M  V30 10344 H 954.824 -0.848416 -3.64352 0
M  V30 10345 H 956.157 -1.09707 -4.79818 0
M  V30 10346 N 957.809 1.4625 -0.587256 0
M  V30 10347 C 958.742 2.27392 0.191837 0
M  V30 10348 C 959.72 1.35905 0.89267 0
M  V30 10349 O 960.904 1.65319 0.905643 0
M  V30 10350 C 958.031 3.13758 1.27567 0
M  V30 10351 C 957.077 4.21041 0.680186 0
M  V30 10352 S 957.91 5.33194 -0.496419 0
M  V30 10353 C 959.066 6.23127 0.588506 0
M  V30 10354 H 959.299 2.93123 -0.496635 0
M  V30 10355 H 956.832 1.49795 -0.37426 0
M  V30 10356 H 958.79 3.6408 1.8962 0
M  V30 10357 H 957.451 2.47332 1.93612 0
M  V30 10358 H 956.644 4.81316 1.49503 0
M  V30 10359 H 956.246 3.73755 0.135227 0
M  V30 10360 H 958.538 6.61294 1.47298 0
M  V30 10361 H 959.481 7.08096 0.0224093 0
M  V30 10362 H 959.889 5.57365 0.894696 0
M  V30 10363 N 959.287 0.325282 1.54207 0
M  V30 10364 C 960.219 -0.57395 2.21897 0
M  V30 10365 C 961.232 -1.0785 1.21952 0
M  V30 10366 O 962.421 -0.991782 1.48411 0
M  V30 10367 C 959.521 -1.8005 2.87115 0
M  V30 10368 C 958.694 -1.43435 4.13213 0
M  V30 10369 C 957.753 -2.51862 4.62009 0
M  V30 10370 O 956.779 -2.15934 5.26651 0
M  V30 10371 N 957.981 -3.8282 4.36382 0
M  V30 10372 H 960.746 0.00566918 2.99699 0
M  V30 10373 H 958.307 0.148563 1.61217 0
M  V30 10374 H 960.299 -2.51981 3.16682 0
M  V30 10375 H 958.869 -2.28792 2.13009 0
M  V30 10376 H 958.089 -0.546598 3.90392 0
M  V30 10377 H 959.377 -1.16544 4.95273 0
M  V30 10378 H 958.775 -4.14807 3.84645 0
M  V30 10379 H 957.332 -4.50976 4.70599 0
M  V30 10380 N 960.765 -1.57509 0.0534917 0
M  V30 10381 C 961.728 -2.10563 -0.905307 0
M  V30 10382 C 962.728 -1.02571 -1.23838 0
M  V30 10383 O 963.918 -1.28635 -1.17468 0
M  V30 10384 C 961.05 -2.5918 -2.21447 0
M  V30 10385 H 962.243 -2.96575 -0.445354 0
M  V30 10386 H 959.796 -1.55079 -0.194947 0
M  V30 10387 H 960.531 -1.76568 -2.72019 0
M  V30 10388 H 960.316 -3.38098 -1.98575 0
M  V30 10389 H 961.806 -3.00365 -2.90122 0
M  V30 10390 N 962.243 0.219913 -1.56058 0
M  V30 10391 C 963.175 1.29604 -1.89038 0
M  V30 10392 C 964.188 1.42964 -0.778791 0
M  V30 10393 O 965.377 1.43832 -1.0571 0
M  V30 10394 C 962.477 2.67145 -2.08534 0
M  V30 10395 C 961.65 2.75712 -3.39561 0
M  V30 10396 C 960.709 3.94279 -3.48469 0
M  V30 10397 O 959.735 3.8254 -4.21487 0
M  V30 10398 N 960.937 5.08655 -2.79732 0
M  V30 10399 H 963.702 1.01638 -2.81939 0
M  V30 10400 H 961.263 0.409945 -1.56624 0
M  V30 10401 H 963.255 3.44847 -2.11808 0
M  V30 10402 H 961.825 2.87704 -1.2225 0
M  V30 10403 H 961.045 1.84475 -3.48371 0
M  V30 10404 H 962.333 2.78407 -4.25872 0
M  V30 10405 H 961.731 5.21088 -2.2019 0
M  V30 10406 H 960.288 5.84394 -2.88665 0
M  V30 10407 N 963.721 1.49897 0.486681 0
M  V30 10408 C 964.97 1.59349 1.23656 0
M  V30 10409 C 965.283 0.292024 1.93408 0
M  V30 10410 O 966.489 0.265258 2.70201 0
M  V30 10411 C 964.945 2.81215 2.24602 0
M  V30 10412 C 964.553 4.18177 1.60725 0
M  V30 10413 C 966.297 3.00004 3.00329 0
M  V30 10414 C 964.204 5.31247 2.59866 0
M  V30 10415 H 963.134 0.593363 0.465227 0
M  V30 10416 H 965.785 1.76306 0.508769 0
M  V30 10417 H 964.167 2.57783 3.00606 0
M  V30 10418 H 965.341 4.51802 0.90616 0
M  V30 10419 H 963.656 4.04864 0.973362 0
M  V30 10420 H 966.253 3.81649 3.74497 0
M  V30 10421 H 966.596 2.1112 3.58795 0
M  V30 10422 H 967.129 3.23544 2.3144 0
M  V30 10423 H 963.868 6.22236 2.06161 0
M  V30 10424 H 963.388 5.02059 3.28172 0
M  V30 10425 H 965.067 5.61177 3.22009 0
M  V30 10426 N 965.199 -0.738761 1.39212 0
M  V30 10427 C 966.429 -1.5258 1.39295 0
M  V30 10428 C 966.837 -1.89194 -0.0153 0
M  V30 10429 O 966.18 -1.5435 -0.996073 0
M  V30 10430 C 966.242 -2.84462 2.19822 0
M  V30 10431 C 965.906 -2.70303 3.68491 0
M  V30 10432 C 966.903 -2.39102 4.61656 0
M  V30 10433 C 964.588 -2.87291 4.1203 0
M  V30 10434 C 966.582 -2.25066 5.96342 0
M  V30 10435 C 964.269 -2.72874 5.46793 0
M  V30 10436 C 965.267 -2.41807 6.38763 0
M  V30 10437 O 964.955 -2.27475 7.71045 0
M  V30 10438 H 964.687 -0.478236 0.477772 0
M  V30 10439 H 967.241 -0.920846 1.83602 0
M  V30 10440 H 965.471 -3.47202 1.70257 0
M  V30 10441 H 967.16 -3.46058 2.12129 0
M  V30 10442 H 967.926 -2.25632 4.2932 0
M  V30 10443 H 963.805 -3.10466 3.40781 0
M  V30 10444 H 967.349 -2.00739 6.68094 0
M  V30 10445 H 963.246 -2.85922 5.78722 0
M  V30 10446 H 964.014 -2.42574 7.81729 0
M  V30 10447 N 966.677 -1.24326 -0.968545 0
M  V30 10448 C 968.093 -1.00847 -1.23701 0
M  V30 10449 C 968.293 0.283235 -1.99499 0
M  V30 10450 O 967.349 0.999607 -2.31871 0
M  V30 10451 C 968.662 -2.22295 -2.02498 0
M  V30 10452 C 970.21 -2.26911 -2.15593 0
M  V30 10453 C 970.685 -3.47978 -2.97784 0
M  V30 10454 N 972.176 -3.48289 -3.05367 0
M  V30 10455 C 972.911 -4.38625 -3.69318 0
M  V30 10456 N 972.407 -5.39213 -4.34995 0
M  V30 10457 N 974.2 -4.26339 -3.66322 0
M  V30 10458 H 966.351 -2.07335 -0.461087 0
M  V30 10459 H 968.614 -0.909805 -0.26638 0
M  V30 10460 H 968.32 -3.161 -1.54188 0
M  V30 10461 H 968.194 -2.24344 -3.03232 0
M  V30 10462 H 970.581 -1.33639 -2.63106 0
M  V30 10463 H 970.662 -2.28888 -1.14209 0
M  V30 10464 H 970.306 -4.41564 -2.50965 0
M  V30 10465 H 970.236 -3.43244 -3.99364 0
M  V30 10466 H 972.727 -2.75517 -2.58648 0
M  V30 10467 H 973.04 -6.04378 -4.81608 0
M  V30 10468 H 971.385 -5.43101 -4.33667 0
M  V30 10469 H 974.576 -3.46991 -3.14189 0
M  V30 10470 H 974.749 -4.9694 -4.15878 0
M  V30 10471 N 968.156 1.1691 -1.05688 0
M  V30 10472 C 969.384 1.91204 -0.790485 0
M  V30 10473 C 969.799 1.77095 0.654434 0
M  V30 10474 O 969.156 1.11146 1.44751 0
M  V30 10475 C 969.207 3.42108 -1.16808 0
M  V30 10476 O 968.928 3.55788 -2.55629 0
M  V30 10477 C 970.429 4.33466 -0.92855 0
M  V30 10478 H 967.649 0.606508 -0.287035 0
M  V30 10479 H 970.193 1.48225 -1.40888 0
M  V30 10480 H 968.348 3.82814 -0.59434 0
M  V30 10481 H 968.762 4.49321 -2.70575 0
M  V30 10482 H 970.236 5.37836 -1.24245 0
M  V30 10483 H 970.713 4.38989 0.136016 0
M  V30 10484 H 971.319 3.98481 -1.48638 0
M  V30 10485 N 969.634 0.838594 1.33437 0
M  V30 10486 C 970.544 0.274048 2.32994 0
M  V30 10487 C 971.56 -0.599776 1.63336 0
M  V30 10488 O 972.736 -0.503963 1.94993 0
M  V30 10489 C 969.801 -0.541804 3.4244 0
M  V30 10490 C 968.862 0.356262 4.27819 0
M  V30 10491 C 968.095 -0.420747 5.32039 0
M  V30 10492 O 968.318 -1.65247 5.45939 0
M  V30 10493 O 967.252 0.205101 6.0155 0
M  V30 10494 H 971.078 1.09846 2.83139 0
M  V30 10495 H 968.663 0.601111 1.36774 0
M  V30 10496 H 970.545 -1.00544 4.0923 0
M  V30 10497 H 969.22 -1.34328 2.94513 0
M  V30 10498 H 968.127 0.867726 3.63897 0
M  V30 10499 H 969.46 1.1225 4.79229 0
M  V30 10500 N 971.112 -1.45937 0.595003 0
M  V30 10501 C 972.34 -2.06698 0.091293 0
M  V30 10502 C 972.755 -1.44176 -1.21897 0
M  V30 10503 O 972.112 -0.551402 -1.73971 0
M  V30 10504 C 972.163 -3.61436 -0.0681801 0
M  V30 10505 O 971.884 -4.21622 1.19023 0
M  V30 10506 C 973.385 -4.39155 -0.604814 0
M  V30 10507 H 970.605 -0.668029 0.0630737 0
M  V30 10508 H 973.149 -1.87376 0.819165 0
M  V30 10509 H 971.304 -3.80143 -0.746324 0
M  V30 10510 H 971.718 -5.14647 1.01187 0
M  V30 10511 H 973.192 -5.47973 -0.665532 0
M  V30 10512 H 973.669 -4.08055 -1.62444 0
M  V30 10513 H 974.275 -4.25282 0.0388658 0
M  V30 10514 N 972.59 -0.333456 -1.54032 0
M  V30 10515 C 973.815 0.270517 -2.05628 0
M  V30 10516 C 974.24 1.44231 -1.20744 0
M  V30 10517 O 973.598 1.79975 -0.218822 0
M  V30 10518 C 973.646 0.673251 -3.54259 0
M  V30 10519 O 972.75 1.77448 -3.72271 0
M  V30 10520 H 972.091 0.0469753 -0.662336 0
M  V30 10521 H 974.621 -0.484739 -1.98775 0
M  V30 10522 H 974.631 0.953194 -3.96709 0
M  V30 10523 H 973.306 -0.183747 -4.15494 0
M  V30 10524 H 971.883 1.49259 -3.41725 0
M  V30 10525 N 974.068 1.57479 -0.061844 0
M  V30 10526 C 975.293 1.97843 0.622311 0
M  V30 10527 C 975.718 0.939602 1.62951 0
M  V30 10528 O 975.076 -0.095958 1.81046 0
M  V30 10529 C 975.124 3.37262 1.2762 0
M  V30 10530 O 974.228 3.35943 2.39199 0
M  V30 10531 H 973.569 0.644212 0.160896 0
M  V30 10532 H 976.099 2.04165 -0.133409 0
M  V30 10533 H 976.109 3.74226 1.62539 0
M  V30 10534 H 974.784 4.12404 0.538112 0
M  V30 10535 H 973.361 3.10737 2.06148 0
M  V30 10536 N 975.546 -0.211634 1.56173 0
M  V30 10537 C 976.774 -0.951184 1.83739 0
M  V30 10538 C 977.189 -1.7754 0.642252 0
M  V30 10539 O 976.546 -1.78302 -0.389174 0
M  V30 10540 C 976.597 -1.86075 3.09933 0
M  V30 10541 O 976.318 -1.06983 4.24837 0
M  V30 10542 C 977.819 -2.71337 3.50559 0
M  V30 10543 H 975.039 -0.278312 0.61056 0
M  V30 10544 H 977.583 -0.223871 2.03271 0
M  V30 10545 H 975.738 -2.54189 2.92347 0
M  V30 10546 H 976.152 -1.68815 4.9659 0
M  V30 10547 H 977.626 -3.30843 4.41868 0
M  V30 10548 H 978.103 -3.44226 2.72773 0
M  V30 10549 H 978.709 -2.0862 3.70618 0
M  V30 10550 N 977.024 -1.50153 -0.478725 0
M  V30 10551 C 978.27 -1.60998 -1.23318 0
M  V30 10552 C 978.603 -0.305868 -1.91776 0
M  V30 10553 O 977.878 0.692158 -1.81767 0
M  V30 10554 C 978.161 -2.78495 -2.28282 0
M  V30 10555 C 978.014 -4.18767 -1.64178 0
M  V30 10556 C 979.333 -2.91569 -3.2966 0
M  V30 10557 H 976.452 -0.585983 -0.446982 0
M  V30 10558 H 979.094 -1.82514 -0.528063 0
M  V30 10559 H 977.244 -2.60281 -2.8842 0
M  V30 10560 H 978.916 -4.48552 -1.07696 0
M  V30 10561 H 977.159 -4.23379 -0.94514 0
M  V30 10562 H 977.83 -4.96894 -2.40417 0
M  V30 10563 H 980.306 -3.08219 -2.79536 0
M  V30 10564 H 979.182 -3.75419 -4.0044 0
M  V30 10565 H 979.443 -2.01859 -3.93326 0
M  V30 10566 N 978.502 0.731368 -1.39602 0
M  V30 10567 C 979.452 1.83662 -1.35101 0
M  V30 10568 C 980.436 1.5923 -0.231241 0
M  V30 10569 O 981.628 1.70671 -0.469072 0
M  V30 10570 C 978.757 3.21629 -1.20041 0
M  V30 10571 C 977.843 3.51878 -2.36733 0
M  V30 10572 N 978.234 3.53041 -3.6221 0
M  V30 10573 C 976.532 3.82259 -2.2977 0
M  V30 10574 C 977.233 3.81188 -4.39398 0
M  V30 10575 N 976.209 3.99145 -3.69031 0
M  V30 10576 H 980.011 1.82871 -2.30077 0
M  V30 10577 H 977.525 0.929777 -1.3315 0
M  V30 10578 H 979.522 4.00754 -1.14899 0
M  V30 10579 H 978.182 3.23656 -0.260184 0
M  V30 10580 H 979.193 3.34266 -3.95584 0
M  V30 10581 H 975.87 3.9187 -1.44029 0
M  V30 10582 H 977.26 3.88525 -5.48177 0
M  V30 10583 N 979.98 1.24838 0.961938 0
M  V30 10584 C 980.928 1.0436 2.07874 0
M  V30 10585 C 981.922 -0.0232531 1.69384 0
M  V30 10586 O 983.128 0.131773 1.79517 0
M  V30 10587 H 979.503 0.320492 0.680286 0
M  V30 10588 H 981.474 1.99055 2.22306 0
M  V30 10589 C 980.223 0.671246 3.41159 0
M  V30 10590 H 979.546 1.48395 3.7124 0
M  V30 10591 H 980.986 0.567608 4.20184 0
M  V30 10592 C 979.445 -0.622124 3.31106 0
M  V30 10593 O 979.975 -1.66627 3.65511 0
M  V30 10594 N 978.181 -0.605009 2.84232 0
M  V30 10595 H 977.728 0.245052 2.56432 0
M  V30 10596 H 977.686 -1.47056 2.77888 0
M  V30 10597 N 981.458 -1.16348 1.06306 0
M  V30 10598 C 982.686 -1.90782 0.800614 0
M  V30 10599 C 983.101 -1.77439 -0.645033 0
M  V30 10600 O 982.458 -1.11912 -1.4416 0
M  V30 10601 C 982.509 -3.41484 1.18621 0
M  V30 10602 O 982.23 -3.54428 2.57512 0
M  V30 10603 C 983.731 -4.32968 0.951525 0
M  V30 10604 H 980.951 -0.604977 0.290247 0
M  V30 10605 H 983.495 -1.47476 1.41672 0
M  V30 10606 H 981.65 -3.82493 0.614633 0
M  V30 10607 H 982.064 -4.4788 2.72954 0
M  V30 10608 H 983.538 -5.37169 1.27095 0
M  V30 10609 H 984.015 -4.39055 -0.112734 0
M  V30 10610 H 984.621 -3.97687 1.50749 0
M  V30 10611 N 982.937 -0.845659 -1.3299 0
M  V30 10612 C 983.887 -0.2557 -2.26562 0
M  V30 10613 C 984.871 0.593245 -1.49564 0
M  V30 10614 O 986.063 0.444101 -1.71338 0
M  V30 10615 C 983.192 0.562573 -3.38659 0
M  V30 10616 C 982.278 -0.298259 -4.2305 0
M  V30 10617 N 982.669 -1.38023 -4.86604 0
M  V30 10618 C 980.967 -0.0864539 -4.45916 0
M  V30 10619 C 981.668 -1.90907 -5.49481 0
M  V30 10620 N 980.644 -1.20955 -5.29973 0
M  V30 10621 H 984.446 -1.083 -2.73219 0
M  V30 10622 H 981.96 -0.690823 -1.46974 0
M  V30 10623 H 983.957 1.00157 -4.0469 0
M  V30 10624 H 982.617 1.38777 -2.93549 0
M  V30 10625 H 983.628 -1.76314 -4.86964 0
M  V30 10626 H 980.305 0.70475 -4.11509 0
M  V30 10627 H 981.695 -2.81552 -6.10064 0
M  V30 10628 N 984.415 1.45619 -0.602734 0
M  V30 10629 C 985.826 1.85814 -0.181636 0
M  V30 10630 C 986.177 1.5037 1.26029 0
M  V30 10631 O 985.302 0.928068 1.95489 0
M  V30 10632 C 985.897 3.37258 -0.322866 0
M  V30 10633 C 984.456 3.76375 0.043504 0
M  V30 10634 C 983.603 2.69585 -0.649561 0
M  V30 10635 H 986.554 1.36489 -0.809721 0
M  V30 10636 H 986.575 3.77874 0.446279 0
M  V30 10637 H 986.087 3.63024 -1.37241 0
M  V30 10638 H 984.188 3.56226 1.09241 0
M  V30 10639 H 984.301 4.77843 -0.346765 0
M  V30 10640 H 982.665 2.54549 -0.087706 0
M  V30 10641 H 983.448 2.98188 -1.70115 0
M  V30 10642 N 985.893 0.34162 1.53853 0
M  V30 10643 C 987.309 -0.0103769 1.59597 0
M  V30 10644 C 987.509 -1.48897 1.35764 0
M  V30 10645 O 986.565 -2.24743 1.15095 0
M  V30 10646 C 987.878 0.424067 2.97695 0
M  V30 10647 C 989.426 0.376247 3.1073 0
M  V30 10648 C 989.901 0.786129 4.51203 0
M  V30 10649 N 991.392 0.74024 4.57247 0
M  V30 10650 C 992.127 1.02937 5.64085 0
M  V30 10651 N 991.623 1.38655 6.78783 0
M  V30 10652 N 993.416 0.953734 5.5395 0
M  V30 10653 H 985.567 1.30477 1.67599 0
M  V30 10654 H 987.83 0.531753 0.78482 0
M  V30 10655 H 987.536 1.45493 3.20195 0
M  V30 10656 H 987.41 -0.201713 3.7666 0
M  V30 10657 H 989.797 -0.645441 2.87955 0
M  V30 10658 H 989.878 1.0372 2.33828 0
M  V30 10659 H 989.522 1.80582 4.74713 0
M  V30 10660 H 989.452 0.102671 5.265 0
M  V30 10661 H 991.943 0.476763 3.7488 0
M  V30 10662 H 992.256 1.59206 7.56223 0
M  V30 10663 H 990.601 1.42498 6.80235 0
M  V30 10664 H 993.792 0.674044 4.63222 0
M  V30 10665 H 993.965 1.18241 6.37121 0
M  V30 10666 N 987.371 -1.57444 0.0701946 0
M  V30 10667 C 988.319 -2.13834 -0.915302 0
M  V30 10668 C 989.313 -1.07483 -1.30934 0
M  V30 10669 O 990.519 -1.25865 -1.28678 0
M  V30 10670 H 986.894 -0.683716 -0.313108 0
M  V30 10671 H 988.865 -2.95503 -0.414758 0
M  V30 10672 C 987.614 -2.71355 -2.17398 0
M  V30 10673 H 986.937 -3.52861 -1.87961 0
M  V30 10674 H 988.377 -3.1441 -2.84469 0
M  V30 10675 C 986.836 -1.66038 -2.93143 0
M  V30 10676 O 987.366 -1.08443 -3.86786 0
M  V30 10677 N 985.572 -1.3711 -2.56221 0
M  V30 10678 H 985.119 -1.84135 -1.80145 0
M  V30 10679 H 985.077 -0.66877 -3.07205 0
M  V30 10680 N 988.849 0.203349 -1.56283 0
M  V30 10681 C 990.097 0.923183 -1.79782 0
M  V30 10682 C 990.418 1.84134 -0.64185 0
M  V30 10683 O 989.688 1.92922 0.340292 0
M  V30 10684 H 988.268 0.343881 -0.66314 0
M  V30 10685 H 990.93 0.210837 -1.93756 0
M  V30 10686 H 990.026 1.51921 -2.72629 0
M  V30 10687 N 990.327 1.50405 0.470755 0
M  V30 10688 C 991.277 1.65681 1.56633 0
M  V30 10689 C 992.261 0.511424 1.52556 0
M  V30 10690 O 993.453 0.765844 1.59574 0
M  V30 10691 C 990.582 1.7546 2.95074 0
M  V30 10692 C 989.668 2.95676 3.04034 0
M  V30 10693 N 990.059 4.1935 2.82807 0
M  V30 10694 C 988.357 2.94241 3.35169 0
M  V30 10695 C 989.058 5.0032 2.96741 0
M  V30 10696 N 988.034 4.34282 3.26956 0
M  V30 10697 H 991.836 2.58994 1.38922 0
M  V30 10698 H 989.35 1.47593 0.67749 0
M  V30 10699 H 991.347 1.84508 3.73848 0
M  V30 10700 H 990.007 0.833057 3.13832 0
M  V30 10701 H 991.018 4.48842 2.58382 0
M  V30 10702 H 987.695 2.11587 3.59913 0
M  V30 10703 H 989.085 6.08664 2.84566 0
M  V30 10704 N 991.805 -0.723954 1.39988 0
M  V30 10705 C 993.045 -1.49624 1.39255 0
M  V30 10706 C 993.409 -1.91998 -0.00860198 0
M  V30 10707 O 994.61 -2.6843 -0.141002 0
M  V30 10708 C 992.881 -2.69514 2.34728 0
M  V30 10709 S 994.44 -3.59027 2.5228 0
M  V30 10710 H 991.258 -0.511661 0.493685 0
M  V30 10711 H 993.86 -0.847322 1.76184 0
M  V30 10712 H 992.564 -2.36541 3.35375 0
M  V30 10713 H 992.095 -3.39325 1.99053 0
M  V30 10714 H 994.11 -4.63597 1.76896 0
M  V30 10715 N 993.283 -1.25346 -0.955304 0
M  V30 10716 C 994.508 -1.12892 -1.73983 0
M  V30 10717 C 994.933 0.313455 -1.8547 0
M  V30 10718 O 994.291 1.22706 -1.33465 0
M  V30 10719 C 994.339 -1.78729 -3.1319 0
M  V30 10720 O 993.443 -1.06648 -3.98372 0
M  V30 10721 H 992.784 -0.394178 -0.534341 0
M  V30 10722 H 995.314 -1.65897 -1.19747 0
M  V30 10723 H 995.324 -1.84987 -3.63653 0
M  V30 10724 H 993.999 -2.83669 -3.04146 0
M  V30 10725 H 992.576 -1.08266 -3.56837 0
M  V30 10726 N 994.761 1.15782 -1.06922 0
M  V30 10727 C 995.986 1.90896 -0.810771 0
M  V30 10728 C 996.411 1.77246 0.629714 0
M  V30 10729 O 995.769 1.10215 1.43953 0
M  V30 10730 C 995.817 3.39397 -1.21829 0
M  V30 10731 O 994.921 4.10818 -0.360934 0
M  V30 10732 H 994.262 0.594497 -0.295752 0
M  V30 10733 H 996.792 1.46652 -1.42669 0
M  V30 10734 H 996.802 3.90181 -1.19259 0
M  V30 10735 H 995.477 3.4865 -2.2675 0
M  V30 10736 H 994.054 3.7019 -0.448748 0
M  V30 10737 N 996.239 0.8527 1.3254 0
M  V30 10738 C 997.202 0.300959 2.27215 0
M  V30 10739 C 998.202 -0.538235 1.51525 0
M  V30 10740 O 999.392 -0.350027 1.70647 0
M  V30 10741 C 996.524 -0.574428 3.36025 0
M  V30 10742 H 997.717 1.13655 2.77529 0
M  V30 10743 H 995.27 0.626878 1.43178 0
M  V30 10744 H 996.005 -1.43191 2.90976 0
M  V30 10745 H 995.79 0.0262265 3.92091 0
M  V30 10746 H 997.28 -0.9533 4.06573 0
M  V30 10747 N 997.718 -1.45297 0.610449 0
M  V30 10748 C 999.129 -1.85715 0.191488 0
M  V30 10749 C 999.48 -1.51036 -1.25229 0
M  V30 10750 O 998.605 -0.938422 -1.94994 0
M  V30 10751 C 999.2 -3.37082 0.340747 0
M  V30 10752 C 997.759 -3.76393 -0.0235433 0
M  V30 10753 C 996.906 -2.69237 0.663849 0
M  V30 10754 H 999.857 -1.36058 0.816948 0
M  V30 10755 H 999.878 -3.78105 -0.426233 0
M  V30 10756 H 999.39 -3.62291 1.39164 0
M  V30 10757 H 997.491 -3.56801 -1.07351 0
M  V30 10758 H 997.604 -4.77653 0.372102 0
M  V30 10759 H 995.968 -2.54499 0.101204 0
M  V30 10760 H 996.751 -2.97281 1.71694 0
M  V30 10761 N 999.196 -0.349774 -1.5367 0
M  V30 10762 C 1000.61 0.00191293 -1.596 0
M  V30 10763 C 1000.81 1.48175 -1.36552 0
M  V30 10764 O 999.868 2.24129 -1.16285 0
M  V30 10765 C 1001.18 -0.439848 -2.97466 0
M  V30 10766 C 1002.73 -0.392721 -3.10526 0
M  V30 10767 C 1003.2 -0.810047 -4.5078 0
M  V30 10768 N 1004.69 -0.764478 -4.56848 0
M  V30 10769 C 1005.43 -1.05927 -5.63531 0
M  V30 10770 N 1004.93 -1.42253 -6.78038 0
M  V30 10771 N 1006.72 -0.983098 -5.53436 0
M  V30 10772 H 998.87 -1.31364 -1.66905 0
M  V30 10773 H 1001.13 -0.535908 -0.781989 0
M  V30 10774 H 1000.84 -1.47189 -3.19419 0
M  V30 10775 H 1000.71 0.181735 -3.76762 0
M  V30 10776 H 1003.1 0.630161 -2.88293 0
M  V30 10777 H 1003.18 -1.04959 -2.33275 0
M  V30 10778 H 1002.82 -1.83097 -4.73749 0
M  V30 10779 H 1002.75 -0.130591 -5.26438 0
M  V30 10780 H 1005.25 -0.496637 -3.74622 0
M  V30 10781 H 1005.56 -1.63215 -7.55368 0
M  V30 10782 H 1003.9 -1.46104 -6.79469 0
M  V30 10783 H 1007.09 -0.698601 -4.62858 0
M  V30 10784 H 1007.27 -1.21618 -6.36485 0
M  V30 10785 N 1000.67 1.57404 -0.0785433 0
M  V30 10786 C 1001.92 1.94031 0.589896 0
M  V30 10787 C 1002.25 0.959297 1.68852 0
M  V30 10788 O 1001.53 -0.0103978 1.94497 0
M  V30 10789 C 1001.81 3.40886 1.16055 0
M  V30 10790 C 1001.66 4.49748 0.0681072 0
M  V30 10791 C 1002.98 3.88699 2.06401 0
M  V30 10792 H 1000.1 0.70556 0.212965 0
M  V30 10793 H 1002.74 1.89439 -0.145886 0
M  V30 10794 H 1000.89 3.4493 1.78761 0
M  V30 10795 H 1002.57 4.57823 -0.565318 0
M  V30 10796 H 1000.81 4.29625 -0.600431 0
M  V30 10797 H 1001.48 5.49658 0.507906 0
M  V30 10798 H 1003.96 3.86703 1.53622 0
M  V30 10799 H 1002.83 4.92052 2.43261 0
M  V30 10800 H 1003.09 3.2703 2.97496 0
M  V30 10801 N 1002.15 -0.195058 1.56388 0
M  V30 10802 C 1003.38 -0.931642 1.84738 0
M  V30 10803 C 1003.79 -1.76849 0.661046 0
M  V30 10804 O 1003.15 -1.78705 -0.370241 0
M  V30 10805 C 1003.2 -1.82777 3.11889 0
M  V30 10806 O 1002.92 -1.02471 4.25948 0
M  V30 10807 C 1004.42 -2.67603 3.53417 0
M  V30 10808 H 1001.64 -0.271821 0.613477 0
M  V30 10809 H 1004.19 -0.202299 2.03497 0
M  V30 10810 H 1002.34 -2.51074 2.95027 0
M  V30 10811 H 1002.76 -1.63539 4.98353 0
M  V30 10812 H 1004.23 -3.26138 4.45352 0
M  V30 10813 H 1004.71 -3.41314 2.76408 0
M  V30 10814 H 1005.31 -2.04678 3.7281 0
M  V30 10815 N 1003.63 -1.50653 -0.462772 0
M  V30 10816 C 1004.58 -1.70661 -1.58043 0
M  V30 10817 C 1005.57 -0.572533 -1.59432 0
M  V30 10818 O 1006.78 -0.753257 -1.63481 0
M  V30 10819 H 1003.15 -0.538805 -0.524588 0
M  V30 10820 H 1005.12 -2.64399 -1.38332 0
M  V30 10821 C 1003.87 -1.82558 -2.95919 0
M  V30 10822 H 1003.2 -2.69216 -2.95572 0
M  V30 10823 H 1004.64 -2.0058 -3.73556 0
M  V30 10824 C 1003.09 -0.57916 -3.31885 0
M  V30 10825 O 1003.62 0.277888 -4.00738 0
M  V30 10826 N 1001.83 -0.430723 -2.8739 0
M  V30 10827 H 1001.38 -1.1292 -2.31531 0
M  V30 10828 H 1001.34 0.402061 -3.11819 0
M  V30 10829 N 1005.11 0.71652 -1.4037 0
M  V30 10830 C 1006.36 1.47347 -1.38324 0
M  V30 10831 C 1006.68 1.94995 0.0139949 0
M  V30 10832 O 1005.95 1.7028 0.968585 0
M  V30 10833 H 1004.53 0.546662 -0.509087 0
M  V30 10834 H 1007.19 0.849455 -1.75415 0
M  V30 10835 H 1006.29 2.34675 -2.05752 0
M  V30 10836 N 1006.59 1.25851 0.948643 0
M  V30 10837 C 1007.81 1.13813 1.73382 0
M  V30 10838 C 1008.24 -0.303615 1.85633 0
M  V30 10839 O 1007.59 -1.21997 1.34114 0
M  V30 10840 C 1007.64 1.80388 3.12238 0
M  V30 10841 O 1006.75 1.08759 3.978 0
M  V30 10842 H 1006.09 0.397006 0.532243 0
M  V30 10843 H 1008.62 1.66529 1.18866 0
M  V30 10844 H 1008.63 1.86913 3.62667 0
M  V30 10845 H 1007.3 2.85278 3.02637 0
M  V30 10846 H 1005.88 1.10157 3.56258 0
M  V30 10847 N 1008.06 -1.15214 1.07534 0
M  V30 10848 C 1009.29 -1.89922 0.820804 0
M  V30 10849 C 1009.71 -1.78114 -0.626177 0
M  V30 10850 O 1009.06 -1.13435 -1.42964 0
M  V30 10851 C 1009.12 -3.40207 1.22236 0
M  V30 10852 O 1008.84 -3.51676 2.61257 0
M  V30 10853 C 1010.34 -4.31934 0.997393 0
M  V30 10854 H 1007.56 -0.601865 0.296647 0
M  V30 10855 H 1010.1 -1.45965 1.43229 0
M  V30 10856 H 1008.26 -3.8182 0.655167 0
M  V30 10857 H 1008.67 -4.44959 2.77689 0
M  V30 10858 H 1010.14 -5.35791 1.32785 0
M  V30 10859 H 1010.62 -4.3915 -0.0661599 0
M  V30 10860 H 1011.23 -3.96066 1.54958 0
M  V30 10861 N 1009.54 -0.859717 -1.32086 0
M  V30 10862 C 1010.77 -0.479028 -2.0097 0
M  V30 10863 C 1011.18 0.930242 -1.64752 0
M  V30 10864 O 1010.52 1.6193 -0.867437 0
M  V30 10865 C 1010.59 -0.54431 -3.55355 0
M  V30 10866 C 1010.25 -1.91337 -4.15017 0
M  V30 10867 C 1011.25 -2.87951 -4.32874 0
M  V30 10868 C 1008.93 -2.21189 -4.50977 0
M  V30 10869 C 1010.93 -4.12567 -4.85867 0
M  V30 10870 C 1008.61 -3.46057 -5.03674 0
M  V30 10871 C 1009.61 -4.41562 -5.21068 0
M  V30 10872 O 1009.3 -5.64218 -5.72637 0
M  V30 10873 H 1009.03 -0.186161 -0.649861 0
M  V30 10874 H 1011.58 -1.15976 -1.69525 0
M  V30 10875 H 1009.81 0.1933 -3.86217 0
M  V30 10876 H 1011.5 -0.178506 -4.05507 0
M  V30 10877 H 1012.27 -2.66194 -4.05421 0
M  V30 10878 H 1008.15 -1.47635 -4.36721 0
M  V30 10879 H 1011.69 -4.8712 -4.99359 0
M  V30 10880 H 1007.59 -3.67662 -5.30561 0
M  V30 10881 H 1008.36 -5.66246 -5.91023 0
M  V30 10882 N 1011.02 1.44971 -0.618145 0
M  V30 10883 C 1012.27 2.01372 -0.115004 0
M  V30 10884 C 1012.58 1.49104 1.26599 0
M  V30 10885 O 1013.79 1.97549 1.86244 0
M  V30 10886 C 1012.24 3.59567 -0.154883 0
M  V30 10887 C 1011.85 4.20832 -1.53639 0
M  V30 10888 C 1013.6 4.23491 0.292468 0
M  V30 10889 C 1011.5 5.7121 -1.53208 0
M  V30 10890 H 1010.43 0.752979 -0.0392267 0
M  V30 10891 H 1013.08 1.66329 -0.775032 0
M  V30 10892 H 1011.47 3.91847 0.572001 0
M  V30 10893 H 1012.64 4.00109 -2.28582 0
M  V30 10894 H 1010.96 3.69143 -1.92672 0
M  V30 10895 H 1013.55 5.33771 0.315032 0
M  V30 10896 H 1013.9 3.9491 1.31725 0
M  V30 10897 H 1014.43 3.95967 -0.381493 0
M  V30 10898 H 1011.17 6.04506 -2.53481 0
M  V30 10899 H 1010.69 5.94094 -0.825387 0
M  V30 10900 H 1012.37 6.34606 -1.26032 0
M  V30 10901 N 1012.5 0.357919 1.53482 0
M  V30 10902 C 1013.43 -0.484231 2.28424 0
M  V30 10903 C 1014.41 -1.09046 1.30548 0
M  V30 10904 O 1015.59 -1.10916 1.59409 0
M  V30 10905 C 1012.72 -1.62803 3.06778 0
M  V30 10906 C 1011.68 -1.14943 4.12277 0
M  V30 10907 C 1011 -2.38287 4.78669 0
M  V30 10908 C 1012.3 -0.239627 5.2175 0
M  V30 10909 H 1014 0.140979 2.99068 0
M  V30 10910 H 1011.54 0.069244 1.43833 0
M  V30 10911 H 1013.5 -2.22374 3.57949 0
M  V30 10912 H 1012.22 -2.28036 2.3381 0
M  V30 10913 H 1010.88 -0.576442 3.6204 0
M  V30 10914 H 1010.53 -3.01959 4.02281 0
M  V30 10915 H 1010.23 -2.06939 5.49955 0
M  V30 10916 H 1011.75 -2.98558 5.32631 0
M  V30 10917 H 1013.17 -0.742597 5.6847 0
M  V30 10918 H 1011.56 -0.0173747 6.00097 0
M  V30 10919 H 1012.63 0.720333 4.7952 0
M  V30 10920 N 1013.98 -1.5736 0.0868897 0
M  V30 10921 C 1015.22 -1.94341 -0.579598 0
M  V30 10922 C 1015.56 -0.968238 -1.68341 0
M  V30 10923 O 1014.83 8.29649e-05 -1.945 0
M  V30 10924 C 1015.11 -3.41497 -1.14245 0
M  V30 10925 C 1014.97 -4.49778 -0.044255 0
M  V30 10926 C 1016.29 -3.89788 -2.04336 0
M  V30 10927 H 1013.4 -0.70668 -0.20922 0
M  V30 10928 H 1016.05 -1.89359 0.15593 0
M  V30 10929 H 1014.2 -3.45873 -1.76929 0
M  V30 10930 H 1015.87 -4.57517 0.58959 0
M  V30 10931 H 1014.11 -4.293 0.623207 0
M  V30 10932 H 1014.78 -5.4992 -0.478749 0
M  V30 10933 H 1017.26 -3.87513 -1.51569 0
M  V30 10934 H 1016.13 -4.93335 -2.40648 0
M  V30 10935 H 1016.4 -3.28603 -2.95757 0
M  V30 10936 N 1015.45 0.186762 -1.56489 0
M  V30 10937 C 1016.87 0.750675 -1.70944 0
M  V30 10938 C 1017.22 1.83483 -0.694858 0
M  V30 10939 O 1016.34 2.159 0.147009 0
M  V30 10940 C 1016.94 1.36843 -3.09934 0
M  V30 10941 C 1015.5 1.87934 -3.26125 0
M  V30 10942 C 1014.64 0.75242 -2.66897 0
M  V30 10943 H 1017.59 -0.0384292 -1.58653 0
M  V30 10944 H 1017.61 2.23795 -3.07727 0
M  V30 10945 H 1017.13 0.579135 -3.83755 0
M  V30 10946 H 1015.23 2.69556 -2.57235 0
M  V30 10947 H 1015.34 2.0354 -4.33715 0
M  V30 10948 H 1013.7 1.16888 -2.26295 0
M  V30 10949 H 1014.49 -0.0247769 -3.43291 0
M  V30 10950 N 1016.93 1.50896 0.454776 0
M  V30 10951 C 1017.86 1.73885 1.5584 0
M  V30 10952 C 1018.84 0.588172 1.59607 0
M  V30 10953 O 1020.03 0.829054 1.75614 0
M  V30 10954 C 1017.16 1.84796 2.94054 0
M  V30 10955 C 1016.11 3.00111 3.05152 0
M  V30 10956 C 1015.44 2.96183 4.45174 0
M  V30 10957 C 1016.74 4.40365 2.80849 0
M  V30 10958 H 1018.43 2.66292 1.36854 0
M  V30 10959 H 1015.98 1.28142 0.656936 0
M  V30 10960 H 1017.93 1.99462 3.71204 0
M  V30 10961 H 1016.66 0.890235 3.14233 0
M  V30 10962 H 1015.31 2.85121 2.30438 0
M  V30 10963 H 1014.96 1.98224 4.62295 0
M  V30 10964 H 1014.66 3.73608 4.53532 0
M  V30 10965 H 1016.19 3.1292 5.24322 0
M  V30 10966 H 1017.6 4.55795 3.47741 0
M  V30 10967 H 1016 5.19363 3.00636 0
M  V30 10968 H 1017.07 4.51606 1.76579 0
M  V30 10969 N 1018.41 -0.709066 1.40748 0
M  V30 10970 C 1019.64 -1.50313 1.42901 0
M  V30 10971 C 1020.06 -1.88072 0.032213 0
M  V30 10972 O 1019.42 -1.53716 -0.96131 0
M  V30 10973 C 1019.47 -2.75074 2.33166 0
M  V30 10974 O 1018.57 -3.72036 1.7794 0
M  V30 10975 H 1017.91 -0.452934 0.485538 0
M  V30 10976 H 1020.44 -0.872712 1.85054 0
M  V30 10977 H 1020.45 -3.23532 2.48578 0
M  V30 10978 H 1019.13 -2.46927 3.34664 0
M  V30 10979 H 1017.7 -3.30911 1.71908 0
M  V30 10980 N 1019.89 -1.26353 -0.941956 0
M  V30 10981 C 1020.84 -1.04513 -2.02635 0
M  V30 10982 C 1021.82 0.0222314 -1.60885 0
M  V30 10983 O 1023.02 -0.194629 -1.75927 0
M  V30 10984 C 1020.14 -0.679282 -3.36512 0
M  V30 10985 C 1019.23 -1.78406 -3.8475 0
M  V30 10986 N 1019.62 -3.02136 -4.05645 0
M  V30 10987 C 1017.92 -1.66748 -4.13656 0
M  V30 10988 C 1018.62 -3.73932 -4.45589 0
M  V30 10989 N 1017.6 -3.01616 -4.52248 0
M  V30 10990 H 1021.4 -1.9843 -2.16801 0
M  V30 10991 H 1018.91 -1.16858 -1.12774 0
M  V30 10992 H 1020.91 -0.503975 -4.13843 0
M  V30 10993 H 1019.57 0.252418 -3.23717 0
M  V30 10994 H 1020.58 -3.38049 -3.92356 0
M  V30 10995 H 1017.26 -0.805627 -4.09653 0
M  V30 10996 H 1018.65 -4.80201 -4.69954 0
M  V30 10997 N 1021.37 1.14642 -1.08144 0
M  V30 10998 C 1022.3 2.21775 -0.730609 0
M  V30 10999 C 1023.28 1.67683 0.285702 0
M  V30 11000 O 1024.46 1.93567 0.156667 0
M  V30 11001 C 1021.59 3.47033 -0.136242 0
M  V30 11002 C 1020.55 4.14134 -1.0806 0
M  V30 11003 C 1019.87 5.33563 -0.348585 0
M  V30 11004 C 1021.17 4.62978 -2.41761 0
M  V30 11005 H 1022.87 2.51378 -1.62633 0
M  V30 11006 H 1020.41 1.20825 -0.783411 0
M  V30 11007 H 1022.37 4.21226 0.121182 0
M  V30 11008 H 1021.09 3.16786 0.7946 0
M  V30 11009 H 1019.75 3.41892 -1.32308 0
M  V30 11010 H 1019.4 4.99575 0.585974 0
M  V30 11011 H 1019.1 5.79402 -0.978122 0
M  V30 11012 H 1020.62 6.10519 -0.0991508 0
M  V30 11013 H 1022.04 5.28659 -2.21795 0
M  V30 11014 H 1020.43 5.1951 -3.00383 0
M  V30 11015 H 1021.5 3.78189 -3.03482 0
M  V30 11016 N 1022.85 0.866709 1.31628 0
M  V30 11017 C 1023.81 0.325041 2.26883 0
M  V30 11018 C 1024.81 -0.522133 1.52087 0
M  V30 11019 O 1026 -0.331908 1.71009 0
M  V30 11020 C 1023.13 -0.538756 3.36616 0
M  V30 11021 H 1024.32 1.16592 2.76308 0
M  V30 11022 H 1021.88 0.642029 1.42505 0
M  V30 11023 H 1022.61 -1.40096 2.92478 0
M  V30 11024 H 1022.4 0.0678115 3.92041 0
M  V30 11025 H 1023.89 -0.910123 4.07562 0
M  V30 11026 N 1024.32 -1.44642 0.625825 0
M  V30 11027 C 1025.26 -2.28882 -0.120614 0
M  V30 11028 C 1026.27 -1.40985 -0.81407 0
M  V30 11029 O 1027.46 -1.65188 -0.676404 0
M  V30 11030 C 1024.56 -3.17217 -1.19274 0
M  V30 11031 C 1023.73 -4.33499 -0.582839 0
M  V30 11032 C 1022.79 -5.02908 -1.54823 0
M  V30 11033 O 1021.82 -5.59102 -1.06743 0
M  V30 11034 N 1023.02 -5.0387 -2.88262 0
M  V30 11035 H 1025.78 -2.93585 0.602318 0
M  V30 11036 H 1023.34 -1.5503 0.466604 0
M  V30 11037 H 1025.34 -3.60515 -1.83878 0
M  V30 11038 H 1023.91 -2.54301 -1.81797 0
M  V30 11039 H 1023.13 -3.93458 0.241696 0
M  V30 11040 H 1024.41 -5.08561 -0.155914 0
M  V30 11041 H 1023.81 -4.59539 -3.2991 0
M  V30 11042 H 1022.37 -5.50974 -3.4824 0
M  V30 11043 N 1025.8 -0.366053 -1.5329 0
M  V30 11044 C 1026.75 0.495319 -2.27265 0
M  V30 11045 C 1027.74 1.08298 -1.30261 0
M  V30 11046 O 1028.95 1.02613 -1.47887 0
M  V30 11047 H 1025.32 0.178454 -0.730519 0
M  V30 11048 H 1027.3 -0.150354 -2.98021 0
M  V30 11049 C 1026.04 1.62283 -3.07505 0
M  V30 11050 H 1025.37 1.17993 -3.81992 0
M  V30 11051 H 1026.81 2.20024 -3.62444 0
M  V30 11052 C 1025.27 2.56542 -2.18375 0
M  V30 11053 O 1025.8 3.59371 -1.79486 0
M  V30 11054 N 1024 2.25742 -1.82999 0
M  V30 11055 H 1023.55 1.42159 -2.14822 0
M  V30 11056 H 1023.51 2.89064 -1.2365 0
M  V30 11057 O 1027.32 1.59777 -0.23528 0
M  V30 11058 H 1028.01 1.90647 0.342579 0
M  V30 END ATOM
M  V30 BEGIN BOND
M  V30 END BOND
M  V30 END CTAB
M  END
$$$$
