drugbank_target|Q9BY32 Inosine triphosphate pyrophosphatase (DB04272)
 OpenBabel12092120533D

  0  0  0     0  0            999 V3000
M  V30 BEGIN CTAB
M  V30 COUNTS 3013 3048 0 0 0
M  V30 BEGIN ATOM
M  V30 1 H -0.908 1.98254 -0.117106 0
M  V30 2 N 0 1.576 0 0
M  V30 3 C 0.933 2.03868 1.02534 0
M  V30 4 C 1.911 0.928543 1.3348 0
M  V30 5 O 3.095 1.19667 1.45644 0
M  V30 6 C 0.222 2.43627 2.35294 0
M  V30 7 C -0.732 3.65373 2.2001 0
M  V30 8 S 0.101 5.13292 1.52614 0
M  V30 9 C 1.257 5.56322 2.86805 0
M  V30 10 H 1.49 2.90518 0.631377 0
M  V30 11 H -0.977 1.52953 0.210867 0
M  V30 12 H 0.981 2.67203 3.11629 0
M  V30 13 H -0.358 1.57376 2.7183 0
M  V30 14 H -1.165 3.90944 3.18086 0
M  V30 15 H -1.563 3.418 1.51819 0
M  V30 16 H 0.729 5.58782 3.83104 0
M  V30 17 H 1.672 6.56266 2.65933 0
M  V30 18 H 2.08 4.83886 2.90714 0
M  V30 19 N 1.4781 -0.272755 1.55222 0
M  V30 20 C 2.4411 -1.32041 1.87344 0
M  V30 21 C 3.4411 -1.42342 0.74803 0
M  V30 22 O 4.6311 -1.41488 1.0162 0
M  V30 23 C 1.7631 -2.70173 2.07893 0
M  V30 24 H 2.9561 -1.04789 2.80997 0
M  V30 25 H 0.5091 -0.51083 1.47717 0
M  V30 26 H 1.2441 -3.02605 1.16622 0
M  V30 27 H 1.0291 -2.64082 2.89833 0
M  V30 28 H 2.5191 -3.45869 2.34017 0
M  V30 29 N 2.9562 -1.48159 -0.537278 0
M  V30 30 C 3.9192 -1.61665 -1.62472 0
M  V30 31 C 4.9192 -0.490395 -1.5314 0
M  V30 32 O 6.1092 -0.755998 -1.5694 0
M  V30 33 C 3.2412 -1.57997 -3.02076 0
M  V30 34 H 4.4342 -2.58621 -1.51839 0
M  V30 35 H 1.9872 -1.36647 -0.758771 0
M  V30 36 H 2.7222 -0.624913 -3.18222 0
M  V30 37 H 2.5072 -2.39755 -3.10258 0
M  V30 38 H 3.9972 -1.70627 -3.81151 0
M  V30 39 N 4.4343 0.785586 -1.36625 0
M  V30 40 C 5.6593 1.57963 -1.34397 0
M  V30 41 C 6.0843 1.87964 0.071526 0
M  V30 42 O 5.4423 1.48182 1.0446 0
M  V30 43 C 5.4903 2.87511 -2.17646 0
M  V30 44 O 4.5943 3.81281 -1.57158 0
M  V30 45 H 3.9353 0.479014 -0.459828 0
M  V30 46 H 6.4653 0.973411 -1.79961 0
M  V30 47 H 6.4753 3.36745 -2.30362 0
M  V30 48 H 5.1503 2.65002 -3.20541 0
M  V30 49 H 3.7273 3.39885 -1.53403 0
M  V30 50 N 5.9124 1.20967 1.01018 0
M  V30 51 C 6.8424 0.988272 2.11555 0
M  V30 52 C 7.8234 -0.0849778 1.69888 0
M  V30 53 O 9.0084 0.0738202 1.9406 0
M  V30 54 C 6.1384 0.546528 3.42973 0
M  V30 55 C 5.0924 1.56375 3.9841 0
M  V30 56 C 4.4184 0.97842 5.25672 0
M  V30 57 C 5.7184 2.94922 4.31066 0
M  V30 58 H 7.4124 1.91276 2.30334 0
M  V30 59 H 4.9584 0.921073 1.1069 0
M  V30 60 H 6.9114 0.378839 4.19694 0
M  V30 61 H 5.6354 -0.413598 3.23971 0
M  V30 62 H 4.2944 1.71891 3.23804 0
M  V30 63 H 3.9424 0.0101688 5.02999 0
M  V30 64 H 3.6424 1.65784 5.63728 0
M  V30 65 H 5.1664 0.821939 6.05043 0
M  V30 66 H 6.5804 2.8288 4.9865 0
M  V30 67 H 4.9774 3.5983 4.80253 0
M  V30 68 H 6.0474 3.4616 3.39561 0
M  V30 69 N 7.3905 -1.2043 1.01659 0
M  V30 70 C 8.6365 -1.90079 0.706963 0
M  V30 71 C 8.9695 -1.78648 -0.761474 0
M  V30 72 O 8.2445 -1.17069 -1.55323 0
M  V30 73 C 8.5275 -3.41469 1.14327 0
M  V30 74 C 8.3805 -3.61833 2.67201 0
M  V30 75 C 9.6995 -4.34261 0.714529 0
M  V30 76 H 6.8185 -0.690254 0.2583 0
M  V30 77 H 9.4605 -1.41826 1.26433 0
M  V30 78 H 7.6105 -3.82696 0.669056 0
M  V30 79 H 9.2825 -3.2986 3.22475 0
M  V30 80 H 7.5255 -3.05304 3.08175 0
M  V30 81 H 8.1965 -4.67955 2.92783 0
M  V30 82 H 10.6725 -4.00682 1.12221 0
M  V30 83 H 9.5485 -5.38806 1.04784 0
M  V30 84 H 9.8095 -4.40431 -0.383799 0
M  V30 85 N 8.8686 -0.792821 -1.36206 0
M  V30 86 C 10.1166 -0.366062 -1.98757 0
M  V30 87 C 10.4376 1.0668 -1.63231 0
M  V30 88 O 9.7076 1.73587 -0.907978 0
M  V30 89 H 8.2876 -0.132364 -0.735179 0
M  V30 90 H 10.9496 -1.01562 -1.66347 0
M  V30 91 H 10.0456 -0.460638 -3.08682 0
M  V30 92 N 10.3467 1.47872 -0.545128 0
M  V30 93 C 11.2937 2.29849 0.2093 0
M  V30 94 C 12.2637 1.38313 0.919707 0
M  V30 95 O 13.4487 1.67277 0.917772 0
M  V30 96 C 10.5887 3.22019 1.24088 0
M  V30 97 C 9.7017 4.2864 0.537778 0
M  V30 98 C 8.8367 5.07973 1.5536 0
M  V30 99 C 7.8757 6.06381 0.8348 0
M  V30 100 N 7.0127 6.78717 1.79688 0
M  V30 101 H 11.8527 2.93845 -0.49591 0
M  V30 102 H 9.3897 1.44848 -0.256389 0
M  V30 103 H 11.3477 3.73868 1.85144 0
M  V30 104 H 9.9777 2.59914 1.91428 0
M  V30 105 H 9.0297 3.7994 -0.187046 0
M  V30 106 H 10.3417 4.98793 -0.0258907 0
M  V30 107 H 9.4957 5.63912 2.23803 0
M  V30 108 H 8.2347 4.37693 2.15118 0
M  V30 109 H 7.2397 5.49631 0.136388 0
M  V30 110 H 8.4647 6.78665 0.24313 0
M  V30 111 H 6.4107 6.11177 2.38326 0
M  V30 112 H 6.3277 7.44998 1.28505 0
M  V30 113 H 7.5957 7.39237 2.47282 0
M  V30 114 N 11.8248 0.280983 1.55075 0
M  V30 115 C 12.7718 -0.603937 2.22758 0
M  V30 116 C 13.7418 -1.1452 1.20309 0
M  V30 117 O 14.9268 -1.19343 1.48869 0
M  V30 118 C 12.0668 -1.77947 2.95684 0
M  V30 119 C 11.1798 -1.2715 4.12864 0
M  V30 120 C 10.3148 -2.4093 4.7342 0
M  V30 121 C 9.3538 -1.87165 5.82783 0
M  V30 122 N 8.4908 -2.94441 6.37377 0
M  V30 123 H 13.3308 -0.020124 2.97993 0
M  V30 124 H 10.8678 0.00183425 1.471 0
M  V30 125 H 12.8258 -2.47055 3.36184 0
M  V30 126 H 11.4558 -2.33522 2.22861 0
M  V30 127 H 10.5078 -0.473331 3.77444 0
M  V30 128 H 11.8198 -0.837751 4.91715 0
M  V30 129 H 10.9738 -3.18021 5.1667 0
M  V30 130 H 9.7128 -2.87623 3.93859 0
M  V30 131 H 8.7178 -1.08556 5.38976 0
M  V30 132 H 9.9428 -1.41401 6.64216 0
M  V30 133 H 7.8888 -3.40505 5.60707 0
M  V30 134 H 7.8058 -2.55501 7.11516 0
M  V30 135 H 9.0738 -3.71489 6.85285 0
M  V30 136 N 13.3029 -1.57598 0.00835791 0
M  V30 137 C 14.5519 -1.90107 -0.673968 0
M  V30 138 C 14.8649 -0.884275 -1.7447 0
M  V30 139 O 16.0709 -1.09987 -2.48224 0
M  V30 140 C 14.5269 -3.37497 -1.24995 0
M  V30 141 C 14.1349 -4.47491 -0.2136 0
M  V30 142 C 15.8789 -3.79104 -1.90999 0
M  V30 143 C 13.7859 -5.85963 -0.80005 0
M  V30 144 H 12.7159 -0.709393 -0.255495 0
M  V30 145 H 15.3669 -1.83365 0.0702693 0
M  V30 146 H 13.7489 -3.39102 -2.04513 0
M  V30 147 H 14.9229 -4.57414 0.557596 0
M  V30 148 H 13.2379 -4.14956 0.346474 0
M  V30 149 H 15.8349 -4.79901 -2.35795 0
M  V30 150 H 16.1779 -3.1306 -2.74407 0
M  V30 151 H 16.7109 -3.79833 -1.18203 0
M  V30 152 H 13.4499 -6.555 -0.00456708 0
M  V30 153 H 12.9699 -5.79687 -1.54021 0
M  V30 154 H 14.6489 -6.33884 -1.29615 0
M  V30 155 N 14.781 0.264519 -1.55364 0
M  V30 156 C 16.027 0.99646 -1.76631 0
M  V30 157 C 16.36 1.85632 -0.570478 0
M  V30 158 O 15.635 1.89647 0.43175 0
M  V30 159 C 15.918 1.87187 -3.07625 0
M  V30 160 C 15.771 1.04138 -4.37579 0
M  V30 161 C 17.09 2.85749 -3.34717 0
M  V30 162 H 14.209 0.360841 -0.642622 0
M  V30 163 H 16.851 0.268218 -1.88097 0
M  V30 164 H 15.001 2.49279 -2.9798 0
M  V30 165 H 16.673 0.440517 -4.59192 0
M  V30 166 H 14.916 0.345115 -4.32425 0
M  V30 167 H 15.587 1.68729 -5.2558 0
M  V30 168 H 18.063 2.33793 -3.4421 0
M  V30 169 H 16.939 3.44136 -4.27623 0
M  V30 170 H 17.2 3.61311 -2.54768 0
M  V30 171 N 16.2591 1.48442 0.529413 0
M  V30 172 C 17.5061 1.56488 1.28521 0
M  V30 173 C 17.8341 0.239042 1.93025 0
M  V30 174 O 17.0891 -0.770713 1.79885 0
M  V30 175 C 17.3881 2.6523 2.39558 0
M  V30 176 C 17.0541 4.07648 1.92702 0
M  V30 177 C 15.7161 4.46411 1.79641 0
M  V30 178 C 18.0681 4.96896 1.573 0
M  V30 179 C 15.3961 5.72226 1.29514 0
M  V30 180 C 17.7481 6.23202 1.08636 0
M  V30 181 C 16.4121 6.60821 0.941919 0
M  V30 182 H 15.6821 0.572631 0.470292 0
M  V30 183 H 18.3291 1.82161 0.59072 0
M  V30 184 H 16.6341 2.33419 3.14679 0
M  V30 185 H 18.3311 2.68671 2.97686 0
M  V30 186 H 14.9211 3.77036 2.03819 0
M  V30 187 H 19.1051 4.67626 1.66251 0
M  V30 188 H 14.3611 6.00097 1.17019 0
M  V30 189 H 18.5351 6.91753 0.803136 0
M  V30 190 H 16.1621 7.58198 0.5513 0
M  V30 191 N 17.7372 -0.778329 1.37039 0
M  V30 192 C 18.9832 -1.53892 1.32079 0
M  V30 193 C 19.3162 -1.9396 -0.0965386 0
M  V30 194 O 18.5912 -1.63568 -1.05242 0
M  V30 195 C 18.8742 -2.80847 2.25382 0
M  V30 196 C 18.7272 -2.47076 3.75864 0
M  V30 197 C 20.0462 -3.82741 2.1725 0
M  V30 198 H 17.1652 -0.558303 0.48111 0
M  V30 199 H 19.8072 -0.893397 1.67685 0
M  V30 200 H 17.9572 -3.35931 1.95148 0
M  V30 201 H 19.6292 -1.97957 4.16666 0
M  V30 202 H 17.8722 -1.79863 3.94755 0
M  V30 203 H 18.5432 -3.37798 4.36574 0
M  V30 204 H 21.0192 -3.37133 2.43887 0
M  V30 205 H 19.8952 -4.69303 2.84686 0
M  V30 206 H 20.1562 -4.2652 1.16331 0
M  V30 207 N 19.2153 -1.21501 -1.00376 0
M  V30 208 C 20.4433 -1.059 -1.77744 0
M  V30 209 C 20.8583 0.391125 -1.84704 0
M  V30 210 O 20.2153 1.27133 -1.30933 0
M  V30 211 C 20.2663 -1.65111 -3.21591 0
M  V30 212 O 19.9873 -3.0445 -3.15027 0
M  V30 213 C 21.4883 -1.54637 -4.15454 0
M  V30 214 H 18.7083 -0.371825 -0.558558 0
M  V30 215 H 21.2523 -1.60865 -1.26264 0
M  V30 216 H 19.4073 -1.14235 -3.70175 0
M  V30 217 H 19.8213 -3.3278 -4.0541 0
M  V30 218 H 21.2953 -2.00808 -5.14179 0
M  V30 219 H 21.7723 -0.501022 -4.36333 0
M  V30 220 H 22.3783 -2.04767 -3.72761 0
M  V30 221 N 20.6934 1.19889 -1.02296 0
M  V30 222 C 21.9414 1.89046 -0.714558 0
M  V30 223 C 22.2624 1.79636 0.758681 0
M  V30 224 O 21.5324 1.20292 1.54618 0
M  V30 225 H 20.1124 0.699802 -0.261317 0
M  V30 226 H 22.7744 1.45574 -1.29592 0
M  V30 227 H 21.8704 2.95524 -1.0036 0
M  V30 228 N 22.1715 0.800033 1.35784 0
M  V30 229 C 23.1195 0.193851 2.31791 0
M  V30 230 C 24.1135 -0.652744 1.56319 0
M  V30 231 O 25.3195 -0.546641 1.71499 0
M  V30 232 H 21.6945 0.04392 0.750716 0
M  V30 233 H 23.6655 1.01883 2.80468 0
M  V30 234 C 22.4145 -0.648338 3.41602 0
M  V30 235 H 21.7375 -0.00624665 3.998 0
M  V30 236 H 23.1775 -1.03898 4.11073 0
M  V30 237 C 21.6365 -1.8111 2.84079 0
M  V30 238 O 22.1665 -2.90825 2.77099 0
M  V30 239 N 20.3725 -1.62056 2.41218 0
M  V30 240 H 19.9195 -0.728123 2.47095 0
M  V30 241 H 19.8775 -2.40013 2.03079 0
M  V30 242 N 23.6496 -1.47581 0.552962 0
M  V30 243 C 24.6126 -2.28439 -0.186605 0
M  V30 244 C 25.6126 -1.36706 -0.84665 0
M  V30 245 O 26.8026 -1.59378 -0.703164 0
M  V30 246 C 23.9346 -3.16264 -1.2724 0
M  V30 247 H 25.1276 -2.95294 0.523609 0
M  V30 248 H 22.6806 -1.532 0.309745 0
M  V30 249 H 23.4156 -2.54091 -2.01514 0
M  V30 250 H 23.2006 -3.83769 -0.803968 0
M  V30 251 H 24.6906 -3.77198 -1.79196 0
M  V30 252 N 25.1277 -0.289203 -1.54924 0
M  V30 253 C 26.0747 0.592115 -2.23075 0
M  V30 254 C 27.0447 1.13881 -1.20915 0
M  V30 255 O 28.2297 1.18551 -1.495 0
M  V30 256 C 25.3697 1.76376 -2.96623 0
M  V30 257 C 24.4827 1.24959 -4.13533 0
M  V30 258 C 23.6177 2.38416 -4.74691 0
M  V30 259 C 22.6567 1.84072 -5.83767 0
M  V30 260 N 21.7937 2.91057 -6.38929 0
M  V30 261 H 26.6337 0.00432038 -2.98 0
M  V30 262 H 24.1707 -0.00963529 -1.47097 0
M  V30 263 H 26.1287 2.45268 -3.3749 0
M  V30 264 H 24.7587 2.32337 -2.24097 0
M  V30 265 H 23.8107 0.453307 -3.77689 0
M  V30 266 H 25.1227 0.811662 -4.92152 0
M  V30 267 H 24.2767 3.15276 -5.18349 0
M  V30 268 H 23.0157 2.8553 -3.95378 0
M  V30 269 H 22.0207 1.05697 -5.39545 0
M  V30 270 H 23.2457 1.37877 -6.64956 0
M  V30 271 H 21.1917 3.37526 -5.62505 0
M  V30 272 H 21.1087 2.51724 -7.12861 0
M  V30 273 H 22.3767 3.6785 -6.87246 0
M  V30 274 N 26.6058 1.57591 -0.0167156 0
M  V30 275 C 27.5528 2.09462 0.969251 0
M  V30 276 C 28.5228 0.99381 1.33089 0
M  V30 277 O 29.7078 1.26726 1.42636 0
M  V30 278 C 26.8478 2.61622 2.25051 0
M  V30 279 C 25.9608 3.85666 1.94642 0
M  V30 280 C 25.0958 4.26266 3.16972 0
M  V30 281 C 24.1348 5.43101 2.82326 0
M  V30 282 N 23.2718 5.78915 3.97243 0
M  V30 283 H 28.1118 2.93428 0.519997 0
M  V30 284 H 25.6488 1.45044 0.245087 0
M  V30 285 H 27.6068 2.89949 2.99976 0
M  V30 286 H 26.2368 1.80505 2.67615 0
M  V30 287 H 25.2888 3.64145 1.10013 0
M  V30 288 H 26.6008 4.70678 1.65117 0
M  V30 289 H 25.7548 4.55963 4.00228 0
M  V30 290 H 24.4938 3.39996 3.49648 0
M  V30 291 H 23.4988 5.1311 1.97479 0
M  V30 292 H 24.7238 6.3106 2.50879 0
M  V30 293 H 22.6698 4.95602 4.29785 0
M  V30 294 H 22.5868 6.58539 3.71299 0
M  V30 295 H 23.8548 6.13212 4.81239 0
M  V30 296 N 28.0839 -0.256276 1.55502 0
M  V30 297 C 29.0139 -1.32102 1.92539 0
M  V30 298 C 29.9949 -1.50684 0.789194 0
M  V30 299 O 31.1799 -1.63449 1.04872 0
M  V30 300 C 28.3099 -2.67752 2.21192 0
M  V30 301 C 27.2639 -2.63878 3.36975 0
M  V30 302 C 26.5899 -4.03236 3.51147 0
M  V30 303 C 27.8899 -2.21682 4.72921 0
M  V30 304 H 29.5839 -1.01351 2.81724 0
M  V30 305 H 27.1299 -0.486105 1.35547 0
M  V30 306 H 29.0829 -3.42365 2.45691 0
M  V30 307 H 27.8069 -3.0012 1.28824 0
M  V30 308 H 26.4659 -1.91722 3.12471 0
M  V30 309 H 26.1139 -4.32854 2.56216 0
M  V30 310 H 25.8139 -4.01535 4.29003 0
M  V30 311 H 27.3379 -4.79563 3.77957 0
M  V30 312 H 28.7519 -2.86023 4.96854 0
M  V30 313 H 27.1489 -2.3111 5.53812 0
M  V30 314 H 28.2189 -1.16833 4.70615 0
M  V30 315 N 29.562 -1.4872 -0.521534 0
M  V30 316 C 30.472 -1.66569 -1.65203 0
M  V30 317 C 31.488 -0.548197 -1.65139 0
M  V30 318 O 32.664 -0.820339 -1.83936 0
M  V30 319 C 29.729 -1.70917 -3.01642 0
M  V30 320 C 28.79 -2.94356 -3.12495 0
M  V30 321 C 28.023 -2.98487 -4.42426 0
M  V30 322 O 28.246 -2.10786 -5.30024 0
M  V30 323 O 27.18 -3.90746 -4.57822 0
M  V30 324 H 31.006 -2.62298 -1.5308 0
M  V30 325 H 28.591 -1.3222 -0.695565 0
M  V30 326 H 30.473 -1.7625 -3.82771 0
M  V30 327 H 29.148 -0.783633 -3.14071 0
M  V30 328 H 28.055 -2.94552 -2.3063 0
M  V30 329 H 29.388 -3.86322 -3.04986 0
M  V30 330 N 31.0401 0.771051 -1.3745 0
M  V30 331 C 31.9501 1.91538 -1.35464 0
M  V30 332 C 32.9661 1.72134 -0.254123 0
M  V30 333 O 34.1421 1.95358 -0.489626 0
M  V30 334 C 31.2071 3.26671 -1.16134 0
M  V30 335 C 30.2681 3.58723 -2.35831 0
M  V30 336 C 29.5011 4.87409 -2.17413 0
M  V30 337 O 29.7241 5.58506 -1.15876 0
M  V30 338 O 28.6581 5.18539 -3.05615 0
M  V30 339 H 32.4841 1.96165 -2.31847 0
M  V30 340 H 30.0691 0.9139 -1.18187 0
M  V30 341 H 31.9511 4.07499 -1.07345 0
M  V30 342 H 30.6261 3.22894 -0.228251 0
M  V30 343 H 29.5331 2.78127 -2.50192 0
M  V30 344 H 30.8661 3.67243 -3.27709 0
M  V30 345 N 32.5182 1.22032 0.997298 0
M  V30 346 C 33.7642 1.04376 1.73878 0
M  V30 347 C 34.0972 -0.420716 1.89588 0
M  V30 348 O 33.3722 -1.31202 1.43583 0
M  V30 349 C 33.6552 1.75047 3.14691 0
M  V30 350 C 33.5082 3.29062 3.06656 0
M  V30 351 C 34.8272 1.49928 4.13775 0
M  V30 352 H 31.9462 0.380578 0.631133 0
M  V30 353 H 34.5882 1.50312 1.16217 0
M  V30 354 H 32.7382 1.35996 3.63919 0
M  V30 355 H 34.4102 3.7753 2.65083 0
M  V30 356 H 32.6532 3.58967 2.43568 0
M  V30 357 H 33.3242 3.73683 4.06282 0
M  V30 358 H 35.8002 1.83842 3.73285 0
M  V30 359 H 34.6762 2.01878 5.10428 0
M  V30 360 H 34.9372 0.430929 4.39995 0
M  V30 361 N 33.9963 -1.19345 1.0293 0
M  V30 362 C 35.2423 -1.89318 0.727083 0
M  V30 363 C 35.5753 -1.79446 -0.742483 0
M  V30 364 O 34.8503 -1.1871 -1.54072 0
M  V30 365 C 35.1333 -3.40238 1.17942 0
M  V30 366 C 34.9863 -3.58979 2.71024 0
M  V30 367 C 36.3053 -4.33479 0.760548 0
M  V30 368 H 33.4243 -0.687475 0.265606 0
M  V30 369 H 36.0663 -1.40477 1.2793 0
M  V30 370 H 34.2163 -3.81964 0.709608 0
M  V30 371 H 35.8883 -3.26421 3.25955 0
M  V30 372 H 34.1313 -3.02018 3.11396 0
M  V30 373 H 34.8023 -4.64823 2.9773 0
M  V30 374 H 37.2783 -3.99469 1.16464 0
M  V30 375 H 36.1543 -5.37664 1.10493 0
M  V30 376 H 36.4153 -4.40813 -0.337063 0
M  V30 377 N 35.4744 -0.807222 -1.35358 0
M  V30 378 C 36.4064 -0.175717 -2.28525 0
M  V30 379 C 37.4194 0.625354 -1.5031 0
M  V30 380 O 38.6084 0.457611 -1.72535 0
M  V30 381 C 35.7084 0.773471 -3.29956 0
M  V30 382 C 34.8814 0.0186296 -4.37396 0
M  V30 383 C 33.9404 0.886395 -5.18681 0
M  V30 384 O 32.9664 0.337106 -5.68201 0
M  V30 385 N 34.1684 2.20839 -5.36852 0
M  V30 386 H 36.9334 -0.976091 -2.83359 0
M  V30 387 H 34.4944 -0.662737 -1.47714 0
M  V30 388 H 36.4864 1.35824 -3.81227 0
M  V30 389 H 35.0564 1.47465 -2.75632 0
M  V30 390 H 34.2764 -0.747349 -3.87051 0
M  V30 391 H 35.5644 -0.501577 -5.06322 0
M  V30 392 H 34.9624 2.67858 -4.98265 0
M  V30 393 H 33.5194 2.74237 -5.91301 0
M  V30 394 N 36.9525 1.47285 -0.560781 0
M  V30 395 C 38.2015 2.01668 -0.035895 0
M  V30 396 C 38.5145 1.44021 1.32353 0
M  V30 397 O 39.7205 1.90088 1.93853 0
M  V30 398 C 38.1765 3.59897 -0.0136659 0
M  V30 399 C 37.7845 4.26536 -1.37006 0
M  V30 400 C 39.5285 4.22017 0.458425 0
M  V30 401 C 37.4355 5.76782 -1.30675 0
M  V30 402 H 36.3655 0.753938 -0.00964879 0
M  V30 403 H 39.0165 1.69243 -0.709166 0
M  V30 404 H 37.3985 3.89301 0.725325 0
M  V30 405 H 38.5725 4.0877 -2.12705 0
M  V30 406 H 36.8875 3.76419 -1.78038 0
M  V30 407 H 39.4845 5.32124 0.524247 0
M  V30 408 H 39.8275 3.89437 1.4712 0
M  V30 409 H 40.3605 3.97159 -0.225818 0
M  V30 410 H 37.0995 6.13988 -2.29564 0
M  V30 411 H 36.6195 5.96875 -0.591622 0
M  V30 412 H 38.2985 6.39063 -1.01033 0
M  V30 413 N 38.4306 0.297415 1.54768 0
M  V30 414 C 39.3606 -0.573494 2.26348 0
M  V30 415 C 40.3416 -1.14085 1.26169 0
M  V30 416 O 41.5266 -1.17086 1.54934 0
M  V30 417 C 38.6566 -1.74716 3.00153 0
M  V30 418 C 37.6106 -1.31032 4.07449 0
M  V30 419 C 36.9366 -2.56887 4.68949 0
M  V30 420 C 38.2366 -0.444183 5.20408 0
M  V30 421 H 39.9306 0.0235131 2.99391 0
M  V30 422 H 37.4766 0.0127488 1.43994 0
M  V30 423 H 39.4296 -2.3625 3.48947 0
M  V30 424 H 38.1536 -2.37035 2.24682 0
M  V30 425 H 36.8126 -0.718066 3.59499 0
M  V30 426 H 36.4606 -3.17512 3.90122 0
M  V30 427 H 36.1606 -2.2836 5.41411 0
M  V30 428 H 37.6846 -3.19229 5.20505 0
M  V30 429 H 39.0986 -0.9651 5.65118 0
M  V30 430 H 37.4956 -0.252846 5.99567 0
M  V30 431 H 38.5656 0.531609 4.81977 0
M  V30 432 N 39.9087 -1.5758 0.0250728 0
M  V30 433 C 41.1567 -1.91255 -0.653151 0
M  V30 434 C 41.4777 -0.901691 -1.729 0
M  V30 435 O 40.7477 0.0573785 -1.95816 0
M  V30 436 H 39.3277 -0.705942 -0.244243 0
M  V30 437 H 41.9897 -1.94767 0.0719209 0
M  V30 438 H 41.0857 -2.91752 -1.10847 0
M  V30 439 N 41.3868 0.248026 -1.55636 0
M  V30 440 C 42.6638 0.998988 -1.68165 0
M  V30 441 C 43.0438 2.03409 -0.564621 0
M  V30 442 O 42.3918 2.24378 0.432076 0
M  V30 443 C 42.6018 1.63334 -3.0842 0
M  V30 444 C 43.9498 2.13562 -3.66983 0
M  V30 445 O 44.9738 1.73277 -3.11213 0
M  V30 446 O 43.8328 2.87526 -4.64749 0
M  V30 447 H 40.9268 0.464933 -0.683935 0
M  V30 448 H 43.4728 0.241902 -1.67967 0
M  V30 449 H 42.2448 0.884583 -3.8117 0
M  V30 450 H 41.8678 2.45666 -3.12624 0
M  V30 451 N 42.8649 1.48995 0.513639 0
M  V30 452 C 43.8119 1.6473 1.61656 0
M  V30 453 C 44.7819 0.488984 1.58739 0
M  V30 454 O 45.9669 0.714478 1.76918 0
M  V30 455 C 43.1069 1.7082 2.99858 0
M  V30 456 C 42.2199 2.9787 3.12885 0
M  V30 457 C 41.3549 2.95017 4.41744 0
M  V30 458 C 40.3939 4.16702 4.48359 0
M  V30 459 N 39.5309 4.11832 5.68629 0
M  V30 460 H 44.3709 2.58909 1.47547 0
M  V30 461 H 41.9079 1.28382 0.71808 0
M  V30 462 H 43.8659 1.72331 3.79944 0
M  V30 463 H 42.4959 0.801181 3.12699 0
M  V30 464 H 41.5479 3.06029 2.25944 0
M  V30 465 H 42.8599 3.8786 3.13633 0
M  V30 466 H 42.0139 2.95021 5.30139 0
M  V30 467 H 40.7529 2.02784 4.43542 0
M  V30 468 H 39.7579 4.16955 3.58369 0
M  V30 469 H 40.9829 5.10113 4.48287 0
M  V30 470 H 38.9289 3.22428 5.71293 0
M  V30 471 H 38.8459 4.95543 5.7094 0
M  V30 472 H 40.1139 4.1592 6.59266 0
M  V30 473 N 44.343 -0.763751 1.37857 0
M  V30 474 C 45.59 -1.52257 1.33506 0
M  V30 475 C 45.918 -1.94343 -0.078022 0
M  V30 476 O 45.173 -1.64958 -1.05297 0
M  V30 477 C 45.472 -2.79499 2.22745 0
M  V30 478 C 45.138 -2.56426 3.70886 0
M  V30 479 C 43.8 -2.49842 4.11257 0
M  V30 480 C 46.152 -2.36008 4.64704 0
M  V30 481 C 43.48 -2.20841 5.43549 0
M  V30 482 C 45.832 -2.0853 5.97242 0
M  V30 483 C 44.496 -2.00396 6.36709 0
M  V30 484 H 43.766 -0.557149 0.488534 0
M  V30 485 H 46.413 -0.879073 1.70131 0
M  V30 486 H 44.718 -3.48447 1.79142 0
M  V30 487 H 46.415 -3.37413 2.16688 0
M  V30 488 H 43.005 -2.62416 3.38874 0
M  V30 489 H 47.189 -2.40079 4.34368 0
M  V30 490 H 42.445 -2.13045 5.73081 0
M  V30 491 H 46.619 -1.91732 6.69486 0
M  V30 492 H 44.246 -1.77688 7.39142 0
M  V30 493 N 45.8211 -1.22559 -0.990812 0
M  V30 494 C 47.2321 -1.04791 -1.54518 0
M  V30 495 C 47.5831 0.387998 -1.92325 0
M  V30 496 O 46.7081 1.27328 -1.74976 0
M  V30 497 C 47.3031 -1.896 -2.80779 0
M  V30 498 C 45.8621 -1.76124 -3.32652 0
M  V30 499 C 45.0091 -1.8594 -2.05722 0
M  V30 500 H 47.9601 -1.36374 -0.811662 0
M  V30 501 H 47.9811 -1.41464 -3.53225 0
M  V30 502 H 47.4931 -2.94101 -2.53231 0
M  V30 503 H 45.5941 -0.743643 -3.65104 0
M  V30 504 H 45.7071 -2.58913 -4.03114 0
M  V30 505 H 44.0711 -1.29403 -2.19379 0
M  V30 506 H 44.8541 -2.91976 -1.80568 0
M  V30 507 N 47.2992 1.18797 -1.03562 0
M  V30 508 C 48.5392 1.90346 -0.744832 0
M  V30 509 C 48.9032 1.78231 0.713972 0
M  V30 510 O 50.1042 2.44441 1.11813 0
M  V30 511 C 48.3752 3.36942 -1.19184 0
M  V30 512 S 49.9342 4.26638 -1.02593 0
M  V30 513 H 46.7522 0.657343 -0.270963 0
M  V30 514 H 49.3542 1.43579 -1.32685 0
M  V30 515 H 48.0582 3.43287 -2.24905 0
M  V30 516 H 47.5892 3.88745 -0.603397 0
M  V30 517 H 49.6042 4.96164 0.0596033 0
M  V30 518 N 48.7773 0.814389 1.34928 0
M  V30 519 C 50.0053 0.411136 2.02774 0
M  V30 520 C 50.4203 -0.980316 1.61354 0
M  V30 521 O 49.7773 -1.63299 0.814847 0
M  V30 522 C 49.8283 0.493865 3.58111 0
M  V30 523 O 49.5493 1.83047 3.98027 0
M  V30 524 C 51.0503 0.0844174 4.4322 0
M  V30 525 H 48.2703 0.166037 0.650133 0
M  V30 526 H 50.8143 1.10018 1.72384 0
M  V30 527 H 48.9693 -0.147006 3.87121 0
M  V30 528 H 49.3833 1.79872 4.92693 0
M  V30 529 H 50.8573 0.193404 5.51661 0
M  V30 530 H 51.3343 -0.97113 4.28329 0
M  V30 531 H 51.9403 0.69875 4.19521 0
M  V30 532 N 50.2554 -1.46986 0.568584 0
M  V30 533 C 51.1854 -2.32946 -0.160753 0
M  V30 534 C 52.1664 -1.44487 -0.897631 0
M  V30 535 O 53.3514 -1.73327 -0.875867 0
M  V30 536 C 50.4814 -3.26494 -1.18403 0
M  V30 537 C 49.4354 -4.24282 -0.562895 0
M  V30 538 C 48.7614 -5.07236 -1.69163 0
M  V30 539 C 50.0614 -5.19989 0.490761 0
M  V30 540 H 51.7554 -2.94175 0.556916 0
M  V30 541 H 49.3014 -1.4146 0.26927 0
M  V30 542 H 51.2544 -3.85477 -1.70251 0
M  V30 543 H 49.9784 -2.63343 -1.93179 0
M  V30 544 H 48.6374 -3.66541 -0.0656164 0
M  V30 545 H 48.2854 -4.4048 -2.42871 0
M  V30 546 H 47.9854 -5.7345 -1.28174 0
M  V30 547 H 49.5094 -5.6908 -2.21314 0
M  V30 548 H 50.9234 -5.73271 0.0579047 0
M  V30 549 H 49.3204 -5.94469 0.820165 0
M  V30 550 H 50.3904 -4.64777 1.3824 0
M  V30 551 N 51.7335 -0.305618 -1.54608 0
M  V30 552 C 52.9795 0.302746 -2.00528 0
M  V30 553 C 53.3125 1.53184 -1.19367 0
M  V30 554 O 52.5875 1.92598 -0.271321 0
M  V30 555 C 52.8705 0.654756 -3.54097 0
M  V30 556 C 52.7235 -0.583793 -4.45995 0
M  V30 557 C 54.0425 1.47947 -4.14487 0
M  V30 558 H 51.1615 0.108564 -0.72896 0
M  V30 559 H 53.8035 -0.418634 -1.85331 0
M  V30 560 H 51.9535 1.26935 -3.67178 0
M  V30 561 H 53.6255 -1.22224 -4.44814 0
M  V30 562 H 51.8685 -1.21615 -4.16404 0
M  V30 563 H 52.5395 -0.293287 -5.5122 0
M  V30 564 H 55.0155 0.96013 -4.04871 0
M  V30 565 H 53.8915 1.69454 -5.22088 0
M  V30 566 H 54.1525 2.47011 -3.66658 0
M  V30 567 N 53.2116 1.57565 -0.0334293 0
M  V30 568 C 54.1746 2.09393 0.932048 0
M  V30 569 C 55.1746 1.00986 1.25134 0
M  V30 570 O 56.3646 1.27129 1.19096 0
M  V30 571 C 53.4966 2.56338 2.2473 0
M  V30 572 H 54.6896 2.95984 0.483085 0
M  V30 573 H 52.2426 1.54819 0.21468 0
M  V30 574 H 52.9776 1.7309 2.74245 0
M  V30 575 H 52.7626 3.35542 2.02865 0
M  V30 576 H 54.2526 2.96646 2.93923 0
M  V30 577 N 54.6897 -0.239769 1.55765 0
M  V30 578 C 55.6217 -1.32001 1.87372 0
M  V30 579 C 56.6347 -1.43944 0.760522 0
M  V30 580 O 57.8237 -1.45167 1.0387 0
M  V30 581 C 54.9237 -2.69779 2.05115 0
M  V30 582 C 54.0967 -2.80014 3.36022 0
M  V30 583 C 53.1557 -3.98684 3.4342 0
M  V30 584 O 52.1817 -3.87877 4.16582 0
M  V30 585 N 53.3837 -5.12176 2.73232 0
M  V30 586 H 56.1487 -1.0522 2.80622 0
M  V30 587 H 53.7097 -0.429857 1.56089 0
M  V30 588 H 55.7017 -3.47517 2.07399 0
M  V30 589 H 54.2717 -2.89237 1.18577 0
M  V30 590 H 53.4917 -1.88896 3.45994 0
M  V30 591 H 54.7797 -2.83808 4.22292 0
M  V30 592 H 54.1777 -5.2385 2.13536 0
M  V30 593 H 52.7347 -5.88022 2.81199 0
M  V30 594 N 56.1678 -1.49265 -0.50573 0
M  V30 595 C 57.1148 -1.65585 -1.6078 0
M  V30 596 C 58.0848 -0.497396 -1.58478 0
M  V30 597 O 59.2698 -0.72385 -1.76536 0
M  V30 598 C 56.4098 -1.72408 -2.98948 0
M  V30 599 C 55.5228 -2.99525 -3.11301 0
M  V30 600 C 54.6578 -2.97356 -4.40174 0
M  V30 601 C 53.6968 -4.19074 -4.46143 0
M  V30 602 N 52.8338 -4.14841 -5.66437 0
M  V30 603 H 57.6738 -2.59688 -1.46172 0
M  V30 604 H 55.2108 -1.28761 -0.711261 0
M  V30 605 H 57.1688 -1.74344 -3.79025 0
M  V30 606 H 55.7988 -0.817753 -3.1227 0
M  V30 607 H 54.8508 -3.07222 -2.24318 0
M  V30 608 H 56.1628 -3.89518 -3.11572 0
M  V30 609 H 55.3168 -2.97829 -5.28567 0
M  V30 610 H 54.0558 -2.05133 -4.42461 0
M  V30 611 H 53.0608 -4.1885 -3.56153 0
M  V30 612 H 54.2858 -5.12483 -4.45575 0
M  V30 613 H 52.2318 -3.25453 -5.69575 0
M  V30 614 H 52.1488 -4.98564 -5.68304 0
M  V30 615 H 53.4168 -4.1941 -6.57051 0
M  V30 616 N 57.6459 0.756429 -1.3826 0
M  V30 617 C 58.8949 1.51082 -1.3363 0
M  V30 618 C 59.2079 1.95467 0.0720068 0
M  V30 619 O 60.4139 2.7043 0.240834 0
M  V30 620 C 58.8699 2.72893 -2.34644 0
M  V30 621 C 58.4779 2.35544 -3.81081 0
M  V30 622 C 60.2219 3.50791 -2.39052 0
M  V30 623 C 58.1289 3.53948 -4.73787 0
M  V30 624 H 57.0589 0.56727 -0.49671 0
M  V30 625 H 59.7099 0.827147 -1.638 0
M  V30 626 H 58.0919 3.43227 -1.97513 0
M  V30 627 H 59.2659 1.72894 -4.27135 0
M  V30 628 H 57.5809 1.70786 -3.79764 0
M  V30 629 H 60.1779 4.38823 -3.05513 0
M  V30 630 H 60.5209 3.91745 -1.40861 0
M  V30 631 H 61.0539 2.87467 -2.74968 0
M  V30 632 H 57.7929 3.18064 -5.73163 0
M  V30 633 H 57.3129 4.15651 -4.32428 0
M  V30 634 H 58.9919 4.20566 -4.91663 0
M  V30 635 N 59.124 1.23083 0.984299 0
M  V30 636 C 60.401 0.9689 1.69917 0
M  V30 637 C 60.781 -0.513604 2.04757 0
M  V30 638 O 60.129 -1.48383 1.73767 0
M  V30 639 C 60.339 1.87518 2.94343 0
M  V30 640 C 61.687 2.13636 3.6694 0
M  V30 641 O 62.711 1.85036 3.04368 0
M  V30 642 O 61.57 2.62119 4.79537 0
M  V30 643 H 58.664 0.365095 0.742048 0
M  V30 644 H 61.21 1.34107 1.03987 0
M  V30 645 H 59.982 2.87756 2.65164 0
M  V30 646 H 59.605 1.50514 3.6801 0
M  V30 647 N 60.6021 -1.18246 1.0419 0
M  V30 648 C 61.5321 -2.24127 0.654914 0
M  V30 649 C 62.5131 -1.66617 -0.342451 0
M  V30 650 O 63.6981 -1.92924 -0.222277 0
M  V30 651 C 60.8281 -3.47295 0.0183757 0
M  V30 652 C 59.7821 -4.17563 0.939414 0
M  V30 653 C 59.1081 -5.34438 0.167286 0
M  V30 654 C 60.4081 -4.70917 2.25908 0
M  V30 655 H 62.1021 -2.56753 1.54007 0
M  V30 656 H 59.6481 -1.23414 0.74195 0
M  V30 657 H 61.6011 -4.20572 -0.264082 0
M  V30 658 H 60.3251 -3.13907 -0.901664 0
M  V30 659 H 58.9841 -3.46186 1.20628 0
M  V30 660 H 58.6321 -4.97298 -0.7552 0
M  V30 661 H 58.3321 -5.82388 0.780901 0
M  V30 662 H 59.8561 -6.10504 -0.108125 0
M  V30 663 H 61.2701 -5.35882 2.03724 0
M  V30 664 H 59.6671 -5.29406 2.82577 0
M  V30 665 H 60.7371 -3.88272 2.9047 0
M  V30 666 N 62.0802 -0.821533 -1.34494 0
M  V30 667 C 63.4912 -0.467956 -1.8074 0
M  V30 668 C 63.8422 1.01151 -1.68116 0
M  V30 669 O 62.9672 1.78707 -1.22036 0
M  V30 670 C 63.5622 -0.842627 -3.28154 0
M  V30 671 C 62.1212 -0.541439 -3.72485 0
M  V30 672 C 61.2682 -1.06028 -2.56229 0
M  V30 673 H 64.2192 -1.01183 -1.22261 0
M  V30 674 H 64.2402 -0.145876 -3.8022 0
M  V30 675 H 63.7522 -1.91945 -3.37311 0
M  V30 676 H 61.8532 0.526034 -3.68868 0
M  V30 677 H 61.9662 -1.08453 -4.66663 0
M  V30 678 H 60.3302 -0.481892 -2.501 0
M  V30 679 H 61.1132 -2.14352 -2.68157 0
M  V30 680 N 63.5583 1.46682 -0.576371 0
M  V30 681 C 64.4683 2.34032 0.163141 0
M  V30 682 C 65.4843 1.49367 0.892501 0
M  V30 683 O 66.6603 1.82252 0.857106 0
M  V30 684 C 63.7253 3.26435 1.16795 0
M  V30 685 C 62.7863 4.26998 0.443944 0
M  V30 686 C 62.0193 5.14986 1.40088 0
M  V30 687 O 62.2423 5.05785 2.637 0
M  V30 688 O 61.1763 5.94906 0.914917 0
M  V30 689 H 65.0023 2.98607 -0.55388 0
M  V30 690 H 62.5873 1.45554 -0.336821 0
M  V30 691 H 64.4693 3.83459 1.74748 0
M  V30 692 H 63.1443 2.64465 1.86655 0
M  V30 693 H 62.0513 3.7368 -0.177271 0
M  V30 694 H 63.3843 4.91736 -0.213566 0
M  V30 695 N 65.0364 0.313813 1.54444 0
M  V30 696 C 66.2664 -0.293491 2.04505 0
M  V30 697 C 66.6744 -1.47086 1.19005 0
M  V30 698 O 66.0174 -1.82481 0.211257 0
M  V30 699 C 66.0794 -0.800455 3.50475 0
M  V30 700 C 65.7434 0.253322 4.56297 0
M  V30 701 C 66.7404 1.08612 5.08428 0
M  V30 702 C 64.4254 0.398708 5.00715 0
M  V30 703 C 66.4194 2.05013 6.0353 0
M  V30 704 C 64.1064 1.36614 5.95634 0
M  V30 705 C 65.1044 2.19033 6.46926 0
M  V30 706 O 64.7924 3.14134 7.39983 0
M  V30 707 H 64.5244 -0.0658325 0.672787 0
M  V30 708 H 67.0784 0.455177 2.00293 0
M  V30 709 H 65.3084 -1.59987 3.52053 0
M  V30 710 H 66.9974 -1.32504 3.83663 0
M  V30 711 H 67.7634 0.984736 4.74898 0
M  V30 712 H 63.6424 -0.23289 4.60411 0
M  V30 713 H 67.1864 2.69382 6.4349 0
M  V30 714 H 63.0834 1.4682 6.28581 0
M  V30 715 H 63.8514 3.0926 7.57826 0
M  V30 716 N 66.5145 -1.57545 0.0417849 0
M  V30 717 C 67.4465 -2.07904 -0.964799 0
M  V30 718 C 68.4595 -1.00497 -1.28079 0
M  V30 719 O 69.6485 -1.28087 -1.24322 0
M  V30 720 C 66.7485 -2.49928 -2.28887 0
M  V30 721 C 65.9215 -3.80562 -2.15619 0
M  V30 722 C 64.9805 -4.08999 -3.31069 0
M  V30 723 O 64.0065 -4.79061 -3.0739 0
M  V30 724 N 65.2085 -3.6017 -4.55256 0
M  V30 725 H 67.9735 -2.94886 -0.535029 0
M  V30 726 H 65.5345 -1.61252 -0.144681 0
M  V30 727 H 67.5265 -2.66034 -3.04972 0
M  V30 728 H 66.0965 -1.68245 -2.63463 0
M  V30 729 H 65.3165 -3.74129 -1.24183 0
M  V30 730 H 66.6045 -4.66126 -2.03971 0
M  V30 731 H 66.0025 -3.03512 -4.77386 0
M  V30 732 H 64.5595 -3.81532 -5.28466 0
M  V30 733 N 67.9926 0.231505 -1.5589 0
M  V30 734 C 69.2406 0.955461 -1.78088 0
M  V30 735 C 69.5616 1.85262 -0.608533 0
M  V30 736 O 68.8316 1.92277 0.375035 0
M  V30 737 H 67.4116 0.355787 -0.656829 0
M  V30 738 H 70.0736 0.245751 -1.93344 0
M  V30 739 H 69.1696 1.56814 -2.69844 0
M  V30 740 N 69.4707 1.49531 0.497807 0
M  V30 741 C 70.3807 1.69176 1.62532 0
M  V30 742 C 71.3967 0.5744 1.64246 0
M  V30 743 O 72.5727 0.849497 1.82608 0
M  V30 744 C 69.6377 1.75695 2.98885 0
M  V30 745 C 68.6987 2.9929 3.07773 0
M  V30 746 C 67.9317 3.05488 4.37622 0
M  V30 747 O 68.1547 2.19192 5.26603 0
M  V30 748 O 67.0887 3.9798 4.51548 0
M  V30 749 H 70.9147 2.647 1.48887 0
M  V30 750 H 68.4997 1.3331 0.674441 0
M  V30 751 H 70.3817 1.82317 3.79919 0
M  V30 752 H 69.0567 0.8335 3.12785 0
M  V30 753 H 67.9637 2.98183 2.25915 0
M  V30 754 H 69.2967 3.91125 2.98801 0
M  V30 755 N 70.9488 -0.749086 1.3866 0
M  V30 756 C 72.3598 -1.32664 1.31366 0
M  V30 757 C 72.7108 -1.96179 -0.028484 0
M  V30 758 O 71.8358 -1.9537 -0.93057 0
M  V30 759 C 72.4308 -2.41219 2.37905 0
M  V30 760 C 70.9898 -2.94684 2.34176 0
M  V30 761 C 70.1368 -1.68108 2.20533 0
M  V30 762 H 73.0878 -0.547628 1.48952 0
M  V30 763 H 73.1088 -3.21268 2.0388 0
M  V30 764 H 72.6208 -1.94962 3.35576 0
M  V30 765 H 70.7218 -3.45258 1.401 0
M  V30 766 H 70.8348 -3.48757 3.2849 0
M  V30 767 H 69.1988 -1.91907 1.67463 0
M  V30 768 H 69.9818 -1.23923 3.20153 0
M  V30 769 N 72.4269 -1.23603 -0.977757 0
M  V30 770 C 73.7039 -0.977897 -1.69401 0
M  V30 771 C 74.0839 0.502738 -2.05026 0
M  V30 772 O 73.4319 1.47459 -1.74551 0
M  V30 773 C 73.6419 -1.89077 -2.93345 0
M  V30 774 C 74.9899 -2.15579 -3.65802 0
M  V30 775 O 76.0139 -1.86648 -3.03383 0
M  V30 776 O 74.8729 -2.64658 -4.78141 0
M  V30 777 H 71.9669 -0.369025 -0.740101 0
M  V30 778 H 74.5129 -1.34657 -1.03274 0
M  V30 779 H 73.2849 -2.89158 -2.63634 0
M  V30 780 H 72.9079 -1.52463 -3.67207 0
M  V30 781 N 73.905 1.17692 -1.04816 0
M  V30 782 C 74.815 2.25229 -0.65643 0
M  V30 783 C 75.831 1.71018 0.320761 0
M  V30 784 O 77.007 2.00649 0.173805 0
M  V30 785 C 74.072 3.46684 -0.0332629 0
M  V30 786 C 73.133 4.15997 -1.06042 0
M  V30 787 C 72.366 5.31654 -0.466893 0
M  V30 788 O 72.589 5.65777 0.724758 0
M  V30 789 O 71.523 5.89831 -1.1993 0
M  V30 790 H 75.349 2.61016 -1.55255 0
M  V30 791 H 72.934 1.24919 -0.81949 0
M  V30 792 H 74.816 4.20234 0.313256 0
M  V30 793 H 73.491 3.12703 0.836566 0
M  V30 794 H 72.398 3.44482 -1.45886 0
M  V30 795 H 73.731 4.53996 -1.90127 0
M  V30 796 N 75.3831 0.828654 1.34056 0
M  V30 797 C 76.6321 0.415828 1.97367 0
M  V30 798 C 76.9451 -1.02796 1.6641 0
M  V30 799 O 78.1511 -1.54497 2.23255 0
M  V30 800 C 76.6071 0.692601 3.53173 0
M  V30 801 C 76.2151 2.15038 3.93017 0
M  V30 802 C 77.9591 0.346222 4.23086 0
M  V30 803 C 75.8661 2.37174 5.41758 0
M  V30 804 H 74.7961 0.151755 0.738571 0
M  V30 805 H 77.4471 1.01581 1.52819 0
M  V30 806 H 75.8291 0.0223764 3.95994 0
M  V30 807 H 77.0031 2.86024 3.61285 0
M  V30 808 H 75.3181 2.45875 3.36057 0
M  V30 809 H 77.9151 0.48937 5.32456 0
M  V30 810 H 78.2581 -0.709842 4.10204 0
M  V30 811 H 78.7911 0.971258 3.85761 0
M  V30 812 H 75.5301 3.41308 5.59633 0
M  V30 813 H 75.0501 1.70738 5.74986 0
M  V30 814 H 76.7291 2.19818 6.08514 0
M  V30 815 N 76.8612 -1.46375 0.584142 0
M  V30 816 C 78.0862 -2.07268 0.0740405 0
M  V30 817 C 78.5112 -1.42979 -1.22223 0
M  V30 818 O 77.8692 -0.514092 -1.73859 0
M  V30 819 C 77.9172 -3.60518 -0.0767769 0
M  V30 820 O 77.0212 -3.96533 -1.13292 0
M  V30 821 H 76.3622 -0.660961 0.0634524 0
M  V30 822 H 78.8922 -1.87991 0.807492 0
M  V30 823 H 78.9022 -4.07021 -0.282489 0
M  V30 824 H 77.5772 -4.06702 0.86986 0
M  V30 825 H 76.1542 -3.61738 -0.905553 0
M  V30 826 N 78.3393 -0.321999 -1.54275 0
M  V30 827 C 79.5883 0.281931 -1.9972 0
M  V30 828 C 79.9013 1.53369 -1.21397 0
M  V30 829 O 81.1073 2.21352 -1.57211 0
M  V30 830 C 79.5633 0.5529 -3.55628 0
M  V30 831 C 79.1713 -0.681721 -4.42783 0
M  V30 832 C 80.9153 1.11687 -4.09544 0
M  V30 833 C 78.8223 -0.382742 -5.9016 0
M  V30 834 H 77.7523 0.109124 -0.746062 0
M  V30 835 H 80.4033 -0.43398 -1.78294 0
M  V30 836 H 78.7853 1.32896 -3.73035 0
M  V30 837 H 79.9593 -1.45723 -4.37151 0
M  V30 838 H 78.2743 -1.1658 -3.99748 0
M  V30 839 H 80.8713 1.35515 -5.17242 0
M  V30 840 H 81.2143 2.06575 -3.61431 0
M  V30 841 H 81.7473 0.402032 -3.95763 0
M  V30 842 H 78.4863 -1.30076 -6.42464 0
M  V30 843 H 78.0063 0.355094 -5.98748 0
M  V30 844 H 79.6853 0.00800157 -6.47 0
M  V30 845 N 79.8174 1.5752 -0.0501392 0
M  V30 846 C 80.7494 2.08413 0.95376 0
M  V30 847 C 81.7624 1.01175 1.27544 0
M  V30 848 O 82.9514 1.28744 1.23641 0
M  V30 849 C 80.0514 2.51138 2.27559 0
M  V30 850 C 79.2244 3.817 2.13598 0
M  V30 851 C 78.2834 4.10749 3.28895 0
M  V30 852 O 77.3094 4.80685 3.04845 0
M  V30 853 N 78.5114 3.62579 4.5334 0
M  V30 854 H 81.2764 2.95165 0.519383 0
M  V30 855 H 78.8374 1.61327 0.136127 0
M  V30 856 H 80.8294 2.67648 3.03557 0
M  V30 857 H 79.3994 1.6964 2.62567 0
M  V30 858 H 78.6194 3.74782 1.22197 0
M  V30 859 H 79.9074 4.67201 2.01496 0
M  V30 860 H 79.3054 3.06039 4.75769 0
M  V30 861 H 77.8624 3.84329 5.26436 0
M  V30 862 N 81.2955 -0.223234 1.56011 0
M  V30 863 C 82.2425 -1.27664 1.92277 0
M  V30 864 C 83.2125 -1.46659 0.779763 0
M  V30 865 O 84.3975 -1.60256 1.03551 0
M  V30 866 C 81.5375 -2.62234 2.24338 0
M  V30 867 C 80.6505 -2.51051 3.51564 0
M  V30 868 C 79.7855 -3.78133 3.7308 0
M  V30 869 C 78.8245 -3.61665 4.93827 0
M  V30 870 N 77.9615 -4.80693 5.11741 0
M  V30 871 H 82.8015 -0.960358 2.82101 0
M  V30 872 H 80.3385 -0.462901 1.39627 0
M  V30 873 H 82.2965 -3.40596 2.40936 0
M  V30 874 H 80.9265 -2.91961 1.3769 0
M  V30 875 H 79.9785 -1.64132 3.43169 0
M  V30 876 H 81.2905 -2.34803 4.40079 0
M  V30 877 H 80.4445 -4.64938 3.89766 0
M  V30 878 H 79.1835 -3.97304 2.82844 0
M  V30 879 H 78.1885 -2.73244 4.77093 0
M  V30 880 H 79.4135 -3.43966 5.85546 0
M  V30 881 H 77.3595 -5.00181 4.24446 0
M  V30 882 H 77.2765 -4.67165 5.94384 0
M  V30 883 H 78.5445 -5.6893 5.3286 0
M  V30 884 N 82.7736 -1.49793 -0.48987 0
M  V30 885 C 84.0136 -1.61466 -1.25332 0
M  V30 886 C 84.3776 -0.299688 -1.89647 0
M  V30 887 O 85.5786 -0.291687 -2.67213 0
M  V30 888 C 83.8496 -2.74944 -2.28343 0
M  V30 889 S 85.4086 -3.06637 -3.13878 0
M  V30 890 H 82.2266 -0.569411 -0.425784 0
M  V30 891 H 84.8286 -1.875 -0.553541 0
M  V30 892 H 83.5326 -3.68994 -1.79643 0
M  V30 893 H 83.0636 -2.50938 -3.02975 0
M  V30 894 H 85.0786 -2.49015 -4.29192 0
M  V30 895 N 84.2517 0.741722 -1.39055 0
M  V30 896 C 85.1837 1.8657 -1.33133 0
M  V30 897 C 86.1967 1.61001 -0.241329 0
M  V30 898 O 87.3857 1.7136 -0.499784 0
M  V30 899 C 84.4857 3.22457 -1.04283 0
M  V30 900 C 83.6587 3.75435 -2.24427 0
M  V30 901 C 82.7177 4.89867 -1.92138 0
M  V30 902 O 81.7437 5.03879 -2.64754 0
M  V30 903 N 82.9457 5.73738 -0.88347 0
M  V30 904 H 85.7107 1.92156 -2.29991 0
M  V30 905 H 83.2717 0.922172 -1.3307 0
M  V30 906 H 85.2637 3.9657 -0.807128 0
M  V30 907 H 83.8337 3.12181 -0.161807 0
M  V30 908 H 83.0537 2.92751 -2.6399 0
M  V30 909 H 84.3417 4.07563 -3.04581 0
M  V30 910 H 83.7397 5.64999 -0.281517 0
M  V30 911 H 82.2967 6.47947 -0.707662 0
M  V30 912 N 85.7298 1.2412 0.971189 0
M  V30 913 C 86.6398 1.04747 2.09917 0
M  V30 914 C 87.6558 -0.0107162 1.73997 0
M  V30 915 O 88.8318 0.186714 2.00533 0
M  V30 916 C 85.8968 0.650828 3.40537 0
M  V30 917 C 84.9578 1.7851 3.90426 0
M  V30 918 C 84.1908 1.40729 5.14812 0
M  V30 919 O 84.4138 0.29557 5.69634 0
M  V30 920 O 83.3478 2.23168 5.58999 0
M  V30 921 H 87.1738 1.99304 2.29154 0
M  V30 922 H 84.7588 1.02908 1.08307 0
M  V30 923 H 86.6408 0.440992 4.19086 0
M  V30 924 H 85.3158 -0.265649 3.22608 0
M  V30 925 H 84.2228 2.04966 3.12953 0
M  V30 926 H 85.5558 2.68023 4.12825 0
M  V30 927 N 87.2079 -1.17134 1.05439 0
M  V30 928 C 88.1709 -2.19439 0.661764 0
M  V30 929 C 89.1709 -1.58199 -0.288042 0
M  V30 930 O 90.3609 -1.74053 -0.0715803 0
M  V30 931 C 87.4929 -3.40889 -0.0276209 0
M  V30 932 H 88.6859 -2.55688 1.56728 0
M  V30 933 H 86.2389 -1.31259 0.848567 0
M  V30 934 H 86.9739 -3.10187 -0.94629 0
M  V30 935 H 86.7589 -3.86586 0.655238 0
M  V30 936 H 88.2489 -4.16603 -0.288342 0
M  V30 937 N 88.686 -0.835752 -1.33615 0
M  V30 938 C 89.932 -0.430596 -1.98176 0
M  V30 939 C 90.265 1.00684 -1.66061 0
M  V30 940 O 89.54 1.70339 -0.938877 0
M  V30 941 C 89.823 -0.648065 -3.5422 0
M  V30 942 C 89.676 -2.13255 -3.96033 0
M  V30 943 C 90.995 -0.0922113 -4.40003 0
M  V30 944 H 88.114 -0.157924 -0.719881 0
M  V30 945 H 90.756 -1.05069 -1.58305 0
M  V30 946 H 88.906 -0.120237 -3.88314 0
M  V30 947 H 90.578 -2.725 -3.72211 0
M  V30 948 H 88.821 -2.61823 -3.45878 0
M  V30 949 H 89.492 -2.23547 -5.04708 0
M  V30 950 H 91.968 -0.543343 -4.12537 0
M  V30 951 H 90.844 -0.274083 -5.48215 0
M  V30 952 H 91.105 1.00378 -4.30554 0
M  V30 953 N 90.1641 1.46063 -0.591896 0
M  V30 954 C 91.5801 1.57561 -0.254288 0
M  V30 955 C 91.7801 1.58565 1.24336 0
M  V30 956 O 90.8361 1.50753 2.02558 0
M  V30 957 C 92.1491 2.86549 -0.911611 0
M  V30 958 C 93.6971 3.00197 -0.886059 0
M  V30 959 C 94.1721 4.31933 -1.5231 0
M  V30 960 N 95.6631 4.38654 -1.48786 0
M  V30 961 C 96.3981 5.39222 -1.95006 0
M  V30 962 N 95.8941 6.46414 -2.49241 0
M  V30 963 N 97.6871 5.3048 -1.85868 0
M  V30 964 H 89.8381 1.43655 -1.56451 0
M  V30 965 H 92.1011 0.68583 -0.654478 0
M  V30 966 H 91.8071 2.91651 -1.96551 0
M  V30 967 H 91.6811 3.74794 -0.425368 0
M  V30 968 H 94.0681 2.9467 0.159246 0
M  V30 969 H 94.1491 2.13403 -1.41041 0
M  V30 970 H 93.7931 4.38217 -2.56765 0
M  V30 971 H 93.7231 5.17516 -0.973891 0
M  V30 972 H 96.2141 3.61793 -1.09151 0
M  V30 973 H 96.5271 7.19376 -2.82344 0
M  V30 974 H 94.8721 6.47208 -2.53272 0
M  V30 975 H 98.0631 4.45643 -1.43248 0
M  V30 976 H 98.2361 6.08711 -2.22204 0
M  V30 977 N 91.6422 0.330177 1.54103 0
M  V30 978 C 92.5742 -0.566902 2.22079 0
M  V30 979 C 93.5872 -1.07462 1.22294 0
M  V30 980 O 94.7762 -0.987065 1.48726 0
M  V30 981 C 91.8762 -1.79138 2.87685 0
M  V30 982 C 91.0492 -1.42123 4.13666 0
M  V30 983 C 90.1082 -2.50394 4.62806 0
M  V30 984 O 89.1342 -2.14261 5.27334 0
M  V30 985 N 90.3362 -3.81433 4.37595 0
M  V30 986 H 93.1012 0.0151844 2.99696 0
M  V30 987 H 90.6622 0.153681 1.61169 0
M  V30 988 H 92.6542 -2.50975 3.1748 0
M  V30 989 H 91.2242 -2.28115 2.13734 0
M  V30 990 H 90.4442 -0.534201 3.90564 0
M  V30 991 H 91.7322 -1.14971 4.9564 0
M  V30 992 H 91.1302 -4.13584 3.8596 0
M  V30 993 H 89.6872 -4.4948 4.72029 0
M  V30 994 N 93.1203 -1.57491 0.0584922 0
M  V30 995 C 94.3663 -1.93264 -0.614558 0
M  V30 996 C 94.6993 -0.937717 -1.7006 0
M  V30 997 O 93.9743 0.0351652 -1.94468 0
M  V30 998 C 94.2573 -3.3938 -1.20386 0
M  V30 999 C 94.1103 -4.49625 -0.125375 0
M  V30 1000 C 95.4293 -3.86039 -2.11334 0
M  V30 1001 H 92.5483 -0.702791 -0.221933 0
M  V30 1002 H 95.1903 -1.8961 0.12175 0
M  V30 1003 H 93.3403 -3.42626 -1.83139 0
M  V30 1004 H 95.0123 -4.58506 0.506971 0
M  V30 1005 H 93.2553 -4.30354 0.545672 0
M  V30 1006 H 93.9263 -5.48967 -0.577861 0
M  V30 1007 H 96.4023 -3.84716 -1.58534 0
M  V30 1008 H 95.2783 -4.88914 -2.49507 0
M  V30 1009 H 95.5393 -3.23215 -3.01636 0
M  V30 1010 N 94.5984 0.214957 -1.56127 0
M  V30 1011 C 95.5304 1.29004 -1.89448 0
M  V30 1012 C 96.5434 1.42716 -0.783326 0
M  V30 1013 O 97.7324 1.43496 -1.06166 0
M  V30 1014 C 94.8324 2.66482 -2.09381 0
M  V30 1015 C 94.0054 2.74633 -3.40434 0
M  V30 1016 C 93.0644 3.9317 -3.49719 0
M  V30 1017 O 92.0904 3.812 -4.227 0
M  V30 1018 N 93.2924 5.07765 -2.81346 0
M  V30 1019 H 96.0574 1.00743 -2.82261 0
M  V30 1020 H 93.6184 0.40497 -1.56753 0
M  V30 1021 H 95.6104 3.44173 -2.12901 0
M  V30 1022 H 94.1804 2.87314 -1.23163 0
M  V30 1023 H 93.4004 1.83368 -3.48955 0
M  V30 1024 H 94.6884 2.77054 -4.26754 0
M  V30 1025 H 94.0864 5.20386 -2.21843 0
M  V30 1026 H 92.6434 5.83474 -2.90519 0
M  V30 1027 N 96.0765 1.50051 0.48192 0
M  V30 1028 C 97.3245 1.60181 1.23234 0
M  V30 1029 C 97.6455 0.299176 1.92691 0
M  V30 1030 O 96.9155 -0.682708 1.83619 0
M  V30 1031 H 95.4955 0.590232 0.457859 0
M  V30 1032 H 98.1575 1.86775 0.556881 0
M  V30 1033 H 97.2535 2.40753 1.98607 0
M  V30 1034 N 97.5546 -0.734337 1.39446 0
M  V30 1035 C 98.9656 -1.31264 1.32766 0
M  V30 1036 C 99.3166 -1.96198 -0.00767497 0
M  V30 1037 O 98.4416 -1.96346 -0.909796 0
M  V30 1038 C 99.0366 -2.38682 2.4045 0
M  V30 1039 C 97.5956 -2.92184 2.37288 0
M  V30 1040 C 96.7426 -1.6576 2.22304 0
M  V30 1041 H 99.6936 -0.531799 1.49525 0
M  V30 1042 H 99.7146 -3.19087 2.07276 0
M  V30 1043 H 99.2266 -1.91392 3.37625 0
M  V30 1044 H 97.3276 -3.43752 1.43754 0
M  V30 1045 H 97.4406 -3.45253 3.3217 0
M  V30 1046 H 95.8046 -1.9012 1.69489 0
M  V30 1047 H 96.5876 -1.20521 3.21449 0
M  V30 1048 N 99.0327 -1.24633 -0.964593 0
M  V30 1049 C 100.279 -1.08949 -1.71049 0
M  V30 1050 C 100.612 0.370302 -1.90637 0
M  V30 1051 O 99.8867 1.27349 -1.47011 0
M  V30 1052 C 100.17 -1.83329 -3.0994 0
M  V30 1053 C 100.023 -3.37077 -2.97824 0
M  V30 1054 C 101.342 -1.60846 -4.09654 0
M  V30 1055 H 98.4607 -0.397178 -0.620821 0
M  V30 1056 H 101.103 -1.5334 -1.12191 0
M  V30 1057 H 99.2527 -1.45597 -3.60186 0
M  V30 1058 H 100.925 -3.84425 -2.5498 0
M  V30 1059 H 99.1677 -3.65298 -2.33965 0
M  V30 1060 H 99.8387 -3.84324 -3.96231 0
M  V30 1061 H 102.315 -1.93674 -3.68279 0
M  V30 1062 H 101.191 -2.1534 -5.04896 0
M  V30 1063 H 101.452 -0.547434 -4.38698 0
M  V30 1064 N 100.511 1.16574 -1.06058 0
M  V30 1065 C 101.441 2.23057 -0.690488 0
M  V30 1066 C 102.422 1.67141 0.315901 0
M  V30 1067 O 103.607 1.93253 0.191556 0
M  V30 1068 C 100.737 3.47222 -0.073625 0
M  V30 1069 C 99.6908 4.16016 -1.00573 0
M  V30 1070 C 99.0168 5.34104 -0.252289 0
M  V30 1071 C 100.317 4.67264 -2.33371 0
M  V30 1072 H 102.011 2.54271 -1.58072 0
M  V30 1073 H 99.5568 1.22218 -0.76149 0
M  V30 1074 H 101.51 4.20939 0.19714 0
M  V30 1075 H 100.234 3.15302 0.85161 0
M  V30 1076 H 98.8928 3.44223 -1.2612 0
M  V30 1077 H 98.5408 4.98437 0.675988 0
M  V30 1078 H 98.2408 5.81072 -0.873455 0
M  V30 1079 H 99.7648 6.10599 0.0109857 0
M  V30 1080 H 101.179 5.32573 -2.12223 0
M  V30 1081 H 99.5758 5.24843 -2.90963 0
M  V30 1082 H 100.646 3.83602 -2.96611 0
M  V30 1083 N 101.989 0.842826 1.3317 0
M  V30 1084 C 103.235 0.441099 1.97945 0
M  V30 1085 C 103.568 -0.998024 1.66593 0
M  V30 1086 O 102.843 -1.69839 0.947898 0
M  V30 1087 C 103.126 0.666841 3.53872 0
M  V30 1088 C 102.979 2.15352 3.94897 0
M  V30 1089 C 104.298 0.115544 4.39948 0
M  V30 1090 H 101.417 0.161739 0.719034 0
M  V30 1091 H 104.059 1.05907 1.57746 0
M  V30 1092 H 102.209 0.140828 3.88245 0
M  V30 1093 H 103.881 2.7447 3.70761 0
M  V30 1094 H 102.124 2.63653 3.44484 0
M  V30 1095 H 102.795 2.26221 5.03516 0
M  V30 1096 H 105.271 0.565213 4.12243 0
M  V30 1097 H 104.147 0.303152 5.48062 0
M  V30 1098 H 104.408 -0.980935 4.3108 0
M  V30 1099 N 103.467 -1.45747 0.599634 0
M  V30 1100 C 104.377 -2.34262 -0.125888 0
M  V30 1101 C 105.393 -1.50768 -0.868625 0
M  V30 1102 O 106.569 -1.83592 -0.828003 0
M  V30 1103 C 103.634 -3.28252 -1.11587 0
M  V30 1104 C 102.695 -4.27651 -0.375956 0
M  V30 1105 C 101.928 -5.1715 -1.31877 0
M  V30 1106 O 102.151 -5.09916 -2.55621 0
M  V30 1107 O 101.085 -5.96286 -0.820157 0
M  V30 1108 H 104.911 -2.97688 0.601315 0
M  V30 1109 H 102.496 -1.44999 0.359934 0
M  V30 1110 H 104.378 -3.86191 -1.68626 0
M  V30 1111 H 103.053 -2.67401 -1.82424 0
M  V30 1112 H 101.96 -3.7335 0.236698 0
M  V30 1113 H 103.293 -4.91334 0.29177 0
M  V30 1114 N 104.945 -0.338344 -1.53925 0
M  V30 1115 C 106.222 0.314774 -1.93051 0
M  V30 1116 C 106.602 1.68669 -1.26941 0
M  V30 1117 O 105.95 2.24636 -0.418445 0
M  V30 1118 C 106.16 0.392249 -3.46789 0
M  V30 1119 C 107.508 0.645554 -4.19664 0
M  V30 1120 O 108.532 0.474575 -3.53024 0
M  V30 1121 O 107.391 0.976408 -5.37707 0
M  V30 1122 H 104.485 0.182598 -0.80659 0
M  V30 1123 H 107.031 -0.389141 -1.65178 0
M  V30 1124 H 105.803 -0.570702 -3.87116 0
M  V30 1125 H 105.426 1.14316 -3.80812 0
M  V30 1126 N 106.423 1.57458 -0.0668435 0
M  V30 1127 C 107.651 1.97624 0.612565 0
M  V30 1128 C 108.066 0.94502 1.63447 0
M  V30 1129 O 107.423 -0.0689276 1.8237 0
M  V30 1130 C 107.474 3.37869 1.28555 0
M  V30 1131 O 107.195 4.3704 0.304557 0
M  V30 1132 C 108.696 3.92882 2.05325 0
M  V30 1133 H 105.916 0.650045 0.166381 0
M  V30 1134 H 108.46 2.04035 -0.137782 0
M  V30 1135 H 106.615 3.3256 1.98702 0
M  V30 1136 H 107.029 5.18565 0.786779 0
M  V30 1137 H 108.503 4.93247 2.47812 0
M  V30 1138 H 108.98 3.29156 2.9078 0
M  V30 1139 H 109.586 4.01577 1.40056 0
M  V30 1140 N 107.901 -0.206675 1.56239 0
M  V30 1141 C 109.141 -0.93574 1.81723 0
M  V30 1142 C 109.505 -1.80927 0.642609 0
M  V30 1143 O 110.706 -2.57323 0.777081 0
M  V30 1144 C 108.977 -1.74012 3.12177 0
M  V30 1145 S 110.536 -2.52279 3.59028 0
M  V30 1146 H 107.354 -0.314065 0.637875 0
M  V30 1147 H 109.956 -0.200071 1.94474 0
M  V30 1148 H 108.66 -1.0888 3.95693 0
M  V30 1149 H 108.191 -2.51782 3.02274 0
M  V30 1150 H 110.206 -3.76209 3.23545 0
M  V30 1151 N 109.379 -1.50304 -0.473955 0
M  V30 1152 C 110.309 -1.71886 -1.58042 0
M  V30 1153 C 111.29 -0.567799 -1.60344 0
M  V30 1154 O 112.475 -0.806623 -1.76656 0
M  V30 1155 C 109.605 -1.81036 -2.96384 0
M  V30 1156 C 108.559 -2.962 -3.08949 0
M  V30 1157 C 107.885 -2.9049 -4.48909 0
M  V30 1158 C 109.185 -4.36752 -2.86434 0
M  V30 1159 H 110.879 -2.64527 -1.40234 0
M  V30 1160 H 108.425 -1.27295 -0.673201 0
M  V30 1161 H 110.378 -1.94719 -3.73714 0
M  V30 1162 H 109.102 -0.850147 -3.15341 0
M  V30 1163 H 107.761 -2.82164 -2.3405 0
M  V30 1164 H 107.409 -1.92321 -4.64781 0
M  V30 1165 H 107.109 -3.67802 -4.58253 0
M  V30 1166 H 108.633 -3.06218 -5.28264 0
M  V30 1167 H 110.047 -4.5133 -3.53517 0
M  V30 1168 H 108.444 -5.15493 -3.07225 0
M  V30 1169 H 109.514 -4.49321 -1.82316 0
M  V30 1170 N 110.857 0.726932 -1.39834 0
M  V30 1171 C 112.097 1.4992 -1.38936 0
M  V30 1172 C 112.461 1.91996 0.0126883 0
M  V30 1173 O 113.662 2.68399 0.146715 0
M  V30 1174 C 111.933 2.70013 -2.34153 0
M  V30 1175 S 113.492 3.59563 -2.51515 0
M  V30 1176 H 110.31 0.51271 -0.492595 0
M  V30 1177 H 112.912 0.85107 -1.76003 0
M  V30 1178 H 111.616 2.37254 -3.34871 0
M  V30 1179 H 111.147 3.39748 -1.98331 0
M  V30 1180 H 113.162 4.63973 -1.75909 0
M  V30 1181 N 112.336 1.25143 0.95797 0
M  V30 1182 C 113.583 1.09692 1.70217 0
M  V30 1183 C 113.911 -0.362654 1.91089 0
M  V30 1184 O 113.166 -1.28386 1.47701 0
M  V30 1185 C 113.465 1.79272 3.09187 0
M  V30 1186 C 113.131 3.29196 3.08125 0
M  V30 1187 C 111.793 3.70096 3.07543 0
M  V30 1188 C 114.145 4.24995 3.0171 0
M  V30 1189 C 111.473 5.05213 2.9829 0
M  V30 1190 C 113.825 5.60132 2.93999 0
M  V30 1191 C 112.489 6.00365 2.9175 0
M  V30 1192 H 111.759 0.401393 0.622868 0
M  V30 1193 H 114.406 1.55372 1.11945 0
M  V30 1194 H 112.711 1.26014 3.70982 0
M  V30 1195 H 114.408 1.64773 3.65583 0
M  V30 1196 H 110.998 2.96651 3.09348 0
M  V30 1197 H 115.182 3.9439 3.01281 0
M  V30 1198 H 110.438 5.35569 2.94916 0
M  V30 1199 H 114.612 6.3406 2.87996 0
M  V30 1200 H 112.239 7.05023 2.84336 0
M  V30 1201 N 113.814 -1.1601 1.06675 0
M  V30 1202 C 114.762 -2.22586 0.675157 0
M  V30 1203 C 115.756 -1.66525 -0.310766 0
M  V30 1204 O 116.962 -1.79145 -0.175215 0
M  V30 1205 H 113.337 -0.724855 0.200223 0
M  V30 1206 H 115.308 -2.52899 1.58381 0
M  V30 1207 C 114.057 -3.47604 0.0817162 0
M  V30 1208 H 113.38 -3.91058 0.831484 0
M  V30 1209 H 114.82 -4.23718 -0.154708 0
M  V30 1210 C 113.279 -3.15718 -1.17576 0
M  V30 1211 O 113.809 -3.31878 -2.26318 0
M  V30 1212 N 112.015 -2.69816 -1.07923 0
M  V30 1213 H 111.562 -2.56866 -0.194293 0
M  V30 1214 H 111.52 -2.48855 -1.92141 0
M  V30 1215 N 115.292 -0.849877 -1.32721 0
M  V30 1216 C 116.255 -0.296122 -2.27279 0
M  V30 1217 C 117.255 0.541458 -1.5141 0
M  V30 1218 O 118.445 0.353658 -1.70572 0
M  V30 1219 C 115.577 0.581579 -3.35902 0
M  V30 1220 H 116.77 -1.13064 -2.77771 0
M  V30 1221 H 114.323 -0.62383 -1.43311 0
M  V30 1222 H 115.058 1.43809 -2.9067 0
M  V30 1223 H 114.843 -0.0178814 -3.92096 0
M  V30 1224 H 116.333 0.961951 -4.0637 0
M  V30 1225 N 116.77 1.45427 -0.607355 0
M  V30 1226 C 117.7 2.3329 0.0989352 0
M  V30 1227 C 118.681 1.46816 0.859007 0
M  V30 1228 O 119.866 1.75588 0.829604 0
M  V30 1229 C 116.996 3.29518 1.09705 0
M  V30 1230 C 115.95 4.25626 0.450206 0
M  V30 1231 C 115.276 5.11542 1.55655 0
M  V30 1232 C 116.576 5.18505 -0.628455 0
M  V30 1233 H 118.27 2.92595 -0.634716 0
M  V30 1234 H 115.816 1.40696 -0.306681 0
M  V30 1235 H 117.769 3.89855 1.59971 0
M  V30 1236 H 116.493 2.68372 1.86129 0
M  V30 1237 H 115.152 3.66586 -0.0315886 0
M  V30 1238 H 114.8 4.46765 2.31107 0
M  V30 1239 H 114.5 5.76647 1.12925 0
M  V30 1240 H 116.024 5.74748 2.06148 0
M  V30 1241 H 117.438 5.72916 -0.209877 0
M  V30 1242 H 115.835 5.92085 -0.977489 0
M  V30 1243 H 116.905 4.60948 -1.50514 0
M  V30 1244 N 118.248 0.346503 1.53744 0
M  V30 1245 C 119.496 -0.248612 2.00565 0
M  V30 1246 C 119.817 -1.5083 1.23593 0
M  V30 1247 O 119.087 -1.92858 0.343912 0
M  V30 1248 H 117.667 -0.0948564 0.740953 0
M  V30 1249 H 120.329 0.468341 1.89189 0
M  V30 1250 H 119.425 -0.488994 3.08245 0
M  V30 1251 N 119.726 -1.57421 0.075193 0
M  V30 1252 C 120.974 -1.93236 -0.591974 0
M  V30 1253 C 121.295 -0.956241 -1.69944 0
M  V30 1254 O 120.565 -0.00494792 -1.95899 0
M  V30 1255 H 119.145 -0.713355 -0.22166 0
M  V30 1256 H 121.807 -1.9444 0.133848 0
M  V30 1257 H 120.903 -2.95131 -1.01509 0
M  V30 1258 N 121.204 0.198386 -1.56346 0
M  V30 1259 C 122.134 1.24865 -1.9731 0
M  V30 1260 C 123.115 1.47651 -0.844576 0
M  V30 1261 O 124.3 1.59444 -1.10866 0
M  V30 1262 C 121.43 2.59358 -2.30977 0
M  V30 1263 C 120.384 2.5119 -3.46537 0
M  V30 1264 C 119.71 3.89926 -3.65871 0
M  V30 1265 C 121.01 2.03977 -4.80823 0
M  V30 1266 H 122.704 0.908252 -2.85291 0
M  V30 1267 H 120.25 0.435462 -1.37258 0
M  V30 1268 H 122.203 3.33011 -2.58228 0
M  V30 1269 H 120.927 2.95132 -1.39874 0
M  V30 1270 H 119.586 1.79993 -3.19371 0
M  V30 1271 H 119.234 4.23046 -2.72105 0
M  V30 1272 H 118.934 3.85336 -4.4361 0
M  V30 1273 H 120.458 4.65205 -3.95495 0
M  V30 1274 H 121.872 2.67386 -5.07127 0
M  V30 1275 H 120.269 2.10397 -5.62008 0
M  V30 1276 H 121.339 0.992861 -4.74626 0
M  V30 1277 N 122.682 1.50554 0.465978 0
M  V30 1278 C 124.093 1.54599 1.04671 0
M  V30 1279 C 124.444 0.352488 1.93008 0
M  V30 1280 O 123.569 -0.534044 2.09707 0
M  V30 1281 C 124.164 2.80166 1.90505 0
M  V30 1282 C 122.723 2.86876 2.43678 0
M  V30 1283 C 121.87 2.48947 1.22151 0
M  V30 1284 H 124.821 1.56744 0.248384 0
M  V30 1285 H 124.842 2.62311 2.75633 0
M  V30 1286 H 124.354 3.67013 1.26186 0
M  V30 1287 H 122.455 2.04393 3.11536 0
M  V30 1288 H 122.568 3.89885 2.78436 0
M  V30 1289 H 120.932 2.01498 1.5579 0
M  V30 1290 H 121.715 3.38107 0.594866 0
M  V30 1291 N 124.16 -0.719506 1.40217 0
M  V30 1292 C 125.408 -1.47641 1.3801 0
M  V30 1293 C 125.729 -1.94992 -0.018145 0
M  V30 1294 O 124.999 -1.70073 -0.972207 0
M  V30 1295 H 123.579 -0.547744 0.507923 0
M  V30 1296 H 126.241 -0.853187 1.75233 0
M  V30 1297 H 125.337 -2.35112 2.05253 0
M  V30 1298 N 125.638 -1.25649 -0.95132 0
M  V30 1299 C 127.049 -1.09654 -1.51106 0
M  V30 1300 C 127.4 0.326615 -1.93462 0
M  V30 1301 O 126.525 1.21697 -1.78938 0
M  V30 1302 C 127.12 -1.98437 -2.74605 0
M  V30 1303 C 125.679 -1.86618 -3.2688 0
M  V30 1304 C 124.826 -1.9239 -1.99703 0
M  V30 1305 H 127.777 -1.38887 -0.767865 0
M  V30 1306 H 127.798 -1.5263 -3.48546 0
M  V30 1307 H 127.31 -3.02009 -2.43746 0
M  V30 1308 H 125.411 -0.859421 -3.62553 0
M  V30 1309 H 125.524 -2.71607 -3.94673 0
M  V30 1310 H 123.888 -1.36317 -2.15151 0
M  V30 1311 H 124.671 -2.97573 -1.71188 0
M  V30 1312 N 127.117 1.15442 -1.07289 0
M  V30 1313 C 128.347 1.89821 -0.815576 0
M  V30 1314 C 128.755 1.7823 0.634867 0
M  V30 1315 O 128.098 1.13152 1.44715 0
M  V30 1316 C 128.16 3.40817 -1.14385 0
M  V30 1317 C 127.824 3.76193 -2.59476 0
M  V30 1318 C 128.821 3.77269 -3.57721 0
M  V30 1319 C 126.506 4.0652 -2.95037 0
M  V30 1320 C 128.5 4.08176 -4.89562 0
M  V30 1321 C 126.187 4.37092 -4.27076 0
M  V30 1322 C 127.185 4.37902 -5.24148 0
M  V30 1323 O 126.873 4.67741 -6.53815 0
M  V30 1324 H 126.605 0.608465 -0.294528 0
M  V30 1325 H 129.159 1.472 -1.43252 0
M  V30 1326 H 127.389 3.83835 -0.469865 0
M  V30 1327 H 129.078 3.96485 -0.869179 0
M  V30 1328 H 129.844 3.5394 -3.3159 0
M  V30 1329 H 125.723 4.05049 -2.20128 0
M  V30 1330 H 129.267 4.08723 -5.65324 0
M  V30 1331 H 125.164 4.59889 -4.5296 0
M  V30 1332 H 125.932 4.85509 -6.58957 0
M  V30 1333 N 128.595 0.856903 1.32268 0
M  V30 1334 C 129.844 0.457599 1.96441 0
M  V30 1335 C 130.157 -0.992426 1.68553 0
M  V30 1336 O 131.363 -1.49727 2.26482 0
M  V30 1337 C 129.819 0.767358 3.51624 0
M  V30 1338 C 129.427 2.23326 3.88367 0
M  V30 1339 C 131.171 0.435887 4.22256 0
M  V30 1340 C 129.078 2.48613 5.36606 0
M  V30 1341 H 128.008 0.167387 0.735185 0
M  V30 1342 H 130.659 1.048 1.5063 0
M  V30 1343 H 129.041 0.106367 3.95857 0
M  V30 1344 H 130.215 2.93623 3.55137 0
M  V30 1345 H 128.53 2.52948 3.30766 0
M  V30 1346 H 131.127 0.602202 5.31298 0
M  V30 1347 H 131.47 -0.622672 4.11617 0
M  V30 1348 H 132.003 1.05286 3.83614 0
M  V30 1349 H 128.742 3.53101 5.52268 0
M  V30 1350 H 128.262 1.82896 5.71235 0
M  V30 1351 H 129.941 2.32676 6.03714 0
M  V30 1352 N 130.073 -1.45103 0.615059 0
M  V30 1353 C 131.02 -2.30586 -0.0993978 0
M  V30 1354 C 131.99 -1.42544 -0.852669 0
M  V30 1355 O 133.175 -1.71465 -0.836917 0
M  V30 1356 C 130.315 -3.27572 -1.08583 0
M  V30 1357 C 129.428 -4.30717 -0.332656 0
M  V30 1358 C 128.563 -5.14807 -1.30947 0
M  V30 1359 C 127.602 -6.09673 -0.544538 0
M  V30 1360 N 126.739 -6.86517 -1.47101 0
M  V30 1361 H 131.579 -2.91144 0.635542 0
M  V30 1362 H 129.116 -1.4346 0.325206 0
M  V30 1363 H 131.074 -3.82276 -1.67095 0
M  V30 1364 H 129.704 -2.68751 -1.78809 0
M  V30 1365 H 128.756 -3.78615 0.368107 0
M  V30 1366 H 130.068 -4.98102 0.263842 0
M  V30 1367 H 129.222 -5.73948 -1.96643 0
M  V30 1368 H 127.961 -4.47458 -1.9399 0
M  V30 1369 H 126.966 -5.49656 0.126003 0
M  V30 1370 H 128.191 -6.79052 0.080947 0
M  V30 1371 H 126.137 -6.21851 -2.08895 0
M  V30 1372 H 126.054 -7.50281 -0.928137 0
M  V30 1373 H 127.322 -7.50194 -2.11731 0
M  V30 1374 N 131.551 -0.354651 -1.53558 0
M  V30 1375 C 132.797 0.231422 -2.02079 0
M  V30 1376 C 133.152 1.47308 -1.23767 0
M  V30 1377 O 132.445 1.8891 -0.319947 0
M  V30 1378 C 132.639 0.587121 -3.52545 0
M  V30 1379 C 132.468 -0.618513 -4.45426 0
M  V30 1380 C 131.238 -1.12724 -4.92566 0
M  V30 1381 C 133.436 -1.48039 -4.92533 0
M  V30 1382 N 131.418 -2.29404 -5.69427 0
M  V30 1383 C 132.789 -2.49397 -5.67628 0
M  V30 1384 C 134.844 -1.50454 -4.74624 0
M  V30 1385 C 133.547 -3.53013 -6.26717 0
M  V30 1386 C 135.573 -2.52958 -5.34571 0
M  V30 1387 C 134.935 -3.5304 -6.09543 0
M  V30 1388 H 131.034 0.0476909 -0.780544 0
M  V30 1389 H 133.618 -0.496727 -1.88257 0
M  V30 1390 H 131.789 1.28436 -3.6655 0
M  V30 1391 H 133.521 1.15734 -3.87799 0
M  V30 1392 H 130.276 -0.693577 -4.68494 0
M  V30 1393 H 130.7 -2.88347 -6.12524 0
M  V30 1394 H 135.342 -0.744356 -4.16196 0
M  V30 1395 H 133.06 -4.2992 -6.84247 0
M  V30 1396 H 136.646 -2.55667 -5.22614 0
M  V30 1397 H 135.526 -4.31056 -6.55103 0
M  V30 1398 N 133.029 1.57378 -0.0835403 0
M  V30 1399 C 134.276 1.9393 0.58287 0
M  V30 1400 C 134.604 0.964455 1.68904 0
M  V30 1401 O 133.859 -0.0179474 1.95692 0
M  V30 1402 C 134.158 3.37063 1.1884 0
M  V30 1403 C 133.824 4.50424 0.207194 0
M  V30 1404 C 132.486 4.81159 -0.0627115 0
M  V30 1405 C 134.838 5.19136 -0.463426 0
M  V30 1406 C 132.166 5.77939 -1.01012 0
M  V30 1407 C 134.518 6.16931 -1.39924 0
M  V30 1408 C 133.182 6.46078 -1.67749 0
M  V30 1409 H 132.452 0.70964 0.213287 0
M  V30 1410 H 135.099 1.90856 -0.156916 0
M  V30 1411 H 133.404 3.3666 2.00418 0
M  V30 1412 H 135.101 3.6264 1.71153 0
M  V30 1413 H 131.691 4.2646 0.427747 0
M  V30 1414 H 135.875 4.95576 -0.268034 0
M  V30 1415 H 131.131 5.98842 -1.23283 0
M  V30 1416 H 135.305 6.69273 -1.92476 0
M  V30 1417 H 132.932 7.2088 -2.41321 0
M  V30 1418 N 134.507 -0.190092 1.56449 0
M  V30 1419 C 135.437 -1.23816 1.97969 0
M  V30 1420 C 136.418 -1.47201 0.852395 0
M  V30 1421 O 137.603 -1.58854 1.1171 0
M  V30 1422 C 134.733 -2.5813 2.3235 0
M  V30 1423 C 133.687 -2.49348 3.47864 0
M  V30 1424 C 133.013 -3.8798 3.67934 0
M  V30 1425 C 134.313 -2.01424 4.81898 0
M  V30 1426 H 136.007 -0.89311 2.85769 0
M  V30 1427 H 133.553 -0.428177 1.37487 0
M  V30 1428 H 135.506 -3.31637 2.59991 0
M  V30 1429 H 134.23 -2.94386 1.41438 0
M  V30 1430 H 132.889 -1.78297 3.20321 0
M  V30 1431 H 132.537 -4.21597 2.74344 0
M  V30 1432 H 132.237 -3.82978 4.45648 0
M  V30 1433 H 133.761 -4.63101 3.97957 0
M  V30 1434 H 135.175 -2.64693 5.08538 0
M  V30 1435 H 133.572 -2.07413 5.63116 0
M  V30 1436 H 134.642 -0.967677 4.75146 0
M  V30 1437 N 135.985 -1.50799 -0.457987 0
M  V30 1438 C 136.895 -1.73426 -1.57989 0
M  V30 1439 C 137.911 -0.617745 -1.62665 0
M  V30 1440 O 139.087 -0.897614 -1.80291 0
M  V30 1441 C 136.152 -1.83557 -2.94122 0
M  V30 1442 C 135.213 -3.07345 -2.99729 0
M  V30 1443 C 134.446 -3.16983 -4.29368 0
M  V30 1444 O 134.669 -2.33077 -5.20607 0
M  V30 1445 O 133.603 -4.09812 -4.40837 0
M  V30 1446 H 137.429 -2.68555 -1.41817 0
M  V30 1447 H 135.014 -1.35052 -0.638859 0
M  V30 1448 H 136.896 -1.92326 -3.74952 0
M  V30 1449 H 135.571 -0.916137 -3.10465 0
M  V30 1450 H 134.478 -3.04068 -2.1793 0
M  V30 1451 H 135.811 -3.9891 -2.88326 0
M  V30 1452 N 137.463 0.71206 -1.40597 0
M  V30 1453 C 138.41 1.82613 -1.41142 0
M  V30 1454 C 139.38 1.63925 -0.267903 0
M  V30 1455 O 140.565 1.85009 -0.466495 0
M  V30 1456 C 137.705 3.20354 -1.28324 0
M  V30 1457 C 136.818 3.50589 -2.52411 0
M  V30 1458 C 135.953 4.77855 -2.32009 0
M  V30 1459 C 134.992 5.01005 -3.51654 0
M  V30 1460 N 134.129 6.19487 -3.30425 0
M  V30 1461 H 138.969 1.81482 -2.36365 0
M  V30 1462 H 136.506 0.886475 -1.17388 0
M  V30 1463 H 138.464 3.99899 -1.18899 0
M  V30 1464 H 137.094 3.20705 -0.367189 0
M  V30 1465 H 136.146 2.65573 -2.72351 0
M  V30 1466 H 137.458 3.63604 -3.41458 0
M  V30 1467 H 136.612 5.65424 -2.19956 0
M  V30 1468 H 135.351 4.67056 -1.40392 0
M  V30 1469 H 134.356 4.1189 -3.64179 0
M  V30 1470 H 135.581 5.13674 -4.44202 0
M  V30 1471 H 133.527 6.09932 -2.41494 0
M  V30 1472 H 133.444 6.33194 -4.13039 0
M  V30 1473 H 134.712 7.09834 -3.22113 0
M  V30 1474 N 138.941 1.26152 0.944643 0
M  V30 1475 C 139.871 1.09902 2.06019 0
M  V30 1476 C 140.852 0.00519538 1.70099 0
M  V30 1477 O 142.037 0.176583 1.93396 0
M  V30 1478 C 139.167 0.727562 3.39594 0
M  V30 1479 C 138.121 1.77274 3.89561 0
M  V30 1480 C 137.447 1.25569 5.19747 0
M  V30 1481 C 138.747 3.17357 4.14827 0
M  V30 1482 H 140.441 2.03217 2.19871 0
M  V30 1483 H 137.987 0.978452 1.05652 0
M  V30 1484 H 139.94 0.600777 4.17095 0
M  V30 1485 H 138.664 -0.241287 3.25707 0
M  V30 1486 H 137.323 1.88814 3.14237 0
M  V30 1487 H 136.971 0.276783 5.02238 0
M  V30 1488 H 136.671 1.95433 5.54148 0
M  V30 1489 H 138.195 1.1415 5.99835 0
M  V30 1490 H 139.609 3.08914 4.82954 0
M  V30 1491 H 138.006 3.84781 4.60504 0
M  V30 1492 H 139.076 3.63673 3.20734 0
M  V30 1493 N 140.419 -1.14872 1.07899 0
M  V30 1494 C 141.366 -2.19791 0.704319 0
M  V30 1495 C 142.336 -1.63238 -0.306987 0
M  V30 1496 O 143.521 -1.8983 -0.192171 0
M  V30 1497 C 140.661 -3.44911 0.114244 0
M  V30 1498 C 139.774 -4.15637 1.1777 0
M  V30 1499 C 138.909 -5.28324 0.552037 0
M  V30 1500 C 137.948 -5.90875 1.59789 0
M  V30 1501 N 137.085 -6.95022 0.994404 0
M  V30 1502 H 141.925 -2.5119 1.60336 0
M  V30 1503 H 139.462 -1.23356 0.801352 0
M  V30 1504 H 141.42 -4.16477 -0.245544 0
M  V30 1505 H 140.05 -3.14011 -0.74813 0
M  V30 1506 H 139.102 -3.42512 1.65499 0
M  V30 1507 H 140.414 -4.5823 1.97046 0
M  V30 1508 H 139.568 -6.06538 0.1402 0
M  V30 1509 H 138.307 -4.86939 -0.272431 0
M  V30 1510 H 137.312 -5.11369 2.01945 0
M  V30 1511 H 138.537 -6.34337 2.42474 0
M  V30 1512 H 136.483 -6.55722 0.190939 0
M  V30 1513 H 136.4 -7.36073 1.72432 0
M  V30 1514 H 137.668 -7.77123 0.608253 0
M  V30 1515 N 141.898 -0.863906 -1.31812 0
M  V30 1516 C 143.309 -0.52522 -1.7916 0
M  V30 1517 C 143.66 0.957518 -1.71248 0
M  V30 1518 O 142.785 1.74734 -1.27659 0
M  V30 1519 C 143.38 -0.9466 -3.25307 0
M  V30 1520 C 141.939 -0.659668 -3.70574 0
M  V30 1521 C 141.086 -1.14126 -2.52726 0
M  V30 1522 H 144.037 -1.05022 -1.1898 0
M  V30 1523 H 144.058 -0.266766 -3.79564 0
M  V30 1524 H 143.57 -2.02579 -3.31034 0
M  V30 1525 H 141.671 0.408416 -3.70355 0
M  V30 1526 H 141.784 -1.23245 -4.62977 0
M  V30 1527 H 140.148 -0.561216 -2.4844 0
M  V30 1528 H 140.931 -2.22775 -2.61201 0
M  V30 1529 N 143.376 1.44774 -0.622745 0
M  V30 1530 C 144.286 2.34433 0.0886031 0
M  V30 1531 C 145.302 1.52131 0.844529 0
M  V30 1532 O 146.478 1.84886 0.798691 0
M  V30 1533 C 143.543 3.29986 1.0635 0
M  V30 1534 C 142.604 4.28195 0.307873 0
M  V30 1535 C 141.837 5.19183 1.23633 0
M  V30 1536 O 142.06 5.13918 2.47476 0
M  V30 1537 O 140.994 5.97515 0.725189 0
M  V30 1538 H 144.82 2.96693 -0.648599 0
M  V30 1539 H 142.405 1.44408 -0.382957 0
M  V30 1540 H 144.287 3.88825 1.6246 0
M  V30 1541 H 142.962 2.70269 1.78146 0
M  V30 1542 H 141.869 3.72927 -0.296064 0
M  V30 1543 H 143.202 4.90808 -0.3699 0
M  V30 1544 N 144.854 0.36279 1.53368 0
M  V30 1545 C 146.102 -0.227326 2.00817 0
M  V30 1546 C 146.423 -1.49511 1.25186 0
M  V30 1547 O 145.693 -1.92482 0.364348 0
M  V30 1548 H 144.273 -0.0869923 0.741917 0
M  V30 1549 H 146.935 0.488381 1.88682 0
M  V30 1550 H 146.031 -0.456273 3.08747 0
M  V30 1551 N 146.332 -1.57332 0.0918853 0
M  V30 1552 C 147.262 -2.16872 -0.865371 0
M  V30 1553 C 148.243 -1.10118 -1.29646 0
M  V30 1554 O 149.428 -1.38242 -1.36392 0
M  V30 1555 C 146.558 -2.74649 -2.12569 0
M  V30 1556 C 145.512 -3.86747 -1.83333 0
M  V30 1557 C 144.838 -4.31212 -3.16166 0
M  V30 1558 C 146.138 -5.10089 -1.1228 0
M  V30 1559 H 147.832 -2.97114 -0.369307 0
M  V30 1560 H 145.378 -1.42918 -0.176194 0
M  V30 1561 H 147.331 -3.14952 -2.7997 0
M  V30 1562 H 146.055 -1.91657 -2.64452 0
M  V30 1563 H 144.714 -3.46978 -1.18331 0
M  V30 1564 H 144.362 -3.45115 -3.6593 0
M  V30 1565 H 144.062 -5.06788 -2.97388 0
M  V30 1566 H 145.586 -4.74146 -3.84731 0
M  V30 1567 H 147 -5.47582 -1.69785 0
M  V30 1568 H 145.397 -5.91073 -1.03693 0
M  V30 1569 H 146.467 -4.84786 -0.105041 0
M  V30 1570 N 147.81 0.181792 -1.56548 0
M  V30 1571 C 148.76 1.22961 -1.92002 0
M  V30 1572 C 149.744 1.40331 -0.787146 0
M  V30 1573 O 150.936 1.42478 -1.05019 0
M  V30 1574 C 148.065 2.57144 -2.27446 0
M  V30 1575 C 147.151 2.43512 -3.47222 0
M  V30 1576 N 147.542 1.99577 -4.64761 0
M  V30 1577 C 145.84 2.74368 -3.51622 0
M  V30 1578 C 146.541 1.98156 -5.46909 0
M  V30 1579 N 145.517 2.40164 -4.8767 0
M  V30 1580 H 149.319 0.881462 -2.8037 0
M  V30 1581 H 146.833 0.390141 -1.57644 0
M  V30 1582 H 148.83 3.32847 -2.51035 0
M  V30 1583 H 147.49 2.92771 -1.40411 0
M  V30 1584 H 148.501 1.70078 -4.89177 0
M  V30 1585 H 145.178 3.14102 -2.75038 0
M  V30 1586 H 146.568 1.65975 -6.51077 0
M  V30 1587 N 149.288 1.51039 0.449983 0
M  V30 1588 C 150.22 1.67617 1.56324 0
M  V30 1589 C 151.233 0.557083 1.52972 0
M  V30 1590 O 152.422 0.830989 1.57977 0
M  V30 1591 C 149.522 1.66402 2.95235 0
M  V30 1592 C 148.695 2.9469 3.23229 0
M  V30 1593 C 147.754 2.85832 4.41799 0
M  V30 1594 O 146.78 3.59785 4.41071 0
M  V30 1595 N 147.982 2.00821 5.44657 0
M  V30 1596 H 150.747 2.63648 1.42512 0
M  V30 1597 H 148.308 1.48767 0.638737 0
M  V30 1598 H 150.3 1.58062 3.72557 0
M  V30 1599 H 148.87 0.780182 3.02708 0
M  V30 1600 H 148.09 3.16996 2.34323 0
M  V30 1601 H 149.378 3.79636 3.38754 0
M  V30 1602 H 148.776 1.40091 5.48079 0
M  V30 1603 H 147.333 1.98368 6.20881 0
M  V30 1604 N 150.766 -0.704594 1.40972 0
M  V30 1605 C 151.696 -1.83124 1.44872 0
M  V30 1606 C 152.677 -1.67281 0.30838 0
M  V30 1607 O 153.862 -1.87149 0.518556 0
M  V30 1608 C 150.992 -3.21181 1.32136 0
M  V30 1609 C 149.946 -3.51714 2.43888 0
M  V30 1610 C 149.272 -4.89032 2.16222 0
M  V30 1611 C 150.572 -3.516 3.86232 0
M  V30 1612 H 152.266 -1.80117 2.39161 0
M  V30 1613 H 149.812 -0.865145 1.15114 0
M  V30 1614 H 151.765 -3.99702 1.33479 0
M  V30 1615 H 150.489 -3.24791 0.343279 0
M  V30 1616 H 149.148 -2.75539 2.41813 0
M  V30 1617 H 148.796 -4.89256 1.16778 0
M  V30 1618 H 148.496 -5.10426 2.911 0
M  V30 1619 H 150.02 -5.69873 2.19265 0
M  V30 1620 H 151.434 -4.2014 3.9007 0
M  V30 1621 H 149.831 -3.84523 4.60719 0
M  V30 1622 H 150.901 -2.50757 4.15029 0
M  V30 1623 N 152.244 -1.26651 -0.937939 0
M  V30 1624 C 153.174 -1.10993 -2.05433 0
M  V30 1625 C 154.155 -0.0142161 -1.70094 0
M  V30 1626 O 155.34 -0.186837 -1.93299 0
M  V30 1627 C 152.47 -0.745561 -3.39203 0
M  V30 1628 C 151.424 -1.79337 -3.88616 0
M  V30 1629 C 150.75 -1.28324 -5.19073 0
M  V30 1630 C 152.05 -3.19553 -4.13138 0
M  V30 1631 H 153.744 -2.0438 -2.1879 0
M  V30 1632 H 151.29 -0.984041 -1.05131 0
M  V30 1633 H 153.243 -0.622888 -4.16771 0
M  V30 1634 H 151.967 0.22401 -3.25831 0
M  V30 1635 H 150.626 -1.90477 -3.13231 0
M  V30 1636 H 150.274 -0.303414 -5.02084 0
M  V30 1637 H 149.974 -1.98369 -5.53103 0
M  V30 1638 H 151.498 -1.1733 -5.99221 0
M  V30 1639 H 152.912 -3.11471 -4.81309 0
M  V30 1640 H 151.309 -3.87218 -4.58457 0
M  V30 1641 H 152.379 -3.65368 -3.18801 0
M  V30 1642 N 153.722 1.14298 -1.08507 0
M  V30 1643 C 154.685 2.17607 -0.719711 0
M  V30 1644 C 155.685 1.58907 0.245997 0
M  V30 1645 O 156.875 1.74181 0.0254081 0
M  V30 1646 C 154.007 3.40842 -0.0627695 0
M  V30 1647 H 155.2 2.51443 -1.63452 0
M  V30 1648 H 152.753 1.28963 -0.88307 0
M  V30 1649 H 153.488 3.12587 0.863716 0
M  V30 1650 H 153.273 3.84713 -0.757504 0
M  V30 1651 H 154.763 4.17221 0.177786 0
M  V30 1652 N 155.201 0.870884 1.31352 0
M  V30 1653 C 156.449 0.48132 1.96285 0
M  V30 1654 C 156.77 -0.969813 1.69173 0
M  V30 1655 O 156.04 -1.67998 1.00764 0
M  V30 1656 H 154.62 0.175002 0.726212 0
M  V30 1657 H 157.282 1.11087 1.60143 0
M  V30 1658 H 156.378 0.639825 3.05471 0
M  V30 1659 N 156.679 -1.44442 0.630414 0
M  V30 1660 C 157.926 -2.02052 0.134617 0
M  V30 1661 C 158.254 -1.49576 -1.24327 0
M  V30 1662 O 157.509 -0.669806 -1.83881 0
M  V30 1663 C 157.808 -3.57332 0.0697835 0
M  V30 1664 C 157.474 -4.29058 1.38635 0
M  V30 1665 C 156.136 -4.4837 1.74694 0
M  V30 1666 C 158.488 -4.69872 2.25543 0
M  V30 1667 C 155.816 -5.05756 2.97369 0
M  V30 1668 C 158.168 -5.28616 3.47487 0
M  V30 1669 C 156.832 -5.46147 3.8377 0
M  V30 1670 H 156.102 -0.739361 0.0492598 0
M  V30 1671 H 158.749 -1.73217 0.816586 0
M  V30 1672 H 157.054 -3.85577 -0.695553 0
M  V30 1673 H 158.751 -3.99637 -0.330344 0
M  V30 1674 H 155.341 -4.14357 1.09574 0
M  V30 1675 H 159.525 -4.54666 1.98979 0
M  V30 1676 H 154.781 -5.17515 3.25558 0
M  V30 1677 H 158.955 -5.59192 4.15063 0
M  V30 1678 H 156.582 -5.9038 4.7891 0
M  V30 1679 N 158.157 -0.370918 -1.53173 0
M  V30 1680 C 159.067 0.480823 -2.2962 0
M  V30 1681 C 160.083 1.08789 -1.35798 0
M  V30 1682 O 161.259 1.09768 -1.68858 0
M  V30 1683 C 158.324 1.60227 -3.07454 0
M  V30 1684 C 157.385 1.0222 -4.16953 0
M  V30 1685 C 156.618 2.0902 -4.91066 0
M  V30 1686 O 156.841 3.30222 -4.65091 0
M  V30 1687 O 155.775 1.71778 -5.76867 0
M  V30 1688 H 159.601 -0.141421 -3.03371 0
M  V30 1689 H 157.186 -0.135146 -1.48787 0
M  V30 1690 H 159.068 2.25417 -3.56041 0
M  V30 1691 H 157.743 2.20982 -2.36535 0
M  V30 1692 H 156.65 0.334064 -3.72605 0
M  V30 1693 H 157.983 0.459131 -4.90054 0
M  V30 1694 N 159.635 1.57281 -0.100228 0
M  V30 1695 C 160.912 1.86014 0.604812 0
M  V30 1696 C 161.292 0.998025 1.86018 0
M  V30 1697 O 160.64 0.0718184 2.28387 0
M  V30 1698 C 160.85 3.36784 0.915278 0
M  V30 1699 C 162.198 4.04957 1.27651 0
M  V30 1700 O 163.222 3.41695 1.00613 0
M  V30 1701 O 162.081 5.16593 1.7831 0
M  V30 1702 H 159.175 0.76942 0.303185 0
M  V30 1703 H 161.721 1.69176 -0.133313 0
M  V30 1704 H 160.493 3.91292 0.0248896 0
M  V30 1705 H 160.116 3.58987 1.70921 0
M  V30 1706 N 161.113 -0.173488 1.56642 0
M  V30 1707 C 162.06 -1.21482 1.96242 0
M  V30 1708 C 163.03 -1.44104 0.826027 0
M  V30 1709 O 164.215 -1.5688 1.08597 0
M  V30 1710 C 161.355 -2.54964 2.32567 0
M  V30 1711 C 160.468 -2.39739 3.59373 0
M  V30 1712 C 159.603 -3.66072 3.84921 0
M  V30 1713 C 158.642 -3.45771 5.05083 0
M  V30 1714 N 157.779 -4.64169 5.26775 0
M  V30 1715 H 162.619 -0.870123 2.85014 0
M  V30 1716 H 160.156 -0.418245 1.41029 0
M  V30 1717 H 162.114 -3.32758 2.5165 0
M  V30 1718 H 160.744 -2.87433 1.46908 0
M  V30 1719 H 159.796 -1.53131 3.48217 0
M  V30 1720 H 161.108 -2.20683 4.47326 0
M  V30 1721 H 160.262 -4.52303 4.0436 0
M  V30 1722 H 159.001 -3.88105 2.9534 0
M  V30 1723 H 158.006 -2.57927 4.85545 0
M  V30 1724 H 159.231 -3.25163 5.96193 0
M  V30 1725 H 157.177 -4.86425 4.40144 0
M  V30 1726 H 157.094 -4.48019 6.08946 0
M  V30 1727 H 158.362 -5.51689 5.5069 0
M  V30 1728 N 162.591 -1.51276 -0.441967 0
M  V30 1729 C 163.816 -1.67799 -1.21895 0
M  V30 1730 C 164.241 -0.372864 -1.84367 0
M  V30 1731 O 163.599 0.666501 -1.68604 0
M  V30 1732 C 163.647 -2.79199 -2.28211 0
M  V30 1733 O 162.751 -2.42479 -3.33583 0
M  V30 1734 H 162.092 -0.559649 -0.357336 0
M  V30 1735 H 164.622 -1.97815 -0.522522 0
M  V30 1736 H 164.632 -3.03146 -2.73069 0
M  V30 1737 H 163.307 -3.73906 -1.82118 0
M  V30 1738 H 161.884 -2.29087 -2.94234 0
M  V30 1739 N 164.069 0.697108 -1.41344 0
M  V30 1740 C 165.032 1.79281 -1.42797 0
M  V30 1741 C 166.032 1.57607 -0.318837 0
M  V30 1742 O 167.222 1.64309 -0.578642 0
M  V30 1743 C 164.354 3.17632 -1.23785 0
M  V30 1744 H 165.547 1.79385 -2.40335 0
M  V30 1745 H 163.1 0.904582 -1.27464 0
M  V30 1746 H 163.835 3.23167 -0.270814 0
M  V30 1747 H 163.62 3.34765 -2.04144 0
M  V30 1748 H 165.11 3.97617 -1.27633 0
M  V30 1749 N 165.547 1.27147 0.931209 0
M  V30 1750 C 166.777 1.15914 1.71019 0
M  V30 1751 C 167.185 -0.287112 1.87009 0
M  V30 1752 O 166.528 -1.20761 1.38429 0
M  V30 1753 C 166.59 1.76647 3.13107 0
M  V30 1754 C 166.254 3.25807 3.20467 0
M  V30 1755 C 167.251 4.22489 3.02983 0
M  V30 1756 C 164.936 3.66452 3.43538 0
M  V30 1757 C 166.93 5.57794 3.08454 0
M  V30 1758 C 164.617 5.01888 3.48643 0
M  V30 1759 C 165.615 5.97369 3.31119 0
M  V30 1760 O 165.303 7.30337 3.35952 0
M  V30 1761 H 165.035 0.404062 0.54195 0
M  V30 1762 H 167.589 1.68457 1.17521 0
M  V30 1763 H 165.819 1.18578 3.68071 0
M  V30 1764 H 167.508 1.60179 3.72958 0
M  V30 1765 H 168.274 3.92425 2.85004 0
M  V30 1766 H 164.153 2.92611 3.5623 0
M  V30 1767 H 167.697 6.32298 2.94694 0
M  V30 1768 H 163.594 5.31609 3.66145 0
M  V30 1769 H 164.362 7.38739 3.5243 0
M  V30 1770 N 167.025 -1.13721 1.09112 0
M  V30 1771 C 167.988 -2.17222 0.731241 0
M  V30 1772 C 168.988 -1.59035 -0.237566 0
M  V30 1773 O 170.178 -1.74192 -0.0161704 0
M  V30 1774 C 167.31 -3.40804 0.0808443 0
M  V30 1775 H 168.503 -2.50573 1.64783 0
M  V30 1776 H 166.056 -1.28493 0.889897 0
M  V30 1777 H 166.791 -3.1304 -0.847127 0
M  V30 1778 H 166.576 -3.84306 0.777896 0
M  V30 1779 H 168.066 -4.1731 -0.155657 0
M  V30 1780 N 168.503 -0.877838 -1.30888 0
M  V30 1781 C 169.433 -0.35534 -2.3078 0
M  V30 1782 C 170.414 0.557994 -1.60687 0
M  V30 1783 O 171.599 0.473355 -1.88343 0
M  V30 1784 C 168.729 0.437221 -3.44537 0
M  V30 1785 C 167.683 -0.383715 -4.26276 0
M  V30 1786 C 167.009 0.535014 -5.32017 0
M  V30 1787 C 168.309 -1.62201 -4.96476 0
M  V30 1788 H 170.003 -1.19007 -2.74732 0
M  V30 1789 H 167.549 -0.573698 -1.32078 0
M  V30 1790 H 169.502 0.813334 -4.13477 0
M  V30 1791 H 168.226 1.30553 -2.99372 0
M  V30 1792 H 166.885 -0.741874 -3.59015 0
M  V30 1793 H 166.533 1.40083 -4.831 0
M  V30 1794 H 166.233 -0.0104211 -5.87599 0
M  V30 1795 H 167.757 0.907799 -6.03814 0
M  V30 1796 H 169.171 -1.31689 -5.5797 0
M  V30 1797 H 167.568 -2.10711 -5.61891 0
M  V30 1798 H 168.638 -2.37044 -4.23011 0
M  V30 1799 N 169.982 1.44106 -0.638065 0
M  V30 1800 C 171.222 2.03858 -0.148733 0
M  V30 1801 C 171.586 1.49153 1.20903 0
M  V30 1802 O 172.787 2.00452 1.79088 0
M  V30 1803 C 171.058 3.57117 -0.142314 0
M  V30 1804 S 172.617 4.37897 0.281385 0
M  V30 1805 H 169.435 0.708069 -0.0644912 0
M  V30 1806 H 172.037 1.7639 -0.843009 0
M  V30 1807 H 170.741 3.94436 -1.13349 0
M  V30 1808 H 170.272 3.89205 0.572988 0
M  V30 1809 H 172.287 4.72218 1.52395 0
M  V30 1810 N 171.46 0.379036 1.52974 0
M  V30 1811 C 172.688 -0.20679 2.05864 0
M  V30 1812 C 173.103 -1.41356 1.25155 0
M  V30 1813 O 172.46 -1.8009 0.295588 0
M  V30 1814 C 172.511 -0.587045 3.56702 0
M  V30 1815 O 172.232 0.571776 4.34353 0
M  V30 1816 C 173.733 -1.22983 4.25899 0
M  V30 1817 H 170.953 -0.0336123 0.670158 0
M  V30 1818 H 173.497 0.541298 1.97206 0
M  V30 1819 H 171.652 -1.28504 3.65466 0
M  V30 1820 H 172.066 0.261544 5.23847 0
M  V30 1821 H 173.54 -1.44635 5.32715 0
M  V30 1822 H 174.017 -2.19416 3.80465 0
M  V30 1823 H 174.623 -0.572892 4.21424 0
M  V30 1824 N 172.938 -1.57226 0.108567 0
M  V30 1825 C 174.185 -1.94833 -0.551943 0
M  V30 1826 C 174.513 -0.991204 -1.67348 0
M  V30 1827 O 173.768 -0.0131878 -1.95696 0
M  V30 1828 C 174.067 -3.38911 -1.13463 0
M  V30 1829 C 173.733 -4.50696 -0.135509 0
M  V30 1830 C 172.395 -4.80998 0.139252 0
M  V30 1831 C 174.747 -5.18333 0.545957 0
M  V30 1832 C 172.075 -5.76259 1.10194 0
M  V30 1833 C 174.427 -6.14627 1.49721 0
M  V30 1834 C 173.091 -6.43327 1.78006 0
M  V30 1835 H 172.361 -0.712944 -0.20197 0
M  V30 1836 H 175.008 -1.90582 0.18726 0
M  V30 1837 H 173.313 -3.39805 -1.95037 0
M  V30 1838 H 175.01 -3.65317 -1.65362 0
M  V30 1839 H 171.6 -4.27087 -0.359846 0
M  V30 1840 H 175.784 -4.95087 0.346842 0
M  V30 1841 H 171.04 -5.96804 1.32795 0
M  V30 1842 H 175.214 -6.66126 2.03099 0
M  V30 1843 H 172.841 -7.1695 2.52759 0
M  V30 1844 N 174.416 0.165178 -1.56732 0
M  V30 1845 C 175.379 1.18822 -1.95995 0
M  V30 1846 C 176.379 1.3685 -0.84431 0
M  V30 1847 O 177.569 1.34152 -1.11126 0
M  V30 1848 C 174.701 2.5521 -2.26011 0
M  V30 1849 H 175.894 0.851825 -2.87548 0
M  V30 1850 H 173.447 0.407857 -1.50885 0
M  V30 1851 H 174.182 2.93852 -1.37191 0
M  V30 1852 H 173.967 2.43489 -3.07336 0
M  V30 1853 H 175.457 3.28927 -2.57288 0
M  V30 1854 N 175.894 1.51508 0.433938 0
M  V30 1855 C 176.824 1.76016 1.53429 0
M  V30 1856 C 177.805 0.610112 1.58782 0
M  V30 1857 O 178.99 0.853177 1.74455 0
M  V30 1858 C 176.12 1.88831 2.9148 0
M  V30 1859 C 175.074 3.04288 3.00987 0
M  V30 1860 C 174.4 3.0229 4.4105 0
M  V30 1861 C 175.7 4.44193 2.74754 0
M  V30 1862 H 177.394 2.68152 1.33171 0
M  V30 1863 H 174.94 1.29035 0.639214 0
M  V30 1864 H 176.893 2.04559 3.6842 0
M  V30 1865 H 175.617 0.933455 3.12976 0
M  V30 1866 H 174.276 2.8827 2.26486 0
M  V30 1867 H 173.924 2.04576 4.59519 0
M  V30 1868 H 173.624 3.79822 4.4834 0
M  V30 1869 H 175.148 3.20116 5.1996 0
M  V30 1870 H 176.562 4.60544 3.41426 0
M  V30 1871 H 174.959 5.23457 2.9345 0
M  V30 1872 H 176.029 4.53996 1.70339 0
M  V30 1873 N 177.372 -0.689602 1.41712 0
M  V30 1874 C 178.597 -1.48329 1.44959 0
M  V30 1875 C 179.022 -1.8801 0.0581283 0
M  V30 1876 O 178.38 -1.55026 -0.940035 0
M  V30 1877 C 178.428 -2.71835 2.36935 0
M  V30 1878 O 177.532 -3.69549 1.8305 0
M  V30 1879 H 176.873 -0.446199 0.491734 0
M  V30 1880 H 179.403 -0.847127 1.86239 0
M  V30 1881 H 179.413 -3.20076 2.53013 0
M  V30 1882 H 178.088 -2.42291 3.38035 0
M  V30 1883 H 176.665 -3.2851 1.76452 0
M  V30 1884 N 178.85 -1.27639 -0.924453 0
M  V30 1885 C 180.078 -1.16989 -1.70649 0
M  V30 1886 C 180.493 0.272869 -1.86818 0
M  V30 1887 O 179.85 1.18549 -1.38753 0
M  V30 1888 C 179.901 -1.85229 -3.10439 0
M  V30 1889 O 179.622 -3.23868 -2.95028 0
M  V30 1890 C 181.123 -1.80746 -4.04779 0
M  V30 1891 H 178.343 -0.406595 -0.53378 0
M  V30 1892 H 180.887 -1.68569 -1.15778 0
M  V30 1893 H 179.042 -1.37545 -3.6216 0
M  V30 1894 H 179.456 -3.57889 -3.83426 0
M  V30 1895 H 180.93 -2.33101 -5.00368 0
M  V30 1896 H 181.407 -0.777499 -4.32263 0
M  V30 1897 H 182.013 -2.28059 -3.58984 0
M  V30 1898 N 180.328 1.1314 -1.09713 0
M  V30 1899 C 181.576 1.84119 -0.833338 0
M  V30 1900 C 181.897 1.84097 0.642904 0
M  V30 1901 O 181.167 1.29881 1.46655 0
M  V30 1902 H 179.747 0.681766 -0.305293 0
M  V30 1903 H 182.409 1.37038 -1.38588 0
M  V30 1904 H 181.505 2.88543 -1.18951 0
M  V30 1905 N 181.806 0.884767 1.30421 0
M  V30 1906 C 183.083 0.423185 1.90967 0
M  V30 1907 C 183.463 -1.09605 1.80416 0
M  V30 1908 O 182.811 -1.93126 1.22125 0
M  V30 1909 C 183.021 0.921056 3.36627 0
M  V30 1910 C 184.369 0.955903 4.137 0
M  V30 1911 O 185.393 0.867706 3.4547 0
M  V30 1912 O 184.252 1.08614 5.35598 0
M  V30 1913 H 181.346 0.129369 0.816819 0
M  V30 1914 H 183.892 0.973653 1.3899 0
M  V30 1915 H 182.664 1.96489 3.3839 0
M  V30 1916 H 182.287 0.349741 3.96059 0
M  V30 1917 N 183.284 -1.43765 0.645699 0
M  V30 1918 C 184.695 -1.85193 0.236719 0
M  V30 1919 C 185.046 -1.54045 -1.21509 0
M  V30 1920 O 184.171 -0.985694 -1.92647 0
M  V30 1921 C 184.766 -3.36151 0.422845 0
M  V30 1922 C 183.325 -3.76338 0.0682492 0
M  V30 1923 C 182.472 -2.67538 0.729306 0
M  V30 1924 H 185.423 -1.34025 0.849883 0
M  V30 1925 H 185.444 -3.79032 -0.333904 0
M  V30 1926 H 184.956 -3.5879 1.47958 0
M  V30 1927 H 183.057 -3.59312 -0.986179 0
M  V30 1928 H 183.17 -4.76603 0.488469 0
M  V30 1929 H 181.534 -2.54176 0.163235 0
M  V30 1930 H 182.317 -2.93006 1.78892 0
M  V30 1931 N 184.763 -0.387143 -1.52771 0
M  V30 1932 C 185.988 0.198407 -2.06449 0
M  V30 1933 C 186.413 1.39918 -1.25716 0
M  V30 1934 O 185.771 1.79099 -0.281657 0
M  V30 1935 C 185.819 0.548893 -3.56398 0
M  V30 1936 O 184.923 1.64315 -3.78252 0
M  V30 1937 H 184.264 0.0237731 -0.663574 0
M  V30 1938 H 186.794 -0.553989 -1.96957 0
M  V30 1939 H 186.804 0.813812 -3.99801 0
M  V30 1940 H 185.479 -0.329005 -4.14597 0
M  V30 1941 H 184.056 1.37211 -3.46738 0
M  V30 1942 N 186.241 1.57166 -0.116904 0
M  V30 1943 C 187.173 2.12271 0.864507 0
M  V30 1944 C 188.186 1.06494 1.23138 0
M  V30 1945 O 189.375 1.33873 1.18069 0
M  V30 1946 C 186.475 2.60564 2.16702 0
M  V30 1947 C 185.648 3.90416 1.97216 0
M  V30 1948 C 184.707 4.24329 3.11178 0
M  V30 1949 O 183.733 4.93182 2.84184 0
M  V30 1950 N 184.935 3.8148 4.37554 0
M  V30 1951 H 187.7 2.97102 0.393726 0
M  V30 1952 H 185.261 1.61759 0.0675805 0
M  V30 1953 H 187.253 2.80282 2.91932 0
M  V30 1954 H 185.823 1.80623 2.55135 0
M  V30 1955 H 185.043 3.79627 1.06192 0
M  V30 1956 H 186.331 4.75327 1.81499 0
M  V30 1957 H 185.729 3.25943 4.62361 0
M  V30 1958 H 184.286 4.06311 5.09661 0
M  V30 1959 N 187.719 -0.156864 1.56817 0
M  V30 1960 C 189.13 -0.717916 1.72345 0
M  V30 1961 C 189.481 -1.82124 0.729747 0
M  V30 1962 O 188.606 -2.16141 -0.105781 0
M  V30 1963 C 189.201 -1.30904 3.12489 0
M  V30 1964 C 187.76 -1.81676 3.29653 0
M  V30 1965 C 186.907 -0.701349 2.68284 0
M  V30 1966 H 189.858 0.0686989 1.58551 0
M  V30 1967 H 189.879 -2.17882 3.11942 0
M  V30 1968 H 189.391 -0.505796 3.8479 0
M  V30 1969 H 187.492 -2.64598 2.62333 0
M  V30 1970 H 187.605 -1.95226 4.3752 0
M  V30 1971 H 185.969 -1.12548 2.28484 0
M  V30 1972 H 186.752 0.0902846 3.43181 0
M  V30 1973 N 189.197 -1.51736 -0.425897 0
M  V30 1974 C 190.443 -1.65214 -1.1761 0
M  V30 1975 C 190.776 -0.372778 -1.90589 0
M  V30 1976 O 190.051 0.628139 -1.84078 0
M  V30 1977 C 190.334 -2.86312 -2.18398 0
M  V30 1978 C 190.187 -4.24254 -1.49426 0
M  V30 1979 C 191.506 -3.02925 -3.19256 0
M  V30 1980 H 188.625 -0.601263 -0.426206 0
M  V30 1981 H 191.267 -1.8425 -0.463882 0
M  V30 1982 H 189.417 -2.70213 -2.79137 0
M  V30 1983 H 191.089 -4.52046 -0.919362 0
M  V30 1984 H 189.332 -4.26426 -0.796432 0
M  V30 1985 H 190.003 -5.05001 -2.22885 0
M  V30 1986 H 192.479 -3.1781 -2.68581 0
M  V30 1987 H 191.355 -3.89199 -3.8706 0
M  V30 1988 H 191.616 -2.15497 -3.86023 0
M  V30 1989 N 190.675 0.682077 -1.42076 0
M  V30 1990 C 192.091 0.994324 -1.24841 0
M  V30 1991 C 192.291 2.0096 -0.147389 0
M  V30 1992 O 191.347 2.47822 0.483782 0
M  V30 1993 C 192.66 1.50607 -2.60265 0
M  V30 1994 C 194.208 1.62421 -2.6756 0
M  V30 1995 C 194.683 2.16994 -4.03333 0
M  V30 1996 N 196.174 2.24337 -4.0525 0
M  V30 1997 C 196.909 2.67621 -5.07116 0
M  V30 1998 N 196.405 3.1041 -6.19368 0
M  V30 1999 N 198.198 2.67305 -4.94474 0
M  V30 2000 H 190.349 0.00973908 -2.12398 0
M  V30 2001 H 192.612 0.0668593 -0.945639 0
M  V30 2002 H 192.318 0.834583 -3.41654 0
M  V30 2003 H 192.192 2.48602 -2.83684 0
M  V30 2004 H 194.579 2.28678 -1.86521 0
M  V30 2005 H 194.66 0.629352 -2.47937 0
M  V30 2006 H 194.304 1.51349 -4.84826 0
M  V30 2007 H 194.234 3.17258 -4.20304 0
M  V30 2008 H 196.725 1.94158 -3.24209 0
M  V30 2009 H 197.038 3.42103 -6.92954 0
M  V30 2010 H 195.383 3.08286 -6.22884 0
M  V30 2011 H 198.574 2.33233 -4.05857 0
M  V30 2012 H 198.747 3.00718 -5.73997 0
M  V30 2013 N 192.153 1.28127 0.917671 0
M  V30 2014 C 193.083 1.14248 2.03641 0
M  V30 2015 C 194.064 0.0412748 1.7005 0
M  V30 2016 O 195.249 0.217566 1.92977 0
M  V30 2017 C 192.379 0.799431 3.37974 0
M  V30 2018 C 191.333 1.85497 3.85713 0
M  V30 2019 C 190.659 1.36565 5.16966 0
M  V30 2020 C 191.959 3.26085 4.08002 0
M  V30 2021 H 193.653 2.07835 2.15511 0
M  V30 2022 H 191.199 1.00064 1.03553 0
M  V30 2023 H 193.152 0.689114 4.15727 0
M  V30 2024 H 191.876 -0.172145 3.26146 0
M  V30 2025 H 190.535 1.95437 3.10161 0
M  V30 2026 H 190.183 0.383253 5.01538 0
M  V30 2027 H 189.883 2.07143 5.49878 0
M  V30 2028 H 191.407 1.26848 5.97279 0
M  V30 2029 H 192.821 3.19089 4.76293 0
M  V30 2030 H 191.218 3.94462 4.52238 0
M  V30 2031 H 192.288 3.70394 3.12948 0
M  V30 2032 N 193.631 -1.12557 1.10312 0
M  V30 2033 C 194.878 -1.84038 0.844759 0
M  V30 2034 C 195.206 -1.84026 -0.629668 0
M  V30 2035 O 194.461 -1.28026 -1.48013 0
M  V30 2036 C 194.76 -3.31462 1.33669 0
M  V30 2037 C 194.426 -3.51647 2.82232 0
M  V30 2038 C 193.088 -3.56864 3.22802 0
M  V30 2039 C 195.44 -3.58867 3.77974 0
M  V30 2040 C 192.768 -3.66844 4.57867 0
M  V30 2041 C 195.12 -3.70375 5.1284 0
M  V30 2042 C 193.784 -3.73848 5.52986 0
M  V30 2043 H 193.054 -0.673444 0.309119 0
M  V30 2044 H 195.701 -1.32824 1.37949 0
M  V30 2045 H 194.006 -3.85091 0.721949 0
M  V30 2046 H 195.703 -3.85236 1.11329 0
M  V30 2047 H 192.293 -3.48249 2.49842 0
M  V30 2048 H 196.477 -3.54107 3.47738 0
M  V30 2049 H 191.733 -3.67804 4.88396 0
M  V30 2050 H 195.907 -3.74904 5.86873 0
M  V30 2051 H 193.534 -3.81333 6.57639 0
M  V30 2052 N 195.109 -0.891671 -1.2995 0
M  V30 2053 C 196.525 -0.58662 -1.48428 0
M  V30 2054 C 196.725 0.873951 -1.81561 0
M  V30 2055 O 195.781 1.65471 -1.90724 0
M  V30 2056 C 197.094 -1.50553 -2.60296 0
M  V30 2057 C 198.642 -1.50988 -2.74175 0
M  V30 2058 C 199.117 -2.41488 -3.89163 0
M  V30 2059 N 200.608 -2.39489 -3.96483 0
M  V30 2060 C 201.343 -3.06223 -4.84784 0
M  V30 2061 N 200.839 -3.82206 -5.77833 0
M  V30 2062 N 202.632 -2.95421 -4.78208 0
M  V30 2063 H 194.783 -1.83644 -1.06718 0
M  V30 2064 H 197.046 -0.786455 -0.529332 0
M  V30 2065 H 196.752 -2.54581 -2.42654 0
M  V30 2066 H 196.626 -1.22008 -3.56923 0
M  V30 2067 H 199.013 -0.47708 -2.91218 0
M  V30 2068 H 199.094 -1.83567 -1.78148 0
M  V30 2069 H 198.738 -3.44857 -3.72876 0
M  V30 2070 H 198.668 -2.06222 -4.84541 0
M  V30 2071 H 201.159 -1.84278 -3.29924 0
M  V30 2072 H 201.472 -4.302 -6.41988 0
M  V30 2073 H 199.817 -3.86313 -5.77743 0
M  V30 2074 H 203.008 -2.35581 -4.04499 0
M  V30 2075 H 203.181 -3.47704 -5.46814 0
M  V30 2076 N 196.587 1.43421 -0.653314 0
M  V30 2077 C 197.835 2.01414 -0.166415 0
M  V30 2078 C 198.156 1.51803 1.22397 0
M  V30 2079 O 197.426 0.730693 1.81763 0
M  V30 2080 H 196.006 0.744703 -0.0585319 0
M  V30 2081 H 198.668 1.75629 -0.845003 0
M  V30 2082 H 197.764 3.11734 -0.151111 0
M  V30 2083 N 198.065 0.39524 1.52563 0
M  V30 2084 C 199.481 0.0454682 1.59535 0
M  V30 2085 C 199.681 -1.44056 1.4089 0
M  V30 2086 O 198.737 -2.20579 1.22888 0
M  V30 2087 C 200.05 0.527963 2.96029 0
M  V30 2088 C 201.598 0.484733 3.09224 0
M  V30 2089 C 202.073 0.943512 4.48176 0
M  V30 2090 N 203.564 0.899765 4.54377 0
M  V30 2091 C 204.299 1.22609 5.60138 0
M  V30 2092 N 203.795 1.62319 6.73516 0
M  V30 2093 N 205.588 1.14696 5.50274 0
M  V30 2094 H 197.739 1.36261 1.62931 0
M  V30 2095 H 200.002 0.558887 0.765735 0
M  V30 2096 H 199.708 1.56607 3.14908 0
M  V30 2097 H 199.582 -0.0698056 3.77135 0
M  V30 2098 H 201.969 -0.544298 2.90037 0
M  V30 2099 H 202.05 1.11838 2.30056 0
M  V30 2100 H 201.694 1.9708 4.68104 0
M  V30 2101 H 201.624 0.286817 5.25818 0
M  V30 2102 H 204.115 0.607632 3.72983 0
M  V30 2103 H 204.428 1.85567 7.5019 0
M  V30 2104 H 202.773 1.66211 6.74833 0
M  V30 2105 H 205.964 0.835701 4.6058 0
M  V30 2106 H 206.137 1.40459 6.32594 0
M  V30 2107 N 199.544 -1.57102 0.125237 0
M  V30 2108 C 200.772 -1.99761 -0.538797 0
M  V30 2109 C 201.187 -1.00503 -1.59827 0
M  V30 2110 O 200.544 0.00119474 -1.825 0
M  V30 2111 C 200.595 -3.42408 -1.15927 0
M  V30 2112 O 200.316 -4.37869 -0.142143 0
M  V30 2113 C 201.817 -4.00232 -1.90602 0
M  V30 2114 H 199.037 -0.655772 -0.14214 0
M  V30 2115 H 201.581 -2.03383 0.213413 0
M  V30 2116 H 199.736 -3.39706 -1.86223 0
M  V30 2117 H 200.15 -5.21128 -0.593775 0
M  V30 2118 H 201.624 -5.02105 -2.29335 0
M  V30 2119 H 202.101 -3.39721 -2.78363 0
M  V30 2120 H 202.707 -4.06499 -1.25055 0
M  V30 2121 N 201.022 0.148545 -1.56898 0
M  V30 2122 C 202.247 0.880385 -1.87787 0
M  V30 2123 C 202.672 1.74018 -0.714093 0
M  V30 2124 O 202.03 1.78153 0.336343 0
M  V30 2125 C 202.078 1.71422 -3.17249 0
M  V30 2126 O 201.182 2.8183 -3.01074 0
M  V30 2127 H 200.523 0.245301 -0.617028 0
M  V30 2128 H 203.053 0.139826 -2.04122 0
M  V30 2129 H 203.063 2.10954 -3.49231 0
M  V30 2130 H 201.738 1.08284 -4.01556 0
M  V30 2131 H 200.315 2.45715 -2.80497 0
M  V30 2132 N 202.5 1.5196 0.417844 0
M  V30 2133 C 203.748 1.65263 1.16329 0
M  V30 2134 C 204.069 0.380634 1.91249 0
M  V30 2135 O 203.339 -0.604214 1.86349 0
M  V30 2136 H 201.919 0.60912 0.432414 0
M  V30 2137 H 204.581 1.88969 0.477162 0
M  V30 2138 H 203.677 2.4896 1.88217 0
M  V30 2139 N 203.978 -0.674533 1.42435 0
M  V30 2140 C 205.394 -0.98769 1.25367 0
M  V30 2141 C 205.594 -2.00879 0.158044 0
M  V30 2142 O 204.65 -2.48075 -0.470633 0
M  V30 2143 C 205.963 -1.49224 2.6106 0
M  V30 2144 C 207.511 -1.61 2.68417 0
M  V30 2145 C 207.986 -2.14852 4.04478 0
M  V30 2146 N 209.477 -2.22185 4.06434 0
M  V30 2147 C 210.212 -2.64928 5.08528 0
M  V30 2148 N 209.708 -3.07121 6.21006 0
M  V30 2149 N 211.501 -2.64679 4.95885 0
M  V30 2150 H 203.652 0.00152503 2.124 0
M  V30 2151 H 205.915 -0.0618434 0.945981 0
M  V30 2152 H 205.621 -0.816453 3.42092 0
M  V30 2153 H 205.495 -2.47094 2.84999 0
M  V30 2154 H 207.882 -2.27686 1.87732 0
M  V30 2155 H 207.963 -0.616195 2.48267 0
M  V30 2156 H 207.607 -1.48775 4.85622 0
M  V30 2157 H 207.537 -3.15024 4.2198 0
M  V30 2158 H 210.028 -1.92435 3.25234 0
M  V30 2159 H 210.341 -3.38423 6.94759 0
M  V30 2160 H 208.686 -3.04978 6.24511 0
M  V30 2161 H 211.877 -2.31078 4.07088 0
M  V30 2162 H 212.05 -2.9767 5.75584 0
M  V30 2163 N 205.456 -1.28612 -0.910864 0
M  V30 2164 C 206.705 -1.15311 -1.65488 0
M  V30 2165 C 207.018 0.296999 -1.93332 0
M  V30 2166 O 208.224 0.551168 -2.65847 0
M  V30 2167 C 206.68 -2.01599 -2.98137 0
M  V30 2168 C 206.288 -3.51367 -2.7793 0
M  V30 2169 C 208.032 -1.96993 -3.76024 0
M  V30 2170 C 205.939 -4.29797 -4.06237 0
M  V30 2171 H 204.869 -0.42796 -0.620779 0
M  V30 2172 H 207.52 -1.53166 -1.01057 0
M  V30 2173 H 205.902 -1.56603 -3.63719 0
M  V30 2174 H 207.076 -4.0434 -2.21011 0
M  V30 2175 H 205.391 -3.57529 -2.13452 0
M  V30 2176 H 207.988 -2.52856 -4.71135 0
M  V30 2177 H 208.331 -0.94733 -4.05378 0
M  V30 2178 H 208.864 -2.39973 -3.17266 0
M  V30 2179 H 205.603 -5.32648 -3.82055 0
M  V30 2180 H 205.123 -3.81596 -4.62757 0
M  V30 2181 H 206.802 -4.39869 -4.74473 0
M  V30 2182 N 206.934 1.1197 -1.10907 0
M  V30 2183 C 208.18 1.8386 -0.855773 0
M  V30 2184 C 208.513 1.84134 0.617103 0
M  V30 2185 O 207.788 1.29041 1.45529 0
M  V30 2186 C 208.071 3.31305 -1.411 0
M  V30 2187 C 207.924 3.39456 -2.9511 0
M  V30 2188 C 209.243 4.2721 -1.05736 0
M  V30 2189 H 206.362 0.667545 -0.312334 0
M  V30 2190 H 209.004 1.31331 -1.37303 0
M  V30 2191 H 207.154 3.76169 -0.97105 0
M  V30 2192 H 208.826 3.03191 -3.47668 0
M  V30 2193 H 207.069 2.79849 -3.31462 0
M  V30 2194 H 207.74 4.43209 -3.29044 0
M  V30 2195 H 210.216 3.90497 -1.43706 0
M  V30 2196 H 209.092 5.28775 -1.47269 0
M  V30 2197 H 209.353 4.42088 0.0325958 0
M  V30 2198 N 208.412 0.89855 1.29475 0
M  V30 2199 C 209.375 0.380272 2.26023 0
M  V30 2200 C 210.375 -0.484891 1.53315 0
M  V30 2201 O 211.565 -0.290108 1.71767 0
M  V30 2202 C 208.697 -0.45651 3.3783 0
M  V30 2203 H 209.89 1.23295 2.73383 0
M  V30 2204 H 207.443 0.676589 1.40897 0
M  V30 2205 H 208.178 -1.32922 2.95808 0
M  V30 2206 H 207.963 0.163393 3.91759 0
M  V30 2207 H 209.453 -0.810466 4.0966 0
M  V30 2208 N 209.89 -1.43072 0.660911 0
M  V30 2209 C 211.301 -1.84932 0.256348 0
M  V30 2210 C 211.652 -1.55325 -1.19868 0
M  V30 2211 O 210.777 -1.00607 -1.91591 0
M  V30 2212 C 211.372 -3.35684 0.458475 0
M  V30 2213 C 209.931 -3.76245 0.108161 0
M  V30 2214 C 209.078 -2.66749 0.757641 0
M  V30 2215 H 212.029 -1.33116 0.864051 0
M  V30 2216 H 212.05 -3.79365 -0.293683 0
M  V30 2217 H 211.562 -3.572 1.51755 0
M  V30 2218 H 209.663 -3.60338 -0.948014 0
M  V30 2219 H 209.776 -4.76058 0.538992 0
M  V30 2220 H 208.14 -2.53989 0.190185 0
M  V30 2221 H 208.923 -2.91092 1.81989 0
M  V30 2222 N 211.368 -0.403325 -1.52352 0
M  V30 2223 C 212.784 -0.0539281 -1.59509 0
M  V30 2224 C 212.984 1.43307 -1.41652 0
M  V30 2225 O 212.04 2.19924 -1.24056 0
M  V30 2226 C 213.353 -0.543654 -2.95745 0
M  V30 2227 C 214.901 -0.501125 -3.08962 0
M  V30 2228 C 215.376 -0.967267 -4.47669 0
M  V30 2229 N 216.867 -0.923849 -4.53893 0
M  V30 2230 C 217.602 -1.25578 -5.5948 0
M  V30 2231 N 217.098 -1.65889 -6.72646 0
M  V30 2232 N 218.891 -1.17613 -5.49658 0
M  V30 2233 H 211.042 -1.37123 -1.62206 0
M  V30 2234 H 213.305 -0.56294 -0.76276 0
M  V30 2235 H 213.011 -1.58275 -3.14073 0
M  V30 2236 H 212.885 0.0498042 -3.77167 0
M  V30 2237 H 215.272 0.528909 -2.90321 0
M  V30 2238 H 215.353 -1.13056 -2.2946 0
M  V30 2239 H 214.997 -1.9956 -4.67053 0
M  V30 2240 H 214.927 -0.314698 -5.25659 0
M  V30 2241 H 217.418 -0.627403 -3.72655 0
M  V30 2242 H 217.731 -1.89543 -7.49195 0
M  V30 2243 H 216.076 -1.69787 -6.73942 0
M  V30 2244 H 219.267 -0.860115 -4.6013 0
M  V30 2245 H 219.44 -1.43812 -6.3184 0
M  V30 2246 N 212.846 1.57033 -0.133567 0
M  V30 2247 C 214.094 1.953 0.519848 0
M  V30 2248 C 214.415 1.01866 1.66278 0
M  V30 2249 O 213.685 0.0776513 1.95746 0
M  V30 2250 H 212.265 0.721091 0.195032 0
M  V30 2251 H 214.927 1.93809 -0.205921 0
M  V30 2252 H 214.023 2.98695 0.904854 0
M  V30 2253 N 214.325 -0.140222 1.56975 0
M  V30 2254 C 215.565 -0.857823 1.85528 0
M  V30 2255 C 215.929 -1.78039 0.718768 0
M  V30 2256 O 217.13 -2.53795 0.885521 0
M  V30 2257 C 215.401 -1.60615 3.19277 0
M  V30 2258 S 216.96 -2.36824 3.69405 0
M  V30 2259 H 213.778 -0.286727 0.650622 0
M  V30 2260 H 216.38 -0.117408 1.95147 0
M  V30 2261 H 215.084 -0.919994 3.99955 0
M  V30 2262 H 214.615 -2.38735 3.12681 0
M  V30 2263 H 216.63 -3.62148 3.3921 0
M  V30 2264 N 215.803 -1.52179 -0.40978 0
M  V30 2265 C 216.735 -1.71703 -1.51825 0
M  V30 2266 C 217.748 -0.597445 -1.51441 0
M  V30 2267 O 218.937 -0.872582 -1.55719 0
M  V30 2268 C 216.037 -1.74171 -2.90719 0
M  V30 2269 C 215.21 -3.03156 -3.15302 0
M  V30 2270 C 214.269 -2.97445 -4.34065 0
M  V30 2271 O 213.295 -3.71352 -4.31377 0
M  V30 2272 N 214.497 -2.15191 -5.39141 0
M  V30 2273 H 217.262 -2.67334 -1.35472 0
M  V30 2274 H 214.823 -1.50409 -0.599069 0
M  V30 2275 H 216.815 -1.67884 -3.68235 0
M  V30 2276 H 215.385 -0.860166 -3.00533 0
M  V30 2277 H 214.605 -3.23097 -2.25836 0
M  V30 2278 H 215.893 -3.88484 -3.28569 0
M  V30 2279 H 215.291 -1.54573 -5.44173 0
M  V30 2280 H 213.848 -2.1476 -6.15403 0
M  V30 2281 N 217.281 0.66697 -1.42791 0
M  V30 2282 C 218.558 1.4234 -1.34159 0
M  V30 2283 C 218.938 2.11093 0.0172729 0
M  V30 2284 O 218.286 2.03808 1.03318 0
M  V30 2285 C 218.496 2.41942 -2.51526 0
M  V30 2286 C 219.844 3.06353 -2.93995 0
M  V30 2287 O 220.868 2.52269 -2.51473 0
M  V30 2288 O 219.727 4.04376 -3.67617 0
M  V30 2289 H 216.821 0.635277 -0.529483 0
M  V30 2290 H 219.367 0.695034 -1.54814 0
M  V30 2291 H 218.139 1.89991 -3.42081 0
M  V30 2292 H 217.762 3.22249 -2.32898 0
M  V30 2293 N 218.759 1.29093 0.90403 0
M  V30 2294 C 220.006 1.16813 1.65411 0
M  V30 2295 C 220.334 -0.28128 1.92455 0
M  V30 2296 O 219.589 -1.22006 1.53013 0
M  V30 2297 C 219.888 1.92224 3.01305 0
M  V30 2298 C 219.554 3.41968 2.93885 0
M  V30 2299 C 218.216 3.82807 2.91569 0
M  V30 2300 C 220.568 4.37409 2.83413 0
M  V30 2301 C 217.896 5.1741 2.76594 0
M  V30 2302 C 220.248 5.72097 2.69977 0
M  V30 2303 C 218.912 6.12199 2.66024 0
M  V30 2304 H 218.182 0.42745 0.605283 0
M  V30 2305 H 220.829 1.59981 1.05254 0
M  V30 2306 H 219.134 1.41635 3.65304 0
M  V30 2307 H 220.831 1.80131 3.58265 0
M  V30 2308 H 217.421 3.09504 2.96488 0
M  V30 2309 H 221.605 4.06813 2.84283 0
M  V30 2310 H 216.861 5.47596 2.71935 0
M  V30 2311 H 221.035 6.45704 2.60844 0
M  V30 2312 H 218.662 7.16448 2.54178 0
M  V30 2313 N 220.237 -1.11381 1.11499 0
M  V30 2314 C 221.485 -1.8277 0.862524 0
M  V30 2315 C 221.806 -1.85097 -0.613534 0
M  V30 2316 O 221.076 -1.32198 -1.4457 0
M  V30 2317 H 219.656 -0.676823 0.316101 0
M  V30 2318 H 222.318 -1.34816 1.4075 0
M  V30 2319 H 221.414 -2.86614 1.23527 0
M  V30 2320 N 221.715 -0.905404 -1.28997 0
M  V30 2321 C 222.961 -0.544465 -1.95977 0
M  V30 2322 C 223.316 0.90041 -1.70031 0
M  V30 2323 O 222.609 1.63064 -1.00601 0
M  V30 2324 C 222.803 -0.779906 -3.48787 0
M  V30 2325 C 222.632 -2.24612 -3.89589 0
M  V30 2326 C 221.402 -2.89464 -4.14172 0
M  V30 2327 C 223.6 -3.22182 -4.00878 0
M  V30 2328 N 221.582 -4.26469 -4.41585 0
M  V30 2329 C 222.953 -4.44323 -4.32409 0
M  V30 2330 C 225.008 -3.17694 -3.83373 0
M  V30 2331 C 223.711 -5.62546 -4.48258 0
M  V30 2332 C 225.737 -4.35208 -4.00435 0
M  V30 2333 C 225.099 -5.56121 -4.3233 0
M  V30 2334 H 221.198 -0.248948 -0.741316 0
M  V30 2335 H 223.782 -1.1674 -1.5582 0
M  V30 2336 H 221.953 -0.186308 -3.87953 0
M  V30 2337 H 223.685 -0.383833 -4.02876 0
M  V30 2338 H 220.44 -2.40232 -4.08149 0
M  V30 2339 H 220.864 -4.97283 -4.5939 0
M  V30 2340 H 225.506 -2.25297 -3.57773 0
M  V30 2341 H 223.224 -6.55429 -4.72692 0
M  V30 2342 H 226.81 -4.33228 -3.88336 0
M  V30 2343 H 225.69 -6.45537 -4.45255 0
M  V30 2344 N 223.193 1.4272 -0.668489 0
M  V30 2345 C 224.47 1.95248 -0.117373 0
M  V30 2346 C 224.85 1.60919 1.36632 0
M  V30 2347 O 224.198 0.902095 2.09939 0
M  V30 2348 C 224.408 3.46927 -0.379806 0
M  V30 2349 C 225.756 4.23588 -0.292923 0
M  V30 2350 O 226.78 3.5482 -0.313204 0
M  V30 2351 O 225.639 5.46017 -0.229697 0
M  V30 2352 H 222.733 0.827 0.00079152 0
M  V30 2353 H 225.279 1.52581 -0.742783 0
M  V30 2354 H 224.051 3.65096 -1.40786 0
M  V30 2355 H 223.674 3.96627 0.277923 0
M  V30 2356 N 224.671 0.411399 1.52136 0
M  V30 2357 C 226.082 -0.0576826 1.86611 0
M  V30 2358 C 226.433 -1.44238 1.33003 0
M  V30 2359 O 225.558 -2.05759 0.670228 0
M  V30 2360 C 226.153 -0.111448 3.38617 0
M  V30 2361 C 224.712 -0.52487 3.72723 0
M  V30 2362 C 223.859 0.299176 2.75681 0
M  V30 2363 H 226.81 0.628368 1.4573 0
M  V30 2364 H 226.831 -0.926252 3.69054 0
M  V30 2365 H 226.343 0.896488 3.77604 0
M  V30 2366 H 224.444 -1.53936 3.39315 0
M  V30 2367 H 224.557 -0.267681 4.78352 0
M  V30 2368 H 222.921 -0.238814 2.53578 0
M  V30 2369 H 223.704 1.3055 3.17508 0
M  V30 2370 N 226.149 -1.5696 0.141893 0
M  V30 2371 C 227.389 -1.9785 -0.513304 0
M  V30 2372 C 227.753 -1.02467 -1.62371 0
M  V30 2373 O 228.954 -1.32382 -2.33941 0
M  V30 2374 C 227.225 -3.42797 -1.01118 0
M  V30 2375 S 228.784 -4.05709 -1.67169 0
M  V30 2376 H 225.602 -0.691318 -0.166135 0
M  V30 2377 H 228.204 -1.94114 0.232398 0
M  V30 2378 H 226.908 -4.0995 -0.192179 0
M  V30 2379 H 226.439 -3.50235 -1.79162 0
M  V30 2380 H 228.454 -3.98342 -2.95868 0
M  V30 2381 N 227.627 0.131896 -1.57047 0
M  V30 2382 C 228.874 0.841932 -1.84168 0
M  V30 2383 C 229.202 1.8048 -0.725066 0
M  V30 2384 O 228.457 1.93618 0.284692 0
M  V30 2385 C 228.756 1.63703 -3.17704 0
M  V30 2386 C 228.422 0.81961 -4.43388 0
M  V30 2387 C 227.084 0.594148 -4.77518 0
M  V30 2388 C 229.436 0.248977 -5.20605 0
M  V30 2389 C 226.764 -0.212409 -5.86315 0
M  V30 2390 C 229.116 -0.544701 -6.30251 0
M  V30 2391 C 227.78 -0.780599 -6.6292 0
M  V30 2392 H 227.05 0.308085 -0.673917 0
M  V30 2393 H 229.697 0.104867 -1.91213 0
M  V30 2394 H 228.002 2.44464 -3.06177 0
M  V30 2395 H 229.699 2.19015 -3.35907 0
M  V30 2396 H 226.289 1.00542 -4.16641 0
M  V30 2397 H 230.473 0.410408 -4.946 0
M  V30 2398 H 225.729 -0.404524 -6.1006 0
M  V30 2399 H 229.903 -0.993922 -6.89271 0
M  V30 2400 H 227.53 -1.40742 -7.47058 0
M  V30 2401 N 229.106 1.52395 0.401703 0
M  V30 2402 C 230.038 1.72505 1.50912 0
M  V30 2403 C 231.051 0.605468 1.51122 0
M  V30 2404 O 232.24 0.880828 1.55254 0
M  V30 2405 C 229.34 1.75711 2.89791 0
M  V30 2406 C 228.513 3.04824 3.1369 0
M  V30 2407 C 227.572 2.99743 4.32482 0
M  V30 2408 O 226.598 3.73635 4.29402 0
M  V30 2409 N 227.8 2.18047 5.37992 0
M  V30 2410 H 230.565 2.68049 1.34052 0
M  V30 2411 H 228.126 1.50724 0.591084 0
M  V30 2412 H 230.118 1.69834 3.6734 0
M  V30 2413 H 228.688 0.876092 3.00072 0
M  V30 2414 H 227.908 3.2429 2.24119 0
M  V30 2415 H 229.196 3.90221 3.26504 0
M  V30 2416 H 228.594 1.57456 5.43345 0
M  V30 2417 H 227.151 2.18021 6.14256 0
M  V30 2418 N 230.584 -0.659388 1.43143 0
M  V30 2419 C 231.995 -1.24041 1.39537 0
M  V30 2420 C 232.346 -1.95963 0.0963364 0
M  V30 2421 O 231.471 -2.00892 -0.804438 0
M  V30 2422 C 232.066 -2.25601 2.52764 0
M  V30 2423 C 230.625 -2.79195 2.52443 0
M  V30 2424 C 229.772 -1.53743 2.30778 0
M  V30 2425 H 232.723 -0.451792 1.52133 0
M  V30 2426 H 232.744 -3.07651 2.23899 0
M  V30 2427 H 232.256 -1.73226 3.47296 0
M  V30 2428 H 230.357 -3.35649 1.61773 0
M  V30 2429 H 230.47 -3.2716 3.50004 0
M  V30 2430 H 228.834 -1.80869 1.79328 0
M  V30 2431 H 229.617 -1.03312 3.27386 0
M  V30 2432 N 232.062 -1.29571 -0.897171 0
M  V30 2433 C 233.339 -1.08365 -1.62839 0
M  V30 2434 C 233.719 0.371331 -2.07808 0
M  V30 2435 O 233.067 1.3606 -1.83576 0
M  V30 2436 C 233.277 -2.0735 -2.80726 0
M  V30 2437 C 234.625 -2.38406 -3.51351 0
M  V30 2438 O 235.649 -2.05564 -2.90898 0
M  V30 2439 O 234.508 -2.9453 -4.60341 0
M  V30 2440 H 231.602 -0.415345 -0.715134 0
M  V30 2441 H 234.148 -1.40952 -0.945018 0
M  V30 2442 H 232.92 -3.05339 -2.44711 0
M  V30 2443 H 232.543 -1.75507 -3.56767 0
M  V30 2444 N 233.54 1.10788 -1.12088 0
M  V30 2445 C 234.788 1.8231 -0.872205 0
M  V30 2446 C 235.109 1.85419 0.603709 0
M  V30 2447 O 234.379 1.32963 1.43867 0
M  V30 2448 H 232.959 0.675137 -0.319686 0
M  V30 2449 H 235.621 1.34068 -1.41463 0
M  V30 2450 H 234.717 2.85955 -1.25045 0
M  V30 2451 N 235.018 0.912232 1.28515 0
M  V30 2452 C 236.248 0.559604 1.98877 0
M  V30 2453 C 236.656 -0.863113 1.68366 0
M  V30 2454 O 235.999 -1.58304 0.931969 0
M  V30 2455 C 236.061 0.68703 3.52874 0
M  V30 2456 C 235.725 2.07901 4.06972 0
M  V30 2457 C 236.722 3.05157 4.20922 0
M  V30 2458 C 234.407 2.39178 4.417 0
M  V30 2459 C 236.401 4.31806 4.68852 0
M  V30 2460 C 234.088 3.66068 4.89324 0
M  V30 2461 C 235.086 4.62195 5.02856 0
M  V30 2462 O 234.774 5.86829 5.49442 0
M  V30 2463 H 234.506 0.212191 0.641834 0
M  V30 2464 H 237.06 1.22712 1.64715 0
M  V30 2465 H 235.29 -0.0375486 3.86682 0
M  V30 2466 H 236.979 0.341727 4.04459 0
M  V30 2467 H 237.745 2.82311 3.94367 0
M  V30 2468 H 233.624 1.65109 4.30418 0
M  V30 2469 H 237.168 5.06842 4.79329 0
M  V30 2470 H 233.065 3.88739 5.15318 0
M  V30 2471 H 233.833 5.89597 5.6773 0
M  V30 2472 N 236.496 -1.42363 0.676048 0
M  V30 2473 C 237.406 -2.346 -0.00153389 0
M  V30 2474 C 238.422 -1.5516 -0.787485 0
M  V30 2475 O 239.598 -1.87723 -0.729521 0
M  V30 2476 C 236.663 -3.33705 -0.940298 0
M  V30 2477 C 235.724 -4.29042 -0.148739 0
M  V30 2478 C 234.957 -5.23413 -1.04279 0
M  V30 2479 O 235.18 -5.22749 -2.28232 0
M  V30 2480 O 234.114 -5.99795 -0.502925 0
M  V30 2481 H 237.94 -2.94082 0.758268 0
M  V30 2482 H 235.525 -1.42888 0.436289 0
M  V30 2483 H 237.407 -3.94586 -1.47917 0
M  V30 2484 H 236.082 -2.76695 -1.67993 0
M  V30 2485 H 234.989 -3.71571 0.43427 0
M  V30 2486 H 236.322 -4.89097 0.551805 0
M  V30 2487 N 237.974 -0.419461 -1.51915 0
M  V30 2488 C 238.906 0.43646 -2.25006 0
M  V30 2489 C 239.919 1.00149 -1.28351 0
M  V30 2490 O 241.108 0.898674 -1.54227 0
M  V30 2491 C 238.208 1.6206 -2.9764 0
M  V30 2492 C 237.381 1.17763 -4.21249 0
M  V30 2493 C 236.44 2.22985 -4.76617 0
M  V30 2494 O 235.466 1.83151 -5.38929 0
M  V30 2495 N 236.668 3.55271 -4.59089 0
M  V30 2496 H 239.433 -0.18989 -2.99098 0
M  V30 2497 H 236.994 -0.247386 -1.59999 0
M  V30 2498 H 238.986 2.32038 -3.31573 0
M  V30 2499 H 237.556 2.15266 -2.2667 0
M  V30 2500 H 236.776 0.305582 -3.93014 0
M  V30 2501 H 238.064 0.858781 -5.015 0
M  V30 2502 H 237.462 3.90377 -4.09417 0
M  V30 2503 H 236.019 4.21195 -4.97432 0
M  V30 2504 N 239.452 1.56882 -0.150215 0
M  V30 2505 C 240.68 2.00593 0.506948 0
M  V30 2506 C 241.095 1.03033 1.58208 0
M  V30 2507 O 240.452 0.0278396 1.82479 0
M  V30 2508 C 240.503 3.44209 1.10465 0
M  V30 2509 O 240.224 4.3804 0.0724636 0
M  V30 2510 C 241.725 4.03214 1.84211 0
M  V30 2511 H 238.945 0.65795 0.13169 0
M  V30 2512 H 241.489 2.03018 -0.245743 0
M  V30 2513 H 239.644 3.42625 1.80795 0
M  V30 2514 H 240.058 5.22007 0.510793 0
M  V30 2515 H 241.532 5.0569 2.21318 0
M  V30 2516 H 242.009 3.44107 2.72923 0
M  V30 2517 H 242.615 4.08437 1.18572 0
M  V30 2518 N 240.93 -0.123565 1.57115 0
M  V30 2519 C 242.16 -0.845233 1.88519 0
M  V30 2520 C 242.568 -1.74168 0.739064 0
M  V30 2521 O 241.911 -1.81244 -0.299355 0
M  V30 2522 C 241.973 -1.73452 3.14888 0
M  V30 2523 C 241.637 -1.01285 4.45635 0
M  V30 2524 C 242.634 -0.355774 5.18681 0
M  V30 2525 C 240.319 -0.99538 4.92339 0
M  V30 2526 C 242.313 0.309114 6.3665 0
M  V30 2527 C 240 -0.32669 6.10226 0
M  V30 2528 C 240.998 0.324406 6.82229 0
M  V30 2529 O 240.686 0.982437 7.97874 0
M  V30 2530 H 240.418 -0.248534 0.628655 0
M  V30 2531 H 242.972 -0.113907 2.05084 0
M  V30 2532 H 241.202 -2.50737 2.94394 0
M  V30 2533 H 242.891 -2.33021 3.32349 0
M  V30 2534 H 243.657 -0.360918 4.83655 0
M  V30 2535 H 239.536 -1.49159 4.36202 0
M  V30 2536 H 243.08 0.8179 6.92789 0
M  V30 2537 H 238.977 -0.319294 6.4471 0
M  V30 2538 H 239.745 0.886454 8.13686 0
M  V30 2539 N 242.408 -1.52605 -0.393616 0
M  V30 2540 C 243.371 -1.76415 -1.46323 0
M  V30 2541 C 244.371 -0.634126 -1.47768 0
M  V30 2542 O 245.561 -0.902142 -1.4902 0
M  V30 2543 C 242.693 -1.8607 -2.85641 0
M  V30 2544 H 243.886 -2.71916 -1.26498 0
M  V30 2545 H 241.439 -1.43257 -0.625073 0
M  V30 2546 H 242.174 -0.925378 -3.10817 0
M  V30 2547 H 241.959 -2.68235 -2.85993 0
M  V30 2548 H 243.449 -2.06179 -3.63153 0
M  V30 2549 N 243.887 0.651787 -1.4349 0
M  V30 2550 C 244.797 1.79368 -1.5121 0
M  V30 2551 C 245.813 1.69361 -0.399093 0
M  V30 2552 O 246.989 1.90505 -0.653431 0
M  V30 2553 C 244.054 3.15653 -1.43401 0
M  V30 2554 C 243.115 3.37446 -2.65384 0
M  V30 2555 C 242.348 4.67229 -2.57939 0
M  V30 2556 O 242.571 5.46676 -1.62792 0
M  V30 2557 O 241.505 4.90773 -3.48462 0
M  V30 2558 H 245.331 1.7581 -2.47638 0
M  V30 2559 H 242.916 0.810447 -1.25507 0
M  V30 2560 H 244.798 3.96935 -1.41494 0
M  V30 2561 H 243.473 3.19798 -0.501085 0
M  V30 2562 H 242.38 2.55923 -2.72863 0
M  V30 2563 H 243.713 3.38148 -3.57654 0
M  V30 2564 N 245.365 1.30045 0.890287 0
M  V30 2565 C 246.298 1.10301 1.99772 0
M  V30 2566 C 247.276 0.0121631 1.62595 0
M  V30 2567 O 248.46 0.16469 1.87779 0
M  V30 2568 C 245.587 0.681125 3.31781 0
M  V30 2569 C 244.633 1.77206 3.87944 0
M  V30 2570 S 245.466 3.37335 4.15891 0
M  V30 2571 C 246.622 2.97036 5.50927 0
M  V30 2572 H 246.855 2.04057 2.16213 0
M  V30 2573 H 244.388 1.14299 1.03804 0
M  V30 2574 H 246.346 0.444439 4.08087 0
M  V30 2575 H 245.007 -0.236981 3.13205 0
M  V30 2576 H 244.2 1.42903 4.83316 0
M  V30 2577 H 243.802 1.96275 3.18358 0
M  V30 2578 H 246.094 2.44666 6.31779 0
M  V30 2579 H 247.037 3.91296 5.90164 0
M  V30 2580 H 247.445 2.35057 5.13233 0
M  V30 2581 N 246.843 -1.10192 1.12674 0
M  V30 2582 C 248.254 -1.63707 0.897604 0
M  V30 2583 C 248.605 -1.87812 -0.567546 0
M  V30 2584 O 247.73 -1.62196 -1.43253 0
M  V30 2585 C 248.325 -2.974 1.62292 0
M  V30 2586 C 246.884 -3.47772 1.43986 0
M  V30 2587 C 246.031 -2.22332 1.65722 0
M  V30 2588 H 248.982 -0.936587 1.28116 0
M  V30 2589 H 249.003 -3.64986 1.07541 0
M  V30 2590 H 248.515 -2.79824 2.68924 0
M  V30 2591 H 246.616 -3.70487 0.396206 0
M  V30 2592 H 246.729 -4.25723 2.19765 0
M  V30 2593 H 245.093 -2.30599 1.08149 0
M  V30 2594 H 245.876 -2.07285 2.73657 0
M  V30 2595 N 248.321 -0.919034 -1.28029 0
M  V30 2596 C 249.268 -0.410005 -2.27129 0
M  V30 2597 C 250.238 0.518405 -1.57803 0
M  V30 2598 O 251.423 0.439451 -1.8567 0
M  V30 2599 C 248.563 0.339054 -3.4343 0
M  V30 2600 C 247.676 -0.622468 -4.27492 0
M  V30 2601 C 246.811 0.145567 -5.31001 0
M  V30 2602 C 245.85 -0.809226 -6.06727 0
M  V30 2603 N 244.987 -0.0743728 -7.02061 0
M  V30 2604 H 249.827 -1.26011 -2.70047 0
M  V30 2605 H 247.364 -0.632663 -1.328 0
M  V30 2606 H 249.322 0.789586 -4.0966 0
M  V30 2607 H 247.952 1.15346 -3.01488 0
M  V30 2608 H 247.004 -1.19153 -3.61257 0
M  V30 2609 H 248.316 -1.35252 -4.80113 0
M  V30 2610 H 247.47 0.656417 -6.03139 0
M  V30 2611 H 246.209 0.908643 -4.79161 0
M  V30 2612 H 245.214 -1.3314 -5.33436 0
M  V30 2613 H 246.439 -1.57194 -6.60656 0
M  V30 2614 H 244.385 0.670616 -6.52563 0
M  V30 2615 H 244.302 -0.744157 -7.52329 0
M  V30 2616 H 245.57 0.416109 -7.78389 0
M  V30 2617 N 249.799 1.42003 -0.683588 0
M  V30 2618 C 250.762 2.29191 -0.0198243 0
M  V30 2619 C 251.762 1.43773 0.72013 0
M  V30 2620 O 252.952 1.65061 0.556815 0
M  V30 2621 C 250.084 3.26435 0.982487 0
M  V30 2622 H 251.277 2.8938 -0.787345 0
M  V30 2623 H 248.83 1.49789 -0.446418 0
M  V30 2624 H 249.565 2.71203 1.77819 0
M  V30 2625 H 249.35 3.89449 0.455182 0
M  V30 2626 H 250.84 3.918 1.44508 0
M  V30 2627 N 251.277 0.427512 1.51691 0
M  V30 2628 C 252.187 -0.39527 2.31246 0
M  V30 2629 C 253.203 -1.03674 1.39742 0
M  V30 2630 O 254.379 -1.03425 1.72816 0
M  V30 2631 C 251.444 -1.48706 3.13189 0
M  V30 2632 C 250.505 -0.866743 4.20459 0
M  V30 2633 C 249.738 -1.90651 4.98486 0
M  V30 2634 O 249.961 -3.12733 4.77026 0
M  V30 2635 O 248.895 -1.5025 5.82845 0
M  V30 2636 H 252.721 0.253918 3.02637 0
M  V30 2637 H 250.306 0.190274 1.48183 0
M  V30 2638 H 252.188 -2.12047 3.64162 0
M  V30 2639 H 250.863 -2.12051 2.44573 0
M  V30 2640 H 249.77 -0.195544 3.73589 0
M  V30 2641 H 251.103 -0.276934 4.9142 0
M  V30 2642 N 252.755 -1.56801 0.158532 0
M  V30 2643 C 253.702 -2.17337 -0.776729 0
M  V30 2644 C 254.672 -1.1096 -1.23601 0
M  V30 2645 O 255.857 -1.39054 -1.30647 0
M  V30 2646 C 252.997 -2.80822 -2.00582 0
M  V30 2647 C 252.11 -4.01624 -1.59129 0
M  V30 2648 C 251.245 -4.53072 -2.77306 0
M  V30 2649 C 250.284 -5.66314 -2.32282 0
M  V30 2650 N 249.421 -6.12329 -3.43508 0
M  V30 2651 H 254.261 -2.96918 -0.253701 0
M  V30 2652 H 251.798 -1.46661 -0.113504 0
M  V30 2653 H 253.756 -3.15779 -2.72652 0
M  V30 2654 H 252.386 -2.03866 -2.50277 0
M  V30 2655 H 251.438 -3.72571 -0.767806 0
M  V30 2656 H 252.75 -4.83633 -1.2207 0
M  V30 2657 H 251.904 -4.90145 -3.57551 0
M  V30 2658 H 250.643 -3.70095 -3.17617 0
M  V30 2659 H 249.648 -5.28806 -1.5048 0
M  V30 2660 H 250.873 -6.51085 -1.93043 0
M  V30 2661 H 248.819 -5.32284 -3.83418 0
M  V30 2662 H 248.736 -6.89293 -3.105 0
M  V30 2663 H 250.004 -6.5405 -4.24075 0
M  V30 2664 N 254.233 0.115231 -1.57178 0
M  V30 2665 C 255.181 1.16014 -2.01602 0
M  V30 2666 C 256.175 1.42653 -0.913587 0
M  V30 2667 O 257.381 1.42571 -1.09879 0
M  V30 2668 H 253.756 0.391252 -0.642204 0
M  V30 2669 H 255.727 0.758998 -2.88586 0
M  V30 2670 C 254.476 2.47767 -2.4394 0
M  V30 2671 H 253.799 2.28108 -3.28339 0
M  V30 2672 H 255.239 3.19432 -2.78818 0
M  V30 2673 C 253.698 3.10617 -1.30455 0
M  V30 2674 O 254.228 3.96846 -0.622585 0
M  V30 2675 N 252.434 2.70553 -1.06064 0
M  V30 2676 H 251.981 2.00527 -1.61699 0
M  V30 2677 H 251.939 3.12934 -0.303284 0
M  V30 2678 N 255.711 1.52812 0.385517 0
M  V30 2679 C 256.674 1.77188 1.45386 0
M  V30 2680 C 257.674 0.641953 1.4743 0
M  V30 2681 O 258.864 0.910033 1.4854 0
M  V30 2682 C 255.996 1.87582 2.8465 0
M  V30 2683 H 257.189 2.72583 1.25054 0
M  V30 2684 H 254.742 1.43586 0.617467 0
M  V30 2685 H 255.477 0.941849 3.10322 0
M  V30 2686 H 255.262 2.69748 2.84567 0
M  V30 2687 H 256.752 2.08102 3.62054 0
M  V30 2688 N 257.189 -0.644168 1.43834 0
M  V30 2689 C 258.435 -1.40603 1.46146 0
M  V30 2690 C 258.768 -1.93997 0.0887717 0
M  V30 2691 O 258.043 -1.72854 -0.891724 0
M  V30 2692 C 258.326 -2.58086 2.51124 0
M  V30 2693 C 258.179 -2.10126 3.97702 0
M  V30 2694 C 259.498 -3.60291 2.52742 0
M  V30 2695 H 256.617 -0.509905 0.532134 0
M  V30 2696 H 259.259 -0.729502 1.75437 0
M  V30 2697 H 257.409 -3.15801 2.26278 0
M  V30 2698 H 259.081 -1.57342 4.33637 0
M  V30 2699 H 257.324 -1.41419 4.10101 0
M  V30 2700 H 257.995 -2.94649 4.66783 0
M  V30 2701 H 260.471 -3.12352 2.7491 0
M  V30 2702 H 259.347 -4.40032 3.28121 0
M  V30 2703 H 259.608 -4.1349 1.56455 0
M  V30 2704 N 258.668 -1.30515 -0.883378 0
M  V30 2705 C 259.893 -1.22487 -1.67367 0
M  V30 2706 C 260.318 0.208767 -1.86938 0
M  V30 2707 O 259.676 1.15015 -1.40148 0
M  V30 2708 C 259.724 -1.96041 -3.02655 0
M  V30 2709 O 258.828 -1.28859 -3.91751 0
M  V30 2710 H 258.169 -0.423573 -0.511353 0
M  V30 2711 H 260.699 -1.72362 -1.10239 0
M  V30 2712 H 260.709 -2.05124 -3.52687 0
M  V30 2713 H 259.384 -3.00307 -2.8773 0
M  V30 2714 H 257.961 -1.28141 -3.50192 0
M  V30 2715 N 260.146 1.09593 -1.13257 0
M  V30 2716 C 261.096 2.14345 -0.777179 0
M  V30 2717 C 262.08 1.59277 0.227966 0
M  V30 2718 O 263.272 1.76971 0.0321413 0
M  V30 2719 C 260.401 3.42439 -0.242991 0
M  V30 2720 C 259.487 4.04419 -1.27694 0
M  V30 2721 N 259.878 4.40979 -2.47732 0
M  V30 2722 C 258.176 4.31596 -1.12432 0
M  V30 2723 C 258.877 4.89784 -3.13826 0
M  V30 2724 N 257.853 4.87133 -2.41252 0
M  V30 2725 H 261.655 2.40415 -1.69049 0
M  V30 2726 H 259.169 1.26803 -1.01463 0
M  V30 2727 H 261.166 4.16889 0.0298496 0
M  V30 2728 H 259.826 3.17824 0.66467 0
M  V30 2729 H 260.837 4.32396 -2.85051 0
M  V30 2730 H 257.514 4.16595 -0.274684 0
M  V30 2731 H 258.904 5.2755 -4.16102 0
M  V30 2732 N 261.624 0.925811 1.2754 0
M  V30 2733 C 263.04 0.625767 1.46821 0
M  V30 2734 C 263.24 -0.825506 1.83814 0
M  V30 2735 O 262.296 -1.60356 1.95044 0
M  V30 2736 C 263.609 1.57402 2.56213 0
M  V30 2737 C 265.157 1.58204 2.70075 0
M  V30 2738 C 265.632 2.51721 3.82623 0
M  V30 2739 N 267.123 2.49917 3.89994 0
M  V30 2740 C 267.858 3.18968 4.76494 0
M  V30 2741 N 267.354 3.97391 5.67496 0
M  V30 2742 N 269.147 3.07996 4.70208 0
M  V30 2743 H 261.298 1.86409 1.01811 0
M  V30 2744 H 263.561 0.800213 0.508295 0
M  V30 2745 H 263.267 2.60925 2.35819 0
M  V30 2746 H 263.141 1.31428 3.53563 0
M  V30 2747 H 265.528 0.554124 2.89851 0
M  V30 2748 H 265.609 1.88226 1.73218 0
M  V30 2749 H 265.253 3.54622 3.63601 0
M  V30 2750 H 265.183 2.18996 4.78903 0
M  V30 2751 H 267.674 1.9296 3.24923 0
M  V30 2752 H 267.987 4.4707 6.30356 0
M  V30 2753 H 266.332 4.01495 5.67298 0
M  V30 2754 H 269.523 2.46223 3.9811 0
M  V30 2755 H 269.696 3.6208 5.37403 0
M  V30 2756 N 263.102 -1.41638 0.69111 0
M  V30 2757 C 264.349 -2.01299 0.220193 0
M  V30 2758 C 264.677 -1.54715 -1.17871 0
M  V30 2759 O 263.932 -0.747193 -1.80874 0
M  V30 2760 C 264.231 -3.56714 0.221277 0
M  V30 2761 C 263.897 -4.22792 1.56709 0
M  V30 2762 C 262.559 -4.40557 1.93554 0
M  V30 2763 C 264.911 -4.59883 2.45268 0
M  V30 2764 C 262.239 -4.92688 3.18552 0
M  V30 2765 C 264.591 -5.13403 3.69595 0
M  V30 2766 C 263.255 -5.29379 4.06589 0
M  V30 2767 H 262.525 -0.736606 0.0805743 0
M  V30 2768 H 265.172 -1.69598 0.889319 0
M  V30 2769 H 263.477 -3.8818 -0.531391 0
M  V30 2770 H 265.174 -4.00678 -0.160547 0
M  V30 2771 H 261.764 -4.09336 1.2705 0
M  V30 2772 H 265.948 -4.45817 2.18084 0
M  V30 2773 H 261.204 -5.03242 3.47214 0
M  V30 2774 H 265.378 -5.41084 4.38407 0
M  V30 2775 H 263.005 -5.69537 5.03519 0
M  V30 2776 N 264.58 -0.43555 -1.51462 0
M  V30 2777 C 265.996 -0.0877501 -1.59359 0
M  V30 2778 C 266.196 1.4027 -1.4466 0
M  V30 2779 O 265.252 2.17243 -1.28693 0
M  V30 2780 C 266.565 -0.606264 -2.94525 0
M  V30 2781 C 268.113 -0.566548 -3.0783 0
M  V30 2782 C 268.588 -1.06201 -4.45517 0
M  V30 2783 N 270.079 -1.01992 -4.51832 0
M  V30 2784 C 270.814 -1.37417 -5.5669 0
M  V30 2785 N 270.31 -1.80119 -6.68976 0
M  V30 2786 N 272.103 -1.29245 -5.47039 0
M  V30 2787 H 264.254 -1.40533 -1.59261 0
M  V30 2788 H 266.517 -0.578992 -0.750648 0
M  V30 2789 H 266.223 -1.64901 -3.10645 0
M  V30 2790 H 266.097 -0.0302097 -3.77188 0
M  V30 2791 H 268.484 0.467208 -2.91378 0
M  V30 2792 H 268.565 -1.17898 -2.2701 0
M  V30 2793 H 268.209 -2.09422 -4.62715 0
M  V30 2794 H 268.139 -0.426127 -5.24873 0
M  V30 2795 H 270.63 -0.706308 -3.71241 0
M  V30 2796 H 270.943 -2.05392 -7.45006 0
M  V30 2797 H 269.288 -1.84044 -6.70189 0
M  V30 2798 H 272.479 -0.957522 -4.58202 0
M  V30 2799 H 272.652 -1.57182 -6.28648 0
M  V30 2800 N 266.058 1.56714 -0.166846 0
M  V30 2801 C 267.021 2.16539 0.751232 0
M  V30 2802 C 268.021 1.11228 1.16125 0
M  V30 2803 O 269.211 1.36765 1.07894 0
M  V30 2804 C 266.343 2.74462 2.02196 0
M  V30 2805 H 267.536 2.99013 0.230499 0
M  V30 2806 H 265.089 1.56081 0.0826982 0
M  V30 2807 H 265.824 1.95709 2.58589 0
M  V30 2808 H 265.609 3.51527 1.73698 0
M  V30 2809 H 267.099 3.20489 2.67725 0
M  V30 2810 N 267.536 -0.106894 1.57237 0
M  V30 2811 C 268.466 -1.13148 2.04254 0
M  V30 2812 C 269.447 -1.42476 0.929224 0
M  V30 2813 O 270.632 -1.52709 1.19973 0
M  V30 2814 C 267.762 -2.4545 2.45706 0
M  V30 2815 C 266.716 -2.30558 3.60592 0
M  V30 2816 C 266.042 -3.67931 3.87983 0
M  V30 2817 C 267.342 -1.75597 4.91897 0
M  V30 2818 H 269.036 -0.740374 2.90101 0
M  V30 2819 H 266.582 -0.354696 1.39563 0
M  V30 2820 H 268.535 -3.17389 2.77205 0
M  V30 2821 H 267.259 -2.86475 1.56843 0
M  V30 2822 H 265.918 -1.61067 3.29322 0
M  V30 2823 H 265.566 -4.06462 2.96306 0
M  V30 2824 H 265.266 -3.58817 4.65322 0
M  V30 2825 H 266.79 -4.41356 4.21945 0
M  V30 2826 H 268.204 -2.37364 5.21854 0
M  V30 2827 H 266.601 -1.77272 5.73319 0
M  V30 2828 H 267.671 -0.714451 4.79608 0
M  V30 2829 N 269.014 -1.53014 -0.377408 0
M  V30 2830 C 269.944 -1.81589 -1.46791 0
M  V30 2831 C 270.925 -0.668622 -1.56408 0
M  V30 2832 O 272.11 -0.917337 -1.71168 0
M  V30 2833 C 269.24 -1.99519 -2.8427 0
M  V30 2834 C 268.194 -3.15249 -2.89486 0
M  V30 2835 C 267.52 -3.18451 -4.29527 0
M  V30 2836 C 268.82 -4.54084 -2.58079 0
M  V30 2837 H 270.514 -2.7291 -1.23127 0
M  V30 2838 H 268.06 -1.31319 -0.590883 0
M  V30 2839 H 270.013 -2.18092 -3.60575 0
M  V30 2840 H 268.737 -1.04897 -3.09296 0
M  V30 2841 H 267.396 -2.96477 -2.15631 0
M  V30 2842 H 267.044 -2.2149 -4.5161 0
M  V30 2843 H 266.744 -3.962 -4.33934 0
M  V30 2844 H 268.268 -3.39193 -5.07721 0
M  V30 2845 H 269.682 -4.72899 -3.24098 0
M  V30 2846 H 268.079 -5.33987 -2.7382 0
M  V30 2847 H 269.149 -4.60006 -1.53372 0
M  V30 2848 N 270.492 0.636531 -1.44174 0
M  V30 2849 C 271.402 1.77754 -1.53103 0
M  V30 2850 C 272.418 1.68928 -0.417034 0
M  V30 2851 O 273.594 1.89801 -0.6736 0
M  V30 2852 C 270.659 3.14115 -1.46741 0
M  V30 2853 C 269.72 3.34612 -2.68948 0
M  V30 2854 C 268.953 4.64467 -2.6288 0
M  V30 2855 O 269.176 5.44919 -1.68581 0
M  V30 2856 O 268.11 4.87049 -3.53648 0
M  V30 2857 H 271.936 1.73174 -2.49489 0
M  V30 2858 H 269.521 0.79709 -1.2636 0
M  V30 2859 H 271.403 3.95412 -1.45696 0
M  V30 2860 H 270.078 3.19249 -0.534975 0
M  V30 2861 H 268.985 2.53014 -2.75562 0
M  V30 2862 H 270.318 3.34336 -3.61221 0
M  V30 2863 N 271.97 1.30982 0.876444 0
M  V30 2864 C 272.9 1.20668 1.99903 0
M  V30 2865 C 273.881 0.095354 1.69833 0
M  V30 2866 O 275.066 0.27885 1.92188 0
M  V30 2867 C 272.196 0.90655 3.3526 0
M  V30 2868 C 271.15 1.97675 3.79617 0
M  V30 2869 C 270.476 1.52943 5.1236 0
M  V30 2870 C 271.776 3.389 3.97422 0
M  V30 2871 H 273.47 2.14586 2.0879 0
M  V30 2872 H 271.016 1.03308 1.00317 0
M  V30 2873 H 272.969 0.821025 4.13324 0
M  V30 2874 H 271.693 -0.0682969 3.26529 0
M  V30 2875 H 270.352 2.05205 3.03787 0
M  V30 2876 H 270 0.54262 5.00065 0
M  V30 2877 H 269.7 2.24532 5.43009 0
M  V30 2878 H 271.224 1.45786 5.92941 0
M  V30 2879 H 272.638 3.34081 4.659 0
M  V30 2880 H 271.035 4.0865 4.3946 0
M  V30 2881 H 272.105 3.80163 3.01006 0
M  V30 2882 N 273.449 -1.08991 1.13837 0
M  V30 2883 C 274.381 -2.15606 0.777612 0
M  V30 2884 C 275.394 -1.61533 -0.202739 0
M  V30 2885 O 276.583 -1.78491 0.0181055 0
M  V30 2886 C 273.683 -3.3864 0.132623 0
M  V30 2887 C 272.856 -4.22115 1.1462 0
M  V30 2888 C 271.915 -5.23564 0.526074 0
M  V30 2889 O 270.941 -5.56678 1.18735 0
M  V30 2890 N 272.143 -5.76266 -0.699866 0
M  V30 2891 H 274.908 -2.47159 1.69506 0
M  V30 2892 H 272.469 -1.24747 1.03198 0
M  V30 2893 H 274.461 -4.03626 -0.29459 0
M  V30 2894 H 273.031 -3.04938 -0.687849 0
M  V30 2895 H 272.251 -3.53199 1.75055 0
M  V30 2896 H 273.539 -4.74709 1.83109 0
M  V30 2897 H 272.937 -5.51585 -1.25581 0
M  V30 2898 H 271.494 -6.42963 -1.06968 0
M  V30 2899 N 274.927 -0.932562 -1.27047 0
M  V30 2900 C 275.837 -0.441219 -2.30414 0
M  V30 2901 C 276.853 0.480525 -1.67233 0
M  V30 2902 O 278.029 0.362151 -1.98117 0
M  V30 2903 C 275.094 0.293651 -3.45454 0
M  V30 2904 C 274.155 -0.663601 -4.2414 0
M  V30 2905 C 273.388 0.0362932 -5.33688 0
M  V30 2906 O 273.611 1.2548 -5.56427 0
M  V30 2907 O 272.545 -0.638015 -5.98509 0
M  V30 2908 H 276.371 -1.29962 -2.74488 0
M  V30 2909 H 273.956 -0.6981 -1.32087 0
M  V30 2910 H 275.838 0.707951 -4.15411 0
M  V30 2911 H 274.513 1.12758 -3.03426 0
M  V30 2912 H 273.42 -1.12768 -3.56699 0
M  V30 2913 H 274.753 -1.46489 -4.69896 0
M  V30 2914 N 276.405 1.4127 -0.698611 0
M  V30 2915 C 277.635 2.05205 -0.239644 0
M  V30 2916 C 278.043 1.52684 1.11733 0
M  V30 2917 O 277.386 0.671222 1.70998 0
M  V30 2918 C 277.448 3.59289 -0.123126 0
M  V30 2919 C 277.112 4.34619 -1.41263 0
M  V30 2920 C 278.109 4.63701 -2.35111 0
M  V30 2921 C 275.794 4.73837 -1.66684 0
M  V30 2922 C 277.788 5.30966 -3.52639 0
M  V30 2923 C 275.475 5.40837 -2.84498 0
M  V30 2924 C 276.473 5.69329 -3.77298 0
M  V30 2925 O 276.161 6.34949 -4.93047 0
M  V30 2926 H 275.893 0.66723 -0.108537 0
M  V30 2927 H 278.447 1.81974 -0.952602 0
M  V30 2928 H 276.677 3.81272 0.645628 0
M  V30 2929 H 278.366 4.04797 0.299056 0
M  V30 2930 H 279.132 4.33882 -2.16729 0
M  V30 2931 H 275.011 4.51039 -0.953135 0
M  V30 2932 H 278.555 5.53121 -4.25091 0
M  V30 2933 H 274.452 5.70075 -3.02795 0
M  V30 2934 H 275.22 6.53445 -4.92902 0
M  V30 2935 N 277.883 0.443576 1.51229 0
M  V30 2936 C 279.13 -0.120796 2.02139 0
M  V30 2937 C 279.458 -1.42166 1.32736 0
M  V30 2938 O 278.713 -1.90849 0.43301 0
M  V30 2939 C 279.012 -0.380579 3.55368 0
M  V30 2940 C 278.678 0.83523 4.43097 0
M  V30 2941 C 277.34 1.16864 4.66794 0
M  V30 2942 C 279.692 1.64601 4.94526 0
M  V30 2943 C 277.02 2.31339 5.39165 0
M  V30 2944 C 279.372 2.78181 5.68153 0
M  V30 2945 C 278.036 3.11969 5.90112 0
M  V30 2946 H 277.306 -0.0442023 0.73968 0
M  V30 2947 H 279.953 0.592046 1.82118 0
M  V30 2948 H 278.258 -1.17538 3.73754 0
M  V30 2949 H 279.955 -0.830777 3.923 0
M  V30 2950 H 276.545 0.565437 4.24854 0
M  V30 2951 H 280.729 1.40163 4.76097 0
M  V30 2952 H 275.985 2.57823 5.5438 0
M  V30 2953 H 280.159 3.41371 6.06992 0
M  V30 2954 H 277.786 4.00784 6.45969 0
M  V30 2955 N 279.361 -1.56624 0.175154 0
M  V30 2956 C 280.609 -1.96609 -0.467885 0
M  V30 2957 C 280.93 -1.06238 -1.63519 0
M  V30 2958 O 280.2 -0.129523 -1.95471 0
M  V30 2959 H 278.78 -0.726008 -0.175845 0
M  V30 2960 H 281.442 -1.93195 0.257234 0
M  V30 2961 H 280.538 -3.00989 -0.825342 0
M  V30 2962 N 280.839 0.0985539 -1.57292 0
M  V30 2963 C 282.064 0.820196 -1.90493 0
M  V30 2964 C 282.489 1.71658 -0.769094 0
M  V30 2965 O 281.847 1.79133 0.279495 0
M  V30 2966 C 281.895 1.61242 -3.22542 0
M  V30 2967 O 280.999 2.72108 -3.09888 0
M  V30 2968 H 280.34 0.225547 -0.62452 0
M  V30 2969 H 282.87 0.0748159 -2.04463 0
M  V30 2970 H 282.88 1.99737 -3.55766 0
M  V30 2971 H 281.555 0.954535 -4.04798 0
M  V30 2972 H 280.132 2.36667 -2.88172 0
M  V30 2973 N 282.317 1.53212 0.369288 0
M  V30 2974 C 283.247 1.82365 1.45826 0
M  V30 2975 C 284.228 0.676907 1.56051 0
M  V30 2976 O 285.413 0.926401 1.70679 0
M  V30 2977 C 282.543 2.01023 2.83208 0
M  V30 2978 C 281.497 3.1678 2.8781 0
M  V30 2979 C 280.823 3.20724 4.27832 0
M  V30 2980 C 282.123 4.55447 2.55667 0
M  V30 2981 H 283.817 2.73559 1.21678 0
M  V30 2982 H 281.363 1.3163 0.583911 0
M  V30 2983 H 283.316 2.20001 3.59413 0
M  V30 2984 H 282.04 1.06536 3.08736 0
M  V30 2985 H 280.699 2.97616 2.14056 0
M  V30 2986 H 280.347 2.23882 4.50429 0
M  V30 2987 H 280.047 3.98496 4.31827 0
M  V30 2988 H 281.571 3.41881 5.05915 0
M  V30 2989 H 282.985 4.74611 3.21586 0
M  V30 2990 H 281.382 5.35432 2.70984 0
M  V30 2991 H 282.452 4.60812 1.5093 0
M  V30 2992 N 283.795 -0.628877 1.44509 0
M  V30 2993 C 284.758 -1.72263 1.51188 0
M  V30 2994 C 285.758 -1.55907 0.39367 0
M  V30 2995 O 286.948 -1.61361 0.656377 0
M  V30 2996 C 284.08 -3.11365 1.38798 0
M  V30 2997 H 285.273 -1.67714 2.4862 0
M  V30 2998 H 282.826 -0.842737 1.31634 0
M  V30 2999 H 283.561 -3.21507 0.424693 0
M  V30 3000 H 283.346 -3.24644 2.19884 0
M  V30 3001 H 284.836 -3.91075 1.46458 0
M  V30 3002 N 285.273 -1.31445 -0.869486 0
M  V30 3003 C 286.236 -1.19094 -1.9583 0
M  V30 3004 C 287.236 -0.117906 -1.60367 0
M  V30 3005 O 288.426 -0.367208 -1.70286 0
M  V30 3006 C 285.558 -0.828165 -3.30688 0
M  V30 3007 H 286.751 -2.15842 -2.08212 0
M  V30 3008 H 284.304 -1.15063 -1.05784 0
M  V30 3009 H 285.039 0.138142 -3.24006 0
M  V30 3010 H 284.824 -1.6038 -3.578 0
M  V30 3011 H 286.314 -0.765658 -4.10521 0
M  V30 3012 O 286.79 1.00619 -1.26325 0
M  V30 3013 H 287.481 1.62637 -1.05209 0
M  V30 END ATOM
M  V30 BEGIN BOND
M  V30 END BOND
M  V30 END CTAB
M  END
$$$$
