drugbank_target|P63208 S-phase kinase-associated protein 1 (DB01750; DB06980; DB06981; DB06982; DB07950)
 OpenBabel12092120393D

  0  0  0     0  0            999 V3000
M  V30 BEGIN CTAB
M  V30 COUNTS 2589 2612 0 0 0
M  V30 BEGIN ATOM
M  V30 1 H -0.908 1.98254 -0.117106 0
M  V30 2 N 0 1.576 0 0
M  V30 3 C 0.933 2.03868 1.02534 0
M  V30 4 C 1.911 0.928543 1.3348 0
M  V30 5 O 3.095 1.19667 1.45644 0
M  V30 6 C 0.222 2.43627 2.35294 0
M  V30 7 C -0.732 3.65373 2.2001 0
M  V30 8 S 0.101 5.13292 1.52614 0
M  V30 9 C 1.257 5.56322 2.86805 0
M  V30 10 H 1.49 2.90518 0.631377 0
M  V30 11 H -0.977 1.52953 0.210867 0
M  V30 12 H 0.981 2.67203 3.11629 0
M  V30 13 H -0.358 1.57376 2.7183 0
M  V30 14 H -1.165 3.90944 3.18086 0
M  V30 15 H -1.563 3.418 1.51819 0
M  V30 16 H 0.729 5.58782 3.83104 0
M  V30 17 H 1.672 6.56266 2.65933 0
M  V30 18 H 2.08 4.83886 2.90714 0
M  V30 19 N 1.4781 -0.272755 1.55222 0
M  V30 20 C 2.8891 -0.84378 1.66545 0
M  V30 21 C 3.2401 -1.87035 0.592641 0
M  V30 22 O 2.3651 -2.14761 -0.265818 0
M  V30 23 C 2.9601 -1.53723 3.01918 0
M  V30 24 C 1.5191 -2.05628 3.15268 0
M  V30 25 C 0.6661 -0.898424 2.62343 0
M  V30 26 H 3.6171 -0.0490998 1.58624 0
M  V30 27 H 3.6381 -2.40421 2.94921 0
M  V30 28 H 3.1501 -0.78983 3.79978 0
M  V30 29 H 1.2511 -2.83329 2.41983 0
M  V30 30 H 1.3641 -2.27142 4.21833 0
M  V30 31 H -0.2719 -1.29186 2.19506 0
M  V30 32 H 0.5111 -0.164528 3.42906 0
M  V30 33 N 2.9562 -1.48159 -0.537278 0
M  V30 34 C 4.1812 -1.59707 -1.32319 0
M  V30 35 C 4.6062 -0.254859 -1.86365 0
M  V30 36 O 3.9642 0.772378 -1.64024 0
M  V30 37 C 4.0122 -2.6412 -2.45505 0
M  V30 38 O 3.1162 -2.20774 -3.48328 0
M  V30 39 H 2.4572 -0.535791 -0.392204 0
M  V30 40 H 4.9872 -1.94092 -0.647268 0
M  V30 41 H 4.9972 -2.85166 -2.91795 0
M  V30 42 H 3.6722 -3.61567 -2.05528 0
M  V30 43 H 2.2492 -2.09911 -3.08207 0
M  V30 44 N 4.4343 0.785586 -1.36625 0
M  V30 45 C 5.6833 1.53883 -1.30396 0
M  V30 46 C 5.9963 1.95271 0.113452 0
M  V30 47 O 7.2023 2.69858 0.298142 0
M  V30 48 C 5.6583 2.77808 -2.28802 0
M  V30 49 C 5.2663 2.43574 -3.75999 0
M  V30 50 C 7.0103 3.55783 -2.31558 0
M  V30 51 C 4.9173 3.63919 -4.66173 0
M  V30 52 H 3.8473 0.577678 -0.484566 0
M  V30 53 H 6.4983 0.861705 -1.62009 0
M  V30 54 H 4.8803 3.47339 -1.90188 0
M  V30 55 H 6.0543 1.81916 -4.23371 0
M  V30 56 H 4.3693 1.78803 -3.76056 0
M  V30 57 H 6.9663 4.45205 -2.96137 0
M  V30 58 H 7.3093 3.94644 -1.3252 0
M  V30 59 H 7.8423 2.93235 -2.68809 0
M  V30 60 H 4.5813 3.3015 -5.66287 0
M  V30 61 H 4.1013 4.2473 -4.23515 0
M  V30 62 H 5.7803 4.30901 -4.82632 0
M  V30 63 N 5.9124 1.20967 1.01018 0
M  V30 64 C 6.8594 0.964281 2.09691 0
M  V30 65 C 7.8294 -0.107853 1.65749 0
M  V30 66 O 9.0144 0.0381987 1.90762 0
M  V30 67 C 6.1544 0.52943 3.41015 0
M  V30 68 C 5.2674 1.67043 3.98398 0
M  V30 69 C 4.4024 1.18525 5.17808 0
M  V30 70 C 3.4414 2.29892 5.67288 0
M  V30 71 N 2.5784 1.82546 6.77954 0
M  V30 72 H 7.4184 1.89463 2.30017 0
M  V30 73 H 4.9554 0.944289 1.1279 0
M  V30 74 H 6.9134 0.258588 4.16398 0
M  V30 75 H 5.5434 -0.363919 3.20742 0
M  V30 76 H 4.5954 2.05603 3.20049 0
M  V30 77 H 5.9074 2.50877 4.31117 0
M  V30 78 H 5.0614 0.870762 6.00419 0
M  V30 79 H 3.8004 0.316887 4.86669 0
M  V30 80 H 2.8054 2.6215 4.83278 0
M  V30 81 H 4.0304 3.17216 6.00459 0
M  V30 82 H 1.9764 0.980454 6.48632 0
M  V30 83 H 1.8934 2.59956 7.09901 0
M  V30 84 H 3.1614 1.54115 7.64113 0
M  V30 85 N 7.3905 -1.2043 1.01659 0
M  V30 86 C 8.3205 -2.25466 0.607226 0
M  V30 87 C 9.3015 -1.65853 -0.377716 0
M  V30 88 O 10.4865 -1.92409 -0.263149 0
M  V30 89 C 7.6165 -3.47256 -0.0552949 0
M  V30 90 C 6.5705 -4.19462 0.850632 0
M  V30 91 C 5.8965 -5.34673 0.0538859 0
M  V30 92 C 7.1965 -4.75603 2.15868 0
M  V30 93 H 8.8905 -2.59962 1.48526 0
M  V30 94 H 6.4365 -1.2496 0.715605 0
M  V30 95 H 8.3895 -4.19917 -0.353233 0
M  V30 96 H 7.1135 -3.11924 -0.968045 0
M  V30 97 H 5.7725 -3.48667 1.13257 0
M  V30 98 H 5.4205 -4.95585 -0.860514 0
M  V30 99 H 5.1205 -5.83913 0.657192 0
M  V30 100 H 6.6445 -6.10138 -0.237598 0
M  V30 101 H 8.0585 -5.40083 1.92311 0
M  V30 102 H 6.4555 -5.3528 2.71284 0
M  V30 103 H 7.5255 -3.94346 2.82169 0
M  V30 104 N 8.8686 -0.792821 -1.36206 0
M  V30 105 C 9.8006 -0.151469 -2.28699 0
M  V30 106 C 10.8136 0.641262 -1.49638 0
M  V30 107 O 12.0026 0.475885 -1.72039 0
M  V30 108 C 9.1026 0.808424 -3.29117 0
M  V30 109 C 8.2756 0.0650202 -4.37352 0
M  V30 110 C 7.3346 0.941358 -5.17711 0
M  V30 111 O 6.3606 0.397352 -5.67811 0
M  V30 112 N 7.5626 2.2652 -5.3448 0
M  V30 113 H 10.3276 -0.945982 -2.84379 0
M  V30 114 H 7.8886 -0.647032 -1.48409 0
M  V30 115 H 9.8806 1.3986 -3.79765 0
M  V30 116 H 8.4506 1.5038 -2.74052 0
M  V30 117 H 7.6706 -0.706255 -3.87822 0
M  V30 118 H 8.9586 -0.447847 -5.06825 0
M  V30 119 H 8.3566 2.73128 -4.95396 0
M  V30 120 H 6.9136 2.80493 -5.88359 0
M  V30 121 N 10.3467 1.47872 -0.545128 0
M  V30 122 C 11.5717 2.07391 -0.0190611 0
M  V30 123 C 11.9967 1.39688 1.25971 0
M  V30 124 O 11.3547 0.467816 1.7516 0
M  V30 125 C 11.4027 3.60188 0.172335 0
M  V30 126 O 10.5067 3.9339 1.23766 0
M  V30 127 H 9.8477 0.662411 -0.0459059 0
M  V30 128 H 12.3777 1.90066 -0.757365 0
M  V30 129 H 12.3877 4.06129 0.390305 0
M  V30 130 H 11.0627 4.08865 -0.761725 0
M  V30 131 H 9.6397 3.5921 1.00114 0
M  V30 132 N 11.8248 0.280983 1.55075 0
M  V30 133 C 13.0498 -0.340154 2.04592 0
M  V30 134 C 13.4748 -1.48246 1.15779 0
M  V30 135 O 12.8328 -1.80614 0.15761 0
M  V30 136 C 12.8808 -0.793104 3.5177 0
M  V30 137 O 11.9848 -1.89981 3.66034 0
M  V30 138 H 11.3258 -0.0694289 0.66036 0
M  V30 139 H 13.8558 0.416993 2.00306 0
M  V30 140 H 13.8658 -1.08729 3.93245 0
M  V30 141 H 12.5408 0.0426163 4.15878 0
M  V30 142 H 11.1178 -1.60771 3.36463 0
M  V30 143 N 13.3029 -1.57598 0.00835791 0
M  V30 144 C 14.5799 -1.82172 -0.712235 0
M  V30 145 C 14.9599 -0.887873 -1.9152 0
M  V30 146 O 14.3079 0.06146 -2.28417 0
M  V30 147 C 14.5179 -3.30875 -1.11008 0
M  V30 148 C 15.8659 -3.96826 -1.51044 0
M  V30 149 O 16.8899 -3.35248 -1.20364 0
M  V30 150 O 15.7489 -5.05318 -2.08125 0
M  V30 151 H 12.8429 -0.750435 -0.347529 0
M  V30 152 H 15.3889 -1.69665 0.0344523 0
M  V30 153 H 14.1609 -3.90481 -0.252982 0
M  V30 154 H 13.7839 -3.48412 -1.9156 0
M  V30 155 N 14.781 0.264519 -1.55364 0
M  V30 156 C 16.029 0.993021 -1.76021 0
M  V30 157 C 16.35 1.86511 -0.569099 0
M  V30 158 O 15.62 1.91438 0.415735 0
M  V30 159 H 14.2 0.369639 -0.649135 0
M  V30 160 H 16.862 0.286707 -1.9278 0
M  V30 161 H 15.958 1.62502 -2.66457 0
M  V30 162 N 16.2591 1.48442 0.529413 0
M  V30 163 C 17.1691 1.6569 1.66084 0
M  V30 164 C 18.1851 0.539432 1.65427 0
M  V30 165 O 19.3611 0.810572 1.84368 0
M  V30 166 C 16.4261 1.69315 3.02545 0
M  V30 167 C 15.4871 2.92694 3.14052 0
M  V30 168 C 14.7201 2.96137 4.44003 0
M  V30 169 O 14.9431 2.07973 5.31134 0
M  V30 170 O 13.8771 3.88312 4.59888 0
M  V30 171 H 17.7031 2.61483 1.54469 0
M  V30 172 H 15.2881 1.3185 0.702567 0
M  V30 173 H 17.1701 1.74217 3.83701 0
M  V30 174 H 15.8451 0.766966 3.14483 0
M  V30 175 H 14.7521 2.93324 2.32189 0
M  V30 176 H 16.0851 3.84699 3.0703 0
M  V30 177 N 17.7372 -0.778329 1.37039 0
M  V30 178 C 18.9862 -1.53189 1.3121 0
M  V30 179 C 19.2992 -1.95328 -0.103095 0
M  V30 180 O 20.5052 -2.70012 -0.283826 0
M  V30 181 C 18.9612 -2.76591 2.30272 0
M  V30 182 C 18.5692 -2.41577 3.77286 0
M  V30 183 C 20.3132 -3.5455 2.33441 0
M  V30 184 C 18.2202 -3.61441 4.68096 0
M  V30 185 H 17.1502 -0.5751 0.487622 0
M  V30 186 H 19.8012 -0.853101 1.62464 0
M  V30 187 H 18.1832 -3.46326 1.92027 0
M  V30 188 H 19.3572 -1.79668 4.2433 0
M  V30 189 H 17.6722 -1.76806 3.76999 0
M  V30 190 H 20.2692 -4.43628 2.98493 0
M  V30 191 H 20.6122 -3.93936 1.34611 0
M  V30 192 H 21.1452 -2.91805 2.7036 0
M  V30 193 H 17.8842 -3.27142 5.6803 0
M  V30 194 H 17.4042 -4.22478 4.25761 0
M  V30 195 H 19.0832 -4.28335 4.8491 0
M  V30 196 N 19.2153 -1.21501 -1.00376 0
M  V30 197 C 20.4623 -1.03299 -1.74171 0
M  V30 198 C 20.7903 0.433326 -1.89612 0
M  V30 199 O 20.0453 1.33779 -1.42834 0
M  V30 200 C 20.3443 -1.67673 -3.15627 0
M  V30 201 C 20.0103 -3.17533 -3.2013 0
M  V30 202 C 18.6723 -3.58427 -3.21067 0
M  V30 203 C 21.0243 -4.13504 -3.17275 0
M  V30 204 C 18.3523 -4.93794 -3.16835 0
M  V30 205 C 20.7043 -5.48834 -3.14585 0
M  V30 206 C 19.3683 -5.89123 -3.13831 0
M  V30 207 H 18.6383 -0.377999 -0.637336 0
M  V30 208 H 21.2853 -1.51111 -1.17634 0
M  V30 209 H 19.5903 -1.12158 -3.75404 0
M  V30 210 H 21.2873 -1.51091 -3.71446 0
M  V30 211 H 17.8773 -2.84965 -3.20145 0
M  V30 212 H 22.0613 -3.82936 -3.15711 0
M  V30 213 H 17.3173 -5.24255 -3.1459 0
M  V30 214 H 21.4913 -6.22934 -3.1133 0
M  V30 215 H 19.1183 -6.93984 -3.10307 0
M  V30 216 N 20.6934 1.19889 -1.02296 0
M  V30 217 C 21.6034 2.26571 -0.608508 0
M  V30 218 C 22.6194 1.70299 0.356964 0
M  V30 219 O 23.7954 2.00235 0.216326 0
M  V30 220 C 20.8604 3.46677 0.0402814 0
M  V30 221 C 19.9214 4.18153 -0.97194 0
M  V30 222 C 19.1544 5.32525 -0.354016 0
M  V30 223 O 19.3774 5.64112 0.844604 0
M  V30 224 O 18.3114 5.92242 -1.07391 0
M  V30 225 H 22.1374 2.64251 -1.49684 0
M  V30 226 H 19.7224 1.26629 -0.792809 0
M  V30 227 H 21.6044 4.19475 0.402324 0
M  V30 228 H 20.2794 3.10858 0.902707 0
M  V30 229 H 19.1864 3.47499 -1.38546 0
M  V30 230 H 20.5194 4.57927 -1.80454 0
M  V30 231 N 22.1715 0.800033 1.35784 0
M  V30 232 C 23.4175 0.377901 1.99248 0
M  V30 233 C 23.7505 -1.05052 1.63333 0
M  V30 234 O 23.0255 -1.72768 0.893385 0
M  V30 235 C 23.3085 0.553922 3.55814 0
M  V30 236 C 23.1615 2.0268 4.01548 0
M  V30 237 C 24.4805 -0.0244802 4.40093 0
M  V30 238 H 21.5995 0.138782 0.723815 0
M  V30 239 H 24.2415 1.00835 1.61035 0
M  V30 240 H 22.3915 0.0172398 3.88496 0
M  V30 241 H 24.0635 2.62536 3.79305 0
M  V30 242 H 22.3065 2.5256 3.52698 0
M  V30 243 H 22.9775 2.10087 5.10458 0
M  V30 244 H 25.4535 0.433775 4.13833 0
M  V30 245 H 24.3295 0.128637 5.48749 0
M  V30 246 H 24.5905 -1.11758 4.27741 0
M  V30 247 N 23.6496 -1.47581 0.552962 0
M  V30 248 C 24.9266 -1.95563 -0.0381515 0
M  V30 249 C 25.3066 -1.49552 -1.48988 0
M  V30 250 O 24.6546 -0.732414 -2.16444 0
M  V30 251 C 24.8646 -3.48848 0.102919 0
M  V30 252 C 26.2126 -4.24577 -0.0446082 0
M  V30 253 O 27.2366 -3.56187 0.0302548 0
M  V30 254 O 26.0956 -5.46116 -0.204923 0
M  V30 255 H 23.1896 -0.824321 -0.0665067 0
M  V30 256 H 25.7356 -1.58001 0.619186 0
M  V30 257 H 24.5076 -3.75129 1.11328 0
M  V30 258 H 24.1306 -3.93165 -0.592224 0
M  V30 259 N 25.1277 -0.289203 -1.54924 0
M  V30 260 C 26.3737 0.323998 -2.00195 0
M  V30 261 C 26.7067 1.54441 -1.17735 0
M  V30 262 O 25.9817 1.92875 -0.250878 0
M  V30 263 C 26.2647 0.692276 -3.53383 0
M  V30 264 C 26.1177 -0.536457 -4.46589 0
M  V30 265 C 27.4367 1.52335 -4.12895 0
M  V30 266 H 24.5557 0.116289 -0.727768 0
M  V30 267 H 27.1977 -0.398954 -1.85764 0
M  V30 268 H 25.3477 1.30822 -3.65811 0
M  V30 269 H 27.0197 -1.17499 -4.46085 0
M  V30 270 H 25.2627 -1.17192 -4.1767 0
M  V30 271 H 25.9337 -0.234806 -5.515 0
M  V30 272 H 28.4097 1.00302 -4.0383 0
M  V30 273 H 27.2857 1.74982 -5.20262 0
M  V30 274 H 27.5467 2.50886 -3.64018 0
M  V30 275 N 26.6058 1.57591 -0.0167156 0
M  V30 276 C 27.5158 2.1291 0.98521 0
M  V30 277 C 28.5318 1.07834 1.36557 0
M  V30 278 O 29.7078 1.39826 1.44951 0
M  V30 279 C 26.7728 2.63512 2.25305 0
M  V30 280 C 25.8338 3.83256 1.93426 0
M  V30 281 C 25.0668 4.31435 3.14165 0
M  V30 282 O 25.2898 3.78851 4.26413 0
M  V30 283 O 24.2238 5.23416 2.97186 0
M  V30 284 H 28.0498 2.98772 0.544888 0
M  V30 285 H 25.6348 1.48012 0.203141 0
M  V30 286 H 27.5168 2.96183 2.99756 0
M  V30 287 H 26.1918 1.8074 2.68542 0
M  V30 288 H 25.0988 3.55531 1.16398 0
M  V30 289 H 26.4318 4.67153 1.55013 0
M  V30 290 N 28.0839 -0.256276 1.55502 0
M  V30 291 C 29.3329 -0.983486 1.76098 0
M  V30 292 C 29.6459 -1.86837 0.578896 0
M  V30 293 O 30.8519 -2.63163 0.667648 0
M  V30 294 C 29.3079 -1.79868 3.1173 0
M  V30 295 C 28.9159 -0.961648 4.37557 0
M  V30 296 C 30.6599 -2.51919 3.41668 0
M  V30 297 C 28.5669 -1.77219 5.64223 0
M  V30 298 H 27.4969 -0.370936 0.656447 0
M  V30 299 H 30.1479 -0.238492 1.81944 0
M  V30 300 H 28.5299 -2.58527 2.99966 0
M  V30 301 H 29.7039 -0.218048 4.60284 0
M  V30 302 H 28.0189 -0.354913 4.14885 0
M  V30 303 H 30.6159 -3.12998 4.33516 0
M  V30 304 H 30.9589 -3.23059 2.62562 0
M  V30 305 H 31.4919 -1.80278 3.54605 0
M  V30 306 H 28.2309 -1.10471 6.46124 0
M  V30 307 H 27.7509 -2.49132 5.45613 0
M  V30 308 H 29.4299 -2.34169 6.03137 0
M  V30 309 N 29.562 -1.4872 -0.521534 0
M  V30 310 C 30.525 -1.63379 -1.60748 0
M  V30 311 C 31.525 -0.50661 -1.52611 0
M  V30 312 O 32.715 -0.772601 -1.5613 0
M  V30 313 C 29.847 -1.61192 -3.00383 0
M  V30 314 H 31.04 -2.60217 -1.49087 0
M  V30 315 H 28.593 -1.37444 -0.744235 0
M  V30 316 H 29.328 -0.65863 -3.17541 0
M  V30 317 H 29.113 -2.43032 -3.07698 0
M  V30 318 H 30.603 -1.7466 -3.7932 0
M  V30 319 N 31.0401 0.771051 -1.3745 0
M  V30 320 C 31.9871 1.88435 -1.3327 0
M  V30 321 C 32.9571 1.64914 -0.198136 0
M  V30 322 O 34.1421 1.86821 -0.387606 0
M  V30 323 C 31.2821 3.25509 -1.14622 0
M  V30 324 C 30.3951 3.60979 -2.37314 0
M  V30 325 C 29.5301 4.87265 -2.11533 0
M  V30 326 C 28.5691 5.15469 -3.30088 0
M  V30 327 N 27.7061 6.32944 -3.03853 0
M  V30 328 H 32.5461 1.91344 -2.28455 0
M  V30 329 H 30.0831 0.935466 -1.13523 0
M  V30 330 H 32.0411 4.04582 -1.01831 0
M  V30 331 H 30.6711 3.21974 -0.230837 0
M  V30 332 H 29.7231 2.76885 -2.60842 0
M  V30 333 H 31.0351 3.77759 -3.25729 0
M  V30 334 H 30.1891 5.74244 -1.95777 0
M  V30 335 H 28.9281 4.7259 -1.20457 0
M  V30 336 H 27.9331 4.26966 -3.46382 0
M  V30 337 H 29.1581 5.32052 -4.22016 0
M  V30 338 H 27.1041 6.19625 -2.15407 0
M  V30 339 H 27.0211 6.50143 -3.85812 0
M  V30 340 H 28.2891 7.22857 -2.91716 0
M  V30 341 N 32.5182 1.22032 0.997298 0
M  V30 342 C 33.4502 0.944263 2.08845 0
M  V30 343 C 34.4632 -0.0754663 1.62625 0
M  V30 344 O 35.6522 0.157994 1.77799 0
M  V30 345 C 32.7522 0.397723 3.36558 0
M  V30 346 C 31.9252 1.47362 4.11829 0
M  V30 347 C 30.9842 0.934951 5.17827 0
M  V30 348 O 30.0102 1.62016 5.45655 0
M  V30 349 N 31.2122 -0.245895 5.79979 0
M  V30 350 H 33.9772 1.88363 2.33109 0
M  V30 351 H 31.5382 1.12661 1.16272 0
M  V30 352 H 33.5302 0.0227771 4.04694 0
M  V30 353 H 32.1002 -0.446646 3.09393 0
M  V30 354 H 31.3202 2.02208 3.38386 0
M  V30 355 H 32.6082 2.19764 4.58891 0
M  V30 356 H 32.0062 -0.819475 5.59733 0
M  V30 357 H 30.5632 -0.562272 6.4937 0
M  V30 358 N 33.9963 -1.19345 1.0293 0
M  V30 359 C 35.2213 -1.93538 0.745511 0
M  V30 360 C 35.6463 -1.75007 -0.689511 0
M  V30 361 O 35.0043 -1.05265 -1.47611 0
M  V30 362 C 35.0523 -3.43336 1.10239 0
M  V30 363 O 34.1563 -4.11806 0.221289 0
M  V30 364 H 33.4973 -0.604193 0.275404 0
M  V30 365 H 36.0273 -1.5141 1.37609 0
M  V30 366 H 36.0373 -3.94004 1.05947 0
M  V30 367 H 34.7123 -3.56146 2.14786 0
M  V30 368 H 33.2893 -3.715 0.322842 0
M  V30 369 N 35.4744 -0.807222 -1.35358 0
M  V30 370 C 36.7204 -0.388463 -1.99045 0
M  V30 371 C 37.0534 1.04184 -1.63888 0
M  V30 372 O 36.3284 1.72292 -0.902535 0
M  V30 373 C 36.6114 -0.572783 -3.55515 0
M  V30 374 C 36.4644 -2.04807 -4.00468 0
M  V30 375 C 37.7834 0.00114064 -4.401 0
M  V30 376 H 34.9024 -0.142619 -0.723069 0
M  V30 377 H 37.5444 -1.01687 -1.60498 0
M  V30 378 H 35.6944 -0.0378425 -3.88482 0
M  V30 379 H 37.3664 -2.64544 -3.77908 0
M  V30 380 H 35.6094 -2.54427 -3.51353 0
M  V30 381 H 36.2804 -2.12792 -5.09337 0
M  V30 382 H 38.7564 -0.455716 -4.13597 0
M  V30 383 H 37.6324 -0.157737 -5.48673 0
M  V30 384 H 37.8934 1.09488 -4.28328 0
M  V30 385 N 36.9525 1.47285 -0.560781 0
M  V30 386 C 38.1805 2.06855 -0.0430262 0
M  V30 387 C 38.5955 1.41291 1.25229 0
M  V30 388 O 37.9525 0.510648 1.7521 0
M  V30 389 C 38.0035 3.61178 0.152518 0
M  V30 390 O 37.7245 4.24285 -1.0915 0
M  V30 391 C 39.2255 4.37624 0.707145 0
M  V30 392 H 36.4455 0.669319 -0.0474652 0
M  V30 393 H 38.9895 1.89237 -0.77521 0
M  V30 394 H 37.1445 3.78298 0.834843 0
M  V30 395 H 37.5585 5.16868 -0.891482 0
M  V30 396 H 39.0325 5.46271 0.793244 0
M  V30 397 H 39.5095 4.04152 1.71923 0
M  V30 398 H 40.1155 4.25257 0.0604027 0
M  V30 399 N 38.4306 0.297415 1.54768 0
M  V30 400 C 39.6796 -0.313669 1.99246 0
M  V30 401 C 39.9926 -1.55281 1.18942 0
M  V30 402 O 41.1986 -2.23825 1.5367 0
M  V30 403 C 39.6546 -0.609407 3.54703 0
M  V30 404 C 39.2626 0.611192 4.43811 0
M  V30 405 C 41.0066 -1.18188 4.07715 0
M  V30 406 C 38.9136 0.288805 5.90694 0
M  V30 407 H 37.8436 -0.120979 0.744231 0
M  V30 408 H 40.4946 0.40556 1.78962 0
M  V30 409 H 38.8766 -1.38813 3.70873 0
M  V30 410 H 40.0506 1.3875 4.39414 0
M  V30 411 H 38.3656 1.10205 4.01552 0
M  V30 412 H 40.9626 -1.43727 5.15021 0
M  V30 413 H 41.3056 -2.12299 3.58099 0
M  V30 414 H 41.8386 -0.464944 3.95074 0
M  V30 415 H 38.5776 1.19838 6.44453 0
M  V30 416 H 38.0976 -0.450305 5.98107 0
M  V30 417 H 39.7766 -0.110933 6.46905 0
M  V30 418 N 39.9087 -1.5758 0.0250728 0
M  V30 419 C 40.8557 -2.09973 -0.958129 0
M  V30 420 C 41.8257 -1.00085 -1.3256 0
M  V30 421 O 43.0107 -1.27481 -1.41962 0
M  V30 422 C 40.1507 -2.62812 -2.2366 0
M  V30 423 C 39.2637 -3.86693 -1.92594 0
M  V30 424 C 38.3987 -4.27941 -3.14707 0
M  V30 425 C 37.4377 -5.44591 -2.79442 0
M  V30 426 N 36.5747 -5.81014 -3.94167 0
M  V30 427 H 41.4147 -2.937 -0.504428 0
M  V30 428 H 38.9517 -1.45172 -0.237392 0
M  V30 429 H 40.9097 -2.91536 -2.98434 0
M  V30 430 H 39.5397 -1.81922 -2.66654 0
M  V30 431 H 38.5917 -3.64723 -1.0808 0
M  V30 432 H 39.9037 -4.71547 -1.62619 0
M  V30 433 H 39.0577 -4.58079 -3.97804 0
M  V30 434 H 37.7967 -3.41845 -3.4784 0
M  V30 435 H 36.8017 -5.1415 -1.94755 0
M  V30 436 H 38.0267 -6.32382 -2.47528 0
M  V30 437 H 35.9727 -4.97874 -4.2715 0
M  V30 438 H 35.8897 -6.60498 -3.67801 0
M  V30 439 H 37.1577 -6.15756 -4.7798 0
M  V30 440 N 41.3868 0.248026 -1.55636 0
M  V30 441 C 42.6148 0.993808 -1.81469 0
M  V30 442 C 43.0298 1.78991 -0.60064 0
M  V30 443 O 42.3868 1.77345 0.430682 0
M  V30 444 C 42.4378 1.93258 -3.05506 0
M  V30 445 O 42.1588 1.16869 -4.22224 0
M  V30 446 C 43.6598 2.79444 -3.4413 0
M  V30 447 H 40.8798 0.292486 -0.603898 0
M  V30 448 H 43.4238 0.271253 -2.02693 0
M  V30 449 H 41.5788 2.60943 -2.86335 0
M  V30 450 H 41.9928 1.80359 -4.92515 0
M  V30 451 H 43.4668 3.41066 -4.34026 0
M  V30 452 H 43.9438 3.50499 -2.64665 0
M  V30 453 H 44.5498 2.17214 -3.65648 0
M  V30 454 N 42.8649 1.48995 0.513639 0
M  V30 455 C 43.7979 1.59319 1.63379 0
M  V30 456 C 44.7759 0.442816 1.56454 0
M  V30 457 O 45.9599 0.656655 1.76693 0
M  V30 458 C 43.0869 1.5364 3.01848 0
M  V30 459 C 42.1329 2.7372 3.27078 0
M  V30 460 S 42.9659 4.35528 3.1157 0
M  V30 461 C 44.1219 4.32473 4.52458 0
M  V30 462 H 44.3549 2.54079 1.54374 0
M  V30 463 H 41.8879 1.3773 0.697849 0
M  V30 464 H 43.8459 1.51049 3.81699 0
M  V30 465 H 42.5069 0.601898 3.08279 0
M  V30 466 H 41.6999 2.6593 4.28132 0
M  V30 467 H 41.3019 2.73657 2.54927 0
M  V30 468 H 43.5939 4.03414 5.44301 0
M  V30 469 H 44.5369 5.33762 4.65299 0
M  V30 470 H 44.9449 3.62718 4.32546 0
M  V30 471 N 44.343 -0.763751 1.37857 0
M  V30 472 C 45.273 -1.89103 1.36975 0
M  V30 473 C 46.254 -1.68439 0.237152 0
M  V30 474 O 47.439 -1.8918 0.438713 0
M  V30 475 C 44.569 -3.26496 1.18395 0
M  V30 476 C 43.523 -3.61741 2.28751 0
M  V30 477 C 42.849 -4.97762 1.95286 0
M  V30 478 C 44.149 -3.67665 3.70972 0
M  V30 479 H 45.843 -1.90099 2.31307 0
M  V30 480 H 43.389 -0.91319 1.11341 0
M  V30 481 H 45.342 -4.05003 1.16406 0
M  V30 482 H 44.066 -3.25955 0.205215 0
M  V30 483 H 42.725 -2.85547 2.29909 0
M  V30 484 H 42.373 -4.93769 0.959221 0
M  V30 485 H 42.073 -5.22313 2.69189 0
M  V30 486 H 43.597 -5.7866 1.94898 0
M  V30 487 H 45.011 -4.36307 3.719 0
M  V30 488 H 43.408 -4.03718 4.43995 0
M  V30 489 H 44.478 -2.68134 4.0402 0
M  V30 490 N 45.8211 -1.22559 -0.990812 0
M  V30 491 C 46.7311 -1.01394 -2.11557 0
M  V30 492 C 47.7471 0.0383962 -1.73958 0
M  V30 493 O 48.9231 -0.154787 -2.00804 0
M  V30 494 C 45.9881 -0.596569 -3.41529 0
M  V30 495 C 45.0491 -1.72276 -3.93217 0
M  V30 496 C 44.2821 -1.32521 -5.16985 0
M  V30 497 O 44.5051 -0.204909 -5.70032 0
M  V30 498 O 43.4391 -2.14247 -5.62478 0
M  V30 499 H 47.2651 -1.95633 -2.32296 0
M  V30 500 H 44.8501 -1.01172 -1.0993 0
M  V30 501 H 46.7321 -0.374263 -4.19735 0
M  V30 502 H 45.4071 0.316939 -3.22145 0
M  V30 503 H 44.3141 -1.99961 -3.16174 0
M  V30 504 H 45.6471 -2.61421 -4.17037 0
M  V30 505 N 47.2992 1.18797 -1.03562 0
M  V30 506 C 48.5762 1.84469 -0.650434 0
M  V30 507 C 48.9562 1.92319 0.870433 0
M  V30 508 O 48.3042 1.44528 1.76986 0
M  V30 509 C 48.5142 3.2306 -1.32036 0
M  V30 510 C 49.8622 3.9915 -1.44792 0
M  V30 511 O 50.8862 3.32481 -1.27806 0
M  V30 512 O 49.7452 5.18587 -1.72423 0
M  V30 513 H 46.8392 0.795251 -0.226946 0
M  V30 514 H 49.3852 1.26231 -1.13419 0
M  V30 515 H 48.1572 3.1222 -2.3587 0
M  V30 516 H 47.7802 3.88949 -0.8249 0
M  V30 517 N 48.7773 0.814389 1.34928 0
M  V30 518 C 49.7073 0.244827 2.32213 0
M  V30 519 C 50.6883 -0.634024 1.57842 0
M  V30 520 O 51.8733 -0.562676 1.8587 0
M  V30 521 C 49.0033 -0.601106 3.42058 0
M  V30 522 C 47.9573 0.179896 4.27622 0
M  V30 523 C 47.2833 -0.788237 5.28858 0
M  V30 524 C 48.5833 1.38329 5.03649 0
M  V30 525 H 50.2773 1.05763 2.80097 0
M  V30 526 H 47.8233 0.510029 1.34665 0
M  V30 527 H 49.7763 -1.00968 4.09125 0
M  V30 528 H 48.5003 -1.44688 2.92802 0
M  V30 529 H 47.1593 0.569739 3.62146 0
M  V30 530 H 46.8073 -1.62973 4.75866 0
M  V30 531 H 46.5073 -0.269942 5.8698 0
M  V30 532 H 48.0313 -1.19485 5.98795 0
M  V30 533 H 49.4453 1.04918 5.63618 0
M  V30 534 H 47.8423 1.83662 5.71304 0
M  V30 535 H 48.9123 2.16592 4.33839 0
M  V30 536 N 50.2554 -1.46986 0.568584 0
M  V30 537 C 51.5034 -2.02041 0.0487022 0
M  V30 538 C 51.8244 -1.44408 -1.31039 0
M  V30 539 O 51.0944 -0.623477 -1.85714 0
M  V30 540 H 49.6744 -0.746849 0.015014 0
M  V30 541 H 52.3364 -1.80257 0.741168 0
M  V30 542 H 51.4324 -3.12085 -0.0308961 0
M  V30 543 N 51.7335 -0.305618 -1.54608 0
M  V30 544 C 52.6665 0.610536 -2.19881 0
M  V30 545 C 53.6445 1.1294 -1.16976 0
M  V30 546 O 54.8285 1.19673 -1.45638 0
M  V30 547 C 51.9555 1.83583 -2.84631 0
M  V30 548 C 51.0015 1.4498 -4.01102 0
M  V30 549 S 51.8345 0.501793 -5.33144 0
M  V30 550 C 52.9905 1.73478 -6.01379 0
M  V30 551 H 53.2235 0.0560177 -2.97247 0
M  V30 552 H 50.7565 -0.0897434 -1.54139 0
M  V30 553 H 52.7145 2.53898 -3.22562 0
M  V30 554 H 51.3755 2.36152 -2.07102 0
M  V30 555 H 50.5685 2.36236 -4.45206 0
M  V30 556 H 50.1705 0.826553 -3.64752 0
M  V30 557 H 52.4625 2.67473 -6.22467 0
M  V30 558 H 53.4055 1.33622 -6.95378 0
M  V30 559 H 53.8135 1.9136 -5.31076 0
M  V30 560 N 53.2116 1.57565 -0.0334293 0
M  V30 561 C 54.4886 1.83282 0.683163 0
M  V30 562 C 54.8686 0.91823 1.90084 0
M  V30 563 O 54.2166 -0.025113 2.28486 0
M  V30 564 C 54.4266 3.32599 1.0573 0
M  V30 565 C 55.7746 3.99179 1.44711 0
M  V30 566 O 56.7986 3.3712 1.15015 0
M  V30 567 O 55.6576 5.08565 2.0006 0
M  V30 568 H 52.7516 0.755869 0.335546 0
M  V30 569 H 55.2976 1.69589 -0.0614402 0
M  V30 570 H 54.0696 3.90834 0.190828 0
M  V30 571 H 53.6926 3.51415 1.85993 0
M  V30 572 N 54.6897 -0.239769 1.55765 0
M  V30 573 C 55.9667 -0.990056 1.68693 0
M  V30 574 C 56.3467 -2.03107 0.5754 0
M  V30 575 O 55.6947 -2.24604 -0.42017 0
M  V30 576 C 55.9047 -1.61696 3.09282 0
M  V30 577 C 57.2527 -2.11613 3.6811 0
M  V30 578 O 58.2767 -1.71624 3.12127 0
M  V30 579 O 57.1357 -2.85057 4.66267 0
M  V30 580 H 54.2297 -0.461299 0.686391 0
M  V30 581 H 56.7757 -0.232991 1.68093 0
M  V30 582 H 55.5477 -0.864357 3.81634 0
M  V30 583 H 55.1707 -2.44005 3.13923 0
M  V30 584 N 56.1678 -1.49265 -0.50573 0
M  V30 585 C 57.0778 -1.68312 -1.63427 0
M  V30 586 C 58.0938 -0.565682 -1.64548 0
M  V30 587 O 59.2698 -0.839801 -1.83055 0
M  V30 588 C 56.3348 -1.74107 -2.99813 0
M  V30 589 C 55.3958 -2.97653 -3.09356 0
M  V30 590 C 54.6288 -3.03163 -4.39236 0
M  V30 591 O 54.8518 -2.16396 -5.27758 0
M  V30 592 O 53.7858 -3.9558 -4.53652 0
M  V30 593 H 57.6118 -2.63907 -1.50289 0
M  V30 594 H 55.1968 -1.32951 -0.681502 0
M  V30 595 H 57.0788 -1.803 -3.80881 0
M  V30 596 H 55.7538 -0.816901 -3.13223 0
M  V30 597 H 54.6608 -2.96981 -2.27493 0
M  V30 598 H 55.9938 -3.89535 -3.00871 0
M  V30 599 N 57.6459 0.756429 -1.3826 0
M  V30 600 C 58.8939 1.51248 -1.34047 0
M  V30 601 C 59.2149 1.94875 0.0698372 0
M  V30 602 O 58.4849 1.67436 1.01696 0
M  V30 603 H 57.0649 0.561018 -0.493222 0
M  V30 604 H 59.7269 0.899347 -1.7291 0
M  V30 605 H 58.8229 2.40472 -1.98947 0
M  V30 606 N 59.124 1.23083 0.984299 0
M  V30 607 C 60.401 0.9689 1.69917 0
M  V30 608 C 60.781 -0.513604 2.04757 0
M  V30 609 O 60.129 -1.48383 1.73767 0
M  V30 610 C 60.339 1.87518 2.94343 0
M  V30 611 C 61.687 2.13636 3.6694 0
M  V30 612 O 62.711 1.85036 3.04368 0
M  V30 613 O 61.57 2.62119 4.79537 0
M  V30 614 H 58.664 0.365095 0.742048 0
M  V30 615 H 61.21 1.34107 1.03987 0
M  V30 616 H 59.982 2.87756 2.65164 0
M  V30 617 H 59.605 1.50514 3.6801 0
M  V30 618 N 60.6021 -1.18246 1.0419 0
M  V30 619 C 61.8791 -1.84121 0.660208 0
M  V30 620 C 62.2591 -1.92778 -0.860221 0
M  V30 621 O 61.6071 -1.45464 -1.76217 0
M  V30 622 C 61.8171 -3.22355 1.33747 0
M  V30 623 C 63.1651 -3.98376 1.46906 0
M  V30 624 O 64.1891 -3.31799 1.29568 0
M  V30 625 O 63.0481 -5.17665 1.75171 0
M  V30 626 H 60.1421 -0.794036 0.231161 0
M  V30 627 H 62.6881 -1.25628 1.14087 0
M  V30 628 H 61.4601 -3.10964 2.37522 0
M  V30 629 H 61.0831 -3.88506 0.845515 0
M  V30 630 N 62.0802 -0.821533 -1.34494 0
M  V30 631 C 63.3572 -0.33159 -1.92769 0
M  V30 632 C 63.7372 1.18088 -1.74981 0
M  V30 633 O 63.0852 1.98733 -1.12772 0
M  V30 634 C 63.2952 -0.759398 -3.40638 0
M  V30 635 C 64.6432 -0.757433 -4.1779 0
M  V30 636 O 65.6672 -0.70189 -3.49216 0
M  V30 637 O 64.5262 -0.829361 -5.4017 0
M  V30 638 H 61.6202 -0.0902502 -0.822061 0
M  V30 639 H 64.1662 -0.906231 -1.43477 0
M  V30 640 H 62.9382 -1.8012 -3.47379 0
M  V30 641 H 62.5612 -0.160378 -3.97276 0
M  V30 642 N 63.5583 1.46682 -0.576371 0
M  V30 643 C 64.9693 1.86112 -0.148091 0
M  V30 644 C 65.3203 1.48073 1.2872 0
M  V30 645 O 64.4453 0.892656 1.97131 0
M  V30 646 C 65.0403 3.37786 -0.261982 0
M  V30 647 C 63.5993 3.76235 0.111384 0
M  V30 648 C 62.7463 2.70713 -0.60083 0
M  V30 649 H 65.6973 1.37927 -0.78497 0
M  V30 650 H 65.7183 3.77007 0.514364 0
M  V30 651 H 65.2303 3.6544 -1.30671 0
M  V30 652 H 63.3313 3.54198 1.15649 0
M  V30 653 H 63.4443 4.78391 -0.26052 0
M  V30 654 H 61.8083 2.54666 -0.0417783 0
M  V30 655 H 62.5913 3.01208 -1.64708 0
M  V30 656 N 65.0364 0.313813 1.54444 0
M  V30 657 C 66.2824 -0.292108 2.00685 0
M  V30 658 C 66.6154 -1.52548 1.20177 0
M  V30 659 O 65.8904 -1.92452 0.281531 0
M  V30 660 C 66.1734 -0.635968 3.5444 0
M  V30 661 C 66.0264 0.607437 4.4568 0
M  V30 662 C 67.3454 -1.45747 4.15266 0
M  V30 663 H 64.4644 -0.104697 0.729526 0
M  V30 664 H 67.1064 0.428457 1.85106 0
M  V30 665 H 65.2564 -1.24986 3.67846 0
M  V30 666 H 66.9284 1.24581 4.44159 0
M  V30 667 H 65.1714 1.23822 4.15753 0
M  V30 668 H 65.8424 0.322515 5.51057 0
M  V30 669 H 68.3184 -0.938645 4.05375 0
M  V30 670 H 67.1944 -1.66683 5.2298 0
M  V30 671 H 67.4554 -2.45063 3.67963 0
M  V30 672 N 66.5145 -1.57545 0.0417849 0
M  V30 673 C 67.9255 -1.80011 -0.495259 0
M  V30 674 C 68.2765 -0.953199 -1.71489 0
M  V30 675 O 67.4015 -0.167138 -2.15754 0
M  V30 676 C 67.9965 -3.26482 -0.905265 0
M  V30 677 C 66.5555 -3.499 -1.38734 0
M  V30 678 C 65.7025 -2.74979 -0.358056 0
M  V30 679 H 68.6535 -1.56425 0.267736 0
M  V30 680 H 68.6745 -3.36887 -1.76882 0
M  V30 681 H 68.1865 -3.88096 -0.017401 0
M  V30 682 H 66.2875 -2.93553 -2.29471 0
M  V30 683 H 66.4005 -4.58615 -1.38598 0
M  V30 684 H 64.7645 -2.40834 -0.828912 0
M  V30 685 H 65.5475 -3.39315 0.521561 0
M  V30 686 N 67.9926 0.231505 -1.5589 0
M  V30 687 C 68.9226 1.29022 -1.94617 0
M  V30 688 C 69.9036 1.4941 -0.813067 0
M  V30 689 O 71.0886 1.6176 -1.07459 0
M  V30 690 C 68.2186 2.64199 -2.25424 0
M  V30 691 C 67.1726 2.58484 -3.41131 0
M  V30 692 C 66.4986 3.97599 -3.57518 0
M  V30 693 C 67.7986 2.1413 -4.76388 0
M  V30 694 H 69.4926 0.968563 -2.83301 0
M  V30 695 H 67.0386 0.464479 -1.36303 0
M  V30 696 H 68.9916 3.38413 -2.51107 0
M  V30 697 H 67.7156 2.98032 -1.33583 0
M  V30 698 H 66.3746 1.86727 -3.15481 0
M  V30 699 H 66.0226 4.28723 -2.6307 0
M  V30 700 H 65.7226 3.94659 -4.35337 0
M  V30 701 H 67.2466 4.7349 -3.85538 0
M  V30 702 H 68.6606 2.78083 -5.01341 0
M  V30 703 H 67.0576 2.2227 -5.57419 0
M  V30 704 H 68.1276 1.09331 -4.72414 0
M  V30 705 N 69.4707 1.49531 0.497807 0
M  V30 706 C 70.8817 1.52344 1.07927 0
M  V30 707 C 71.2327 0.311469 1.93712 0
M  V30 708 O 70.3577 -0.578405 2.08527 0
M  V30 709 C 70.9527 2.76062 1.96405 0
M  V30 710 C 69.5117 2.81643 2.49709 0
M  V30 711 C 68.6587 2.46299 1.27404 0
M  V30 712 H 71.6097 1.56182 0.281576 0
M  V30 713 H 71.6307 2.56405 2.81135 0
M  V30 714 H 71.1427 3.64254 1.33943 0
M  V30 715 H 69.2437 1.97739 3.15801 0
M  V30 716 H 69.3567 3.83891 2.86643 0
M  V30 717 H 67.7207 1.98148 1.60029 0
M  V30 718 H 68.5037 3.36769 0.66645 0
M  V30 719 N 70.9488 -0.749086 1.3866 0
M  V30 720 C 71.8968 -1.88428 1.36373 0
M  V30 721 C 72.8908 -1.67561 0.248929 0
M  V30 722 O 74.0968 -1.75074 0.41821 0
M  V30 723 H 70.4718 -0.620023 0.42553 0
M  V30 724 H 72.4428 -1.87473 2.32156 0
M  V30 725 C 71.1918 -3.25961 1.21014 0
M  V30 726 H 70.5148 -3.42607 2.06059 0
M  V30 727 H 71.9548 -4.05625 1.23469 0
M  V30 728 C 70.4138 -3.36799 -0.0825941 0
M  V30 729 O 70.9438 -3.87517 -1.05797 0
M  V30 730 N 69.1498 -2.90258 -0.140939 0
M  V30 731 H 68.6968 -2.49174 0.653477 0
M  V30 732 H 68.6548 -2.97889 -1.00545 0
M  V30 733 N 72.4269 -1.23603 -0.977757 0
M  V30 734 C 73.6729 -1.07129 -1.72195 0
M  V30 735 C 74.0059 0.390501 -1.90233 0
M  V30 736 O 73.2809 1.28902 -1.45653 0
M  V30 737 C 73.5639 -1.80031 -3.11867 0
M  V30 738 C 73.4169 -3.33899 -3.01383 0
M  V30 739 C 74.7359 -1.56492 -4.11337 0
M  V30 740 H 71.8549 -0.390571 -0.624999 0
M  V30 741 H 74.4969 -1.52142 -1.13811 0
M  V30 742 H 72.6469 -1.41768 -3.6171 0
M  V30 743 H 74.3189 -3.81699 -2.59043 0
M  V30 744 H 72.5619 -3.62796 -2.37827 0
M  V30 745 H 73.2329 -3.801 -4.00285 0
M  V30 746 H 75.7089 -1.89757 -3.70313 0
M  V30 747 H 74.5849 -2.09973 -5.07151 0
M  V30 748 H 74.8459 -0.500874 -4.39254 0
M  V30 749 N 73.905 1.17692 -1.04816 0
M  V30 750 C 74.853 2.23632 -0.63966 0
M  V30 751 C 75.847 1.6601 0.337219 0
M  V30 752 O 77.053 1.78844 0.203693 0
M  V30 753 H 73.428 0.727949 -0.188665 0
M  V30 754 H 75.399 2.55387 -1.54337 0
M  V30 755 C 74.148 3.4769 -0.0264051 0
M  V30 756 H 73.471 3.92331 -0.769164 0
M  V30 757 H 74.911 4.23418 0.222098 0
M  V30 758 C 73.37 3.13807 1.22584 0
M  V30 759 O 73.9 3.28236 2.31569 0
M  V30 760 N 72.106 2.68065 1.12202 0
M  V30 761 H 71.653 2.56525 0.235133 0
M  V30 762 H 71.611 2.45767 1.96076 0
M  V30 763 N 75.3831 0.828654 1.34056 0
M  V30 764 C 76.3461 0.259927 2.27721 0
M  V30 765 C 77.3461 -0.565478 1.50529 0
M  V30 766 O 78.5361 -0.38075 1.69988 0
M  V30 767 C 75.6681 -0.634944 3.34935 0
M  V30 768 H 76.8611 1.0863 2.79534 0
M  V30 769 H 74.4141 0.600951 1.44285 0
M  V30 770 H 75.1491 -1.48416 2.88346 0
M  V30 771 H 74.9341 -0.0444999 3.92075 0
M  V30 772 H 76.4241 -1.02648 4.04788 0
M  V30 773 N 76.8612 -1.46375 0.584142 0
M  V30 774 C 77.8242 -2.28784 -0.138108 0
M  V30 775 C 78.8242 -1.38471 -0.817462 0
M  V30 776 O 80.0142 -1.60833 -0.669199 0
M  V30 777 C 77.1462 -3.18892 -1.20503 0
M  V30 778 H 78.3392 -2.94117 0.586127 0
M  V30 779 H 75.8922 -1.52509 0.342171 0
M  V30 780 H 76.6272 -2.58309 -1.96079 0
M  V30 781 H 76.4122 -3.85388 -0.722384 0
M  V30 782 H 77.9022 -3.80914 -1.71155 0
M  V30 783 N 78.3393 -0.321999 -1.54275 0
M  V30 784 C 79.5883 0.281931 -1.9972 0
M  V30 785 C 79.9013 1.53369 -1.21397 0
M  V30 786 O 81.1073 2.21352 -1.57211 0
M  V30 787 C 79.5633 0.5529 -3.55628 0
M  V30 788 C 79.1713 -0.681721 -4.42783 0
M  V30 789 C 80.9153 1.11687 -4.09544 0
M  V30 790 C 78.8223 -0.382742 -5.9016 0
M  V30 791 H 77.7523 0.109124 -0.746062 0
M  V30 792 H 80.4033 -0.43398 -1.78294 0
M  V30 793 H 78.7853 1.32896 -3.73035 0
M  V30 794 H 79.9593 -1.45723 -4.37151 0
M  V30 795 H 78.2743 -1.1658 -3.99748 0
M  V30 796 H 80.8713 1.35515 -5.17242 0
M  V30 797 H 81.2143 2.06575 -3.61431 0
M  V30 798 H 81.7473 0.402032 -3.95763 0
M  V30 799 H 78.4863 -1.30076 -6.42464 0
M  V30 800 H 78.0063 0.355094 -5.98748 0
M  V30 801 H 79.6853 0.00800157 -6.47 0
M  V30 802 N 79.8174 1.5752 -0.0501392 0
M  V30 803 C 80.7474 2.14502 0.922566 0
M  V30 804 C 81.7284 1.06642 1.3252 0
M  V30 805 O 82.9134 1.34577 1.4001 0
M  V30 806 C 80.0434 2.68916 2.19776 0
M  V30 807 C 78.9974 3.8175 1.93523 0
M  V30 808 C 78.3234 4.22677 3.27487 0
M  V30 809 C 79.6234 5.06932 1.25765 0
M  V30 810 H 81.3174 2.9603 0.447952 0
M  V30 811 H 78.8634 1.42401 0.214024 0
M  V30 812 H 80.8164 3.07419 2.88222 0
M  V30 813 H 79.5404 1.84578 2.69441 0
M  V30 814 H 78.1994 3.43718 1.27489 0
M  V30 815 H 77.8474 3.35291 3.74952 0
M  V30 816 H 77.5474 4.98725 3.1072 0
M  V30 817 H 79.0714 4.63779 3.97166 0
M  V30 818 H 80.4854 5.42888 1.84244 0
M  V30 819 H 78.8824 5.88116 1.19328 0
M  V30 820 H 79.9524 4.84337 0.233536 0
M  V30 821 N 81.2955 -0.223234 1.56011 0
M  V30 822 C 82.2425 -1.27664 1.92277 0
M  V30 823 C 83.2125 -1.46659 0.779763 0
M  V30 824 O 84.3975 -1.60256 1.03551 0
M  V30 825 C 81.5375 -2.62234 2.24338 0
M  V30 826 C 80.6505 -2.51051 3.51564 0
M  V30 827 C 79.7855 -3.78133 3.7308 0
M  V30 828 C 78.8245 -3.61665 4.93827 0
M  V30 829 N 77.9615 -4.80693 5.11741 0
M  V30 830 H 82.8015 -0.960358 2.82101 0
M  V30 831 H 80.3385 -0.462901 1.39627 0
M  V30 832 H 82.2965 -3.40596 2.40936 0
M  V30 833 H 80.9265 -2.91961 1.3769 0
M  V30 834 H 79.9785 -1.64132 3.43169 0
M  V30 835 H 81.2905 -2.34803 4.40079 0
M  V30 836 H 80.4445 -4.64938 3.89766 0
M  V30 837 H 79.1835 -3.97304 2.82844 0
M  V30 838 H 78.1885 -2.73244 4.77093 0
M  V30 839 H 79.4135 -3.43966 5.85546 0
M  V30 840 H 77.3595 -5.00181 4.24446 0
M  V30 841 H 77.2765 -4.67165 5.94384 0
M  V30 842 H 78.5445 -5.6893 5.3286 0
M  V30 843 N 82.7736 -1.49793 -0.48987 0
M  V30 844 C 83.7206 -1.67281 -1.59014 0
M  V30 845 C 84.6906 -0.514177 -1.57941 0
M  V30 846 O 85.8756 -0.742533 -1.75759 0
M  V30 847 C 83.0156 -1.75569 -2.97102 0
M  V30 848 C 82.1286 -3.0281 -3.08107 0
M  V30 849 C 81.2636 -3.02008 -4.36995 0
M  V30 850 C 80.3026 -4.23782 -4.41673 0
M  V30 851 N 79.4396 -4.20826 -5.62005 0
M  V30 852 H 84.2796 -2.61224 -1.43409 0
M  V30 853 H 81.8166 -1.29508 -0.697565 0
M  V30 854 H 83.7746 -1.78354 -3.77155 0
M  V30 855 H 82.4046 -0.850827 -3.11385 0
M  V30 856 H 81.4566 -3.09584 -2.21047 0
M  V30 857 H 82.7686 -3.92801 -3.07423 0
M  V30 858 H 81.9226 -3.03418 -5.25378 0
M  V30 859 H 80.6616 -2.09815 -4.4026 0
M  V30 860 H 79.6666 -4.22604 -3.5169 0
M  V30 861 H 80.8916 -5.17181 -4.40115 0
M  V30 862 H 78.8376 -3.31476 -5.66091 0
M  V30 863 H 78.7546 -5.04564 -5.62984 0
M  V30 864 H 80.0226 -4.26355 -6.52565 0
M  V30 865 N 84.2517 0.741722 -1.39055 0
M  V30 866 C 85.4977 1.50336 -1.36113 0
M  V30 867 C 85.8307 1.94148 0.0450796 0
M  V30 868 O 85.1057 1.66301 1.00868 0
M  V30 869 C 85.3887 2.74773 -2.32749 0
M  V30 870 C 85.2417 2.37023 -3.82283 0
M  V30 871 C 86.5607 3.76846 -2.27322 0
M  V30 872 H 83.6797 0.545351 -0.495743 0
M  V30 873 H 86.3217 0.848624 -1.69995 0
M  V30 874 H 84.4717 3.30639 -2.03986 0
M  V30 875 H 86.1437 1.8684 -4.21768 0
M  V30 876 H 84.3867 1.69334 -3.99385 0
M  V30 877 H 85.0577 3.26104 -4.45376 0
M  V30 878 H 87.5337 3.30548 -2.5274 0
M  V30 879 H 86.4097 4.6159 -2.97028 0
M  V30 880 H 86.6707 4.23286 -1.27599 0
M  V30 881 N 85.7298 1.2412 0.971189 0
M  V30 882 C 86.9788 1.07284 1.70801 0
M  V30 883 C 87.2918 -0.388902 1.91695 0
M  V30 884 O 88.4978 -0.677379 2.62914 0
M  V30 885 C 86.9538 1.87145 3.07416 0
M  V30 886 C 86.5618 3.37707 2.94377 0
M  V30 887 C 88.3058 1.78828 3.84995 0
M  V30 888 C 86.2128 4.09925 4.26281 0
M  V30 889 H 85.1428 0.397854 0.64049 0
M  V30 890 H 87.7938 1.4817 1.0825 0
M  V30 891 H 86.1758 1.39071 3.70777 0
M  V30 892 H 87.3498 3.93335 2.4005 0
M  V30 893 H 85.6648 3.46938 2.30267 0
M  V30 894 H 88.2618 2.30089 4.82662 0
M  V30 895 H 88.6048 0.75284 4.09436 0
M  V30 896 H 89.1378 2.24563 3.28354 0
M  V30 897 H 85.8768 5.13813 4.07033 0
M  V30 898 H 85.3968 3.59083 4.80437 0
M  V30 899 H 87.0758 4.1673 4.94919 0
M  V30 900 N 87.2079 -1.17134 1.05439 0
M  V30 901 C 88.1399 -2.2078 0.615539 0
M  V30 902 C 89.1529 -1.59584 -0.322001 0
M  V30 903 O 90.3419 -1.78133 -0.114344 0
M  V30 904 C 87.4419 -3.38691 -0.118938 0
M  V30 905 C 86.6149 -4.29454 0.829924 0
M  V30 906 C 85.6739 -5.26024 0.136258 0
M  V30 907 O 84.6999 -5.63952 0.77115 0
M  V30 908 N 85.9019 -5.69487 -1.1254 0
M  V30 909 H 88.6669 -2.59052 1.50705 0
M  V30 910 H 86.2279 -1.32058 0.936603 0
M  V30 911 H 88.2199 -4.00329 -0.593179 0
M  V30 912 H 86.7899 -2.98996 -0.91215 0
M  V30 913 H 86.0099 -3.65211 1.48373 0
M  V30 914 H 87.2979 -4.86984 1.47392 0
M  V30 915 H 86.6959 -5.4075 -1.6615 0
M  V30 916 H 85.2529 -6.33257 -1.54366 0
M  V30 917 N 88.686 -0.835752 -1.33615 0
M  V30 918 C 89.932 -0.439817 -1.98588 0
M  V30 919 C 90.287 0.989274 -1.65019 0
M  V30 920 O 89.58 1.68168 -0.918159 0
M  V30 921 C 89.774 -0.593925 -3.52431 0
M  V30 922 C 89.603 -2.03644 -4.00948 0
M  V30 923 C 88.373 -2.67103 -4.28934 0
M  V30 924 C 90.571 -3.00479 -4.17393 0
M  V30 925 N 88.553 -4.02462 -4.6357 0
M  V30 926 C 89.924 -4.20777 -4.55353 0
M  V30 927 C 91.979 -2.96926 -3.99674 0
M  V30 928 C 90.682 -5.37994 -4.77447 0
M  V30 929 C 92.708 -4.1337 -4.22941 0
M  V30 930 C 92.07 -5.32422 -4.61201 0
M  V30 931 H 88.169 -0.209303 -0.75347 0
M  V30 932 H 90.753 -1.08316 -1.61789 0
M  V30 933 H 88.924 0.019599 -3.88395 0
M  V30 934 H 90.656 -0.169738 -4.04344 0
M  V30 935 H 87.411 -2.18259 -4.20309 0
M  V30 936 H 87.835 -4.72232 -4.85104 0
M  V30 937 H 92.477 -2.06015 -3.69212 0
M  V30 938 H 90.195 -6.29451 -5.06771 0
M  V30 939 H 93.781 -4.12034 -4.10754 0
M  V30 940 H 92.661 -6.21027 -4.78848 0
M  V30 941 N 90.1641 1.46063 -0.591896 0
M  V30 942 C 91.4041 2.04228 -0.0838014 0
M  V30 943 C 91.7681 1.45231 1.25587 0
M  V30 944 O 92.9691 1.94653 1.85375 0
M  V30 945 C 91.2401 3.57389 -0.0286282 0
M  V30 946 S 92.7991 4.3678 0.420557 0
M  V30 947 H 89.6171 0.709762 -0.0419319 0
M  V30 948 H 92.2191 1.78983 -0.786465 0
M  V30 949 H 90.9231 3.97843 -1.00743 0
M  V30 950 H 90.4541 3.87185 0.69652 0
M  V30 951 H 92.4691 4.67131 1.67341 0
M  V30 952 N 91.6422 0.330177 1.54103 0
M  V30 953 C 92.8702 -0.272179 2.05102 0
M  V30 954 C 93.2852 -1.45267 1.20595 0
M  V30 955 O 92.6422 -1.8094 0.238144 0
M  V30 956 C 92.6932 -0.70023 3.54653 0
M  V30 957 O 92.4142 0.433301 4.35952 0
M  V30 958 C 93.9152 -1.3647 4.21771 0
M  V30 959 H 91.1352 -0.0549159 0.668749 0
M  V30 960 H 93.6792 0.478285 1.98828 0
M  V30 961 H 91.8342 -1.40066 3.61193 0
M  V30 962 H 92.2482 0.0947539 5.24414 0
M  V30 963 H 93.7222 -1.61509 5.27843 0
M  V30 964 H 94.1992 -2.31409 3.73292 0
M  V30 965 H 94.8052 -0.706675 4.19388 0
M  V30 966 N 93.1203 -1.57491 0.0584922 0
M  V30 967 C 94.0703 -2.08474 -0.923188 0
M  V30 968 C 95.0543 -0.991479 -1.26722 0
M  V30 969 O 96.2463 -1.25473 -1.24842 0
M  V30 970 C 93.3753 -2.6392 -2.19548 0
M  V30 971 C 92.4613 -3.80227 -1.87852 0
M  V30 972 N 92.8523 -4.89714 -1.26546 0
M  V30 973 C 91.1503 -3.89271 -2.17679 0
M  V30 974 C 91.8513 -5.70689 -1.12644 0
M  V30 975 N 90.8273 -5.18531 -1.63176 0
M  V30 976 H 94.6293 -2.90517 -0.444653 0
M  V30 977 H 92.1433 -1.61745 -0.145764 0
M  V30 978 H 94.1403 -2.98752 -2.9078 0
M  V30 979 H 92.8003 -1.83318 -2.68001 0
M  V30 980 H 93.8113 -5.09358 -0.936757 0
M  V30 981 H 90.4883 -3.19623 -2.68602 0
M  V30 982 H 91.8783 -6.6875 -0.6499 0
M  V30 983 N 94.5984 0.214957 -1.56127 0
M  V30 984 C 95.5484 1.27006 -1.8935 0
M  V30 985 C 96.5324 1.41969 -0.757202 0
M  V30 986 O 97.7244 1.44673 -1.01973 0
M  V30 987 C 94.8534 2.61911 -2.2194 0
M  V30 988 C 93.9394 2.50822 -3.41978 0
M  V30 989 N 94.3304 2.09391 -4.60423 0
M  V30 990 C 92.6284 2.81765 -3.45723 0
M  V30 991 C 93.3294 2.09712 -5.42582 0
M  V30 992 N 92.3054 2.50454 -4.82466 0
M  V30 993 H 96.1074 0.940734 -2.78437 0
M  V30 994 H 93.6214 0.423492 -1.56781 0
M  V30 995 H 95.6184 3.38096 -2.43919 0
M  V30 996 H 94.2784 2.95684 -1.34169 0
M  V30 997 H 95.2894 1.80416 -4.85459 0
M  V30 998 H 91.9664 3.19865 -2.68314 0
M  V30 999 H 93.3564 1.79748 -6.4741 0
M  V30 1000 N 96.0765 1.50051 0.48192 0
M  V30 1001 C 97.0235 1.68122 1.58125 0
M  V30 1002 C 97.9935 0.522545 1.57666 0
M  V30 1003 O 99.1785 0.751844 1.75362 0
M  V30 1004 C 96.3185 1.77142 2.96167 0
M  V30 1005 C 95.4315 3.0444 3.06497 0
M  V30 1006 C 94.5665 3.04321 4.35387 0
M  V30 1007 C 93.6055 4.26118 4.3942 0
M  V30 1008 N 92.7425 4.238 5.59766 0
M  V30 1009 H 97.5825 2.6198 1.42022 0
M  V30 1010 H 95.1195 1.29877 0.690687 0
M  V30 1011 H 97.0775 1.80352 3.76203 0
M  V30 1012 H 95.7075 0.867329 3.1093 0
M  V30 1013 H 94.7595 3.10752 2.19402 0
M  V30 1014 H 96.0715 3.94426 3.05336 0
M  V30 1015 H 95.2255 3.062 5.23762 0
M  V30 1016 H 93.9645 2.12147 4.39141 0
M  V30 1017 H 92.9695 4.24463 3.49444 0
M  V30 1018 H 94.1945 5.19507 4.37366 0
M  V30 1019 H 92.1405 3.34474 5.64326 0
M  V30 1020 H 92.0575 5.07542 5.60301 0
M  V30 1021 H 93.3255 4.2981 6.50295 0
M  V30 1022 N 97.5546 -0.734337 1.39446 0
M  V30 1023 C 98.8316 -1.48579 1.27215 0
M  V30 1024 C 99.2116 -2.1077 -0.117968 0
M  V30 1025 O 98.5596 -1.98646 -1.12924 0
M  V30 1026 C 98.7696 -2.53667 2.39696 0
M  V30 1027 C 100.118 -3.20031 2.79044 0
M  V30 1028 O 101.142 -2.6398 2.39151 0
M  V30 1029 O 100.001 -4.21455 3.47905 0
M  V30 1030 H 97.0946 -0.659816 0.49857 0
M  V30 1031 H 99.6406 -0.768106 1.51322 0
M  V30 1032 H 98.4126 -2.06096 3.32626 0
M  V30 1033 H 98.0356 -3.32994 2.17258 0
M  V30 1034 N 99.0327 -1.24633 -0.964593 0
M  V30 1035 C 100.31 -0.995809 -1.68354 0
M  V30 1036 C 100.69 0.480964 -2.05548 0
M  V30 1037 O 100.038 1.45599 -1.76105 0
M  V30 1038 C 100.248 -1.92177 -2.91323 0
M  V30 1039 C 101.596 -2.19446 -3.63495 0
M  V30 1040 O 102.62 -1.89855 -3.01386 0
M  V30 1041 O 101.479 -2.69714 -4.75307 0
M  V30 1042 H 98.5727 -0.376854 -0.736146 0
M  V30 1043 H 101.119 -1.35745 -1.0184 0
M  V30 1044 H 99.8907 -2.91938 -2.60553 0
M  V30 1045 H 99.5137 -1.56349 -3.65569 0
M  V30 1046 N 100.511 1.16574 -1.06058 0
M  V30 1047 C 101.922 1.68662 -0.800632 0
M  V30 1048 C 102.273 1.84184 0.67608 0
M  V30 1049 O 101.398 1.53568 1.52466 0
M  V30 1050 C 101.993 3.06356 -1.44676 0
M  V30 1051 C 100.552 3.55575 -1.23465 0
M  V30 1052 C 99.6988 2.31616 -1.52477 0
M  V30 1053 H 102.65 1.00969 -1.22438 0
M  V30 1054 H 102.671 3.70636 -0.860788 0
M  V30 1055 H 102.183 2.95027 -2.52152 0
M  V30 1056 H 100.284 3.72167 -0.179527 0
M  V30 1057 H 100.397 4.37812 -1.94571 0
M  V30 1058 H 98.7608 2.36512 -0.945209 0
M  V30 1059 H 99.5438 2.22887 -2.61106 0
M  V30 1060 N 101.989 0.842826 1.3317 0
M  V30 1061 C 103.4 0.496651 1.79973 0
M  V30 1062 C 103.751 -0.984641 1.69703 0
M  V30 1063 O 102.876 -1.76743 1.24863 0
M  V30 1064 C 103.471 0.894727 3.26772 0
M  V30 1065 C 102.03 0.600629 3.71577 0
M  V30 1066 C 101.177 1.10091 2.5451 0
M  V30 1067 H 104.128 1.03116 1.20635 0
M  V30 1068 H 104.149 0.206347 3.7994 0
M  V30 1069 H 103.661 1.97287 3.34215 0
M  V30 1070 H 101.762 -0.467284 3.69658 0
M  V30 1071 H 101.875 1.15863 4.64879 0
M  V30 1072 H 100.239 0.52162 2.49301 0
M  V30 1073 H 101.022 2.18591 2.64713 0
M  V30 1074 N 103.467 -1.45747 0.599634 0
M  V30 1075 C 104.878 -1.85853 0.177681 0
M  V30 1076 C 105.229 -1.50102 -1.26348 0
M  V30 1077 O 104.354 -0.923905 -1.95686 0
M  V30 1078 C 104.949 -3.37326 0.315688 0
M  V30 1079 C 103.508 -3.76365 -0.0515144 0
M  V30 1080 C 102.655 -2.69722 0.643822 0
M  V30 1081 H 105.606 -1.36661 0.806814 0
M  V30 1082 H 105.627 -3.77778 -0.454321 0
M  V30 1083 H 105.139 -3.63315 1.36468 0
M  V30 1084 H 103.24 -3.55993 -1.09999 0
M  V30 1085 H 103.353 -4.77916 0.336594 0
M  V30 1086 H 101.717 -2.54567 0.0822881 0
M  V30 1087 H 102.5 -2.98549 1.6948 0
M  V30 1088 N 104.945 -0.338344 -1.53925 0
M  V30 1089 C 106.356 0.146651 -1.86123 0
M  V30 1090 C 106.707 1.5042 -1.2597 0
M  V30 1091 O 105.832 2.08723 -0.571294 0
M  V30 1092 C 106.427 0.272879 -3.37699 0
M  V30 1093 C 104.986 0.702103 -3.69794 0
M  V30 1094 C 104.133 -0.167304 -2.76795 0
M  V30 1095 H 107.084 -0.558123 -1.48562 0
M  V30 1096 H 107.105 1.10128 -3.64214 0
M  V30 1097 H 106.617 -0.715307 -3.81451 0
M  V30 1098 H 104.718 1.6995 -3.31584 0
M  V30 1099 H 104.831 0.495604 -4.7653 0
M  V30 1100 H 103.195 0.359527 -2.5215 0
M  V30 1101 H 103.978 -1.15253 -3.23375 0
M  V30 1102 N 106.423 1.57458 -0.0668435 0
M  V30 1103 C 107.333 2.15937 0.916975 0
M  V30 1104 C 108.349 1.12123 1.33058 0
M  V30 1105 O 109.525 1.44366 1.40429 0
M  V30 1106 C 106.59 2.70547 2.16807 0
M  V30 1107 C 105.651 3.89215 1.81135 0
M  V30 1108 C 104.884 4.41211 3.0028 0
M  V30 1109 O 105.107 3.92225 4.14144 0
M  V30 1110 O 104.041 5.32605 2.80384 0
M  V30 1111 H 107.867 3.00354 0.449561 0
M  V30 1112 H 105.452 1.48584 0.155949 0
M  V30 1113 H 107.334 3.0557 2.90181 0
M  V30 1114 H 106.009 1.89192 2.62656 0
M  V30 1115 H 104.916 3.59054 1.05028 0
M  V30 1116 H 106.249 4.71848 1.40073 0
M  V30 1117 N 107.901 -0.206675 1.56239 0
M  V30 1118 C 109.178 -0.954051 1.70755 0
M  V30 1119 C 109.558 -2.01841 0.618353 0
M  V30 1120 O 108.906 -2.25444 -0.372434 0
M  V30 1121 C 109.116 -1.551 3.12642 0
M  V30 1122 C 110.464 -2.03757 3.72516 0
M  V30 1123 O 111.488 -1.64965 3.15698 0
M  V30 1124 O 110.347 -2.75103 4.72208 0
M  V30 1125 H 107.441 -0.446636 0.696021 0
M  V30 1126 H 109.987 -0.197283 1.68549 0
M  V30 1127 H 108.759 -0.783212 3.83382 0
M  V30 1128 H 108.382 -2.37291 3.19028 0
M  V30 1129 N 109.379 -1.50304 -0.473955 0
M  V30 1130 C 110.656 -1.51667 -1.23518 0
M  V30 1131 C 111.036 -0.259701 -2.09496 0
M  V30 1132 O 110.384 0.756986 -2.15597 0
M  V30 1133 C 110.594 -2.81082 -2.06868 0
M  V30 1134 C 111.942 -3.31631 -2.65153 0
M  V30 1135 O 112.966 -2.82384 -2.17113 0
M  V30 1136 O 111.825 -4.17471 -3.52675 0
M  V30 1137 H 108.919 -0.60822 -0.560355 0
M  V30 1138 H 111.465 -1.62592 -0.486011 0
M  V30 1139 H 110.237 -3.64041 -1.4349 0
M  V30 1140 H 109.86 -2.73146 -2.88924 0
M  V30 1141 N 110.857 0.726932 -1.39834 0
M  V30 1142 C 111.767 1.87131 -1.41489 0
M  V30 1143 C 112.783 1.71239 -0.308757 0
M  V30 1144 O 113.959 1.93701 -0.551529 0
M  V30 1145 C 111.024 3.22811 -1.26468 0
M  V30 1146 C 110.085 3.51039 -2.47124 0
M  V30 1147 C 109.318 4.80245 -2.3281 0
M  V30 1148 O 109.541 5.54537 -1.33585 0
M  V30 1149 O 108.475 5.08554 -3.21957 0
M  V30 1150 H 112.301 1.8869 -2.3797 0
M  V30 1151 H 109.886 0.875837 -1.21035 0
M  V30 1152 H 111.768 4.03877 -1.20255 0
M  V30 1153 H 110.443 3.22005 -0.330862 0
M  V30 1154 H 109.35 2.70027 -2.58914 0
M  V30 1155 H 110.683 3.56632 -3.39227 0
M  V30 1156 N 112.336 1.25143 0.95797 0
M  V30 1157 C 113.284 1.05019 2.07542 0
M  V30 1158 C 114.278 -0.0178751 1.69391 0
M  V30 1159 O 115.484 0.137472 1.79474 0
M  V30 1160 H 111.859 0.32265 0.679265 0
M  V30 1161 H 113.83 1.99759 2.21673 0
M  V30 1162 C 112.579 0.682074 3.40944 0
M  V30 1163 H 111.902 1.49573 3.70767 0
M  V30 1164 H 113.342 0.580945 4.20001 0
M  V30 1165 C 111.801 -0.611608 3.31302 0
M  V30 1166 O 112.331 -1.65465 3.66038 0
M  V30 1167 N 110.537 -0.595982 2.84423 0
M  V30 1168 H 110.084 0.253192 2.56353 0
M  V30 1169 H 110.042 -1.46173 2.78354 0
M  V30 1170 N 113.814 -1.1601 1.06675 0
M  V30 1171 C 114.761 -2.20525 0.680967 0
M  V30 1172 C 115.731 -1.62904 -0.324283 0
M  V30 1173 O 116.916 -1.89615 -0.212294 0
M  V30 1174 C 114.056 -3.45013 0.0776551 0
M  V30 1175 C 113.169 -4.16863 1.13355 0
M  V30 1176 C 112.304 -5.2888 0.49597 0
M  V30 1177 C 111.343 -5.92537 1.53513 0
M  V30 1178 N 110.48 -6.96038 0.920631 0
M  V30 1179 H 115.32 -2.52876 1.57663 0
M  V30 1180 H 112.857 -1.24199 0.788223 0
M  V30 1181 H 114.815 -4.16193 -0.289704 0
M  V30 1182 H 113.445 -3.132 -0.781393 0
M  V30 1183 H 112.497 -3.44248 1.61857 0
M  V30 1184 H 113.809 -4.60294 1.92174 0
M  V30 1185 H 112.963 -6.06653 0.0758604 0
M  V30 1186 H 111.702 -4.86622 -0.324062 0
M  V30 1187 H 110.707 -5.13482 1.9651 0
M  V30 1188 H 111.932 -6.36873 2.35733 0
M  V30 1189 H 109.878 -6.55888 0.12138 0
M  V30 1190 H 109.795 -7.3786 1.64616 0
M  V30 1191 H 111.063 -7.77725 0.525795 0
M  V30 1192 N 115.292 -0.849877 -1.32721 0
M  V30 1193 C 116.202 -0.293791 -2.32753 0
M  V30 1194 C 117.218 0.585906 -1.63839 0
M  V30 1195 O 118.394 0.487413 -1.95413 0
M  V30 1196 C 115.459 0.512752 -3.42887 0
M  V30 1197 C 114.52 -0.39252 -4.27502 0
M  V30 1198 C 113.753 0.375625 -5.32377 0
M  V30 1199 O 113.976 1.60613 -5.4732 0
M  V30 1200 O 112.91 -0.256094 -6.01355 0
M  V30 1201 H 116.736 -1.12242 -2.82197 0
M  V30 1202 H 114.321 -0.612685 -1.36259 0
M  V30 1203 H 116.203 0.970704 -4.10067 0
M  V30 1204 H 114.878 1.31826 -2.95641 0
M  V30 1205 H 113.785 -0.898547 -3.63149 0
M  V30 1206 H 115.118 -1.16309 -4.7826 0
M  V30 1207 N 116.77 1.45427 -0.607355 0
M  V30 1208 C 117.717 2.3053 0.111625 0
M  V30 1209 C 118.687 1.4209 0.860216 0
M  V30 1210 O 119.872 1.71019 0.845998 0
M  V30 1211 C 117.012 3.26992 1.10319 0
M  V30 1212 C 116.125 4.30535 0.355493 0
M  V30 1213 C 115.26 5.14105 1.33676 0
M  V30 1214 C 114.299 6.09376 0.576862 0
M  V30 1215 N 113.436 6.85727 1.5074 0
M  V30 1216 H 118.276 2.91477 -0.620093 0
M  V30 1217 H 115.813 1.43631 -0.317594 0
M  V30 1218 H 117.771 3.81385 1.6912 0
M  V30 1219 H 116.401 2.67799 1.80232 0
M  V30 1220 H 115.453 3.78805 -0.348023 0
M  V30 1221 H 116.765 4.98235 -0.237423 0
M  V30 1222 H 115.919 5.72897 1.99684 0
M  V30 1223 H 114.658 4.46423 1.9636 0
M  V30 1224 H 113.663 5.49715 -0.0968519 0
M  V30 1225 H 114.888 6.79085 -0.0449341 0
M  V30 1226 H 112.834 6.20735 2.12189 0
M  V30 1227 H 112.751 7.49778 0.967913 0
M  V30 1228 H 114.019 7.4906 2.15706 0
M  V30 1229 N 118.248 0.346503 1.53744 0
M  V30 1230 C 119.664 -0.00530975 1.59599 0
M  V30 1231 C 119.864 -1.48465 1.36236 0
M  V30 1232 O 118.92 -2.24376 1.15808 0
M  V30 1233 C 120.233 0.433516 2.97559 0
M  V30 1234 C 121.781 0.386111 3.10609 0
M  V30 1235 C 122.256 0.800451 4.50951 0
M  V30 1236 N 123.747 0.754753 4.5701 0
M  V30 1237 C 124.482 1.04727 5.63755 0
M  V30 1238 N 123.978 1.4081 6.7834 0
M  V30 1239 N 125.771 0.971316 5.53644 0
M  V30 1240 H 117.922 1.31009 1.67184 0
M  V30 1241 H 120.185 0.534242 0.783128 0
M  V30 1242 H 119.891 1.46509 3.19731 0
M  V30 1243 H 119.765 -0.189753 3.76722 0
M  V30 1244 H 122.152 -0.636295 2.88158 0
M  V30 1245 H 122.233 1.04462 2.33498 0
M  V30 1246 H 121.877 1.82088 4.74137 0
M  V30 1247 H 121.807 0.119386 5.26465 0
M  V30 1248 H 124.298 0.488662 3.74727 0
M  V30 1249 H 124.611 1.61607 7.55714 0
M  V30 1250 H 122.956 1.44657 6.79779 0
M  V30 1251 H 126.147 0.688748 4.63005 0
M  V30 1252 H 126.32 1.20263 6.36742 0
M  V30 1253 N 119.726 -1.57421 0.075193 0
M  V30 1254 C 120.954 -1.97946 -0.602076 0
M  V30 1255 C 121.369 -0.953674 -1.62943 0
M  V30 1256 O 120.726 0.0592551 -1.82404 0
M  V30 1257 C 120.777 -3.38546 -1.26762 0
M  V30 1258 O 120.498 -4.37195 -0.281376 0
M  V30 1259 C 121.999 -3.93966 -2.03239 0
M  V30 1260 H 119.219 -0.650918 -0.162931 0
M  V30 1261 H 121.763 -2.03959 0.148601 0
M  V30 1262 H 119.918 -3.33609 -1.96936 0
M  V30 1263 H 120.332 -5.18975 -0.759267 0
M  V30 1264 H 121.806 -4.94555 -2.45193 0
M  V30 1265 H 122.283 -3.30693 -2.8903 0
M  V30 1266 H 122.889 -4.02315 -1.37924 0
M  V30 1267 N 121.204 0.198386 -1.56346 0
M  V30 1268 C 122.481 0.944982 -1.71258 0
M  V30 1269 C 122.861 2.0151 -0.629048 0
M  V30 1270 O 122.209 2.25639 0.360473 0
M  V30 1271 C 122.419 1.5344 -3.1346 0
M  V30 1272 C 123.767 2.01778 -3.73591 0
M  V30 1273 O 124.791 1.63288 -3.16568 0
M  V30 1274 O 123.65 2.72594 -4.73661 0
M  V30 1275 H 120.744 0.442939 -0.69838 0
M  V30 1276 H 123.29 0.188342 -1.68652 0
M  V30 1277 H 122.062 0.762869 -3.83792 0
M  V30 1278 H 121.685 2.35596 -3.20282 0
M  V30 1279 N 122.682 1.50554 0.465978 0
M  V30 1280 C 123.959 1.5232 1.22712 0
M  V30 1281 C 124.339 0.270807 2.09356 0
M  V30 1282 O 123.687 -0.745541 2.15995 0
M  V30 1283 C 123.897 2.82175 2.05374 0
M  V30 1284 C 125.245 3.33033 2.6339 0
M  V30 1285 O 126.269 2.83531 2.15612 0
M  V30 1286 O 125.128 4.19336 3.50456 0
M  V30 1287 H 122.222 0.611183 0.557122 0
M  V30 1288 H 124.768 1.62847 0.477381 0
M  V30 1289 H 123.54 3.64797 1.41558 0
M  V30 1290 H 123.163 2.74675 2.87471 0
M  V30 1291 N 124.16 -0.719506 1.40217 0
M  V30 1292 C 125.409 -1.47486 1.37589 0
M  V30 1293 C 125.722 -1.9559 -0.0201568 0
M  V30 1294 O 126.928 -2.70973 -0.169049 0
M  V30 1295 C 125.384 -2.66575 2.41796 0
M  V30 1296 C 124.992 -2.25358 3.87192 0
M  V30 1297 C 126.736 -3.4433 2.48269 0
M  V30 1298 C 124.643 -3.41262 4.83005 0
M  V30 1299 H 123.573 -0.553901 0.511576 0
M  V30 1300 H 126.224 -0.783427 1.65936 0
M  V30 1301 H 124.606 -3.3787 2.06543 0
M  V30 1302 H 125.78 -1.61509 4.31569 0
M  V30 1303 H 124.095 -1.60657 3.84159 0
M  V30 1304 H 126.692 -4.30569 3.17041 0
M  V30 1305 H 127.035 -3.87872 1.51198 0
M  V30 1306 H 127.568 -2.80076 2.82493 0
M  V30 1307 H 124.307 -3.02755 5.81394 0
M  V30 1308 H 123.827 -4.0404 4.43297 0
M  V30 1309 H 125.506 -4.07383 5.02641 0
M  V30 1310 N 125.638 -1.25649 -0.95132 0
M  V30 1311 C 127.049 -1.09654 -1.51106 0
M  V30 1312 C 127.4 0.326615 -1.93462 0
M  V30 1313 O 126.525 1.21697 -1.78938 0
M  V30 1314 C 127.12 -1.98437 -2.74605 0
M  V30 1315 C 125.679 -1.86618 -3.2688 0
M  V30 1316 C 124.826 -1.9239 -1.99703 0
M  V30 1317 H 127.777 -1.38887 -0.767865 0
M  V30 1318 H 127.798 -1.5263 -3.48546 0
M  V30 1319 H 127.31 -3.02009 -2.43746 0
M  V30 1320 H 125.411 -0.859421 -3.62553 0
M  V30 1321 H 125.524 -2.71607 -3.94673 0
M  V30 1322 H 123.888 -1.36317 -2.15151 0
M  V30 1323 H 124.671 -2.97573 -1.71188 0
M  V30 1324 N 127.117 1.15442 -1.07289 0
M  V30 1325 C 128.363 1.86489 -0.796846 0
M  V30 1326 C 128.696 1.82078 0.675371 0
M  V30 1327 O 127.971 1.24346 1.4956 0
M  V30 1328 C 128.254 3.35626 -1.30489 0
M  V30 1329 C 128.107 3.48673 -2.84161 0
M  V30 1330 C 129.426 4.30357 -0.920907 0
M  V30 1331 H 126.545 0.677144 -0.290939 0
M  V30 1332 H 129.187 1.35633 -1.33056 0
M  V30 1333 H 127.337 3.79068 -0.850883 0
M  V30 1334 H 129.009 3.14099 -3.37846 0
M  V30 1335 H 127.252 2.90253 -3.22391 0
M  V30 1336 H 127.923 4.53453 -3.14777 0
M  V30 1337 H 130.399 3.94871 -1.3121 0
M  V30 1338 H 129.275 5.33193 -1.30372 0
M  V30 1339 H 129.536 4.4176 0.173226 0
M  V30 1340 N 128.595 0.856903 1.32268 0
M  V30 1341 C 129.841 0.471355 1.97863 0
M  V30 1342 C 130.196 -0.962896 1.66572 0
M  V30 1343 O 129.489 -1.66686 0.944797 0
M  V30 1344 C 129.683 0.649919 3.51441 0
M  V30 1345 C 129.512 2.09997 3.97657 0
M  V30 1346 C 128.282 2.73893 4.2463 0
M  V30 1347 C 130.48 3.07081 4.1256 0
M  V30 1348 N 128.462 4.09786 4.57109 0
M  V30 1349 C 129.833 4.27968 4.48602 0
M  V30 1350 C 131.888 3.03247 3.949 0
M  V30 1351 C 130.591 5.45521 4.68827 0
M  V30 1352 C 132.617 4.20046 4.16311 0
M  V30 1353 C 131.979 5.39692 4.52672 0
M  V30 1354 H 128.078 0.221263 0.750044 0
M  V30 1355 H 130.662 1.10876 1.60045 0
M  V30 1356 H 128.833 0.0421938 3.88377 0
M  V30 1357 H 130.565 0.234044 4.04023 0
M  V30 1358 H 127.32 2.24918 4.16784 0
M  V30 1359 H 127.744 4.7989 4.7753 0
M  V30 1360 H 132.386 2.11863 3.65888 0
M  V30 1361 H 130.104 6.37434 4.96693 0
M  V30 1362 H 133.69 4.18517 4.04147 0
M  V30 1363 H 132.57 6.28566 4.68907 0
M  V30 1364 N 130.073 -1.45103 0.615059 0
M  V30 1365 C 131.35 -1.95549 0.0448276 0
M  V30 1366 C 131.73 -1.55737 -1.4251 0
M  V30 1367 O 131.078 -0.823556 -2.13143 0
M  V30 1368 C 131.288 -3.48098 0.250785 0
M  V30 1369 C 132.636 -4.24384 0.135509 0
M  V30 1370 O 133.66 -3.55738 0.181299 0
M  V30 1371 O 132.519 -5.46493 0.0268878 0
M  V30 1372 H 129.613 -0.8264 -0.0314845 0
M  V30 1373 H 132.159 -1.55232 0.685642 0
M  V30 1374 H 130.931 -3.7007 1.27139 0
M  V30 1375 H 130.554 -3.95323 -0.424937 0
M  V30 1376 N 131.551 -0.354651 -1.53558 0
M  V30 1377 C 132.483 0.5315 -2.22952 0
M  V30 1378 C 133.496 1.05503 -1.23988 0
M  V30 1379 O 134.685 0.963279 -1.50277 0
M  V30 1380 C 131.785 1.74538 -2.90499 0
M  V30 1381 C 130.958 1.35524 -4.15875 0
M  V30 1382 C 130.017 2.42999 -4.66731 0
M  V30 1383 O 129.043 2.05844 -5.30676 0
M  V30 1384 N 130.245 3.74423 -4.43608 0
M  V30 1385 H 133.01 -0.0628615 -2.99634 0
M  V30 1386 H 130.571 -0.179302 -1.60904 0
M  V30 1387 H 132.563 2.45892 -3.21433 0
M  V30 1388 H 131.133 2.24686 -2.17336 0
M  V30 1389 H 130.353 0.471998 -3.91364 0
M  V30 1390 H 131.641 1.07071 -4.97406 0
M  V30 1391 H 131.039 4.07391 -3.92491 0
M  V30 1392 H 129.596 4.41913 -4.7912 0
M  V30 1393 N 133.029 1.57378 -0.0835403 0
M  V30 1394 C 133.939 2.16897 0.894021 0
M  V30 1395 C 134.955 1.13528 1.31861 0
M  V30 1396 O 136.131 1.45848 1.3889 0
M  V30 1397 C 133.196 2.72831 2.13925 0
M  V30 1398 C 132.257 3.91115 1.76997 0
M  V30 1399 C 131.49 4.44371 2.95584 0
M  V30 1400 O 131.713 3.96596 4.09961 0
M  V30 1401 O 130.647 5.35549 2.74719 0
M  V30 1402 H 134.473 3.00814 0.417679 0
M  V30 1403 H 132.058 1.48741 0.140181 0
M  V30 1404 H 133.94 3.0863 2.86924 0
M  V30 1405 H 132.615 1.91967 2.60635 0
M  V30 1406 H 131.522 3.60148 1.01214 0
M  V30 1407 H 132.855 4.73307 1.3506 0
M  V30 1408 N 134.507 -0.190092 1.56449 0
M  V30 1409 C 135.754 -0.909705 1.80916 0
M  V30 1410 C 136.082 -1.83047 0.657583 0
M  V30 1411 O 135.337 -1.92428 -0.356356 0
M  V30 1412 C 135.636 -1.75382 3.1141 0
M  V30 1413 C 135.302 -0.983606 4.40041 0
M  V30 1414 C 133.964 -0.770967 4.74984 0
M  V30 1415 C 136.316 -0.442024 5.19322 0
M  V30 1416 C 133.644 -0.0053448 5.867 0
M  V30 1417 C 135.996 0.310412 6.31838 0
M  V30 1418 C 134.66 0.534023 6.6536 0
M  V30 1419 H 133.93 -0.332885 0.662019 0
M  V30 1420 H 136.577 -0.175762 1.90692 0
M  V30 1421 H 134.882 -2.55659 2.96893 0
M  V30 1422 H 136.579 -2.31331 3.27547 0
M  V30 1423 H 133.169 -1.15936 4.12622 0
M  V30 1424 H 137.353 -0.593693 4.92736 0
M  V30 1425 H 132.609 0.177825 6.11141 0
M  V30 1426 H 136.783 0.737419 6.92485 0
M  V30 1427 H 134.41 1.12918 7.51767 0
M  V30 1428 N 135.985 -1.50799 -0.457987 0
M  V30 1429 C 136.915 -1.73553 -1.5621 0
M  V30 1430 C 137.896 -0.584774 -1.59732 0
M  V30 1431 O 139.081 -0.825314 -1.7579 0
M  V30 1432 C 136.211 -1.84169 -2.94447 0
M  V30 1433 C 135.165 -2.99461 -3.0579 0
M  V30 1434 C 134.491 -2.95235 -4.45803 0
M  V30 1435 C 135.791 -4.39766 -2.81786 0
M  V30 1436 H 137.485 -2.66 -1.37421 0
M  V30 1437 H 135.031 -1.28002 -0.659662 0
M  V30 1438 H 136.984 -1.98672 -3.71628 0
M  V30 1439 H 135.708 -0.883545 -3.14422 0
M  V30 1440 H 134.367 -2.8463 -2.31044 0
M  V30 1441 H 134.015 -1.97239 -4.62715 0
M  V30 1442 H 133.715 -3.72642 -4.54326 0
M  V30 1443 H 135.239 -3.11803 -5.24987 0
M  V30 1444 H 136.653 -4.55054 -3.4871 0
M  V30 1445 H 135.05 -5.18722 -3.0174 0
M  V30 1446 H 136.12 -4.51229 -1.7754 0
M  V30 1447 N 137.463 0.71206 -1.40597 0
M  V30 1448 C 138.41 1.82613 -1.41142 0
M  V30 1449 C 139.38 1.63925 -0.267903 0
M  V30 1450 O 140.565 1.85009 -0.466495 0
M  V30 1451 C 137.705 3.20354 -1.28324 0
M  V30 1452 C 136.818 3.50589 -2.52411 0
M  V30 1453 C 135.953 4.77855 -2.32009 0
M  V30 1454 C 134.992 5.01005 -3.51654 0
M  V30 1455 N 134.129 6.19487 -3.30425 0
M  V30 1456 H 138.969 1.81482 -2.36365 0
M  V30 1457 H 136.506 0.886475 -1.17388 0
M  V30 1458 H 138.464 3.99899 -1.18899 0
M  V30 1459 H 137.094 3.20705 -0.367189 0
M  V30 1460 H 136.146 2.65573 -2.72351 0
M  V30 1461 H 137.458 3.63604 -3.41458 0
M  V30 1462 H 136.612 5.65424 -2.19956 0
M  V30 1463 H 135.351 4.67056 -1.40392 0
M  V30 1464 H 134.356 4.1189 -3.64179 0
M  V30 1465 H 135.581 5.13674 -4.44202 0
M  V30 1466 H 133.527 6.09932 -2.41494 0
M  V30 1467 H 133.444 6.33194 -4.13039 0
M  V30 1468 H 134.712 7.09834 -3.22113 0
M  V30 1469 N 138.941 1.26152 0.944643 0
M  V30 1470 C 140.187 1.11657 1.69294 0
M  V30 1471 C 140.52 -0.339926 1.91202 0
M  V30 1472 O 139.795 -1.24994 1.49019 0
M  V30 1473 C 140.078 1.88236 3.06984 0
M  V30 1474 C 139.931 3.41772 2.92424 0
M  V30 1475 C 141.25 1.67343 4.07043 0
M  V30 1476 H 138.369 0.407004 0.614424 0
M  V30 1477 H 141.011 1.55106 1.09737 0
M  V30 1478 H 139.161 1.51308 3.57824 0
M  V30 1479 H 140.833 3.88433 2.48832 0
M  V30 1480 H 139.076 3.68974 2.28124 0
M  V30 1481 H 139.747 3.90579 3.90067 0
M  V30 1482 H 142.223 1.99509 3.65151 0
M  V30 1483 H 141.099 2.23346 5.01406 0
M  V30 1484 H 141.36 0.617158 4.37771 0
M  V30 1485 N 140.419 -1.14872 1.07899 0
M  V30 1486 C 141.696 -1.81928 0.71845 0
M  V30 1487 C 142.076 -1.95417 -0.798455 0
M  V30 1488 O 141.424 -1.50997 -1.715 0
M  V30 1489 C 141.634 -3.17937 1.43935 0
M  V30 1490 C 142.982 -3.93501 1.59506 0
M  V30 1491 O 144.006 -3.27509 1.40058 0
M  V30 1492 O 142.865 -5.1183 1.91551 0
M  V30 1493 H 139.959 -0.78628 0.256305 0
M  V30 1494 H 142.505 -1.21934 1.18026 0
M  V30 1495 H 141.277 -3.0325 2.47295 0
M  V30 1496 H 140.9 -3.85619 0.968687 0
M  V30 1497 N 141.898 -0.863906 -1.31812 0
M  V30 1498 C 142.83 -0.272485 -2.27575 0
M  V30 1499 C 143.843 0.56104 -1.52827 0
M  V30 1500 O 145.032 0.384021 -1.7432 0
M  V30 1501 C 142.132 0.63283 -3.32939 0
M  V30 1502 C 141.305 -0.166902 -4.37081 0
M  V30 1503 C 140.364 0.665608 -5.21973 0
M  V30 1504 O 139.39 0.0958091 -5.69119 0
M  V30 1505 N 140.592 1.9787 -5.45736 0
M  V30 1506 H 143.357 -1.0954 -2.78964 0
M  V30 1507 H 140.918 -0.724791 -1.4477 0
M  V30 1508 H 142.91 1.19532 -3.86645 0
M  V30 1509 H 141.48 1.35642 -2.81638 0
M  V30 1510 H 140.7 -0.910838 -3.83533 0
M  V30 1511 H 141.988 -0.715874 -5.03739 0
M  V30 1512 H 141.386 2.46484 -5.09178 0
M  V30 1513 H 139.943 2.48911 -6.024 0
M  V30 1514 N 143.376 1.44774 -0.622745 0
M  V30 1515 C 144.624 2.01721 -0.123655 0
M  V30 1516 C 144.945 1.49172 1.25589 0
M  V30 1517 O 144.215 0.691974 1.83272 0
M  V30 1518 H 142.795 0.745777 -0.0427225 0
M  V30 1519 H 145.457 1.77382 -0.807559 0
M  V30 1520 H 144.553 3.11984 -0.0849534 0
M  V30 1521 N 144.854 0.36279 1.53368 0
M  V30 1522 C 146.082 -0.228613 2.05633 0
M  V30 1523 C 146.497 -1.42676 1.23649 0
M  V30 1524 O 145.854 -1.80394 0.27647 0
M  V30 1525 C 145.905 -0.624845 3.56059 0
M  V30 1526 O 145.626 0.525675 4.34935 0
M  V30 1527 C 147.127 -1.27493 4.24571 0
M  V30 1528 H 144.347 -0.0407183 0.669763 0
M  V30 1529 H 146.891 0.520352 1.97769 0
M  V30 1530 H 145.046 -1.32373 3.64083 0
M  V30 1531 H 145.46 0.205969 5.24095 0
M  V30 1532 H 146.934 -1.50277 5.31151 0
M  V30 1533 H 147.411 -2.23439 3.78116 0
M  V30 1534 H 148.017 -0.617558 4.20792 0
M  V30 1535 N 146.332 -1.57332 0.0918853 0
M  V30 1536 C 147.262 -2.16872 -0.865371 0
M  V30 1537 C 148.243 -1.10118 -1.29646 0
M  V30 1538 O 149.428 -1.38242 -1.36392 0
M  V30 1539 C 146.558 -2.74649 -2.12569 0
M  V30 1540 C 145.512 -3.86747 -1.83333 0
M  V30 1541 C 144.838 -4.31212 -3.16166 0
M  V30 1542 C 146.138 -5.10089 -1.1228 0
M  V30 1543 H 147.832 -2.97114 -0.369307 0
M  V30 1544 H 145.378 -1.42918 -0.176194 0
M  V30 1545 H 147.331 -3.14952 -2.7997 0
M  V30 1546 H 146.055 -1.91657 -2.64452 0
M  V30 1547 H 144.714 -3.46978 -1.18331 0
M  V30 1548 H 144.362 -3.45115 -3.6593 0
M  V30 1549 H 144.062 -5.06788 -2.97388 0
M  V30 1550 H 145.586 -4.74146 -3.84731 0
M  V30 1551 H 147 -5.47582 -1.69785 0
M  V30 1552 H 145.397 -5.91073 -1.03693 0
M  V30 1553 H 146.467 -4.84786 -0.105041 0
M  V30 1554 N 147.81 0.181792 -1.56548 0
M  V30 1555 C 149.057 0.900097 -1.81396 0
M  V30 1556 C 149.385 1.82695 -0.667281 0
M  V30 1557 O 148.64 1.92614 0.346146 0
M  V30 1558 C 148.939 1.73728 -3.12335 0
M  V30 1559 C 148.605 0.960255 -4.40556 0
M  V30 1560 C 147.267 0.745766 -4.75386 0
M  V30 1561 C 149.619 0.414477 -5.19549 0
M  V30 1562 C 146.947 -0.0257694 -5.86694 0
M  V30 1563 C 149.299 -0.343916 -6.31664 0
M  V30 1564 C 147.963 -0.569301 -6.65068 0
M  V30 1565 H 147.233 0.329369 -0.663775 0
M  V30 1566 H 149.88 0.165647 -1.90782 0
M  V30 1567 H 148.185 2.54081 -2.98245 0
M  V30 1568 H 149.882 2.29591 -3.28769 0
M  V30 1569 H 146.472 1.13746 -4.13231 0
M  V30 1570 H 150.656 0.567554 -4.93044 0
M  V30 1571 H 145.912 -0.210233 -6.11038 0
M  V30 1572 H 150.086 -0.774133 -6.92084 0
M  V30 1573 H 147.713 -1.16903 -7.51158 0
M  V30 1574 N 149.288 1.51039 0.449983 0
M  V30 1575 C 150.198 1.74261 1.57067 0
M  V30 1576 C 151.214 0.626363 1.62335 0
M  V30 1577 O 152.39 0.907162 1.79812 0
M  V30 1578 C 149.455 1.85114 2.93144 0
M  V30 1579 C 148.516 3.0893 2.98095 0
M  V30 1580 C 147.749 3.19256 4.27681 0
M  V30 1581 O 147.972 2.35835 5.19363 0
M  V30 1582 O 146.906 4.12144 4.38658 0
M  V30 1583 H 150.732 2.69303 1.40391 0
M  V30 1584 H 148.317 1.35389 0.631688 0
M  V30 1585 H 150.199 1.94311 3.73926 0
M  V30 1586 H 148.874 0.932588 3.09975 0
M  V30 1587 H 147.781 3.0522 2.16314 0
M  V30 1588 H 149.114 4.00433 2.86206 0
M  V30 1589 N 150.766 -0.704594 1.40972 0
M  V30 1590 C 151.696 -1.83124 1.44872 0
M  V30 1591 C 152.677 -1.67281 0.30838 0
M  V30 1592 O 153.862 -1.87149 0.518556 0
M  V30 1593 C 150.992 -3.21181 1.32136 0
M  V30 1594 C 149.946 -3.51714 2.43888 0
M  V30 1595 C 149.272 -4.89032 2.16222 0
M  V30 1596 C 150.572 -3.516 3.86232 0
M  V30 1597 H 152.266 -1.80117 2.39161 0
M  V30 1598 H 149.812 -0.865145 1.15114 0
M  V30 1599 H 151.765 -3.99702 1.33479 0
M  V30 1600 H 150.489 -3.24791 0.343279 0
M  V30 1601 H 149.148 -2.75539 2.41813 0
M  V30 1602 H 148.796 -4.89256 1.16778 0
M  V30 1603 H 148.496 -5.10426 2.911 0
M  V30 1604 H 150.02 -5.69873 2.19265 0
M  V30 1605 H 151.434 -4.2014 3.9007 0
M  V30 1606 H 149.831 -3.84523 4.60719 0
M  V30 1607 H 150.901 -2.50757 4.15029 0
M  V30 1608 N 152.244 -1.26651 -0.937939 0
M  V30 1609 C 153.493 -1.11775 -1.67897 0
M  V30 1610 C 153.806 0.33794 -1.92659 0
M  V30 1611 O 155.012 0.607434 -2.64618 0
M  V30 1612 C 153.468 -1.9523 -3.02346 0
M  V30 1613 C 153.076 -3.45393 -2.8532 0
M  V30 1614 C 154.82 -1.88972 -3.80118 0
M  V30 1615 C 152.727 -4.21083 -4.15263 0
M  V30 1616 H 151.657 -0.414696 -0.629717 0
M  V30 1617 H 154.308 -1.50988 -1.04283 0
M  V30 1618 H 152.69 -1.48853 -3.66959 0
M  V30 1619 H 153.864 -3.99561 -2.29537 0
M  V30 1620 H 152.179 -3.52921 -2.20988 0
M  V30 1621 H 154.776 -2.42805 -4.76392 0
M  V30 1622 H 155.119 -0.86113 -4.07296 0
M  V30 1623 H 155.652 -2.33189 -3.22285 0
M  V30 1624 H 152.391 -5.24425 -3.93267 0
M  V30 1625 H 151.911 -3.71695 -4.70747 0
M  V30 1626 H 153.59 -4.29706 -4.83696 0
M  V30 1627 N 153.722 1.14298 -1.08507 0
M  V30 1628 C 154.652 2.21542 -0.737646 0
M  V30 1629 C 155.633 1.67773 0.280377 0
M  V30 1630 O 156.818 1.93616 0.150521 0
M  V30 1631 C 153.948 3.46988 -0.147259 0
M  V30 1632 C 152.902 4.13789 -1.09374 0
M  V30 1633 C 152.228 5.33449 -0.365524 0
M  V30 1634 C 153.528 4.62208 -2.4323 0
M  V30 1635 H 155.222 2.5086 -1.6343 0
M  V30 1636 H 152.768 1.20576 -0.787243 0
M  V30 1637 H 154.721 4.21262 0.107808 0
M  V30 1638 H 153.445 3.17037 0.784538 0
M  V30 1639 H 152.104 3.4147 -1.33393 0
M  V30 1640 H 151.752 4.99759 0.57011 0
M  V30 1641 H 151.452 5.79088 -0.996512 0
M  V30 1642 H 152.976 6.10485 -0.118534 0
M  V30 1643 H 154.39 5.27952 -2.23472 0
M  V30 1644 H 152.787 5.18553 -3.02031 0
M  V30 1645 H 153.857 3.77224 -3.04681 0
M  V30 1646 N 155.201 0.870884 1.31352 0
M  V30 1647 C 156.164 0.332243 2.26779 0
M  V30 1648 C 157.164 -0.517302 1.52252 0
M  V30 1649 O 158.354 -0.326477 1.71113 0
M  V30 1650 C 155.486 -0.528066 3.36785 0
M  V30 1651 H 156.679 1.17469 2.75937 0
M  V30 1652 H 154.232 0.64655 1.423 0
M  V30 1653 H 154.967 -1.39167 2.92922 0
M  V30 1654 H 154.752 0.0802582 3.92018 0
M  V30 1655 H 156.242 -0.897179 4.07849 0
M  V30 1656 N 156.679 -1.44442 0.630414 0
M  V30 1657 C 157.642 -2.29107 -0.0652523 0
M  V30 1658 C 158.642 -1.41002 -0.772995 0
M  V30 1659 O 159.832 -1.62881 -0.617692 0
M  V30 1660 C 156.964 -3.22564 -1.10296 0
M  V30 1661 H 158.157 -2.92103 0.679401 0
M  V30 1662 H 155.71 -1.51343 0.390517 0
M  V30 1663 H 156.445 -2.64416 -1.87762 0
M  V30 1664 H 156.23 -3.87491 -0.59941 0
M  V30 1665 H 157.72 -3.86167 -1.5895 0
M  V30 1666 N 158.157 -0.370918 -1.53173 0
M  V30 1667 C 159.105 0.488101 -2.27421 0
M  V30 1668 C 160.099 1.07884 -1.30604 0
M  V30 1669 O 161.305 1.02143 -1.48212 0
M  V30 1670 H 157.68 0.176134 -0.731082 0
M  V30 1671 H 159.651 -0.159815 -2.97972 0
M  V30 1672 C 158.4 1.61306 -3.08019 0
M  V30 1673 H 157.723 1.1678 -3.82364 0
M  V30 1674 H 159.163 2.18872 -3.63141 0
M  V30 1675 C 157.622 2.55848 -2.19188 0
M  V30 1676 O 158.152 3.58799 -1.80626 0
M  V30 1677 N 156.358 2.2516 -1.83715 0
M  V30 1678 H 155.905 1.41476 -2.15273 0
M  V30 1679 H 155.863 2.8867 -1.24567 0
M  V30 1680 N 159.635 1.57281 -0.100228 0
M  V30 1681 C 160.865 1.98591 0.569681 0
M  V30 1682 C 161.273 0.978315 1.61943 0
M  V30 1683 O 160.616 -0.0396108 1.83657 0
M  V30 1684 C 160.678 3.36282 1.271 0
M  V30 1685 C 160.342 4.55488 0.371409 0
M  V30 1686 C 161.339 5.18491 -0.382504 0
M  V30 1687 C 159.024 5.01474 0.287965 0
M  V30 1688 C 161.018 6.25852 -1.20779 0
M  V30 1689 C 158.705 6.08701 -0.540965 0
M  V30 1690 C 159.703 6.70755 -1.28749 0
M  V30 1691 O 159.391 7.75914 -2.10269 0
M  V30 1692 H 159.123 0.65752 0.156982 0
M  V30 1693 H 161.677 2.0463 -0.177734 0
M  V30 1694 H 159.907 3.26941 2.0651 0
M  V30 1695 H 161.596 3.62005 1.83595 0
M  V30 1696 H 162.362 4.83891 -0.3278 0
M  V30 1697 H 158.241 4.52932 0.858689 0
M  V30 1698 H 161.785 6.74218 -1.79096 0
M  V30 1699 H 157.682 6.42732 -0.597131 0
M  V30 1700 H 158.45 7.92925 -2.03007 0
M  V30 1701 N 161.113 -0.173488 1.56642 0
M  V30 1702 C 162.043 -1.2171 1.99271 0
M  V30 1703 C 163.024 -1.46289 0.867959 0
M  V30 1704 O 164.209 -1.5766 1.13388 0
M  V30 1705 C 161.339 -2.55651 2.35074 0
M  V30 1706 C 160.293 -2.45645 3.50489 0
M  V30 1707 C 159.619 -3.84056 3.72028 0
M  V30 1708 C 160.919 -1.96302 4.84007 0
M  V30 1709 H 162.613 -0.86275 2.867 0
M  V30 1710 H 160.159 -0.413571 1.37933 0
M  V30 1711 H 162.112 -3.2886 2.63494 0
M  V30 1712 H 160.836 -2.92869 1.44552 0
M  V30 1713 H 159.495 -1.7489 3.22194 0
M  V30 1714 H 159.143 -4.18664 2.788 0
M  V30 1715 H 158.843 -3.7823 4.49684 0
M  V30 1716 H 160.367 -4.58854 4.02846 0
M  V30 1717 H 161.781 -2.59284 5.11317 0
M  V30 1718 H 160.178 -2.01429 5.65284 0
M  V30 1719 H 161.248 -0.917226 4.76146 0
M  V30 1720 N 162.591 -1.51276 -0.441967 0
M  V30 1721 C 163.868 -1.54252 -1.20273 0
M  V30 1722 C 164.248 -0.30408 -2.08898 0
M  V30 1723 O 163.596 0.711084 -2.17154 0
M  V30 1724 C 163.806 -2.85406 -2.00859 0
M  V30 1725 C 165.154 -3.37181 -2.58059 0
M  V30 1726 O 166.178 -2.86925 -2.11074 0
M  V30 1727 O 165.037 -4.24858 -3.43741 0
M  V30 1728 H 162.131 -0.619969 -0.547328 0
M  V30 1729 H 164.677 -1.63586 -0.451413 0
M  V30 1730 H 163.449 -3.67003 -1.35736 0
M  V30 1731 H 163.072 -2.79213 -2.83065 0
M  V30 1732 N 164.069 0.697108 -1.41344 0
M  V30 1733 C 165.318 1.45279 -1.39918 0
M  V30 1734 C 165.631 1.95597 -0.0109624 0
M  V30 1735 O 166.837 2.71208 0.125919 0
M  V30 1736 C 165.293 2.62695 -2.46007 0
M  V30 1737 C 164.901 2.19169 -3.90729 0
M  V30 1738 C 166.645 3.40336 -2.53715 0
M  V30 1739 C 164.552 3.33535 -4.88373 0
M  V30 1740 H 163.482 0.545692 -0.520323 0
M  V30 1741 H 166.133 0.756929 -1.67161 0
M  V30 1742 H 164.515 3.34541 -2.11892 0
M  V30 1743 H 165.689 1.54623 -4.34083 0
M  V30 1744 H 164.004 1.54525 -3.86666 0
M  V30 1745 H 166.601 4.2547 -3.2385 0
M  V30 1746 H 166.944 3.85418 -1.5735 0
M  V30 1747 H 167.477 2.75546 -2.86913 0
M  V30 1748 H 164.216 2.93468 -5.86137 0
M  V30 1749 H 163.736 3.96936 -4.49668 0
M  V30 1750 H 165.415 3.99335 -5.09059 0
M  V30 1751 N 165.547 1.27147 0.931209 0
M  V30 1752 C 166.494 1.09568 2.03134 0
M  V30 1753 C 167.464 -0.00222433 1.661 0
M  V30 1754 O 168.649 0.159439 1.90133 0
M  V30 1755 C 165.789 0.745231 3.36957 0
M  V30 1756 C 164.902 1.92041 3.86968 0
M  V30 1757 C 164.037 1.51216 5.09222 0
M  V30 1758 C 163.076 2.65504 5.5152 0
M  V30 1759 N 162.213 2.25291 6.64972 0
M  V30 1760 H 167.053 2.03708 2.17502 0
M  V30 1761 H 164.59 1.01411 1.06556 0
M  V30 1762 H 166.548 0.522878 4.1391 0
M  V30 1763 H 165.178 -0.159202 3.22407 0
M  V30 1764 H 164.23 2.25541 3.06326 0
M  V30 1765 H 165.542 2.77787 4.1429 0
M  V30 1766 H 164.696 1.25084 5.93666 0
M  V30 1767 H 163.435 0.625749 4.83669 0
M  V30 1768 H 162.44 2.92354 4.65628 0
M  V30 1769 H 163.665 3.54761 5.7907 0
M  V30 1770 H 161.611 1.39098 6.41083 0
M  V30 1771 H 161.528 3.04577 6.91931 0
M  V30 1772 H 162.796 2.02398 7.52765 0
M  V30 1773 N 167.025 -1.13721 1.09112 0
M  V30 1774 C 168.273 -1.84559 0.823562 0
M  V30 1775 C 168.594 -1.83754 -0.652658 0
M  V30 1776 O 167.864 -1.29102 -1.47342 0
M  V30 1777 H 166.444 -0.683376 0.301673 0
M  V30 1778 H 169.106 -1.37771 1.37859 0
M  V30 1779 H 168.202 -2.8917 1.17419 0
M  V30 1780 N 168.503 -0.877838 -1.30888 0
M  V30 1781 C 169.433 -0.35534 -2.3078 0
M  V30 1782 C 170.414 0.557994 -1.60687 0
M  V30 1783 O 171.599 0.473355 -1.88343 0
M  V30 1784 C 168.729 0.437221 -3.44537 0
M  V30 1785 C 167.683 -0.383715 -4.26276 0
M  V30 1786 C 167.009 0.535014 -5.32017 0
M  V30 1787 C 168.309 -1.62201 -4.96476 0
M  V30 1788 H 170.003 -1.19007 -2.74732 0
M  V30 1789 H 167.549 -0.573698 -1.32078 0
M  V30 1790 H 169.502 0.813334 -4.13477 0
M  V30 1791 H 168.226 1.30553 -2.99372 0
M  V30 1792 H 166.885 -0.741874 -3.59015 0
M  V30 1793 H 166.533 1.40083 -4.831 0
M  V30 1794 H 166.233 -0.0104211 -5.87599 0
M  V30 1795 H 167.757 0.907799 -6.03814 0
M  V30 1796 H 169.171 -1.31689 -5.5797 0
M  V30 1797 H 167.568 -2.10711 -5.61891 0
M  V30 1798 H 168.638 -2.37044 -4.23011 0
M  V30 1799 N 169.982 1.44106 -0.638065 0
M  V30 1800 C 170.912 2.33448 0.0494287 0
M  V30 1801 C 171.893 1.48606 0.827672 0
M  V30 1802 O 173.078 1.77308 0.792173 0
M  V30 1803 C 170.208 3.31771 1.02691 0
M  V30 1804 C 169.162 4.26485 0.359823 0
M  V30 1805 C 168.488 5.14729 1.44769 0
M  V30 1806 C 169.788 5.17056 -0.738296 0
M  V30 1807 H 171.482 2.91183 -0.696636 0
M  V30 1808 H 169.028 1.40014 -0.336456 0
M  V30 1809 H 170.981 3.93161 1.51666 0
M  V30 1810 H 169.705 2.7226 1.80395 0
M  V30 1811 H 168.364 3.66437 -0.10934 0
M  V30 1812 H 168.012 4.51566 2.21578 0
M  V30 1813 H 167.712 5.78913 1.00668 0
M  V30 1814 H 169.236 5.78991 1.93911 0
M  V30 1815 H 170.65 5.72342 -0.331354 0
M  V30 1816 H 169.047 5.89879 -1.10286 0
M  V30 1817 H 170.117 4.57652 -1.60258 0
M  V30 1818 N 171.46 0.379036 1.52974 0
M  V30 1819 C 172.737 -0.263479 1.93817 0
M  V30 1820 C 173.117 -1.65244 1.31368 0
M  V30 1821 O 172.465 -2.23448 0.477856 0
M  V30 1822 C 172.675 -0.300166 3.47707 0
M  V30 1823 C 174.023 -0.534061 4.21228 0
M  V30 1824 O 175.047 -0.38081 3.54159 0
M  V30 1825 O 173.906 -0.833501 5.40106 0
M  V30 1826 H 171 -0.161149 0.811147 0
M  V30 1827 H 173.546 0.432798 1.64088 0
M  V30 1828 H 172.318 0.673138 3.85467 0
M  V30 1829 H 171.941 -1.04179 3.83709 0
M  V30 1830 N 172.938 -1.57226 0.108567 0
M  V30 1831 C 174.184 -1.95121 -0.552761 0
M  V30 1832 C 174.517 -0.991345 -1.66991 0
M  V30 1833 O 173.792 -0.0267211 -1.94482 0
M  V30 1834 C 174.075 -3.43039 -1.09528 0
M  V30 1835 C 173.928 -4.49797 0.0177332 0
M  V30 1836 C 175.247 -3.92567 -1.98945 0
M  V30 1837 H 172.366 -0.709496 -0.199461 0
M  V30 1838 H 175.008 -1.89126 0.182011 0
M  V30 1839 H 173.158 -3.48279 -1.72146 0
M  V30 1840 H 174.83 -4.56661 0.652584 0
M  V30 1841 H 173.073 -4.284 0.682309 0
M  V30 1842 H 173.744 -5.50528 -0.402919 0
M  V30 1843 H 176.22 -3.89565 -1.46214 0
M  V30 1844 H 175.096 -4.96605 -2.33827 0
M  V30 1845 H 175.357 -3.32648 -2.91201 0
M  V30 1846 N 174.416 0.165178 -1.56732 0
M  V30 1847 C 175.644 0.896218 -1.86482 0
M  V30 1848 C 176.059 1.75555 -0.694675 0
M  V30 1849 O 175.416 1.79379 0.33607 0
M  V30 1850 C 175.467 1.76792 -3.1532 0
M  V30 1851 O 175.188 0.943239 -4.27825 0
M  V30 1852 C 176.689 2.6081 -3.58459 0
M  V30 1853 H 173.909 0.260064 -0.618553 0
M  V30 1854 H 176.453 0.163428 -2.03846 0
M  V30 1855 H 174.608 2.45398 -2.99764 0
M  V30 1856 H 175.022 1.53998 -5.01383 0
M  V30 1857 H 176.496 3.17579 -4.51495 0
M  V30 1858 H 176.973 3.35977 -2.82872 0
M  V30 1859 H 177.579 1.97526 -3.76648 0
M  V30 1860 N 175.894 1.51508 0.433938 0
M  V30 1861 C 177.134 1.66006 1.19253 0
M  V30 1862 C 177.498 0.369868 1.88404 0
M  V30 1863 O 178.699 0.39066 2.65946 0
M  V30 1864 C 176.97 2.83229 2.17981 0
M  V30 1865 S 178.529 3.18075 3.02281 0
M  V30 1866 H 175.347 0.584821 0.404358 0
M  V30 1867 H 177.949 1.89425 0.48357 0
M  V30 1868 H 176.653 3.75407 1.65824 0
M  V30 1869 H 176.184 2.6201 2.93453 0
M  V30 1870 H 178.199 2.64772 4.19655 0
M  V30 1871 N 177.372 -0.689602 1.41712 0
M  V30 1872 C 178.319 -1.80345 1.44029 0
M  V30 1873 C 179.289 -1.63478 0.293948 0
M  V30 1874 O 180.474 -1.84244 0.495869 0
M  V30 1875 C 177.614 -3.18272 1.33405 0
M  V30 1876 C 176.727 -3.46529 2.57956 0
M  V30 1877 C 175.862 -4.74103 2.39582 0
M  V30 1878 C 174.901 -4.95347 3.5958 0
M  V30 1879 N 174.038 -6.14151 3.40239 0
M  V30 1880 H 178.878 -1.77698 2.39222 0
M  V30 1881 H 176.415 -0.867688 1.18784 0
M  V30 1882 H 178.373 -3.97956 1.25246 0
M  V30 1883 H 177.003 -3.2008 0.418164 0
M  V30 1884 H 176.055 -2.61207 2.76542 0
M  V30 1885 H 177.367 -3.58126 3.47199 0
M  V30 1886 H 176.521 -5.61853 2.28924 0
M  V30 1887 H 175.26 -4.64763 1.47805 0
M  V30 1888 H 174.265 -4.06044 3.70686 0
M  V30 1889 H 175.49 -5.06542 4.52318 0
M  V30 1890 H 173.436 -6.06013 2.51167 0
M  V30 1891 H 173.353 -6.26543 4.23061 0
M  V30 1892 H 174.621 -7.04619 3.33365 0
M  V30 1893 N 178.85 -1.27639 -0.924453 0
M  V30 1894 C 180.078 -1.16989 -1.70649 0
M  V30 1895 C 180.493 0.272869 -1.86818 0
M  V30 1896 O 179.85 1.18549 -1.38753 0
M  V30 1897 C 179.901 -1.85229 -3.10439 0
M  V30 1898 O 179.622 -3.23868 -2.95028 0
M  V30 1899 C 181.123 -1.80746 -4.04779 0
M  V30 1900 H 178.343 -0.406595 -0.53378 0
M  V30 1901 H 180.887 -1.68569 -1.15778 0
M  V30 1902 H 179.042 -1.37545 -3.6216 0
M  V30 1903 H 179.456 -3.57889 -3.83426 0
M  V30 1904 H 180.93 -2.33101 -5.00368 0
M  V30 1905 H 181.407 -0.777499 -4.32263 0
M  V30 1906 H 182.013 -2.28059 -3.58984 0
M  V30 1907 N 180.328 1.1314 -1.09713 0
M  V30 1908 C 181.574 1.84757 -0.836224 0
M  V30 1909 C 181.907 1.8347 0.636598 0
M  V30 1910 O 181.182 1.27491 1.46889 0
M  V30 1911 C 181.465 3.32782 -1.37578 0
M  V30 1912 C 181.318 3.42567 -2.91493 0
M  V30 1913 C 182.637 4.28307 -1.01198 0
M  V30 1914 H 179.756 0.67082 -0.305236 0
M  V30 1915 H 182.398 1.3278 -1.35903 0
M  V30 1916 H 180.548 3.77177 -0.931097 0
M  V30 1917 H 182.22 3.06862 -3.44432 0
M  V30 1918 H 180.463 2.83349 -3.28475 0
M  V30 1919 H 181.134 4.46674 -3.24324 0
M  V30 1920 H 183.61 3.91999 -1.39556 0
M  V30 1921 H 182.486 5.30307 -1.41653 0
M  V30 1922 H 182.747 4.42029 0.0794833 0
M  V30 1923 N 181.806 0.884767 1.30421 0
M  V30 1924 C 182.769 0.356277 2.26414 0
M  V30 1925 C 183.769 -0.501124 1.52792 0
M  V30 1926 O 184.959 -0.30831 1.7145 0
M  V30 1927 C 182.091 -0.492316 3.37326 0
M  V30 1928 H 183.284 1.20389 2.74675 0
M  V30 1929 H 180.837 0.661607 1.41607 0
M  V30 1930 H 181.572 -1.36052 2.94381 0
M  V30 1931 H 181.357 0.121832 3.91911 0
M  V30 1932 H 182.847 -0.853871 4.08777 0
M  V30 1933 N 183.284 -1.43765 0.645699 0
M  V30 1934 C 184.232 -2.32516 -0.0624849 0
M  V30 1935 C 185.226 -1.48183 -0.820855 0
M  V30 1936 O 186.432 -1.64439 -0.732106 0
M  V30 1937 H 182.807 -0.750989 -0.0389864 0
M  V30 1938 H 184.778 -2.89979 0.703892 0
M  V30 1939 C 183.527 -3.32389 -1.02044 0
M  V30 1940 H 182.85 -3.97301 -0.446312 0
M  V30 1941 H 184.29 -3.97138 -1.48517 0
M  V30 1942 C 182.749 -2.62416 -2.11281 0
M  V30 1943 O 183.279 -2.434 -3.19561 0
M  V30 1944 N 181.485 -2.21913 -1.87624 0
M  V30 1945 H 181.032 -2.37578 -0.995703 0
M  V30 1946 H 180.99 -1.75424 -2.6091 0
M  V30 1947 N 184.763 -0.387143 -1.52771 0
M  V30 1948 C 185.696 0.493123 -2.22808 0
M  V30 1949 C 186.674 1.0658 -1.22798 0
M  V30 1950 O 187.858 1.11785 -1.51777 0
M  V30 1951 C 184.985 1.68238 -2.93962 0
M  V30 1952 C 184.031 1.23515 -4.08223 0
M  V30 1953 S 184.864 0.21848 -5.35054 0
M  V30 1954 C 186.02 1.41357 -6.09729 0
M  V30 1955 H 186.253 -0.101625 -2.97126 0
M  V30 1956 H 183.786 -0.171323 -1.53447 0
M  V30 1957 H 185.744 2.36443 -3.35567 0
M  V30 1958 H 184.405 2.24842 -2.19328 0
M  V30 1959 H 183.598 2.12304 -4.57103 0
M  V30 1960 H 183.2 0.632044 -3.68621 0
M  V30 1961 H 185.492 2.34101 -6.3577 0
M  V30 1962 H 186.435 0.965736 -7.01484 0
M  V30 1963 H 186.843 1.6294 -5.40473 0
M  V30 1964 N 186.241 1.57166 -0.116904 0
M  V30 1965 C 187.49 1.94298 0.541407 0
M  V30 1966 C 187.803 1.00236 1.67964 0
M  V30 1967 O 189.009 1.26826 2.40057 0
M  V30 1968 C 187.465 3.45306 1.01449 0
M  V30 1969 C 187.073 4.47899 -0.0951738 0
M  V30 1970 C 188.817 3.91361 1.6443 0
M  V30 1971 C 186.724 5.90083 0.394491 0
M  V30 1972 H 185.654 0.725308 0.206019 0
M  V30 1973 H 188.305 1.82446 -0.196419 0
M  V30 1974 H 186.687 3.52385 1.80667 0
M  V30 1975 H 187.861 4.52486 -0.871374 0
M  V30 1976 H 186.176 4.11583 -0.631505 0
M  V30 1977 H 188.773 4.95004 2.02176 0
M  V30 1978 H 189.116 3.3122 2.52189 0
M  V30 1979 H 189.649 3.87073 0.917559 0
M  V30 1980 H 186.388 6.53974 -0.447004 0
M  V30 1981 H 185.908 5.88921 1.13722 0
M  V30 1982 H 187.587 6.41307 0.856399 0
M  V30 1983 N 187.719 -0.156864 1.56817 0
M  V30 1984 C 188.666 -1.19394 1.97519 0
M  V30 1985 C 189.636 -1.4322 0.841265 0
M  V30 1986 O 190.821 -1.55719 1.10255 0
M  V30 1987 C 187.961 -2.52483 2.35258 0
M  V30 1988 C 187.074 -2.35914 3.61896 0
M  V30 1989 C 186.209 -3.61969 3.88782 0
M  V30 1990 C 185.248 -3.40395 5.08722 0
M  V30 1991 N 184.385 -4.58556 5.31668 0
M  V30 1992 H 189.225 -0.839845 2.85921 0
M  V30 1993 H 186.762 -0.403264 1.41464 0
M  V30 1994 H 188.72 -3.30071 2.55165 0
M  V30 1995 H 187.35 -2.85859 1.49949 0
M  V30 1996 H 186.402 -1.49429 3.49821 0
M  V30 1997 H 187.714 -2.15926 4.49641 0
M  V30 1998 H 186.868 -4.47989 4.09135 0
M  V30 1999 H 185.607 -3.84951 2.9944 0
M  V30 2000 H 184.612 -2.52763 4.88253 0
M  V30 2001 H 185.837 -3.18822 5.99608 0
M  V30 2002 H 183.783 -4.81729 4.45279 0
M  V30 2003 H 183.7 -4.41535 6.13664 0
M  V30 2004 H 184.968 -5.45817 5.5651 0
M  V30 2005 N 189.197 -1.51736 -0.425897 0
M  V30 2006 C 190.445 -1.64644 -1.17204 0
M  V30 2007 C 190.766 -0.370486 -1.91448 0
M  V30 2008 O 190.036 0.614088 -1.86026 0
M  V30 2009 H 188.616 -0.606819 -0.435638 0
M  V30 2010 H 191.278 -1.88713 -0.487177 0
M  V30 2011 H 190.374 -2.47958 -1.89534 0
M  V30 2012 N 190.675 0.682077 -1.42076 0
M  V30 2013 C 191.622 1.79578 -1.44984 0
M  V30 2014 C 192.592 1.6332 -0.302614 0
M  V30 2015 O 193.777 1.83978 -0.505633 0
M  V30 2016 C 190.917 3.1756 -1.35091 0
M  V30 2017 C 190.03 3.45156 -2.59791 0
M  V30 2018 C 189.165 4.72826 -2.42093 0
M  V30 2019 C 188.204 4.93433 -3.62202 0
M  V30 2020 N 187.341 6.12338 -3.43491 0
M  V30 2021 H 192.181 1.76427 -2.40161 0
M  V30 2022 H 189.718 0.861376 -1.19242 0
M  V30 2023 H 191.676 3.97287 -1.27354 0
M  V30 2024 H 190.306 3.19854 -0.435133 0
M  V30 2025 H 189.358 2.59736 -2.77923 0
M  V30 2026 H 190.67 3.5628 -3.49094 0
M  V30 2027 H 189.824 5.60631 -2.319 0
M  V30 2028 H 188.563 4.63973 -1.50268 0
M  V30 2029 H 187.568 4.04073 -3.72834 0
M  V30 2030 H 188.793 5.04136 -4.54998 0
M  V30 2031 H 186.739 6.04672 -2.54377 0
M  V30 2032 H 186.656 6.2429 -4.26377 0
M  V30 2033 H 187.924 7.02841 -3.37097 0
M  V30 2034 N 192.153 1.28127 0.917671 0
M  V30 2035 C 193.381 1.17892 1.70026 0
M  V30 2036 C 193.796 -0.262958 1.8696 0
M  V30 2037 O 193.153 -1.17811 1.3938 0
M  V30 2038 C 193.204 1.86872 3.09453 0
M  V30 2039 O 192.925 3.25428 2.93306 0
M  V30 2040 C 194.426 1.8289 4.03815 0
M  V30 2041 H 191.646 0.40942 0.531617 0
M  V30 2042 H 194.19 1.69181 1.14883 0
M  V30 2043 H 192.345 1.39464 3.61426 0
M  V30 2044 H 192.759 3.59918 3.81523 0
M  V30 2045 H 194.233 2.35751 4.99125 0
M  V30 2046 H 194.71 0.800412 4.31845 0
M  V30 2047 H 195.316 2.29959 3.57769 0
M  V30 2048 N 193.631 -1.12557 1.10312 0
M  V30 2049 C 195.042 -1.65574 0.862678 0
M  V30 2050 C 195.393 -1.86566 -0.607256 0
M  V30 2051 O 194.518 -1.59121 -1.46662 0
M  V30 2052 C 195.113 -3.00776 1.55947 0
M  V30 2053 C 193.672 -3.50748 1.36576 0
M  V30 2054 C 192.819 -2.25797 1.60968 0
M  V30 2055 H 195.77 -0.963552 1.26101 0
M  V30 2056 H 195.791 -3.67185 0.997753 0
M  V30 2057 H 195.303 -2.85465 2.62928 0
M  V30 2058 H 193.404 -3.71245 0.317531 0
M  V30 2059 H 193.517 -4.30289 2.10686 0
M  V30 2060 H 191.881 -2.32841 1.03234 0
M  V30 2061 H 192.664 -2.13043 2.69198 0
M  V30 2062 N 195.109 -0.891671 -1.2995 0
M  V30 2063 C 196.019 -0.367691 -2.31701 0
M  V30 2064 C 197.035 0.533486 -1.6562 0
M  V30 2065 O 198.211 0.424997 -1.96865 0
M  V30 2066 C 195.276 0.403406 -3.44345 0
M  V30 2067 C 194.337 -0.528328 -4.26037 0
M  V30 2068 C 193.57 0.206063 -5.33302 0
M  V30 2069 O 193.793 1.43119 -5.52153 0
M  V30 2070 O 192.727 -0.447281 -6.00236 0
M  V30 2071 H 196.553 -1.21163 -2.78484 0
M  V30 2072 H 194.138 -0.655725 -1.34241 0
M  V30 2073 H 196.02 0.839753 -4.12948 0
M  V30 2074 H 194.695 1.22354 -2.99685 0
M  V30 2075 H 193.602 -1.01362 -3.60106 0
M  V30 2076 H 194.935 -1.31465 -4.74318 0
M  V30 2077 N 196.587 1.43421 -0.653314 0
M  V30 2078 C 197.497 2.34568 0.0388565 0
M  V30 2079 C 198.513 1.53888 0.81207 0
M  V30 2080 O 199.689 1.86539 0.759294 0
M  V30 2081 C 196.754 3.32167 0.993269 0
M  V30 2082 C 195.815 4.28751 0.216977 0
M  V30 2083 C 195.048 5.21688 1.12593 0
M  V30 2084 O 195.271 5.19052 2.36519 0
M  V30 2085 O 194.205 5.98919 0.598284 0
M  V30 2086 H 198.031 2.95251 -0.711386 0
M  V30 2087 H 195.616 1.43564 -0.413502 0
M  V30 2088 H 197.498 3.92183 1.54176 0
M  V30 2089 H 196.173 2.73987 1.72374 0
M  V30 2090 H 195.08 3.72215 -0.375101 0
M  V30 2091 H 196.413 4.89913 -0.473924 0
M  V30 2092 N 198.065 0.39524 1.52563 0
M  V30 2093 C 199.314 -0.186321 2.00838 0
M  V30 2094 C 199.627 -1.47402 1.28577 0
M  V30 2095 O 200.833 -2.13599 1.67593 0
M  V30 2096 C 199.289 -0.382595 3.57861 0
M  V30 2097 C 198.897 0.892202 4.39026 0
M  V30 2098 C 200.641 -0.9202 4.14406 0
M  V30 2099 C 198.548 0.66388 5.87662 0
M  V30 2100 H 197.478 -0.0734041 0.750418 0
M  V30 2101 H 200.129 0.518552 1.76021 0
M  V30 2102 H 198.511 -1.14946 3.7895 0
M  V30 2103 H 199.685 1.66414 4.29701 0
M  V30 2104 H 198 1.35519 3.9373 0
M  V30 2105 H 200.597 -1.10683 5.23119 0
M  V30 2106 H 200.94 -1.89096 3.70875 0
M  V30 2107 H 201.473 -0.212751 3.97231 0
M  V30 2108 H 198.212 1.6058 6.35527 0
M  V30 2109 H 197.732 -0.0690193 5.9976 0
M  V30 2110 H 199.411 0.300699 6.46301 0
M  V30 2111 N 199.544 -1.57102 0.125237 0
M  V30 2112 C 200.96 -1.57915 -0.231322 0
M  V30 2113 C 201.16 -1.13833 -1.66266 0
M  V30 2114 O 200.216 -0.828581 -2.38518 0
M  V30 2115 C 201.529 -3.00699 0.00766489 0
M  V30 2116 C 203.077 -3.12947 -0.0577483 0
M  V30 2117 C 203.552 -4.57742 0.153626 0
M  V30 2118 N 205.043 -4.63092 0.0998073 0
M  V30 2119 C 205.778 -5.72905 0.238174 0
M  V30 2120 N 205.274 -6.91445 0.433057 0
M  V30 2121 N 207.067 -5.6182 0.177308 0
M  V30 2122 H 199.218 -1.84055 1.06007 0
M  V30 2123 H 201.481 -0.850905 0.417929 0
M  V30 2124 H 201.187 -3.3726 0.997431 0
M  V30 2125 H 201.061 -3.70236 -0.721452 0
M  V30 2126 H 203.448 -2.7624 -1.03804 0
M  V30 2127 H 203.529 -2.4594 0.70335 0
M  V30 2128 H 203.173 -4.95149 1.13092 0
M  V30 2129 H 203.103 -5.22848 -0.627534 0
M  V30 2130 H 205.594 -3.77871 -0.047051 0
M  V30 2131 H 205.907 -7.70985 0.529332 0
M  V30 2132 H 204.252 -6.93415 0.469109 0
M  V30 2133 H 207.443 -4.68093 0.0259748 0
M  V30 2134 H 207.616 -6.47357 0.288582 0
M  V30 2135 N 201.022 0.148545 -1.56898 0
M  V30 2136 C 201.969 1.18345 -1.98149 0
M  V30 2137 C 202.939 1.42772 -0.848848 0
M  V30 2138 O 204.124 1.55132 -1.11079 0
M  V30 2139 C 201.264 2.51231 -2.36594 0
M  V30 2140 C 200.377 2.33991 -3.63142 0
M  V30 2141 C 199.512 3.59902 -3.90697 0
M  V30 2142 C 198.551 3.37692 -5.1052 0
M  V30 2143 N 197.688 4.5573 -5.34092 0
M  V30 2144 H 202.528 0.82467 -2.86362 0
M  V30 2145 H 200.065 0.395756 -1.41676 0
M  V30 2146 H 202.023 3.28713 -2.56912 0
M  V30 2147 H 200.653 2.85059 -1.51463 0
M  V30 2148 H 199.705 1.47572 -3.50609 0
M  V30 2149 H 201.017 2.13539 -4.5078 0
M  V30 2150 H 200.171 4.45813 -4.11505 0
M  V30 2151 H 198.91 3.83357 -3.01477 0
M  V30 2152 H 197.915 2.5017 -4.89587 0
M  V30 2153 H 199.14 3.15637 -6.0129 0
M  V30 2154 H 197.086 4.79361 -4.47827 0
M  V30 2155 H 197.003 4.38274 -6.15996 0
M  V30 2156 H 198.271 5.42858 -5.59397 0
M  V30 2157 N 202.5 1.5196 0.417844 0
M  V30 2158 C 203.728 1.69426 1.18753 0
M  V30 2159 C 204.143 0.399955 1.84515 0
M  V30 2160 O 203.5 -0.623288 1.71527 0
M  V30 2161 C 203.551 2.82375 2.25714 0
M  V30 2162 O 203.272 4.06793 1.62638 0
M  V30 2163 C 204.773 3.11277 3.15628 0
M  V30 2164 H 201.993 0.568031 0.357186 0
M  V30 2165 H 204.537 1.98475 0.49273 0
M  V30 2166 H 202.692 2.5587 2.90877 0
M  V30 2167 H 203.106 4.69667 2.3348 0
M  V30 2168 H 204.58 3.93843 3.86771 0
M  V30 2169 H 205.057 2.24473 3.77503 0
M  V30 2170 H 205.663 3.39515 2.56144 0
M  V30 2171 N 203.978 -0.674533 1.42435 0
M  V30 2172 C 205.225 -1.43459 1.42919 0
M  V30 2173 C 205.553 -1.94446 0.0457312 0
M  V30 2174 O 204.808 -1.7132 -0.94593 0
M  V30 2175 C 205.107 -2.64767 2.40069 0
M  V30 2176 C 204.773 -2.3232 3.86443 0
M  V30 2177 C 203.435 -2.23182 4.26314 0
M  V30 2178 C 205.787 -2.05977 4.78773 0
M  V30 2179 C 203.115 -1.85827 5.56494 0
M  V30 2180 C 205.467 -1.70125 6.09295 0
M  V30 2181 C 204.131 -1.59498 6.48164 0
M  V30 2182 H 203.401 -0.524952 0.522978 0
M  V30 2183 H 206.048 -0.769097 1.75377 0
M  V30 2184 H 204.353 -3.36349 2.00939 0
M  V30 2185 H 206.05 -3.22949 2.37707 0
M  V30 2186 H 202.64 -2.40334 3.54877 0
M  V30 2187 H 206.824 -2.11969 4.48757 0
M  V30 2188 H 202.08 -1.76168 5.8547 0
M  V30 2189 H 206.254 -1.48767 6.80324 0
M  V30 2190 H 203.881 -1.30322 7.48946 0
M  V30 2191 N 205.456 -1.28612 -0.910864 0
M  V30 2192 C 206.404 -1.1265 -2.03501 0
M  V30 2193 C 207.398 -0.0450054 -1.6934 0
M  V30 2194 O 208.604 -0.203988 -1.7884 0
M  V30 2195 H 204.979 -0.347639 -0.666822 0
M  V30 2196 H 206.95 -2.07849 -2.14106 0
M  V30 2197 C 205.699 -0.808143 -3.38178 0
M  V30 2198 H 205.022 -1.63231 -3.6496 0
M  V30 2199 H 206.462 -0.736426 -4.17556 0
M  V30 2200 C 204.921 0.488226 -3.33344 0
M  V30 2201 O 205.451 1.51766 -3.71927 0
M  V30 2202 N 203.657 0.490009 -2.86439 0
M  V30 2203 H 203.204 -0.348161 -2.55236 0
M  V30 2204 H 203.162 1.35741 -2.83587 0
M  V30 2205 N 206.934 1.1197 -1.10907 0
M  V30 2206 C 208.183 1.82947 -0.849302 0
M  V30 2207 C 208.496 1.85275 0.627112 0
M  V30 2208 O 209.702 2.52296 1.00295 0
M  V30 2209 C 208.158 3.28529 -1.46959 0
M  V30 2210 C 207.766 3.34546 -2.97965 0
M  V30 2211 C 209.51 4.04443 -1.28942 0
M  V30 2212 C 207.417 4.74491 -3.53004 0
M  V30 2213 H 206.347 0.685477 -0.314065 0
M  V30 2214 H 208.998 1.2604 -1.33365 0
M  V30 2215 H 207.38 3.85333 -0.912917 0
M  V30 2216 H 208.554 2.87654 -3.59989 0
M  V30 2217 H 206.869 2.72108 -3.15192 0
M  V30 2218 H 209.466 5.07787 -1.67502 0
M  V30 2219 H 209.809 4.15656 -0.231456 0
M  V30 2220 H 210.342 3.5401 -1.81443 0
M  V30 2221 H 207.081 4.68474 -4.58489 0
M  V30 2222 H 206.601 5.21816 -2.9575 0
M  V30 2223 H 208.28 5.4344 -3.51115 0
M  V30 2224 N 208.412 0.89855 1.29475 0
M  V30 2225 C 209.359 0.373819 2.27753 0
M  V30 2226 C 210.329 -0.543444 1.56958 0
M  V30 2227 O 211.514 -0.468934 1.84948 0
M  V30 2228 C 208.654 -0.393648 3.42848 0
M  V30 2229 C 207.767 0.554379 4.28428 0
M  V30 2230 C 206.902 -0.230026 5.30702 0
M  V30 2231 C 205.941 0.712599 6.07938 0
M  V30 2232 N 205.078 -0.0373283 7.0209 0
M  V30 2233 H 209.918 1.21699 2.72017 0
M  V30 2234 H 207.455 0.611456 1.33789 0
M  V30 2235 H 209.413 -0.85466 4.08352 0
M  V30 2236 H 208.043 -1.20128 2.99615 0
M  V30 2237 H 207.095 1.13391 3.63107 0
M  V30 2238 H 208.407 1.27597 4.82204 0
M  V30 2239 H 207.561 -0.752288 6.02018 0
M  V30 2240 H 206.3 -0.984758 4.77654 0
M  V30 2241 H 205.305 1.24637 5.35486 0
M  V30 2242 H 206.53 1.46664 6.63074 0
M  V30 2243 H 204.476 -0.774348 6.51414 0
M  V30 2244 H 204.393 0.624374 7.53417 0
M  V30 2245 H 205.661 -0.539891 7.77628 0
M  V30 2246 N 209.89 -1.43072 0.660911 0
M  V30 2247 C 210.838 -2.32569 -0.0378199 0
M  V30 2248 C 211.832 -1.49046 -0.805092 0
M  V30 2249 O 213.038 -1.65206 -0.714624 0
M  V30 2250 H 209.413 -0.75136 -0.031019 0
M  V30 2251 H 211.384 -2.89216 0.734609 0
M  V30 2252 C 210.133 -3.33453 -0.985124 0
M  V30 2253 H 209.456 -3.97752 -0.404147 0
M  V30 2254 H 210.896 -3.98691 -1.44297 0
M  V30 2255 C 209.355 -2.64642 -2.08486 0
M  V30 2256 O 209.885 -2.46776 -3.16961 0
M  V30 2257 N 208.091 -2.23891 -1.8526 0
M  V30 2258 H 207.638 -2.38621 -0.970449 0
M  V30 2259 H 207.596 -1.78181 -2.59034 0
M  V30 2260 N 211.368 -0.403325 -1.52352 0
M  V30 2261 C 212.645 0.232611 -1.94212 0
M  V30 2262 C 213.025 1.63133 -1.33981 0
M  V30 2263 O 212.373 2.22659 -0.513344 0
M  V30 2264 C 212.583 0.244811 -3.4814 0
M  V30 2265 C 213.931 0.46698 -4.22024 0
M  V30 2266 O 214.955 0.324419 -3.5472 0
M  V30 2267 O 213.814 0.74747 -5.41364 0
M  V30 2268 H 210.908 0.148223 -0.813609 0
M  V30 2269 H 213.454 -0.458848 -1.63379 0
M  V30 2270 H 212.226 -0.734378 -3.84347 0
M  V30 2271 H 211.849 0.980611 -3.85318 0
M  V30 2272 N 212.846 1.57033 -0.133567 0
M  V30 2273 C 214.093 1.95686 0.520877 0
M  V30 2274 C 214.421 1.0177 1.6575 0
M  V30 2275 O 213.676 0.0443195 1.9565 0
M  V30 2276 C 213.975 3.40674 1.08057 0
M  V30 2277 C 213.641 4.50855 0.0637899 0
M  V30 2278 C 212.303 4.80716 -0.215757 0
M  V30 2279 C 214.655 5.17398 -0.62835 0
M  V30 2280 C 211.983 5.74433 -1.19348 0
M  V30 2281 C 214.335 6.12167 -1.5948 0
M  V30 2282 C 212.999 6.40414 -1.88218 0
M  V30 2283 H 212.269 0.716067 0.190602 0
M  V30 2284 H 214.916 1.9026 -0.217556 0
M  V30 2285 H 213.221 3.42865 1.89606 0
M  V30 2286 H 214.918 3.67902 1.59529 0
M  V30 2287 H 211.508 4.27605 0.291855 0
M  V30 2288 H 215.692 4.94472 -0.425562 0
M  V30 2289 H 210.948 5.94616 -1.42272 0
M  V30 2290 H 215.122 6.6281 -2.13671 0
M  V30 2291 H 212.749 7.12838 -2.64133 0
M  V30 2292 N 214.325 -0.140222 1.56975 0
M  V30 2293 C 215.553 -0.866437 1.87884 0
M  V30 2294 C 215.968 -1.74428 0.722517 0
M  V30 2295 O 215.325 -1.79891 -0.30749 0
M  V30 2296 C 215.376 -1.71753 3.18093 0
M  V30 2297 O 215.097 -0.875056 4.29272 0
M  V30 2298 C 216.598 -2.55074 3.62563 0
M  V30 2299 H 213.818 -0.25019 0.622612 0
M  V30 2300 H 216.362 -0.130977 2.0408 0
M  V30 2301 H 214.517 -2.40598 3.03631 0
M  V30 2302 H 214.931 -1.46002 5.03769 0
M  V30 2303 H 216.405 -3.10356 4.5649 0
M  V30 2304 H 216.882 -3.31434 2.88181 0
M  V30 2305 H 217.488 -1.91509 3.79743 0
M  V30 2306 N 215.803 -1.52179 -0.40978 0
M  V30 2307 C 216.713 -1.78364 -1.52392 0
M  V30 2308 C 217.729 -0.669183 -1.60617 0
M  V30 2309 O 218.905 -0.954518 -1.77344 0
M  V30 2310 C 215.97 -1.92822 -2.88133 0
M  V30 2311 C 215.031 -3.16725 -2.898 0
M  V30 2312 C 214.264 -3.30483 -4.19067 0
M  V30 2313 O 214.487 -2.49522 -5.12928 0
M  V30 2314 O 213.421 -4.2363 -4.27576 0
M  V30 2315 H 217.247 -2.72931 -1.33201 0
M  V30 2316 H 214.832 -1.37016 -0.59557 0
M  V30 2317 H 216.714 -2.04157 -3.68643 0
M  V30 2318 H 215.389 -1.01444 -3.07393 0
M  V30 2319 H 214.296 -3.10848 -2.08146 0
M  V30 2320 H 215.629 -4.07881 -2.75489 0
M  V30 2321 N 217.281 0.66697 -1.42791 0
M  V30 2322 C 218.191 1.80962 -1.49299 0
M  V30 2323 C 219.207 1.69775 -0.381108 0
M  V30 2324 O 220.383 1.91188 -0.633188 0
M  V30 2325 C 217.448 3.17156 -1.40045 0
M  V30 2326 C 216.509 3.40242 -2.6179 0
M  V30 2327 C 215.742 4.69939 -2.52969 0
M  V30 2328 O 215.965 5.48372 -1.56985 0
M  V30 2329 O 214.899 4.94441 -3.43237 0
M  V30 2330 H 218.725 1.78427 -2.45759 0
M  V30 2331 H 216.31 0.823713 -1.24641 0
M  V30 2332 H 218.192 3.98413 -1.37276 0
M  V30 2333 H 216.867 3.20312 -0.467138 0
M  V30 2334 H 215.774 2.58802 -2.70134 0
M  V30 2335 H 217.107 3.41923 -3.54047 0
M  V30 2336 N 218.759 1.29093 0.90403 0
M  V30 2337 C 219.669 1.15727 2.0407 0
M  V30 2338 C 220.685 0.0815308 1.73809 0
M  V30 2339 O 221.861 0.292749 1.99261 0
M  V30 2340 C 218.926 0.830424 3.36608 0
M  V30 2341 C 217.987 1.98955 3.80415 0
M  V30 2342 C 217.22 1.6782 5.06628 0
M  V30 2343 O 217.443 0.597105 5.67266 0
M  V30 2344 O 216.377 2.52486 5.46383 0
M  V30 2345 H 220.203 2.11171 2.18267 0
M  V30 2346 H 217.788 1.08504 1.027 0
M  V30 2347 H 219.67 0.662521 4.16159 0
M  V30 2348 H 218.345 -0.0942678 3.23563 0
M  V30 2349 H 217.252 2.21267 3.01648 0
M  V30 2350 H 218.585 2.89529 3.98037 0
M  V30 2351 N 220.237 -1.11381 1.11499 0
M  V30 2352 C 221.147 -2.21019 0.786628 0
M  V30 2353 C 222.163 -1.72597 -0.220507 0
M  V30 2354 O 223.339 -2.01321 -0.0565251 0
M  V30 2355 C 220.404 -3.459 0.235333 0
M  V30 2356 C 219.465 -4.09107 1.30115 0
M  V30 2357 C 218.698 -5.28027 0.776068 0
M  V30 2358 O 218.921 -5.6904 -0.393661 0
M  V30 2359 O 217.855 -5.81835 1.54114 0
M  V30 2360 H 221.681 -2.51521 1.70209 0
M  V30 2361 H 219.266 -1.19928 0.890928 0
M  V30 2362 H 221.148 -4.21346 -0.067715 0
M  V30 2363 H 219.823 -3.17049 -0.652828 0
M  V30 2364 H 218.73 -3.35391 1.65722 0
M  V30 2365 H 220.063 -4.42139 2.16273 0
M  V30 2366 N 221.715 -0.905404 -1.28997 0
M  V30 2367 C 222.678 -0.392253 -2.25819 0
M  V30 2368 C 223.678 0.476753 -1.5357 0
M  V30 2369 O 224.868 0.280994 -1.71919 0
M  V30 2370 C 222 0.438588 -3.38067 0
M  V30 2371 H 223.193 -1.24743 -2.72725 0
M  V30 2372 H 220.746 -0.684051 -1.40536 0
M  V30 2373 H 221.481 1.31352 -2.96508 0
M  V30 2374 H 221.266 -0.184167 -3.91667 0
M  V30 2375 H 222.756 0.78873 -4.10084 0
M  V30 2376 N 223.193 1.4272 -0.668489 0
M  V30 2377 C 224.125 2.2914 0.052613 0
M  V30 2378 C 225.138 1.43339 0.771857 0
M  V30 2379 O 226.327 1.67123 0.627067 0
M  V30 2380 C 223.427 3.20618 1.09804 0
M  V30 2381 C 222.6 4.35039 0.45389 0
M  V30 2382 C 221.659 5.07282 1.39825 0
M  V30 2383 O 220.685 5.62024 0.900978 0
M  V30 2384 N 221.887 5.12206 2.73176 0
M  V30 2385 H 224.652 2.91668 -0.689209 0
M  V30 2386 H 222.213 1.53577 -0.512422 0
M  V30 2387 H 224.205 3.65815 1.73094 0
M  V30 2388 H 222.775 2.59585 1.74167 0
M  V30 2389 H 221.995 3.92567 -0.358396 0
M  V30 2390 H 223.283 5.088 0.00486972 0
M  V30 2391 H 222.681 4.6913 3.16122 0
M  V30 2392 H 221.238 5.61069 3.31729 0
M  V30 2393 N 224.671 0.411399 1.52136 0
M  V30 2394 C 225.917 -0.163888 2.02137 0
M  V30 2395 C 226.25 -1.44597 1.29636 0
M  V30 2396 O 225.525 -1.90272 0.403353 0
M  V30 2397 C 225.808 -0.40927 3.57767 0
M  V30 2398 C 225.661 0.889643 4.40914 0
M  V30 2399 C 226.98 -1.19042 4.23694 0
M  V30 2400 H 224.099 -0.0580896 0.734707 0
M  V30 2401 H 226.741 0.54531 1.82007 0
M  V30 2402 H 224.891 -1.0134 3.7505 0
M  V30 2403 H 226.563 1.52575 4.35337 0
M  V30 2404 H 224.806 1.50011 4.07037 0
M  V30 2405 H 225.477 0.672314 5.4789 0
M  V30 2406 H 227.953 -0.678942 4.10524 0
M  V30 2407 H 226.829 -1.33086 5.32522 0
M  V30 2408 H 227.09 -2.21166 3.82803 0
M  V30 2409 N 226.149 -1.5696 0.141893 0
M  V30 2410 C 227.565 -1.58151 -0.21456 0
M  V30 2411 C 227.765 -1.1559 -1.65049 0
M  V30 2412 O 226.821 -0.853832 -2.37626 0
M  V30 2413 C 228.134 -3.00674 0.0395576 0
M  V30 2414 C 229.682 -3.1299 -0.0245529 0
M  V30 2415 C 230.157 -4.57554 0.202167 0
M  V30 2416 N 231.648 -4.62961 0.148919 0
M  V30 2417 C 232.383 -5.7262 0.298924 0
M  V30 2418 N 231.879 -6.90947 0.50637 0
M  V30 2419 N 233.672 -5.61601 0.236886 0
M  V30 2420 H 225.823 -1.8292 1.07953 0
M  V30 2421 H 228.086 -0.846425 0.42693 0
M  V30 2422 H 227.792 -3.36183 1.03315 0
M  V30 2423 H 227.666 -3.70981 -0.682143 0
M  V30 2424 H 230.053 -2.77326 -1.00869 0
M  V30 2425 H 230.134 -2.4518 0.729396 0
M  V30 2426 H 229.778 -4.93922 1.18338 0
M  V30 2427 H 229.708 -5.23484 -0.572044 0
M  V30 2428 H 232.199 -3.77899 -0.00697015 0
M  V30 2429 H 232.512 -7.7038 0.611076 0
M  V30 2430 H 230.857 -6.92878 0.542628 0
M  V30 2431 H 234.048 -4.68039 0.0756209 0
M  V30 2432 H 234.221 -6.47015 0.357227 0
M  V30 2433 N 227.627 0.131896 -1.57047 0
M  V30 2434 C 228.574 1.16236 -1.99393 0
M  V30 2435 C 229.544 1.41863 -0.863943 0
M  V30 2436 O 230.729 1.53946 -1.12718 0
M  V30 2437 C 227.869 2.48708 -2.39245 0
M  V30 2438 C 226.982 2.30127 -3.65603 0
M  V30 2439 C 226.117 3.55738 -3.94492 0
M  V30 2440 C 225.156 3.32259 -5.14073 0
M  V30 2441 N 224.293 4.50039 -5.38896 0
M  V30 2442 H 229.133 0.794251 -2.87221 0
M  V30 2443 H 226.67 0.380707 -1.42088 0
M  V30 2444 H 228.628 3.25969 -2.60384 0
M  V30 2445 H 227.258 2.83437 -1.54478 0
M  V30 2446 H 226.31 1.43845 -3.52154 0
M  V30 2447 H 227.622 2.08746 -4.5302 0
M  V30 2448 H 226.776 4.41423 -4.1621 0
M  V30 2449 H 225.515 3.80138 -3.05526 0
M  V30 2450 H 224.52 2.44963 -4.92212 0
M  V30 2451 H 225.745 3.09242 -6.04604 0
M  V30 2452 H 223.691 4.74584 -4.52886 0
M  V30 2453 H 223.608 4.31716 -6.2061 0
M  V30 2454 H 224.876 5.36895 -5.65123 0
M  V30 2455 N 229.106 1.52395 0.401703 0
M  V30 2456 C 230.016 1.7917 1.51444 0
M  V30 2457 C 231.032 0.677691 1.6026 0
M  V30 2458 O 232.208 0.963909 1.76835 0
M  V30 2459 C 229.273 1.94347 2.87107 0
M  V30 2460 C 228.334 3.18257 2.88116 0
M  V30 2461 C 227.567 3.32701 4.17308 0
M  V30 2462 O 227.79 2.52238 5.11598 0
M  V30 2463 O 226.724 4.25891 4.25324 0
M  V30 2464 H 230.55 2.73633 1.31752 0
M  V30 2465 H 228.135 1.3733 0.588296 0
M  V30 2466 H 230.017 2.06109 3.67555 0
M  V30 2467 H 228.692 1.03073 3.06851 0
M  V30 2468 H 227.599 3.11947 2.06494 0
M  V30 2469 H 228.932 4.09336 2.73322 0
M  V30 2470 N 230.584 -0.659388 1.43143 0
M  V30 2471 C 231.532 -1.79374 1.4808 0
M  V30 2472 C 232.526 -1.65639 0.354988 0
M  V30 2473 O 233.732 -1.7206 0.528704 0
M  V30 2474 H 230.107 -0.591705 0.4641 0
M  V30 2475 H 232.078 -1.72329 2.43609 0
M  V30 2476 C 230.827 -3.17606 1.41499 0
M  V30 2477 H 230.15 -3.28809 2.27431 0
M  V30 2478 H 231.59 -3.96951 1.49015 0
M  V30 2479 C 230.049 -3.36642 0.131765 0
M  V30 2480 O 230.579 -3.93461 -0.809386 0
M  V30 2481 N 228.785 -2.90567 0.0439396 0
M  V30 2482 H 228.332 -2.44513 0.810619 0
M  V30 2483 H 228.29 -3.03681 -0.813969 0
M  V30 2484 N 232.062 -1.29571 -0.897171 0
M  V30 2485 C 232.994 -1.10724 -2.00681 0
M  V30 2486 C 234.007 -0.0540026 -1.6271 0
M  V30 2487 O 235.196 -0.298783 -1.75982 0
M  V30 2488 C 232.296 -0.663912 -3.32333 0
M  V30 2489 C 231.469 -1.79622 -3.98816 0
M  V30 2490 C 230.528 -1.34349 -5.0876 0
M  V30 2491 O 229.554 -2.04864 -5.31055 0
M  V30 2492 N 230.756 -0.215764 -5.80099 0
M  V30 2493 H 233.521 -2.06291 -2.17403 0
M  V30 2494 H 231.082 -1.21544 -1.06951 0
M  V30 2495 H 233.074 -0.344295 -4.03233 0
M  V30 2496 H 231.644 0.199375 -3.11964 0
M  V30 2497 H 230.864 -2.28459 -3.21248 0
M  V30 2498 H 232.152 -2.55535 -4.39976 0
M  V30 2499 H 231.55 0.372091 -5.64475 0
M  V30 2500 H 230.107 0.0444707 -6.51785 0
M  V30 2501 N 233.54 1.10788 -1.12088 0
M  V30 2502 C 234.786 1.8313 -0.885148 0
M  V30 2503 C 235.141 1.8336 0.582839 0
M  V30 2504 O 234.434 1.28062 1.42516 0
M  V30 2505 C 234.628 3.29294 -1.38926 0
M  V30 2506 C 234.457 3.43302 -2.90472 0
M  V30 2507 C 233.227 3.55928 -3.58669 0
M  V30 2508 C 235.425 3.37014 -3.88492 0
M  V30 2509 N 233.407 3.58475 -4.98366 0
M  V30 2510 C 234.778 3.46263 -5.14298 0
M  V30 2511 C 236.833 3.20589 -3.80955 0
M  V30 2512 C 235.536 3.4078 -6.33452 0
M  V30 2513 C 237.562 3.16427 -4.99628 0
M  V30 2514 C 236.924 3.26253 -6.2429 0
M  V30 2515 H 233.023 0.685054 -0.377128 0
M  V30 2516 H 235.607 1.3251 -1.4265 0
M  V30 2517 H 233.778 3.78416 -0.874999 0
M  V30 2518 H 235.51 3.89578 -1.09596 0
M  V30 2519 H 232.265 3.58779 -3.09151 0
M  V30 2520 H 232.689 3.6337 -5.71219 0
M  V30 2521 H 237.331 3.11873 -2.85474 0
M  V30 2522 H 235.049 3.48263 -7.29204 0
M  V30 2523 H 238.635 3.04874 -4.95523 0
M  V30 2524 H 237.515 3.2303 -7.14578 0
M  V30 2525 N 235.018 0.912232 1.28515 0
M  V30 2526 C 236.258 0.551677 1.96814 0
M  V30 2527 C 236.622 -0.887825 1.7024 0
M  V30 2528 O 237.823 -1.35588 2.32098 0
M  V30 2529 C 236.094 0.850555 3.47132 0
M  V30 2530 S 237.653 0.59619 4.34731 0
M  V30 2531 H 234.471 0.204191 0.681049 0
M  V30 2532 H 237.073 1.17736 1.56072 0
M  V30 2533 H 235.777 1.8962 3.63968 0
M  V30 2534 H 235.308 0.213471 3.9282 0
M  V30 2535 H 237.323 -0.553154 4.93107 0
M  V30 2536 N 236.496 -1.42363 0.676048 0
M  V30 2537 C 237.406 -2.346 -0.00153389 0
M  V30 2538 C 238.422 -1.5516 -0.787485 0
M  V30 2539 O 239.598 -1.87723 -0.729521 0
M  V30 2540 C 236.663 -3.33705 -0.940298 0
M  V30 2541 C 235.724 -4.29042 -0.148739 0
M  V30 2542 C 234.957 -5.23413 -1.04279 0
M  V30 2543 O 235.18 -5.22749 -2.28232 0
M  V30 2544 O 234.114 -5.99795 -0.502925 0
M  V30 2545 H 237.94 -2.94082 0.758268 0
M  V30 2546 H 235.525 -1.42888 0.436289 0
M  V30 2547 H 237.407 -3.94586 -1.47917 0
M  V30 2548 H 236.082 -2.76695 -1.67993 0
M  V30 2549 H 234.989 -3.71571 0.43427 0
M  V30 2550 H 236.322 -4.89097 0.551805 0
M  V30 2551 N 237.974 -0.419461 -1.51915 0
M  V30 2552 C 238.884 0.407528 -2.31033 0
M  V30 2553 C 239.9 1.04413 -1.3919 0
M  V30 2554 O 241.076 1.0434 -1.72265 0
M  V30 2555 C 238.141 1.50365 -3.12396 0
M  V30 2556 C 237.202 0.889029 -4.19994 0
M  V30 2557 C 236.435 1.93291 -4.97468 0
M  V30 2558 O 236.658 3.15259 -4.75361 0
M  V30 2559 O 235.592 1.53339 -5.8204 0
M  V30 2560 H 239.418 -0.237865 -3.02767 0
M  V30 2561 H 237.003 -0.182413 -1.48282 0
M  V30 2562 H 238.885 2.13975 -3.63032 0
M  V30 2563 H 237.56 2.13345 -2.43445 0
M  V30 2564 H 236.467 0.215353 -3.7348 0
M  V30 2565 H 237.8 0.302991 -4.91267 0
M  V30 2566 N 239.452 1.56882 -0.150215 0
M  V30 2567 C 240.399 2.16922 0.788244 0
M  V30 2568 C 241.369 1.10303 1.24187 0
M  V30 2569 O 242.554 1.38359 1.31383 0
M  V30 2570 C 239.694 2.79754 2.02068 0
M  V30 2571 C 238.807 4.00775 1.61257 0
M  V30 2572 C 237.942 4.51595 2.79705 0
M  V30 2573 C 236.981 5.65074 2.35282 0
M  V30 2574 N 236.118 6.10499 3.4675 0
M  V30 2575 H 240.958 2.96779 0.269444 0
M  V30 2576 H 238.495 1.46599 0.12128 0
M  V30 2577 H 240.453 3.14329 2.74323 0
M  V30 2578 H 239.083 2.02536 2.51354 0
M  V30 2579 H 238.135 3.72158 0.787553 0
M  V30 2580 H 239.447 4.82978 1.24633 0
M  V30 2581 H 238.601 4.88242 3.60145 0
M  V30 2582 H 237.34 3.68406 3.19576 0
M  V30 2583 H 236.345 5.28 1.53283 0
M  V30 2584 H 237.57 6.50052 1.96493 0
M  V30 2585 H 235.516 5.30243 3.86236 0
M  V30 2586 H 235.433 6.87637 3.14152 0
M  V30 2587 H 236.701 6.51791 4.27537 0
M  V30 2588 O 240.969 0.011717 1.61496 0
M  V30 2589 H 241.66 -0.603327 1.84064 0
M  V30 END ATOM
M  V30 BEGIN BOND
M  V30 END BOND
M  V30 END CTAB
M  END
$$$$
