drugbank_target|P30926 Neuronal acetylcholine receptor subunit beta-4 (DB00184; DB00472; DB00514; DB00898; DB01090; DB01227; DB07720)
 OpenBabel12092120343D

  0  0  0     0  0            999 V3000
M  V30 BEGIN CTAB
M  V30 COUNTS 7973 8081 0 0 0
M  V30 BEGIN ATOM
M  V30 1 H -0.908 1.98254 -0.117106 0
M  V30 2 N 0 1.576 0 0
M  V30 3 C 0.933 2.03868 1.02534 0
M  V30 4 C 1.911 0.928543 1.3348 0
M  V30 5 O 3.095 1.19667 1.45644 0
M  V30 6 C 0.222 2.43627 2.35294 0
M  V30 7 C -0.732 3.65373 2.2001 0
M  V30 8 S 0.101 5.13292 1.52614 0
M  V30 9 C 1.257 5.56322 2.86805 0
M  V30 10 H 1.49 2.90518 0.631377 0
M  V30 11 H -0.977 1.52953 0.210867 0
M  V30 12 H 0.981 2.67203 3.11629 0
M  V30 13 H -0.358 1.57376 2.7183 0
M  V30 14 H -1.165 3.90944 3.18086 0
M  V30 15 H -1.563 3.418 1.51819 0
M  V30 16 H 0.729 5.58782 3.83104 0
M  V30 17 H 1.672 6.56266 2.65933 0
M  V30 18 H 2.08 4.83886 2.90714 0
M  V30 19 N 1.4781 -0.272755 1.55222 0
M  V30 20 C 2.8941 -0.619959 1.47067 0
M  V30 21 C 3.0941 -1.895 0.684978 0
M  V30 22 O 2.1501 -2.51675 0.203931 0
M  V30 23 C 3.4631 -0.746693 2.91282 0
M  V30 24 C 5.0111 -0.840731 3.01497 0
M  V30 25 C 5.4861 -0.99924 4.46967 0
M  V30 26 N 6.9771 -1.06476 4.50796 0
M  V30 27 C 7.7121 -1.20621 5.6057 0
M  V30 28 N 7.2081 -1.31483 6.80209 0
M  V30 29 N 9.0011 -1.23733 5.48312 0
M  V30 30 H 1.1521 0.564606 2.04758 0
M  V30 31 H 3.4151 0.191177 0.928523 0
M  V30 32 H 3.1211 0.119753 3.51496 0
M  V30 33 H 2.9951 -1.6269 3.40311 0
M  V30 34 H 5.3821 -1.69764 2.41379 0
M  V30 35 H 5.4631 0.0640874 2.5572 0
M  V30 36 H 5.1071 -0.146984 5.07687 0
M  V30 37 H 5.0371 -1.91871 4.90401 0
M  V30 38 H 7.5281 -0.993196 3.64615 0
M  V30 39 H 7.8411 -1.42111 7.59621 0
M  V30 40 H 6.1861 -1.28487 6.8302 0
M  V30 41 H 9.3771 -1.14877 4.53785 0
M  V30 42 H 9.5501 -1.34412 6.33906 0
M  V30 43 N 2.9562 -1.48159 -0.537278 0
M  V30 44 C 4.3722 -1.34118 -0.865129 0
M  V30 45 C 4.5722 -0.346678 -1.98495 0
M  V30 46 O 3.6282 0.234715 -2.51407 0
M  V30 47 C 4.9412 -2.73963 -1.23954 0
M  V30 48 C 6.4892 -2.82397 -1.34984 0
M  V30 49 C 6.9642 -4.22928 -1.75772 0
M  V30 50 N 8.4552 -4.25566 -1.82887 0
M  V30 51 C 9.1902 -5.31235 -2.15817 0
M  V30 52 N 8.6862 -6.47189 -2.47222 0
M  V30 53 N 10.4792 -5.18624 -2.16761 0
M  V30 54 H 2.6302 -2.1144 0.201715 0
M  V30 55 H 4.8932 -0.947598 0.0275949 0
M  V30 56 H 4.5992 -3.48264 -0.490381 0
M  V30 57 H 4.4732 -3.0702 -2.19132 0
M  V30 58 H 6.8602 -2.08356 -2.08978 0
M  V30 59 H 6.9412 -2.5297 -0.379448 0
M  V30 60 H 6.5852 -4.97482 -1.02341 0
M  V30 61 H 6.5152 -4.49794 -2.73848 0
M  V30 62 H 9.0062 -3.41924 -1.60924 0
M  V30 63 H 9.3192 -7.23564 -2.71433 0
M  V30 64 H 7.6642 -6.50476 -2.44757 0
M  V30 65 H 10.8552 -4.27056 -1.91679 0
M  V30 66 H 11.0282 -6.01078 -2.42093 0
M  V30 67 N 4.4343 0.785586 -1.36625 0
M  V30 68 C 5.3973 1.87999 -1.31107 0
M  V30 69 C 6.3973 1.59316 -0.217959 0
M  V30 70 O 7.5873 1.67656 -0.472977 0
M  V30 71 C 4.7193 3.24861 -1.03334 0
M  V30 72 H 5.9123 1.94307 -2.2844 0
M  V30 73 H 3.4653 0.983813 -1.21453 0
M  V30 74 H 4.2003 3.24235 -0.0647432 0
M  V30 75 H 3.9853 3.4707 -1.82441 0
M  V30 76 H 5.4753 4.04929 -1.02088 0
M  V30 77 N 5.9124 1.20967 1.01018 0
M  V30 78 C 7.3234 1.02319 1.56165 0
M  V30 79 C 7.6744 -0.418546 1.91684 0
M  V30 80 O 6.7994 -1.30096 1.72928 0
M  V30 81 C 7.3944 1.85109 2.8376 0
M  V30 82 C 5.9534 1.70809 3.35412 0
M  V30 83 C 5.1004 1.82643 2.08655 0
M  V30 84 H 8.0514 1.35065 0.833255 0
M  V30 85 H 8.0724 1.35827 3.55431 0
M  V30 86 H 7.5844 2.90035 2.57878 0
M  V30 87 H 5.6854 0.685464 3.66241 0
M  V30 88 H 5.7984 2.52467 4.07182 0
M  V30 89 H 4.1624 1.25896 2.21409 0
M  V30 90 H 4.9454 2.89066 1.85191 0
M  V30 91 N 7.3905 -1.2043 1.01659 0
M  V30 92 C 8.6155 -1.94318 0.724942 0
M  V30 93 C 9.0405 -1.74266 -0.708034 0
M  V30 94 O 8.3985 -1.03694 -1.48719 0
M  V30 95 C 8.4465 -3.44486 1.06591 0
M  V30 96 O 7.5505 -4.12017 0.177599 0
M  V30 97 H 6.8915 -0.60708 0.26898 0
M  V30 98 H 9.4215 -1.52861 1.35995 0
M  V30 99 H 9.4315 -3.95106 1.01762 0
M  V30 100 H 8.1065 -3.58404 2.10997 0
M  V30 101 H 6.6835 -3.71821 0.283421 0
M  V30 102 N 8.8686 -0.792821 -1.36206 0
M  V30 103 C 9.7986 -0.207853 -2.32573 0
M  V30 104 C 10.7796 0.659055 -1.56813 0
M  V30 105 O 11.9646 0.592176 -1.84951 0
M  V30 106 C 9.0946 0.655449 -3.41059 0
M  V30 107 C 8.0486 -0.111842 -4.27854 0
M  V30 108 C 7.3746 0.872274 -5.27537 0
M  V30 109 C 8.6746 -1.30299 -5.05786 0
M  V30 110 H 10.3686 -1.01294 -2.81744 0
M  V30 111 H 7.9146 -0.48854 -1.3546 0
M  V30 112 H 9.8676 1.07464 -4.07467 0
M  V30 113 H 8.5916 1.49328 -2.90463 0
M  V30 114 H 7.2506 -0.512053 -3.63006 0
M  V30 115 H 6.8986 1.70523 -4.73214 0
M  V30 116 H 6.5986 0.363291 -5.86476 0
M  V30 117 H 8.1226 1.28996 -5.96818 0
M  V30 118 H 9.5366 -0.959379 -5.65216 0
M  V30 119 H 7.9336 -1.7455 -5.74154 0
M  V30 120 H 9.0036 -2.09663 -4.37229 0
M  V30 121 N 10.3467 1.47872 -0.545128 0
M  V30 122 C 11.5927 2.02793 -0.0166104 0
M  V30 123 C 11.9257 1.41987 1.32489 0
M  V30 124 O 11.2007 0.571045 1.85928 0
M  V30 125 C 11.4837 3.59989 0.0893294 0
M  V30 126 C 11.3367 4.3125 -1.27841 0
M  V30 127 C 12.6557 4.32606 0.808724 0
M  V30 128 H 9.7747 0.736962 -0.00751035 0
M  V30 129 H 12.4167 1.76433 -0.705085 0
M  V30 130 H 10.5667 3.82579 0.675681 0
M  V30 131 H 12.2387 4.20035 -1.90704 0
M  V30 132 H 10.4817 3.92076 -1.85632 0
M  V30 133 H 11.1527 5.39736 -1.15713 0
M  V30 134 H 13.6287 4.14936 0.310992 0
M  V30 135 H 12.5047 5.42251 0.851782 0
M  V30 136 H 12.7657 4.00963 1.86229 0
M  V30 137 N 11.8248 0.280983 1.55075 0
M  V30 138 C 12.7548 -0.597469 2.25727 0
M  V30 139 C 13.7358 -1.15417 1.24952 0
M  V30 140 O 14.9208 -1.18722 1.53684 0
M  V30 141 C 12.0508 -1.7789 2.98283 0
M  V30 142 C 11.0048 -1.35347 4.06036 0
M  V30 143 C 10.3308 -2.61846 4.66198 0
M  V30 144 C 11.6308 -0.499354 5.19907 0
M  V30 145 H 13.3248 -0.00824265 2.99399 0
M  V30 146 H 10.8708 -0.0025244 1.44 0
M  V30 147 H 12.8238 -2.39937 3.46422 0
M  V30 148 H 11.5478 -2.39405 2.22155 0
M  V30 149 H 10.2068 -0.756156 3.58717 0
M  V30 150 H 9.8548 -3.21632 3.86732 0
M  V30 151 H 9.5548 -2.3409 5.38958 0
M  V30 152 H 11.0788 -3.24732 5.1709 0
M  V30 153 H 12.4928 -1.02498 5.64063 0
M  V30 154 H 10.8898 -0.316424 5.99265 0
M  V30 155 H 11.9598 0.480459 4.82514 0
M  V30 156 N 13.3029 -1.57598 0.00835791 0
M  V30 157 C 14.5499 -1.90928 -0.674732 0
M  V30 158 C 14.8779 -0.88277 -1.73313 0
M  V30 159 O 14.1329 0.111294 -1.95383 0
M  V30 160 C 14.4319 -3.3101 -1.34787 0
M  V30 161 C 14.0979 -4.48922 -0.421861 0
M  V30 162 C 12.7599 -4.8091 -0.166927 0
M  V30 163 C 15.1119 -5.20755 0.215211 0
M  V30 164 C 12.4399 -5.821 0.733232 0
M  V30 165 C 14.7919 -6.22905 1.1033 0
M  V30 166 C 13.4559 -6.53346 1.36733 0
M  V30 167 H 12.7259 -0.698656 -0.246902 0
M  V30 168 H 15.3729 -1.91387 0.0656779 0
M  V30 169 H 13.6779 -3.26714 -2.16253 0
M  V30 170 H 15.3749 -3.54061 -1.8826 0
M  V30 171 H 11.9649 -4.23934 -0.630729 0
M  V30 172 H 16.1489 -4.9629 0.0312829 0
M  V30 173 H 11.4049 -6.04042 0.945712 0
M  V30 174 H 15.5789 -6.77694 1.60325 0
M  V30 175 H 13.2059 -7.31573 2.06652 0
M  V30 176 N 14.781 0.264519 -1.55364 0
M  V30 177 C 16.028 0.994986 -1.7637 0
M  V30 178 C 16.356 1.85976 -0.5695 0
M  V30 179 O 15.611 1.90509 0.44776 0
M  V30 180 C 15.91 1.9004 -3.02687 0
M  V30 181 C 15.576 1.19243 -4.34847 0
M  V30 182 C 14.238 0.996709 -4.70764 0
M  V30 183 C 16.59 0.689296 -5.16622 0
M  V30 184 C 13.918 0.285261 -5.86006 0
M  V30 185 C 16.27 -0.00860079 -6.32599 0
M  V30 186 C 14.934 -0.215963 -6.67151 0
M  V30 187 H 14.204 0.364091 -0.645383 0
M  V30 188 H 16.851 0.266543 -1.89636 0
M  V30 189 H 15.156 2.69533 -2.84357 0
M  V30 190 H 16.853 2.46695 -3.16137 0
M  V30 191 H 13.443 1.3549 -4.06621 0
M  V30 192 H 17.627 0.828108 -4.89342 0
M  V30 193 H 12.883 0.113961 -6.11294 0
M  V30 194 H 17.057 -0.406186 -6.95214 0
M  V30 195 H 14.684 -0.769217 -7.56298 0
M  V30 196 N 16.2591 1.48442 0.529413 0
M  V30 197 C 17.1891 1.65902 1.64313 0
M  V30 198 C 18.1701 0.507897 1.6234 0
M  V30 199 O 19.3551 0.740503 1.79528 0
M  V30 200 C 16.4851 1.69911 3.02898 0
M  V30 201 C 15.4391 2.8453 3.19729 0
M  V30 202 C 14.7651 2.73629 4.59381 0
M  V30 203 C 16.0651 4.25821 3.02447 0
M  V30 204 H 17.7591 2.5914 1.49955 0
M  V30 205 H 15.3051 1.24709 0.719982 0
M  V30 206 H 17.2581 1.80715 3.80684 0
M  V30 207 H 15.9821 0.732524 3.18279 0
M  V30 208 H 14.6411 2.73283 2.44361 0
M  V30 209 H 14.2891 1.74938 4.71599 0
M  V30 210 H 13.9891 3.50541 4.71588 0
M  V30 211 H 15.5131 2.86401 5.39265 0
M  V30 212 H 16.9271 4.37898 3.70024 0
M  V30 213 H 15.3241 5.03735 3.26146 0
M  V30 214 H 16.3941 4.42244 1.98867 0
M  V30 215 N 17.7372 -0.778329 1.37039 0
M  V30 216 C 18.9832 -1.53892 1.32079 0
M  V30 217 C 19.3162 -1.9396 -0.0965386 0
M  V30 218 O 18.5912 -1.63568 -1.05242 0
M  V30 219 C 18.8742 -2.80847 2.25382 0
M  V30 220 C 18.7272 -2.47076 3.75864 0
M  V30 221 C 20.0462 -3.82741 2.1725 0
M  V30 222 H 17.1652 -0.558303 0.48111 0
M  V30 223 H 19.8072 -0.893397 1.67685 0
M  V30 224 H 17.9572 -3.35931 1.95148 0
M  V30 225 H 19.6292 -1.97957 4.16666 0
M  V30 226 H 17.8722 -1.79863 3.94755 0
M  V30 227 H 18.5432 -3.37798 4.36574 0
M  V30 228 H 21.0192 -3.37133 2.43887 0
M  V30 229 H 19.8952 -4.69303 2.84686 0
M  V30 230 H 20.1562 -4.2652 1.16331 0
M  V30 231 N 19.2153 -1.21501 -1.00376 0
M  V30 232 C 20.1783 -0.976927 -2.07337 0
M  V30 233 C 21.1783 0.0525322 -1.60714 0
M  V30 234 O 22.3683 -0.184869 -1.73216 0
M  V30 235 C 19.5003 -0.473423 -3.37597 0
M  V30 236 H 20.6933 -1.92587 -2.29892 0
M  V30 237 H 18.2463 -1.03217 -1.17371 0
M  V30 238 H 18.9813 0.480379 -3.20722 0
M  V30 239 H 18.7663 -1.216 -3.72768 0
M  V30 240 H 20.2563 -0.32675 -4.1632 0
M  V30 241 N 20.6934 1.19889 -1.02296 0
M  V30 242 C 21.6234 2.25141 -0.619174 0
M  V30 243 C 22.6044 1.66051 0.368915 0
M  V30 244 O 23.7894 1.92546 0.252941 0
M  V30 245 C 20.9194 3.4728 0.0368783 0
M  V30 246 C 19.8734 4.19005 -0.872865 0
M  V30 247 C 19.1994 5.34637 -0.0822402 0
M  V30 248 C 20.4994 4.74452 -2.18387 0
M  V30 249 H 22.1934 2.59171 -1.49903 0
M  V30 250 H 19.7394 1.24579 -0.722222 0
M  V30 251 H 21.6924 4.20098 0.330958 0
M  V30 252 H 20.4164 3.12433 0.95149 0
M  V30 253 H 19.0754 3.48061 -1.15105 0
M  V30 254 H 18.7234 4.96034 0.83422 0
M  V30 255 H 18.4234 5.83557 -0.688149 0
M  V30 256 H 19.9474 6.10255 0.205238 0
M  V30 257 H 21.3614 5.39055 -1.95172 0
M  V30 258 H 19.7584 5.33834 -2.74119 0
M  V30 259 H 20.8284 3.92844 -2.84257 0
M  V30 260 N 22.1715 0.800033 1.35784 0
M  V30 261 C 23.4115 0.382891 2.00782 0
M  V30 262 C 23.7755 -1.02891 1.62103 0
M  V30 263 O 24.9765 -1.54771 2.19771 0
M  V30 264 C 23.2475 0.553299 3.53091 0
M  V30 265 S 24.8065 0.225608 4.3822 0
M  V30 266 H 21.6245 0.145737 0.695904 0
M  V30 267 H 24.2265 1.04085 1.65489 0
M  V30 268 H 22.9305 1.58091 3.78729 0
M  V30 269 H 22.4615 -0.120214 3.93216 0
M  V30 270 H 24.4765 -0.969074 4.86645 0
M  V30 271 N 23.6496 -1.47581 0.552962 0
M  V30 272 C 24.8976 -2.02082 0.0272703 0
M  V30 273 C 25.2186 -1.4301 -1.32563 0
M  V30 274 O 24.4886 -0.603745 -1.86365 0
M  V30 275 H 23.0686 -0.746966 0.00709182 0
M  V30 276 H 25.7306 -1.81033 0.722008 0
M  V30 277 H 24.8266 -3.12034 -0.0639951 0
M  V30 278 N 25.1277 -0.289203 -1.54924 0
M  V30 279 C 26.5437 0.0645403 -1.59469 0
M  V30 280 C 26.7437 1.53419 -1.30632 0
M  V30 281 O 25.7997 2.2852 -1.074 0
M  V30 282 C 27.1127 -0.32278 -2.98963 0
M  V30 283 C 28.6607 -0.270564 -3.11828 0
M  V30 284 C 29.1357 -0.632532 -4.53611 0
M  V30 285 N 30.6267 -0.584617 -4.59496 0
M  V30 286 C 31.3617 -0.837314 -5.67254 0
M  V30 287 N 30.8577 -1.15536 -6.83098 0
M  V30 288 N 32.6507 -0.765166 -5.56868 0
M  V30 289 H 24.8017 -1.24714 -1.71931 0
M  V30 290 H 27.0647 -0.504809 -0.802416 0
M  V30 291 H 26.7707 -1.34541 -3.24948 0
M  V30 292 H 26.6447 0.32944 -3.75759 0
M  V30 293 H 29.0317 0.742805 -2.85598 0
M  V30 294 H 29.1127 -0.957242 -2.37214 0
M  V30 295 H 28.7567 -1.64365 -4.80569 0
M  V30 296 H 28.6867 0.07609 -5.26545 0
M  V30 297 H 31.1777 -0.349248 -3.76283 0
M  V30 298 H 31.4907 -1.33447 -7.61191 0
M  V30 299 H 29.8357 -1.19328 -6.84679 0
M  V30 300 H 33.0267 -0.516432 -4.65243 0
M  V30 301 H 33.1997 -0.965477 -6.40767 0
M  V30 302 N 26.6058 1.57591 -0.0167156 0
M  V30 303 C 27.8538 1.90906 0.663285 0
M  V30 304 C 28.1748 0.892509 1.73376 0
M  V30 305 O 27.4448 -0.0677623 1.95783 0
M  V30 306 H 26.0248 0.704637 0.247983 0
M  V30 307 H 28.6868 1.94803 -0.0615909 0
M  V30 308 H 27.7828 2.9116 1.12393 0
M  V30 309 N 28.0839 -0.256276 1.55502 0
M  V30 310 C 29.0319 -1.33694 1.90338 0
M  V30 311 C 30.0259 -1.50299 0.781441 0
M  V30 312 O 31.2319 -1.51885 0.965966 0
M  V30 313 H 27.6069 -0.447483 0.60437 0
M  V30 314 H 29.5779 -1.01574 2.8058 0
M  V30 315 C 28.3269 -2.68724 2.20642 0
M  V30 316 H 27.6499 -2.56743 3.06469 0
M  V30 317 H 29.0899 -3.43237 2.48926 0
M  V30 318 C 27.5489 -3.21101 1.01959 0
M  V30 319 O 28.0789 -4.0084 0.262762 0
M  V30 320 N 26.2849 -2.79003 0.812746 0
M  V30 321 H 25.8319 -2.14271 1.42989 0
M  V30 322 H 25.7899 -3.14393 0.0203076 0
M  V30 323 N 29.562 -1.4872 -0.521534 0
M  V30 324 C 30.802 -1.58771 -1.28729 0
M  V30 325 C 31.166 -0.259394 -1.9024 0
M  V30 326 O 32.367 -0.234942 -2.67771 0
M  V30 327 C 30.638 -2.70039 -2.34124 0
M  V30 328 S 32.197 -2.9991 -3.20312 0
M  V30 329 H 29.015 -0.560251 -0.437767 0
M  V30 330 H 31.617 -1.86283 -0.593188 0
M  V30 331 H 30.321 -3.65101 -1.87429 0
M  V30 332 H 29.852 -2.44455 -3.08229 0
M  V30 333 H 31.867 -2.39855 -4.34378 0
M  V30 334 N 31.0401 0.771051 -1.3745 0
M  V30 335 C 32.4561 1.07171 -1.18265 0
M  V30 336 C 32.6561 2.01491 -0.019287 0
M  V30 337 O 31.7121 2.44244 0.640408 0
M  V30 338 C 33.0251 1.66854 -2.50161 0
M  V30 339 C 34.5731 1.79109 -2.56689 0
M  V30 340 C 35.0481 2.42205 -3.88717 0
M  V30 341 N 36.5391 2.49655 -3.90162 0
M  V30 342 C 37.2741 2.9933 -4.8907 0
M  V30 343 N 36.7701 3.49172 -5.98374 0
M  V30 344 N 38.5631 2.9821 -4.76474 0
M  V30 345 H 30.7141 0.144796 -2.11906 0
M  V30 346 H 32.9771 0.126863 -0.939473 0
M  V30 347 H 32.6831 1.05017 -3.35655 0
M  V30 348 H 32.5571 2.6614 -2.673 0
M  V30 349 H 34.9441 2.40077 -1.71601 0
M  V30 350 H 35.0251 0.785757 -2.43433 0
M  V30 351 H 34.6691 1.81875 -4.74219 0
M  V30 352 H 34.5991 3.43345 -3.99276 0
M  V30 353 H 37.0901 2.14383 -3.11205 0
M  V30 354 H 37.4031 3.8548 -6.69795 0
M  V30 355 H 35.7481 3.47275 -6.02018 0
M  V30 356 H 38.9391 2.58572 -3.90203 0
M  V30 357 H 39.1121 3.36613 -5.53711 0
M  V30 358 N 32.5182 1.22032 0.997298 0
M  V30 359 C 33.7642 1.04376 1.73878 0
M  V30 360 C 34.0972 -0.420716 1.89588 0
M  V30 361 O 33.3722 -1.31202 1.43583 0
M  V30 362 C 33.6552 1.75047 3.14691 0
M  V30 363 C 33.5082 3.29062 3.06656 0
M  V30 364 C 34.8272 1.49928 4.13775 0
M  V30 365 H 31.9462 0.380578 0.631133 0
M  V30 366 H 34.5882 1.50312 1.16217 0
M  V30 367 H 32.7382 1.35996 3.63919 0
M  V30 368 H 34.4102 3.7753 2.65083 0
M  V30 369 H 32.6532 3.58967 2.43568 0
M  V30 370 H 33.3242 3.73683 4.06282 0
M  V30 371 H 35.8002 1.83842 3.73285 0
M  V30 372 H 34.6762 2.01878 5.10428 0
M  V30 373 H 34.9372 0.430929 4.39995 0
M  V30 374 N 33.9963 -1.19345 1.0293 0
M  V30 375 C 34.9593 -2.20793 0.615069 0
M  V30 376 C 35.9593 -1.57553 -0.321533 0
M  V30 377 O 37.1493 -1.73862 -0.108483 0
M  V30 378 C 34.2813 -3.40754 -0.0999222 0
M  V30 379 H 35.4743 -2.58955 1.51269 0
M  V30 380 H 33.0273 -1.3303 0.820534 0
M  V30 381 H 33.7623 -3.0811 -1.01187 0
M  V30 382 H 33.5473 -3.87889 0.57309 0
M  V30 383 H 35.0373 -4.15898 -0.376645 0
M  V30 384 N 35.4744 -0.807222 -1.35358 0
M  V30 385 C 36.4224 -0.20614 -2.31685 0
M  V30 386 C 37.4164 0.644445 -1.56663 0
M  V30 387 O 38.6224 0.537538 -1.71786 0
M  V30 388 H 34.9974 -0.0479006 -0.750473 0
M  V30 389 H 36.9684 -1.03369 -2.79924 0
M  V30 390 C 35.7174 0.630212 -3.41941 0
M  V30 391 H 35.0404 -0.0149558 -3.99797 0
M  V30 392 H 36.4804 1.01716 -4.11619 0
M  V30 393 C 34.9394 1.79601 -2.85035 0
M  V30 394 O 35.4694 2.89351 -2.78637 0
M  V30 395 N 33.6754 1.60774 -2.42074 0
M  V30 396 H 33.2224 0.715009 -2.47478 0
M  V30 397 H 33.1804 2.38933 -2.04349 0
M  V30 398 N 36.9525 1.47285 -0.560781 0
M  V30 399 C 37.9155 2.28535 0.174488 0
M  V30 400 C 38.9155 1.37153 0.839388 0
M  V30 401 O 40.1055 1.59748 0.694702 0
M  V30 402 C 37.2375 3.16934 1.25561 0
M  V30 403 H 38.4305 2.95012 -0.539262 0
M  V30 404 H 35.9835 1.53034 -0.317865 0
M  V30 405 H 36.7185 2.55157 2.00164 0
M  V30 406 H 36.5035 3.8419 0.783604 0
M  V30 407 H 37.9935 3.78143 1.77193 0
M  V30 408 N 38.4306 0.297415 1.54768 0
M  V30 409 C 39.3406 -0.58983 2.27064 0
M  V30 410 C 40.3566 -1.15144 1.30453 0
M  V30 411 O 41.5326 -1.17699 1.63428 0
M  V30 412 C 38.5976 -1.74714 2.9946 0
M  V30 413 C 37.6586 -1.21997 4.11601 0
M  V30 414 C 36.8916 -2.32212 4.80535 0
M  V30 415 O 37.1146 -3.52036 4.48806 0
M  V30 416 O 36.0486 -1.99106 5.68014 0
M  V30 417 H 39.8746 -0.00348199 3.037 0
M  V30 418 H 37.4596 0.0640035 1.49263 0
M  V30 419 H 39.3416 -2.42147 3.44881 0
M  V30 420 H 38.0166 -2.32016 2.25722 0
M  V30 421 H 36.9236 -0.511458 3.70587 0
M  V30 422 H 38.2566 -0.692419 4.87305 0
M  V30 423 N 39.9087 -1.5758 0.0250728 0
M  V30 424 C 40.8187 -2.1343 -0.973905 0
M  V30 425 C 41.8347 -1.08556 -1.35984 0
M  V30 426 O 43.0107 -1.40592 -1.44207 0
M  V30 427 C 40.0757 -2.64703 -2.23904 0
M  V30 428 C 39.1367 -3.84276 -1.91391 0
M  V30 429 C 38.3697 -4.33095 -3.11873 0
M  V30 430 O 38.5927 -3.81107 -4.24398 0
M  V30 431 O 37.5267 -5.24984 -2.94406 0
M  V30 432 H 41.3527 -2.99057 -0.529036 0
M  V30 433 H 38.9377 -1.48118 -0.195288 0
M  V30 434 H 40.8197 -2.97769 -2.98181 0
M  V30 435 H 39.4947 -1.82161 -2.6758 0
M  V30 436 H 38.4017 -3.56143 -1.14511 0
M  V30 437 H 39.7347 -4.67968 -1.52534 0
M  V30 438 N 41.3868 0.248026 -1.55636 0
M  V30 439 C 42.3338 1.30707 -1.90222 0
M  V30 440 C 43.3038 1.47881 -0.756332 0
M  V30 441 O 44.4888 1.61883 -1.00988 0
M  V30 442 C 41.6288 2.65769 -2.20138 0
M  V30 443 C 40.7418 2.56612 -3.47526 0
M  V30 444 C 39.8768 3.8402 -3.67017 0
M  V30 445 C 38.9158 3.69476 -4.8801 0
M  V30 446 N 38.0528 4.88774 -5.04029 0
M  V30 447 H 42.8928 1.00512 -2.80538 0
M  V30 448 H 40.4298 0.485055 -1.38873 0
M  V30 449 H 42.3878 3.44386 -2.35487 0
M  V30 450 H 41.0178 2.94115 -1.33027 0
M  V30 451 H 40.0698 1.69571 -3.40514 0
M  V30 452 H 41.3818 2.41774 -4.36287 0
M  V30 453 H 40.5358 4.7108 -3.8232 0
M  V30 454 H 39.2748 4.01754 -2.76487 0
M  V30 455 H 38.2798 2.80799 -4.72686 0
M  V30 456 H 39.5048 3.53238 -5.8 0
M  V30 457 H 37.4508 5.0687 -4.16435 0
M  V30 458 H 37.3678 4.76562 -5.86877 0
M  V30 459 H 38.6358 5.77335 -5.23741 0
M  V30 460 N 42.8649 1.48995 0.513639 0
M  V30 461 C 43.7949 1.67636 1.62544 0
M  V30 462 C 44.7759 0.525087 1.61793 0
M  V30 463 O 45.9609 0.759502 1.78732 0
M  V30 464 C 43.0909 1.73114 3.01079 0
M  V30 465 C 42.0449 2.87905 3.16693 0
M  V30 466 C 41.3709 2.78486 4.56453 0
M  V30 467 C 42.6709 4.29005 2.97913 0
M  V30 468 H 44.3649 2.60716 1.47198 0
M  V30 469 H 41.9109 1.25465 0.706714 0
M  V30 470 H 43.8639 1.84742 3.78746 0
M  V30 471 H 42.5879 0.766241 3.17484 0
M  V30 472 H 41.2469 2.75859 2.41448 0
M  V30 473 H 40.8949 1.7993 4.69717 0
M  V30 474 H 40.5949 3.55523 4.67843 0
M  V30 475 H 42.1189 2.92104 5.36197 0
M  V30 476 H 43.5329 4.41798 3.65359 0
M  V30 477 H 41.9299 5.07166 3.20785 0
M  V30 478 H 42.9999 4.44329 1.94165 0
M  V30 479 N 44.343 -0.763751 1.37857 0
M  V30 480 C 45.276 -1.88486 1.28639 0
M  V30 481 C 46.254 -1.61757 0.165363 0
M  V30 482 O 47.438 -1.85391 0.340948 0
M  V30 483 C 44.565 -3.23884 0.990811 0
M  V30 484 C 43.611 -3.69514 2.12983 0
M  V30 485 S 44.444 -3.82244 3.75033 0
M  V30 486 C 45.6 -5.20477 3.47641 0
M  V30 487 H 45.833 -1.96017 2.23527 0
M  V30 488 H 43.366 -0.925684 1.23574 0
M  V30 489 H 45.324 -4.02081 0.827101 0
M  V30 490 H 43.985 -3.14044 0.0592832 0
M  V30 491 H 43.178 -4.67696 1.87821 0
M  V30 492 H 42.78 -2.98441 2.25408 0
M  V30 493 H 45.072 -6.05905 3.03125 0
M  V30 494 H 46.015 -5.50655 4.4518 0
M  V30 495 H 46.423 -4.88793 2.82385 0
M  V30 496 N 45.8211 -1.22559 -0.990812 0
M  V30 497 C 47.0981 -0.959875 -1.70428 0
M  V30 498 C 47.4781 0.524455 -2.04481 0
M  V30 499 O 46.8261 1.49302 -1.72977 0
M  V30 500 C 47.0361 -1.85955 -2.95333 0
M  V30 501 C 48.3841 -2.11687 -3.68068 0
M  V30 502 O 49.4081 -1.8342 -3.05345 0
M  V30 503 O 48.2671 -2.59572 -4.80921 0
M  V30 504 H 45.3611 -0.361154 -0.743974 0
M  V30 505 H 47.9071 -1.33554 -1.04697 0
M  V30 506 H 46.6791 -2.86346 -2.66687 0
M  V30 507 H 46.3021 -1.4856 -3.68803 0
M  V30 508 N 47.2992 1.18797 -1.03562 0
M  V30 509 C 48.5762 1.84469 -0.650434 0
M  V30 510 C 48.9562 1.92319 0.870433 0
M  V30 511 O 48.3042 1.44528 1.76986 0
M  V30 512 C 48.5142 3.2306 -1.32036 0
M  V30 513 C 49.8622 3.9915 -1.44792 0
M  V30 514 O 50.8862 3.32481 -1.27806 0
M  V30 515 O 49.7452 5.18587 -1.72423 0
M  V30 516 H 46.8392 0.795251 -0.226946 0
M  V30 517 H 49.3852 1.26231 -1.13419 0
M  V30 518 H 48.1572 3.1222 -2.3587 0
M  V30 519 H 47.7802 3.88949 -0.8249 0
M  V30 520 N 48.7773 0.814389 1.34928 0
M  V30 521 C 49.7073 0.244827 2.32213 0
M  V30 522 C 50.6883 -0.634024 1.57842 0
M  V30 523 O 51.8733 -0.562676 1.8587 0
M  V30 524 C 49.0033 -0.601106 3.42058 0
M  V30 525 C 47.9573 0.179896 4.27622 0
M  V30 526 C 47.2833 -0.788237 5.28858 0
M  V30 527 C 48.5833 1.38329 5.03649 0
M  V30 528 H 50.2773 1.05763 2.80097 0
M  V30 529 H 47.8233 0.510029 1.34665 0
M  V30 530 H 49.7763 -1.00968 4.09125 0
M  V30 531 H 48.5003 -1.44688 2.92802 0
M  V30 532 H 47.1593 0.569739 3.62146 0
M  V30 533 H 46.8073 -1.62973 4.75866 0
M  V30 534 H 46.5073 -0.269942 5.8698 0
M  V30 535 H 48.0313 -1.19485 5.98795 0
M  V30 536 H 49.4453 1.04918 5.63618 0
M  V30 537 H 47.8423 1.83662 5.71304 0
M  V30 538 H 48.9123 2.16592 4.33839 0
M  V30 539 N 50.2554 -1.46986 0.568584 0
M  V30 540 C 51.1854 -2.32946 -0.160753 0
M  V30 541 C 52.1664 -1.44487 -0.897631 0
M  V30 542 O 53.3514 -1.73327 -0.875867 0
M  V30 543 C 50.4814 -3.26494 -1.18403 0
M  V30 544 C 49.4354 -4.24282 -0.562895 0
M  V30 545 C 48.7614 -5.07236 -1.69163 0
M  V30 546 C 50.0614 -5.19989 0.490761 0
M  V30 547 H 51.7554 -2.94175 0.556916 0
M  V30 548 H 49.3014 -1.4146 0.26927 0
M  V30 549 H 51.2544 -3.85477 -1.70251 0
M  V30 550 H 49.9784 -2.63343 -1.93179 0
M  V30 551 H 48.6374 -3.66541 -0.0656164 0
M  V30 552 H 48.2854 -4.4048 -2.42871 0
M  V30 553 H 47.9854 -5.7345 -1.28174 0
M  V30 554 H 49.5094 -5.6908 -2.21314 0
M  V30 555 H 50.9234 -5.73271 0.0579047 0
M  V30 556 H 49.3204 -5.94469 0.820165 0
M  V30 557 H 50.3904 -4.64777 1.3824 0
M  V30 558 N 51.7335 -0.305618 -1.54608 0
M  V30 559 C 52.6815 0.584119 -2.25146 0
M  V30 560 C 53.6755 1.13326 -1.25911 0
M  V30 561 O 54.8815 1.08337 -1.43747 0
M  V30 562 H 51.2565 0.206983 -0.722954 0
M  V30 563 H 53.2275 -0.033291 -2.98381 0
M  V30 564 C 51.9765 1.74225 -3.009 0
M  V30 565 H 51.2995 1.32892 -3.77067 0
M  V30 566 H 52.7395 2.34077 -3.53531 0
M  V30 567 C 51.1985 2.64914 -2.0814 0
M  V30 568 O 51.7285 3.66137 -1.65246 0
M  V30 569 N 49.9345 2.3275 -1.74 0
M  V30 570 H 49.4815 1.50479 -2.09078 0
M  V30 571 H 49.4395 2.93694 -1.12211 0
M  V30 572 N 53.2116 1.57565 -0.0334293 0
M  V30 573 C 54.1586 2.10478 0.946981 0
M  V30 574 C 55.1286 1.00787 1.32027 0
M  V30 575 O 56.3136 1.28232 1.41284 0
M  V30 576 C 53.4536 2.63994 2.22263 0
M  V30 577 C 52.5666 3.87709 1.90541 0
M  V30 578 C 51.7016 4.29604 3.12433 0
M  V30 579 C 50.7406 5.46065 2.76549 0
M  V30 580 N 49.8776 5.83096 3.9108 0
M  V30 581 H 54.7176 2.93963 0.488846 0
M  V30 582 H 52.2546 1.45296 0.22969 0
M  V30 583 H 54.2126 2.93114 2.96884 0
M  V30 584 H 52.8426 1.83333 2.65685 0
M  V30 585 H 51.8946 3.65291 1.06144 0
M  V30 586 H 53.2066 4.72403 1.60116 0
M  V30 587 H 52.3606 4.60182 3.9537 0
M  V30 588 H 51.0996 3.43685 3.46023 0
M  V30 589 H 50.1046 5.15176 1.92026 0
M  V30 590 H 51.3296 6.33685 2.44171 0
M  V30 591 H 49.2756 5.00132 4.24504 0
M  V30 592 H 49.1926 6.6244 3.64293 0
M  V30 593 H 50.4606 6.18282 4.74708 0
M  V30 594 N 54.6897 -0.239769 1.55765 0
M  V30 595 C 55.9177 -0.98417 1.81994 0
M  V30 596 C 56.3327 -1.7867 0.610124 0
M  V30 597 O 55.6897 -1.77571 -0.421271 0
M  V30 598 C 55.7407 -1.91635 3.06526 0
M  V30 599 O 55.4617 -1.14629 4.22838 0
M  V30 600 C 56.9627 -2.77616 3.45607 0
M  V30 601 H 54.1827 -0.28928 0.605441 0
M  V30 602 H 56.7267 -0.260499 2.02834 0
M  V30 603 H 54.8817 -2.5942 2.87715 0
M  V30 604 H 55.2957 -1.77745 4.93464 0
M  V30 605 H 56.7697 -3.38759 4.35828 0
M  V30 606 H 57.2467 -3.4909 2.6652 0
M  V30 607 H 57.8527 -2.15271 3.66795 0
M  V30 608 N 56.1678 -1.49265 -0.50573 0
M  V30 609 C 57.5838 -1.35923 -0.836486 0
M  V30 610 C 57.7838 -0.388704 -1.97715 0
M  V30 611 O 56.8398 0.181336 -2.51848 0
M  V30 612 C 58.1528 -2.76531 -1.18115 0
M  V30 613 C 59.7008 -2.85197 -1.28964 0
M  V30 614 C 60.1758 -4.26561 -1.66761 0
M  V30 615 N 61.6668 -4.2935 -1.73819 0
M  V30 616 C 62.4018 -5.35693 -2.045 0
M  V30 617 N 61.8978 -6.52287 -2.33438 0
M  V30 618 N 63.6908 -5.23105 -2.05711 0
M  V30 619 H 55.8418 -2.10965 0.246519 0
M  V30 620 H 58.1048 -0.9468 0.0476887 0
M  V30 621 H 57.8108 -3.49226 -0.416398 0
M  V30 622 H 57.6848 -3.11599 -2.1257 0
M  V30 623 H 60.0718 -2.12742 -2.04511 0
M  V30 624 H 60.1528 -2.53718 -0.325704 0
M  V30 625 H 59.7968 -4.99541 -0.917656 0
M  V30 626 H 59.7268 -4.55502 -2.64246 0
M  V30 627 H 62.2178 -3.4526 -1.53635 0
M  V30 628 H 62.5308 -7.29158 -2.56024 0
M  V30 629 H 60.8758 -6.55521 -2.30905 0
M  V30 630 H 64.0668 -4.31026 -1.82577 0
M  V30 631 H 64.2398 -6.06078 -2.29289 0
M  V30 632 N 57.6459 0.756429 -1.3826 0
M  V30 633 C 58.8759 1.54341 -1.3734 0
M  V30 634 C 59.2839 1.89159 0.0393917 0
M  V30 635 O 58.6269 1.5307 1.01565 0
M  V30 636 C 58.6889 2.87238 -2.16182 0
M  V30 637 C 58.3529 2.74973 -3.65019 0
M  V30 638 C 59.3499 2.44962 -4.58574 0
M  V30 639 C 57.0349 2.92515 -4.08338 0
M  V30 640 C 59.0289 2.32642 -5.93428 0
M  V30 641 C 56.7159 2.79815 -5.43274 0
M  V30 642 C 57.7139 2.49921 -6.35632 0
M  V30 643 O 57.4019 2.37275 -7.68086 0
M  V30 644 H 57.1339 0.484281 -0.471643 0
M  V30 645 H 59.6879 0.944152 -1.82414 0
M  V30 646 H 57.9179 3.49342 -1.65822 0
M  V30 647 H 59.6069 3.48731 -2.07705 0
M  V30 648 H 60.3729 2.31081 -4.26412 0
M  V30 649 H 56.2519 3.14781 -3.368 0
M  V30 650 H 59.7959 2.0923 -6.65484 0
M  V30 651 H 55.6929 2.93269 -5.75034 0
M  V30 652 H 56.4609 2.52509 -7.78577 0
M  V30 653 N 59.124 1.23083 0.984299 0
M  V30 654 C 60.072 1.00593 2.09723 0
M  V30 655 C 61.066 -0.0538014 1.69315 0
M  V30 656 O 62.272 0.0993719 1.79725 0
M  V30 657 H 58.647 0.30817 0.685956 0
M  V30 658 H 60.618 1.95012 2.2586 0
M  V30 659 C 59.367 0.609601 3.42314 0
M  V30 660 H 58.69 1.41675 3.73856 0
M  V30 661 H 60.13 0.491726 4.21139 0
M  V30 662 C 58.589 -0.681745 3.2993 0
M  V30 663 O 59.119 -1.73192 3.62446 0
M  V30 664 N 57.325 -0.656178 2.83095 0
M  V30 665 H 56.872 0.198759 2.56832 0
M  V30 666 H 56.83 -1.52044 2.75191 0
M  V30 667 N 60.6021 -1.18246 1.0419 0
M  V30 668 C 61.5501 -2.23968 0.627792 0
M  V30 669 C 62.5441 -1.65828 -0.346019 0
M  V30 670 O 63.7501 -1.78733 -0.213175 0
M  V30 671 H 60.1251 -0.728939 0.184802 0
M  V30 672 H 62.0961 -2.56202 1.52981 0
M  V30 673 C 60.8451 -3.47699 0.00796591 0
M  V30 674 H 60.1681 -3.92734 0.748347 0
M  V30 675 H 61.6081 -4.23294 -0.24455 0
M  V30 676 C 60.0671 -3.13153 -1.24246 0
M  V30 677 O 60.5971 -3.27003 -2.33307 0
M  V30 678 N 58.8031 -2.67467 -1.13622 0
M  V30 679 H 58.3501 -2.56396 -0.248734 0
M  V30 680 H 58.3081 -2.44724 -1.97377 0
M  V30 681 N 62.0802 -0.821533 -1.34494 0
M  V30 682 C 63.0102 -0.257138 -2.3208 0
M  V30 683 C 63.9912 0.625645 -1.58176 0
M  V30 684 O 65.1762 0.552811 -1.86166 0
M  V30 685 C 62.3062 0.582958 -3.42372 0
M  V30 686 C 61.2602 -0.202571 -4.2752 0
M  V30 687 C 60.5862 0.760179 -5.29269 0
M  V30 688 C 61.8862 -1.40998 -5.02908 0
M  V30 689 H 63.5802 -1.07247 -2.79532 0
M  V30 690 H 61.1262 -0.517163 -1.34393 0
M  V30 691 H 63.0792 0.987972 -4.09655 0
M  V30 692 H 61.8032 1.43133 -2.93565 0
M  V30 693 H 60.4622 -0.588936 -3.61838 0
M  V30 694 H 60.1102 1.60447 -4.76724 0
M  V30 695 H 59.8102 0.238809 -5.87115 0
M  V30 696 H 61.3342 1.16308 -5.9942 0
M  V30 697 H 62.7482 -1.07905 -5.63054 0
M  V30 698 H 61.1452 -1.86689 -5.70322 0
M  V30 699 H 62.2152 -2.1889 -4.32684 0
M  V30 700 N 63.5583 1.46682 -0.576371 0
M  V30 701 C 64.8073 2.01619 -0.0572825 0
M  V30 702 C 65.1203 1.45417 1.30818 0
M  V30 703 O 66.3263 1.92133 1.91825 0
M  V30 704 C 64.7823 3.59863 -0.0518371 0
M  V30 705 C 64.3903 4.25059 -1.41523 0
M  V30 706 C 66.1343 4.2248 0.413639 0
M  V30 707 C 64.0413 5.75364 -1.36785 0
M  V30 708 H 62.9713 0.753794 -0.0176448 0
M  V30 709 H 65.6223 1.68481 -0.727076 0
M  V30 710 H 64.0043 3.90048 0.683994 0
M  V30 711 H 65.1783 4.06491 -2.17029 0
M  V30 712 H 63.4933 3.7451 -1.8202 0
M  V30 713 H 66.0903 5.3265 0.467779 0
M  V30 714 H 66.4333 3.90976 1.42982 0
M  V30 715 H 66.9663 3.96897 -0.267929 0
M  V30 716 H 63.7053 6.11518 -2.36063 0
M  V30 717 H 63.2253 5.96214 -0.654895 0
M  V30 718 H 64.9043 6.37955 -1.07805 0
M  V30 719 N 65.0364 0.313813 1.54444 0
M  V30 720 C 66.4524 -0.0391619 1.59552 0
M  V30 721 C 66.6524 -1.51322 1.33056 0
M  V30 722 O 65.7084 -2.26782 1.11022 0
M  V30 723 C 67.0214 0.370302 2.98411 0
M  V30 724 C 68.5694 0.320139 3.11358 0
M  V30 725 C 69.0444 0.704617 4.52547 0
M  V30 726 N 70.5354 0.657645 4.58508 0
M  V30 727 C 71.2704 0.927453 5.6585 0
M  V30 728 N 70.7664 1.26389 6.81174 0
M  V30 729 N 72.5594 0.853662 5.5558 0
M  V30 730 H 64.7104 1.27433 1.69925 0
M  V30 731 H 66.9734 0.517511 0.794284 0
M  V30 732 H 66.6794 1.39694 3.22767 0
M  V30 733 H 66.5534 -0.269619 3.76235 0
M  V30 734 H 68.9404 -0.697275 2.86744 0
M  V30 735 H 69.0214 0.99486 2.35661 0
M  V30 736 H 68.6654 1.7199 4.77893 0
M  V30 737 H 68.5954 0.00768843 5.26599 0
M  V30 738 H 71.0864 0.409067 3.75679 0
M  V30 739 H 71.3994 1.4554 7.58972 0
M  V30 740 H 69.7444 1.30206 6.82694 0
M  V30 741 H 72.9354 0.590383 4.64362 0
M  V30 742 H 73.1084 1.0673 6.3915 0
M  V30 743 N 66.5145 -1.57545 0.0417849 0
M  V30 744 C 67.9255 -1.80011 -0.495259 0
M  V30 745 C 68.2765 -0.953199 -1.71489 0
M  V30 746 O 67.4015 -0.167138 -2.15754 0
M  V30 747 C 67.9965 -3.26482 -0.905265 0
M  V30 748 C 66.5555 -3.499 -1.38734 0
M  V30 749 C 65.7025 -2.74979 -0.358056 0
M  V30 750 H 68.6535 -1.56425 0.267736 0
M  V30 751 H 68.6745 -3.36887 -1.76882 0
M  V30 752 H 68.1865 -3.88096 -0.017401 0
M  V30 753 H 66.2875 -2.93553 -2.29471 0
M  V30 754 H 66.4005 -4.58615 -1.38598 0
M  V30 755 H 64.7645 -2.40834 -0.828912 0
M  V30 756 H 65.5475 -3.39315 0.521561 0
M  V30 757 N 67.9926 0.231505 -1.5589 0
M  V30 758 C 68.9556 1.27028 -1.90779 0
M  V30 759 C 69.9556 1.40308 -0.785507 0
M  V30 760 O 71.1456 1.38744 -1.05336 0
M  V30 761 C 68.2776 2.64566 -2.14983 0
M  V30 762 H 69.4706 0.973017 -2.83677 0
M  V30 763 H 67.0236 0.471486 -1.49019 0
M  V30 764 H 67.7586 2.99406 -1.24604 0
M  V30 765 H 67.5436 2.56305 -2.96732 0
M  V30 766 H 69.0336 3.39543 -2.43105 0
M  V30 767 N 69.4707 1.49531 0.497807 0
M  V30 768 C 70.6987 1.62893 1.27567 0
M  V30 769 C 71.1137 0.301585 1.86376 0
M  V30 770 O 70.4707 -0.713335 1.67982 0
M  V30 771 C 70.5217 2.70013 2.40364 0
M  V30 772 O 70.2427 3.976 1.83972 0
M  V30 773 C 71.7437 2.94109 3.31685 0
M  V30 774 H 68.9637 0.548298 0.386794 0
M  V30 775 H 71.5077 1.95584 0.597245 0
M  V30 776 H 69.6627 2.40092 3.04031 0
M  V30 777 H 70.0767 4.56631 2.58047 0
M  V30 778 H 71.5507 3.72788 4.07104 0
M  V30 779 H 72.0277 2.04147 3.88871 0
M  V30 780 H 72.6337 3.2546 2.73781 0
M  V30 781 N 70.9488 -0.749086 1.3866 0
M  V30 782 C 72.1738 -1.54344 1.38538 0
M  V30 783 C 72.5988 -1.88088 -0.0216655 0
M  V30 784 O 71.9568 -1.50899 -1.00494 0
M  V30 785 C 72.0048 -2.8164 2.25192 0
M  V30 786 O 71.1088 -3.7698 1.67212 0
M  V30 787 H 70.4498 -0.466654 0.472367 0
M  V30 788 H 72.9798 -0.925355 1.82478 0
M  V30 789 H 72.9898 -3.30519 2.3921 0
M  V30 790 H 71.6648 -2.56411 3.27454 0
M  V30 791 H 70.2418 -3.35699 1.6236 0
M  V30 792 N 72.4269 -1.23603 -0.977757 0
M  V30 793 C 73.6519 -1.09735 -1.75991 0
M  V30 794 C 74.0769 0.346858 -1.84874 0
M  V30 795 O 73.4349 1.25093 -1.3123 0
M  V30 796 C 73.4829 -1.73051 -3.16363 0
M  V30 797 O 72.5869 -0.994452 -4.0023 0
M  V30 798 H 71.9279 -0.384476 -0.541364 0
M  V30 799 H 74.4579 -1.6371 -1.2272 0
M  V30 800 H 74.4679 -1.78398 -3.66931 0
M  V30 801 H 73.1429 -2.78137 -3.09213 0
M  V30 802 H 71.7199 -1.01812 -3.58732 0
M  V30 803 N 73.905 1.17692 -1.04816 0
M  V30 804 C 75.13 1.92327 -0.776207 0
M  V30 805 C 75.555 1.76082 0.661581 0
M  V30 806 O 74.913 1.076 1.45917 0
M  V30 807 C 74.961 3.41539 -1.15687 0
M  V30 808 O 74.065 4.11402 -0.286775 0
M  V30 809 H 73.406 0.599735 -0.284981 0
M  V30 810 H 75.936 1.49201 -1.4 0
M  V30 811 H 75.946 3.92269 -1.12202 0
M  V30 812 H 74.621 3.52684 -2.20425 0
M  V30 813 H 73.198 3.70939 -0.381903 0
M  V30 814 N 75.3831 0.828654 1.34056 0
M  V30 815 C 76.3151 0.212052 2.28217 0
M  V30 816 C 77.3281 -0.601362 1.51286 0
M  V30 817 O 78.5171 -0.430104 1.73241 0
M  V30 818 C 75.6171 -0.72088 3.31144 0
M  V30 819 C 74.7901 0.0509587 4.3737 0
M  V30 820 C 73.8491 -0.803766 5.20025 0
M  V30 821 O 72.8751 -0.246667 5.68665 0
M  V30 822 N 74.0771 -2.1227 5.40298 0
M  V30 823 H 76.8421 1.02105 2.81771 0
M  V30 824 H 74.4031 0.686153 1.46641 0
M  V30 825 H 76.3951 -1.29742 3.8334 0
M  V30 826 H 74.9651 -1.43061 2.77943 0
M  V30 827 H 74.1851 0.808831 3.85813 0
M  V30 828 H 75.4731 0.582065 5.0546 0
M  V30 829 H 74.8711 -2.59898 5.02464 0
M  V30 830 H 73.4281 -2.64796 5.95589 0
M  V30 831 N 76.8612 -1.46375 0.584142 0
M  V30 832 C 77.7912 -2.33103 -0.136037 0
M  V30 833 C 78.7722 -1.45431 -0.882255 0
M  V30 834 O 79.9572 -1.74246 -0.857434 0
M  V30 835 C 77.0872 -3.27731 -1.14933 0
M  V30 836 C 76.0412 -4.24855 -0.517862 0
M  V30 837 C 75.3672 -5.09001 -1.63773 0
M  V30 838 C 76.6672 -5.19439 0.545886 0
M  V30 839 H 78.3612 -2.93568 0.588086 0
M  V30 840 H 75.9072 -1.41166 0.284259 0
M  V30 841 H 77.8602 -3.87261 -1.66153 0
M  V30 842 H 76.5842 -2.65377 -1.90375 0
M  V30 843 H 75.2432 -3.6659 -0.0267361 0
M  V30 844 H 74.8912 -4.43031 -2.38185 0
M  V30 845 H 74.5912 -5.74777 -1.22085 0
M  V30 846 H 76.1152 -5.71396 -2.15266 0
M  V30 847 H 77.5292 -5.73177 0.118704 0
M  V30 848 H 75.9262 -5.93566 0.88317 0
M  V30 849 H 76.9962 -4.63285 1.43162 0
M  V30 850 N 78.3393 -0.321999 -1.54275 0
M  V30 851 C 79.5883 0.281931 -1.9972 0
M  V30 852 C 79.9013 1.53369 -1.21397 0
M  V30 853 O 81.1073 2.21352 -1.57211 0
M  V30 854 C 79.5633 0.5529 -3.55628 0
M  V30 855 C 79.1713 -0.681721 -4.42783 0
M  V30 856 C 80.9153 1.11687 -4.09544 0
M  V30 857 C 78.8223 -0.382742 -5.9016 0
M  V30 858 H 77.7523 0.109124 -0.746062 0
M  V30 859 H 80.4033 -0.43398 -1.78294 0
M  V30 860 H 78.7853 1.32896 -3.73035 0
M  V30 861 H 79.9593 -1.45723 -4.37151 0
M  V30 862 H 78.2743 -1.1658 -3.99748 0
M  V30 863 H 80.8713 1.35515 -5.17242 0
M  V30 864 H 81.2143 2.06575 -3.61431 0
M  V30 865 H 81.7473 0.402032 -3.95763 0
M  V30 866 H 78.4863 -1.30076 -6.42464 0
M  V30 867 H 78.0063 0.355094 -5.98748 0
M  V30 868 H 79.6853 0.00800157 -6.47 0
M  V30 869 N 79.8174 1.5752 -0.0501392 0
M  V30 870 C 81.0424 1.97376 0.636997 0
M  V30 871 C 81.4674 0.927466 1.63645 0
M  V30 872 O 80.8254 -0.10941 1.8097 0
M  V30 873 C 80.8734 3.36304 1.30123 0
M  V30 874 O 79.9774 3.34156 2.41689 0
M  V30 875 H 79.3184 0.642998 0.165679 0
M  V30 876 H 81.8484 2.04258 -0.118233 0
M  V30 877 H 81.8584 3.73008 1.65315 0
M  V30 878 H 80.5334 4.11993 0.568746 0
M  V30 879 H 79.1104 3.09196 2.08451 0
M  V30 880 N 81.2955 -0.223234 1.56011 0
M  V30 881 C 82.5445 -0.945912 1.78144 0
M  V30 882 C 82.8575 -1.85567 0.618396 0
M  V30 883 O 84.0635 -2.61688 0.723318 0
M  V30 884 C 82.5195 -1.73216 3.15475 0
M  V30 885 C 82.1275 -0.868619 4.39499 0
M  V30 886 C 83.8715 -2.44615 3.46935 0
M  V30 887 C 81.7785 -1.65212 5.67855 0
M  V30 888 H 80.7085 -0.356929 0.664167 0
M  V30 889 H 83.3595 -0.199845 1.82409 0
M  V30 890 H 81.7415 -2.52107 3.05382 0
M  V30 891 H 82.9155 -0.120366 4.60643 0
M  V30 892 H 81.2305 -0.26683 4.15544 0
M  V30 893 H 83.8275 -3.03732 4.40058 0
M  V30 894 H 84.1705 -3.17417 2.69355 0
M  V30 895 H 84.7035 -1.72715 3.58349 0
M  V30 896 H 81.4425 -0.967407 6.48322 0
M  V30 897 H 80.9625 -2.37503 5.50774 0
M  V30 898 H 82.6415 -2.21322 6.07968 0
M  V30 899 N 82.7736 -1.49793 -0.48987 0
M  V30 900 C 83.7206 -1.67281 -1.59014 0
M  V30 901 C 84.6906 -0.514177 -1.57941 0
M  V30 902 O 85.8756 -0.742533 -1.75759 0
M  V30 903 C 83.0156 -1.75569 -2.97102 0
M  V30 904 C 82.1286 -3.0281 -3.08107 0
M  V30 905 C 81.2636 -3.02008 -4.36995 0
M  V30 906 C 80.3026 -4.23782 -4.41673 0
M  V30 907 N 79.4396 -4.20826 -5.62005 0
M  V30 908 H 84.2796 -2.61224 -1.43409 0
M  V30 909 H 81.8166 -1.29508 -0.697565 0
M  V30 910 H 83.7746 -1.78354 -3.77155 0
M  V30 911 H 82.4046 -0.850827 -3.11385 0
M  V30 912 H 81.4566 -3.09584 -2.21047 0
M  V30 913 H 82.7686 -3.92801 -3.07423 0
M  V30 914 H 81.9226 -3.03418 -5.25378 0
M  V30 915 H 80.6616 -2.09815 -4.4026 0
M  V30 916 H 79.6666 -4.22604 -3.5169 0
M  V30 917 H 80.8916 -5.17181 -4.40115 0
M  V30 918 H 78.8376 -3.31476 -5.66091 0
M  V30 919 H 78.7546 -5.04564 -5.62984 0
M  V30 920 H 80.0226 -4.26355 -6.52565 0
M  V30 921 N 84.2517 0.741722 -1.39055 0
M  V30 922 C 85.1817 1.869 -1.39966 0
M  V30 923 C 86.1627 1.6804 -0.26392 0
M  V30 924 O 87.3477 1.88458 -0.468755 0
M  V30 925 C 84.4777 3.24572 -1.23574 0
M  V30 926 C 83.4317 3.58056 -2.34477 0
M  V30 927 C 82.7577 4.94593 -2.0318 0
M  V30 928 C 84.0577 3.61716 -3.76774 0
M  V30 929 H 85.7517 1.86395 -2.34302 0
M  V30 930 H 83.2977 0.895361 -1.1278 0
M  V30 931 H 85.2507 4.031 -1.22834 0
M  V30 932 H 83.9747 3.25587 -0.257045 0
M  V30 933 H 82.6337 2.81854 -2.34423 0
M  V30 934 H 82.2817 4.92181 -1.03765 0
M  V30 935 H 81.9817 5.17964 -2.77465 0
M  V30 936 H 83.5057 5.75486 -2.04079 0
M  V30 937 H 84.9197 4.30335 -3.78794 0
M  V30 938 H 83.3167 3.96603 -4.50362 0
M  V30 939 H 84.3867 2.61672 -4.08235 0
M  V30 940 N 85.7298 1.2412 0.971189 0
M  V30 941 C 86.6618 0.988349 2.06795 0
M  V30 942 C 87.6748 -0.0409541 1.62748 0
M  V30 943 O 88.8638 0.195673 1.77424 0
M  V30 944 C 85.9638 0.469023 3.35639 0
M  V30 945 C 85.1368 1.56065 4.08611 0
M  V30 946 C 84.1958 1.04458 5.15728 0
M  V30 947 O 83.2218 1.73553 5.42096 0
M  V30 948 N 84.4238 -0.122817 5.8037 0
M  V30 949 H 87.1888 1.93265 2.29061 0
M  V30 950 H 84.7498 1.15102 1.13856 0
M  V30 951 H 86.7418 0.108613 4.04554 0
M  V30 952 H 85.3118 -0.380919 3.1027 0
M  V30 953 H 84.5318 2.09341 3.34021 0
M  V30 954 H 85.8198 2.29449 4.54126 0
M  V30 955 H 85.2178 -0.700563 5.61345 0
M  V30 956 H 83.7748 -0.424404 6.50417 0
M  V30 957 N 87.2079 -1.17134 1.05439 0
M  V30 958 C 88.1379 -2.2342 0.678649 0
M  V30 959 C 89.1189 -1.66971 -0.32476 0
M  V30 960 O 90.3039 -1.93149 -0.201802 0
M  V30 961 C 87.4339 -3.47256 0.0552099 0
M  V30 962 C 86.3879 -4.16543 0.98365 0
M  V30 963 C 85.7139 -5.34231 0.223961 0
M  V30 964 C 87.0139 -4.68495 2.3089 0
M  V30 965 H 88.7079 -2.55105 1.56722 0
M  V30 966 H 86.2539 -1.2262 0.754998 0
M  V30 967 H 88.2069 -4.20828 -0.21946 0
M  V30 968 H 86.9309 -3.14846 -0.868319 0
M  V30 969 H 85.5899 -3.44887 1.24293 0
M  V30 970 H 85.2379 -4.98071 -0.702412 0
M  V30 971 H 84.9379 -5.81527 0.842627 0
M  V30 972 H 86.4619 -6.10585 -0.0433671 0
M  V30 973 H 87.8759 -5.33691 2.09396 0
M  V30 974 H 86.2729 -5.26379 2.88176 0
M  V30 975 H 87.3429 -3.85169 2.94572 0
M  V30 976 N 88.686 -0.835752 -1.33615 0
M  V30 977 C 89.911 -0.442389 -2.02627 0
M  V30 978 C 90.336 0.947735 -1.62479 0
M  V30 979 O 89.694 1.61907 -0.815826 0
M  V30 980 C 89.742 -0.567216 -3.56111 0
M  V30 981 O 88.846 0.407799 -4.10379 0
M  V30 982 H 88.187 -0.180278 -0.639059 0
M  V30 983 H 90.717 -1.12972 -1.70583 0
M  V30 984 H 90.727 -0.447708 -4.05536 0
M  V30 985 H 89.402 -1.58103 -3.84677 0
M  V30 986 H 87.979 0.246107 -3.72087 0
M  V30 987 N 90.1641 1.46063 -0.591896 0
M  V30 988 C 91.0941 2.33172 0.123673 0
M  V30 989 C 92.0751 1.45897 0.87453 0
M  V30 990 O 93.2601 1.74698 0.848181 0
M  V30 991 C 90.3901 3.28336 1.13194 0
M  V30 992 C 89.3441 4.25124 0.495324 0
M  V30 993 C 88.6701 5.09863 1.61071 0
M  V30 994 C 89.9701 5.19143 -0.573425 0
M  V30 995 H 91.6641 2.93252 -0.603646 0
M  V30 996 H 89.2101 1.41014 -0.291741 0
M  V30 997 H 91.1631 3.88137 1.64097 0
M  V30 998 H 89.8871 2.66383 1.88965 0
M  V30 999 H 88.5461 3.66599 0.00729452 0
M  V30 1000 H 88.1941 4.44288 2.35832 0
M  V30 1001 H 87.8941 5.75417 1.19035 0
M  V30 1002 H 89.4181 5.72529 2.12233 0
M  V30 1003 H 90.8321 5.73106 -0.1491 0
M  V30 1004 H 89.2291 5.93089 -0.914636 0
M  V30 1005 H 90.2991 4.62519 -1.45617 0
M  V30 1006 N 91.6422 0.330177 1.54103 0
M  V30 1007 C 92.6052 -0.520144 2.2322 0
M  V30 1008 C 93.6052 -1.03828 1.22786 0
M  V30 1009 O 94.7952 -0.929652 1.4732 0
M  V30 1010 C 91.9272 -1.72317 2.94142 0
M  V30 1011 H 93.1202 0.0841605 2.99782 0
M  V30 1012 H 90.6732 0.0813433 1.56088 0
M  V30 1013 H 91.4082 -2.36653 2.21734 0
M  V30 1014 H 91.1932 -1.35898 3.67796 0
M  V30 1015 H 92.6832 -2.3266 3.46784 0
M  V30 1016 N 93.1203 -1.57491 0.0584922 0
M  V30 1017 C 94.0523 -2.08916 -0.942694 0
M  V30 1018 C 95.0653 -1.0185 -1.27006 0
M  V30 1019 O 96.2543 -1.29398 -1.22957 0
M  V30 1020 C 93.3543 -2.52341 -2.26224 0
M  V30 1021 C 92.5273 -3.82827 -2.1157 0
M  V30 1022 C 91.5863 -4.12487 -3.26712 0
M  V30 1023 O 90.6123 -4.82295 -3.02292 0
M  V30 1024 N 91.8143 -3.64978 -4.5141 0
M  V30 1025 H 94.5793 -2.95437 -0.503722 0
M  V30 1026 H 92.1403 -1.61397 -0.12757 0
M  V30 1027 H 94.1323 -2.69254 -3.02133 0
M  V30 1028 H 92.7023 -1.7103 -2.61663 0
M  V30 1029 H 91.9223 -3.75425 -1.20208 0
M  V30 1030 H 93.2103 -4.68263 -1.99015 0
M  V30 1031 H 92.6083 -3.08558 -4.7414 0
M  V30 1032 H 91.1653 -3.87115 -5.2439 0
M  V30 1033 N 94.5984 0.214957 -1.56127 0
M  V30 1034 C 95.5284 1.2695 -1.95974 0
M  V30 1035 C 96.5094 1.48539 -0.828868 0
M  V30 1036 O 97.6944 1.60611 -1.09168 0
M  V30 1037 C 94.8244 2.61794 -2.28214 0
M  V30 1038 C 93.7784 2.54851 -3.43853 0
M  V30 1039 C 93.1044 3.93785 -3.61715 0
M  V30 1040 C 94.4044 2.09065 -4.78632 0
M  V30 1041 H 96.0984 0.93846 -2.84312 0
M  V30 1042 H 93.6444 0.449996 -1.36788 0
M  V30 1043 H 95.5974 3.35731 -2.54682 0
M  V30 1044 H 94.3214 2.96599 -1.36736 0
M  V30 1045 H 92.9804 1.8337 -3.17444 0
M  V30 1046 H 92.6284 4.25908 -2.67602 0
M  V30 1047 H 92.3284 3.90019 -4.39498 0
M  V30 1048 H 93.8524 4.69374 -3.90539 0
M  V30 1049 H 95.2664 2.7275 -5.04262 0
M  V30 1050 H 93.6634 2.16346 -5.59745 0
M  V30 1051 H 94.7334 1.04315 -4.73547 0
M  V30 1052 N 96.0765 1.50051 0.48192 0
M  V30 1053 C 97.3255 1.59741 1.23149 0
M  V30 1054 C 97.6385 0.298163 1.93314 0
M  V30 1055 O 98.8445 0.273835 2.70116 0
M  V30 1056 C 97.3005 2.81926 2.23708 0
M  V30 1057 C 96.9085 4.18685 1.59396 0
M  V30 1058 C 98.6525 3.00956 2.99375 0
M  V30 1059 C 96.5595 5.3207 2.58178 0
M  V30 1060 H 95.4895 0.594838 0.46334 0
M  V30 1061 H 98.1405 1.76467 0.503169 0
M  V30 1062 H 96.5225 2.58736 2.99786 0
M  V30 1063 H 97.6965 4.52088 0.891811 0
M  V30 1064 H 96.0115 4.05171 0.960503 0
M  V30 1065 H 98.6085 3.82836 3.73283 0
M  V30 1066 H 98.9515 2.12258 3.58123 0
M  V30 1067 H 99.4845 3.24277 2.30411 0
M  V30 1068 H 96.2235 6.22888 2.04184 0
M  V30 1069 H 95.7435 5.03098 3.26577 0
M  V30 1070 H 97.4225 5.62196 3.20225 0
M  V30 1071 N 97.5546 -0.734337 1.39446 0
M  V30 1072 C 98.7796 -1.52866 1.40167 0
M  V30 1073 C 99.2046 -1.881 -0.00171513 0
M  V30 1074 O 98.5626 -1.51957 -0.988879 0
M  V30 1075 C 98.6106 -2.79235 2.28167 0
M  V30 1076 O 97.7146 -3.75185 1.71201 0
M  V30 1077 H 97.0556 -0.461618 0.477289 0
M  V30 1078 H 99.5856 -0.905949 1.8345 0
M  V30 1079 H 99.5956 -3.27963 2.42702 0
M  V30 1080 H 98.2706 -2.52923 3.30156 0
M  V30 1081 H 96.8476 -3.33958 1.65912 0
M  V30 1082 N 99.0327 -1.24633 -0.964593 0
M  V30 1083 C 100.279 -1.08949 -1.71049 0
M  V30 1084 C 100.612 0.370302 -1.90637 0
M  V30 1085 O 99.8867 1.27349 -1.47011 0
M  V30 1086 C 100.17 -1.83329 -3.0994 0
M  V30 1087 C 100.023 -3.37077 -2.97824 0
M  V30 1088 C 101.342 -1.60846 -4.09654 0
M  V30 1089 H 98.4607 -0.397178 -0.620821 0
M  V30 1090 H 101.103 -1.5334 -1.12191 0
M  V30 1091 H 99.2527 -1.45597 -3.60186 0
M  V30 1092 H 100.925 -3.84425 -2.5498 0
M  V30 1093 H 99.1677 -3.65298 -2.33965 0
M  V30 1094 H 99.8387 -3.84324 -3.96231 0
M  V30 1095 H 102.315 -1.93674 -3.68279 0
M  V30 1096 H 101.191 -2.1534 -5.04896 0
M  V30 1097 H 101.452 -0.547434 -4.38698 0
M  V30 1098 N 100.511 1.16574 -1.06058 0
M  V30 1099 C 101.459 2.22941 -0.663343 0
M  V30 1100 C 102.453 1.66358 0.319593 0
M  V30 1101 O 103.659 1.7905 0.184713 0
M  V30 1102 H 100.034 0.725907 -0.196376 0
M  V30 1103 H 102.005 2.53736 -1.57037 0
M  V30 1104 C 100.754 3.47642 -0.0632808 0
M  V30 1105 H 100.077 3.91493 -0.810733 0
M  V30 1106 H 101.517 4.2363 0.177177 0
M  V30 1107 C 99.9758 3.1509 1.19248 0
M  V30 1108 O 100.506 3.30673 2.28075 0
M  V30 1109 N 98.7118 2.6924 1.09353 0
M  V30 1110 H 98.2588 2.5676 0.207912 0
M  V30 1111 H 98.2168 2.47833 1.93458 0
M  V30 1112 N 101.989 0.842826 1.3317 0
M  V30 1113 C 102.899 0.281444 2.32906 0
M  V30 1114 C 103.915 -0.594587 1.63526 0
M  V30 1115 O 105.091 -0.49777 1.95152 0
M  V30 1116 C 102.156 -0.530929 3.42611 0
M  V30 1117 C 101.217 0.369843 4.27704 0
M  V30 1118 C 100.45 -0.403853 5.3217 0
M  V30 1119 O 100.673 -1.63513 5.46461 0
M  V30 1120 O 99.6069 0.224199 6.01482 0
M  V30 1121 H 103.433 1.10744 2.82789 0
M  V30 1122 H 101.018 0.60545 1.36582 0
M  V30 1123 H 102.9 -0.992437 4.09547 0
M  V30 1124 H 101.575 -1.33392 2.94938 0
M  V30 1125 H 100.482 0.879275 3.6362 0
M  V30 1126 H 101.815 1.13771 4.78871 0
M  V30 1127 N 103.467 -1.45747 0.599634 0
M  V30 1128 C 104.883 -1.57424 0.26264 0
M  V30 1129 C 105.083 -1.59222 -1.23493 0
M  V30 1130 O 104.139 -1.51825 -2.01756 0
M  V30 1131 C 105.452 -2.86061 0.926795 0
M  V30 1132 C 107 -2.99722 0.901967 0
M  V30 1133 C 107.475 -4.31119 1.54598 0
M  V30 1134 N 108.966 -4.37858 1.5111 0
M  V30 1135 C 109.701 -5.3818 1.97863 0
M  V30 1136 N 109.197 -6.45083 2.52666 0
M  V30 1137 N 110.99 -5.29487 1.88679 0
M  V30 1138 H 103.141 -1.42823 1.57211 0
M  V30 1139 H 105.404 -0.68235 0.658105 0
M  V30 1140 H 105.11 -2.90605 1.98095 0
M  V30 1141 H 104.984 -3.74563 0.445238 0
M  V30 1142 H 107.371 -2.9475 -0.143617 0
M  V30 1143 H 107.452 -2.12652 1.42171 0
M  V30 1144 H 107.096 -4.36849 2.59085 0
M  V30 1145 H 107.026 -5.16992 1.00132 0
M  V30 1146 H 109.517 -3.61209 1.11068 0
M  V30 1147 H 109.83 -7.17869 2.86155 0
M  V30 1148 H 108.175 -6.45856 2.56701 0
M  V30 1149 H 111.366 -4.44877 1.4561 0
M  V30 1150 H 111.539 -6.07524 2.25429 0
M  V30 1151 N 104.945 -0.338344 -1.53925 0
M  V30 1152 C 105.855 0.529421 -2.28548 0
M  V30 1153 C 106.871 1.11645 -1.3346 0
M  V30 1154 O 108.047 1.13325 -1.66492 0
M  V30 1155 C 105.112 1.66713 -3.03987 0
M  V30 1156 C 104.173 1.11041 -4.14691 0
M  V30 1157 C 103.406 2.19389 -4.86522 0
M  V30 1158 O 103.629 3.40013 -4.57982 0
M  V30 1159 O 102.563 1.83976 -5.73094 0
M  V30 1160 H 106.389 -0.0770399 -3.03602 0
M  V30 1161 H 103.974 -0.103555 -1.49041 0
M  V30 1162 H 105.856 2.32918 -3.5118 0
M  V30 1163 H 104.531 2.25949 -2.31794 0
M  V30 1164 H 103.438 0.413024 -3.71813 0
M  V30 1165 H 104.771 0.562975 -4.8897 0
M  V30 1166 N 106.423 1.57458 -0.0668435 0
M  V30 1167 C 107.355 2.09413 0.931601 0
M  V30 1168 C 108.368 1.02522 1.26464 0
M  V30 1169 O 109.557 1.30049 1.22269 0
M  V30 1170 C 106.657 2.53537 2.24882 0
M  V30 1171 C 105.83 3.83944 2.09537 0
M  V30 1172 C 104.889 4.14214 3.2452 0
M  V30 1173 O 103.915 4.83891 2.9973 0
M  V30 1174 N 105.117 3.67367 4.49469 0
M  V30 1175 H 107.882 2.95699 0.488048 0
M  V30 1176 H 105.443 1.61462 0.119009 0
M  V30 1177 H 107.435 2.70853 3.00701 0
M  V30 1178 H 106.005 1.72415 2.60753 0
M  V30 1179 H 105.225 3.76057 1.18215 0
M  V30 1180 H 106.513 4.69312 1.96529 0
M  V30 1181 H 105.911 3.11068 4.72497 0
M  V30 1182 H 104.468 3.89891 5.2233 0
M  V30 1183 N 107.901 -0.206675 1.56239 0
M  V30 1184 C 109.15 -0.926964 1.79138 0
M  V30 1185 C 109.463 -1.84901 0.638043 0
M  V30 1186 O 110.669 -2.60906 0.751033 0
M  V30 1187 C 109.125 -1.6986 3.17294 0
M  V30 1188 C 108.733 -0.821956 4.40395 0
M  V30 1189 C 110.477 -2.40922 3.4951 0
M  V30 1190 C 108.384 -1.59179 5.69575 0
M  V30 1191 H 107.314 -0.349864 0.667915 0
M  V30 1192 H 109.965 -0.180487 1.8261 0
M  V30 1193 H 108.347 -2.48853 3.08039 0
M  V30 1194 H 109.521 -0.0715019 4.60745 0
M  V30 1195 H 107.836 -0.222741 4.15804 0
M  V30 1196 H 110.433 -2.99047 4.43255 0
M  V30 1197 H 110.776 -3.14542 2.72707 0
M  V30 1198 H 111.309 -1.68905 3.60161 0
M  V30 1199 H 108.048 -0.898589 6.49312 0
M  V30 1200 H 107.568 -2.31648 5.53262 0
M  V30 1201 H 109.247 -2.14862 6.10281 0
M  V30 1202 N 109.379 -1.50304 -0.473955 0
M  V30 1203 C 110.312 -1.63595 -1.59097 0
M  V30 1204 C 111.29 -0.484142 -1.55225 0
M  V30 1205 O 112.474 -0.703271 -1.7489 0
M  V30 1206 C 109.601 -1.61589 -2.97669 0
M  V30 1207 C 108.647 -2.82295 -3.19705 0
M  V30 1208 S 109.48 -4.43635 -2.99913 0
M  V30 1209 C 110.636 -4.44317 -4.40832 0
M  V30 1210 H 110.869 -2.58082 -1.47583 0
M  V30 1211 H 108.402 -1.39531 -0.661087 0
M  V30 1212 H 110.36 -1.61116 -3.7756 0
M  V30 1213 H 109.021 -0.683421 -3.06575 0
M  V30 1214 H 108.214 -2.77188 -4.20931 0
M  V30 1215 H 107.816 -2.8032 -2.47582 0
M  V30 1216 H 110.108 -4.17703 -5.33414 0
M  V30 1217 H 111.051 -5.45911 -4.50984 0
M  V30 1218 H 111.459 -3.74059 -4.22777 0
M  V30 1219 N 110.857 0.726932 -1.39834 0
M  V30 1220 C 112.085 1.51613 -1.40787 0
M  V30 1221 C 112.5 1.88799 -0.00451505 0
M  V30 1222 O 111.857 1.54662 0.968809 0
M  V30 1223 C 111.908 2.79863 -2.28821 0
M  V30 1224 O 111.629 2.44253 -3.63692 0
M  V30 1225 C 113.13 3.73837 -2.38245 0
M  V30 1226 H 110.35 0.468264 -0.480593 0
M  V30 1227 H 112.894 0.897607 -1.83748 0
M  V30 1228 H 111.049 3.38027 -1.89252 0
M  V30 1229 H 111.463 3.26695 -4.1033 0
M  V30 1230 H 112.937 4.60699 -3.04073 0
M  V30 1231 H 113.414 4.16153 -1.40403 0
M  V30 1232 H 114.02 3.21589 -2.78317 0
M  V30 1233 N 112.336 1.25143 0.95797 0
M  V30 1234 C 113.564 1.12424 1.73691 0
M  V30 1235 C 113.979 -0.322304 1.86029 0
M  V30 1236 O 113.336 -1.22186 1.35561 0
M  V30 1237 C 113.387 1.76933 3.15241 0
M  V30 1238 O 113.108 3.15932 3.03511 0
M  V30 1239 C 114.609 1.6995 4.09429 0
M  V30 1240 H 111.829 0.3923 0.544373 0
M  V30 1241 H 114.373 1.6544 1.20207 0
M  V30 1242 H 112.528 1.27895 3.6568 0
M  V30 1243 H 112.942 3.47598 3.9278 0
M  V30 1244 H 114.416 2.19753 5.06372 0
M  V30 1245 H 114.893 0.662619 4.34173 0
M  V30 1246 H 115.499 2.18461 3.64904 0
M  V30 1247 N 113.814 -1.1601 1.06675 0
M  V30 1248 C 114.762 -2.22586 0.675157 0
M  V30 1249 C 115.756 -1.66525 -0.310766 0
M  V30 1250 O 116.962 -1.79145 -0.175215 0
M  V30 1251 H 113.337 -0.724855 0.200223 0
M  V30 1252 H 115.308 -2.52899 1.58381 0
M  V30 1253 C 114.057 -3.47604 0.0817162 0
M  V30 1254 H 113.38 -3.91058 0.831484 0
M  V30 1255 H 114.82 -4.23718 -0.154708 0
M  V30 1256 C 113.279 -3.15718 -1.17576 0
M  V30 1257 O 113.809 -3.31878 -2.26318 0
M  V30 1258 N 112.015 -2.69816 -1.07923 0
M  V30 1259 H 111.562 -2.56866 -0.194293 0
M  V30 1260 H 111.52 -2.48855 -1.92141 0
M  V30 1261 N 115.292 -0.849877 -1.32721 0
M  V30 1262 C 116.538 -0.451591 -1.97708 0
M  V30 1263 C 116.871 0.989175 -1.6712 0
M  V30 1264 O 116.146 1.69334 -0.956891 0
M  V30 1265 C 116.429 -0.685598 -3.53513 0
M  V30 1266 C 116.282 -2.17444 -3.93749 0
M  V30 1267 C 117.601 -0.138874 -4.39881 0
M  V30 1268 H 114.72 -0.16555 -0.718166 0
M  V30 1269 H 117.362 -1.06742 -1.57182 0
M  V30 1270 H 115.512 -0.161416 -3.88165 0
M  V30 1271 H 117.184 -2.76433 -3.693 0
M  V30 1272 H 115.427 -2.65476 -3.43081 0
M  V30 1273 H 116.098 -2.28888 -5.02309 0
M  V30 1274 H 118.574 -0.587068 -4.11938 0
M  V30 1275 H 117.45 -0.332213 -5.47894 0
M  V30 1276 H 117.711 0.95806 -4.31594 0
M  V30 1277 N 116.77 1.45427 -0.607355 0
M  V30 1278 C 118.016 2.03097 -0.111035 0
M  V30 1279 C 118.371 1.46735 1.24445 0
M  V30 1280 O 117.664 0.632478 1.8086 0
M  V30 1281 C 117.858 3.57398 -0.0129263 0
M  V30 1282 C 117.687 4.28726 -1.35735 0
M  V30 1283 C 116.457 4.66659 -1.93798 0
M  V30 1284 C 118.655 4.60699 -2.28607 0
M  V30 1285 N 116.637 5.22845 -3.21723 0
M  V30 1286 C 118.008 5.17716 -3.41131 0
M  V30 1287 C 120.063 4.42638 -2.27982 0
M  V30 1288 C 118.766 5.58576 -4.53194 0
M  V30 1289 C 120.792 4.84531 -3.39093 0
M  V30 1290 C 120.154 5.4164 -4.50339 0
M  V30 1291 H 116.253 0.777476 -0.083994 0
M  V30 1292 H 118.837 1.77249 -0.805655 0
M  V30 1293 H 117.008 3.82907 0.650914 0
M  V30 1294 H 118.74 4.01722 0.490033 0
M  V30 1295 H 115.495 4.50207 -1.47007 0
M  V30 1296 H 115.919 5.55438 -3.87063 0
M  V30 1297 H 120.561 3.97798 -1.43235 0
M  V30 1298 H 118.279 6.02382 -5.38667 0
M  V30 1299 H 121.865 4.72289 -3.39757 0
M  V30 1300 H 120.745 5.73461 -5.34895 0
M  V30 1301 N 118.248 0.346503 1.53744 0
M  V30 1302 C 119.178 -0.501193 2.28058 0
M  V30 1303 C 120.159 -1.10014 1.29734 0
M  V30 1304 O 121.344 -1.12097 1.58581 0
M  V30 1305 C 118.474 -1.65078 3.05559 0
M  V30 1306 C 117.428 -1.18003 4.11411 0
M  V30 1307 C 116.754 -2.41837 4.76884 0
M  V30 1308 C 118.054 -0.278394 5.21558 0
M  V30 1309 H 119.748 0.11875 2.99164 0
M  V30 1310 H 117.294 0.0585531 1.43881 0
M  V30 1311 H 119.247 -2.25028 3.56287 0
M  V30 1312 H 117.971 -2.29767 2.32109 0
M  V30 1313 H 116.63 -0.603331 3.61601 0
M  V30 1314 H 116.278 -3.0494 4.00026 0
M  V30 1315 H 115.978 -2.1102 5.48402 0
M  V30 1316 H 117.502 -3.02508 5.30397 0
M  V30 1317 H 118.916 -0.784823 5.67903 0
M  V30 1318 H 117.313 -0.0619707 6.00068 0
M  V30 1319 H 118.383 0.684677 4.80042 0
M  V30 1320 N 119.726 -1.57421 0.075193 0
M  V30 1321 C 120.673 -2.12915 -0.890843 0
M  V30 1322 C 121.643 -1.04252 -1.29309 0
M  V30 1323 O 122.828 -1.31933 -1.37834 0
M  V30 1324 C 119.968 -2.69795 -2.15186 0
M  V30 1325 C 119.081 -3.92624 -1.80194 0
M  V30 1326 C 118.216 -4.37736 -3.00933 0
M  V30 1327 C 117.255 -5.53205 -2.61974 0
M  V30 1328 N 116.392 -5.9326 -3.75483 0
M  V30 1329 H 121.232 -2.95156 -0.410735 0
M  V30 1330 H 118.769 -1.45854 -0.191086 0
M  V30 1331 H 120.727 -3.00883 -2.89008 0
M  V30 1332 H 119.357 -1.90313 -2.60731 0
M  V30 1333 H 118.409 -3.67977 -0.964218 0
M  V30 1334 H 119.721 -4.76482 -1.47534 0
M  V30 1335 H 118.875 -4.70503 -3.8303 0
M  V30 1336 H 117.614 -3.52739 -3.36789 0
M  V30 1337 H 116.619 -5.20086 -1.783 0
M  V30 1338 H 117.844 -6.39936 -2.27284 0
M  V30 1339 H 115.79 -5.11212 -4.11094 0
M  V30 1340 H 115.707 -6.71865 -3.46602 0
M  V30 1341 H 116.975 -6.30651 -4.58148 0
M  V30 1342 N 121.204 0.198386 -1.56346 0
M  V30 1343 C 122.136 1.26987 -1.90806 0
M  V30 1344 C 123.149 1.41877 -0.798419 0
M  V30 1345 O 124.338 1.42362 -1.07682 0
M  V30 1346 C 121.438 2.64246 -2.12196 0
M  V30 1347 C 120.611 2.71007 -3.43328 0
M  V30 1348 C 119.67 3.89439 -3.5387 0
M  V30 1349 O 118.696 3.76695 -4.26719 0
M  V30 1350 N 119.898 5.04752 -2.86715 0
M  V30 1351 H 122.663 0.977433 -2.83313 0
M  V30 1352 H 120.224 0.388322 -1.57174 0
M  V30 1353 H 122.216 3.41896 -2.1654 0
M  V30 1354 H 120.786 2.85992 -1.26204 0
M  V30 1355 H 120.006 1.79657 -3.50881 0
M  V30 1356 H 121.294 2.72512 -4.29668 0
M  V30 1357 H 120.692 5.18004 -2.2735 0
M  V30 1358 H 119.249 5.8036 -2.96691 0
M  V30 1359 N 122.682 1.50554 0.465978 0
M  V30 1360 C 123.592 1.72585 1.58907 0
M  V30 1361 C 124.608 0.60911 1.6299 0
M  V30 1362 O 125.784 0.88804 1.80765 0
M  V30 1363 C 122.849 1.81995 2.95091 0
M  V30 1364 C 121.91 3.05751 3.01355 0
M  V30 1365 C 121.143 3.14702 4.31043 0
M  V30 1366 O 121.366 2.30313 5.21835 0
M  V30 1367 O 120.3 4.07468 4.43005 0
M  V30 1368 H 124.126 2.67799 1.43239 0
M  V30 1369 H 121.711 1.34711 0.646013 0
M  V30 1370 H 123.593 1.90335 3.75966 0
M  V30 1371 H 122.268 0.899659 3.10947 0
M  V30 1372 H 121.175 3.02908 2.19539 0
M  V30 1373 H 122.508 3.97375 2.90437 0
M  V30 1374 N 124.16 -0.719506 1.40217 0
M  V30 1375 C 125.406 -1.48034 1.39491 0
M  V30 1376 C 125.761 -1.92399 -0.00443536 0
M  V30 1377 O 125.054 -1.64993 -0.974061 0
M  V30 1378 C 125.248 -2.72271 2.31524 0
M  V30 1379 C 125.077 -2.40055 3.80268 0
M  V30 1380 C 123.847 -2.31588 4.49105 0
M  V30 1381 C 126.045 -2.04581 4.71859 0
M  V30 1382 N 124.027 -1.92006 5.83101 0
M  V30 1383 C 125.398 -1.75568 5.94623 0
M  V30 1384 C 127.453 -1.91183 4.59732 0
M  V30 1385 C 126.156 -1.34505 7.06612 0
M  V30 1386 C 128.182 -1.51524 5.71659 0
M  V30 1387 C 127.544 -1.23406 6.93506 0
M  V30 1388 H 123.643 -0.539927 0.565688 0
M  V30 1389 H 126.227 -0.834764 1.75897 0
M  V30 1390 H 124.398 -3.34584 1.97251 0
M  V30 1391 H 126.13 -3.38584 2.21682 0
M  V30 1392 H 122.885 -2.49199 4.02737 0
M  V30 1393 H 123.309 -1.74764 6.54054 0
M  V30 1394 H 127.951 -2.11584 3.66049 0
M  V30 1395 H 125.669 -1.12846 8.00182 0
M  V30 1396 H 129.255 -1.41741 5.6427 0
M  V30 1397 H 128.135 -0.931788 7.78645 0
M  V30 1398 N 125.638 -1.25649 -0.95132 0
M  V30 1399 C 126.866 -1.13343 -1.73092 0
M  V30 1400 C 127.281 0.312434 -1.86197 0
M  V30 1401 O 126.638 1.21465 -1.36207 0
M  V30 1402 C 126.689 -1.78602 -3.14299 0
M  V30 1403 O 126.41 -3.17537 -3.01831 0
M  V30 1404 C 127.911 -1.72119 -4.08522 0
M  V30 1405 H 125.131 -0.395181 -0.542285 0
M  V30 1406 H 127.675 -1.66076 -1.19328 0
M  V30 1407 H 125.83 -1.29832 -3.64996 0
M  V30 1408 H 126.244 -3.49676 -3.90931 0
M  V30 1409 H 127.718 -2.22435 -5.052 0
M  V30 1410 H 128.195 -0.685635 -4.33815 0
M  V30 1411 H 128.801 -2.20393 -3.63741 0
M  V30 1412 N 127.117 1.15442 -1.07289 0
M  V30 1413 C 128.394 1.82306 -0.708792 0
M  V30 1414 C 128.774 1.94991 0.808807 0
M  V30 1415 O 128.122 1.50085 1.72298 0
M  V30 1416 C 128.332 3.18695 -1.42247 0
M  V30 1417 C 129.68 3.94341 -1.57417 0
M  V30 1418 O 130.704 3.28247 -1.38319 0
M  V30 1419 O 129.563 5.12839 -1.88834 0
M  V30 1420 H 126.657 0.787628 -0.252132 0
M  V30 1421 H 129.203 1.22559 -1.17377 0
M  V30 1422 H 127.975 3.04557 -2.45684 0
M  V30 1423 H 127.598 3.86128 -0.948223 0
M  V30 1424 N 128.595 0.856903 1.32268 0
M  V30 1425 C 129.825 0.47475 2.01071 0
M  V30 1426 C 130.233 -0.933746 1.64553 0
M  V30 1427 O 129.576 -1.62114 0.863989 0
M  V30 1428 C 129.638 0.536746 3.55471 0
M  V30 1429 C 129.302 1.90453 4.15423 0
M  V30 1430 C 130.299 2.87029 4.33486 0
M  V30 1431 C 127.984 2.20229 4.51447 0
M  V30 1432 C 129.978 4.11532 4.86744 0
M  V30 1433 C 127.665 3.44984 5.0441 0
M  V30 1434 C 128.663 4.40452 5.22007 0
M  V30 1435 O 128.351 5.62998 5.73837 0
M  V30 1436 H 128.083 0.184778 0.650256 0
M  V30 1437 H 130.637 1.15615 1.69771 0
M  V30 1438 H 128.867 -0.20152 3.86175 0
M  V30 1439 H 130.556 0.169875 4.05544 0
M  V30 1440 H 131.322 2.6533 4.05986 0
M  V30 1441 H 127.201 1.46705 4.37034 0
M  V30 1442 H 130.745 4.86056 5.00395 0
M  V30 1443 H 126.642 3.66532 5.31342 0
M  V30 1444 H 127.41 5.64987 5.92226 0
M  V30 1445 N 130.073 -1.45103 0.615059 0
M  V30 1446 C 131.489 -1.57137 0.279322 0
M  V30 1447 C 131.689 -1.60523 -1.21797 0
M  V30 1448 O 130.745 -1.53956 -2.00134 0
M  V30 1449 C 132.058 -2.85062 0.957083 0
M  V30 1450 C 133.606 -2.98749 0.933706 0
M  V30 1451 C 134.081 -4.29455 1.59162 0
M  V30 1452 N 135.572 -4.36231 1.55746 0
M  V30 1453 C 136.307 -5.36051 2.0356 0
M  V30 1454 N 135.803 -6.42367 2.59494 0
M  V30 1455 N 137.596 -5.27456 1.94284 0
M  V30 1456 H 129.747 -1.41148 1.58717 0
M  V30 1457 H 132.01 -0.675331 0.665306 0
M  V30 1458 H 131.716 -2.88488 2.01166 0
M  V30 1459 H 131.59 -3.7407 0.48494 0
M  V30 1460 H 133.977 -2.94886 -0.112347 0
M  V30 1461 H 134.058 -2.11132 1.44419 0
M  V30 1462 H 133.702 -4.34077 2.63704 0
M  V30 1463 H 133.632 -5.15901 1.0561 0
M  V30 1464 H 136.123 -3.60011 1.14893 0
M  V30 1465 H 136.436 -7.14793 2.93752 0
M  V30 1466 H 134.781 -6.43097 2.63537 0
M  V30 1467 H 137.972 -4.43308 1.5032 0
M  V30 1468 H 138.145 -6.05099 2.3186 0
M  V30 1469 N 131.551 -0.354651 -1.53558 0
M  V30 1470 C 132.481 0.489091 -2.2832 0
M  V30 1471 C 133.462 1.09324 -1.30316 0
M  V30 1472 O 134.647 1.11255 -1.59173 0
M  V30 1473 C 131.777 1.63456 -3.0643 0
M  V30 1474 C 130.731 1.1582 -4.12031 0
M  V30 1475 C 130.057 2.39305 -4.7816 0
M  V30 1476 C 131.357 0.250731 -5.21698 0
M  V30 1477 H 133.051 -0.134614 -2.99097 0
M  V30 1478 H 130.597 -0.0661826 -1.43848 0
M  V30 1479 H 132.55 2.23136 -3.57475 0
M  V30 1480 H 131.274 2.28533 -2.33325 0
M  V30 1481 H 129.933 0.584146 -3.61916 0
M  V30 1482 H 129.581 3.02814 -4.01637 0
M  V30 1483 H 129.281 2.08109 -5.49513 0
M  V30 1484 H 130.805 2.99691 -5.31994 0
M  V30 1485 H 132.219 0.754695 -5.68311 0
M  V30 1486 H 130.616 0.0301468 -6.00092 0
M  V30 1487 H 131.686 -0.710125 -4.79672 0
M  V30 1488 N 133.029 1.57378 -0.0835403 0
M  V30 1489 C 134.257 1.98263 0.59157 0
M  V30 1490 C 134.672 0.962302 1.62435 0
M  V30 1491 O 134.029 -0.049581 1.82433 0
M  V30 1492 C 134.08 3.39214 1.24965 0
M  V30 1493 O 133.801 4.37339 0.258186 0
M  V30 1494 C 135.302 3.95038 2.01147 0
M  V30 1495 H 132.522 0.651773 0.159477 0
M  V30 1496 H 135.066 2.03878 -0.159415 0
M  V30 1497 H 133.221 3.34649 1.95164 0
M  V30 1498 H 133.635 5.19371 0.731734 0
M  V30 1499 H 135.109 4.95848 2.42567 0
M  V30 1500 H 135.586 3.32222 2.87272 0
M  V30 1501 H 136.192 4.0304 1.35789 0
M  V30 1502 N 134.507 -0.190092 1.56449 0
M  V30 1503 C 135.753 -0.906472 1.82084 0
M  V30 1504 C 136.108 -1.80677 0.661335 0
M  V30 1505 O 135.401 -1.88501 -0.343237 0
M  V30 1506 C 135.595 -1.75382 3.1141 0
M  V30 1507 C 135.424 -0.937053 4.39829 0
M  V30 1508 C 134.194 -0.619507 5.01488 0
M  V30 1509 C 136.392 -0.2874 5.13496 0
M  V30 1510 N 134.374 0.215367 6.13522 0
M  V30 1511 C 135.745 0.409454 6.18646 0
M  V30 1512 C 137.8 -0.203639 4.97483 0
M  V30 1513 C 136.503 1.1821 7.0952 0
M  V30 1514 C 138.529 0.555622 5.88784 0
M  V30 1515 C 137.891 1.24091 6.93384 0
M  V30 1516 H 133.99 -0.310931 0.717528 0
M  V30 1517 H 136.574 -0.174821 1.93914 0
M  V30 1518 H 134.745 -2.45703 3.00806 0
M  V30 1519 H 136.477 -2.41006 3.25112 0
M  V30 1520 H 133.232 -0.945126 4.64074 0
M  V30 1521 H 133.656 0.622562 6.74131 0
M  V30 1522 H 138.298 -0.719099 4.1664 0
M  V30 1523 H 136.016 1.70897 7.89823 0
M  V30 1524 H 139.602 0.621854 5.78467 0
M  V30 1525 H 138.482 1.81901 7.62812 0
M  V30 1526 N 135.985 -1.50799 -0.457987 0
M  V30 1527 C 136.933 -1.71162 -1.575 0
M  V30 1528 C 137.927 -0.577592 -1.59249 0
M  V30 1529 O 139.133 -0.758443 -1.63241 0
M  V30 1530 H 135.508 -0.540468 -0.522875 0
M  V30 1531 H 137.479 -2.64837 -1.37492 0
M  V30 1532 C 136.228 -1.83496 -2.95338 0
M  V30 1533 H 135.551 -2.70153 -2.94716 0
M  V30 1534 H 136.991 -2.01765 -3.72917 0
M  V30 1535 C 135.45 -0.589694 -3.31699 0
M  V30 1536 O 135.98 0.265163 -4.00824 0
M  V30 1537 N 134.186 -0.439845 -2.87252 0
M  V30 1538 H 133.733 -1.13655 -2.31172 0
M  V30 1539 H 133.691 0.392159 -3.11945 0
M  V30 1540 N 137.463 0.71206 -1.40597 0
M  V30 1541 C 138.688 1.50617 -1.42581 0
M  V30 1542 C 139.113 1.88079 -0.0282102 0
M  V30 1543 O 138.471 1.53511 0.964579 0
M  V30 1544 C 138.519 2.7557 -2.3258 0
M  V30 1545 O 137.623 3.72414 -1.77148 0
M  V30 1546 H 136.964 0.453966 -0.484573 0
M  V30 1547 H 139.494 0.876649 -1.84868 0
M  V30 1548 H 139.504 3.2406 -2.47889 0
M  V30 1549 H 138.179 2.47639 -3.34138 0
M  V30 1550 H 136.756 3.31276 -1.71204 0
M  V30 1551 N 138.941 1.26152 0.944643 0
M  V30 1552 C 140.166 1.14363 1.7302 0
M  V30 1553 C 140.591 -0.29772 1.85729 0
M  V30 1554 O 139.949 -1.2157 1.34501 0
M  V30 1555 C 139.997 1.81378 3.11664 0
M  V30 1556 O 139.101 1.10022 3.97453 0
M  V30 1557 H 138.442 0.398694 0.53098 0
M  V30 1558 H 140.972 1.66906 1.18337 0
M  V30 1559 H 140.982 1.88064 3.62072 0
M  V30 1560 H 139.657 2.86237 3.0173 0
M  V30 1561 H 138.234 1.11287 3.55907 0
M  V30 1562 N 140.419 -1.14872 1.07899 0
M  V30 1563 C 141.835 -1.37776 0.805606 0
M  V30 1564 C 142.035 -1.92743 -0.587555 0
M  V30 1565 O 141.091 -2.13678 -1.34528 0
M  V30 1566 C 142.404 -2.34361 1.88402 0
M  V30 1567 C 143.952 -2.48012 1.90942 0
M  V30 1568 C 144.427 -3.47893 2.97883 0
M  V30 1569 N 145.918 -3.55433 2.97021 0
M  V30 1570 C 146.653 -4.32553 3.76412 0
M  V30 1571 N 146.149 -5.12959 4.65666 0
M  V30 1572 N 147.942 -4.27697 3.64735 0
M  V30 1573 H 140.093 -0.775365 1.97742 0
M  V30 1574 H 142.356 -0.403521 0.857831 0
M  V30 1575 H 142.062 -2.01098 2.88535 0
M  V30 1576 H 141.936 -3.34206 1.74889 0
M  V30 1577 H 144.323 -2.8057 0.914579 0
M  V30 1578 H 144.404 -1.48147 2.08534 0
M  V30 1579 H 144.048 -3.16069 3.97571 0
M  V30 1580 H 143.978 -4.47527 2.77538 0
M  V30 1581 H 146.469 -2.98048 2.32326 0
M  V30 1582 H 146.782 -5.69065 5.22862 0
M  V30 1583 H 145.127 -5.12245 4.69712 0
M  V30 1584 H 148.318 -3.63949 2.94378 0
M  V30 1585 H 148.491 -4.8755 4.26848 0
M  V30 1586 N 141.898 -0.863906 -1.31812 0
M  V30 1587 C 143.128 -0.485406 -2.00817 0
M  V30 1588 C 143.536 0.925007 -1.65046 0
M  V30 1589 O 142.879 1.61653 -0.872574 0
M  V30 1590 C 142.941 -0.555589 -3.55181 0
M  V30 1591 C 142.605 -1.92654 -4.14407 0
M  V30 1592 C 143.602 -2.89324 -4.31958 0
M  V30 1593 C 141.287 -2.2262 -4.50273 0
M  V30 1594 C 143.281 -4.14108 -4.84555 0
M  V30 1595 C 140.968 -3.47654 -5.02573 0
M  V30 1596 C 141.966 -4.43214 -5.19664 0
M  V30 1597 O 141.654 -5.66033 -5.70843 0
M  V30 1598 H 141.386 -0.188224 -0.649267 0
M  V30 1599 H 143.94 -1.16514 -1.69156 0
M  V30 1600 H 142.17 0.181037 -3.86276 0
M  V30 1601 H 143.859 -0.19138 -4.05449 0
M  V30 1602 H 144.625 -2.6748 -4.04573 0
M  V30 1603 H 140.504 -1.4902 -4.3625 0
M  V30 1604 H 144.048 -4.88703 -4.9781 0
M  V30 1605 H 139.945 -3.69345 -5.29391 0
M  V30 1606 H 140.713 -5.6812 -5.89222 0
M  V30 1607 N 143.376 1.44774 -0.622745 0
M  V30 1608 C 144.286 2.34433 0.0886031 0
M  V30 1609 C 145.302 1.52131 0.844529 0
M  V30 1610 O 146.478 1.84886 0.798691 0
M  V30 1611 C 143.543 3.29986 1.0635 0
M  V30 1612 C 142.604 4.28195 0.307873 0
M  V30 1613 C 141.837 5.19183 1.23633 0
M  V30 1614 O 142.06 5.13918 2.47476 0
M  V30 1615 O 140.994 5.97515 0.725189 0
M  V30 1616 H 144.82 2.96693 -0.648599 0
M  V30 1617 H 142.405 1.44408 -0.382957 0
M  V30 1618 H 144.287 3.88825 1.6246 0
M  V30 1619 H 142.962 2.70269 1.78146 0
M  V30 1620 H 141.869 3.72927 -0.296064 0
M  V30 1621 H 143.202 4.90808 -0.3699 0
M  V30 1622 N 144.854 0.36279 1.53368 0
M  V30 1623 C 146.102 -0.227326 2.00817 0
M  V30 1624 C 146.423 -1.49511 1.25186 0
M  V30 1625 O 145.693 -1.92482 0.364348 0
M  V30 1626 H 144.273 -0.0869923 0.741917 0
M  V30 1627 H 146.935 0.488381 1.88682 0
M  V30 1628 H 146.031 -0.456273 3.08747 0
M  V30 1629 N 146.332 -1.57332 0.0918853 0
M  V30 1630 C 147.578 -1.94524 -0.573425 0
M  V30 1631 C 147.911 -0.973578 -1.68033 0
M  V30 1632 O 147.186 -0.00609226 -1.94499 0
M  V30 1633 C 147.469 -3.41858 -1.13161 0
M  V30 1634 C 147.322 -4.4979 -0.0299747 0
M  V30 1635 C 148.641 -3.90435 -2.03098 0
M  V30 1636 H 145.76 -0.70734 -0.206975 0
M  V30 1637 H 148.402 -1.89309 0.161942 0
M  V30 1638 H 146.552 -3.46433 -1.7583 0
M  V30 1639 H 148.224 -4.57327 0.604112 0
M  V30 1640 H 146.467 -4.291 0.636833 0
M  V30 1641 H 147.138 -5.50069 -0.461287 0
M  V30 1642 H 149.614 -3.87992 -1.50338 0
M  V30 1643 H 148.49 -4.94097 -2.39081 0
M  V30 1644 H 148.751 -3.29541 -2.94712 0
M  V30 1645 N 147.81 0.181792 -1.56548 0
M  V30 1646 C 148.758 1.24461 -1.965 0
M  V30 1647 C 149.752 1.464 -0.852261 0
M  V30 1648 O 150.958 1.47103 -1.03733 0
M  V30 1649 H 147.333 0.418138 -0.625031 0
M  V30 1650 H 149.304 0.880714 -2.85107 0
M  V30 1651 C 148.053 2.57891 -2.33212 0
M  V30 1652 H 147.376 2.41829 -3.18369 0
M  V30 1653 H 148.816 3.3097 -2.65019 0
M  V30 1654 C 147.275 3.15871 -1.17163 0
M  V30 1655 O 147.805 3.9913 -0.453708 0
M  V30 1656 N 146.011 2.74808 -0.944936 0
M  V30 1657 H 145.558 2.07205 -1.53049 0
M  V30 1658 H 145.516 3.13939 -0.170286 0
M  V30 1659 N 149.288 1.51039 0.449983 0
M  V30 1660 C 150.537 1.62317 1.19733 0
M  V30 1661 C 150.85 0.339101 1.92638 0
M  V30 1662 O 152.056 0.331069 2.69474 0
M  V30 1663 C 150.512 2.86608 2.17678 0
M  V30 1664 C 150.12 4.21972 1.50479 0
M  V30 1665 C 151.864 3.07239 2.92924 0
M  V30 1666 C 149.771 5.37426 2.46834 0
M  V30 1667 H 148.701 0.604532 0.450619 0
M  V30 1668 H 151.352 1.77494 0.465625 0
M  V30 1669 H 149.734 2.65037 2.94231 0
M  V30 1670 H 150.908 4.53878 0.795716 0
M  V30 1671 H 149.223 4.07117 0.874344 0
M  V30 1672 H 151.82 3.90668 3.65079 0
M  V30 1673 H 152.163 2.19807 3.5354 0
M  V30 1674 H 152.696 3.29091 2.23481 0
M  V30 1675 H 149.435 6.27079 1.90926 0
M  V30 1676 H 148.955 5.09912 3.15832 0
M  V30 1677 H 150.634 5.68862 3.08228 0
M  V30 1678 N 150.766 -0.704594 1.40972 0
M  V30 1679 C 151.696 -1.83124 1.44872 0
M  V30 1680 C 152.677 -1.67281 0.30838 0
M  V30 1681 O 153.862 -1.87149 0.518556 0
M  V30 1682 C 150.992 -3.21181 1.32136 0
M  V30 1683 C 149.946 -3.51714 2.43888 0
M  V30 1684 C 149.272 -4.89032 2.16222 0
M  V30 1685 C 150.572 -3.516 3.86232 0
M  V30 1686 H 152.266 -1.80117 2.39161 0
M  V30 1687 H 149.812 -0.865145 1.15114 0
M  V30 1688 H 151.765 -3.99702 1.33479 0
M  V30 1689 H 150.489 -3.24791 0.343279 0
M  V30 1690 H 149.148 -2.75539 2.41813 0
M  V30 1691 H 148.796 -4.89256 1.16778 0
M  V30 1692 H 148.496 -5.10426 2.911 0
M  V30 1693 H 150.02 -5.69873 2.19265 0
M  V30 1694 H 151.434 -4.2014 3.9007 0
M  V30 1695 H 149.831 -3.84523 4.60719 0
M  V30 1696 H 150.901 -2.50757 4.15029 0
M  V30 1697 N 152.244 -1.26651 -0.937939 0
M  V30 1698 C 153.66 -1.03834 -1.21205 0
M  V30 1699 C 153.86 0.234502 -2.00131 0
M  V30 1700 O 152.916 0.942767 -2.3424 0
M  V30 1701 C 154.229 -2.27167 -1.97017 0
M  V30 1702 C 155.777 -2.32101 -2.09996 0
M  V30 1703 C 156.252 -3.55136 -2.8921 0
M  V30 1704 N 157.743 -3.55632 -2.96783 0
M  V30 1705 C 158.478 -4.475 -3.58512 0
M  V30 1706 N 157.974 -5.4966 -4.21717 0
M  V30 1707 N 159.767 -4.35145 -3.55816 0
M  V30 1708 H 151.918 -2.08398 -0.410391 0
M  V30 1709 H 154.181 -0.916031 -0.244114 0
M  V30 1710 H 153.887 -3.19765 -1.46434 0
M  V30 1711 H 153.761 -2.31672 -2.97671 0
M  V30 1712 H 156.148 -1.40015 -2.59769 0
M  V30 1713 H 156.229 -2.31605 -1.08594 0
M  V30 1714 H 155.873 -4.47553 -2.40123 0
M  V30 1715 H 155.803 -3.5288 -3.90875 0
M  V30 1716 H 158.294 -2.81743 -2.51852 0
M  V30 1717 H 158.607 -6.15943 -4.66727 0
M  V30 1718 H 156.952 -5.53514 -4.20294 0
M  V30 1719 H 160.143 -3.5455 -3.05634 0
M  V30 1720 H 160.316 -5.06934 -4.03636 0
M  V30 1721 N 153.722 1.14298 -1.08507 0
M  V30 1722 C 154.971 1.84708 -0.810305 0
M  V30 1723 C 155.284 1.83903 0.666271 0
M  V30 1724 O 156.49 2.50112 1.05624 0
M  V30 1725 C 154.946 3.31572 -1.39957 0
M  V30 1726 C 154.554 3.40791 -2.90801 0
M  V30 1727 C 156.298 4.07087 -1.20334 0
M  V30 1728 C 154.205 4.81872 -3.4286 0
M  V30 1729 H 153.135 0.691985 -0.299454 0
M  V30 1730 H 155.786 1.28841 -1.30661 0
M  V30 1731 H 154.168 3.87183 -0.830976 0
M  V30 1732 H 155.342 2.95225 -3.53806 0
M  V30 1733 H 153.657 2.78732 -3.0935 0
M  V30 1734 H 156.254 5.11225 -1.56693 0
M  V30 1735 H 156.597 4.16054 -0.143237 0
M  V30 1736 H 157.13 3.57779 -1.73893 0
M  V30 1737 H 153.869 4.78094 -4.48449 0
M  V30 1738 H 153.389 5.27972 -2.84615 0
M  V30 1739 H 155.068 5.50765 -3.39509 0
M  V30 1740 N 155.201 0.870884 1.31352 0
M  V30 1741 C 156.612 0.534714 1.78879 0
M  V30 1742 C 156.963 -0.948423 1.71754 0
M  V30 1743 O 156.088 -1.74055 1.28584 0
M  V30 1744 C 156.683 0.963839 3.24801 0
M  V30 1745 C 155.242 0.679311 3.70219 0
M  V30 1746 C 154.389 1.15465 2.52117 0
M  V30 1747 H 157.34 1.05651 1.18421 0
M  V30 1748 H 157.361 0.286892 3.79417 0
M  V30 1749 H 156.873 2.04332 3.29955 0
M  V30 1750 H 154.974 -0.388769 3.70566 0
M  V30 1751 H 155.087 1.25698 4.62317 0
M  V30 1752 H 153.451 0.574383 2.48139 0
M  V30 1753 H 154.234 2.24157 2.60016 0
M  V30 1754 N 156.679 -1.44442 0.630414 0
M  V30 1755 C 157.642 -2.29107 -0.0652523 0
M  V30 1756 C 158.642 -1.41002 -0.772995 0
M  V30 1757 O 159.832 -1.62881 -0.617692 0
M  V30 1758 C 156.964 -3.22564 -1.10296 0
M  V30 1759 H 158.157 -2.92103 0.679401 0
M  V30 1760 H 155.71 -1.51343 0.390517 0
M  V30 1761 H 156.445 -2.64416 -1.87762 0
M  V30 1762 H 156.23 -3.87491 -0.59941 0
M  V30 1763 H 157.72 -3.86167 -1.5895 0
M  V30 1764 N 158.157 -0.370918 -1.53173 0
M  V30 1765 C 159.104 0.473035 -2.259 0
M  V30 1766 C 160.074 1.07311 -1.26781 0
M  V30 1767 O 161.259 1.1046 -1.55574 0
M  V30 1768 C 158.399 1.60405 -3.05556 0
M  V30 1769 C 157.512 1.02863 -4.19575 0
M  V30 1770 C 156.647 2.12918 -4.86661 0
M  V30 1771 C 155.686 1.52869 -5.92704 0
M  V30 1772 N 154.823 2.56779 -6.53459 0
M  V30 1773 H 159.663 -0.153649 -2.97604 0
M  V30 1774 H 157.2 -0.0875946 -1.46839 0
M  V30 1775 H 159.158 2.27034 -3.50016 0
M  V30 1776 H 157.788 2.20131 -2.36097 0
M  V30 1777 H 156.84 0.252465 -3.79561 0
M  V30 1778 H 158.152 0.549642 -4.95762 0
M  V30 1779 H 157.306 2.87356 -5.34333 0
M  V30 1780 H 156.045 2.6417 -4.09958 0
M  V30 1781 H 155.05 0.769479 -5.44389 0
M  V30 1782 H 156.275 1.02435 -6.7133 0
M  V30 1783 H 154.221 3.07235 -5.79606 0
M  V30 1784 H 154.138 2.13583 -7.25202 0
M  V30 1785 H 155.406 3.30903 -7.05779 0
M  V30 1786 N 159.635 1.57281 -0.100228 0
M  V30 1787 C 161.051 1.57527 0.256416 0
M  V30 1788 C 161.251 1.11173 1.68056 0
M  V30 1789 O 160.307 0.79053 2.39806 0
M  V30 1790 C 161.62 3.00673 0.0401747 0
M  V30 1791 C 163.168 3.12815 0.107528 0
M  V30 1792 C 163.643 4.57929 -0.0807834 0
M  V30 1793 N 165.134 4.63193 -0.0261207 0
M  V30 1794 C 165.869 5.73212 -0.146999 0
M  V30 1795 N 165.365 6.92047 -0.322999 0
M  V30 1796 N 167.158 5.62031 -0.0879044 0
M  V30 1797 H 159.309 1.85718 -1.03065 0
M  V30 1798 H 161.572 0.857446 -0.404339 0
M  V30 1799 H 161.278 3.38804 -0.943649 0
M  V30 1800 H 161.152 3.69042 0.780262 0
M  V30 1801 H 163.539 2.74554 1.08186 0
M  V30 1802 H 163.62 2.47028 -0.664134 0
M  V30 1803 H 163.264 4.96886 -1.05201 0
M  V30 1804 H 163.194 5.21783 0.710635 0
M  V30 1805 H 165.685 3.77748 0.107161 0
M  V30 1806 H 165.998 7.7173 -0.406608 0
M  V30 1807 H 164.343 6.94074 -0.358733 0
M  V30 1808 H 167.534 4.68075 0.048498 0
M  V30 1809 H 167.707 6.47734 -0.185557 0
M  V30 1810 N 161.113 -0.173488 1.56642 0
M  V30 1811 C 162.362 -0.888758 1.81063 0
M  V30 1812 C 162.675 -1.83506 0.67712 0
M  V30 1813 O 163.881 -2.59254 0.806206 0
M  V30 1814 C 162.337 -1.63091 3.20826 0
M  V30 1815 C 161.945 -0.728357 4.4204 0
M  V30 1816 C 163.689 -2.33454 3.54541 0
M  V30 1817 C 161.596 -1.47062 5.72823 0
M  V30 1818 H 160.526 -0.335618 0.675186 0
M  V30 1819 H 163.177 -0.141712 1.82952 0
M  V30 1820 H 161.559 -2.42263 3.13248 0
M  V30 1821 H 162.733 0.0262449 4.60793 0
M  V30 1822 H 161.048 -0.134492 4.16183 0
M  V30 1823 H 163.645 -2.89578 4.49498 0
M  V30 1824 H 163.988 -3.08687 2.79317 0
M  V30 1825 H 164.521 -1.61227 3.63663 0
M  V30 1826 H 161.26 -0.760658 6.51072 0
M  V30 1827 H 160.78 -2.1986 5.58052 0
M  V30 1828 H 162.459 -2.01868 6.14702 0
M  V30 1829 N 162.591 -1.51276 -0.441967 0
M  V30 1830 C 163.837 -1.6492 -1.1905 0
M  V30 1831 C 164.192 -0.358731 -1.89026 0
M  V30 1832 O 163.485 0.645193 -1.8041 0
M  V30 1833 C 163.679 -2.78746 -2.23686 0
M  V30 1834 C 163.508 -4.18737 -1.63979 0
M  V30 1835 C 162.278 -4.84739 -1.42674 0
M  V30 1836 C 164.476 -5.01988 -1.11858 0
M  V30 1837 N 162.458 -6.08858 -0.785159 0
M  V30 1838 C 163.829 -6.17071 -0.601989 0
M  V30 1839 C 165.884 -4.87551 -1.0099 0
M  V30 1840 C 164.587 -7.19299 0.0126012 0
M  V30 1841 C 166.613 -5.89983 -0.409206 0
M  V30 1842 C 165.975 -7.04333 0.0968651 0
M  V30 1843 H 162.074 -0.657416 -0.423471 0
M  V30 1844 H 164.658 -1.8849 -0.48782 0
M  V30 1845 H 162.829 -2.56848 -2.91348 0
M  V30 1846 H 164.561 -2.81595 -2.90666 0
M  V30 1847 H 161.316 -4.42528 -1.68719 0
M  V30 1848 H 161.74 -6.75282 -0.481942 0
M  V30 1849 H 166.382 -3.99401 -1.38703 0
M  V30 1850 H 164.1 -8.071 0.401879 0
M  V30 1851 H 167.686 -5.8088 -0.327079 0
M  V30 1852 H 166.566 -7.82238 0.554373 0
M  V30 1853 N 164.069 0.697108 -1.41344 0
M  V30 1854 C 164.999 1.82353 -1.45841 0
M  V30 1855 C 165.98 1.67115 -0.317247 0
M  V30 1856 O 167.165 1.86871 -0.528474 0
M  V30 1857 C 164.295 3.20476 -1.33838 0
M  V30 1858 C 163.249 3.50415 -2.4575 0
M  V30 1859 C 162.575 4.87878 -2.18813 0
M  V30 1860 C 163.875 3.49546 -3.88091 0
M  V30 1861 H 165.569 1.78846 -2.40113 0
M  V30 1862 H 163.115 0.859028 -1.15571 0
M  V30 1863 H 165.068 3.98988 -1.35596 0
M  V30 1864 H 163.792 3.24604 -0.360498 0
M  V30 1865 H 162.451 2.74253 -2.43271 0
M  V30 1866 H 162.099 4.8863 -1.19371 0
M  V30 1867 H 161.799 5.08875 -2.93803 0
M  V30 1868 H 163.323 5.68702 -2.22284 0
M  V30 1869 H 164.737 4.18066 -3.92293 0
M  V30 1870 H 163.134 3.82075 -4.62751 0
M  V30 1871 H 164.204 2.48552 -4.16353 0
M  V30 1872 N 165.547 1.27147 0.931209 0
M  V30 1873 C 166.958 1.12044 1.49342 0
M  V30 1874 C 167.309 -0.295795 1.93957 0
M  V30 1875 O 166.434 -1.18835 1.80852 0
M  V30 1876 C 167.029 2.02781 2.71414 0
M  V30 1877 C 165.588 1.91794 3.2387 0
M  V30 1878 C 164.735 1.95543 1.96617 0
M  V30 1879 H 167.686 1.40091 0.745672 0
M  V30 1880 H 167.707 1.58156 3.46074 0
M  V30 1881 H 167.219 3.05848 2.38911 0
M  V30 1882 H 165.32 0.916992 3.6114 0
M  V30 1883 H 165.433 2.77852 3.90302 0
M  V30 1884 H 163.797 1.39722 2.12955 0
M  V30 1885 H 164.58 3.00259 1.66432 0
M  V30 1886 N 167.025 -1.13721 1.09112 0
M  V30 1887 C 168.302 -1.81155 0.737706 0
M  V30 1888 C 168.682 -1.96253 -0.777683 0
M  V30 1889 O 168.03 -1.52807 -1.69889 0
M  V30 1890 C 168.24 -3.16392 1.47299 0
M  V30 1891 C 169.588 -3.91787 1.63671 0
M  V30 1892 O 170.612 -3.26005 1.43524 0
M  V30 1893 O 169.471 -5.0977 1.96969 0
M  V30 1894 H 166.565 -0.783518 0.26463 0
M  V30 1895 H 169.111 -1.20676 1.19312 0
M  V30 1896 H 167.883 -3.0061 2.50498 0
M  V30 1897 H 167.506 -3.8457 1.00953 0
M  V30 1898 N 168.503 -0.877838 -1.30888 0
M  V30 1899 C 169.752 -0.488793 -1.95688 0
M  V30 1900 C 170.065 0.965485 -1.70111 0
M  V30 1901 O 171.271 1.46104 -2.28836 0
M  V30 1902 C 169.727 -0.823201 -3.50359 0
M  V30 1903 C 169.335 -2.29477 -3.84765 0
M  V30 1904 C 171.079 -0.503009 -4.21509 0
M  V30 1905 C 168.986 -2.57118 -5.32583 0
M  V30 1906 H 167.916 -0.179062 -0.732429 0
M  V30 1907 H 170.567 -1.07183 -1.48943 0
M  V30 1908 H 168.949 -0.169331 -3.95638 0
M  V30 1909 H 170.123 -2.99236 -3.5042 0
M  V30 1910 H 168.438 -2.58178 -3.267 0
M  V30 1911 H 171.035 -0.68665 -5.30273 0
M  V30 1912 H 171.378 0.557109 -4.12555 0
M  V30 1913 H 171.911 -1.11376 -3.8189 0
M  V30 1914 H 168.65 -3.61843 -5.4658 0
M  V30 1915 H 168.17 -1.91961 -5.68253 0
M  V30 1916 H 169.849 -2.42251 -5.99936 0
M  V30 1917 N 169.982 1.44106 -0.638065 0
M  V30 1918 C 171.228 2.02277 -0.145546 0
M  V30 1919 C 171.561 1.50125 1.23191 0
M  V30 1920 O 170.836 0.688133 1.8192 0
M  V30 1921 C 171.119 3.59829 -0.139791 0
M  V30 1922 C 170.972 4.22247 -1.55008 0
M  V30 1923 C 172.291 4.36873 0.531966 0
M  V30 1924 H 169.41 0.734992 -0.0543632 0
M  V30 1925 H 172.052 1.71592 -0.815863 0
M  V30 1926 H 170.202 3.86102 0.431007 0
M  V30 1927 H 171.874 4.07057 -2.1703 0
M  V30 1928 H 170.117 3.79476 -2.10191 0
M  V30 1929 H 170.788 5.31284 -1.49804 0
M  V30 1930 H 173.264 4.16074 0.0464781 0
M  V30 1931 H 172.14 5.4657 0.505206 0
M  V30 1932 H 172.401 4.11995 1.60352 0
M  V30 1933 N 171.46 0.379036 1.52974 0
M  V30 1934 C 172.39 -0.452706 2.29069 0
M  V30 1935 C 173.371 -1.07237 1.32039 0
M  V30 1936 O 174.556 -1.08708 1.60923 0
M  V30 1937 C 171.686 -1.5856 3.08992 0
M  V30 1938 C 170.64 -1.0925 4.13822 0
M  V30 1939 C 169.966 -2.31668 4.81907 0
M  V30 1940 C 171.266 -0.167702 5.22031 0
M  V30 1941 H 172.96 0.182181 2.98845 0
M  V30 1942 H 170.506 0.0890592 1.43724 0
M  V30 1943 H 172.459 -2.1742 3.6098 0
M  V30 1944 H 171.183 -2.24792 2.36931 0
M  V30 1945 H 169.842 -0.526494 3.628 0
M  V30 1946 H 169.49 -2.96386 4.06404 0
M  V30 1947 H 169.19 -1.9934 5.52754 0
M  V30 1948 H 170.714 -2.91189 5.36695 0
M  V30 1949 H 172.128 -0.664186 5.6944 0
M  V30 1950 H 170.525 0.0653265 6.00064 0
M  V30 1951 H 171.595 0.786347 4.78482 0
M  V30 1952 N 172.938 -1.57226 0.108567 0
M  V30 1953 C 174.168 -1.9889 -0.559142 0
M  V30 1954 C 174.576 -0.986889 -1.61422 0
M  V30 1955 O 173.919 0.0298705 -1.83676 0
M  V30 1956 C 173.981 -3.36952 -1.25315 0
M  V30 1957 C 173.645 -4.55679 -0.347248 0
M  V30 1958 C 174.642 -5.18281 0.409996 0
M  V30 1959 C 172.327 -5.0162 -0.261367 0
M  V30 1960 C 174.321 -6.25203 1.24096 0
M  V30 1961 C 172.008 -6.08405 0.573238 0
M  V30 1962 C 173.006 -6.70063 1.32304 0
M  V30 1963 O 172.694 -7.74788 2.14381 0
M  V30 1964 H 172.426 -0.658343 -0.153492 0
M  V30 1965 H 174.98 -2.04532 0.188584 0
M  V30 1966 H 173.21 -3.28032 -2.04773 0
M  V30 1967 H 174.899 -3.62974 -1.81673 0
M  V30 1968 H 175.665 -4.8371 0.353457 0
M  V30 1969 H 171.544 -4.53381 -0.834656 0
M  V30 1970 H 175.088 -6.73259 1.82669 0
M  V30 1971 H 170.985 -6.42406 0.631208 0
M  V30 1972 H 171.753 -7.91837 2.07209 0
M  V30 1973 N 174.416 0.165178 -1.56732 0
M  V30 1974 C 175.364 1.22369 -1.97809 0
M  V30 1975 C 176.358 1.45488 -0.867741 0
M  V30 1976 O 177.564 1.45995 -1.05288 0
M  V30 1977 H 173.939 0.411486 -0.629431 0
M  V30 1978 H 175.91 0.850425 -2.86025 0
M  V30 1979 C 174.659 2.55403 -2.35934 0
M  V30 1980 H 173.982 2.38438 -3.20916 0
M  V30 1981 H 175.422 3.2814 -2.68514 0
M  V30 1982 C 173.881 3.14611 -1.20506 0
M  V30 1983 O 174.411 3.98626 -0.496016 0
M  V30 1984 N 172.617 2.7379 -0.97403 0
M  V30 1985 H 172.164 2.0557 -1.55238 0
M  V30 1986 H 172.122 3.1374 -0.203573 0
M  V30 1987 N 175.894 1.51508 0.433938 0
M  V30 1988 C 176.842 1.73646 1.54757 0
M  V30 1989 C 177.836 0.602854 1.5831 0
M  V30 1990 O 179.042 0.784318 1.62014 0
M  V30 1991 H 175.417 0.548718 0.51421 0
M  V30 1992 H 177.388 2.66991 1.33261 0
M  V30 1993 C 176.137 1.88172 2.92381 0
M  V30 1994 H 175.46 2.74808 2.90381 0
M  V30 1995 H 176.9 2.07672 3.6966 0
M  V30 1996 C 175.359 0.64239 3.30719 0
M  V30 1997 O 175.889 -0.201362 4.01195 0
M  V30 1998 N 174.095 0.485489 2.86516 0
M  V30 1999 H 173.642 1.17318 2.29334 0
M  V30 2000 H 173.6 -0.342482 3.12529 0
M  V30 2001 N 177.372 -0.689602 1.41712 0
M  V30 2002 C 178.335 -1.78521 1.43746 0
M  V30 2003 C 179.335 -1.57436 0.327191 0
M  V30 2004 O 180.525 -1.64 0.587348 0
M  V30 2005 C 177.657 -3.16971 1.25467 0
M  V30 2006 H 178.85 -1.78108 2.41283 0
M  V30 2007 H 176.403 -0.89781 1.27942 0
M  V30 2008 H 177.138 -3.23019 0.287948 0
M  V30 2009 H 176.923 -3.33678 2.05917 0
M  V30 2010 H 178.413 -3.96935 1.2974 0
M  V30 2011 N 178.85 -1.27639 -0.924453 0
M  V30 2012 C 180.127 -1.04887 -1.651 0
M  V30 2013 C 180.507 0.415327 -2.06974 0
M  V30 2014 O 179.855 1.39923 -1.80648 0
M  V30 2015 C 180.065 -2.01348 -2.85061 0
M  V30 2016 C 181.413 -2.30899 -3.56329 0
M  V30 2017 O 182.437 -1.99348 -2.95193 0
M  V30 2018 O 181.296 -2.84699 -4.66485 0
M  V30 2019 H 178.39 -0.400083 -0.723784 0
M  V30 2020 H 180.936 -1.38916 -0.974703 0
M  V30 2021 H 179.708 -3.0008 -2.51133 0
M  V30 2022 H 179.331 -1.679 -3.6041 0
M  V30 2023 N 180.328 1.1314 -1.09713 0
M  V30 2024 C 181.576 1.84119 -0.833338 0
M  V30 2025 C 181.897 1.84097 0.642904 0
M  V30 2026 O 181.167 1.29881 1.46655 0
M  V30 2027 H 179.747 0.681766 -0.305293 0
M  V30 2028 H 182.409 1.37038 -1.38588 0
M  V30 2029 H 181.505 2.88543 -1.18951 0
M  V30 2030 N 181.806 0.884767 1.30421 0
M  V30 2031 C 183.034 0.518044 2.0031 0
M  V30 2032 C 183.449 -0.893408 1.66324 0
M  V30 2033 O 182.806 -1.5875 0.900262 0
M  V30 2034 C 182.857 0.682997 3.54989 0
M  V30 2035 O 182.578 2.03888 3.87764 0
M  V30 2036 C 184.079 0.31924 4.42149 0
M  V30 2037 H 181.299 0.200265 0.640418 0
M  V30 2038 H 183.843 1.19001 1.6631 0
M  V30 2039 H 181.998 0.0584052 3.87356 0
M  V30 2040 H 182.412 2.05735 4.82466 0
M  V30 2041 H 183.886 0.485555 5.4986 0
M  V30 2042 H 184.363 -0.742717 4.32875 0
M  V30 2043 H 184.969 0.920147 4.15227 0
M  V30 2044 N 183.284 -1.43765 0.645699 0
M  V30 2045 C 184.514 -2.05953 0.163318 0
M  V30 2046 C 184.922 -1.48432 -1.17322 0
M  V30 2047 O 184.265 -0.607295 -1.73371 0
M  V30 2048 C 184.327 -3.59499 -0.0103065 0
M  V30 2049 C 183.991 -4.39563 1.25035 0
M  V30 2050 C 184.988 -4.72108 2.17739 0
M  V30 2051 C 182.673 -4.79697 1.48983 0
M  V30 2052 C 184.667 -5.43688 3.3269 0
M  V30 2053 C 182.354 -5.51023 2.64229 0
M  V30 2054 C 183.352 -5.8294 3.55908 0
M  V30 2055 O 183.04 -6.5281 4.69142 0
M  V30 2056 H 182.772 -0.670798 0.0836986 0
M  V30 2057 H 185.326 -1.85384 0.884407 0
M  V30 2058 H 183.556 -3.78613 -0.78669 0
M  V30 2059 H 185.245 -4.03408 -0.449087 0
M  V30 2060 H 186.011 -4.41627 2.00476 0
M  V30 2061 H 181.89 -4.54266 0.785078 0
M  V30 2062 H 185.434 -5.68517 4.04269 0
M  V30 2063 H 181.331 -5.8092 2.81429 0
M  V30 2064 H 182.099 -6.71288 4.6831 0
M  V30 2065 N 184.763 -0.387143 -1.52771 0
M  V30 2066 C 185.673 0.456442 -2.30117 0
M  V30 2067 C 186.689 1.07342 -1.36944 0
M  V30 2068 O 187.865 1.07971 -1.70013 0
M  V30 2069 C 184.93 1.56957 -3.09136 0
M  V30 2070 C 183.991 0.977916 -4.18014 0
M  V30 2071 C 183.224 2.038 -4.93256 0
M  V30 2072 O 183.447 3.25271 -4.68567 0
M  V30 2073 O 182.381 1.6565 -5.78657 0
M  V30 2074 H 186.207 -0.17359 -3.03203 0
M  V30 2075 H 183.792 -0.150919 -1.48636 0
M  V30 2076 H 185.674 2.21628 -3.58412 0
M  V30 2077 H 184.349 2.18461 -2.38865 0
M  V30 2078 H 183.256 0.294525 -3.72939 0
M  V30 2079 H 184.589 0.407128 -4.90513 0
M  V30 2080 N 186.241 1.57166 -0.116904 0
M  V30 2081 C 187.487 1.95412 0.542405 0
M  V30 2082 C 187.82 1.00019 1.66463 0
M  V30 2083 O 187.095 0.0370346 1.94465 0
M  V30 2084 C 187.378 3.43615 1.07708 0
M  V30 2085 C 187.231 4.49781 -0.0415868 0
M  V30 2086 C 188.55 3.93616 1.96861 0
M  V30 2087 H 185.669 0.710543 0.195696 0
M  V30 2088 H 188.311 1.89027 -0.192038 0
M  V30 2089 H 186.461 3.49187 1.70296 0
M  V30 2090 H 188.133 4.56308 -0.676793 0
M  V30 2091 H 186.376 4.28033 -0.705019 0
M  V30 2092 H 187.047 5.50733 0.373717 0
M  V30 2093 H 189.523 3.90335 1.44146 0
M  V30 2094 H 188.399 4.97838 2.3119 0
M  V30 2095 H 188.66 3.34188 2.89432 0
M  V30 2096 N 187.719 -0.156864 1.56817 0
M  V30 2097 C 188.944 -0.890331 1.87318 0
M  V30 2098 C 189.369 -1.74394 0.704855 0
M  V30 2099 O 188.727 -1.77972 -0.345786 0
M  V30 2100 C 188.775 -1.73102 3.16336 0
M  V30 2101 O 187.879 -2.83422 2.99576 0
M  V30 2102 H 187.22 -0.24857 0.615718 0
M  V30 2103 H 189.75 -0.150649 2.04045 0
M  V30 2104 H 189.76 -2.12803 3.48107 0
M  V30 2105 H 188.435 -1.10412 4.00976 0
M  V30 2106 H 187.012 -2.47199 2.7919 0
M  V30 2107 N 189.197 -1.51736 -0.425897 0
M  V30 2108 C 190.443 -1.65214 -1.1761 0
M  V30 2109 C 190.776 -0.372778 -1.90589 0
M  V30 2110 O 190.051 0.628139 -1.84078 0
M  V30 2111 C 190.334 -2.86312 -2.18398 0
M  V30 2112 C 190.187 -4.24254 -1.49426 0
M  V30 2113 C 191.506 -3.02925 -3.19256 0
M  V30 2114 H 188.625 -0.601263 -0.426206 0
M  V30 2115 H 191.267 -1.8425 -0.463882 0
M  V30 2116 H 189.417 -2.70213 -2.79137 0
M  V30 2117 H 191.089 -4.52046 -0.919362 0
M  V30 2118 H 189.332 -4.26426 -0.796432 0
M  V30 2119 H 190.003 -5.05001 -2.22885 0
M  V30 2120 H 192.479 -3.1781 -2.68581 0
M  V30 2121 H 191.355 -3.89199 -3.8706 0
M  V30 2122 H 191.616 -2.15497 -3.86023 0
M  V30 2123 N 190.675 0.682077 -1.42076 0
M  V30 2124 C 191.905 1.46844 -1.45329 0
M  V30 2125 C 192.313 1.89102 -0.0609328 0
M  V30 2126 O 191.656 1.58238 0.933082 0
M  V30 2127 C 191.718 2.75375 -2.31104 0
M  V30 2128 C 191.382 2.55238 -3.79081 0
M  V30 2129 C 192.379 2.20309 -4.70914 0
M  V30 2130 C 190.064 2.70459 -4.2327 0
M  V30 2131 C 192.058 2.00859 -6.04925 0
M  V30 2132 C 189.745 2.50624 -5.57343 0
M  V30 2133 C 190.743 2.15876 -6.47986 0
M  V30 2134 O 190.431 1.96227 -7.79583 0
M  V30 2135 H 190.163 0.4586 -0.496651 0
M  V30 2136 H 192.717 0.846131 -1.87162 0
M  V30 2137 H 190.947 3.40061 -1.84107 0
M  V30 2138 H 192.636 3.37231 -2.25898 0
M  V30 2139 H 193.402 2.08153 -4.38061 0
M  V30 2140 H 189.281 2.96485 -3.53012 0
M  V30 2141 H 192.825 1.7366 -6.75639 0
M  V30 2142 H 188.722 2.62375 -5.89771 0
M  V30 2143 H 189.49 2.10883 -7.90867 0
M  V30 2144 N 192.153 1.28127 0.917671 0
M  V30 2145 C 193.381 1.17892 1.70026 0
M  V30 2146 C 193.796 -0.262958 1.8696 0
M  V30 2147 O 193.153 -1.17811 1.3938 0
M  V30 2148 C 193.204 1.86872 3.09453 0
M  V30 2149 O 192.925 3.25428 2.93306 0
M  V30 2150 C 194.426 1.8289 4.03815 0
M  V30 2151 H 191.646 0.40942 0.531617 0
M  V30 2152 H 194.19 1.69181 1.14883 0
M  V30 2153 H 192.345 1.39464 3.61426 0
M  V30 2154 H 192.759 3.59918 3.81523 0
M  V30 2155 H 194.233 2.35751 4.99125 0
M  V30 2156 H 194.71 0.800412 4.31845 0
M  V30 2157 H 195.316 2.29959 3.57769 0
M  V30 2158 N 193.631 -1.12557 1.10312 0
M  V30 2159 C 194.579 -2.20325 0.745629 0
M  V30 2160 C 195.573 -1.67429 -0.25763 0
M  V30 2161 O 196.779 -1.79612 -0.118132 0
M  V30 2162 H 193.154 -0.718118 0.223182 0
M  V30 2163 H 195.125 -2.47733 1.66346 0
M  V30 2164 C 193.874 -3.47168 0.192262 0
M  V30 2165 H 193.197 -3.88215 0.955475 0
M  V30 2166 H 194.637 -4.23995 -0.0198274 0
M  V30 2167 C 193.096 -3.19298 -1.07472 0
M  V30 2168 O 193.626 -3.3891 -2.15645 0
M  V30 2169 N 191.832 -2.73113 -0.992847 0
M  V30 2170 H 191.379 -2.57354 -0.112474 0
M  V30 2171 H 191.337 -2.54842 -1.84127 0
M  V30 2172 N 195.109 -0.891671 -1.2995 0
M  V30 2173 C 196.039 -0.379797 -2.30391 0
M  V30 2174 C 197.02 0.540919 -1.6127 0
M  V30 2175 O 198.205 0.453352 -1.88834 0
M  V30 2176 C 195.335 0.400654 -3.44981 0
M  V30 2177 C 194.289 -0.428905 -4.25846 0
M  V30 2178 C 193.615 0.478557 -5.32554 0
M  V30 2179 C 194.915 -1.67458 -4.94727 0
M  V30 2180 H 196.609 -1.21914 -2.73454 0
M  V30 2181 H 194.155 -0.587675 -1.31462 0
M  V30 2182 H 196.108 0.769434 -4.14316 0
M  V30 2183 H 194.832 1.27371 -3.0074 0
M  V30 2184 H 193.491 -0.779911 -3.58208 0
M  V30 2185 H 193.139 1.34951 -4.84559 0
M  V30 2186 H 192.839 -0.0727433 -5.87555 0
M  V30 2187 H 194.363 0.843705 -6.04743 0
M  V30 2188 H 195.777 -1.376 -5.56542 0
M  V30 2189 H 194.174 -2.16659 -5.59624 0
M  V30 2190 H 195.244 -2.41518 -4.20473 0
M  V30 2191 N 196.587 1.43421 -0.653314 0
M  V30 2192 C 197.836 2.01032 -0.164076 0
M  V30 2193 C 198.149 1.52147 1.22926 0
M  V30 2194 O 199.355 2.02031 1.81371 0
M  V30 2195 C 197.811 3.59082 -0.24252 0
M  V30 2196 C 197.419 4.1696 -1.63855 0
M  V30 2197 C 199.163 4.24079 0.18911 0
M  V30 2198 C 197.07 5.67304 -1.67092 0
M  V30 2199 H 196 0.751798 -0.0575769 0
M  V30 2200 H 198.651 1.6439 -0.815362 0
M  V30 2201 H 197.033 3.93125 0.476276 0
M  V30 2202 H 198.207 3.94416 -2.38271 0
M  V30 2203 H 196.522 3.64335 -2.01616 0
M  V30 2204 H 199.119 5.34381 0.184775 0
M  V30 2205 H 199.462 3.98005 1.22056 0
M  V30 2206 H 199.995 3.94918 -0.477938 0
M  V30 2207 H 196.734 5.98145 -2.68146 0
M  V30 2208 H 196.254 5.91904 -0.970014 0
M  V30 2209 H 197.933 6.31344 -1.4147 0
M  V30 2210 N 198.065 0.39524 1.52563 0
M  V30 2211 C 199.311 -0.185318 2.01952 0
M  V30 2212 C 199.644 -1.45964 1.28095 0
M  V30 2213 O 198.919 -1.90689 0.38315 0
M  V30 2214 C 199.202 -0.447193 3.57312 0
M  V30 2215 C 199.055 0.842828 4.41833 0
M  V30 2216 C 200.374 -1.23529 4.22408 0
M  V30 2217 H 197.493 -0.0658788 0.73405 0
M  V30 2218 H 200.135 0.525975 1.82575 0
M  V30 2219 H 198.285 -1.05312 3.73954 0
M  V30 2220 H 199.957 1.4795 4.36931 0
M  V30 2221 H 198.2 1.45686 4.08605 0
M  V30 2222 H 198.871 0.614165 5.48573 0
M  V30 2223 H 201.347 -0.722445 4.0978 0
M  V30 2224 H 200.223 -1.38727 5.3108 0
M  V30 2225 H 200.484 -2.25213 3.80436 0
M  V30 2226 N 199.544 -1.57102 0.125237 0
M  V30 2227 C 200.96 -1.57915 -0.231322 0
M  V30 2228 C 201.16 -1.13833 -1.66266 0
M  V30 2229 O 200.216 -0.828581 -2.38518 0
M  V30 2230 C 201.529 -3.00699 0.00766489 0
M  V30 2231 C 203.077 -3.12947 -0.0577483 0
M  V30 2232 C 203.552 -4.57742 0.153626 0
M  V30 2233 N 205.043 -4.63092 0.0998073 0
M  V30 2234 C 205.778 -5.72905 0.238174 0
M  V30 2235 N 205.274 -6.91445 0.433057 0
M  V30 2236 N 207.067 -5.6182 0.177308 0
M  V30 2237 H 199.218 -1.84055 1.06007 0
M  V30 2238 H 201.481 -0.850905 0.417929 0
M  V30 2239 H 201.187 -3.3726 0.997431 0
M  V30 2240 H 201.061 -3.70236 -0.721452 0
M  V30 2241 H 203.448 -2.7624 -1.03804 0
M  V30 2242 H 203.529 -2.4594 0.70335 0
M  V30 2243 H 203.173 -4.95149 1.13092 0
M  V30 2244 H 203.103 -5.22848 -0.627534 0
M  V30 2245 H 205.594 -3.77871 -0.047051 0
M  V30 2246 H 205.907 -7.70985 0.529332 0
M  V30 2247 H 204.252 -6.93415 0.469109 0
M  V30 2248 H 207.443 -4.68093 0.0259748 0
M  V30 2249 H 207.616 -6.47357 0.288582 0
M  V30 2250 N 201.022 0.148545 -1.56898 0
M  V30 2251 C 202.247 0.880385 -1.87787 0
M  V30 2252 C 202.672 1.74018 -0.714093 0
M  V30 2253 O 202.03 1.78153 0.336343 0
M  V30 2254 C 202.078 1.71422 -3.17249 0
M  V30 2255 O 201.182 2.8183 -3.01074 0
M  V30 2256 H 200.523 0.245301 -0.617028 0
M  V30 2257 H 203.053 0.139826 -2.04122 0
M  V30 2258 H 203.063 2.10954 -3.49231 0
M  V30 2259 H 201.738 1.08284 -4.01556 0
M  V30 2260 H 200.315 2.45715 -2.80497 0
M  V30 2261 N 202.5 1.5196 0.417844 0
M  V30 2262 C 203.448 1.75278 1.52907 0
M  V30 2263 C 204.442 0.619611 1.57662 0
M  V30 2264 O 205.648 0.801457 1.61173 0
M  V30 2265 H 202.023 0.554141 0.508362 0
M  V30 2266 H 203.994 2.68389 1.30422 0
M  V30 2267 C 202.743 1.91262 2.90369 0
M  V30 2268 H 202.066 2.77872 2.8745 0
M  V30 2269 H 203.506 2.11581 3.67436 0
M  V30 2270 C 201.965 0.677431 3.30019 0
M  V30 2271 O 202.495 -0.158799 4.01386 0
M  V30 2272 N 200.701 0.515851 2.85985 0
M  V30 2273 H 200.248 1.19744 2.28077 0
M  V30 2274 H 200.206 -0.309315 3.12875 0
M  V30 2275 N 203.978 -0.674533 1.42435 0
M  V30 2276 C 205.226 -1.43175 1.42637 0
M  V30 2277 C 205.547 -1.94951 0.0438992 0
M  V30 2278 O 204.817 -1.7308 -0.917607 0
M  V30 2279 H 203.397 -0.531307 0.525092 0
M  V30 2280 H 206.059 -0.797006 1.77859 0
M  V30 2281 H 205.155 -2.28463 2.12629 0
M  V30 2282 N 205.456 -1.28612 -0.910864 0
M  V30 2283 C 206.681 -1.1891 -1.69927 0
M  V30 2284 C 207.106 0.248372 -1.86453 0
M  V30 2285 O 206.464 1.17961 -1.37676 0
M  V30 2286 C 206.512 -1.89578 -3.06745 0
M  V30 2287 O 205.616 -1.20521 -3.94396 0
M  V30 2288 H 204.957 -0.412632 -0.520222 0
M  V30 2289 H 207.487 -1.69985 -1.1387 0
M  V30 2290 H 207.497 -1.97597 -3.56958 0
M  V30 2291 H 206.172 -2.94136 -2.94035 0
M  V30 2292 H 204.749 -1.20684 -3.52831 0
M  V30 2293 N 206.934 1.1197 -1.10907 0
M  V30 2294 C 208.18 1.8386 -0.855773 0
M  V30 2295 C 208.513 1.84134 0.617103 0
M  V30 2296 O 207.788 1.29041 1.45529 0
M  V30 2297 C 208.071 3.31305 -1.411 0
M  V30 2298 C 207.924 3.39456 -2.9511 0
M  V30 2299 C 209.243 4.2721 -1.05736 0
M  V30 2300 H 206.362 0.667545 -0.312334 0
M  V30 2301 H 209.004 1.31331 -1.37303 0
M  V30 2302 H 207.154 3.76169 -0.97105 0
M  V30 2303 H 208.826 3.03191 -3.47668 0
M  V30 2304 H 207.069 2.79849 -3.31462 0
M  V30 2305 H 207.74 4.43209 -3.29044 0
M  V30 2306 H 210.216 3.90497 -1.43706 0
M  V30 2307 H 209.092 5.28775 -1.47269 0
M  V30 2308 H 209.353 4.42088 0.0325958 0
M  V30 2309 N 208.412 0.89855 1.29475 0
M  V30 2310 C 209.342 0.39201 2.30186 0
M  V30 2311 C 210.323 -0.532359 1.61555 0
M  V30 2312 O 211.508 -0.443331 1.89072 0
M  V30 2313 C 208.638 -0.382353 3.45189 0
M  V30 2314 C 207.592 0.451483 4.25612 0
M  V30 2315 C 206.918 -0.450307 5.328 0
M  V30 2316 C 208.218 1.70079 4.93832 0
M  V30 2317 H 209.912 1.23362 2.72804 0
M  V30 2318 H 207.458 0.594638 1.31149 0
M  V30 2319 H 209.411 -0.747451 4.14718 0
M  V30 2320 H 208.135 -1.25774 3.01411 0
M  V30 2321 H 206.794 0.798897 3.57789 0
M  V30 2322 H 206.442 -1.32379 4.85268 0
M  V30 2323 H 206.142 0.103902 5.87508 0
M  V30 2324 H 207.666 -0.811623 6.05182 0
M  V30 2325 H 209.08 1.40549 5.55805 0
M  V30 2326 H 207.477 2.19623 5.58467 0
M  V30 2327 H 208.547 2.43744 4.19186 0
M  V30 2328 N 209.89 -1.43072 0.660911 0
M  V30 2329 C 211.136 -2.02545 0.186337 0
M  V30 2330 C 211.491 -1.51253 -1.18913 0
M  V30 2331 O 210.784 -0.699167 -1.78388 0
M  V30 2332 C 210.978 -3.57103 0.145563 0
M  V30 2333 C 210.807 -4.23393 1.51554 0
M  V30 2334 C 209.577 -4.59144 2.10984 0
M  V30 2335 C 211.775 -4.51897 2.45548 0
M  V30 2336 N 209.757 -5.10545 3.40907 0
M  V30 2337 C 211.128 -5.04698 3.6011 0
M  V30 2338 C 213.183 -4.33872 2.44253 0
M  V30 2339 C 211.886 -5.41371 4.73613 0
M  V30 2340 C 213.912 -4.71612 3.56842 0
M  V30 2341 C 213.274 -5.24553 4.70131 0
M  V30 2342 H 209.373 -0.773823 0.112792 0
M  V30 2343 H 211.957 -1.74137 0.870885 0
M  V30 2344 H 210.128 -3.85059 -0.508353 0
M  V30 2345 H 211.86 -4.03264 -0.340598 0
M  V30 2346 H 208.615 -4.4444 1.63615 0
M  V30 2347 H 209.039 -5.40689 4.07411 0
M  V30 2348 H 213.681 -3.92208 1.579 0
M  V30 2349 H 211.399 -5.81975 5.60652 0
M  V30 2350 H 214.985 -4.59354 3.57051 0
M  V30 2351 H 213.865 -5.53213 5.5581 0
M  V30 2352 N 211.368 -0.403325 -1.52352 0
M  V30 2353 C 212.298 0.416205 -2.29761 0
M  V30 2354 C 213.279 1.05123 -1.33728 0
M  V30 2355 O 214.464 1.06134 -1.62632 0
M  V30 2356 C 211.594 1.53624 -3.11475 0
M  V30 2357 C 210.548 1.02653 -4.15507 0
M  V30 2358 C 209.874 2.23971 -4.85532 0
M  V30 2359 C 211.174 0.08463 -5.22231 0
M  V30 2360 H 212.868 -0.229701 -2.98518 0
M  V30 2361 H 210.414 -0.111913 -1.43564 0
M  V30 2362 H 212.367 2.1165 -3.64393 0
M  V30 2363 H 211.091 2.20994 -2.40477 0
M  V30 2364 H 209.75 0.46871 -3.63591 0
M  V30 2365 H 209.398 2.89883 -4.11068 0
M  V30 2366 H 209.098 1.90521 -5.55856 0
M  V30 2367 H 210.622 2.82614 -5.41259 0
M  V30 2368 H 212.036 0.573509 -5.70424 0
M  V30 2369 H 210.433 -0.160783 -5.99885 0
M  V30 2370 H 211.503 -0.86237 -4.7717 0
M  V30 2371 N 212.846 1.57033 -0.133567 0
M  V30 2372 C 214.257 1.82593 0.389464 0
M  V30 2373 C 214.608 1.05156 1.6564 0
M  V30 2374 O 213.733 0.292644 2.14412 0
M  V30 2375 C 214.328 3.31204 0.713377 0
M  V30 2376 C 212.887 3.57393 1.18098 0
M  V30 2377 C 212.034 2.76598 0.197126 0
M  V30 2378 H 214.985 1.54598 -0.358481 0
M  V30 2379 H 215.006 3.46627 1.56939 0
M  V30 2380 H 214.518 3.87537 -0.2089 0
M  V30 2381 H 212.619 3.06433 2.11966 0
M  V30 2382 H 212.732 4.65915 1.11624 0
M  V30 2383 H 211.096 2.45257 0.687088 0
M  V30 2384 H 211.879 3.35697 -0.718504 0
M  V30 2385 N 214.325 -0.140222 1.56975 0
M  V30 2386 C 215.736 -0.699596 1.73097 0
M  V30 2387 C 216.087 -1.8134 0.749022 0
M  V30 2388 O 215.212 -2.16241 -0.0828503 0
M  V30 2389 C 215.807 -1.27582 3.1386 0
M  V30 2390 C 214.366 -1.78169 3.31561 0
M  V30 2391 C 213.513 -0.672855 2.69013 0
M  V30 2392 H 216.464 0.0855115 1.58469 0
M  V30 2393 H 216.485 -2.14561 3.14235 0
M  V30 2394 H 215.997 -0.464955 3.85305 0
M  V30 2395 H 214.098 -2.61801 2.65124 0
M  V30 2396 H 214.211 -1.90574 4.39566 0
M  V30 2397 H 212.575 -1.10118 2.29665 0
M  V30 2398 H 213.358 0.126679 3.43066 0
M  V30 2399 N 215.803 -1.52179 -0.40978 0
M  V30 2400 C 216.766 -1.74853 -1.48186 0
M  V30 2401 C 217.766 -0.618417 -1.48433 0
M  V30 2402 O 218.956 -0.886286 -1.49969 0
M  V30 2403 C 216.088 -1.8303 -2.87598 0
M  V30 2404 H 217.281 -2.70559 -1.29374 0
M  V30 2405 H 214.834 -1.42586 -0.640233 0
M  V30 2406 H 215.569 -0.89236 -3.11781 0
M  V30 2407 H 215.354 -2.65187 -2.88822 0
M  V30 2408 H 216.844 -2.02316 -3.65319 0
M  V30 2409 N 217.281 0.66697 -1.42791 0
M  V30 2410 C 218.53 1.42278 -1.42968 0
M  V30 2411 C 218.843 1.9553 -0.0524489 0
M  V30 2412 O 220.049 2.71414 0.068363 0
M  V30 2413 C 218.505 2.57418 -2.51524 0
M  V30 2414 C 218.113 2.10832 -3.9529 0
M  V30 2415 C 219.857 3.34878 -2.60877 0
M  V30 2416 C 217.764 3.23101 -4.95338 0
M  V30 2417 H 216.694 0.534533 -0.531781 0
M  V30 2418 H 219.345 0.721302 -1.68729 0
M  V30 2419 H 217.727 3.29971 -2.18941 0
M  V30 2420 H 218.901 1.4538 -4.37266 0
M  V30 2421 H 217.216 1.46289 -3.89857 0
M  V30 2422 H 219.813 4.18505 -3.32802 0
M  V30 2423 H 220.156 3.81993 -1.6549 0
M  V30 2424 H 220.689 2.69398 -2.92693 0
M  V30 2425 H 217.428 2.80969 -5.9223 0
M  V30 2426 H 216.948 3.87309 -4.57987 0
M  V30 2427 H 218.627 3.88447 -5.17415 0
M  V30 2428 N 218.759 1.29093 0.90403 0
M  V30 2429 C 219.989 1.19516 1.68522 0
M  V30 2430 C 220.397 -0.24738 1.87576 0
M  V30 2431 O 219.74 -1.17798 1.40959 0
M  V30 2432 C 219.802 1.83249 3.0929 0
M  V30 2433 C 219.466 3.32531 3.13484 0
M  V30 2434 C 220.463 4.28821 2.93953 0
M  V30 2435 C 218.148 3.73656 3.35688 0
M  V30 2436 C 220.142 5.64212 2.96553 0
M  V30 2437 C 217.829 5.0917 3.37919 0
M  V30 2438 C 218.827 6.04258 3.18373 0
M  V30 2439 O 218.515 7.37298 3.20385 0
M  V30 2440 H 218.247 0.415467 0.533257 0
M  V30 2441 H 220.801 1.70912 1.13922 0
M  V30 2442 H 219.031 1.26358 3.65473 0
M  V30 2443 H 220.72 1.68054 3.69476 0
M  V30 2444 H 221.486 3.98382 2.76616 0
M  V30 2445 H 217.365 3.00101 3.49943 0
M  V30 2446 H 220.909 6.38407 2.81216 0
M  V30 2447 H 216.806 5.39256 3.54787 0
M  V30 2448 H 217.574 7.46048 3.36681 0
M  V30 2449 N 220.237 -1.11381 1.11499 0
M  V30 2450 C 221.184 -2.17439 0.773887 0
M  V30 2451 C 222.154 -1.64132 -0.254899 0
M  V30 2452 O 223.339 -1.90345 -0.13168 0
M  V30 2453 C 220.479 -3.44373 0.223917 0
M  V30 2454 C 219.592 -4.1168 1.30934 0
M  V30 2455 C 218.727 -5.263 0.71984 0
M  V30 2456 C 217.766 -5.85493 1.78507 0
M  V30 2457 N 216.903 -6.91507 1.21502 0
M  V30 2458 H 221.743 -2.45962 1.68246 0
M  V30 2459 H 219.28 -1.20744 0.840191 0
M  V30 2460 H 221.238 -4.17047 -0.112921 0
M  V30 2461 H 219.868 -3.16232 -0.647851 0
M  V30 2462 H 218.92 -3.37073 1.76312 0
M  V30 2463 H 220.232 -4.51729 2.11524 0
M  V30 2464 H 219.386 -6.05785 0.333094 0
M  V30 2465 H 218.125 -4.87559 -0.117377 0
M  V30 2466 H 217.13 -5.04686 2.18111 0
M  V30 2467 H 218.355 -6.26301 2.62533 0
M  V30 2468 H 216.301 -6.54783 0.399455 0
M  V30 2469 H 216.218 -7.30214 1.95763 0
M  V30 2470 H 217.486 -7.74795 0.855181 0
M  V30 2471 N 221.715 -0.905404 -1.28997 0
M  V30 2472 C 222.94 -0.549175 -1.99997 0
M  V30 2473 C 223.365 0.860276 -1.67275 0
M  V30 2474 O 222.723 1.57355 -0.900502 0
M  V30 2475 C 222.771 -0.755185 -3.52604 0
M  V30 2476 O 221.875 0.189692 -4.11964 0
M  V30 2477 H 221.216 -0.213899 -0.628604 0
M  V30 2478 H 223.746 -1.21856 -1.64354 0
M  V30 2479 H 223.756 -0.662045 -4.02593 0
M  V30 2480 H 222.431 -1.78271 -3.75755 0
M  V30 2481 H 221.008 0.0485257 -3.72868 0
M  V30 2482 N 223.193 1.4272 -0.668489 0
M  V30 2483 C 224.156 2.292 0.00448567 0
M  V30 2484 C 225.156 1.43001 0.735339 0
M  V30 2485 O 226.346 1.64461 0.57429 0
M  V30 2486 C 223.478 3.25375 1.01705 0
M  V30 2487 H 224.671 2.90199 -0.756608 0
M  V30 2488 H 222.224 1.50254 -0.430506 0
M  V30 2489 H 222.959 2.69301 1.80686 0
M  V30 2490 H 222.744 3.88944 0.496463 0
M  V30 2491 H 224.234 3.90245 1.48655 0
M  V30 2492 N 224.671 0.411399 1.52136 0
M  V30 2493 C 225.911 -0.163143 2.03748 0
M  V30 2494 C 226.275 -1.42187 1.29022 0
M  V30 2495 O 227.476 -2.075 1.70872 0
M  V30 2496 C 225.747 -0.402651 3.55125 0
M  V30 2497 S 227.306 -0.944315 4.28519 0
M  V30 2498 H 224.124 -0.0439833 0.709638 0
M  V30 2499 H 226.726 0.56484 1.87163 0
M  V30 2500 H 225.43 0.520212 4.0709 0
M  V30 2501 H 224.961 -1.15844 3.75957 0
M  V30 2502 H 226.976 -2.22463 4.43536 0
M  V30 2503 N 226.149 -1.5696 0.141893 0
M  V30 2504 C 227.096 -2.16501 -0.799737 0
M  V30 2505 C 228.066 -1.09643 -1.24771 0
M  V30 2506 O 229.251 -1.3766 -1.32115 0
M  V30 2507 C 226.391 -2.78679 -2.03549 0
M  V30 2508 C 225.504 -3.99914 -1.6338 0
M  V30 2509 C 224.639 -4.50106 -2.82096 0
M  V30 2510 C 223.678 -5.63819 -2.38275 0
M  V30 2511 N 222.815 -6.08651 -3.49983 0
M  V30 2512 H 227.655 -2.96632 -0.285179 0
M  V30 2513 H 225.192 -1.46533 -0.129053 0
M  V30 2514 H 227.15 -3.1287 -2.75986 0
M  V30 2515 H 225.78 -2.012 -2.52425 0
M  V30 2516 H 224.832 -3.71735 -0.807279 0
M  V30 2517 H 226.144 -4.82311 -1.27192 0
M  V30 2518 H 225.298 -4.86325 -3.62729 0
M  V30 2519 H 224.037 -3.66706 -3.21525 0
M  V30 2520 H 223.042 -5.2718 -1.56081 0
M  V30 2521 H 224.267 -6.49 -1.99938 0
M  V30 2522 H 222.213 -5.28188 -3.89042 0
M  V30 2523 H 222.13 -6.85961 -3.17794 0
M  V30 2524 H 223.398 -6.49515 -4.30988 0
M  V30 2525 N 227.627 0.131896 -1.57047 0
M  V30 2526 C 228.876 0.84044 -1.83356 0
M  V30 2527 C 229.189 1.81646 -0.725535 0
M  V30 2528 O 230.395 2.57025 -0.874659 0
M  V30 2529 C 228.851 1.54528 -3.25037 0
M  V30 2530 C 228.459 0.610902 -4.43815 0
M  V30 2531 C 230.203 2.23972 -3.60606 0
M  V30 2532 C 228.11 1.31823 -5.76521 0
M  V30 2533 H 227.04 0.317599 -0.683847 0
M  V30 2534 H 229.691 0.0931561 -1.83263 0
M  V30 2535 H 228.073 2.33873 -3.19561 0
M  V30 2536 H 229.247 -0.148407 -4.60561 0
M  V30 2537 H 227.562 0.0241016 -4.16393 0
M  V30 2538 H 230.159 2.77558 -4.57018 0
M  V30 2539 H 230.502 3.01173 -2.87403 0
M  V30 2540 H 231.035 1.51529 -3.6781 0
M  V30 2541 H 227.774 0.587771 -6.52859 0
M  V30 2542 H 227.294 2.04987 -5.63685 0
M  V30 2543 H 228.973 1.855 -6.19838 0
M  V30 2544 N 229.106 1.52395 0.401703 0
M  V30 2545 C 230.016 1.7917 1.51444 0
M  V30 2546 C 231.032 0.677691 1.6026 0
M  V30 2547 O 232.208 0.963909 1.76835 0
M  V30 2548 C 229.273 1.94347 2.87107 0
M  V30 2549 C 228.334 3.18257 2.88116 0
M  V30 2550 C 227.567 3.32701 4.17308 0
M  V30 2551 O 227.79 2.52238 5.11598 0
M  V30 2552 O 226.724 4.25891 4.25324 0
M  V30 2553 H 230.55 2.73633 1.31752 0
M  V30 2554 H 228.135 1.3733 0.588296 0
M  V30 2555 H 230.017 2.06109 3.67555 0
M  V30 2556 H 228.692 1.03073 3.06851 0
M  V30 2557 H 227.599 3.11947 2.06494 0
M  V30 2558 H 228.932 4.09336 2.73322 0
M  V30 2559 N 230.584 -0.659388 1.43143 0
M  V30 2560 C 231.83 -1.42145 1.44647 0
M  V30 2561 C 232.163 -1.9408 0.0681907 0
M  V30 2562 O 231.438 -1.71899 -0.910007 0
M  V30 2563 C 231.721 -2.60735 2.48373 0
M  V30 2564 C 231.574 -2.14332 3.95451 0
M  V30 2565 C 232.893 -3.62951 2.48906 0
M  V30 2566 H 230.012 -0.51552 0.526696 0
M  V30 2567 H 232.654 -0.748069 1.74654 0
M  V30 2568 H 230.804 -3.18184 2.22916 0
M  V30 2569 H 232.476 -1.61932 4.31944 0
M  V30 2570 H 230.719 -1.4576 4.08578 0
M  V30 2571 H 231.39 -2.99583 4.63631 0
M  V30 2572 H 233.866 -3.1525 2.71582 0
M  V30 2573 H 232.742 -4.43487 3.23435 0
M  V30 2574 H 233.003 -4.15126 1.52061 0
M  V30 2575 N 232.062 -1.29571 -0.897171 0
M  V30 2576 C 233.009 -1.14916 -2.00158 0
M  V30 2577 C 233.979 -0.0418149 -1.66047 0
M  V30 2578 O 235.164 -0.209793 -1.89643 0
M  V30 2579 C 232.304 -0.834307 -3.34863 0
M  V30 2580 C 231.417 -2.02234 -3.8174 0
M  V30 2581 C 230.552 -1.64664 -5.05034 0
M  V30 2582 C 229.591 -2.80033 -5.44286 0
M  V30 2583 N 228.728 -2.42843 -6.58765 0
M  V30 2584 H 233.568 -2.09403 -2.12025 0
M  V30 2585 H 231.105 -1.042 -1.0383 0
M  V30 2586 H 233.063 -0.632436 -4.12379 0
M  V30 2587 H 231.693 0.0736656 -3.22716 0
M  V30 2588 H 230.745 -2.33583 -3.00238 0
M  V30 2589 H 232.057 -2.88673 -4.06779 0
M  V30 2590 H 231.211 -1.4078 -5.9014 0
M  V30 2591 H 229.95 -0.753766 -4.8184 0
M  V30 2592 H 228.955 -3.04596 -4.57713 0
M  V30 2593 H 230.18 -3.69989 -5.6946 0
M  V30 2594 H 228.126 -1.56046 -6.3717 0
M  V30 2595 H 228.043 -3.22815 -6.83613 0
M  V30 2596 H 229.311 -2.22285 -7.47134 0
M  V30 2597 N 233.54 1.10788 -1.12088 0
M  V30 2598 C 234.77 1.86191 -0.895351 0
M  V30 2599 C 235.178 1.80763 0.558702 0
M  V30 2600 O 234.521 1.19188 1.39785 0
M  V30 2601 C 234.583 3.35659 -1.28737 0
M  V30 2602 C 234.247 3.64849 -2.75198 0
M  V30 2603 C 235.244 3.61757 -3.734 0
M  V30 2604 C 232.929 3.93641 -3.12013 0
M  V30 2605 C 234.923 3.87045 -5.06434 0
M  V30 2606 C 232.61 4.18585 -4.4523 0
M  V30 2607 C 233.608 4.15277 -5.42249 0
M  V30 2608 O 233.296 4.3959 -6.73065 0
M  V30 2609 H 233.028 0.595425 -0.32007 0
M  V30 2610 H 235.582 1.40992 -1.49367 0
M  V30 2611 H 233.812 3.81497 -0.63224 0
M  V30 2612 H 235.501 3.92441 -1.03656 0
M  V30 2613 H 236.267 3.39557 -3.46303 0
M  V30 2614 H 232.146 3.95348 -2.37109 0
M  V30 2615 H 235.69 3.84378 -5.82151 0
M  V30 2616 H 231.587 4.40264 -4.72057 0
M  V30 2617 H 232.355 4.57123 -6.78956 0
M  V30 2618 N 235.018 0.912232 1.28515 0
M  V30 2619 C 236.265 0.544599 1.95039 0
M  V30 2620 C 236.593 -0.911435 1.71823 0
M  V30 2621 O 235.848 -1.66317 1.03137 0
M  V30 2622 C 236.147 0.798392 3.48368 0
M  V30 2623 C 235.813 2.23374 3.91682 0
M  V30 2624 C 234.475 2.62617 4.03219 0
M  V30 2625 C 236.827 3.16786 4.13879 0
M  V30 2626 C 234.155 3.94429 4.3433 0
M  V30 2627 C 236.507 4.48161 4.46469 0
M  V30 2628 C 235.171 4.8726 4.56217 0
M  V30 2629 H 234.441 0.199283 0.7137 0
M  V30 2630 H 237.088 1.15327 1.52879 0
M  V30 2631 H 235.393 0.106908 3.91654 0
M  V30 2632 H 237.09 0.493141 3.97956 0
M  V30 2633 H 233.68 1.91922 3.83228 0
M  V30 2634 H 237.864 2.87677 4.0442 0
M  V30 2635 H 233.12 4.24426 4.40082 0
M  V30 2636 H 237.294 5.20559 4.62592 0
M  V30 2637 H 234.921 5.89431 4.80078 0
M  V30 2638 N 236.496 -1.42363 0.676048 0
M  V30 2639 C 237.907 -1.84649 0.275948 0
M  V30 2640 C 238.258 -1.56588 -1.18214 0
M  V30 2641 O 237.383 -1.02634 -1.90513 0
M  V30 2642 C 237.978 -3.35178 0.494053 0
M  V30 2643 C 236.537 -3.76109 0.148061 0
M  V30 2644 C 235.684 -2.65931 0.785891 0
M  V30 2645 H 238.635 -1.32192 0.878121 0
M  V30 2646 H 238.656 -3.79655 -0.25343 0
M  V30 2647 H 238.168 -3.55571 1.55535 0
M  V30 2648 H 236.269 -3.61323 -0.909742 0
M  V30 2649 H 236.382 -4.7546 0.589454 0
M  V30 2650 H 234.746 -2.53773 0.217113 0
M  V30 2651 H 235.529 -2.89146 1.85067 0
M  V30 2652 N 237.974 -0.419461 -1.51915 0
M  V30 2653 C 239.221 0.152939 -2.01922 0
M  V30 2654 C 239.549 1.4426 -1.30458 0
M  V30 2655 O 238.804 1.91514 -0.402593 0
M  V30 2656 C 239.103 0.437067 -3.54717 0
M  V30 2657 C 238.769 -0.764632 -4.44369 0
M  V30 2658 C 237.431 -1.09423 -4.68594 0
M  V30 2659 C 239.783 -1.56713 -4.97082 0
M  V30 2660 C 237.111 -2.22732 -5.42777 0
M  V30 2661 C 239.463 -2.69107 -5.72507 0
M  V30 2662 C 238.127 -3.02541 -5.95 0
M  V30 2663 H 237.397 0.0559644 -0.738884 0
M  V30 2664 H 240.044 -0.562998 -1.83037 0
M  V30 2665 H 238.349 1.23469 -3.71837 0
M  V30 2666 H 240.046 0.893083 -3.90928 0
M  V30 2667 H 236.636 -0.497775 -4.257 0
M  V30 2668 H 240.82 -1.32571 -4.78266 0
M  V30 2669 H 236.076 -2.48971 -5.58411 0
M  V30 2670 H 240.25 -3.31671 -6.12346 0
M  V30 2671 H 237.877 -3.90457 -6.52264 0
M  V30 2672 N 239.452 1.56882 -0.150215 0
M  V30 2673 C 240.729 1.87844 0.545327 0
M  V30 2674 C 241.109 1.0567 1.82749 0
M  V30 2675 O 240.457 0.144442 2.28043 0
M  V30 2676 C 240.667 3.39526 0.80767 0
M  V30 2677 C 242.015 4.08814 1.14703 0
M  V30 2678 O 243.039 3.44723 0.896917 0
M  V30 2679 O 241.898 5.22004 1.61784 0
M  V30 2680 H 238.992 0.778677 0.278553 0
M  V30 2681 H 241.538 1.68666 -0.187068 0
M  V30 2682 H 240.31 3.91173 -0.0996096 0
M  V30 2683 H 239.933 3.64243 1.59413 0
M  V30 2684 N 240.93 -0.123565 1.57115 0
M  V30 2685 C 241.862 -1.17739 1.96648 0
M  V30 2686 C 242.875 -1.37906 0.865201 0
M  V30 2687 O 244.064 -1.37062 1.14351 0
M  V30 2688 C 241.164 -2.53821 2.24562 0
M  V30 2689 C 240.337 -2.54317 3.55867 0
M  V30 2690 C 239.396 -3.72112 3.72047 0
M  V30 2691 O 238.422 -3.55907 4.44206 0
M  V30 2692 N 239.624 -4.90498 3.10471 0
M  V30 2693 H 242.389 -0.841147 2.87654 0
M  V30 2694 H 239.95 -0.31289 1.58848 0
M  V30 2695 H 241.942 -3.31175 2.32606 0
M  V30 2696 H 240.512 -2.79645 1.39705 0
M  V30 2697 H 239.732 -1.62711 3.59053 0
M  V30 2698 H 241.02 -2.51701 4.42181 0
M  V30 2699 H 240.418 -5.06567 2.51806 0
M  V30 2700 H 238.975 -5.65544 3.24043 0
M  V30 2701 N 242.408 -1.52605 -0.393616 0
M  V30 2702 C 243.34 -1.73303 -1.49995 0
M  V30 2703 C 244.353 -0.613473 -1.50799 0
M  V30 2704 O 245.542 -0.889049 -1.54784 0
M  V30 2705 C 242.642 -1.77245 -2.88855 0
M  V30 2706 C 241.815 -3.06483 -3.12069 0
M  V30 2707 C 240.874 -3.02033 -4.30886 0
M  V30 2708 O 239.9 -3.75907 -4.27414 0
M  V30 2709 N 241.102 -2.20897 -5.36828 0
M  V30 2710 H 243.867 -2.68756 -1.32629 0
M  V30 2711 H 241.428 -1.51036 -0.583083 0
M  V30 2712 H 243.42 -1.7178 -3.66434 0
M  V30 2713 H 241.99 -0.891993 -2.99603 0
M  V30 2714 H 241.21 -3.25474 -2.22396 0
M  V30 2715 H 242.498 -3.91947 -3.2443 0
M  V30 2716 H 241.896 -1.60336 -5.42502 0
M  V30 2717 H 240.453 -2.21275 -6.13091 0
M  V30 2718 N 243.887 0.651787 -1.4349 0
M  V30 2719 C 244.835 1.78586 -1.49029 0
M  V30 2720 C 245.829 1.65448 -0.363767 0
M  V30 2721 O 247.035 1.71777 -0.537821 0
M  V30 2722 H 243.41 0.589236 -0.467231 0
M  V30 2723 H 245.381 1.71035 -2.44519 0
M  V30 2724 C 244.13 3.16851 -1.43181 0
M  V30 2725 H 243.453 3.27598 -2.29171 0
M  V30 2726 H 244.893 3.96156 -1.51118 0
M  V30 2727 C 243.352 3.36568 -0.149616 0
M  V30 2728 O 243.882 3.93885 0.788509 0
M  V30 2729 N 242.088 2.90539 -0.0593484 0
M  V30 2730 H 241.635 2.4408 -0.823575 0
M  V30 2731 H 241.593 3.04108 0.797853 0
M  V30 2732 N 245.365 1.30045 0.890287 0
M  V30 2733 C 246.605 1.19839 1.65584 0
M  V30 2734 C 246.969 -0.244175 1.90441 0
M  V30 2735 O 248.17 -0.469378 2.6467 0
M  V30 2736 C 246.441 1.99876 2.96284 0
M  V30 2737 S 248 2.06309 3.87275 0
M  V30 2738 H 244.818 0.427157 0.568382 0
M  V30 2739 H 247.42 1.64453 1.05715 0
M  V30 2740 H 246.124 3.03809 2.75913 0
M  V30 2741 H 245.655 1.55903 3.61189 0
M  V30 2742 H 247.67 1.18661 4.81803 0
M  V30 2743 N 246.843 -1.10192 1.12674 0
M  V30 2744 C 248.071 -1.85983 0.906527 0
M  V30 2745 C 248.486 -1.80783 -0.544333 0
M  V30 2746 O 247.843 -1.19834 -1.37645 0
M  V30 2747 C 247.894 -3.34281 1.37618 0
M  V30 2748 O 247.615 -3.39401 2.77017 0
M  V30 2749 C 249.116 -4.26938 1.19325 0
M  V30 2750 H 246.336 -0.587716 0.323775 0
M  V30 2751 H 248.88 -1.39284 1.49734 0
M  V30 2752 H 247.035 -3.78436 0.828539 0
M  V30 2753 H 247.449 -4.31838 2.97684 0
M  V30 2754 H 248.923 -5.29181 1.57071 0
M  V30 2755 H 249.4 -4.38995 0.134097 0
M  V30 2756 H 250.006 -3.8859 1.72852 0
M  V30 2757 N 248.321 -0.919034 -1.28029 0
M  V30 2758 C 249.251 -0.428581 -2.29533 0
M  V30 2759 C 250.232 0.50659 -1.62381 0
M  V30 2760 O 251.417 0.413195 -1.89753 0
M  V30 2761 C 248.547 0.327388 -3.45753 0
M  V30 2762 C 247.501 -0.519137 -4.2484 0
M  V30 2763 C 246.827 0.365486 -5.33449 0
M  V30 2764 C 248.127 -1.77914 -4.91064 0
M  V30 2765 H 249.821 -1.27687 -2.70807 0
M  V30 2766 H 247.367 -0.615428 -1.30186 0
M  V30 2767 H 249.32 0.681378 -4.15855 0
M  V30 2768 H 248.044 1.20963 -3.03374 0
M  V30 2769 H 246.703 -0.855717 -3.56473 0
M  V30 2770 H 246.351 1.24642 -4.87312 0
M  V30 2771 H 246.051 -0.197356 -5.87268 0
M  V30 2772 H 247.575 0.715241 -6.06396 0
M  V30 2773 H 248.989 -1.49374 -5.53498 0
M  V30 2774 H 247.386 -2.2848 -5.54903 0
M  V30 2775 H 248.456 -2.50382 -4.15255 0
M  V30 2776 N 249.799 1.42003 -0.683588 0
M  V30 2777 C 250.746 2.30798 -0.0107309 0
M  V30 2778 C 251.716 1.4645 0.783688 0
M  V30 2779 O 252.901 1.75263 0.754156 0
M  V30 2780 C 250.041 3.3238 0.928306 0
M  V30 2781 C 249.154 4.31814 0.126776 0
M  V30 2782 C 248.289 5.20468 1.06236 0
M  V30 2783 C 247.328 6.11577 0.253035 0
M  V30 2784 N 246.465 6.92754 1.14179 0
M  V30 2785 H 251.305 2.8778 -0.773727 0
M  V30 2786 H 248.842 1.41745 -0.393283 0
M  V30 2787 H 250.8 3.89813 1.48666 0
M  V30 2788 H 249.43 2.76976 1.65783 0
M  V30 2789 H 248.482 3.76427 -0.54833 0
M  V30 2790 H 249.794 4.96276 -0.501192 0
M  V30 2791 H 248.948 5.82677 1.69035 0
M  V30 2792 H 247.687 4.56204 1.7242 0
M  V30 2793 H 246.692 5.48428 -0.388108 0
M  V30 2794 H 247.917 6.77892 -0.404839 0
M  V30 2795 H 245.863 6.3111 1.78987 0
M  V30 2796 H 245.78 7.53855 0.569111 0
M  V30 2797 H 247.048 7.59441 1.75697 0
M  V30 2798 N 251.277 0.427512 1.51691 0
M  V30 2799 C 252.524 -0.142229 2.02 0
M  V30 2800 C 252.852 -1.43566 1.31221 0
M  V30 2801 O 252.107 -1.91298 0.412744 0
M  V30 2802 C 252.406 -0.418249 3.54944 0
M  V30 2803 C 252.072 0.788187 4.43958 0
M  V30 2804 C 250.734 1.11906 4.68007 0
M  V30 2805 C 253.086 1.59347 4.96244 0
M  V30 2806 C 250.414 2.25608 5.41588 0
M  V30 2807 C 252.766 2.7214 5.71072 0
M  V30 2808 C 251.43 3.05692 5.93387 0
M  V30 2809 H 250.7 -0.0520451 0.73917 0
M  V30 2810 H 253.347 0.572697 1.82736 0
M  V30 2811 H 251.652 -1.21496 3.72486 0
M  V30 2812 H 253.349 -0.872339 3.91397 0
M  V30 2813 H 249.939 0.520344 4.2543 0
M  V30 2814 H 254.123 1.35106 4.77556 0
M  V30 2815 H 249.379 2.51929 5.57083 0
M  V30 2816 H 253.553 3.34914 6.10578 0
M  V30 2817 H 251.18 3.9391 6.50184 0
M  V30 2818 N 252.755 -1.56801 0.158532 0
M  V30 2819 C 254.171 -1.5837 -0.197774 0
M  V30 2820 C 254.371 -1.17334 -1.63814 0
M  V30 2821 O 253.427 -0.878988 -2.36707 0
M  V30 2822 C 254.74 -3.00615 0.0714459 0
M  V30 2823 C 256.288 -3.12999 0.00864533 0
M  V30 2824 C 256.763 -4.57313 0.250685 0
M  V30 2825 N 258.254 -4.62777 0.198014 0
M  V30 2826 C 258.989 -5.72271 0.359642 0
M  V30 2827 N 258.485 -6.90371 0.579625 0
M  V30 2828 N 260.278 -5.61318 0.296438 0
M  V30 2829 H 252.429 -1.81765 1.09887 0
M  V30 2830 H 254.692 -0.841849 0.435884 0
M  V30 2831 H 254.398 -3.35068 1.06874 0
M  V30 2832 H 254.272 -3.71683 -0.642757 0
M  V30 2833 H 256.659 -2.7838 -0.979217 0
M  V30 2834 H 256.74 -2.44393 0.755359 0
M  V30 2835 H 256.384 -4.92639 1.2357 0
M  V30 2836 H 256.314 -5.24061 -0.516489 0
M  V30 2837 H 258.805 -3.77885 0.0331115 0
M  V30 2838 H 259.118 -7.69689 0.69275 0
M  V30 2839 H 257.463 -6.92264 0.616087 0
M  V30 2840 H 260.654 -4.67932 0.125258 0
M  V30 2841 H 260.827 -6.46599 0.425831 0
M  V30 2842 N 254.233 0.115231 -1.57178 0
M  V30 2843 C 255.458 0.840354 -1.89612 0
M  V30 2844 C 255.883 1.72464 -0.750845 0
M  V30 2845 O 255.241 1.78826 0.298478 0
M  V30 2846 C 255.289 1.64654 -3.20814 0
M  V30 2847 O 254.393 2.7538 -3.06985 0
M  V30 2848 H 253.734 0.232158 -0.622092 0
M  V30 2849 H 256.264 0.0964977 -2.04372 0
M  V30 2850 H 256.274 2.03499 -3.53627 0
M  V30 2851 H 254.949 0.997416 -4.03763 0
M  V30 2852 H 253.526 2.3971 -2.85646 0
M  V30 2853 N 255.711 1.52812 0.385517 0
M  V30 2854 C 256.957 1.69225 1.12847 0
M  V30 2855 C 257.312 0.42864 1.87564 0
M  V30 2856 O 256.605 -0.57779 1.8268 0
M  V30 2857 C 256.799 2.86856 2.13187 0
M  V30 2858 C 256.628 4.24535 1.48325 0
M  V30 2859 C 255.398 4.89701 1.24585 0
M  V30 2860 C 257.596 5.05794 0.931501 0
M  V30 2861 N 255.578 6.11353 0.558644 0
M  V30 2862 C 256.949 6.1888 0.372552 0
M  V30 2863 C 259.004 4.90963 0.828248 0
M  V30 2864 C 257.707 7.18757 -0.279556 0
M  V30 2865 C 259.733 5.91095 0.189956 0
M  V30 2866 C 259.095 7.03489 -0.358207 0
M  V30 2867 H 255.194 0.67268 0.39878 0
M  V30 2868 H 257.778 1.9017 0.417528 0
M  V30 2869 H 255.949 2.67484 2.81614 0
M  V30 2870 H 257.681 2.92188 2.80014 0
M  V30 2871 H 254.436 4.48485 1.52178 0
M  V30 2872 H 254.86 6.76606 0.230983 0
M  V30 2873 H 259.502 4.04274 1.23784 0
M  V30 2874 H 257.22 8.05052 -0.701152 0
M  V30 2875 H 260.806 5.81694 0.111264 0
M  V30 2876 H 259.686 7.79642 -0.844314 0
M  V30 2877 N 257.189 -0.644168 1.43834 0
M  V30 2878 C 258.417 -1.43147 1.49387 0
M  V30 2879 C 258.832 -1.88452 0.114583 0
M  V30 2880 O 258.189 -1.60047 -0.876989 0
M  V30 2881 C 258.24 -2.66046 2.44748 0
M  V30 2882 O 257.961 -2.22633 3.77314 0
M  V30 2883 C 259.462 -3.59311 2.59635 0
M  V30 2884 H 256.682 -0.439447 0.507077 0
M  V30 2885 H 259.226 -0.78895 1.88669 0
M  V30 2886 H 257.381 -3.26418 2.08638 0
M  V30 2887 H 257.795 -3.02216 4.28679 0
M  V30 2888 H 259.269 -4.42187 3.30416 0
M  V30 2889 H 259.746 -4.07259 1.64427 0
M  V30 2890 H 260.352 -3.04816 2.96593 0
M  V30 2891 N 258.668 -1.30515 -0.883378 0
M  V30 2892 C 259.898 -1.22182 -1.66599 0
M  V30 2893 C 260.306 0.217507 -1.87946 0
M  V30 2894 O 259.649 1.1554 -1.42815 0
M  V30 2895 C 259.711 -1.88146 -3.06335 0
M  V30 2896 C 259.375 -3.37476 -3.08154 0
M  V30 2897 C 260.372 -4.33443 -2.87094 0
M  V30 2898 C 258.057 -3.7895 -3.29701 0
M  V30 2899 C 260.051 -5.68858 -2.8754 0
M  V30 2900 C 257.738 -5.14482 -3.29776 0
M  V30 2901 C 258.736 -6.09246 -3.0872 0
M  V30 2902 O 258.424 -7.42302 -3.08615 0
M  V30 2903 H 258.156 -0.423898 -0.52658 0
M  V30 2904 H 260.71 -1.72703 -1.11188 0
M  V30 2905 H 258.94 -1.32157 -3.63416 0
M  V30 2906 H 260.629 -1.7391 -3.66756 0
M  V30 2907 H 261.395 -4.02733 -2.70243 0
M  V30 2908 H 257.274 -3.05631 -3.45124 0
M  V30 2909 H 260.818 -6.428 -2.71024 0
M  V30 2910 H 256.715 -5.44832 -3.46163 0
M  V30 2911 H 257.483 -7.5131 -3.24769 0
M  V30 2912 N 260.146 1.09593 -1.13257 0
M  V30 2913 C 261.423 1.78293 -0.804432 0
M  V30 2914 C 261.803 1.99004 0.70431 0
M  V30 2915 O 261.151 1.59007 1.641 0
M  V30 2916 C 261.361 3.10707 -1.5894 0
M  V30 2917 C 262.709 3.85443 -1.78099 0
M  V30 2918 O 263.733 3.20454 -1.55525 0
M  V30 2919 O 262.592 5.02108 -2.15753 0
M  V30 2920 H 259.686 0.773156 -0.293528 0
M  V30 2921 H 262.232 1.16164 -1.23709 0
M  V30 2922 H 261.004 2.91106 -2.61482 0
M  V30 2923 H 260.627 3.80558 -1.15157 0
M  V30 2924 N 261.624 0.925811 1.2754 0
M  V30 2925 C 262.574 0.394488 2.24561 0
M  V30 2926 C 263.558 -0.500183 1.52928 0
M  V30 2927 O 264.75 -0.337936 1.73744 0
M  V30 2928 C 261.879 -0.353328 3.41477 0
M  V30 2929 C 260.965 0.557752 4.20416 0
M  V30 2930 N 261.356 1.67674 4.77199 0
M  V30 2931 C 259.654 0.360404 4.44541 0
M  V30 2932 C 260.355 2.24324 5.36706 0
M  V30 2933 N 259.331 1.53305 5.21535 0
M  V30 2934 H 263.133 1.2489 2.66045 0
M  V30 2935 H 260.647 0.779864 1.4245 0
M  V30 2936 H 262.644 -0.7509 4.10082 0
M  V30 2937 H 261.304 -1.20469 3.01525 0
M  V30 2938 H 262.315 2.05915 4.75204 0
M  V30 2939 H 258.992 -0.450454 4.15063 0
M  V30 2940 H 260.382 3.18521 5.91603 0
M  V30 2941 N 263.102 -1.41638 0.69111 0
M  V30 2942 C 264.33 -2.05628 0.22909 0
M  V30 2943 C 264.745 -1.51992 -1.11999 0
M  V30 2944 O 264.102 -0.666322 -1.69901 0
M  V30 2945 C 264.153 -3.61084 0.173283 0
M  V30 2946 O 263.874 -4.12735 1.46907 0
M  V30 2947 C 265.375 -4.42213 -0.310266 0
M  V30 2948 H 262.595 -0.662327 0.107534 0
M  V30 2949 H 265.139 -1.81489 0.942438 0
M  V30 2950 H 263.294 -3.84278 -0.490858 0
M  V30 2951 H 263.708 -5.06743 1.35322 0
M  V30 2952 H 265.182 -5.51194 -0.298196 0
M  V30 2953 H 265.659 -4.1799 -1.34838 0
M  V30 2954 H 266.265 -4.24074 0.322716 0
M  V30 2955 N 264.58 -0.43555 -1.51462 0
M  V30 2956 C 265.49 0.383001 -2.31453 0
M  V30 2957 C 266.506 1.02931 -1.4029 0
M  V30 2958 O 267.682 1.02507 -1.73362 0
M  V30 2959 C 264.747 1.47043 -3.13973 0
M  V30 2960 C 263.808 0.844433 -4.20913 0
M  V30 2961 C 263.041 1.88004 -4.9949 0
M  V30 2962 O 263.264 3.10199 -4.78678 0
M  V30 2963 O 262.198 1.47157 -5.83634 0
M  V30 2964 H 266.024 -0.269964 -3.02498 0
M  V30 2965 H 263.609 -0.19813 -1.4808 0
M  V30 2966 H 265.491 2.10113 -3.65281 0
M  V30 2967 H 264.166 2.10751 -2.45695 0
M  V30 2968 H 263.073 0.175729 -3.73687 0
M  V30 2969 H 264.406 0.250869 -4.9156 0
M  V30 2970 N 266.058 1.56714 -0.166846 0
M  V30 2971 C 267.307 1.95922 0.479318 0
M  V30 2972 C 267.62 1.05529 1.6469 0
M  V30 2973 O 268.826 1.34399 2.35901 0
M  V30 2974 C 267.282 3.48359 0.90412 0
M  V30 2975 C 266.89 4.47369 -0.237621 0
M  V30 2976 C 268.634 3.96394 1.51896 0
M  V30 2977 C 266.541 5.91039 0.206561 0
M  V30 2978 H 265.471 0.731495 0.18284 0
M  V30 2979 H 268.122 1.81728 -0.254363 0
M  V30 2980 H 266.504 3.57955 1.69365 0
M  V30 2981 H 267.678 4.49485 -1.01489 0
M  V30 2982 H 265.993 4.09366 -0.762128 0
M  V30 2983 H 268.59 5.01186 1.86325 0
M  V30 2984 H 268.933 3.39075 2.41524 0
M  V30 2985 H 269.466 3.89796 0.79395 0
M  V30 2986 H 266.205 6.52221 -0.654834 0
M  V30 2987 H 265.725 5.9224 0.949282 0
M  V30 2988 H 267.404 6.43707 0.651939 0
M  V30 2989 N 267.536 -0.106894 1.57237 0
M  V30 2990 C 268.813 -0.843526 1.76477 0
M  V30 2991 C 269.193 -1.97499 0.745464 0
M  V30 2992 O 268.541 -2.27357 -0.228306 0
M  V30 2993 C 268.751 -1.34903 3.21873 0
M  V30 2994 C 270.099 -1.79654 3.8472 0
M  V30 2995 O 271.123 -1.44554 3.2555 0
M  V30 2996 O 269.982 -2.44515 4.88748 0
M  V30 2997 H 267.076 -0.401468 0.723016 0
M  V30 2998 H 269.622 -0.0896927 1.69463 0
M  V30 2999 H 268.394 -0.53781 3.87586 0
M  V30 3000 H 268.017 -2.16522 3.33473 0
M  V30 3001 N 269.014 -1.53014 -0.377408 0
M  V30 3002 C 269.947 -1.73382 -1.48371 0
M  V30 3003 C 270.925 -0.581879 -1.51832 0
M  V30 3004 O 272.109 -0.81307 -1.70063 0
M  V30 3005 C 269.236 -1.80192 -2.8679 0
M  V30 3006 C 268.282 -3.02056 -3.01105 0
M  V30 3007 S 269.115 -4.61811 -2.71093 0
M  V30 3008 C 270.271 -4.71453 -4.11683 0
M  V30 3009 H 270.504 -2.66946 -1.30872 0
M  V30 3010 H 268.037 -1.43453 -0.571012 0
M  V30 3011 H 269.995 -1.84802 -3.6655 0
M  V30 3012 H 268.656 -0.877008 -3.01608 0
M  V30 3013 H 267.849 -3.03396 -4.02451 0
M  V30 3014 H 267.451 -2.95498 -2.29253 0
M  V30 3015 H 269.743 -4.50781 -5.0577 0
M  V30 3016 H 270.686 -5.73487 -4.15353 0
M  V30 3017 H 271.094 -4.00189 -3.98132 0
M  V30 3018 N 270.492 0.636531 -1.44174 0
M  V30 3019 C 271.738 1.39826 -1.4689 0
M  V30 3020 C 272.071 1.93947 -0.0990585 0
M  V30 3021 O 271.346 1.73325 0.882544 0
M  V30 3022 C 271.629 2.56751 -2.5249 0
M  V30 3023 C 271.482 2.08014 -3.98811 0
M  V30 3024 C 272.801 3.58946 -2.54649 0
M  V30 3025 H 269.92 0.507075 -0.53483 0
M  V30 3026 H 272.562 0.720188 -1.75822 0
M  V30 3027 H 270.712 3.14597 -2.2795 0
M  V30 3028 H 272.384 1.5504 -4.34466 0
M  V30 3029 H 270.627 1.39242 -4.10846 0
M  V30 3030 H 271.298 2.92169 -4.68339 0
M  V30 3031 H 273.774 3.1089 -2.76563 0
M  V30 3032 H 272.65 4.38286 -3.3045 0
M  V30 3033 H 272.911 4.12655 -1.58646 0
M  V30 3034 N 271.97 1.30982 0.876444 0
M  V30 3035 C 272.9 1.20668 1.99903 0
M  V30 3036 C 273.881 0.095354 1.69833 0
M  V30 3037 O 275.066 0.27885 1.92188 0
M  V30 3038 C 272.196 0.90655 3.3526 0
M  V30 3039 C 271.15 1.97675 3.79617 0
M  V30 3040 C 270.476 1.52943 5.1236 0
M  V30 3041 C 271.776 3.389 3.97422 0
M  V30 3042 H 273.47 2.14586 2.0879 0
M  V30 3043 H 271.016 1.03308 1.00317 0
M  V30 3044 H 272.969 0.821025 4.13324 0
M  V30 3045 H 271.693 -0.0682969 3.26529 0
M  V30 3046 H 270.352 2.05205 3.03787 0
M  V30 3047 H 270 0.54262 5.00065 0
M  V30 3048 H 269.7 2.24532 5.43009 0
M  V30 3049 H 271.224 1.45786 5.92941 0
M  V30 3050 H 272.638 3.34081 4.659 0
M  V30 3051 H 271.035 4.0865 4.3946 0
M  V30 3052 H 272.105 3.80163 3.01006 0
M  V30 3053 N 273.449 -1.08991 1.13837 0
M  V30 3054 C 274.382 -2.15049 0.763477 0
M  V30 3055 C 275.36 -1.60629 -0.252398 0
M  V30 3056 O 276.544 -1.87958 -0.142853 0
M  V30 3057 C 273.671 -3.38441 0.132545 0
M  V30 3058 C 272.717 -4.11596 1.11763 0
M  V30 3059 S 273.55 -4.6521 2.65216 0
M  V30 3060 C 274.706 -5.91896 2.03495 0
M  V30 3061 H 274.939 -2.46518 1.66182 0
M  V30 3062 H 272.472 -1.21008 0.958976 0
M  V30 3063 H 274.43 -4.09883 -0.225074 0
M  V30 3064 H 273.091 -3.05182 -0.743135 0
M  V30 3065 H 272.284 -5.00121 0.624076 0
M  V30 3066 H 271.886 -3.46038 1.41894 0
M  V30 3067 H 274.178 -6.63156 1.38675 0
M  V30 3068 H 275.121 -6.45938 2.9012 0
M  V30 3069 H 275.529 -5.44625 1.48471 0
M  V30 3070 N 274.927 -0.932562 -1.27047 0
M  V30 3071 C 276.155 -0.592031 -1.98249 0
M  V30 3072 C 276.57 0.831062 -1.69525 0
M  V30 3073 O 275.927 1.55299 -0.958561 0
M  V30 3074 C 275.978 -0.814279 -3.5221 0
M  V30 3075 O 275.699 -2.18139 -3.7993 0
M  V30 3076 C 277.2 -0.483121 -4.4066 0
M  V30 3077 H 274.42 -0.223896 -0.632544 0
M  V30 3078 H 276.964 -1.25091 -1.61779 0
M  V30 3079 H 275.119 -0.20213 -3.86872 0
M  V30 3080 H 275.533 -2.235 -4.74498 0
M  V30 3081 H 277.007 -0.689298 -5.47679 0
M  V30 3082 H 277.484 0.581546 -4.35333 0
M  V30 3083 H 278.09 -1.07362 -4.11526 0
M  V30 3084 N 276.405 1.4127 -0.698611 0
M  V30 3085 C 277.816 1.84187 -0.305289 0
M  V30 3086 C 278.167 1.58449 1.15708 0
M  V30 3087 O 277.292 1.05651 1.88856 0
M  V30 3088 C 277.887 3.3435 -0.547314 0
M  V30 3089 C 276.446 3.75826 -0.207878 0
M  V30 3090 C 275.593 2.64647 -0.828099 0
M  V30 3091 H 278.544 1.30778 -0.89904 0
M  V30 3092 H 278.565 3.8001 0.192998 0
M  V30 3093 H 278.077 3.53051 -1.61172 0
M  V30 3094 H 276.178 3.62725 0.852143 0
M  V30 3095 H 276.291 4.74462 -0.665021 0
M  V30 3096 H 274.655 2.53395 -0.257458 0
M  V30 3097 H 275.438 2.86165 -1.89643 0
M  V30 3098 N 277.883 0.443576 1.51229 0
M  V30 3099 C 279.111 -0.11929 2.06556 0
M  V30 3100 C 279.526 -1.35921 1.31038 0
M  V30 3101 O 278.883 -1.78675 0.371704 0
M  V30 3102 C 278.934 -0.435228 3.5887 0
M  V30 3103 O 278.655 0.755486 4.31537 0
M  V30 3104 C 280.156 -1.04808 4.30732 0
M  V30 3105 H 277.376 -0.0051584 0.67098 0
M  V30 3106 H 279.92 0.624453 1.94733 0
M  V30 3107 H 278.075 -1.12887 3.70588 0
M  V30 3108 H 278.489 0.483491 5.22267 0
M  V30 3109 H 279.963 -1.2191 5.3837 0
M  V30 3110 H 280.44 -2.03081 3.89429 0
M  V30 3111 H 281.046 -0.393637 4.23474 0
M  V30 3112 N 279.361 -1.56624 0.175154 0
M  V30 3113 C 280.324 -2.16934 -0.739738 0
M  V30 3114 C 281.324 -1.11842 -1.15533 0
M  V30 3115 O 282.514 -1.37335 -1.07167 0
M  V30 3116 C 279.646 -2.75531 -2.00738 0
M  V30 3117 H 280.839 -2.99131 -0.214639 0
M  V30 3118 H 278.392 -1.56123 -0.0744197 0
M  V30 3119 H 279.127 -1.97078 -2.57548 0
M  V30 3120 H 278.912 -3.52444 -1.71831 0
M  V30 3121 H 280.402 -3.21904 -2.66021 0
M  V30 3122 N 280.839 0.0985539 -1.57292 0
M  V30 3123 C 282.064 0.820196 -1.90493 0
M  V30 3124 C 282.489 1.71658 -0.769094 0
M  V30 3125 O 281.847 1.79133 0.279495 0
M  V30 3126 C 281.895 1.61242 -3.22542 0
M  V30 3127 O 280.999 2.72108 -3.09888 0
M  V30 3128 H 280.34 0.225547 -0.62452 0
M  V30 3129 H 282.87 0.0748159 -2.04463 0
M  V30 3130 H 282.88 1.99737 -3.55766 0
M  V30 3131 H 281.555 0.954535 -4.04798 0
M  V30 3132 H 280.132 2.36667 -2.88172 0
M  V30 3133 N 282.317 1.53212 0.369288 0
M  V30 3134 C 283.25 1.74166 1.4745 0
M  V30 3135 C 284.228 0.589923 1.51521 0
M  V30 3136 O 285.412 0.822078 1.69629 0
M  V30 3137 C 282.539 1.81711 2.8583 0
M  V30 3138 C 281.585 3.03649 2.99499 0
M  V30 3139 S 282.418 4.63242 2.6864 0
M  V30 3140 C 283.574 4.7363 4.09177 0
M  V30 3141 H 283.807 2.67636 1.29454 0
M  V30 3142 H 281.34 1.43754 0.563396 0
M  V30 3143 H 283.298 1.86743 3.65564 0
M  V30 3144 H 281.959 0.89299 3.01139 0
M  V30 3145 H 281.152 3.05526 4.00836 0
M  V30 3146 H 280.754 2.9671 2.27683 0
M  V30 3147 H 283.046 4.53456 5.03372 0
M  V30 3148 H 283.989 5.75682 4.12306 0
M  V30 3149 H 284.397 4.02295 3.96004 0
M  V30 3150 N 283.795 -0.628877 1.44509 0
M  V30 3151 C 285.072 -1.38733 1.37886 0
M  V30 3152 C 285.452 -2.11065 0.0387008 0
M  V30 3153 O 284.8 -2.06476 -0.97878 0
M  V30 3154 C 285.01 -2.35188 2.57852 0
M  V30 3155 C 286.358 -2.9845 3.02014 0
M  V30 3156 O 287.382 -2.45513 2.58073 0
M  V30 3157 O 286.241 -3.94487 3.78209 0
M  V30 3158 H 283.335 -0.621015 0.54614 0
M  V30 3159 H 285.881 -0.653744 1.56602 0
M  V30 3160 H 284.653 -1.80855 3.46998 0
M  V30 3161 H 284.276 -3.1596 2.4136 0
M  V30 3162 N 285.273 -1.31445 -0.869486 0
M  V30 3163 C 286.55 -1.11795 -1.60503 0
M  V30 3164 C 286.93 0.327168 -2.08549 0
M  V30 3165 O 286.278 1.32135 -1.8642 0
M  V30 3166 C 286.488 -2.13258 -2.76265 0
M  V30 3167 C 287.836 -2.45805 -3.46215 0
M  V30 3168 O 288.86 -2.11688 -2.86473 0
M  V30 3169 O 287.719 -3.04228 -4.5399 0
M  V30 3170 H 284.813 -0.430421 -0.706163 0
M  V30 3171 H 287.359 -1.42925 -0.914907 0
M  V30 3172 H 286.131 -3.10461 -2.3818 0
M  V30 3173 H 285.754 -1.83035 -3.52964 0
M  V30 3174 N 286.751 1.08385 -1.14413 0
M  V30 3175 C 287.998 1.80776 -0.912482 0
M  V30 3176 C 288.326 1.86236 0.560934 0
M  V30 3177 O 287.581 1.33431 1.43159 0
M  V30 3178 C 287.88 3.26273 -1.45879 0
M  V30 3179 C 287.546 3.4093 -2.95089 0
M  V30 3180 C 286.208 3.44638 -3.35824 0
M  V30 3181 C 288.56 3.44591 -3.91033 0
M  V30 3182 C 285.888 3.49597 -4.71167 0
M  V30 3183 C 288.24 3.51086 -5.26233 0
M  V30 3184 C 286.904 3.53067 -5.6648 0
M  V30 3185 H 286.174 0.661507 -0.333901 0
M  V30 3186 H 288.821 1.27613 -1.42784 0
M  V30 3187 H 287.126 3.82146 -0.864376 0
M  V30 3188 H 288.823 3.80839 -1.2555 0
M  V30 3189 H 285.413 3.38736 -2.62594 0
M  V30 3190 H 289.597 3.40957 -3.60641 0
M  V30 3191 H 284.853 3.49424 -5.0171 0
M  V30 3192 H 289.027 3.52864 -6.00383 0
M  V30 3193 H 286.654 3.56662 -6.71339 0
M  V30 3194 N 288.23 0.939286 1.26551 0
M  V30 3195 C 289.458 0.602536 1.97932 0
M  V30 3196 C 289.873 -0.82206 1.69964 0
M  V30 3197 O 289.23 -1.54789 0.966784 0
M  V30 3198 C 289.281 0.832946 3.51773 0
M  V30 3199 O 289.002 2.20151 3.78768 0
M  V30 3200 C 290.503 0.506483 4.40397 0
M  V30 3201 H 287.723 0.227248 0.631347 0
M  V30 3202 H 290.267 1.25948 1.61113 0
M  V30 3203 H 288.422 0.222644 3.8676 0
M  V30 3204 H 288.836 2.26013 4.73306 0
M  V30 3205 H 290.31 0.718333 5.47306 0
M  V30 3206 H 290.787 -0.558451 4.35635 0
M  V30 3207 H 291.393 1.09543 4.10951 0
M  V30 3208 N 289.708 -1.40897 0.706093 0
M  V30 3209 C 291.119 -1.84023 0.315052 0
M  V30 3210 C 291.47 -1.5906 -1.14866 0
M  V30 3211 O 290.595 -1.06651 -1.88293 0
M  V30 3212 C 291.19 -3.34055 0.565038 0
M  V30 3213 C 289.749 -3.7571 0.227806 0
M  V30 3214 C 288.896 -2.64204 0.842122 0
M  V30 3215 H 291.847 -1.303 0.905963 0
M  V30 3216 H 291.868 -3.80107 -0.172843 0
M  V30 3217 H 291.38 -3.52192 1.63042 0
M  V30 3218 H 289.481 -3.63172 -0.832895 0
M  V30 3219 H 289.594 -4.74103 0.690174 0
M  V30 3220 H 287.958 -2.53255 0.270893 0
M  V30 3221 H 288.741 -2.85155 1.91158 0
M  V30 3222 N 291.186 -0.45159 -1.50991 0
M  V30 3223 C 292.411 0.110667 -2.07105 0
M  V30 3224 C 292.836 1.3446 -1.31538 0
M  V30 3225 O 292.194 1.77743 -0.357365 0
M  V30 3226 C 292.242 0.397238 -3.58405 0
M  V30 3227 O 291.346 1.48124 -3.84881 0
M  V30 3228 H 290.687 -0.00439271 -0.663985 0
M  V30 3229 H 293.217 -0.637026 -1.9443 0
M  V30 3230 H 293.227 0.64351 -4.02893 0
M  V30 3231 H 291.902 -0.504553 -4.12828 0
M  V30 3232 H 290.479 1.22381 -3.52246 0
M  V30 3233 N 292.664 1.56529 -0.183458 0
M  V30 3234 C 293.912 1.96855 0.457452 0
M  V30 3235 C 294.233 1.07104 1.62953 0
M  V30 3236 O 293.503 0.139887 1.954 0
M  V30 3237 H 292.083 0.72693 0.171992 0
M  V30 3238 H 294.745 1.93056 -0.267476 0
M  V30 3239 H 293.841 3.01423 0.809368 0
M  V30 3240 N 294.142 -0.090211 1.57342 0
M  V30 3241 C 295.052 -1.12735 2.05738 0
M  V30 3242 C 296.068 -1.43557 0.983231 0
M  V30 3243 O 297.244 -1.54101 1.29672 0
M  V30 3244 C 294.309 -2.42659 2.47624 0
M  V30 3245 C 293.37 -2.18975 3.69254 0
M  V30 3246 C 292.603 -3.42704 4.09133 0
M  V30 3247 O 292.826 -4.51127 3.49057 0
M  V30 3248 O 291.76 -3.32003 5.02053 0
M  V30 3249 H 295.586 -0.746279 2.94388 0
M  V30 3250 H 293.171 -0.303064 1.46294 0
M  V30 3251 H 295.053 -3.19155 2.7517 0
M  V30 3252 H 293.728 -2.80182 1.62109 0
M  V30 3253 H 292.635 -1.40244 3.46818 0
M  V30 3254 H 293.968 -1.86342 4.55563 0
M  V30 3255 N 295.62 -1.53406 -0.361157 0
M  V30 3256 C 296.866 -1.70999 -1.1014 0
M  V30 3257 C 297.221 -0.458425 -1.86859 0
M  V30 3258 O 296.514 0.548654 -1.83577 0
M  V30 3259 C 296.708 -2.90211 -2.08596 0
M  V30 3260 C 296.537 -4.26841 -1.41553 0
M  V30 3261 C 295.307 -4.91621 -1.16778 0
M  V30 3262 C 297.505 -5.07212 -0.850915 0
M  V30 3263 N 295.487 -6.12164 -0.461312 0
M  V30 3264 C 296.858 -6.19394 -0.274046 0
M  V30 3265 C 298.913 -4.92218 -0.750036 0
M  V30 3266 C 297.616 -7.18221 0.393868 0
M  V30 3267 C 299.642 -5.91322 -0.095894 0
M  V30 3268 C 299.004 -7.0283 0.470081 0
M  V30 3269 H 295.103 -0.678939 -0.388028 0
M  V30 3270 H 297.687 -1.90811 -0.38722 0
M  V30 3271 H 295.858 -2.71931 -2.77323 0
M  V30 3272 H 297.59 -2.96606 -2.7533 0
M  V30 3273 H 294.345 -4.50849 -1.45024 0
M  V30 3274 H 294.769 -6.76888 -0.123312 0
M  V30 3275 H 299.411 -4.06192 -1.17337 0
M  V30 3276 H 297.129 -8.03835 0.82914 0
M  V30 3277 H 300.715 -5.81797 -0.0187075 0
M  V30 3278 H 299.595 -7.782 0.968241 0
M  V30 3279 N 297.098 0.621204 -1.44841 0
M  V30 3280 C 298.375 1.38 -1.38619 0
M  V30 3281 C 298.755 2.11041 -0.0498935 0
M  V30 3282 O 298.103 2.06992 0.967816 0
M  V30 3283 C 298.313 2.33817 -2.59096 0
M  V30 3284 C 299.661 2.96844 -3.03593 0
M  V30 3285 O 300.685 2.44141 -2.59371 0
M  V30 3286 O 299.544 3.92476 -3.80296 0
M  V30 3287 H 296.638 0.61811 -0.549426 0
M  V30 3288 H 299.184 0.645429 -1.56947 0
M  V30 3289 H 297.956 1.79012 -3.47952 0
M  V30 3290 H 297.579 3.14676 -2.43032 0
M  V30 3291 N 298.576 1.31904 0.862503 0
M  V30 3292 C 299.825 1.21373 1.61094 0
M  V30 3293 C 300.138 -0.22504 1.94301 0
M  V30 3294 O 301.344 -0.452121 2.67709 0
M  V30 3295 C 299.8 2.12525 2.9045 0
M  V30 3296 C 299.408 3.61441 2.64697 0
M  V30 3297 C 301.152 2.10813 3.68454 0
M  V30 3298 C 299.059 4.44578 3.90006 0
M  V30 3299 H 297.989 0.450705 0.604468 0
M  V30 3300 H 300.64 1.56811 0.953027 0
M  V30 3301 H 299.022 1.69994 3.57656 0
M  V30 3302 H 300.196 4.12264 2.05851 0
M  V30 3303 H 298.511 3.65205 2.00036 0
M  V30 3304 H 301.108 2.70167 4.61426 0
M  V30 3305 H 301.451 1.09713 4.01583 0
M  V30 3306 H 301.984 2.51583 3.08141 0
M  V30 3307 H 298.723 5.46461 3.62023 0
M  V30 3308 H 298.243 3.98508 4.48276 0
M  V30 3309 H 299.922 4.57176 4.5782 0
M  V30 3310 N 300.054 -1.07777 1.14986 0
M  V30 3311 C 301.3 -1.80557 0.923422 0
M  V30 3312 C 301.633 -1.86298 -0.548337 0
M  V30 3313 O 300.908 -1.34354 -1.40639 0
M  V30 3314 C 301.191 -3.25839 1.53299 0
M  V30 3315 C 301.044 -3.28269 3.07505 0
M  V30 3316 C 302.363 -4.22991 1.21518 0
M  V30 3317 H 299.482 -0.655493 0.336894 0
M  V30 3318 H 302.124 -1.26144 1.42083 0
M  V30 3319 H 300.274 -3.72306 1.10999 0
M  V30 3320 H 301.946 -2.90079 3.58681 0
M  V30 3321 H 300.189 -2.67355 3.4162 0
M  V30 3322 H 300.86 -4.30691 3.45266 0
M  V30 3323 H 303.336 -3.84894 1.581 0
M  V30 3324 H 302.212 -5.22945 1.66793 0
M  V30 3325 H 302.473 -4.41904 0.131505 0
M  V30 3326 N 301.532 -0.945985 -1.26051 0
M  V30 3327 C 302.495 -0.463897 -2.24456 0
M  V30 3328 C 303.495 0.427655 -1.55009 0
M  V30 3329 O 304.685 0.226157 -1.72726 0
M  V30 3330 C 301.817 0.330812 -3.39291 0
M  V30 3331 H 303.01 -1.33357 -2.68619 0
M  V30 3332 H 300.563 -0.728416 -1.38289 0
M  V30 3333 H 301.298 1.21852 -3.00537 0
M  V30 3334 H 301.083 -0.308679 -3.90883 0
M  V30 3335 H 302.573 0.657865 -4.12386 0
M  V30 3336 N 303.011 1.40521 -0.713556 0
M  V30 3337 C 303.941 2.33381 -0.0743864 0
M  V30 3338 C 304.922 1.52784 0.747735 0
M  V30 3339 O 306.107 1.81258 0.697071 0
M  V30 3340 C 303.237 3.36748 0.849598 0
M  V30 3341 C 302.191 4.27793 0.133247 0
M  V30 3342 C 301.517 5.21679 1.17281 0
M  V30 3343 C 302.817 5.12415 -1.01134 0
M  V30 3344 H 304.511 2.87081 -0.850007 0
M  V30 3345 H 302.057 1.38034 -0.410201 0
M  V30 3346 H 304.01 4.00648 1.30612 0
M  V30 3347 H 302.734 2.81439 1.65709 0
M  V30 3348 H 301.393 3.65342 -0.303426 0
M  V30 3349 H 301.041 4.62677 1.9733 0
M  V30 3350 H 300.741 5.83435 0.698397 0
M  V30 3351 H 302.265 5.88456 1.62947 0
M  V30 3352 H 303.679 5.69781 -0.634274 0
M  V30 3353 H 302.076 5.83203 -1.41399 0
M  V30 3354 H 303.146 4.48514 -1.84292 0
M  V30 3355 N 304.489 0.459591 1.5075 0
M  V30 3356 C 305.9 0.00171547 1.867 0
M  V30 3357 C 306.251 -1.39934 1.37525 0
M  V30 3358 O 305.376 -2.03523 0.735349 0
M  V30 3359 C 305.971 -0.00366298 3.388 0
M  V30 3360 C 304.53 -0.406026 3.74204 0
M  V30 3361 C 303.677 0.38673 2.7459 0
M  V30 3362 H 306.628 0.674413 1.43657 0
M  V30 3363 H 306.649 -0.808371 3.71814 0
M  V30 3364 H 306.161 1.01617 3.74561 0
M  V30 3365 H 304.262 -1.43063 3.4404 0
M  V30 3366 H 304.375 -0.115362 4.78961 0
M  V30 3367 H 302.739 -0.158019 2.54209 0
M  V30 3368 H 303.522 1.40585 3.13194 0
M  V30 3369 N 305.967 -1.56429 0.191757 0
M  V30 3370 C 307.215 -1.97095 -0.447006 0
M  V30 3371 C 307.536 -1.07967 -1.62383 0
M  V30 3372 O 306.806 -0.150248 -1.95323 0
M  V30 3373 H 305.386 -0.727832 -0.168135 0
M  V30 3374 H 308.048 -1.92911 0.27771 0
M  V30 3375 H 307.144 -3.01848 -0.793371 0
M  V30 3376 N 307.445 0.0818655 -1.57387 0
M  V30 3377 C 308.861 0.436412 -1.53517 0
M  V30 3378 C 309.061 1.79758 -0.910459 0
M  V30 3379 O 308.117 2.47324 -0.508636 0
M  V30 3380 C 309.43 0.386734 -2.98203 0
M  V30 3381 C 310.978 0.467644 -3.09487 0
M  V30 3382 C 311.453 0.447978 -4.55804 0
M  V30 3383 N 312.944 0.508348 -4.60402 0
M  V30 3384 C 313.679 0.515184 -5.71081 0
M  V30 3385 N 313.175 0.477435 -6.91153 0
M  V30 3386 N 314.968 0.560988 -5.59294 0
M  V30 3387 H 307.119 -0.809546 -1.96367 0
M  V30 3388 H 309.382 -0.302733 -0.898363 0
M  V30 3389 H 309.088 -0.546539 -3.47427 0
M  V30 3390 H 308.962 1.20075 -3.57578 0
M  V30 3391 H 311.349 1.39134 -2.60242 0
M  V30 3392 H 311.43 -0.374753 -2.5304 0
M  V30 3393 H 311.074 -0.471826 -5.05704 0
M  V30 3394 H 311.004 1.30777 -5.10103 0
M  V30 3395 H 313.495 0.54218 -3.7399 0
M  V30 3396 H 313.808 0.486299 -7.71268 0
M  V30 3397 H 312.153 0.444278 -6.93579 0
M  V30 3398 H 315.344 0.5881 -4.64391 0
M  V30 3399 H 315.517 0.562846 -6.45551 0
M  V30 3400 N 308.923 1.53595 0.353017 0
M  V30 3401 C 310.339 1.43648 0.695516 0
M  V30 3402 C 310.539 0.585617 1.92802 0
M  V30 3403 O 309.595 0.0729223 2.52395 0
M  V30 3404 C 310.908 2.8701 0.896991 0
M  V30 3405 C 312.456 2.96723 0.996209 0
M  V30 3406 C 312.931 4.41173 1.23007 0
M  V30 3407 N 314.422 4.44657 1.29749 0
M  V30 3408 C 315.157 5.53547 1.49577 0
M  V30 3409 N 314.653 6.72461 1.66639 0
M  V30 3410 N 316.446 5.41145 1.52048 0
M  V30 3411 H 308.597 2.07415 -0.457481 0
M  V30 3412 H 310.86 0.9372 -0.142687 0
M  V30 3413 H 310.566 3.51644 0.0629938 0
M  V30 3414 H 310.44 3.31401 1.80148 0
M  V30 3415 H 312.827 2.32235 1.82074 0
M  V30 3416 H 312.908 2.55707 0.0688331 0
M  V30 3417 H 312.552 5.06238 0.410505 0
M  V30 3418 H 312.482 4.79772 2.17086 0
M  V30 3419 H 314.973 3.58963 1.18126 0
M  V30 3420 H 315.286 7.51214 1.81378 0
M  V30 3421 H 313.631 6.75423 1.63794 0
M  V30 3422 H 316.822 4.47205 1.38294 0
M  V30 3423 H 316.995 6.26068 1.67159 0
M  V30 3424 N 310.401 -0.613514 1.45168 0
M  V30 3425 C 311.629 -1.39946 1.5239 0
M  V30 3426 C 312.044 -1.88167 0.154531 0
M  V30 3427 O 311.401 -1.61872 -0.842843 0
M  V30 3428 C 311.452 -2.60795 2.50337 0
M  V30 3429 O 311.173 -2.1458 3.81952 0
M  V30 3430 C 312.674 -3.53723 2.67198 0
M  V30 3431 H 309.894 -0.428593 0.516284 0
M  V30 3432 H 312.438 -0.748753 1.903 0
M  V30 3433 H 310.593 -3.21919 2.15515 0
M  V30 3434 H 311.007 -2.93055 4.34993 0
M  V30 3435 H 312.481 -4.35079 3.39721 0
M  V30 3436 H 312.958 -4.0368 1.73029 0
M  V30 3437 H 313.564 -2.98456 3.02992 0
M  V30 3438 N 311.879 -1.3236 -0.855495 0
M  V30 3439 C 313.125 -1.23054 -1.612 0
M  V30 3440 C 313.458 0.207404 -1.93089 0
M  V30 3441 O 312.733 1.14432 -1.57275 0
M  V30 3442 C 313.016 -2.08937 -2.93287 0
M  V30 3443 C 312.869 -3.61105 -2.68185 0
M  V30 3444 C 314.188 -1.94986 -3.94549 0
M  V30 3445 H 311.307 -0.448364 -0.584926 0
M  V30 3446 H 313.949 -1.62297 -0.987917 0
M  V30 3447 H 312.099 -1.75599 -3.46551 0
M  V30 3448 H 313.771 -4.04652 -2.21483 0
M  V30 3449 H 312.014 -3.83813 -2.02164 0
M  V30 3450 H 312.685 -4.16522 -3.62234 0
M  V30 3451 H 315.161 -2.24189 -3.5054 0
M  V30 3452 H 314.037 -2.57356 -4.84829 0
M  V30 3453 H 314.298 -0.917263 -4.3248 0
M  V30 3454 N 313.357 1.07166 -1.15556 0
M  V30 3455 C 314.305 2.16517 -0.8499 0
M  V30 3456 C 315.299 1.68468 0.177454 0
M  V30 3457 O 316.505 1.79971 0.0323026 0
M  V30 3458 H 312.88 0.706652 -0.25719 0
M  V30 3459 H 314.851 2.39514 -1.77976 0
M  V30 3460 C 313.6 3.45855 -0.357682 0
M  V30 3461 H 312.923 3.83214 -1.13961 0
M  V30 3462 H 314.363 4.23607 -0.182489 0
M  V30 3463 C 312.822 3.24062 0.921152 0
M  V30 3464 O 313.352 3.48813 1.9923 0
M  V30 3465 N 311.558 2.77539 0.86141 0
M  V30 3466 H 311.105 2.57598 -0.0104408 0
M  V30 3467 H 311.063 2.63337 1.71758 0
M  V30 3468 N 314.835 0.952656 1.25548 0
M  V30 3469 C 316.246 0.647392 1.75116 0
M  V30 3470 C 316.597 -0.837274 1.77438 0
M  V30 3471 O 315.722 -1.65525 1.39393 0
M  V30 3472 C 316.317 1.16845 3.18014 0
M  V30 3473 C 314.876 0.913382 3.6515 0
M  V30 3474 C 314.023 1.31265 2.44264 0
M  V30 3475 H 316.974 1.12968 1.11462 0
M  V30 3476 H 316.995 0.527606 3.76824 0
M  V30 3477 H 316.507 2.24902 3.16292 0
M  V30 3478 H 314.608 -0.152316 3.72289 0
M  V30 3479 H 314.721 1.54845 4.53387 0
M  V30 3480 H 313.085 0.731028 2.43984 0
M  V30 3481 H 313.868 2.40239 2.45234 0
M  V30 3482 N 316.313 -1.40141 0.720998 0
M  V30 3483 C 317.245 -2.29177 0.0324669 0
M  V30 3484 C 318.258 -1.46105 -0.718126 0
M  V30 3485 O 319.447 -1.69335 -0.564608 0
M  V30 3486 C 316.547 -3.24473 -0.978292 0
M  V30 3487 C 315.72 -4.36423 -0.292115 0
M  V30 3488 C 314.779 -5.12122 -1.20901 0
M  V30 3489 O 313.805 -5.64981 -0.691766 0
M  V30 3490 N 315.007 -5.21992 -2.53978 0
M  V30 3491 H 317.772 -2.88909 0.796984 0
M  V30 3492 H 315.333 -1.51569 0.569068 0
M  V30 3493 H 317.325 -3.71987 -1.59398 0
M  V30 3494 H 315.895 -2.65871 -1.64413 0
M  V30 3495 H 315.115 -3.90967 0.503847 0
M  V30 3496 H 316.403 -5.08467 0.183971 0
M  V30 3497 H 315.801 -4.8054 -2.98493 0
M  V30 3498 H 314.358 -5.72995 -3.10677 0
M  V30 3499 N 317.792 -0.46758 -1.50504 0
M  V30 3500 C 319.069 0.15003 -1.95024 0
M  V30 3501 C 319.449 1.57304 -1.40779 0
M  V30 3502 O 318.797 2.20281 -0.607319 0
M  V30 3503 C 319.007 0.0969324 -3.48865 0
M  V30 3504 C 320.355 0.287565 -4.23625 0
M  V30 3505 O 321.379 0.173678 -3.55776 0
M  V30 3506 O 320.238 0.517186 -5.44047 0
M  V30 3507 H 317.332 0.113582 -0.819163 0
M  V30 3508 H 319.878 -0.52773 -1.61286 0
M  V30 3509 H 318.65 -0.896732 -3.80886 0
M  V30 3510 H 318.273 0.816303 -3.8913 0
M  V30 3511 N 319.27 1.56325 -0.20005 0
M  V30 3512 C 320.681 1.8408 0.31167 0
M  V30 3513 C 321.032 1.12087 1.61031 0
M  V30 3514 O 320.157 0.38332 2.12978 0
M  V30 3515 C 320.752 3.33932 0.57226 0
M  V30 3516 C 319.311 3.6208 1.02834 0
M  V30 3517 C 318.458 2.77186 0.079634 0
M  V30 3518 H 321.409 1.52939 -0.423729 0
M  V30 3519 H 321.43 3.52971 1.42096 0
M  V30 3520 H 320.942 3.86303 -0.37308 0
M  V30 3521 H 319.043 3.15147 1.98778 0
M  V30 3522 H 319.156 4.7023 0.917624 0
M  V30 3523 H 317.52 2.47951 0.582448 0
M  V30 3524 H 318.303 3.32347 -0.860238 0
M  V30 3525 N 320.748 -0.0735177 1.57428 0
M  V30 3526 C 321.973 -0.789787 1.91774 0
M  V30 3527 C 322.398 -1.70413 0.796306 0
M  V30 3528 O 321.756 -1.79555 -0.250961 0
M  V30 3529 C 321.804 -1.5609 3.25067 0
M  V30 3530 O 320.908 -2.67144 3.14178 0
M  V30 3531 H 320.249 -0.215582 0.628029 0
M  V30 3532 H 322.779 -0.0422781 2.04556 0
M  V30 3533 H 322.789 -1.94052 3.58898 0
M  V30 3534 H 321.464 -0.890015 4.06265 0
M  V30 3535 H 320.041 -2.32052 2.91901 0
M  V30 3536 N 322.226 -1.5378 -0.344866 0
M  V30 3537 C 323.456 -1.74646 -1.10374 0
M  V30 3538 C 323.864 -0.48491 -1.8288 0
M  V30 3539 O 323.207 0.553062 -1.75177 0
M  V30 3540 C 323.269 -2.87145 -2.16306 0
M  V30 3541 C 322.933 -4.26795 -1.63386 0
M  V30 3542 C 323.93 -5.08412 -1.08688 0
M  V30 3543 C 321.615 -4.73276 -1.68272 0
M  V30 3544 C 323.609 -6.34609 -0.595792 0
M  V30 3545 C 321.296 -5.99446 -1.18776 0
M  V30 3546 C 322.294 -6.79946 -0.645215 0
M  V30 3547 O 321.982 -8.03745 -0.157626 0
M  V30 3548 H 321.714 -0.587112 -0.335075 0
M  V30 3549 H 324.268 -2.01403 -0.403252 0
M  V30 3550 H 322.498 -2.55909 -2.89909 0
M  V30 3551 H 324.187 -2.95992 -2.77747 0
M  V30 3552 H 324.953 -4.73666 -1.04236 0
M  V30 3553 H 320.832 -4.10677 -2.09442 0
M  V30 3554 H 324.376 -6.97389 -0.171654 0
M  V30 3555 H 320.273 -6.33687 -1.22928 0
M  V30 3556 H 321.041 -8.18038 -0.275037 0
M  V30 3557 N 323.704 0.605807 -1.45491 0
M  V30 3558 C 324.95 1.36679 -1.49823 0
M  V30 3559 C 325.283 1.93693 -0.140175 0
M  V30 3560 O 324.558 1.75158 0.845581 0
M  V30 3561 C 324.841 2.51337 -2.57879 0
M  V30 3562 C 324.694 1.99508 -4.03134 0
M  V30 3563 C 326.013 3.53463 -2.62205 0
M  V30 3564 H 323.132 0.495617 -0.545466 0
M  V30 3565 H 325.774 0.682732 -1.7731 0
M  V30 3566 H 323.924 3.09691 -2.34571 0
M  V30 3567 H 325.596 1.45789 -4.37656 0
M  V30 3568 H 323.839 1.30496 -4.13707 0
M  V30 3569 H 324.51 2.82169 -4.74431 0
M  V30 3570 H 326.986 3.04953 -2.83095 0
M  V30 3571 H 325.862 4.31178 -3.39672 0
M  V30 3572 H 326.123 4.09197 -1.67363 0
M  V30 3573 N 325.182 1.32811 0.848464 0
M  V30 3574 C 326.459 1.14334 1.58704 0
M  V30 3575 C 326.839 -0.293948 2.09043 0
M  V30 3576 O 326.187 -1.29153 1.88499 0
M  V30 3577 C 326.397 2.17626 2.72837 0
M  V30 3578 C 327.745 2.51282 3.42261 0
M  V30 3579 O 328.769 2.16219 2.83068 0
M  V30 3580 O 327.628 3.11413 4.49093 0
M  V30 3581 H 324.722 0.441601 0.699226 0
M  V30 3582 H 327.268 1.44362 0.892053 0
M  V30 3583 H 326.04 3.14211 2.3321 0
M  V30 3584 H 325.663 1.88628 3.50008 0
M  V30 3585 N 326.66 -1.06551 1.16123 0
M  V30 3586 C 327.906 -1.79567 0.94252 0
M  V30 3587 C 328.239 -1.86869 -0.528547 0
M  V30 3588 O 327.514 -1.35838 -1.39206 0
M  V30 3589 C 327.797 -3.24195 1.56747 0
M  V30 3590 C 327.65 -3.24989 3.10969 0
M  V30 3591 C 328.969 -4.21678 1.25998 0
M  V30 3592 H 326.088 -0.651883 0.343828 0
M  V30 3593 H 328.73 -1.2463 1.43413 0
M  V30 3594 H 326.88 -3.71107 1.14942 0
M  V30 3595 H 328.552 -2.86258 3.61737 0
M  V30 3596 H 326.795 -2.63716 3.44436 0
M  V30 3597 H 327.466 -4.27005 3.49815 0
M  V30 3598 H 329.942 -3.83196 1.62174 0
M  V30 3599 H 328.818 -5.21146 1.7233 0
M  V30 3600 H 329.079 -4.4174 0.178367 0
M  V30 3601 N 328.138 -0.959301 -1.25041 0
M  V30 3602 C 329.366 -0.633949 -1.96948 0
M  V30 3603 C 329.781 0.794916 -1.7125 0
M  V30 3604 O 329.138 1.53231 -0.991287 0
M  V30 3605 C 329.189 -0.888805 -3.50403 0
M  V30 3606 O 328.91 -2.26149 -3.75218 0
M  V30 3607 C 330.411 -0.576482 -4.39536 0
M  V30 3608 H 327.631 -0.237263 -0.627652 0
M  V30 3609 H 330.175 -1.28495 -1.59089 0
M  V30 3610 H 328.33 -0.284145 -3.86357 0
M  V30 3611 H 328.744 -2.33514 -4.6965 0
M  V30 3612 H 330.218 -0.805314 -5.46094 0
M  V30 3613 H 330.695 0.489075 -4.36468 0
M  V30 3614 H 331.301 -1.16067 -4.09156 0
M  V30 3615 N 329.616 1.39756 -0.72842 0
M  V30 3616 C 330.846 2.04651 -0.283117 0
M  V30 3617 C 331.254 1.5502 1.08469 0
M  V30 3618 O 330.597 0.707343 1.69536 0
M  V30 3619 C 330.659 3.58947 -0.199309 0
M  V30 3620 C 330.323 4.31525 -1.5045 0
M  V30 3621 C 331.32 4.5861 -2.44894 0
M  V30 3622 C 329.005 4.70195 -1.76698 0
M  V30 3623 C 330.999 5.23366 -3.63822 0
M  V30 3624 C 328.686 5.3468 -2.95906 0
M  V30 3625 C 329.684 5.61198 -3.89289 0
M  V30 3626 O 329.372 6.24347 -5.06404 0
M  V30 3627 H 329.104 0.664777 -0.122666 0
M  V30 3628 H 331.658 1.79913 -0.990987 0
M  V30 3629 H 329.888 3.82556 0.56461 0
M  V30 3630 H 331.577 4.0534 0.213125 0
M  V30 3631 H 332.343 4.29187 -2.25883 0
M  V30 3632 H 328.222 4.48916 -1.04859 0
M  V30 3633 H 331.766 5.4398 -4.36728 0
M  V30 3634 H 327.663 5.63524 -3.14819 0
M  V30 3635 H 328.431 6.42842 -5.06652 0
M  V30 3636 N 331.094 0.475555 1.50254 0
M  V30 3637 C 332.371 -0.139685 1.95101 0
M  V30 3638 C 332.751 -1.56555 1.41611 0
M  V30 3639 O 332.099 -2.19956 0.618993 0
M  V30 3640 C 332.309 -0.0784298 3.48912 0
M  V30 3641 C 333.657 -0.265095 4.23772 0
M  V30 3642 O 334.681 -0.154808 3.55863 0
M  V30 3643 O 333.54 -0.488327 5.44314 0
M  V30 3644 H 330.634 -0.109236 0.819754 0
M  V30 3645 H 333.18 0.536276 1.61004 0
M  V30 3646 H 331.952 0.916918 3.80405 0
M  V30 3647 H 331.575 -0.795655 3.89558 0
M  V30 3648 N 332.573 -1.56217 0.208337 0
M  V30 3649 C 333.82 -1.97949 -0.42692 0
M  V30 3650 C 334.148 -1.09562 -1.60706 0
M  V30 3651 O 333.403 -0.137616 -1.95216 0
M  V30 3652 C 333.702 -3.45441 -0.916797 0
M  V30 3653 C 333.368 -4.50646 0.151391 0
M  V30 3654 C 332.03 -4.79139 0.444867 0
M  V30 3655 C 334.382 -5.13811 0.874492 0
M  V30 3656 C 331.71 -5.68084 1.46619 0
M  V30 3657 C 334.062 -6.03861 1.88506 0
M  V30 3658 C 332.726 -6.30704 2.18559 0
M  V30 3659 H 331.996 -0.724345 -0.156221 0
M  V30 3660 H 334.643 -1.89006 0.308084 0
M  V30 3661 H 332.948 -3.51521 -1.73032 0
M  V30 3662 H 334.645 -3.75094 -1.41794 0
M  V30 3663 H 331.235 -4.28511 -0.0875068 0
M  V30 3664 H 335.419 -4.91879 0.660996 0
M  V30 3665 H 330.675 -5.87151 1.7048 0
M  V30 3666 H 334.849 -6.51861 2.45051 0
M  V30 3667 H 332.476 -6.99424 2.97843 0
M  V30 3668 N 334.051 0.0651679 -1.57465 0
M  V30 3669 C 335.3 0.761916 -1.86756 0
M  V30 3670 C 335.613 1.78406 -0.801925 0
M  V30 3671 O 336.819 2.53084 -0.982885 0
M  V30 3672 C 335.275 1.40603 -3.31299 0
M  V30 3673 C 334.883 0.422115 -4.46007 0
M  V30 3674 C 336.627 2.08476 -3.69781 0
M  V30 3675 C 334.534 1.07252 -5.81593 0
M  V30 3676 H 333.464 0.288308 -0.696702 0
M  V30 3677 H 336.115 0.015344 -1.83494 0
M  V30 3678 H 334.497 2.20109 -3.29193 0
M  V30 3679 H 335.671 -0.343613 -4.59517 0
M  V30 3680 H 333.986 -0.152527 -4.16121 0
M  V30 3681 H 336.583 2.57925 -4.68379 0
M  V30 3682 H 336.926 2.88712 -2.99919 0
M  V30 3683 H 337.459 1.35792 -3.73905 0
M  V30 3684 H 334.198 0.310342 -6.54765 0
M  V30 3685 H 333.718 1.80895 -5.71872 0
M  V30 3686 H 335.397 1.59043 -6.27148 0
M  V30 3687 N 335.529 1.53961 0.336706 0
M  V30 3688 C 336.778 1.70751 1.07363 0
M  V30 3689 C 337.091 0.481061 1.89592 0
M  V30 3690 O 338.297 0.530046 2.66276 0
M  V30 3691 C 336.753 3.01965 1.95818 0
M  V30 3692 C 336.361 4.31971 1.18764 0
M  V30 3693 C 338.105 3.28121 2.69327 0
M  V30 3694 C 336.012 5.54255 2.06289 0
M  V30 3695 H 334.942 0.636292 0.404535 0
M  V30 3696 H 337.593 1.80459 0.332681 0
M  V30 3697 H 335.975 2.86132 2.7376 0
M  V30 3698 H 337.149 4.5853 0.456849 0
M  V30 3699 H 335.464 4.12481 0.569946 0
M  V30 3700 H 338.061 4.16673 3.35094 0
M  V30 3701 H 338.404 2.45426 3.36261 0
M  V30 3702 H 338.937 3.44762 1.98454 0
M  V30 3703 H 335.676 6.39513 1.43885 0
M  V30 3704 H 335.196 5.31935 2.77138 0
M  V30 3705 H 336.875 5.90159 2.65182 0
M  V30 3706 N 337.007 -0.598083 1.45811 0
M  V30 3707 C 337.954 -1.7082 1.55207 0
M  V30 3708 C 338.924 -1.61278 0.39732 0
M  V30 3709 O 340.109 -1.80717 0.612038 0
M  V30 3710 C 337.249 -3.09144 1.53376 0
M  V30 3711 C 336.362 -3.29423 2.79472 0
M  V30 3712 C 335.497 -4.57907 2.69248 0
M  V30 3713 C 334.536 -4.71476 3.90354 0
M  V30 3714 N 333.673 -5.9127 3.78608 0
M  V30 3715 H 338.513 -1.62125 2.50039 0
M  V30 3716 H 336.05 -0.790389 1.24062 0
M  V30 3717 H 338.008 -3.89186 1.50301 0
M  V30 3718 H 336.638 -3.16773 0.620876 0
M  V30 3719 H 335.69 -2.43091 2.92594 0
M  V30 3720 H 337.002 -3.3532 3.69272 0
M  V30 3721 H 336.156 -5.46157 2.64192 0
M  V30 3722 H 334.895 -4.54423 1.77063 0
M  V30 3723 H 333.9 -3.81648 3.95759 0
M  V30 3724 H 335.125 -4.76751 4.83617 0
M  V30 3725 H 333.071 -5.88813 2.89199 0
M  V30 3726 H 332.988 -5.98369 4.6205 0
M  V30 3727 H 334.256 -6.81992 3.77501 0
M  V30 3728 N 338.485 -1.33259 -0.841409 0
M  V30 3729 C 339.901 -1.12538 -1.13169 0
M  V30 3730 C 340.101 0.0854037 -2.01319 0
M  V30 3731 O 339.157 0.766417 -2.40587 0
M  V30 3732 C 340.47 -2.41156 -1.79623 0
M  V30 3733 C 342.018 -2.47038 -1.922 0
M  V30 3734 C 342.493 -3.7561 -2.6207 0
M  V30 3735 N 343.984 -3.76667 -2.69585 0
M  V30 3736 C 344.719 -4.72861 -3.2433 0
M  V30 3737 N 344.215 -5.79428 -3.79783 0
M  V30 3738 N 346.008 -4.6034 -3.22558 0
M  V30 3739 H 338.159 -2.10868 -0.254676 0
M  V30 3740 H 340.422 -0.931615 -0.175493 0
M  V30 3741 H 340.128 -3.29747 -1.22311 0
M  V30 3742 H 340.002 -2.53114 -2.79666 0
M  V30 3743 H 342.389 -1.58898 -2.48667 0
M  V30 3744 H 342.47 -2.39022 -0.911148 0
M  V30 3745 H 342.114 -4.64131 -2.06263 0
M  V30 3746 H 342.044 -3.80902 -3.63622 0
M  V30 3747 H 344.535 -2.99648 -2.30259 0
M  V30 3748 H 344.848 -6.48867 -4.19752 0
M  V30 3749 H 343.193 -5.83166 -3.78078 0
M  V30 3750 H 346.384 -3.76244 -2.78492 0
M  V30 3751 H 346.557 -5.35478 -3.64921 0
M  V30 3752 N 339.963 1.05934 -1.16686 0
M  V30 3753 C 340.91 2.13499 -0.876748 0
M  V30 3754 C 341.88 1.65162 0.176299 0
M  V30 3755 O 343.065 1.90757 0.0407143 0
M  V30 3756 C 340.205 3.42912 -0.387967 0
M  V30 3757 C 339.318 4.04964 -1.50426 0
M  V30 3758 C 338.453 5.22266 -0.970125 0
M  V30 3759 C 337.492 5.76309 -2.06238 0
M  V30 3760 N 336.629 6.84922 -1.54356 0
M  V30 3761 H 341.469 2.37654 -1.7979 0
M  V30 3762 H 339.006 1.16598 -0.896843 0
M  V30 3763 H 340.964 4.17111 -0.086186 0
M  V30 3764 H 339.594 3.18963 0.496235 0
M  V30 3765 H 338.646 3.28277 -1.92193 0
M  V30 3766 H 339.958 4.41122 -2.32836 0
M  V30 3767 H 339.112 6.03506 -0.621743 0
M  V30 3768 H 337.851 4.87564 -0.115377 0
M  V30 3769 H 336.856 4.93704 -2.41942 0
M  V30 3770 H 338.081 6.13062 -2.92115 0
M  V30 3771 H 336.027 6.52131 -0.711406 0
M  V30 3772 H 335.944 7.20043 -2.30379 0
M  V30 3773 H 337.212 7.69832 -1.22387 0
M  V30 3774 N 341.441 0.965919 1.2453 0
M  V30 3775 C 342.852 0.665929 1.7442 0
M  V30 3776 C 343.203 -0.818407 1.78316 0
M  V30 3777 O 342.328 -1.64037 1.41141 0
M  V30 3778 C 342.923 1.20211 3.16757 0
M  V30 3779 C 341.482 0.952059 3.6416 0
M  V30 3780 C 340.629 1.33848 2.42858 0
M  V30 3781 H 343.58 1.14144 1.10258 0
M  V30 3782 H 343.601 0.567544 3.76244 0
M  V30 3783 H 343.113 2.28244 3.13889 0
M  V30 3784 H 341.214 -0.112821 3.72429 0
M  V30 3785 H 341.327 1.59645 4.51719 0
M  V30 3786 H 339.691 0.756864 2.43195 0
M  V30 3787 H 340.474 2.42827 2.42673 0
M  V30 3788 N 342.919 -1.39368 0.735821 0
M  V30 3789 C 343.849 -2.33234 0.111506 0
M  V30 3790 C 344.83 -1.53954 -0.723334 0
M  V30 3791 O 346.015 -1.82344 -0.668147 0
M  V30 3792 C 343.145 -3.38057 -0.795917 0
M  V30 3793 C 342.099 -4.2795 -0.065172 0
M  V30 3794 C 341.425 -5.23479 -1.08967 0
M  V30 3795 C 342.725 -5.10741 1.09273 0
M  V30 3796 H 344.419 -2.85692 0.895571 0
M  V30 3797 H 341.965 -1.37364 0.432109 0
M  V30 3798 H 343.918 -4.02675 -1.24221 0
M  V30 3799 H 342.642 -2.8404 -1.61211 0
M  V30 3800 H 341.301 -3.64813 0.361511 0
M  V30 3801 H 340.949 -4.65758 -1.89944 0
M  V30 3802 H 340.649 -5.84472 -0.605489 0
M  V30 3803 H 342.173 -5.90974 -1.53565 0
M  V30 3804 H 343.587 -5.68699 0.724841 0
M  V30 3805 H 341.984 -5.8088 1.50659 0
M  V30 3806 H 343.054 -4.45525 1.91404 0
M  V30 3807 N 344.397 -0.483516 -1.5 0
M  V30 3808 C 345.644 0.0671597 -2.02389 0
M  V30 3809 C 345.972 1.38597 -1.36459 0
M  V30 3810 O 345.227 1.89634 -0.483458 0
M  V30 3811 C 345.526 0.286226 -3.56252 0
M  V30 3812 C 345.192 -0.952416 -4.40726 0
M  V30 3813 C 343.854 -1.29199 -4.63531 0
M  V30 3814 C 346.206 -1.77655 -4.89988 0
M  V30 3815 C 343.534 -2.45553 -5.32842 0
M  V30 3816 C 345.886 -2.93147 -5.60578 0
M  V30 3817 C 344.55 -3.27505 -5.81633 0
M  V30 3818 H 343.82 0.0245755 -0.740592 0
M  V30 3819 H 346.467 -0.640124 -1.80485 0
M  V30 3820 H 344.772 1.07587 -3.76739 0
M  V30 3821 H 346.469 0.726473 -3.94365 0
M  V30 3822 H 343.059 -0.677881 -4.23205 0
M  V30 3823 H 347.243 -1.52737 -4.72213 0
M  V30 3824 H 342.499 -2.72431 -5.47349 0
M  V30 3825 H 346.673 -3.57344 -5.97727 0
M  V30 3826 H 344.3 -4.1777 -6.35116 0
M  V30 3827 N 345.875 1.56104 -0.216619 0
M  V30 3828 C 347.105 2.02269 0.420802 0
M  V30 3829 C 347.513 1.09575 1.5424 0
M  V30 3830 O 346.856 0.0967308 1.83445 0
M  V30 3831 C 346.918 3.44784 1.01806 0
M  V30 3832 C 346.582 4.56988 0.0325154 0
M  V30 3833 C 347.579 5.14225 -0.766055 0
M  V30 3834 C 345.264 5.02228 -0.0848092 0
M  V30 3835 C 347.258 6.15169 -1.6687 0
M  V30 3836 C 344.945 6.03011 -0.990994 0
M  V30 3837 C 345.943 6.59357 -1.78149 0
M  V30 3838 O 345.631 7.58179 -2.67245 0
M  V30 3839 H 345.363 0.667353 0.107776 0
M  V30 3840 H 347.917 2.02747 -0.329034 0
M  V30 3841 H 346.147 3.41359 1.81689 0
M  V30 3842 H 347.836 3.74626 1.56237 0
M  V30 3843 H 348.602 4.80126 -0.685836 0
M  V30 3844 H 344.481 4.58054 0.520349 0
M  V30 3845 H 348.025 6.59076 -2.28615 0
M  V30 3846 H 343.922 6.36532 -1.07225 0
M  V30 3847 H 344.69 7.75682 -2.61265 0
M  V30 3848 N 347.353 -0.0568162 1.57498 0
M  V30 3849 C 348.581 -0.765626 1.92213 0
M  V30 3850 C 348.996 -1.70353 0.813961 0
M  V30 3851 O 348.353 -1.81268 -0.211701 0
M  V30 3852 C 348.404 -1.5465 3.2675 0
M  V30 3853 O 348.125 -0.646278 4.33307 0
M  V30 3854 C 349.626 -2.35497 3.75574 0
M  V30 3855 H 346.846 -0.216835 0.634999 0
M  V30 3856 H 349.39 -0.0226146 2.04487 0
M  V30 3857 H 347.545 -2.24165 3.15957 0
M  V30 3858 H 347.959 -1.19093 5.108 0
M  V30 3859 H 349.433 -2.85722 4.72299 0
M  V30 3860 H 349.91 -3.15692 3.05344 0
M  V30 3861 H 350.516 -1.7111 3.8936 0
M  V30 3862 N 348.832 -1.54138 -0.328536 0
M  V30 3863 C 350.081 -1.71318 -1.06456 0
M  V30 3864 C 350.394 -0.491109 -1.89334 0
M  V30 3865 O 351.6 -0.54416 -2.65991 0
M  V30 3866 C 350.056 -3.03 -1.94214 0
M  V30 3867 C 349.664 -4.32595 -1.16471 0
M  V30 3868 C 351.408 -3.29544 -2.67583 0
M  V30 3869 C 349.315 -5.55341 -2.03347 0
M  V30 3870 H 348.245 -0.638429 -0.401155 0
M  V30 3871 H 350.896 -1.80633 -0.323106 0
M  V30 3872 H 349.278 -2.87579 -2.72239 0
M  V30 3873 H 350.452 -4.58766 -0.432525 0
M  V30 3874 H 348.767 -4.12777 -0.548063 0
M  V30 3875 H 351.364 -4.18444 -3.3288 0
M  V30 3876 H 351.707 -2.47206 -3.34955 0
M  V30 3877 H 352.24 -3.45809 -1.96623 0
M  V30 3878 H 348.979 -6.40268 -1.40491 0
M  V30 3879 H 348.499 -5.33397 -2.74313 0
M  V30 3880 H 350.178 -5.91557 -2.62049 0
M  V30 3881 N 350.31 0.590341 -1.46126 0
M  V30 3882 C 351.258 1.72105 -1.5647 0
M  V30 3883 C 352.252 1.63756 -0.433612 0
M  V30 3884 O 353.458 1.69342 -0.610194 0
M  V30 3885 H 349.833 0.568889 -0.491802 0
M  V30 3886 H 351.804 1.6051 -2.51553 0
M  V30 3887 C 350.553 3.10493 -1.56491 0
M  V30 3888 H 349.876 3.17583 -2.4286 0
M  V30 3889 H 351.316 3.8939 -1.67785 0
M  V30 3890 C 349.775 3.3563 -0.292231 0
M  V30 3891 O 350.305 3.96875 0.620739 0
M  V30 3892 N 348.511 2.90026 -0.182523 0
M  V30 3893 H 348.058 2.40367 -0.926356 0
M  V30 3894 H 348.016 3.07218 0.668152 0
M  V30 3895 N 351.788 1.33704 0.83433 0
M  V30 3896 C 352.718 1.26967 1.95963 0
M  V30 3897 C 353.699 0.149337 1.69443 0
M  V30 3898 O 354.884 0.339852 1.91203 0
M  V30 3899 C 352.014 1.01275 3.32206 0
M  V30 3900 C 350.968 2.09652 3.73136 0
M  V30 3901 C 350.294 1.69166 5.07235 0
M  V30 3902 C 351.594 3.51372 3.86439 0
M  V30 3903 H 353.288 2.2112 2.01857 0
M  V30 3904 H 350.834 1.06447 0.969793 0
M  V30 3905 H 352.787 0.952106 4.10503 0
M  V30 3906 H 351.511 0.0356203 3.26581 0
M  V30 3907 H 350.17 2.14766 2.97104 0
M  V30 3908 H 349.818 0.701437 4.98085 0
M  V30 3909 H 349.518 2.41694 5.35591 0
M  V30 3910 H 351.042 1.64576 5.88003 0
M  V30 3911 H 352.456 3.48734 4.55036 0
M  V30 3912 H 350.853 4.22425 4.26236 0
M  V30 3913 H 351.923 3.89546 2.88759 0
M  V30 3914 N 353.266 -1.05314 1.17247 0
M  V30 3915 C 354.515 -1.77685 0.954521 0
M  V30 3916 C 354.828 -1.88616 -0.518025 0
M  V30 3917 O 356.034 -2.57714 -0.854144 0
M  V30 3918 C 354.49 -3.19402 1.65863 0
M  V30 3919 C 354.098 -3.16605 3.16963 0
M  V30 3920 C 355.842 -3.96237 1.52303 0
M  V30 3921 C 353.749 -4.53103 3.80068 0
M  V30 3922 H 352.679 -0.666 0.353496 0
M  V30 3923 H 355.33 -1.1805 1.40486 0
M  V30 3924 H 353.712 -3.79355 1.13602 0
M  V30 3925 H 354.886 -2.66176 3.76148 0
M  V30 3926 H 353.201 -2.53268 3.30521 0
M  V30 3927 H 355.798 -4.97157 1.96822 0
M  V30 3928 H 356.141 -4.136 0.473401 0
M  V30 3929 H 356.674 -3.42829 2.01775 0
M  V30 3930 H 353.413 -4.40946 4.85023 0
M  V30 3931 H 352.933 -5.03686 3.2567 0
M  V30 3932 H 354.612 -5.22045 3.82202 0
M  V30 3933 N 354.744 -0.972509 -1.24016 0
M  V30 3934 C 355.993 -0.632603 -1.91523 0
M  V30 3935 C 356.306 0.836641 -1.76804 0
M  V30 3936 O 357.512 1.28728 -2.39043 0
M  V30 3937 C 355.968 -1.08082 -3.43287 0
M  V30 3938 C 355.576 -2.57386 -3.66683 0
M  V30 3939 C 357.32 -0.814288 -4.16617 0
M  V30 3940 C 355.227 -2.95915 -5.12043 0
M  V30 3941 H 354.157 -0.232898 -0.717129 0
M  V30 3942 H 356.808 -1.17936 -1.40582 0
M  V30 3943 H 355.19 -0.462339 -3.93292 0
M  V30 3944 H 356.364 -3.24405 -3.27258 0
M  V30 3945 H 354.679 -2.81701 -3.06649 0
M  V30 3946 H 357.276 -1.0781 -5.23718 0
M  V30 3947 H 357.619 0.24955 -4.15551 0
M  V30 3948 H 358.152 -1.39397 -3.72577 0
M  V30 3949 H 354.891 -4.0139 -5.18234 0
M  V30 3950 H 354.411 -2.33584 -5.52448 0
M  V30 3951 H 356.09 -2.86086 -5.80314 0
M  V30 3952 N 356.222 1.38976 -0.743202 0
M  V30 3953 C 357.633 1.83123 -0.363732 0
M  V30 3954 C 357.984 1.6205 1.10609 0
M  V30 3955 O 357.109 1.11606 1.854 0
M  V30 3956 C 357.704 3.32439 -0.653408 0
M  V30 3957 C 356.263 3.74974 -0.327338 0
M  V30 3958 C 355.41 2.61878 -0.911875 0
M  V30 3959 H 358.361 1.27852 -0.940191 0
M  V30 3960 H 358.382 3.80432 0.0720031 0
M  V30 3961 H 357.894 3.47745 -1.72323 0
M  V30 3962 H 355.995 3.65252 0.736314 0
M  V30 3963 H 356.108 4.72106 -0.815631 0
M  V30 3964 H 354.472 2.52448 -0.337944 0
M  V30 3965 H 355.255 2.79987 -1.98651 0
M  V30 3966 N 357.7 0.491464 1.49741 0
M  V30 3967 C 358.94 -0.0549118 2.04326 0
M  V30 3968 C 359.304 -1.35148 1.36378 0
M  V30 3969 O 360.505 -1.9815 1.81631 0
M  V30 3970 C 358.776 -0.213841 3.5676 0
M  V30 3971 S 360.335 -0.715839 4.32922 0
M  V30 3972 H 357.153 -0.00630513 0.710972 0
M  V30 3973 H 359.755 0.663257 1.83905 0
M  V30 3974 H 358.459 0.73527 4.0376 0
M  V30 3975 H 357.99 -0.957529 3.81569 0
M  V30 3976 H 360.005 -1.9864 4.54705 0
M  V30 3977 N 359.178 -1.55987 0.224894 0
M  V30 3978 C 360.424 -1.98684 -0.406502 0
M  V30 3979 C 360.757 -1.11248 -1.59177 0
M  V30 3980 O 360.032 -0.170909 -1.93748 0
M  V30 3981 C 360.315 -3.50218 -0.837808 0
M  V30 3982 C 360.168 -4.48426 0.351332 0
M  V30 3983 C 361.487 -4.06243 -1.69278 0
M  V30 3984 H 358.606 -0.722337 -0.146283 0
M  V30 3985 H 361.248 -1.87255 0.321799 0
M  V30 3986 H 359.398 -3.60089 -1.45837 0
M  V30 3987 H 361.07 -4.50562 0.989526 0
M  V30 3988 H 359.313 -4.22159 0.998207 0
M  V30 3989 H 359.984 -5.52 0.00655905 0
M  V30 3990 H 362.46 -3.99337 -1.16914 0
M  V30 3991 H 361.336 -5.12581 -1.96346 0
M  V30 3992 H 361.597 -3.53332 -2.65723 0
M  V30 3993 N 360.656 0.0484629 -1.57525 0
M  V30 3994 C 361.586 1.0549 -2.08313 0
M  V30 3995 C 362.567 1.38929 -0.981463 0
M  V30 3996 O 363.752 1.48151 -1.25558 0
M  V30 3997 C 360.882 2.36162 -2.54646 0
M  V30 3998 C 359.836 2.17016 -3.68901 0
M  V30 3999 C 359.162 3.53278 -4.01371 0
M  V30 4000 C 360.462 1.57219 -4.98076 0
M  V30 4001 H 362.156 0.632195 -2.92649 0
M  V30 4002 H 359.702 0.302654 -1.40784 0
M  V30 4003 H 361.655 3.06882 -2.88793 0
M  V30 4004 H 360.379 2.80456 -1.67368 0
M  V30 4005 H 359.038 1.48733 -3.35073 0
M  V30 4006 H 358.686 3.95185 -3.11188 0
M  V30 4007 H 358.386 3.41299 -4.78318 0
M  V30 4008 H 359.91 4.25391 -4.38035 0
M  V30 4009 H 361.324 2.17832 -5.30304 0
M  V30 4010 H 359.721 1.55871 -5.79503 0
M  V30 4011 H 360.791 0.535956 -4.81929 0
M  V30 4012 N 362.134 1.5431 0.320358 0
M  V30 4013 C 363.362 1.76636 1.07738 0
M  V30 4014 C 363.777 0.51649 1.81598 0
M  V30 4015 O 363.134 -0.512942 1.75143 0
M  V30 4016 C 363.185 2.96158 2.07299 0
M  V30 4017 O 362.906 4.16313 1.36438 0
M  V30 4018 C 364.407 3.3072 2.95193 0
M  V30 4019 H 361.627 0.589597 0.320339 0
M  V30 4020 H 364.171 2.01207 0.36551 0
M  V30 4021 H 362.326 2.73851 2.74016 0
M  V30 4022 H 362.74 4.83565 2.03138 0
M  V30 4023 H 364.214 4.17643 3.60941 0
M  V30 4024 H 364.691 2.48026 3.62463 0
M  V30 4025 H 365.297 3.55117 2.34034 0
M  V30 4026 N 363.613 -0.582584 1.46437 0
M  V30 4027 C 364.841 -1.36682 1.55324 0
M  V30 4028 C 365.256 -1.87796 0.194409 0
M  V30 4029 O 364.613 -1.63623 -0.808318 0
M  V30 4030 C 364.664 -2.55426 2.55812 0
M  V30 4031 O 364.385 -2.0643 3.86417 0
M  V30 4032 C 365.886 -3.47976 2.74641 0
M  V30 4033 H 363.106 -0.417545 0.525259 0
M  V30 4034 H 365.65 -0.708219 1.91845 0
M  V30 4035 H 363.805 -3.17275 2.22295 0
M  V30 4036 H 364.219 -2.83762 4.41111 0
M  V30 4037 H 365.693 -4.27775 3.48874 0
M  V30 4038 H 366.17 -3.99919 1.81553 0
M  V30 4039 H 366.776 -2.91962 3.09255 0
M  V30 4040 N 365.091 -1.34144 -0.827227 0
M  V30 4041 C 366.021 -1.28005 -1.95287 0
M  V30 4042 C 367.002 -0.158321 -1.69362 0
M  V30 4043 O 368.187 -0.349987 -1.9102 0
M  V30 4044 C 365.317 -1.03036 -3.31664 0
M  V30 4045 C 364.271 -2.11628 -3.72019 0
M  V30 4046 C 363.597 -1.71854 -5.0633 0
M  V30 4047 C 364.897 -3.53417 -3.8457 0
M  V30 4048 H 366.591 -2.22187 -2.00682 0
M  V30 4049 H 364.137 -1.0696 -0.964135 0
M  V30 4050 H 366.09 -0.973863 -4.09993 0
M  V30 4051 H 364.814 -0.0529391 -3.26557 0
M  V30 4052 H 363.473 -2.16339 -2.95961 0
M  V30 4053 H 363.121 -0.727841 -4.97706 0
M  V30 4054 H 362.821 -2.44531 -5.34302 0
M  V30 4055 H 364.345 -1.67692 -5.87122 0
M  V30 4056 H 365.759 -3.51142 -4.5318 0
M  V30 4057 H 364.156 -4.24679 -4.2399 0
M  V30 4058 H 365.226 -3.91072 -2.86689 0
M  V30 4059 N 366.569 1.04691 -1.17803 0
M  V30 4060 C 367.499 2.14494 -0.92275 0
M  V30 4061 C 368.48 1.69546 0.137179 0
M  V30 4062 O 369.665 1.94195 -0.0141108 0
M  V30 4063 C 366.795 3.44491 -0.440803 0
M  V30 4064 C 365.749 4.03031 -1.4405 0
M  V30 4065 C 365.075 5.28432 -0.81631 0
M  V30 4066 C 366.375 4.39932 -2.81527 0
M  V30 4067 H 368.069 2.36107 -1.84103 0
M  V30 4068 H 365.615 1.1347 -0.886599 0
M  V30 4069 H 367.568 4.2066 -0.249602 0
M  V30 4070 H 366.292 3.22546 0.513025 0
M  V30 4071 H 364.951 3.28937 -1.61853 0
M  V30 4072 H 364.599 5.02792 0.144511 0
M  V30 4073 H 364.299 5.68559 -1.48371 0
M  V30 4074 H 365.823 6.07284 -0.635496 0
M  V30 4075 H 367.237 5.07113 -2.67412 0
M  V30 4076 H 365.634 4.9109 -3.44892 0
M  V30 4077 H 366.704 3.50045 -3.35554 0
M  V30 4078 N 368.047 0.979072 1.23499 0
M  V30 4079 C 369.01 0.523244 2.23147 0
M  V30 4080 C 370.01 -0.386406 1.56088 0
M  V30 4081 O 371.2 -0.180283 1.73265 0
M  V30 4082 C 368.332 -0.240739 3.40049 0
M  V30 4083 H 369.525 1.40432 2.64989 0
M  V30 4084 H 367.078 0.764824 1.36309 0
M  V30 4085 H 367.813 -1.13841 3.03662 0
M  V30 4086 H 367.598 0.412207 3.89927 0
M  V30 4087 H 369.088 -0.548297 4.13985 0
M  V30 4088 N 369.525 -1.3858 0.750561 0
M  V30 4089 C 370.774 -1.99424 0.302172 0
M  V30 4090 C 371.087 -1.60254 -1.12152 0
M  V30 4091 O 372.293 -2.14046 -1.67023 0
M  V30 4092 C 370.749 -3.56558 0.489307 0
M  V30 4093 C 370.357 -4.04682 1.92189 0
M  V30 4094 C 372.101 -4.24374 0.103478 0
M  V30 4095 C 370.008 -5.54446 2.05775 0
M  V30 4096 H 368.938 -0.746046 0.10923 0
M  V30 4097 H 371.589 -1.58383 0.92667 0
M  V30 4098 H 369.971 -3.95472 -0.204329 0
M  V30 4099 H 371.145 -3.77065 2.64875 0
M  V30 4100 H 369.46 -3.4958 2.26236 0
M  V30 4101 H 372.057 -5.34384 0.183787 0
M  V30 4102 H 372.4 -4.05468 -0.943481 0
M  V30 4103 H 372.933 -3.90688 0.748854 0
M  V30 4104 H 369.672 -5.78252 3.08714 0
M  V30 4105 H 369.192 -5.83816 1.37546 0
M  V30 4106 H 370.871 -6.20099 1.84626 0
M  V30 4107 N 371.003 -0.499398 -1.49478 0
M  V30 4108 C 371.933 0.269244 -2.31943 0
M  V30 4109 C 372.914 0.964054 -1.40143 0
M  V30 4110 O 374.099 0.955767 -1.69052 0
M  V30 4111 C 371.229 1.33504 -3.20615 0
M  V30 4112 C 370.183 0.760202 -4.21195 0
M  V30 4113 C 369.509 1.9264 -4.98792 0
M  V30 4114 C 370.809 -0.247661 -5.21712 0
M  V30 4115 H 372.503 -0.419082 -2.96452 0
M  V30 4116 H 370.049 -0.202988 -1.42562 0
M  V30 4117 H 372.002 1.88048 -3.77115 0
M  V30 4118 H 370.726 2.05253 -2.54045 0
M  V30 4119 H 369.385 0.23653 -3.65836 0
M  V30 4120 H 369.033 2.63154 -4.28671 0
M  V30 4121 H 368.733 1.54785 -5.66847 0
M  V30 4122 H 370.257 2.4762 -5.58137 0
M  V30 4123 H 371.671 0.209579 -5.72917 0
M  V30 4124 H 370.068 -0.541962 -5.97648 0
M  V30 4125 H 371.138 -1.16409 -4.7072 0
M  V30 4126 N 372.481 1.55866 -0.233164 0
M  V30 4127 C 373.727 1.98897 0.395959 0
M  V30 4128 C 374.06 1.12091 1.58585 0
M  V30 4129 O 373.335 0.181182 1.93654 0
M  V30 4130 C 373.618 3.50658 0.819224 0
M  V30 4131 C 373.471 4.48233 -0.375109 0
M  V30 4132 C 374.79 4.07135 1.67121 0
M  V30 4133 H 371.909 0.723102 0.142451 0
M  V30 4134 H 374.551 1.87082 -0.331725 0
M  V30 4135 H 372.701 3.60857 1.43925 0
M  V30 4136 H 374.373 4.50031 -1.01341 0
M  V30 4137 H 372.616 4.21624 -1.02058 0
M  V30 4138 H 373.287 5.51988 -0.0358328 0
M  V30 4139 H 375.763 3.99952 1.14795 0
M  V30 4140 H 374.639 5.13615 1.93625 0
M  V30 4141 H 374.9 3.54736 2.63846 0
M  V30 4142 N 373.959 -0.0401083 1.57549 0
M  V30 4143 C 375.206 -0.733125 1.88763 0
M  V30 4144 C 375.534 -1.75946 0.829058 0
M  V30 4145 O 374.789 -1.94949 -0.171323 0
M  V30 4146 C 375.088 -1.44902 3.26708 0
M  V30 4147 C 374.754 -0.559707 4.47413 0
M  V30 4148 C 373.416 -0.314731 4.8017 0
M  V30 4149 C 375.768 0.0549743 5.21171 0
M  V30 4150 C 373.096 0.553886 5.8408 0
M  V30 4151 C 375.448 0.911229 6.26003 0
M  V30 4152 C 374.112 1.16577 6.57241 0
M  V30 4153 H 373.382 -0.268269 0.690733 0
M  V30 4154 H 376.029 0.00679408 1.91499 0
M  V30 4155 H 374.334 -2.26197 3.1991 0
M  V30 4156 H 376.031 -1.99058 3.48105 0
M  V30 4157 H 372.621 -0.760793 4.21794 0
M  V30 4158 H 376.805 -0.121344 4.96152 0
M  V30 4159 H 372.061 0.759518 6.06664 0
M  V30 4160 H 376.235 1.3941 6.82303 0
M  V30 4161 H 373.862 1.84058 7.37582 0
M  V30 4162 N 375.437 -1.54477 -0.31217 0
M  V30 4163 C 376.667 -1.76948 -1.06645 0
M  V30 4164 C 377.075 -0.523593 -1.81811 0
M  V30 4165 O 376.418 0.51578 -1.76311 0
M  V30 4166 C 376.48 -2.91668 -2.10166 0
M  V30 4167 C 376.144 -4.30165 -1.54296 0
M  V30 4168 C 377.141 -5.10603 -0.978793 0
M  V30 4169 C 374.826 -4.76738 -1.58196 0
M  V30 4170 C 376.82 -6.3573 -0.461048 0
M  V30 4171 C 374.507 -6.01831 -1.06034 0
M  V30 4172 C 375.505 -6.81161 -0.500844 0
M  V30 4173 O 375.193 -8.03899 0.0128958 0
M  V30 4174 H 374.925 -0.594088 -0.322546 0
M  V30 4175 H 377.479 -2.02213 -0.360441 0
M  V30 4176 H 375.709 -2.62001 -2.84416 0
M  V30 4177 H 377.398 -3.01817 -2.71406 0
M  V30 4178 H 378.164 -4.75771 -0.941651 0
M  V30 4179 H 374.043 -4.15027 -2.00683 0
M  V30 4180 H 377.587 -6.97596 -0.0236894 0
M  V30 4181 H 373.484 -6.36152 -1.09459 0
M  V30 4182 H 374.252 -8.18437 -0.101457 0
M  V30 4183 N 376.915 0.57481 -1.46744 0
M  V30 4184 C 377.845 1.69337 -1.60771 0
M  V30 4185 C 378.826 1.63825 -0.457736 0
M  V30 4186 O 380.011 1.8172 -0.684947 0
M  V30 4187 C 377.141 3.0798 -1.60517 0
M  V30 4188 C 376.095 3.28327 -2.74564 0
M  V30 4189 C 375.421 4.67578 -2.59373 0
M  V30 4190 C 376.721 3.15398 -4.16319 0
M  V30 4191 H 378.415 1.57853 -2.54407 0
M  V30 4192 H 375.961 0.75799 -1.22436 0
M  V30 4193 H 377.914 3.86061 -1.68923 0
M  V30 4194 H 376.638 3.20381 -0.634305 0
M  V30 4195 H 375.297 2.52649 -2.65639 0
M  V30 4196 H 374.945 4.76755 -1.60353 0
M  V30 4197 H 374.645 4.82144 -3.35873 0
M  V30 4198 H 376.169 5.47817 -2.69682 0
M  V30 4199 H 377.583 3.83315 -4.26313 0
M  V30 4200 H 375.98 3.41482 -4.93468 0
M  V30 4201 H 377.05 2.12372 -4.3592 0
M  V30 4202 N 378.394 1.34581 0.820102 0
M  V30 4203 C 379.805 1.24298 1.39309 0
M  V30 4204 C 380.156 -0.130351 1.95767 0
M  V30 4205 O 379.281 -1.0308 1.90272 0
M  V30 4206 C 379.876 2.25054 2.53251 0
M  V30 4207 C 378.435 2.18552 3.0645 0
M  V30 4208 C 377.582 2.11503 1.79337 0
M  V30 4209 H 380.533 1.45906 0.624262 0
M  V30 4210 H 380.554 1.86917 3.31425 0
M  V30 4211 H 380.066 3.24996 2.1213 0
M  V30 4212 H 378.167 1.21976 3.52069 0
M  V30 4213 H 378.28 3.0993 3.65349 0
M  V30 4214 H 376.644 1.57268 2.00347 0
M  V30 4215 H 377.427 3.13284 1.40386 0
M  V30 4216 N 379.872 -1.04064 1.18357 0
M  V30 4217 C 381.097 -1.81454 1.00445 0
M  V30 4218 C 381.522 -1.82823 -0.442423 0
M  V30 4219 O 380.88 -1.24555 -1.31741 0
M  V30 4220 C 380.928 -3.24925 1.56384 0
M  V30 4221 O 380.032 -4.04856 0.785209 0
M  V30 4222 H 379.373 -0.560604 0.355835 0
M  V30 4223 H 381.903 -1.31059 1.57114 0
M  V30 4224 H 381.913 -3.75702 1.59097 0
M  V30 4225 H 380.588 -3.23244 2.61699 0
M  V30 4226 H 379.165 -3.63537 0.830399 0
M  V30 4227 N 381.35 -0.985608 -1.22978 0
M  V30 4228 C 382.627 -0.573599 -1.87001 0
M  V30 4229 C 383.007 0.949213 -1.88555 0
M  V30 4230 O 382.355 1.82811 -1.37086 0
M  V30 4231 C 382.565 -1.18564 -3.28243 0
M  V30 4232 C 383.913 -1.28163 -4.04796 0
M  V30 4233 O 384.937 -1.13949 -3.37482 0
M  V30 4234 O 383.796 -1.50832 -5.25273 0
M  V30 4235 H 380.89 -0.193868 -0.803955 0
M  V30 4236 H 383.436 -1.08102 -1.30813 0
M  V30 4237 H 382.208 -2.22758 -3.21706 0
M  V30 4238 H 381.831 -0.663363 -3.92027 0
M  V30 4239 N 382.828 1.3818 -0.7579 0
M  V30 4240 C 384.068 2.01864 -0.320968 0
M  V30 4241 C 384.432 1.58863 1.07827 0
M  V30 4242 O 385.633 2.14908 1.61456 0
M  V30 4243 C 383.904 3.54626 -0.44446 0
M  V30 4244 S 385.463 4.38706 -0.0907467 0
M  V30 4245 H 382.281 0.700056 -0.124268 0
M  V30 4246 H 384.883 1.68611 -0.989468 0
M  V30 4247 H 383.587 3.83411 -1.4637 0
M  V30 4248 H 383.118 3.92661 0.241073 0
M  V30 4249 H 385.133 4.83435 1.11826 0
M  V30 4250 N 384.306 0.507319 1.49211 0
M  V30 4251 C 385.554 -0.0348839 2.0207 0
M  V30 4252 C 385.875 -1.36898 1.38866 0
M  V30 4253 O 385.145 -1.88133 0.546151 0
M  V30 4254 H 383.725 -0.0158812 0.746831 0
M  V30 4255 H 386.387 0.665998 1.83168 0
M  V30 4256 H 385.483 -0.159917 3.1169 0
M  V30 4257 N 385.784 -1.5574 0.241426 0
M  V30 4258 C 386.694 -2.2479 -0.671305 0
M  V30 4259 C 387.71 -1.26217 -1.19772 0
M  V30 4260 O 388.886 -1.59079 -1.23514 0
M  V30 4261 C 385.951 -2.92966 -1.85396 0
M  V30 4262 C 385.012 -4.06935 -1.36756 0
M  V30 4263 C 384.245 -4.71851 -2.49384 0
M  V30 4264 O 384.468 -4.35823 -3.67987 0
M  V30 4265 O 383.402 -5.60467 -2.19454 0
M  V30 4266 H 387.228 -3.0349 -0.112966 0
M  V30 4267 H 384.813 -1.49397 0.0101513 0
M  V30 4268 H 386.695 -3.35927 -2.54423 0
M  V30 4269 H 385.37 -2.17211 -2.40002 0
M  V30 4270 H 384.277 -3.68503 -0.644726 0
M  V30 4271 H 385.61 -4.84492 -0.867647 0
M  V30 4272 N 387.262 0.0317525 -1.57568 0
M  V30 4273 C 388.209 1.0332 -2.06382 0
M  V30 4274 C 389.179 1.36082 -0.952414 0
M  V30 4275 O 390.364 1.46466 -1.2228 0
M  V30 4276 C 387.504 2.32989 -2.54578 0
M  V30 4277 C 386.617 2.0641 -3.79498 0
M  V30 4278 C 385.752 3.2993 -4.16317 0
M  V30 4279 C 384.791 2.98893 -5.34162 0
M  V30 4280 N 383.928 4.14857 -5.66426 0
M  V30 4281 H 388.768 0.609982 -2.9169 0
M  V30 4282 H 386.305 0.289573 -1.44222 0
M  V30 4283 H 388.263 3.0875 -2.80587 0
M  V30 4284 H 386.893 2.73039 -1.7219 0
M  V30 4285 H 385.945 1.21158 -3.6059 0
M  V30 4286 H 387.257 1.79513 -4.65378 0
M  V30 4287 H 386.411 4.1406 -4.4344 0
M  V30 4288 H 385.15 3.59938 -3.29083 0
M  V30 4289 H 384.155 2.13164 -5.06795 0
M  V30 4290 H 385.38 2.70165 -6.23047 0
M  V30 4291 H 383.326 4.44821 -4.82151 0
M  V30 4292 H 383.243 3.91374 -6.4681 0
M  V30 4293 H 384.511 4.99868 -5.98124 0
M  V30 4294 N 388.74 1.54641 0.303973 0
M  V30 4295 C 389.673 1.80263 1.3993 0
M  V30 4296 C 390.651 0.653657 1.48883 0
M  V30 4297 O 391.835 0.893284 1.6599 0
M  V30 4298 C 388.962 1.9367 2.77866 0
M  V30 4299 C 388.008 3.16078 2.86351 0
M  V30 4300 S 388.841 4.74219 2.4875 0
M  V30 4301 C 389.997 4.90558 3.88721 0
M  V30 4302 H 390.23 2.72886 1.17986 0
M  V30 4303 H 387.763 1.46014 0.501918 0
M  V30 4304 H 389.721 2.0208 3.57315 0
M  V30 4305 H 388.382 1.01991 2.9708 0
M  V30 4306 H 387.575 3.22252 3.87517 0
M  V30 4307 H 387.177 3.06099 2.14893 0
M  V30 4308 H 389.469 4.74398 4.83687 0
M  V30 4309 H 390.412 5.92651 3.87518 0
M  V30 4310 H 390.82 4.18728 3.78585 0
M  V30 4311 N 390.218 -0.567019 1.47046 0
M  V30 4312 C 391.446 -1.35027 1.56765 0
M  V30 4313 C 391.861 -1.8758 0.214316 0
M  V30 4314 O 391.218 -1.64471 -0.790919 0
M  V30 4315 C 391.269 -2.52698 2.58507 0
M  V30 4316 O 390.99 -2.0232 3.88585 0
M  V30 4317 C 392.491 -3.45043 2.78316 0
M  V30 4318 H 389.711 -0.41195 0.529658 0
M  V30 4319 H 392.255 -0.687832 1.92585 0
M  V30 4320 H 390.41 -3.149 2.25648 0
M  V30 4321 H 390.824 -2.79068 4.44096 0
M  V30 4322 H 392.298 -4.2405 3.53391 0
M  V30 4323 H 392.775 -3.97971 1.85784 0
M  V30 4324 H 393.381 -2.88665 3.12334 0
M  V30 4325 N 391.696 -1.35014 -0.812953 0
M  V30 4326 C 392.626 -1.30069 -1.93919 0
M  V30 4327 C 393.607 -0.176275 -1.69184 0
M  V30 4328 O 394.792 -0.370227 -1.90638 0
M  V30 4329 C 391.922 -1.06547 -3.30552 0
M  V30 4330 C 390.876 -2.15561 -3.69753 0
M  V30 4331 C 390.202 -1.77214 -5.04479 0
M  V30 4332 C 391.502 -3.57476 -3.808 0
M  V30 4333 H 393.196 -2.24303 -1.98314 0
M  V30 4334 H 390.742 -1.07977 -0.952736 0
M  V30 4335 H 392.695 -1.01729 -4.08937 0
M  V30 4336 H 391.419 -0.0875719 -3.26483 0
M  V30 4337 H 390.078 -2.19466 -2.9365 0
M  V30 4338 H 389.726 -0.780589 -4.96906 0
M  V30 4339 H 389.426 -2.50184 -5.31678 0
M  V30 4340 H 390.95 -1.7391 -5.8531 0
M  V30 4341 H 392.364 -3.55929 -4.4943 0
M  V30 4342 H 390.761 -4.29152 -4.19462 0
M  V30 4343 H 391.831 -3.94091 -2.82525 0
M  V30 4344 N 393.175 1.03435 -1.18907 0
M  V30 4345 C 394.415 1.78302 -0.999391 0
M  V30 4346 C 394.779 1.86353 0.462219 0
M  V30 4347 O 395.98 2.57489 0.771543 0
M  V30 4348 C 394.251 3.17362 -1.64365 0
M  V30 4349 S 395.81 4.08488 -1.6026 0
M  V30 4350 H 392.628 0.613861 -0.358742 0
M  V30 4351 H 395.23 1.23979 -1.51161 0
M  V30 4352 H 393.934 3.09116 -2.69955 0
M  V30 4353 H 393.465 3.76762 -1.13199 0
M  V30 4354 H 395.48 4.92274 -0.622932 0
M  V30 4355 N 394.653 0.992116 1.22453 0
M  V30 4356 C 395.902 0.662992 1.90492 0
M  V30 4357 C 396.215 -0.808407 1.78113 0
M  V30 4358 O 397.421 -1.24908 2.41061 0
M  V30 4359 C 395.877 1.1353 3.41524 0
M  V30 4360 C 395.485 2.63187 3.62542 0
M  V30 4361 C 397.229 0.880465 4.15269 0
M  V30 4362 C 395.136 3.04024 5.0727 0
M  V30 4363 H 394.066 0.244278 0.713333 0
M  V30 4364 H 396.717 1.20157 1.38688 0
M  V30 4365 H 395.099 0.52485 3.92506 0
M  V30 4366 H 396.273 3.2957 3.22056 0
M  V30 4367 H 394.588 2.86543 3.02129 0
M  V30 4368 H 397.185 1.16128 5.21937 0
M  V30 4369 H 397.528 -0.183408 4.15896 0
M  V30 4370 H 398.061 1.45307 3.70312 0
M  V30 4371 H 394.8 4.09584 5.11782 0
M  V30 4372 H 394.32 2.42343 5.48662 0
M  V30 4373 H 395.999 2.95282 5.75689 0
M  V30 4374 N 396.131 -1.37776 0.765217 0
M  V30 4375 C 397.356 -2.04651 0.336537 0
M  V30 4376 C 397.781 -1.57337 -1.03086 0
M  V30 4377 O 397.139 -0.730621 -1.65927 0
M  V30 4378 C 397.187 -3.58577 0.381468 0
M  V30 4379 O 396.291 -4.07706 -0.62042 0
M  V30 4380 H 395.632 -0.64756 0.146838 0
M  V30 4381 H 398.162 -1.76221 1.03959 0
M  V30 4382 H 398.172 -4.07314 0.236448 0
M  V30 4383 H 396.847 -3.9237 1.37907 0
M  V30 4384 H 395.424 -3.70306 -0.439056 0
M  V30 4385 N 397.609 -0.515225 -1.4894 0
M  V30 4386 C 398.855 0.0242508 -2.02785 0
M  V30 4387 C 399.188 1.35323 -1.39289 0
M  V30 4388 O 398.463 1.87041 -0.533469 0
M  V30 4389 C 398.746 0.16184 -3.59736 0
M  V30 4390 C 398.599 -1.19127 -4.33738 0
M  V30 4391 C 399.918 0.895719 -4.30888 0
M  V30 4392 H 397.037 0.00733914 -0.736963 0
M  V30 4393 H 399.679 -0.669395 -1.77818 0
M  V30 4394 H 397.829 0.752624 -3.8114 0
M  V30 4395 H 399.501 -1.82202 -4.23792 0
M  V30 4396 H 397.744 -1.77695 -3.95736 0
M  V30 4397 H 398.415 -1.04815 -5.41957 0
M  V30 4398 H 400.891 0.394528 -4.14225 0
M  V30 4399 H 399.767 0.960859 -5.40425 0
M  V30 4400 H 400.028 1.9427 -3.97129 0
M  V30 4401 N 399.087 1.5561 -0.249682 0
M  V30 4402 C 400.017 2.24477 0.642826 0
M  V30 4403 C 400.998 1.22601 1.17911 0
M  V30 4404 O 402.183 1.5126 1.21795 0
M  V30 4405 C 399.313 2.94638 1.83863 0
M  V30 4406 C 398.267 4.03227 1.435 0
M  V30 4407 C 397.593 4.60828 2.71186 0
M  V30 4408 C 398.893 5.18796 0.604002 0
M  V30 4409 H 400.587 2.99321 0.0685625 0
M  V30 4410 H 398.133 1.43965 0.0315363 0
M  V30 4411 H 400.086 3.41517 2.46868 0
M  V30 4412 H 398.81 2.17287 2.43832 0
M  V30 4413 H 397.469 3.57121 0.828275 0
M  V30 4414 H 397.117 3.80174 3.29358 0
M  V30 4415 H 396.817 5.34132 2.44901 0
M  V30 4416 H 398.341 5.10442 3.35084 0
M  V30 4417 H 399.755 5.61883 1.13842 0
M  V30 4418 H 398.152 5.98506 0.437097 0
M  V30 4419 H 399.222 4.83384 -0.383147 0
M  V30 4420 N 400.565 -0.0233959 1.57583 0
M  V30 4421 C 401.495 -1.02162 2.09965 0
M  V30 4422 C 402.476 -1.3735 1.00344 0
M  V30 4423 O 403.661 -1.46135 1.27899 0
M  V30 4424 C 400.791 -2.32081 2.58371 0
M  V30 4425 C 399.745 -2.1112 3.72307 0
M  V30 4426 C 399.071 -3.46848 4.06941 0
M  V30 4427 C 400.371 -1.49276 5.00514 0
M  V30 4428 H 402.065 -0.585557 2.93618 0
M  V30 4429 H 399.611 -0.280218 1.41247 0
M  V30 4430 H 401.564 -3.02249 2.93639 0
M  V30 4431 H 400.288 -2.77758 1.71808 0
M  V30 4432 H 398.947 -1.43384 3.37397 0
M  V30 4433 H 398.595 -3.90184 3.17436 0
M  V30 4434 H 398.295 -3.33646 4.83688 0
M  V30 4435 H 399.819 -4.18369 4.44747 0
M  V30 4436 H 401.233 -2.09368 5.33702 0
M  V30 4437 H 399.63 -1.46632 5.8191 0
M  V30 4438 H 400.7 -0.459217 4.82721 0
M  V30 4439 N 402.043 -1.548 -0.295768 0
M  V30 4440 C 403.006 -1.85363 -1.34808 0
M  V30 4441 C 404.006 -0.726817 -1.43436 0
M  V30 4442 O 405.196 -0.995088 -1.42981 0
M  V30 4443 C 402.328 -2.03859 -2.73229 0
M  V30 4444 H 403.521 -2.7941 -1.08949 0
M  V30 4445 H 401.074 -1.46942 -0.532702 0
M  V30 4446 H 401.809 -1.12117 -3.04303 0
M  V30 4447 H 401.594 -2.8588 -2.68356 0
M  V30 4448 H 403.084 -2.28857 -3.49305 0
M  V30 4449 N 403.521 0.559213 -1.47345 0
M  V30 4450 C 404.451 1.67622 -1.62558 0
M  V30 4451 C 405.432 1.63331 -0.475087 0
M  V30 4452 O 406.617 1.80983 -0.704182 0
M  V30 4453 C 403.747 3.0626 -1.63774 0
M  V30 4454 C 402.701 3.25397 -2.7803 0
M  V30 4455 C 402.027 4.64801 -2.64318 0
M  V30 4456 C 403.327 3.10965 -4.19641 0
M  V30 4457 H 405.021 1.55146 -2.56067 0
M  V30 4458 H 402.567 0.744961 -1.23233 0
M  V30 4459 H 404.52 3.84247 -1.73008 0
M  V30 4460 H 403.244 3.1969 -0.66825 0
M  V30 4461 H 401.903 2.49817 -2.68304 0
M  V30 4462 H 401.551 4.75028 -1.65401 0
M  V30 4463 H 401.251 4.78555 -3.40968 0
M  V30 4464 H 402.775 5.44926 -2.75478 0
M  V30 4465 H 404.189 3.78772 -4.30354 0
M  V30 4466 H 402.586 3.36229 -4.97062 0
M  V30 4467 H 403.656 2.07736 -4.38148 0
M  V30 4468 N 404.999 1.35443 0.805782 0
M  V30 4469 C 406.227 1.31878 1.59423 0
M  V30 4470 C 406.642 -0.103562 1.88516 0
M  V30 4471 O 405.999 -1.05575 1.48863 0
M  V30 4472 C 406.05 2.12426 2.92502 0
M  V30 4473 O 405.771 3.49115 2.6467 0
M  V30 4474 C 407.272 2.16455 3.86862 0
M  V30 4475 H 404.492 0.453002 0.495005 0
M  V30 4476 H 407.036 1.78309 1.00131 0
M  V30 4477 H 405.191 1.69593 3.48306 0
M  V30 4478 H 405.605 3.90957 3.49647 0
M  V30 4479 H 407.079 2.77204 4.77349 0
M  V30 4480 H 407.556 1.16352 4.23508 0
M  V30 4481 H 408.162 2.59453 3.36993 0
M  V30 4482 N 406.477 -1.02803 1.19454 0
M  V30 4483 C 407.724 -1.76217 0.997693 0
M  V30 4484 C 408.052 -1.887 -0.47144 0
M  V30 4485 O 407.307 -1.4011 -1.3663 0
M  V30 4486 C 407.606 -3.18941 1.6128 0
M  V30 4487 C 407.272 -3.26463 3.11019 0
M  V30 4488 C 405.934 -3.28223 3.51885 0
M  V30 4489 C 408.286 -3.25542 4.07028 0
M  V30 4490 C 405.614 -3.26719 4.8731 0
M  V30 4491 C 407.966 -3.25579 5.42385 0
M  V30 4492 C 406.63 -3.25637 5.82681 0
M  V30 4493 H 405.9 -0.644823 0.365082 0
M  V30 4494 H 408.547 -1.20655 1.4871 0
M  V30 4495 H 406.852 -3.77587 1.04572 0
M  V30 4496 H 408.549 -3.74415 1.43577 0
M  V30 4497 H 405.139 -3.25822 2.78457 0
M  V30 4498 H 409.323 -3.23362 3.76498 0
M  V30 4499 H 404.579 -3.25089 5.1781 0
M  V30 4500 H 408.753 -3.23817 6.16535 0
M  V30 4501 H 406.38 -3.24226 6.87591 0
M  V30 4502 N 407.956 -0.998596 -1.21925 0
M  V30 4503 C 409.203 -0.677663 -1.90824 0
M  V30 4504 C 409.531 0.790905 -1.77693 0
M  V30 4505 O 408.786 1.58817 -1.14349 0
M  V30 4506 C 409.085 -1.03648 -3.42041 0
M  V30 4507 C 408.751 -2.49825 -3.75364 0
M  V30 4508 C 407.413 -2.8977 -3.8417 0
M  V30 4509 C 409.765 -3.44545 -3.91073 0
M  V30 4510 C 407.093 -4.23412 -4.06127 0
M  V30 4511 C 409.445 -4.77853 -4.14535 0
M  V30 4512 C 408.109 -5.17531 -4.21566 0
M  V30 4513 H 407.379 -0.247975 -0.698276 0
M  V30 4514 H 410.026 -1.25584 -1.44571 0
M  V30 4515 H 408.331 -0.376457 -3.89987 0
M  V30 4516 H 410.028 -0.766113 -3.93614 0
M  V30 4517 H 406.618 -2.17866 -3.69097 0
M  V30 4518 H 410.802 -3.14853 -3.83642 0
M  V30 4519 H 406.058 -4.53734 -4.09799 0
M  V30 4520 H 410.232 -5.51189 -4.25633 0
M  V30 4521 H 407.859 -6.21102 -4.38333 0
M  V30 4522 N 409.434 1.37368 -0.772513 0
M  V30 4523 C 410.364 2.32856 -0.173304 0
M  V30 4524 C 411.345 1.55818 0.682262 0
M  V30 4525 O 412.53 1.84052 0.619566 0
M  V30 4526 C 409.66 3.40048 0.706007 0
M  V30 4527 C 408.614 4.27973 -0.0483144 0
M  V30 4528 C 407.94 5.26184 0.950491 0
M  V30 4529 C 409.24 5.07665 -1.22776 0
M  V30 4530 H 410.934 2.83217 -0.971002 0
M  V30 4531 H 408.48 1.3617 -0.468377 0
M  V30 4532 H 410.433 4.05827 1.13501 0
M  V30 4533 H 409.157 2.88214 1.53623 0
M  V30 4534 H 407.816 3.63726 -0.458107 0
M  V30 4535 H 407.464 4.7063 1.77529 0
M  V30 4536 H 407.164 5.85872 0.450314 0
M  V30 4537 H 408.688 5.94838 1.37842 0
M  V30 4538 H 410.102 5.66578 -0.875366 0
M  V30 4539 H 408.499 5.76681 -1.66007 0
M  V30 4540 H 409.569 4.40294 -2.03149 0
M  V30 4541 N 410.912 0.523116 1.48665 0
M  V30 4542 C 411.842 -0.23231 2.32342 0
M  V30 4543 C 412.823 -0.941637 1.41659 0
M  V30 4544 O 414.008 -0.928751 1.70552 0
M  V30 4545 C 411.138 -1.28387 3.22698 0
M  V30 4546 C 410.092 -0.693098 4.22351 0
M  V30 4547 C 409.418 -1.8468 5.01794 0
M  V30 4548 C 410.718 0.33063 5.21252 0
M  V30 4549 H 412.412 0.466192 2.95748 0
M  V30 4550 H 409.958 0.225643 1.42221 0
M  V30 4551 H 411.911 -1.82024 3.80059 0
M  V30 4552 H 410.635 -2.01186 2.57278 0
M  V30 4553 H 409.294 -0.178299 3.66166 0
M  V30 4554 H 408.942 -2.56301 4.32804 0
M  V30 4555 H 408.642 -1.45747 5.69238 0
M  V30 4556 H 410.166 -2.38709 5.62006 0
M  V30 4557 H 411.58 -0.118407 5.73178 0
M  V30 4558 H 409.977 0.636974 5.9671 0
M  V30 4559 H 411.047 1.23883 4.68808 0
M  V30 4560 N 412.39 -1.55475 0.257931 0
M  V30 4561 C 413.32 -2.24815 -0.630912 0
M  V30 4562 C 414.301 -1.23224 -1.17259 0
M  V30 4563 O 415.486 -1.51904 -1.20991 0
M  V30 4564 C 412.616 -2.95609 -1.82298 0
M  V30 4565 C 411.57 -4.03982 -1.41359 0
M  V30 4566 C 410.896 -4.6226 -2.68738 0
M  V30 4567 C 412.196 -5.19109 -0.57648 0
M  V30 4568 H 413.89 -2.99354 -0.0526878 0
M  V30 4569 H 411.436 -1.4398 -0.023901 0
M  V30 4570 H 413.389 -3.42822 -2.45054 0
M  V30 4571 H 412.113 -2.18577 -2.42676 0
M  V30 4572 H 410.772 -3.57555 -0.809324 0
M  V30 4573 H 410.42 -3.81915 -3.27338 0
M  V30 4574 H 410.12 -5.35424 -2.42065 0
M  V30 4575 H 411.644 -5.12212 -3.32372 0
M  V30 4576 H 413.058 -5.62479 -1.10861 0
M  V30 4577 H 411.455 -5.98729 -0.405351 0
M  V30 4578 H 412.525 -4.83174 0.408776 0
M  V30 4579 N 413.868 0.0150385 -1.57593 0
M  V30 4580 C 415.117 0.702115 -1.89085 0
M  V30 4581 C 415.43 1.75764 -0.858277 0
M  V30 4582 O 416.636 2.49829 -1.0629 0
M  V30 4583 C 415.092 1.29992 -3.35604 0
M  V30 4584 C 414.7 0.280007 -4.47124 0
M  V30 4585 C 416.444 1.96606 -3.76227 0
M  V30 4586 C 414.351 0.886949 -5.84711 0
M  V30 4587 H 413.281 0.265997 -0.705522 0
M  V30 4588 H 415.932 -0.0430408 -1.8345 0
M  V30 4589 H 414.314 2.09525 -3.36029 0
M  V30 4590 H 415.488 -0.489631 -4.58191 0
M  V30 4591 H 413.803 -0.284835 -4.15425 0
M  V30 4592 H 416.4 2.42893 -4.76347 0
M  V30 4593 H 416.743 2.79024 -3.08952 0
M  V30 4594 H 417.276 1.23828 -3.78036 0
M  V30 4595 H 414.015 0.101876 -6.55421 0
M  V30 4596 H 413.535 1.6261 -5.77337 0
M  V30 4597 H 415.214 1.39011 -6.3189 0
M  V30 4598 N 415.346 1.54954 0.287554 0
M  V30 4599 C 416.571 1.79209 1.04397 0
M  V30 4600 C 416.996 0.556431 1.79682 0
M  V30 4601 O 416.354 -0.493518 1.74454 0
M  V30 4602 C 416.402 3.00739 1.98969 0
M  V30 4603 O 415.506 2.74805 3.075 0
M  V30 4604 H 414.847 0.592755 0.299227 0
M  V30 4605 H 417.377 2.02068 0.320886 0
M  V30 4606 H 417.387 3.29077 2.4119 0
M  V30 4607 H 416.062 3.90329 1.43582 0
M  V30 4608 H 414.639 2.57523 2.69697 0
M  V30 4609 N 416.824 -0.551391 1.4764 0
M  V30 4610 C 417.771 -1.65796 1.60563 0
M  V30 4611 C 418.741 -1.59932 0.448428 0
M  V30 4612 O 419.926 -1.78679 0.669222 0
M  V30 4613 C 417.066 -3.04108 1.63133 0
M  V30 4614 C 416.179 -3.20365 2.89811 0
M  V30 4615 C 415.314 -4.49109 2.8368 0
M  V30 4616 C 414.353 -4.58819 4.05156 0
M  V30 4617 N 413.49 -5.78926 3.97227 0
M  V30 4618 H 418.33 -1.54088 2.5507 0
M  V30 4619 H 415.867 -0.75052 1.26513 0
M  V30 4620 H 417.825 -3.84207 1.62606 0
M  V30 4621 H 416.455 -3.14637 0.721341 0
M  V30 4622 H 415.507 -2.33659 3.00179 0
M  V30 4623 H 416.819 -3.23402 3.79753 0
M  V30 4624 H 415.973 -5.37475 2.81434 0
M  V30 4625 H 414.712 -4.4856 1.91431 0
M  V30 4626 H 413.717 -3.68864 4.077 0
M  V30 4627 H 414.942 -4.61124 4.98539 0
M  V30 4628 H 412.888 -5.79314 3.07785 0
M  V30 4629 H 412.805 -5.83367 4.80853 0
M  V30 4630 H 414.073 -6.69637 3.99007 0
M  V30 4631 N 418.302 -1.35869 -0.798587 0
M  V30 4632 C 419.551 -1.28921 -1.5512 0
M  V30 4633 C 419.864 0.13208 -1.95154 0
M  V30 4634 O 421.07 0.323879 -2.69561 0
M  V30 4635 C 419.526 -2.26141 -2.79979 0
M  V30 4636 C 419.134 -3.73658 -2.47151 0
M  V30 4637 C 420.878 -2.28152 -3.57976 0
M  V30 4638 C 418.785 -4.62679 -3.6835 0
M  V30 4639 H 417.715 -0.479031 -0.582276 0
M  V30 4640 H 420.366 -1.61179 -0.877125 0
M  V30 4641 H 418.748 -1.86865 -3.49138 0
M  V30 4642 H 419.922 -4.21616 -1.85947 0
M  V30 4643 H 418.237 -3.74333 -1.82383 0
M  V30 4644 H 420.834 -2.91875 -4.4801 0
M  V30 4645 H 421.177 -1.28748 -3.95891 0
M  V30 4646 H 421.71 -2.65998 -2.95787 0
M  V30 4647 H 418.449 -5.63111 -3.35538 0
M  V30 4648 H 417.969 -4.19442 -4.28752 0
M  V30 4649 H 419.648 -4.78498 -4.35487 0
M  V30 4650 N 419.78 1.02168 -1.19998 0
M  V30 4651 C 421.026 1.75945 -1.00852 0
M  V30 4652 C 421.359 1.88702 0.458828 0
M  V30 4653 O 420.634 1.40911 1.34069 0
M  V30 4654 C 420.917 3.18154 -1.68671 0
M  V30 4655 C 420.77 3.13224 -3.22817 0
M  V30 4656 C 422.089 4.16711 -1.41561 0
M  V30 4657 H 419.208 0.638673 -0.367785 0
M  V30 4658 H 421.85 1.19222 -1.4794 0
M  V30 4659 H 420 3.66586 -1.28636 0
M  V30 4660 H 421.672 2.72635 -3.72112 0
M  V30 4661 H 419.915 2.50751 -3.53986 0
M  V30 4662 H 420.586 4.13728 -3.65422 0
M  V30 4663 H 423.062 3.76913 -1.76284 0
M  V30 4664 H 421.938 5.14391 -1.91553 0
M  V30 4665 H 422.199 4.40774 -0.342193 0
M  V30 4666 N 421.258 1.00505 1.21394 0
M  V30 4667 C 422.669 0.721082 1.72213 0
M  V30 4668 C 423.02 -0.761263 1.80829 0
M  V30 4669 O 422.145 -1.59464 1.46288 0
M  V30 4670 C 422.74 1.30228 3.12772 0
M  V30 4671 C 421.299 1.06743 3.60947 0
M  V30 4672 C 420.446 1.41507 2.38477 0
M  V30 4673 H 423.397 1.17594 1.06571 0
M  V30 4674 H 423.418 0.686955 3.74247 0
M  V30 4675 H 422.93 2.38115 3.06468 0
M  V30 4676 H 421.031 0.00572162 3.726 0
M  V30 4677 H 421.144 1.73936 4.46411 0
M  V30 4678 H 419.508 0.833852 2.40664 0
M  V30 4679 H 420.291 2.50424 2.34824 0
M  V30 4680 N 422.737 -1.36956 0.779787 0
M  V30 4681 C 424.148 -1.82094 0.412156 0
M  V30 4682 C 424.499 -1.64926 -1.06273 0
M  V30 4683 O 423.624 -1.16483 -1.82375 0
M  V30 4684 C 424.219 -3.3059 0.741319 0
M  V30 4685 C 422.778 -3.73974 0.426641 0
M  V30 4686 C 421.925 -2.59368 0.980987 0
M  V30 4687 H 424.876 -1.25314 0.973758 0
M  V30 4688 H 424.897 -3.80489 0.028887 0
M  V30 4689 H 424.409 -3.43054 1.81482 0
M  V30 4690 H 422.51 -3.67076 -0.639215 0
M  V30 4691 H 422.623 -4.69778 0.940515 0
M  V30 4692 H 420.987 -2.51463 0.404757 0
M  V30 4693 H 421.77 -2.74621 2.06005 0
M  V30 4694 N 424.215 -0.530993 -1.48385 0
M  V30 4695 C 425.443 -0.00134122 -2.069 0
M  V30 4696 C 425.858 1.2805 -1.3874 0
M  V30 4697 O 425.215 1.76204 -0.475244 0
M  V30 4698 C 425.266 0.225256 -3.60798 0
M  V30 4699 O 424.987 -1.0058 -4.26398 0
M  V30 4700 C 426.488 0.795172 -4.3611 0
M  V30 4701 H 423.708 -0.0339704 -0.67014 0
M  V30 4702 H 426.252 -0.736926 -1.90761 0
M  V30 4703 H 424.407 0.910891 -3.76539 0
M  V30 4704 H 424.821 -0.787165 -5.1856 0
M  V30 4705 H 426.295 0.903143 -5.44562 0
M  V30 4706 H 426.772 1.80031 -4.00606 0
M  V30 4707 H 427.378 0.146069 -4.25049 0
M  V30 4708 N 425.693 1.55336 -0.266172 0
M  V30 4709 C 426.918 2.04258 0.359661 0
M  V30 4710 C 427.343 1.14359 1.49344 0
M  V30 4711 O 426.701 0.140369 1.80756 0
M  V30 4712 C 426.749 3.50997 0.826635 0
M  V30 4713 O 425.853 3.64204 1.93466 0
M  V30 4714 H 425.194 0.659668 0.075727 0
M  V30 4715 H 427.724 2.00694 -0.39786 0
M  V30 4716 H 427.734 3.9219 1.12477 0
M  V30 4717 H 426.409 4.159 -0.00293032 0
M  V30 4718 H 424.986 3.34913 1.63974 0
M  V30 4719 N 427.171 -0.0066808 1.57599 0
M  V30 4720 C 428.101 -0.999296 2.11036 0
M  V30 4721 C 429.082 -1.36278 1.01795 0
M  V30 4722 O 430.267 -1.4477 1.29442 0
M  V30 4723 C 427.397 -2.29328 2.60818 0
M  V30 4724 C 426.351 -2.07159 3.74525 0
M  V30 4725 C 425.677 -3.42512 4.10596 0
M  V30 4726 C 426.977 -1.43959 5.02069 0
M  V30 4727 H 428.671 -0.554382 2.94223 0
M  V30 4728 H 426.217 -0.265221 1.41536 0
M  V30 4729 H 428.17 -2.99117 2.96828 0
M  V30 4730 H 426.894 -2.7592 1.74745 0
M  V30 4731 H 425.553 -1.39797 3.38899 0
M  V30 4732 H 425.201 -3.86795 3.21556 0
M  V30 4733 H 424.901 -3.28498 4.87199 0
M  V30 4734 H 426.425 -4.13628 4.4916 0
M  V30 4735 H 427.839 -2.03696 5.35893 0
M  V30 4736 H 426.236 -1.40452 5.83432 0
M  V30 4737 H 427.306 -0.407992 4.83181 0
M  V30 4738 N 428.649 -1.55105 -0.279332 0
M  V30 4739 C 429.926 -1.66119 -1.03267 0
M  V30 4740 C 430.306 -0.523525 -2.04505 0
M  V30 4741 O 429.654 0.477194 -2.23462 0
M  V30 4742 C 429.864 -3.05067 -1.69515 0
M  V30 4743 C 431.212 -3.62606 -2.20912 0
M  V30 4744 O 432.236 -3.07659 -1.79512 0
M  V30 4745 O 431.095 -4.58861 -2.96831 0
M  V30 4746 H 428.189 -0.674429 -0.478618 0
M  V30 4747 H 430.735 -1.67446 -0.275694 0
M  V30 4748 H 429.507 -3.79311 -0.9612 0
M  V30 4749 H 429.13 -3.07611 -2.51915 0
M  V30 4750 N 430.127 0.543554 -1.4793 0
M  V30 4751 C 431.373 1.30201 -1.55485 0
M  V30 4752 C 431.706 1.92925 -0.222201 0
M  V30 4753 O 430.981 1.78586 0.77053 0
M  V30 4754 C 431.264 2.40174 -2.68307 0
M  V30 4755 C 431.117 1.8223 -4.11233 0
M  V30 4756 C 432.436 3.42024 -2.76961 0
M  V30 4757 H 429.555 0.472036 -0.565996 0
M  V30 4758 H 432.197 0.606914 -1.80046 0
M  V30 4759 H 430.347 2.99463 -2.47495 0
M  V30 4760 H 432.019 1.27096 -4.43446 0
M  V30 4761 H 430.262 1.12832 -4.18869 0
M  V30 4762 H 430.933 2.61793 -4.85972 0
M  V30 4763 H 433.409 2.92672 -2.95774 0
M  V30 4764 H 432.285 4.16383 -3.57654 0
M  V30 4765 H 432.546 4.0173 -1.84568 0
M  V30 4766 N 431.605 1.3629 0.791371 0
M  V30 4767 C 433.016 1.27225 1.36641 0
M  V30 4768 C 433.367 -0.0887968 1.95999 0
M  V30 4769 O 432.492 -0.990207 1.92416 0
M  V30 4770 C 433.087 2.30375 2.48421 0
M  V30 4771 C 431.646 2.25004 3.01746 0
M  V30 4772 C 430.793 2.15259 1.7481 0
M  V30 4773 H 433.744 1.47198 0.593173 0
M  V30 4774 H 433.765 1.93905 3.27385 0
M  V30 4775 H 433.277 3.29422 2.05189 0
M  V30 4776 H 431.378 1.29417 3.49403 0
M  V30 4777 H 431.491 3.1761 3.58693 0
M  V30 4778 H 429.855 1.61482 1.96966 0
M  V30 4779 H 430.638 3.16191 1.33709 0
M  V30 4780 N 433.083 -1.0153 1.20538 0
M  V30 4781 C 434.013 -2.11972 0.979295 0
M  V30 4782 C 434.994 -1.6985 -0.0921787 0
M  V30 4783 O 436.179 -1.94089 0.0655932 0
M  V30 4784 C 433.309 -3.43201 0.531984 0
M  V30 4785 C 432.263 -3.9907 1.54685 0
M  V30 4786 C 431.589 -5.26082 0.956127 0
M  V30 4787 C 432.889 -4.32313 2.93092 0
M  V30 4788 H 434.583 -2.31143 1.90298 0
M  V30 4789 H 432.129 -1.11079 0.916372 0
M  V30 4790 H 434.082 -4.1985 0.361044 0
M  V30 4791 H 432.806 -3.23792 -0.427327 0
M  V30 4792 H 431.465 -3.2453 1.70517 0
M  V30 4793 H 431.113 -5.02999 -0.0111538 0
M  V30 4794 H 430.813 -5.64426 1.63393 0
M  V30 4795 H 432.337 -6.05386 0.796284 0
M  V30 4796 H 433.751 -4.99845 2.80763 0
M  V30 4797 H 432.148 -4.81774 3.57791 0
M  V30 4798 H 433.218 -3.41025 3.44717 0
M  V30 4799 N 434.561 -1.01147 -1.20859 0
M  V30 4800 C 435.81 -0.693214 -1.89413 0
M  V30 4801 C 436.123 0.779969 -1.79376 0
M  V30 4802 O 437.329 1.21057 -2.43017 0
M  V30 4803 C 435.785 -1.18949 -3.39675 0
M  V30 4804 C 435.393 -2.68921 -3.58309 0
M  V30 4805 C 437.137 -0.94642 -4.13815 0
M  V30 4806 C 435.044 -3.12056 -5.0237 0
M  V30 4807 H 433.974 -0.255595 -0.709357 0
M  V30 4808 H 436.625 -1.22349 -1.36759 0
M  V30 4809 H 435.007 -0.587228 -3.91622 0
M  V30 4810 H 436.181 -3.34652 -3.16772 0
M  V30 4811 H 434.496 -2.91314 -2.97532 0
M  V30 4812 H 437.093 -1.24417 -5.20023 0
M  V30 4813 H 437.436 0.117219 -4.16135 0
M  V30 4814 H 437.969 -1.5118 -3.67953 0
M  V30 4815 H 434.708 -4.17674 -5.05202 0
M  V30 4816 H 434.228 -2.51041 -5.44737 0
M  V30 4817 H 435.907 -3.04403 -5.70918 0
M  V30 4818 N 436.039 1.36541 -0.78704 0
M  V30 4819 C 437.287 1.98911 -0.357633 0
M  V30 4820 C 437.608 1.62778 1.07371 0
M  V30 4821 O 436.878 0.900612 1.73971 0
M  V30 4822 H 435.458 0.735734 -0.129246 0
M  V30 4823 H 438.12 1.66776 -1.00855 0
M  V30 4824 H 437.216 3.08874 -0.447549 0
M  V30 4825 N 437.518 0.538854 1.48102 0
M  V30 4826 C 438.465 -0.219042 2.29758 0
M  V30 4827 C 439.435 -0.925562 1.37922 0
M  V30 4828 O 440.62 -0.924855 1.66886 0
M  V30 4829 C 437.76 -1.25452 3.2149 0
M  V30 4830 C 436.873 -0.555943 4.28408 0
M  V30 4831 C 436.008 -1.57512 5.0731 0
M  V30 4832 C 435.047 -0.860498 6.06021 0
M  V30 4833 N 434.184 -1.82564 6.77949 0
M  V30 4834 H 439.024 0.483449 2.94052 0
M  V30 4835 H 436.561 0.250247 1.44956 0
M  V30 4836 H 438.519 -1.86727 3.7308 0
M  V30 4837 H 437.149 -1.92528 2.591 0
M  V30 4838 H 436.201 0.170938 3.80016 0
M  V30 4839 H 437.513 0.00474616 4.988 0
M  V30 4840 H 436.667 -2.26191 5.62959 0
M  V30 4841 H 435.406 -2.16972 4.36778 0
M  V30 4842 H 434.411 -0.159686 5.49568 0
M  V30 4843 H 435.636 -0.271897 6.78555 0
M  V30 4844 H 433.582 -2.40915 6.10161 0
M  V30 4845 H 433.499 -1.31662 7.44447 0
M  V30 4846 H 434.767 -2.50414 7.38182 0
M  V30 4847 N 438.996 -1.55193 0.274407 0
M  V30 4848 C 440.226 -2.03692 -0.345442 0
M  V30 4849 C 440.634 -1.15224 -1.50067 0
M  V30 4850 O 439.977 -0.164749 -1.8296 0
M  V30 4851 C 440.039 -3.48325 -0.88939 0
M  V30 4852 C 439.703 -4.56794 0.137115 0
M  V30 4853 C 440.7 -5.11028 0.956378 0
M  V30 4854 C 438.385 -5.01568 0.27115 0
M  V30 4855 C 440.379 -6.08552 1.89587 0
M  V30 4856 C 438.066 -5.98918 1.21412 0
M  V30 4857 C 439.064 -6.52291 2.02498 0
M  V30 4858 O 438.752 -7.47738 2.952 0
M  V30 4859 H 438.484 -0.670893 -0.0829332 0
M  V30 4860 H 441.038 -2.01387 0.404056 0
M  V30 4861 H 439.268 -3.47867 -1.68895 0
M  V30 4862 H 440.957 -3.80167 -1.42225 0
M  V30 4863 H 441.723 -4.7725 0.863559 0
M  V30 4864 H 437.602 -4.5967 -0.349987 0
M  V30 4865 H 441.146 -6.50137 2.52918 0
M  V30 4866 H 437.043 -6.32114 1.30776 0
M  V30 4867 H 437.811 -7.65451 2.89874 0
M  V30 4868 N 440.474 -0.00167713 -1.576 0
M  V30 4869 C 441.404 0.988091 -2.11563 0
M  V30 4870 C 442.385 1.35736 -1.02517 0
M  V30 4871 O 443.57 1.44082 -1.30208 0
M  V30 4872 C 440.7 2.27941 -2.62031 0
M  V30 4873 C 439.654 2.0517 -3.75619 0
M  V30 4874 C 438.98 3.4033 -4.12407 0
M  V30 4875 C 440.28 1.41294 -5.02825 0
M  V30 4876 H 441.974 0.538771 -2.94513 0
M  V30 4877 H 439.52 0.257712 -1.41675 0
M  V30 4878 H 441.473 2.97539 -2.9841 0
M  V30 4879 H 440.197 2.74989 -1.76205 0
M  V30 4880 H 438.856 1.37998 -3.39635 0
M  V30 4881 H 438.504 3.85085 -3.23603 0
M  V30 4882 H 438.204 3.25909 -4.88935 0
M  V30 4883 H 439.728 4.1124 -4.51347 0
M  V30 4884 H 441.142 2.00851 -5.36965 0
M  V30 4885 H 439.539 1.37356 -5.84169 0
M  V30 4886 H 440.609 0.382362 -4.8339 0
M  V30 4887 N 441.952 1.55251 0.271103 0
M  V30 4888 C 442.885 1.83191 1.36075 0
M  V30 4889 C 443.863 0.685091 1.47463 0
M  V30 4890 O 445.047 0.928292 1.64058 0
M  V30 4891 C 442.174 1.99521 2.73696 0
M  V30 4892 C 441.22 3.22081 2.79582 0
M  V30 4893 S 442.053 4.79388 2.38636 0
M  V30 4894 C 443.209 4.98693 3.78228 0
M  V30 4895 H 443.442 2.75327 1.12171 0
M  V30 4896 H 440.975 1.47046 0.470833 0
M  V30 4897 H 442.933 2.09613 3.52948 0
M  V30 4898 H 441.594 1.0827 2.9485 0
M  V30 4899 H 440.787 3.304 3.80594 0
M  V30 4900 H 440.389 3.10589 2.08352 0
M  V30 4901 H 442.681 4.84551 4.73515 0
M  V30 4902 H 443.624 6.00738 3.7486 0
M  V30 4903 H 444.032 4.26665 3.69618 0
M  V30 4904 N 443.43 -0.535701 1.48216 0
M  V30 4905 C 444.677 -1.29183 1.55942 0
M  V30 4906 C 445.005 -1.93125 0.230857 0
M  V30 4907 O 444.26 -1.79556 -0.778331 0
M  V30 4908 C 444.559 -2.4068 2.64212 0
M  V30 4909 C 444.225 -1.94428 4.06827 0
M  V30 4910 C 442.887 -1.81532 4.45645 0
M  V30 4911 C 445.239 -1.59405 4.96225 0
M  V30 4912 C 442.567 -1.31939 5.71672 0
M  V30 4913 C 444.919 -1.11276 6.22736 0
M  V30 4914 C 443.583 -0.969924 6.60416 0
M  V30 4915 H 442.853 -0.472715 0.570632 0
M  V30 4916 H 445.5 -0.598437 1.81909 0
M  V30 4917 H 443.805 -3.15666 2.32083 0
M  V30 4918 H 445.502 -2.98822 2.67407 0
M  V30 4919 H 442.092 -2.05415 3.76168 0
M  V30 4920 H 446.276 -1.68231 4.66917 0
M  V30 4921 H 441.532 -1.19562 5.99596 0
M  V30 4922 H 445.706 -0.832453 6.91407 0
M  V30 4923 H 443.333 -0.583436 7.57958 0
M  V30 4924 N 444.908 -1.36708 -0.784132 0
M  V30 4925 C 446.136 -1.34398 -1.57305 0
M  V30 4926 C 446.551 0.0735577 -1.88657 0
M  V30 4927 O 445.908 1.03193 -1.50524 0
M  V30 4928 C 445.959 -2.17053 -2.89085 0
M  V30 4929 O 445.68 -3.53281 -2.59083 0
M  V30 4930 C 447.181 -2.22583 -3.83369 0
M  V30 4931 H 444.401 -0.460819 -0.487736 0
M  V30 4932 H 446.945 -1.79879 -0.972819 0
M  V30 4933 H 445.1 -1.75113 -3.45564 0
M  V30 4934 H 445.514 -3.9647 -3.43383 0
M  V30 4935 H 446.988 -2.84763 -4.72878 0
M  V30 4936 H 447.465 -1.23075 -4.21603 0
M  V30 4937 H 448.071 -2.64781 -3.32823 0
M  V30 4938 N 446.386 1.0089 -1.21074 0
M  V30 4939 C 447.319 2.09279 -0.909806 0
M  V30 4940 C 448.297 1.61986 0.141145 0
M  V30 4941 O 449.481 1.88495 0.0130332 0
M  V30 4942 C 446.608 3.36723 -0.365374 0
M  V30 4943 C 445.654 4.02919 -1.39852 0
M  V30 4944 S 446.487 4.45835 -2.96633 0
M  V30 4945 C 447.643 5.76471 -2.43786 0
M  V30 4946 H 447.876 2.34484 -1.82769 0
M  V30 4947 H 445.409 1.14115 -1.04006 0
M  V30 4948 H 447.367 4.10459 -0.0578203 0
M  V30 4949 H 446.028 3.09577 0.531136 0
M  V30 4950 H 445.221 4.94634 -0.967117 0
M  V30 4951 H 444.823 3.35441 -1.65395 0
M  V30 4952 H 447.115 6.52027 -1.84029 0
M  V30 4953 H 448.058 6.24418 -3.33928 0
M  V30 4954 H 448.466 5.33104 -1.85636 0
M  V30 4955 N 447.864 1.01787 1.20321 0
M  V30 4956 C 449.11 0.708985 1.90003 0
M  V30 4957 C 449.443 -0.759572 1.78729 0
M  V30 4958 O 448.718 -1.55198 1.17234 0
M  V30 4959 C 449.001 1.1469 3.41348 0
M  V30 4960 C 448.854 2.67586 3.61549 0
M  V30 4961 C 450.173 0.71915 4.34185 0
M  V30 4962 H 447.292 0.259034 0.689978 0
M  V30 4963 H 449.934 1.26584 1.41692 0
M  V30 4964 H 448.084 0.673128 3.82624 0
M  V30 4965 H 449.756 3.22826 3.29517 0
M  V30 4966 H 447.999 3.085 3.04976 0
M  V30 4967 H 448.67 2.93281 4.67643 0
M  V30 4968 H 451.146 1.12647 4.00562 0
M  V30 4969 H 450.022 1.05358 5.38694 0
M  V30 4970 H 450.283 -0.379111 4.40472 0
M  V30 4971 N 449.342 -1.36122 0.79427 0
M  V30 4972 C 450.272 -2.32551 0.210328 0
M  V30 4973 C 451.253 -1.56884 -0.657386 0
M  V30 4974 O 452.438 -1.85014 -0.590207 0
M  V30 4975 C 449.568 -3.41128 -0.651819 0
M  V30 4976 C 448.522 -4.27842 0.116395 0
M  V30 4977 C 447.848 -5.2763 -0.86666 0
M  V30 4978 C 449.148 -5.05647 1.30837 0
M  V30 4979 H 450.842 -2.81636 1.01594 0
M  V30 4980 H 448.388 -1.35407 0.489981 0
M  V30 4981 H 450.341 -4.07581 -1.07031 0
M  V30 4982 H 449.065 -2.90622 -1.49019 0
M  V30 4983 H 447.724 -3.62952 0.515915 0
M  V30 4984 H 447.372 -4.73395 -1.70019 0
M  V30 4985 H 447.072 -5.86514 -0.35705 0
M  V30 4986 H 448.596 -5.96955 -1.28361 0
M  V30 4987 H 450.01 -5.65113 0.965393 0
M  V30 4988 H 448.407 -5.73967 1.75161 0
M  V30 4989 H 449.477 -4.37006 2.10128 0
M  V30 4990 N 450.82 -0.546701 -1.47814 0
M  V30 4991 C 452.066 -0.0187684 -2.02791 0
M  V30 4992 C 452.399 1.32338 -1.42128 0
M  V30 4993 O 451.674 1.85867 -0.573023 0
M  V30 4994 C 451.957 0.0854985 -3.59998 0
M  V30 4995 C 451.81 -1.283 -4.31114 0
M  V30 4996 C 453.129 0.80412 -4.32691 0
M  V30 4997 H 450.248 -0.0082946 -0.736953 0
M  V30 4998 H 452.89 -0.706962 -1.76358 0
M  V30 4999 H 451.04 0.671609 -3.82651 0
M  V30 5000 H 452.712 -1.91151 -4.19832 0
M  V30 5001 H 450.955 -1.86049 -3.91878 0
M  V30 5002 H 451.626 -1.16287 -5.39612 0
M  V30 5003 H 454.102 0.306576 -4.14969 0
M  V30 5004 H 452.978 0.846011 -5.42341 0
M  V30 5005 H 453.239 1.85802 -4.01161 0
M  V30 5006 N 452.299 1.55045 -0.282633 0
M  V30 5007 C 453.527 2.04168 0.33512 0
M  V30 5008 C 453.942 1.16071 1.48906 0
M  V30 5009 O 453.299 0.182391 1.81586 0
M  V30 5010 C 453.35 3.52332 0.808957 0
M  V30 5011 O 453.071 4.37078 -0.299038 0
M  V30 5012 C 454.572 4.17375 1.49375 0
M  V30 5013 H 451.792 0.666744 0.0754543 0
M  V30 5014 H 454.336 2.00205 -0.416918 0
M  V30 5015 H 452.491 3.56715 1.51106 0
M  V30 5016 H 452.905 5.24458 0.0665514 0
M  V30 5017 H 454.379 5.22627 1.77664 0
M  V30 5018 H 454.856 3.65999 2.42778 0
M  V30 5019 H 455.462 4.17016 0.835305 0
M  V30 5020 N 453.777 0.010035 1.57597 0
M  V30 5021 C 455.024 -0.6727 1.91 0
M  V30 5022 C 455.352 -1.73219 0.884614 0
M  V30 5023 O 454.607 -1.95395 -0.109215 0
M  V30 5024 C 454.906 -1.34434 3.31153 0
M  V30 5025 C 454.572 -0.417083 4.48967 0
M  V30 5026 C 453.234 -0.161809 4.80928 0
M  V30 5027 C 455.586 0.220753 5.20732 0
M  V30 5028 C 452.914 0.739426 5.82022 0
M  V30 5029 C 455.266 1.10993 6.22787 0
M  V30 5030 C 453.93 1.37428 6.532 0
M  V30 5031 H 453.2 -0.246158 0.698918 0
M  V30 5032 H 455.847 0.0677145 1.9138 0
M  V30 5033 H 454.152 -2.15905 3.26944 0
M  V30 5034 H 455.849 -1.87883 3.54261 0
M  V30 5035 H 452.439 -0.626217 4.24001 0
M  V30 5036 H 456.623 0.0365643 4.96287 0
M  V30 5037 H 451.879 0.952139 6.03941 0
M  V30 5038 H 456.053 1.61046 6.77523 0
M  V30 5039 H 453.68 2.0743 7.31353 0
M  V30 5040 N 455.255 -1.55392 -0.262866 0
M  V30 5041 C 456.48 -1.80847 -1.01533 0
M  V30 5042 C 456.905 -0.584946 -1.78774 0
M  V30 5043 O 456.263 0.465701 -1.75217 0
M  V30 5044 C 456.311 -3.03866 -1.94159 0
M  V30 5045 O 455.415 -2.79662 -3.03089 0
M  V30 5046 H 454.756 -0.597441 -0.289759 0
M  V30 5047 H 457.286 -2.02553 -0.288698 0
M  V30 5048 H 457.296 -3.32872 -2.35924 0
M  V30 5049 H 455.971 -3.92564 -1.37354 0
M  V30 5050 H 454.548 -2.61781 -2.65566 0
M  V30 5051 N 456.733 0.527833 -1.48498 0
M  V30 5052 C 457.982 1.28003 -1.55878 0
M  V30 5053 C 458.295 1.9414 -0.238577 0
M  V30 5054 O 459.501 2.7083 -0.190643 0
M  V30 5055 C 457.957 2.32272 -2.74914 0
M  V30 5056 C 457.565 1.72196 -4.13585 0
M  V30 5057 C 459.309 3.08488 -2.91608 0
M  V30 5058 C 457.216 2.74417 -5.23879 0
M  V30 5059 H 456.146 0.481413 -0.580308 0
M  V30 5060 H 458.797 0.557195 -1.74836 0
M  V30 5061 H 457.179 3.07601 -2.49395 0
M  V30 5062 H 458.353 1.03041 -4.49132 0
M  V30 5063 H 456.668 1.08464 -4.02025 0
M  V30 5064 H 459.265 3.84879 -3.71177 0
M  V30 5065 H 459.608 3.64481 -2.01145 0
M  V30 5066 H 460.141 2.40274 -3.17038 0
M  V30 5067 H 456.88 2.23242 -6.16314 0
M  V30 5068 H 456.4 3.41893 -4.92818 0
M  V30 5069 H 458.079 3.37362 -5.52083 0
M  V30 5070 N 458.211 1.37122 0.776871 0
M  V30 5071 C 459.457 1.32243 1.53752 0
M  V30 5072 C 459.79 -0.0944745 1.9397 0
M  V30 5073 O 459.065 -1.05068 1.6368 0
M  V30 5074 C 459.348 2.25681 2.80607 0
M  V30 5075 C 459.201 3.76127 2.46676 0
M  V30 5076 C 460.52 2.17657 3.82509 0
M  V30 5077 H 457.639 0.481704 0.557791 0
M  V30 5078 H 460.281 1.6778 0.891612 0
M  V30 5079 H 458.431 1.95505 3.35723 0
M  V30 5080 H 460.103 4.16877 1.97513 0
M  V30 5081 H 458.346 3.94946 1.79443 0
M  V30 5082 H 459.017 4.36933 3.37333 0
M  V30 5083 H 461.493 2.44245 3.36873 0
M  V30 5084 H 460.369 2.85185 4.69 0
M  V30 5085 H 460.63 1.16785 4.26396 0
M  V30 5086 N 459.689 -1.00246 1.21608 0
M  V30 5087 C 460.917 -1.77631 1.06089 0
M  V30 5088 C 461.332 -1.84746 -0.38916 0
M  V30 5089 O 460.689 -1.31068 -1.26994 0
M  V30 5090 C 460.74 -3.21415 1.65453 0
M  V30 5091 O 460.461 -3.14703 3.04785 0
M  V30 5092 C 461.962 -4.15289 1.55079 0
M  V30 5093 H 459.182 -0.558162 0.37242 0
M  V30 5094 H 461.726 -1.26093 1.60999 0
M  V30 5095 H 459.881 -3.70053 1.14629 0
M  V30 5096 H 460.295 -4.05056 3.33212 0
M  V30 5097 H 461.769 -5.13965 2.01355 0
M  V30 5098 H 462.246 -4.36279 0.505665 0
M  V30 5099 H 462.852 -3.72543 2.05163 0
M  V30 5100 N 461.167 -1.02423 -1.1978 0
M  V30 5101 C 462.392 -0.7373 -1.93852 0
M  V30 5102 C 462.817 0.696923 -1.74713 0
M  V30 5103 O 462.175 1.48056 -1.04638 0
M  V30 5104 C 462.223 -1.08783 -3.438 0
M  V30 5105 O 461.327 -0.20383 -4.11896 0
M  V30 5106 H 460.668 -0.27284 -0.605355 0
M  V30 5107 H 463.198 -1.36966 -1.51992 0
M  V30 5108 H 463.208 -1.04276 -3.9445 0
M  V30 5109 H 461.883 -2.13274 -3.57053 0
M  V30 5110 H 460.46 -0.307091 -3.71633 0
M  V30 5111 N 462.645 1.35699 -0.801477 0
M  V30 5112 C 463.891 1.99208 -0.380022 0
M  V30 5113 C 464.224 1.63445 1.04878 0
M  V30 5114 O 463.499 0.895223 1.72673 0
M  V30 5115 C 463.782 3.55755 -0.557708 0
M  V30 5116 C 463.635 4.01332 -2.03107 0
M  V30 5117 C 464.954 4.40096 0.0197968 0
M  V30 5118 H 462.073 0.723667 -0.139552 0
M  V30 5119 H 464.715 1.60928 -1.01006 0
M  V30 5120 H 462.865 3.88494 -0.0213741 0
M  V30 5121 H 464.537 3.79026 -2.62939 0
M  V30 5122 H 462.78 3.52429 -2.52936 0
M  V30 5123 H 463.451 5.10234 -2.1063 0
M  V30 5124 H 465.927 4.13786 -0.438179 0
M  V30 5125 H 464.803 5.48735 -0.134477 0
M  V30 5126 H 465.064 4.2786 1.11303 0
M  V30 5127 N 464.123 0.554532 1.47522 0
M  V30 5128 C 465.363 0.0317994 2.04375 0
M  V30 5129 C 465.727 -1.29242 1.41988 0
M  V30 5130 O 466.928 -1.90269 1.89872 0
M  V30 5131 C 465.199 -0.0623344 3.57346 0
M  V30 5132 S 466.758 -0.531578 4.35568 0
M  V30 5133 H 463.576 0.0238553 0.7106 0
M  V30 5134 H 466.178 0.74066 1.80927 0
M  V30 5135 H 464.882 0.905857 4.00278 0
M  V30 5136 H 464.413 -0.794831 3.85287 0
M  V30 5137 H 466.428 -1.79175 4.62721 0
M  V30 5138 N 465.601 -1.54893 0.290851 0
M  V30 5139 C 466.847 -2.0023 -0.321867 0
M  V30 5140 C 467.18 -1.179 -1.54316 0
M  V30 5141 O 466.455 -0.25293 -1.92848 0
M  V30 5142 C 466.738 -3.53456 -0.688515 0
M  V30 5143 C 466.591 -4.46532 0.541209 0
M  V30 5144 C 467.91 -4.13057 -1.51895 0
M  V30 5145 H 465.029 -0.727891 -0.115515 0
M  V30 5146 H 467.671 -1.85722 0.400931 0
M  V30 5147 H 465.821 -3.6595 -1.30433 0
M  V30 5148 H 467.493 -4.4596 1.17973 0
M  V30 5149 H 465.736 -4.17545 1.17636 0
M  V30 5150 H 466.407 -5.51475 0.240675 0
M  V30 5151 H 468.883 -4.03937 -0.99872 0
M  V30 5152 H 467.759 -5.20448 -1.74429 0
M  V30 5153 H 468.02 -3.64284 -2.50498 0
M  V30 5154 N 467.08 -0.0183926 -1.57589 0
M  V30 5155 C 468.01 0.965596 -2.12599 0
M  V30 5156 C 468.991 1.34641 -1.0395 0
M  V30 5157 O 470.176 1.42693 -1.31729 0
M  V30 5158 C 467.306 2.25149 -2.64434 0
M  V30 5159 C 466.26 2.01175 -3.77773 0
M  V30 5160 C 465.586 3.35937 -4.15994 0
M  V30 5161 C 466.886 1.35953 -5.04296 0
M  V30 5162 H 468.58 0.507504 -2.95067 0
M  V30 5163 H 466.126 0.242671 -1.41941 0
M  V30 5164 H 468.079 2.94357 -3.01549 0
M  V30 5165 H 466.803 2.73105 -1.79112 0
M  V30 5166 H 465.462 1.34388 -3.4108 0
M  V30 5167 H 465.11 3.81631 -3.27669 0
M  V30 5168 H 464.81 3.20705 -4.92364 0
M  V30 5169 H 466.334 4.0643 -4.55683 0
M  V30 5170 H 467.748 1.95144 -5.39065 0
M  V30 5171 H 466.145 1.31152 -5.85593 0
M  V30 5172 H 467.215 0.331071 -4.83768 0
M  V30 5173 N 468.558 1.5553 0.254621 0
M  V30 5174 C 469.506 1.9048 1.33492 0
M  V30 5175 C 470.5 0.78304 1.50216 0
M  V30 5176 O 471.706 0.967582 1.51782 0
M  V30 5177 H 468.081 0.604846 0.44684 0
M  V30 5178 H 470.052 2.80688 1.01275 0
M  V30 5179 C 468.801 2.20928 2.68489 0
M  V30 5180 H 468.124 3.06742 2.56417 0
M  V30 5181 H 469.564 2.49291 3.42972 0
M  V30 5182 C 468.023 1.023 3.20993 0
M  V30 5183 O 468.553 0.267027 4.00811 0
M  V30 5184 N 466.759 0.815714 2.78917 0
M  V30 5185 H 466.306 1.43217 2.14119 0
M  V30 5186 H 466.264 0.0236532 3.14391 0
M  V30 5187 N 470.036 -0.519951 1.48776 0
M  V30 5188 C 471.282 -1.27711 1.57536 0
M  V30 5189 C 471.615 -1.92547 0.252866 0
M  V30 5190 O 470.89 -1.7979 -0.742021 0
M  V30 5191 C 471.173 -2.35875 2.72094 0
M  V30 5192 C 471.026 -1.75664 4.1408 0
M  V30 5193 C 472.345 -3.37575 2.82367 0
M  V30 5194 H 469.464 -0.462971 0.573434 0
M  V30 5195 H 472.106 -0.578194 1.80989 0
M  V30 5196 H 470.256 -2.95488 2.52228 0
M  V30 5197 H 471.928 -1.20025 4.45412 0
M  V30 5198 H 470.171 -1.06154 4.20611 0
M  V30 5199 H 470.842 -2.54029 4.90075 0
M  V30 5200 H 473.318 -2.87929 3.00393 0
M  V30 5201 H 472.194 -4.1064 3.64233 0
M  V30 5202 H 472.455 -3.98743 1.90936 0
M  V30 5203 N 471.514 -1.37532 -0.769588 0
M  V30 5204 C 472.464 -1.29984 -1.87318 0
M  V30 5205 C 473.448 -0.187242 -1.59807 0
M  V30 5206 O 474.64 -0.421827 -1.719 0
M  V30 5207 C 471.769 -1.11126 -3.24817 0
M  V30 5208 C 470.855 -2.26939 -3.58273 0
M  V30 5209 N 471.246 -3.52336 -3.62895 0
M  V30 5210 C 469.544 -2.19141 -3.8845 0
M  V30 5211 C 470.245 -4.28719 -3.9316 0
M  V30 5212 N 469.221 -3.57884 -4.0917 0
M  V30 5213 H 473.023 -2.24946 -1.89147 0
M  V30 5214 H 470.537 -1.30535 -0.966143 0
M  V30 5215 H 472.534 -1.03803 -4.0377 0
M  V30 5216 H 471.194 -0.17083 -3.2425 0
M  V30 5217 H 472.205 -3.86216 -3.45048 0
M  V30 5218 H 468.882 -1.33167 -3.95693 0
M  V30 5219 H 470.272 -5.37254 -4.03494 0
M  V30 5220 N 472.992 0.995999 -1.22138 0
M  V30 5221 C 473.942 2.06988 -0.956042 0
M  V30 5222 C 474.926 1.60636 0.0921576 0
M  V30 5223 O 476.118 1.76607 -0.117958 0
M  V30 5224 C 473.247 3.39148 -0.532335 0
M  V30 5225 C 472.333 3.92142 -1.61509 0
M  V30 5226 N 472.724 4.18397 -2.84214 0
M  V30 5227 C 471.022 4.20514 -1.48606 0
M  V30 5228 C 471.723 4.61425 -3.54206 0
M  V30 5229 N 470.699 4.64934 -2.81669 0
M  V30 5230 H 474.501 2.25223 -1.88816 0
M  V30 5231 H 472.015 1.17748 -1.11845 0
M  V30 5232 H 474.012 4.15642 -0.323574 0
M  V30 5233 H 472.672 3.22314 0.392921 0
M  V30 5234 H 473.683 4.06682 -3.20671 0
M  V30 5235 H 470.36 4.12769 -0.626762 0
M  V30 5236 H 471.75 4.90387 -4.59315 0
M  V30 5237 N 474.47 1.03057 1.19235 0
M  V30 5238 C 475.886 0.747947 1.40989 0
M  V30 5239 C 476.086 -0.666752 1.90149 0
M  V30 5240 O 475.142 -1.43249 2.07933 0
M  V30 5241 C 476.455 1.7855 2.41951 0
M  V30 5242 C 478.003 1.80524 2.55695 0
M  V30 5243 C 478.478 2.83243 3.59913 0
M  V30 5244 N 479.969 2.8207 3.67411 0
M  V30 5245 C 480.704 3.58204 4.47747 0
M  V30 5246 N 480.2 4.44057 5.31775 0
M  V30 5247 N 481.993 3.46738 4.42413 0
M  V30 5248 H 474.144 1.94367 0.856468 0
M  V30 5249 H 476.407 0.840412 0.438647 0
M  V30 5250 H 476.113 2.79973 2.12857 0
M  V30 5251 H 475.987 1.6092 3.41152 0
M  V30 5252 H 478.374 0.79778 2.84112 0
M  V30 5253 H 478.455 2.02229 1.56643 0
M  V30 5254 H 478.099 3.84161 3.32239 0
M  V30 5255 H 478.029 2.58795 4.5862 0
M  V30 5256 H 480.52 2.19803 3.074 0
M  V30 5257 H 480.833 4.98884 5.90199 0
M  V30 5258 H 479.178 4.48129 5.3123 0
M  V30 5259 H 482.369 2.79077 3.75811 0
M  V30 5260 H 482.542 4.06322 5.04783 0
M  V30 5261 N 475.948 -1.35272 0.808662 0
M  V30 5262 C 477.173 -2.03477 0.401475 0
M  V30 5263 C 477.598 -1.60537 -0.980279 0
M  V30 5264 O 476.956 -0.78304 -1.63518 0
M  V30 5265 C 477.004 -3.57181 0.495354 0
M  V30 5266 O 476.108 -4.09474 -0.490397 0
M  V30 5267 H 475.449 -0.642561 0.167366 0
M  V30 5268 H 477.979 -1.72824 1.09512 0
M  V30 5269 H 477.989 -4.06356 0.365912 0
M  V30 5270 H 476.664 -3.87784 1.5032 0
M  V30 5271 H 475.241 -3.71516 -0.321023 0
M  V30 5272 N 477.426 -0.562348 -1.47226 0
M  V30 5273 C 478.837 -0.130325 -1.86245 0
M  V30 5274 C 479.188 1.30128 -1.46838 0
M  V30 5275 O 478.313 1.97974 -0.873805 0
M  V30 5276 C 478.908 -0.229738 -3.3802 0
M  V30 5277 C 477.467 0.14728 -3.76112 0
M  V30 5278 C 476.614 -0.574971 -2.71274 0
M  V30 5279 H 479.565 -0.771773 -1.3867 0
M  V30 5280 H 479.586 0.550316 -3.76499 0
M  V30 5281 H 479.098 -1.27178 -3.66671 0
M  V30 5282 H 477.199 1.19023 -3.53078 0
M  V30 5283 H 477.312 -0.214858 -4.78618 0
M  V30 5284 H 475.676 -0.0174756 -2.54694 0
M  V30 5285 H 476.459 -1.61827 -3.02766 0
M  V30 5286 N 478.904 1.54736 -0.299062 0
M  V30 5287 C 480.129 2.04975 0.316254 0
M  V30 5288 C 480.554 1.17501 1.46885 0
M  V30 5289 O 479.912 0.178678 1.80417 0
M  V30 5290 C 479.96 3.52672 0.751997 0
M  V30 5291 O 479.064 3.68226 1.85697 0
M  V30 5292 H 478.405 0.661126 0.0617175 0
M  V30 5293 H 480.935 1.99805 -0.440341 0
M  V30 5294 H 480.945 3.94488 1.04133 0
M  V30 5295 H 479.62 4.158 -0.0911482 0
M  V30 5296 H 478.197 3.38316 1.56834 0
M  V30 5297 N 480.382 0.0267497 1.57577 0
M  V30 5298 C 481.61 -0.662661 1.96001 0
M  V30 5299 C 482.025 -1.65799 0.903117 0
M  V30 5300 O 481.382 -1.82135 -0.115317 0
M  V30 5301 C 481.433 -1.37112 3.34488 0
M  V30 5302 O 481.154 -0.415683 4.36123 0
M  V30 5303 C 482.655 -2.15257 3.8753 0
M  V30 5304 H 479.875 -0.18287 0.6456 0
M  V30 5305 H 482.419 0.0858116 2.0432 0
M  V30 5306 H 480.574 -2.07101 3.27395 0
M  V30 5307 H 480.988 -0.918496 5.16395 0
M  V30 5308 H 482.462 -2.60285 4.86781 0
M  V30 5309 H 482.939 -2.99063 3.21649 0
M  V30 5310 H 483.545 -1.50231 3.97883 0
M  V30 5311 N 481.861 -1.55662 -0.24637 0
M  V30 5312 C 482.811 -1.86753 -1.30795 0
M  V30 5313 C 483.795 -0.728445 -1.43466 0
M  V30 5314 O 484.987 -0.99038 -1.46699 0
M  V30 5315 C 482.116 -2.16618 -2.66329 0
M  V30 5316 C 481.202 -3.36855 -2.57661 0
M  V30 5317 N 481.593 -4.56111 -2.18624 0
M  V30 5318 C 479.891 -3.39976 -2.88673 0
M  V30 5319 C 480.592 -5.38247 -2.20601 0
M  V30 5320 N 479.568 -4.77322 -2.60124 0
M  V30 5321 H 483.37 -2.76486 -0.996642 0
M  V30 5322 H 480.884 -1.55896 -0.454994 0
M  V30 5323 H 482.881 -2.37057 -3.42942 0
M  V30 5324 H 481.541 -1.28185 -2.98327 0
M  V30 5325 H 482.552 -4.81726 -1.9016 0
M  V30 5326 H 479.229 -2.61815 -3.25206 0
M  V30 5327 H 480.619 -6.43657 -1.92756 0
M  V30 5328 N 483.339 0.512053 -1.4905 0
M  V30 5329 C 484.567 1.29116 -1.61669 0
M  V30 5330 C 484.982 1.86655 -0.283787 0
M  V30 5331 O 484.339 1.67293 0.729331 0
M  V30 5332 C 484.39 2.4293 -2.67707 0
M  V30 5333 O 484.111 1.87758 -3.95826 0
M  V30 5334 C 485.612 3.34476 -2.90931 0
M  V30 5335 H 482.832 0.392009 -0.544583 0
M  V30 5336 H 485.376 0.615881 -1.95006 0
M  V30 5337 H 483.531 3.06308 -2.37179 0
M  V30 5338 H 483.945 2.62393 -4.54148 0
M  V30 5339 H 485.419 4.10642 -3.68886 0
M  V30 5340 H 485.896 3.90801 -2.00427 0
M  V30 5341 H 486.502 2.76874 -3.22832 0
M  V30 5342 N 484.817 1.37938 0.762283 0
M  V30 5343 C 485.75 1.2884 1.88349 0
M  V30 5344 C 486.728 0.167084 1.61739 0
M  V30 5345 O 487.912 0.34292 1.85355 0
M  V30 5346 C 485.039 0.994257 3.23778 0
M  V30 5347 C 484.085 2.13376 3.69287 0
M  V30 5348 S 484.918 3.75439 3.81845 0
M  V30 5349 C 486.074 3.48195 5.20107 0
M  V30 5350 H 486.307 2.23736 1.95779 0
M  V30 5351 H 483.84 1.23672 0.924368 0
M  V30 5352 H 485.798 0.83138 4.01993 0
M  V30 5353 H 484.459 0.0626251 3.14038 0
M  V30 5354 H 483.652 1.88319 4.67495 0
M  V30 5355 H 483.254 2.25726 2.98201 0
M  V30 5356 H 485.546 3.0377 6.05583 0
M  V30 5357 H 486.489 4.45765 5.50181 0
M  V30 5358 H 486.897 2.82905 4.88493 0
M  V30 5359 N 486.295 -0.989507 1.22664 0
M  V30 5360 C 487.258 -2.06183 1.00106 0
M  V30 5361 C 488.258 -1.60765 -0.0337726 0
M  V30 5362 O 489.448 -1.72989 0.205072 0
M  V30 5363 C 486.58 -3.37021 0.51279 0
M  V30 5364 H 487.773 -2.27629 1.95256 0
M  V30 5365 H 485.326 -1.16158 1.0458 0
M  V30 5366 H 486.061 -3.21261 -0.442917 0
M  V30 5367 H 485.846 -3.71323 1.25942 0
M  V30 5368 H 487.336 -4.1591 0.375315 0
M  V30 5369 N 487.773 -1.03688 -1.18687 0
M  V30 5370 C 489.184 -0.766488 -1.70241 0
M  V30 5371 C 489.535 0.713052 -1.82784 0
M  V30 5372 O 488.66 1.55529 -1.50465 0
M  V30 5373 C 489.255 -1.38475 -3.09209 0
M  V30 5374 C 487.814 -1.16276 -3.5799 0
M  V30 5375 C 486.961 -1.4778 -2.34641 0
M  V30 5376 H 489.912 -1.20378 -1.03415 0
M  V30 5377 H 489.933 -0.785939 -3.72295 0
M  V30 5378 H 489.445 -2.46157 -3.00048 0
M  V30 5379 H 487.546 -0.104508 -3.72453 0
M  V30 5380 H 487.659 -1.8571 -4.41643 0
M  V30 5381 H 486.023 -0.897366 -2.38368 0
M  V30 5382 H 486.806 -2.56562 -2.28102 0
M  V30 5383 N 489.251 1.34841 -0.815825 0
M  V30 5384 C 490.497 1.99219 -0.410288 0
M  V30 5385 C 490.852 1.63532 1.01366 0
M  V30 5386 O 490.145 0.893093 1.69512 0
M  V30 5387 C 490.339 3.53273 -0.541541 0
M  V30 5388 C 490.168 4.03927 -1.9767 0
M  V30 5389 C 488.938 4.32852 -2.60706 0
M  V30 5390 C 491.136 4.21808 -2.9425 0
M  V30 5391 N 489.118 4.69494 -3.95536 0
M  V30 5392 C 490.489 4.6155 -4.13971 0
M  V30 5393 C 492.544 4.04038 -2.9096 0
M  V30 5394 C 491.247 4.85381 -5.30847 0
M  V30 5395 C 493.273 4.29031 -4.07046 0
M  V30 5396 C 492.635 4.69054 -5.25517 0
M  V30 5397 H 488.734 0.756494 -0.198094 0
M  V30 5398 H 491.318 1.63379 -1.05902 0
M  V30 5399 H 489.489 3.88323 0.0772544 0
M  V30 5400 H 491.221 4.04551 -0.109694 0
M  V30 5401 H 487.976 4.23503 -2.11995 0
M  V30 5402 H 488.4 4.92061 -4.64979 0
M  V30 5403 H 493.042 3.7223 -2.00512 0
M  V30 5404 H 490.76 5.16059 -6.21859 0
M  V30 5405 H 494.346 4.16826 -4.05891 0
M  V30 5406 H 493.226 4.88014 -6.1385 0
M  V30 5407 N 490.729 0.570148 1.46925 0
M  V30 5408 C 491.975 0.0510284 2.02736 0
M  V30 5409 C 492.308 -1.3006 1.44215 0
M  V30 5410 O 491.583 -1.84932 0.602521 0
M  V30 5411 C 491.866 -0.028215 3.60089 0
M  V30 5412 C 491.719 1.35142 4.29018 0
M  V30 5413 C 493.038 -0.735181 4.33916 0
M  V30 5414 H 490.157 0.0200178 0.736728 0
M  V30 5415 H 492.799 0.73493 1.75211 0
M  V30 5416 H 490.949 -0.610648 3.83671 0
M  V30 5417 H 492.621 1.97806 4.16738 0
M  V30 5418 H 490.864 1.9226 3.88868 0
M  V30 5419 H 491.535 1.24857 5.37694 0
M  V30 5420 H 494.011 -0.240519 4.15404 0
M  V30 5421 H 492.887 -0.759622 5.43618 0
M  V30 5422 H 493.148 -1.79397 4.04066 0
M  V30 5423 N 492.207 -1.54576 0.307264 0
M  V30 5424 C 493.154 -2.23751 -0.56604 0
M  V30 5425 C 494.124 -1.22235 -1.12462 0
M  V30 5426 O 495.309 -1.50873 -1.16799 0
M  V30 5427 C 492.449 -2.98661 -1.72903 0
M  V30 5428 C 491.562 -4.14963 -1.20124 0
M  V30 5429 C 490.697 -4.77441 -2.3286 0
M  V30 5430 C 489.736 -5.85875 -1.77247 0
M  V30 5431 N 488.873 -6.42282 -2.8358 0
M  V30 5432 H 493.713 -2.97984 0.0304578 0
M  V30 5433 H 491.25 -1.47076 0.0268015 0
M  V30 5434 H 493.208 -3.40329 -2.41313 0
M  V30 5435 H 491.838 -2.26793 -2.29706 0
M  V30 5436 H 490.89 -3.78193 -0.409198 0
M  V30 5437 H 492.202 -4.93066 -0.754171 0
M  V30 5438 H 491.356 -5.21993 -3.09205 0
M  V30 5439 H 490.095 -3.98684 -2.80896 0
M  V30 5440 H 489.1 -5.40741 -0.993926 0
M  V30 5441 H 490.325 -6.6652 -1.30107 0
M  V30 5442 H 488.271 -5.66406 -3.30939 0
M  V30 5443 H 488.188 -7.1575 -2.43388 0
M  V30 5444 H 489.456 -6.91492 -3.59804 0
M  V30 5445 N 493.685 -0.035106 -1.57561 0
M  V30 5446 C 495.101 0.321334 -1.56332 0
M  V30 5447 C 495.301 1.72509 -1.04129 0
M  V30 5448 O 494.357 2.4287 -0.690694 0
M  V30 5449 C 495.67 0.164469 -3.0025 0
M  V30 5450 C 497.218 0.236786 -3.12103 0
M  V30 5451 C 497.693 0.10864 -4.57871 0
M  V30 5452 N 499.184 0.165433 -4.62904 0
M  V30 5453 C 499.919 0.0901506 -5.73329 0
M  V30 5454 N 499.415 -0.0365606 -6.9279 0
M  V30 5455 N 501.208 0.144572 -5.61914 0
M  V30 5456 H 493.359 -0.952976 -1.89821 0
M  V30 5457 H 495.622 -0.368537 -0.873432 0
M  V30 5458 H 495.328 -0.802746 -3.42416 0
M  V30 5459 H 495.202 0.932194 -3.655 0
M  V30 5460 H 497.589 1.19446 -2.69845 0
M  V30 5461 H 497.67 -0.561419 -2.49563 0
M  V30 5462 H 497.314 -0.845644 -5.00811 0
M  V30 5463 H 497.244 0.925786 -5.18398 0
M  V30 5464 H 499.735 0.263269 -3.76982 0
M  V30 5465 H 500.048 -0.0871487 -7.72751 0
M  V30 5466 H 498.393 -0.0714256 -6.94963 0
M  V30 5467 H 501.584 0.242006 -4.67474 0
M  V30 5468 H 501.757 0.0824413 -6.47948 0
M  V30 5469 N 495.163 1.55791 0.238111 0
M  V30 5470 C 496.403 1.79801 0.972163 0
M  V30 5471 C 496.767 0.606027 1.82185 0
M  V30 5472 O 497.968 0.725079 2.58836 0
M  V30 5473 C 496.239 3.08608 1.80266 0
M  V30 5474 S 497.798 3.53872 2.59461 0
M  V30 5475 H 494.616 0.631418 0.326852 0
M  V30 5476 H 497.218 1.94031 0.239212 0
M  V30 5477 H 495.922 3.93419 1.1683 0
M  V30 5478 H 495.453 2.9714 2.57821 0
M  V30 5479 H 497.468 3.15899 3.82651 0
M  V30 5480 N 496.642 -0.504142 1.49319 0
M  V30 5481 C 497.889 -1.25846 1.58647 0
M  V30 5482 C 498.217 -1.92592 0.27177 0
M  V30 5483 O 497.472 -1.81167 -0.74007 0
M  V30 5484 C 497.771 -2.35021 2.69258 0
M  V30 5485 C 497.437 -1.85755 4.1086 0
M  V30 5486 C 496.099 -1.72038 4.49395 0
M  V30 5487 C 498.451 -1.48844 4.99495 0
M  V30 5488 C 495.779 -1.19783 5.74342 0
M  V30 5489 C 498.131 -0.980422 6.24956 0
M  V30 5490 C 496.795 -0.829622 6.62324 0
M  V30 5491 H 496.065 -0.460505 0.580531 0
M  V30 5492 H 498.712 -0.559716 1.83138 0
M  V30 5493 H 497.017 -3.10672 2.38726 0
M  V30 5494 H 498.714 -2.93083 2.73685 0
M  V30 5495 H 495.304 -1.9739 3.80441 0
M  V30 5496 H 499.488 -1.5829 4.70381 0
M  V30 5497 H 494.744 -1.06817 6.01997 0
M  V30 5498 H 498.918 -0.685608 6.93017 0
M  V30 5499 H 496.545 -0.42253 7.59025 0
M  V30 5500 N 498.12 -1.38341 -0.754957 0
M  V30 5501 C 499.05 -1.38176 -1.88227 0
M  V30 5502 C 500.031 -0.247873 -1.68284 0
M  V30 5503 O 501.216 -0.45075 -1.88896 0
M  V30 5504 C 498.346 -1.20471 -3.25736 0
M  V30 5505 C 497.3 -2.3105 -3.60278 0
M  V30 5506 C 496.626 -1.98452 -4.96509 0
M  V30 5507 C 497.926 -3.73305 -3.65295 0
M  V30 5508 H 499.62 -2.32512 -1.88622 0
M  V30 5509 H 497.166 -1.1192 -0.906082 0
M  V30 5510 H 499.119 -1.18982 -4.04254 0
M  V30 5511 H 497.843 -0.225965 -3.25817 0
M  V30 5512 H 496.502 -2.31723 -2.84078 0
M  V30 5513 H 496.15 -0.990641 -4.93148 0
M  V30 5514 H 495.85 -2.7251 -5.20588 0
M  V30 5515 H 497.374 -1.98578 -5.77407 0
M  V30 5516 H 498.788 -3.7467 -4.3393 0
M  V30 5517 H 497.185 -4.46557 -4.00883 0
M  V30 5518 H 498.255 -4.05719 -2.65556 0
M  V30 5519 N 499.598 0.982988 -1.23187 0
M  V30 5520 C 500.548 2.05962 -0.977942 0
M  V30 5521 C 501.532 1.60725 0.0751148 0
M  V30 5522 O 502.724 1.76471 -0.136683 0
M  V30 5523 C 499.853 3.38564 -0.568276 0
M  V30 5524 C 498.939 3.90407 -1.6566 0
M  V30 5525 N 499.33 4.15359 -2.88635 0
M  V30 5526 C 497.628 4.18915 -1.53058 0
M  V30 5527 C 498.329 4.57642 -3.5908 0
M  V30 5528 N 497.305 4.6192 -2.86584 0
M  V30 5529 H 501.107 2.23208 -1.91195 0
M  V30 5530 H 498.621 1.16555 -1.13087 0
M  V30 5531 H 500.618 4.15276 -0.36764 0
M  V30 5532 H 499.278 3.22712 0.358713 0
M  V30 5533 H 500.289 4.03258 -3.24966 0
M  V30 5534 H 496.966 4.12081 -0.670506 0
M  V30 5535 H 498.356 4.85488 -4.6449 0
M  V30 5536 N 501.076 1.04316 1.18135 0
M  V30 5537 C 502.023 0.636398 2.21853 0
M  V30 5538 C 502.993 -0.357039 1.62217 0
M  V30 5539 O 504.178 -0.250453 1.89149 0
M  V30 5540 C 501.318 0.00812779 3.45099 0
M  V30 5541 C 500.431 1.04933 4.19062 0
M  V30 5542 C 499.566 0.389313 5.29771 0
M  V30 5543 C 498.605 1.41544 5.9551 0
M  V30 5544 N 497.742 0.78021 6.97751 0
M  V30 5545 H 502.582 1.52536 2.56002 0
M  V30 5546 H 500.119 0.76304 1.25762 0
M  V30 5547 H 502.077 -0.373497 4.15525 0
M  V30 5548 H 500.707 -0.844336 3.11562 0
M  V30 5549 H 499.759 1.54888 3.47439 0
M  V30 5550 H 501.071 1.82862 4.64072 0
M  V30 5551 H 500.225 -0.0463805 6.06682 0
M  V30 5552 H 498.964 -0.422038 4.8587 0
M  V30 5553 H 497.969 1.86124 5.17337 0
M  V30 5554 H 499.194 2.22854 6.41493 0
M  V30 5555 H 497.14 -0.0107899 6.55999 0
M  V30 5556 H 497.057 1.49716 7.41027 0
M  V30 5557 H 498.325 0.368996 7.78626 0
M  V30 5558 N 502.554 -1.34406 0.822964 0
M  V30 5559 C 503.484 -2.32052 0.259608 0
M  V30 5560 C 504.465 -1.58243 -0.623961 0
M  V30 5561 O 505.65 -1.86224 -0.55083 0
M  V30 5562 C 502.78 -3.42434 -0.579314 0
M  V30 5563 C 501.734 -4.27499 0.20712 0
M  V30 5564 C 501.06 -5.29349 -0.754547 0
M  V30 5565 C 502.36 -5.02758 1.41533 0
M  V30 5566 H 504.054 -2.79418 1.07545 0
M  V30 5567 H 501.6 -1.34338 0.518593 0
M  V30 5568 H 503.553 -4.0976 -0.983612 0
M  V30 5569 H 502.277 -2.93717 -1.4282 0
M  V30 5570 H 500.936 -3.61776 0.592787 0
M  V30 5571 H 500.584 -4.76895 -1.59939 0
M  V30 5572 H 500.284 -5.8714 -0.232561 0
M  V30 5573 H 501.808 -5.99544 -1.1567 0
M  V30 5574 H 503.222 -5.62938 1.08504 0
M  V30 5575 H 501.619 -5.70123 1.87296 0
M  V30 5576 H 502.689 -4.32451 2.1935 0
M  V30 5577 N 504.032 -0.577932 -1.46621 0
M  V30 5578 C 505.443 -0.150071 -1.86096 0
M  V30 5579 C 505.794 1.28563 -1.48209 0
M  V30 5580 O 504.919 1.97036 -0.894754 0
M  V30 5581 C 505.514 -0.265576 -3.37758 0
M  V30 5582 C 504.073 0.10738 -3.76247 0
M  V30 5583 C 503.22 -0.603711 -2.70649 0
M  V30 5584 H 506.171 -0.786438 -1.37844 0
M  V30 5585 H 506.192 0.510352 -3.77062 0
M  V30 5586 H 505.704 -1.3106 -3.65301 0
M  V30 5587 H 503.805 1.15272 -3.54321 0
M  V30 5588 H 503.918 -0.26561 -4.78363 0
M  V30 5589 H 502.282 -0.0444884 -2.54661 0
M  V30 5590 H 503.065 -1.65029 -3.01032 0
M  V30 5591 N 505.51 1.54411 -0.315457 0
M  V30 5592 C 506.738 2.04833 0.291738 0
M  V30 5593 C 507.153 1.19203 1.46411 0
M  V30 5594 O 506.51 0.220867 1.81159 0
M  V30 5595 C 506.561 3.53969 0.73404 0
M  V30 5596 O 506.282 4.36346 -0.391682 0
M  V30 5597 C 507.783 4.2045 1.40489 0
M  V30 5598 H 505.003 0.668195 0.0612947 0
M  V30 5599 H 507.547 1.99276 -0.45929 0
M  V30 5600 H 505.702 3.5984 1.43506 0
M  V30 5601 H 506.116 5.24481 -0.0447088 0
M  V30 5602 H 507.59 5.26278 1.66539 0
M  V30 5603 H 508.067 3.71067 2.3496 0
M  V30 5604 H 508.673 4.18694 0.746662 0
M  V30 5605 N 506.988 0.0434614 1.5754 0
M  V30 5606 C 508.235 -0.632035 1.92384 0
M  V30 5607 C 508.563 -1.71304 0.921157 0
M  V30 5608 O 507.818 -1.95583 -0.067744 0
M  V30 5609 C 508.117 -1.2738 3.3393 0
M  V30 5610 C 507.783 -0.321757 4.49751 0
M  V30 5611 C 506.445 -0.0597611 4.81163 0
M  V30 5612 C 508.797 0.331158 5.20147 0
M  V30 5613 C 506.125 0.862715 5.80322 0
M  V30 5614 C 508.477 1.24178 6.20292 0
M  V30 5615 C 507.141 1.51252 6.50138 0
M  V30 5616 H 506.411 -0.231278 0.703983 0
M  V30 5617 H 509.058 0.108294 1.91194 0
M  V30 5618 H 507.363 -2.08921 3.3145 0
M  V30 5619 H 509.06 -1.80326 3.58167 0
M  V30 5620 H 505.65 -0.53614 4.25233 0
M  V30 5621 H 509.834 0.141826 4.96097 0
M  V30 5622 H 505.09 1.08003 6.01785 0
M  V30 5623 H 509.264 1.75381 6.73954 0
M  V30 5624 H 506.891 2.22897 7.26788 0
M  V30 5625 N 508.466 -1.55915 -0.229846 0
M  V30 5626 C 509.396 -1.94754 -1.28815 0
M  V30 5627 C 510.377 -0.814657 -1.49323 0
M  V30 5628 O 511.562 -1.07631 -1.61645 0
M  V30 5629 C 508.692 -2.25705 -2.63959 0
M  V30 5630 C 507.646 -3.41406 -2.5812 0
M  V30 5631 C 506.972 -3.57941 -3.97218 0
M  V30 5632 C 508.272 -4.76616 -2.13623 0
M  V30 5633 H 509.966 -2.83404 -0.965547 0
M  V30 5634 H 507.512 -1.36353 -0.463028 0
M  V30 5635 H 509.465 -2.51467 -3.38146 0
M  V30 5636 H 508.189 -1.339 -2.9789 0
M  V30 5637 H 506.848 -3.1568 -1.86391 0
M  V30 5638 H 506.496 -2.63526 -4.28443 0
M  V30 5639 H 506.196 -4.35757 -3.94195 0
M  V30 5640 H 507.72 -3.86042 -4.73079 0
M  V30 5641 H 509.134 -5.01637 -2.77549 0
M  V30 5642 H 507.531 -5.57655 -2.21677 0
M  V30 5643 H 508.601 -4.7253 -1.08829 0
M  V30 5644 N 509.944 0.496216 -1.49584 0
M  V30 5645 C 511.191 1.25003 -1.59312 0
M  V30 5646 C 511.519 1.92445 -0.28198 0
M  V30 5647 O 510.774 1.81557 0.730452 0
M  V30 5648 C 511.073 2.3359 -2.705 0
M  V30 5649 C 510.739 1.83574 -4.11839 0
M  V30 5650 C 509.401 1.69653 -4.50302 0
M  V30 5651 C 511.753 1.46193 -5.00277 0
M  V30 5652 C 509.081 1.16736 -5.74969 0
M  V30 5653 C 511.433 0.947265 -6.25468 0
M  V30 5654 C 510.097 0.794485 -6.62755 0
M  V30 5655 H 509.367 0.45742 -0.582965 0
M  V30 5656 H 512.014 0.549996 -1.83432 0
M  V30 5657 H 510.319 3.09401 -2.40371 0
M  V30 5658 H 512.016 2.91627 -2.75235 0
M  V30 5659 H 508.606 1.9537 -3.81482 0
M  V30 5660 H 512.79 1.55793 -4.71214 0
M  V30 5661 H 508.046 1.03623 -6.02555 0
M  V30 5662 H 512.22 0.648846 -6.93371 0
M  V30 5663 H 509.847 0.382271 -7.59238 0
M  V30 5664 N 511.423 1.38739 0.74761 0
M  V30 5665 C 512.356 1.3083 1.86972 0
M  V30 5666 C 513.334 0.184229 1.61553 0
M  V30 5667 O 514.518 0.36256 1.8498 0
M  V30 5668 C 511.645 1.02854 3.22705 0
M  V30 5669 C 510.691 2.17281 3.67003 0
M  V30 5670 S 511.524 3.79468 3.77842 0
M  V30 5671 C 512.68 3.53692 5.16385 0
M  V30 5672 H 512.913 2.258 1.93395 0
M  V30 5673 H 510.446 1.24646 0.911199 0
M  V30 5674 H 512.404 0.87397 4.01089 0
M  V30 5675 H 511.065 0.0959295 3.13953 0
M  V30 5676 H 510.258 1.93267 4.65472 0
M  V30 5677 H 509.86 2.28876 2.9579 0
M  V30 5678 H 512.152 3.10176 6.02327 0
M  V30 5679 H 513.095 4.51576 5.45422 0
M  V30 5680 H 513.503 2.8807 4.85464 0
M  V30 5681 N 512.901 -0.976442 1.23707 0
M  V30 5682 C 513.848 -2.06952 1.02174 0
M  V30 5683 C 514.818 -1.65984 -0.0621034 0
M  V30 5684 O 516.003 -1.90584 0.0907906 0
M  V30 5685 C 513.143 -3.39425 0.62327 0
M  V30 5686 C 512.256 -3.9364 1.77966 0
M  V30 5687 C 511.391 -5.14343 1.3276 0
M  V30 5688 C 510.43 -5.60733 2.45449 0
M  V30 5689 N 509.567 -6.72662 2.01172 0
M  V30 5690 H 514.407 -2.24704 1.95734 0
M  V30 5691 H 511.944 -1.10143 0.975034 0
M  V30 5692 H 513.902 -4.15526 0.37332 0
M  V30 5693 H 512.532 -3.21624 -0.275329 0
M  V30 5694 H 511.584 -3.14258 2.14351 0
M  V30 5695 H 512.896 -4.24035 2.62671 0
M  V30 5696 H 512.05 -5.97789 1.03601 0
M  V30 5697 H 510.789 -4.8561 0.450975 0
M  V30 5698 H 509.794 -4.75865 2.75378 0
M  V30 5699 H 511.019 -5.91483 3.33654 0
M  V30 5700 H 508.965 -6.45681 1.15895 0
M  V30 5701 H 508.882 -7.02462 2.79434 0
M  V30 5702 H 510.15 -7.59572 1.75129 0
M  V30 5703 N 514.379 -1.04941 -1.1758 0
M  V30 5704 C 515.795 -0.770282 -1.39781 0
M  V30 5705 C 515.995 0.636417 -1.91186 0
M  V30 5706 O 515.051 1.39923 -2.10185 0
M  V30 5707 C 516.364 -1.82376 -2.3908 0
M  V30 5708 C 517.912 -1.84569 -2.52791 0
M  V30 5709 C 518.387 -2.88933 -3.55361 0
M  V30 5710 N 519.878 -2.8788 -3.62877 0
M  V30 5711 C 520.613 -3.65282 -4.41992 0
M  V30 5712 N 520.109 -4.52461 -5.24643 0
M  V30 5713 N 521.902 -3.53732 -4.36841 0
M  V30 5714 H 514.053 -1.95705 -0.825438 0
M  V30 5715 H 516.316 -0.847284 -0.425222 0
M  V30 5716 H 516.022 -2.83323 -2.08376 0
M  V30 5717 H 515.896 -1.66327 -3.38549 0
M  V30 5718 H 518.283 -0.842879 -2.82807 0
M  V30 5719 H 518.364 -2.04696 -1.53406 0
M  V30 5720 H 518.008 -3.89398 -3.26085 0
M  V30 5721 H 517.938 -2.66059 -4.54445 0
M  V30 5722 H 520.429 -2.24666 -3.03864 0
M  V30 5723 H 520.742 -5.08211 -5.82187 0
M  V30 5724 H 519.087 -4.56524 -5.24033 0
M  V30 5725 H 522.278 -2.85021 -3.71323 0
M  V30 5726 H 522.451 -4.14302 -4.98255 0
M  V30 5727 N 515.857 1.33968 -0.830081 0
M  V30 5728 C 517.268 1.80439 -0.479455 0
M  V30 5729 C 517.619 1.68756 1.00079 0
M  V30 5730 O 516.744 1.23171 1.77927 0
M  V30 5731 C 517.339 3.27611 -0.863505 0
M  V30 5732 C 515.898 3.72133 -0.565145 0
M  V30 5733 C 515.045 2.55549 -1.07657 0
M  V30 5734 H 517.996 1.21614 -1.0196 0
M  V30 5735 H 518.017 3.8012 -0.170083 0
M  V30 5736 H 517.529 3.36082 -1.94089 0
M  V30 5737 H 515.63 3.69196 0.502536 0
M  V30 5738 H 515.743 4.65963 -1.11422 0
M  V30 5739 H 514.107 2.49788 -0.497807 0
M  V30 5740 H 514.89 2.66786 -2.16055 0
M  V30 5741 N 517.335 0.585699 1.46312 0
M  V30 5742 C 518.583 0.072278 2.01971 0
M  V30 5743 C 518.904 -1.29345 1.45928 0
M  V30 5744 O 518.174 -1.84973 0.645109 0
M  V30 5745 H 516.754 0.023729 0.746623 0
M  V30 5746 H 519.416 0.762155 1.7938 0
M  V30 5747 H 518.512 0.00552767 3.121 0
M  V30 5748 N 518.813 -1.54241 0.323641 0
M  V30 5749 C 520.224 -1.85975 -0.164405 0
M  V30 5750 C 520.575 -1.24529 -1.51615 0
M  V30 5751 O 519.7 -0.551351 -2.09258 0
M  V30 5752 C 520.295 -3.37424 -0.305091 0
M  V30 5753 C 518.854 -3.69107 -0.737358 0
M  V30 5754 C 518.001 -2.76942 0.140884 0
M  V30 5755 H 520.952 -1.49088 0.543922 0
M  V30 5756 H 520.973 -3.63147 -1.13598 0
M  V30 5757 H 520.485 -3.82116 0.678876 0
M  V30 5758 H 518.586 -3.29947 -1.73107 0
M  V30 5759 H 518.699 -4.76035 -0.541053 0
M  V30 5760 H 517.063 -2.51795 -0.383572 0
M  V30 5761 H 517.846 -3.24461 1.12162 0
M  V30 5762 N 520.291 -0.0518155 -1.57515 0
M  V30 5763 C 521.568 0.661727 -1.84067 0
M  V30 5764 C 521.948 1.88999 -0.940351 0
M  V30 5765 O 521.296 2.285 -0.00155404 0
M  V30 5766 C 521.506 1.01841 -3.3381 0
M  V30 5767 C 522.854 1.40043 -4.00841 0
M  V30 5768 O 523.878 1.11073 -3.38439 0
M  V30 5769 O 522.737 1.94111 -5.10865 0
M  V30 5770 H 519.831 0.326702 -0.759733 0
M  V30 5771 H 522.377 -0.0812277 -1.69505 0
M  V30 5772 H 521.149 0.145202 -3.91031 0
M  V30 5773 H 520.772 1.81879 -3.53562 0
M  V30 5774 N 521.769 1.56035 0.221574 0
M  V30 5775 C 522.994 1.83476 0.967026 0
M  V30 5776 C 523.419 0.632139 1.7716 0
M  V30 5777 O 522.777 -0.419082 1.7639 0
M  V30 5778 C 522.825 3.08907 1.86034 0
M  V30 5779 O 521.929 2.876 2.95567 0
M  V30 5780 H 521.27 0.604913 0.273817 0
M  V30 5781 H 523.8 2.03247 0.234893 0
M  V30 5782 H 523.81 3.3901 2.27016 0
M  V30 5783 H 522.485 3.96068 1.26898 0
M  V30 5784 H 521.062 2.6873 2.58532 0
M  V30 5785 N 523.247 -0.488276 1.49845 0
M  V30 5786 C 524.472 -1.26997 1.63971 0
M  V30 5787 C 524.897 -1.85427 0.315994 0
M  V30 5788 O 524.255 -1.66475 -0.718032 0
M  V30 5789 C 524.303 -2.36689 2.72049 0
M  V30 5790 O 523.407 -3.40882 2.32107 0
M  V30 5791 H 522.748 -0.374376 0.548396 0
M  V30 5792 H 525.278 -0.583104 1.96115 0
M  V30 5793 H 525.288 -2.82262 2.94605 0
M  V30 5794 H 523.963 -1.93529 3.68129 0
M  V30 5795 H 522.54 -3.01139 2.19931 0
M  V30 5796 N 524.725 -1.39134 -0.740242 0
M  V30 5797 C 526.136 -1.32208 -1.31825 0
M  V30 5798 C 526.487 0.0159919 -1.96193 0
M  V30 5799 O 525.612 0.918111 -1.95958 0
M  V30 5800 C 526.207 -2.39436 -2.39699 0
M  V30 5801 C 524.766 -2.36048 -2.93187 0
M  V30 5802 C 523.913 -2.21599 -1.66701 0
M  V30 5803 H 526.864 -1.49298 -0.538133 0
M  V30 5804 H 526.885 -2.05922 -3.19963 0
M  V30 5805 H 526.397 -3.36811 -1.92821 0
M  V30 5806 H 524.498 -1.42295 -3.44359 0
M  V30 5807 H 524.611 -3.30704 -3.46658 0
M  V30 5808 H 522.975 -1.68681 -1.90837 0
M  V30 5809 H 523.758 -3.20936 -1.21882 0
M  V30 5810 N 526.204 0.969867 -1.24223 0
M  V30 5811 C 527.167 2.04564 -1.03373 0
M  V30 5812 C 528.167 1.60798 0.00819206 0
M  V30 5813 O 529.357 1.72641 -0.232567 0
M  V30 5814 C 526.489 3.36163 -0.566343 0
M  V30 5815 H 527.682 2.24494 -1.98853 0
M  V30 5816 H 525.235 1.1448 -1.06415 0
M  V30 5817 H 525.97 3.21925 0.391751 0
M  V30 5818 H 525.755 3.69273 -1.31834 0
M  V30 5819 H 527.245 4.1526 -0.441435 0
M  V30 5820 N 527.682 1.05563 1.17022 0
M  V30 5821 C 529.098 0.777684 1.39371 0
M  V30 5822 C 529.298 -0.626269 1.91521 0
M  V30 5823 O 528.354 -1.38806 2.10924 0
M  V30 5824 C 529.667 1.83642 2.3811 0
M  V30 5825 C 531.215 1.85907 2.51809 0
M  V30 5826 C 531.69 2.90813 3.53824 0
M  V30 5827 N 533.181 2.898 3.61345 0
M  V30 5828 C 533.916 3.6762 4.40049 0
M  V30 5829 N 533.412 4.55237 5.22237 0
M  V30 5830 N 535.205 3.56044 4.34959 0
M  V30 5831 H 527.356 1.9614 0.815047 0
M  V30 5832 H 529.619 0.849527 0.420722 0
M  V30 5833 H 529.325 2.84425 2.06871 0
M  V30 5834 H 529.199 1.6812 3.37662 0
M  V30 5835 H 531.586 0.857865 2.82356 0
M  V30 5836 H 531.667 2.05506 1.52318 0
M  V30 5837 H 531.311 3.91122 3.24015 0
M  V30 5838 H 531.241 2.68465 4.53028 0
M  V30 5839 H 533.732 2.26274 3.02669 0
M  V30 5840 H 534.045 5.11291 5.79484 0
M  V30 5841 H 532.39 4.59296 5.21605 0
M  V30 5842 H 535.581 2.86986 3.69806 0
M  V30 5843 H 535.754 4.16938 4.96051 0
M  V30 5844 N 529.16 -1.33526 0.837174 0
M  V30 5845 C 530.123 -2.27551 0.274421 0
M  V30 5846 C 531.123 -1.50886 -0.555881 0
M  V30 5847 O 532.313 -1.70227 -0.369918 0
M  V30 5848 C 529.445 -3.35332 -0.613605 0
M  V30 5849 H 530.638 -2.78837 1.10408 0
M  V30 5850 H 528.191 -1.439 0.610126 0
M  V30 5851 H 528.926 -2.89285 -1.46577 0
M  V30 5852 H 528.711 -3.92095 -0.0195341 0
M  V30 5853 H 530.201 -4.05433 -1.00068 0
M  V30 5854 N 530.638 -0.59345 -1.46 0
M  V30 5855 C 531.885 -0.0831523 -2.02329 0
M  V30 5856 C 532.213 1.28093 -1.46364 0
M  V30 5857 O 531.468 1.85526 -0.622793 0
M  V30 5858 C 531.767 0.021178 -3.57394 0
M  V30 5859 C 531.433 -1.27671 -4.32448 0
M  V30 5860 C 530.095 -1.63227 -4.5267 0
M  V30 5861 C 532.447 -2.13511 -4.7546 0
M  V30 5862 C 529.775 -2.84401 -5.1316 0
M  V30 5863 C 532.127 -3.33922 -5.37289 0
M  V30 5864 C 530.791 -3.69747 -5.55737 0
M  V30 5865 H 530.061 -0.0304276 -0.740375 0
M  V30 5866 H 532.708 -0.772239 -1.75239 0
M  V30 5867 H 531.013 0.793454 -3.83682 0
M  V30 5868 H 532.71 0.431942 -3.98667 0
M  V30 5869 H 529.3 -0.989937 -4.17011 0
M  V30 5870 H 533.484 -1.87344 -4.59582 0
M  V30 5871 H 528.74 -3.12282 -5.25633 0
M  V30 5872 H 532.914 -4.00698 -5.69574 0
M  V30 5873 H 530.541 -4.6373 -6.02377 0
M  V30 5874 N 532.116 1.54067 -0.331816 0
M  V30 5875 C 533.527 1.86059 0.15454 0
M  V30 5876 C 533.878 1.25331 1.50952 0
M  V30 5877 O 533.003 0.562441 2.08963 0
M  V30 5878 C 533.598 3.37581 0.287192 0
M  V30 5879 C 532.157 3.69493 0.717773 0
M  V30 5880 C 531.304 2.76863 -0.155569 0
M  V30 5881 H 534.255 1.48797 -0.55182 0
M  V30 5882 H 534.276 3.63744 1.11671 0
M  V30 5883 H 533.788 3.81751 -0.699131 0
M  V30 5884 H 531.889 3.3086 1.71354 0
M  V30 5885 H 532.002 4.76315 0.5158 0
M  V30 5886 H 530.366 2.51995 0.370213 0
M  V30 5887 H 531.149 3.23861 -1.13881 0
M  V30 5888 N 533.594 0.0601682 1.57485 0
M  V30 5889 C 535.005 -0.474217 1.80577 0
M  V30 5890 C 535.356 -1.70365 0.973147 0
M  V30 5891 O 534.481 -2.15544 0.192306 0
M  V30 5892 C 535.076 -0.867102 3.27516 0
M  V30 5893 C 533.635 -1.34642 3.51495 0
M  V30 5894 C 532.782 -0.32594 2.75378 0
M  V30 5895 H 535.733 0.285973 1.56102 0
M  V30 5896 H 535.754 -1.72938 3.38929 0
M  V30 5897 H 535.266 0.0278927 3.8809 0
M  V30 5898 H 533.367 -2.2603 2.96212 0
M  V30 5899 H 533.48 -1.33237 4.60201 0
M  V30 5900 H 531.844 -0.800749 2.41785 0
M  V30 5901 H 532.627 0.561125 3.38683 0
M  V30 5902 N 535.072 -1.5615 -0.213296 0
M  V30 5903 C 536.297 -1.83986 -0.957282 0
M  V30 5904 C 536.722 -0.641526 -1.76822 0
M  V30 5905 O 536.08 0.409722 -1.7661 0
M  V30 5906 C 536.128 -3.09889 -1.84393 0
M  V30 5907 O 535.232 -2.89163 -2.94038 0
M  V30 5908 H 534.573 -0.606357 -0.270605 0
M  V30 5909 H 537.103 -2.03369 -0.224111 0
M  V30 5910 H 537.113 -3.40209 -2.25215 0
M  V30 5911 H 535.788 -3.96735 -1.24795 0
M  V30 5912 H 534.365 -2.70097 -2.57103 0
M  V30 5913 N 536.55 0.480323 -1.50102 0
M  V30 5914 C 537.497 1.57946 -1.6829 0
M  V30 5915 C 538.467 1.57611 -0.524223 0
M  V30 5916 O 539.652 1.75282 -0.753709 0
M  V30 5917 C 536.792 2.95978 -1.77457 0
M  V30 5918 C 535.905 3.06173 -3.04766 0
M  V30 5919 C 535.04 4.35063 -3.04784 0
M  V30 5920 C 534.079 4.38966 -4.26586 0
M  V30 5921 N 533.216 5.59314 -4.24396 0
M  V30 5922 H 538.056 1.41743 -2.62131 0
M  V30 5923 H 535.593 0.689304 -1.2995 0
M  V30 5924 H 537.551 3.76011 -1.80752 0
M  V30 5925 H 536.181 3.10837 -0.870637 0
M  V30 5926 H 535.233 2.19071 -3.10986 0
M  V30 5927 H 536.545 3.04916 -3.9475 0
M  V30 5928 H 535.699 5.23436 -3.06757 0
M  V30 5929 H 534.438 4.38915 -2.12614 0
M  V30 5930 H 533.443 3.48992 -4.24835 0
M  V30 5931 H 534.668 4.36813 -5.19972 0
M  V30 5932 H 532.614 5.63969 -3.35074 0
M  V30 5933 H 532.531 5.5976 -5.08138 0
M  V30 5934 H 533.799 6.49837 -4.30502 0
M  V30 5935 N 538.028 1.39524 0.732853 0
M  V30 5936 C 539.253 1.40329 1.52717 0
M  V30 5937 C 539.678 0.000286574 1.881 0
M  V30 5938 O 539.036 -0.987262 1.52062 0
M  V30 5939 C 539.084 2.28464 2.78992 0
M  V30 5940 O 538.188 1.716 3.75003 0
M  V30 5941 H 537.529 0.47778 0.461109 0
M  V30 5942 H 540.059 1.83546 0.903996 0
M  V30 5943 H 540.069 2.43051 3.27705 0
M  V30 5944 H 538.744 3.30425 2.52572 0
M  V30 5945 H 537.321 1.66267 3.33781 0
M  V30 5946 N 539.506 -0.963266 1.24736 0
M  V30 5947 C 540.746 -1.72172 1.10165 0
M  V30 5948 C 541.11 -1.88731 -0.352784 0
M  V30 5949 O 542.311 -2.61549 -0.620107 0
M  V30 5950 C 540.582 -3.0724 1.82589 0
M  V30 5951 S 542.141 -3.98449 1.83803 0
M  V30 5952 H 538.959 -0.591901 0.393922 0
M  V30 5953 H 541.561 -1.14955 1.58132 0
M  V30 5954 H 540.265 -2.92851 2.87518 0
M  V30 5955 H 539.796 -3.69521 1.34973 0
M  V30 5956 H 541.811 -4.87805 0.908883 0
M  V30 5957 N 540.985 -1.06182 -1.16461 0
M  V30 5958 C 542.231 -0.779015 -1.87241 0
M  V30 5959 C 542.564 0.692715 -1.81425 0
M  V30 5960 O 541.839 1.5074 -1.22913 0
M  V30 5961 C 542.122 -1.2728 -3.36856 0
M  V30 5962 C 541.975 -2.80821 -3.51368 0
M  V30 5963 C 543.294 -0.879799 -4.31216 0
M  V30 5964 H 540.413 -0.284464 -0.679889 0
M  V30 5965 H 543.055 -1.31755 -1.36896 0
M  V30 5966 H 541.205 -0.814673 -3.79862 0
M  V30 5967 H 542.877 -3.34833 -3.17308 0
M  V30 5968 H 541.12 -3.19606 -2.93316 0
M  V30 5969 H 541.791 -3.10435 -4.56436 0
M  V30 5970 H 544.267 -1.27436 -3.96105 0
M  V30 5971 H 543.143 -1.25278 -5.34412 0
M  V30 5972 H 543.404 0.215372 -4.41575 0
M  V30 5973 N 542.463 1.3308 -0.844243 0
M  V30 5974 C 543.691 2.01808 -0.456203 0
M  V30 5975 C 544.106 1.63498 0.944131 0
M  V30 5976 O 543.463 0.85102 1.61443 0
M  V30 5977 C 543.514 3.56922 -0.573513 0
M  V30 5978 O 543.235 3.93851 -1.91868 0
M  V30 5979 C 544.736 4.42922 -0.183125 0
M  V30 5980 H 541.956 0.646273 -0.180477 0
M  V30 5981 H 544.5 1.69891 -1.1383 0
M  V30 5982 H 542.655 3.87352 0.0607367 0
M  V30 5983 H 543.069 4.88564 -1.90802 0
M  V30 5984 H 544.543 5.51093 -0.316241 0
M  V30 5985 H 545.02 4.30386 0.875477 0
M  V30 5986 H 545.626 4.1786 -0.792027 0
M  V30 5987 N 543.941 0.601185 1.45683 0
M  V30 5988 C 544.888 -0.121396 2.30481 0
M  V30 5989 C 545.858 -0.866232 1.41724 0
M  V30 5990 O 547.043 -0.85324 1.70659 0
M  V30 5991 C 544.183 -1.11704 3.26521 0
M  V30 5992 C 543.296 -0.373741 4.3038 0
M  V30 5993 C 542.431 -1.35854 5.13534 0
M  V30 5994 C 541.47 -0.602689 6.09126 0
M  V30 5995 N 540.607 -1.53645 6.85082 0
M  V30 5996 H 545.447 0.607732 2.91737 0
M  V30 5997 H 542.984 0.311502 1.43764 0
M  V30 5998 H 544.942 -1.70735 3.80664 0
M  V30 5999 H 543.572 -1.81366 2.67032 0
M  V30 6000 H 542.624 0.331962 3.78949 0
M  V30 6001 H 543.936 0.2163 4.98331 0
M  V30 6002 H 543.09 -2.02111 5.72046 0
M  V30 6003 H 541.829 -1.98251 4.45587 0
M  V30 6004 H 540.834 0.0735482 5.49751 0
M  V30 6005 H 542.059 0.0161467 6.79098 0
M  V30 6006 H 540.005 -2.14819 6.1983 0
M  V30 6007 H 539.922 -0.999688 7.49361 0
M  V30 6008 H 541.19 -2.1888 7.48139 0
M  V30 6009 N 545.419 -1.53889 0.339982 0
M  V30 6010 C 546.83 -1.86139 -0.144671 0
M  V30 6011 C 547.181 -1.2613 -1.50285 0
M  V30 6012 O 546.306 -0.573515 -2.08662 0
M  V30 6013 C 546.901 -3.37728 -0.269285 0
M  V30 6014 C 545.46 -3.69868 -0.698168 0
M  V30 6015 C 544.607 -2.76777 0.170249 0
M  V30 6016 H 547.558 -1.48503 0.559704 0
M  V30 6017 H 547.579 -3.64331 -1.0974 0
M  V30 6018 H 547.091 -3.81375 0.719366 0
M  V30 6019 H 545.192 -3.31764 -1.69597 0
M  V30 6020 H 545.305 -4.76582 -0.490533 0
M  V30 6021 H 543.669 -2.52188 -0.356844 0
M  V30 6022 H 544.452 -3.23253 1.15597 0
M  V30 6023 N 546.897 -0.0685191 -1.57451 0
M  V30 6024 C 547.807 0.914677 -2.16034 0
M  V30 6025 C 548.823 1.32938 -1.12265 0
M  V30 6026 O 549.999 1.40275 -1.44516 0
M  V30 6027 C 547.064 2.16519 -2.70777 0
M  V30 6028 C 546.125 1.80721 -3.89408 0
M  V30 6029 C 545.358 2.9981 -4.41531 0
M  V30 6030 O 545.581 4.13727 -3.92666 0
M  V30 6031 O 544.515 2.79817 -5.32903 0
M  V30 6032 H 548.341 0.446364 -3.00402 0
M  V30 6033 H 545.926 0.154367 -1.486 0
M  V30 6034 H 547.808 2.89856 -3.05878 0
M  V30 6035 H 546.483 2.62454 -1.89471 0
M  V30 6036 H 545.39 1.04646 -3.59166 0
M  V30 6037 H 546.723 1.39571 -4.71997 0
M  V30 6038 N 548.375 1.56261 0.205012 0
M  V30 6039 C 549.338 1.92908 1.23771 0
M  V30 6040 C 550.338 0.809208 1.38955 0
M  V30 6041 O 551.528 1.07676 1.36936 0
M  V30 6042 C 548.66 2.19442 2.60879 0
M  V30 6043 H 549.853 2.85287 0.924728 0
M  V30 6044 H 547.406 1.49798 0.446125 0
M  V30 6045 H 548.141 1.29668 2.97248 0
M  V30 6046 H 547.926 3.0104 2.51232 0
M  V30 6047 H 549.416 2.48833 3.35368 0
M  V30 6048 N 549.853 -0.472356 1.50355 0
M  V30 6049 C 551.081 -1.24784 1.65035 0
M  V30 6050 C 551.496 -1.85837 0.333176 0
M  V30 6051 O 550.853 -1.69168 -0.68472 0
M  V30 6052 C 550.904 -2.35747 2.74054 0
M  V30 6053 O 550.625 -1.77197 4.00665 0
M  V30 6054 C 552.126 -3.26645 2.99696 0
M  V30 6055 H 549.346 -0.377432 0.554785 0
M  V30 6056 H 551.89 -0.563962 1.9657 0
M  V30 6057 H 550.045 -2.99912 2.45217 0
M  V30 6058 H 550.459 -2.5026 4.60945 0
M  V30 6059 H 551.933 -4.00718 3.79644 0
M  V30 6060 H 552.41 -3.8535 2.10718 0
M  V30 6061 H 553.016 -2.68218 3.3006 0
M  V30 6062 N 551.331 -1.39911 -0.725443 0
M  V30 6063 C 552.294 -1.39156 -1.82121 0
M  V30 6064 C 553.294 -0.287018 -1.58218 0
M  V30 6065 O 554.484 -0.545421 -1.65441 0
M  V30 6066 C 551.616 -1.1736 -3.20062 0
M  V30 6067 H 552.809 -2.36672 -1.84191 0
M  V30 6068 H 550.362 -1.25615 -0.930079 0
M  V30 6069 H 551.097 -0.205648 -3.23647 0
M  V30 6070 H 550.882 -1.97358 -3.3881 0
M  V30 6071 H 552.372 -1.19596 -4.00108 0
M  V30 6072 N 552.809 0.956637 -1.25245 0
M  V30 6073 C 554.037 1.73571 -1.12608 0
M  V30 6074 C 554.452 1.86063 0.320324 0
M  V30 6075 O 553.809 1.35691 1.22042 0
M  V30 6076 C 553.86 3.15053 -1.77268 0
M  V30 6077 O 553.581 3.03174 -3.16255 0
M  V30 6078 C 555.082 4.09248 -1.70386 0
M  V30 6079 H 552.302 0.543955 -0.392879 0
M  V30 6080 H 554.846 1.20031 -1.65568 0
M  V30 6081 H 553.001 3.65543 -1.28284 0
M  V30 6082 H 553.415 3.9241 -3.48015 0
M  V30 6083 H 554.889 5.06138 -2.20291 0
M  V30 6084 H 555.366 4.34102 -0.667239 0
M  V30 6085 H 555.972 3.64672 -2.18849 0
M  V30 6086 N 554.287 1.06798 1.15896 0
M  V30 6087 C 555.512 0.808739 1.90982 0
M  V30 6088 C 555.937 -0.6316 1.77179 0
M  V30 6089 O 555.295 -1.4407 1.10061 0
M  V30 6090 C 555.343 1.21468 3.39526 0
M  V30 6091 O 554.447 0.356562 4.10856 0
M  V30 6092 H 553.788 0.29512 0.594811 0
M  V30 6093 H 556.318 1.42513 1.46804 0
M  V30 6094 H 556.328 1.18844 3.90308 0
M  V30 6095 H 555.003 2.26379 3.48891 0
M  V30 6096 H 553.58 0.444808 3.70238 0
M  V30 6097 N 555.766 -1.3263 0.851289 0
M  V30 6098 C 556.994 -2.01563 0.466899 0
M  V30 6099 C 557.409 -1.63996 -0.935447 0
M  V30 6100 O 556.766 -0.85957 -1.6099 0
M  V30 6101 C 556.817 -3.56613 0.592433 0
M  V30 6102 O 556.538 -3.92828 1.93954 0
M  V30 6103 C 558.039 -4.42818 0.206612 0
M  V30 6104 H 555.259 -0.645307 0.183902 0
M  V30 6105 H 557.803 -1.69285 1.1473 0
M  V30 6106 H 555.958 -3.87379 -0.0401936 0
M  V30 6107 H 556.372 -4.87545 1.9339 0
M  V30 6108 H 557.846 -5.50918 0.345462 0
M  V30 6109 H 558.323 -4.30844 -0.85264 0
M  V30 6110 H 558.929 -4.17434 0.814176 0
M  V30 6111 N 557.244 -0.608902 -1.45362 0
M  V30 6112 C 558.469 -0.10921 -2.07112 0
M  V30 6113 C 558.894 1.19779 -1.45033 0
M  V30 6114 O 558.252 1.72961 -0.543527 0
M  V30 6115 C 558.3 0.0155745 -3.60597 0
M  V30 6116 O 557.404 1.06546 -3.98399 0
M  V30 6117 H 556.745 -0.0746619 -0.659789 0
M  V30 6118 H 559.275 -0.839283 -1.86594 0
M  V30 6119 H 559.285 0.213364 -4.07442 0
M  V30 6120 H 557.96 -0.938765 -4.05167 0
M  V30 6121 H 556.537 0.844024 -3.63223 0
M  V30 6122 N 558.722 1.53707 -0.348139 0
M  V30 6123 C 560.133 1.86213 0.134797 0
M  V30 6124 C 560.484 1.26925 1.49614 0
M  V30 6125 O 559.609 0.584573 2.08355 0
M  V30 6126 C 560.204 3.37866 0.251371 0
M  V30 6127 C 558.763 3.70233 0.678543 0
M  V30 6128 C 557.91 2.76683 -0.184925 0
M  V30 6129 H 560.861 1.48204 -0.567571 0
M  V30 6130 H 560.882 3.64908 1.07806 0
M  V30 6131 H 560.394 3.80988 -0.739581 0
M  V30 6132 H 558.495 3.32659 1.67835 0
M  V30 6133 H 558.608 4.76836 0.465251 0
M  V30 6134 H 556.972 2.52374 0.343465 0
M  V30 6135 H 557.755 3.22635 -1.1731 0
M  V30 6136 N 560.2 0.0768682 1.57412 0
M  V30 6137 C 561.425 -0.603404 1.98428 0
M  V30 6138 C 561.85 -1.62047 0.955108 0
M  V30 6139 O 561.208 -1.81129 -0.0786778 0
M  V30 6140 C 561.256 -1.24396 3.38464 0
M  V30 6141 O 560.36 -2.35982 3.3821 0
M  V30 6142 H 559.701 -0.154741 0.645718 0
M  V30 6143 H 562.231 0.152885 2.04028 0
M  V30 6144 H 562.241 -1.5896 3.7576 0
M  V30 6145 H 560.916 -0.498735 4.12899 0
M  V30 6146 H 559.493 -2.03173 3.1269 0
M  V30 6147 N 561.678 -1.56367 -0.196722 0
M  V30 6148 C 562.626 -1.95304 -1.2633 0
M  V30 6149 C 563.62 -0.838252 -1.47206 0
M  V30 6150 O 564.826 -1.02325 -1.48087 0
M  V30 6151 H 561.201 -0.621013 -0.424083 0
M  V30 6152 H 563.172 -2.84254 -0.907879 0
M  V30 6153 C 561.921 -2.3074 -2.60104 0
M  V30 6154 H 561.244 -3.16047 -2.44856 0
M  V30 6155 H 562.684 -2.61849 -3.33484 0
M  V30 6156 C 561.143 -1.14143 -3.16975 0
M  V30 6157 O 561.673 -0.415602 -3.99544 0
M  V30 6158 N 559.879 -0.91867 -2.75697 0
M  V30 6159 H 559.426 -1.51065 -2.08656 0
M  V30 6160 H 559.384 -0.140321 -3.14087 0
M  V30 6161 N 563.156 0.464375 -1.50603 0
M  V30 6162 C 564.403 1.21596 -1.61928 0
M  V30 6163 C 564.731 1.91804 -0.322737 0
M  V30 6164 O 563.986 1.83065 0.691776 0
M  V30 6165 C 564.285 2.278 -2.75394 0
M  V30 6166 C 563.951 1.74797 -4.1564 0
M  V30 6167 C 562.613 1.60063 -4.53799 0
M  V30 6168 C 564.965 1.35548 -5.03266 0
M  V30 6169 C 562.293 1.04514 -5.77316 0
M  V30 6170 C 564.645 0.814381 -6.27336 0
M  V30 6171 C 563.309 0.653726 -6.64291 0
M  V30 6172 H 562.579 0.444951 -0.592536 0
M  V30 6173 H 565.226 0.510964 -1.84557 0
M  V30 6174 H 563.531 3.04233 -2.46879 0
M  V30 6175 H 565.228 2.85723 -2.81359 0
M  V30 6176 H 561.818 1.87234 -3.8554 0
M  V30 6177 H 566.002 1.45763 -4.74412 0
M  V30 6178 H 561.258 0.908186 -6.04617 0
M  V30 6179 H 565.432 0.501626 -6.94591 0
M  V30 6180 H 563.059 0.22114 -7.59878 0
M  V30 6181 N 564.634 1.40294 0.718013 0
M  V30 6182 C 565.864 1.41544 1.50495 0
M  V30 6183 C 566.272 0.0127877 1.89196 0
M  V30 6184 O 565.615 -0.97305 1.55812 0
M  V30 6185 C 565.677 2.24021 2.81167 0
M  V30 6186 C 565.341 3.72463 2.64803 0
M  V30 6187 C 566.338 4.65154 2.32223 0
M  V30 6188 C 564.023 4.1625 2.81143 0
M  V30 6189 C 566.017 5.99618 2.16189 0
M  V30 6190 C 563.704 5.50784 2.64727 0
M  V30 6191 C 564.702 6.42283 2.32297 0
M  V30 6192 O 564.39 7.74337 2.16004 0
M  V30 6193 H 564.122 0.484819 0.471091 0
M  V30 6194 H 566.676 1.84948 0.893488 0
M  V30 6195 H 564.906 1.75393 3.44636 0
M  V30 6196 H 566.595 2.17243 3.42871 0
M  V30 6197 H 567.361 4.32622 2.19234 0
M  V30 6198 H 563.24 3.45352 3.05373 0
M  V30 6199 H 566.784 6.71 1.90799 0
M  V30 6200 H 562.681 5.82902 2.773 0
M  V30 6201 H 563.449 7.85244 2.30942 0
M  V30 6202 N 566.112 -0.949982 1.2575 0
M  V30 6203 C 567.36 -1.6918 1.10555 0
M  V30 6204 C 567.681 -1.91773 -0.353298 0
M  V30 6205 O 566.951 -1.50814 -1.25027 0
M  V30 6206 H 565.531 -0.626952 0.406129 0
M  V30 6207 H 568.193 -1.1419 1.57945 0
M  V30 6208 H 567.289 -2.66915 1.61749 0
M  V30 6209 N 567.59 -1.07411 -1.15328 0
M  V30 6210 C 568.538 -0.689316 -2.22151 0
M  V30 6211 C 569.532 0.300156 -1.6672 0
M  V30 6212 O 570.738 0.163804 -1.79253 0
M  V30 6213 H 567.113 -0.204834 -0.723566 0
M  V30 6214 H 569.084 -1.59988 -2.51886 0
M  V30 6215 C 567.833 -0.103848 -3.47545 0
M  V30 6216 H 567.156 -0.856367 -3.90521 0
M  V30 6217 H 568.596 0.127725 -4.23808 0
M  V30 6218 C 567.055 1.15563 -3.1646 0
M  V30 6219 O 567.585 2.242 -3.33312 0
M  V30 6220 N 565.791 1.06203 -2.70498 0
M  V30 6221 H 565.338 0.177933 -2.56985 0
M  V30 6222 H 565.296 1.90553 -2.50074 0
M  V30 6223 N 569.068 1.32177 -0.85831 0
M  V30 6224 C 570.293 2.01847 -0.476718 0
M  V30 6225 C 570.718 1.64065 0.920021 0
M  V30 6226 O 570.076 0.843189 1.60499 0
M  V30 6227 C 570.124 3.55097 -0.627578 0
M  V30 6228 O 569.228 4.11012 0.338086 0
M  V30 6229 H 568.569 0.635907 -0.191099 0
M  V30 6230 H 571.099 1.68641 -1.15851 0
M  V30 6231 H 571.109 4.04718 -0.516476 0
M  V30 6232 H 569.784 3.81938 -1.64609 0
M  V30 6233 H 568.361 3.72451 0.182917 0
M  V30 6234 N 570.547 0.616602 1.45037 0
M  V30 6235 C 571.48 -0.145984 2.27733 0
M  V30 6236 C 572.458 -0.865108 1.37676 0
M  V30 6237 O 573.642 -0.872152 1.6711 0
M  V30 6238 C 570.769 -1.2122 3.16265 0
M  V30 6239 C 569.815 -0.595218 4.22326 0
M  V30 6240 S 570.648 0.603744 5.32086 0
M  V30 6241 C 571.804 -0.462842 6.24186 0
M  V30 6242 H 572.037 0.555591 2.92062 0
M  V30 6243 H 569.57 0.404364 1.49011 0
M  V30 6244 H 571.528 -1.82247 3.67827 0
M  V30 6245 H 570.189 -1.88589 2.51183 0
M  V30 6246 H 569.382 -1.39775 4.8423 0
M  V30 6247 H 568.984 -0.0598965 3.73952 0
M  V30 6248 H 571.276 -1.33945 6.64127 0
M  V30 6249 H 572.219 0.120259 7.07998 0
M  V30 6250 H 572.627 -0.782219 5.59054 0
M  V30 6251 N 572.025 -1.5352 0.356285 0
M  V30 6252 C 573.255 -2.05236 -0.236983 0
M  V30 6253 C 573.663 -1.23016 -1.43749 0
M  V30 6254 O 573.006 -0.2615 -1.81829 0
M  V30 6255 C 573.068 -3.52549 -0.7035 0
M  V30 6256 C 572.732 -4.55425 0.379059 0
M  V30 6257 C 573.729 -5.0524 1.22592 0
M  V30 6258 C 571.414 -4.99425 0.536638 0
M  V30 6259 C 573.408 -5.97647 2.21578 0
M  V30 6260 C 571.095 -5.9164 1.52988 0
M  V30 6261 C 572.093 -6.4064 2.3679 0
M  V30 6262 O 571.781 -7.31039 3.34421 0
M  V30 6263 H 571.513 -0.674346 -0.047254 0
M  V30 6264 H 574.067 -1.98962 0.510238 0
M  V30 6265 H 572.297 -3.56331 -1.50217 0
M  V30 6266 H 573.986 -3.87171 -1.21873 0
M  V30 6267 H 574.752 -4.72002 1.11532 0
M  V30 6268 H 570.631 -4.60879 -0.105834 0
M  V30 6269 H 574.175 -6.35816 2.87025 0
M  V30 6270 H 570.072 -6.24293 1.64099 0
M  V30 6271 H 570.84 -7.49009 3.30041 0
M  V30 6272 N 573.503 -0.0852151 -1.57369 0
M  V30 6273 C 574.75 0.580806 -1.93992 0
M  V30 6274 C 575.078 1.68801 -0.966252 0
M  V30 6275 O 574.333 1.95694 0.0158649 0
M  V30 6276 C 574.632 1.18482 -3.3719 0
M  V30 6277 C 574.298 0.2024 -4.50446 0
M  V30 6278 C 572.96 -0.0678318 -4.81152 0
M  V30 6279 C 575.312 -0.46895 -5.19086 0
M  V30 6280 C 572.64 -1.01627 -5.77831 0
M  V30 6281 C 574.992 -1.4058 -6.16782 0
M  V30 6282 C 573.656 -1.68436 -6.45899 0
M  V30 6283 H 572.926 0.212532 -0.709867 0
M  V30 6284 H 575.573 -0.158947 -1.90839 0
M  V30 6285 H 573.878 2.0006 -3.36873 0
M  V30 6286 H 575.575 1.70767 -3.62822 0
M  V30 6287 H 572.165 0.423208 -4.26505 0
M  V30 6288 H 576.349 -0.273307 -4.95547 0
M  V30 6289 H 571.605 -1.2392 -5.9871 0
M  V30 6290 H 575.779 -1.93188 -6.69068 0
M  V30 6291 H 573.406 -2.42088 -7.20623 0
M  V30 6292 N 574.981 1.5647 0.188427 0
M  V30 6293 C 576.227 1.81281 0.909124 0
M  V30 6294 C 576.56 0.66034 1.82628 0
M  V30 6295 O 575.835 -0.338737 1.91528 0
M  V30 6296 C 576.118 3.16388 1.7196 0
M  V30 6297 C 575.971 4.42137 0.826714 0
M  V30 6298 C 577.29 3.48256 2.69083 0
M  V30 6299 H 574.409 0.659457 0.329068 0
M  V30 6300 H 577.051 1.89182 0.176156 0
M  V30 6301 H 575.201 3.09784 2.34448 0
M  V30 6302 H 576.873 4.60794 0.216025 0
M  V30 6303 H 575.116 4.33594 0.133792 0
M  V30 6304 H 575.787 5.33184 1.42893 0
M  V30 6305 H 578.263 3.55203 2.16726 0
M  V30 6306 H 577.139 4.43899 3.2287 0
M  V30 6307 H 577.4 2.72088 3.48455 0
M  V30 6308 N 576.459 -0.456382 1.50847 0
M  V30 6309 C 577.407 -1.57318 1.71329 0
M  V30 6310 C 578.401 -1.59187 0.579287 0
M  V30 6311 O 579.607 -1.6316 0.76018 0
M  V30 6312 H 575.982 -0.5223 0.541024 0
M  V30 6313 H 577.953 -1.3721 2.64983 0
M  V30 6314 C 576.702 -2.95142 1.83811 0
M  V30 6315 H 576.025 -2.94428 2.70467 0
M  V30 6316 H 577.465 -3.72702 2.02161 0
M  V30 6317 C 575.924 -3.31636 0.593224 0
M  V30 6318 O 576.454 -4.00852 -0.260898 0
M  V30 6319 N 574.66 -2.87205 0.442902 0
M  V30 6320 H 574.207 -2.31051 1.13901 0
M  V30 6321 H 574.165 -3.11986 -0.38884 0
M  V30 6322 N 577.937 -1.40673 -0.710563 0
M  V30 6323 C 579.348 -1.34975 -1.28991 0
M  V30 6324 C 579.699 -0.0256272 -1.96183 0
M  V30 6325 O 578.824 0.876339 -1.97862 0
M  V30 6326 C 579.419 -2.44467 -2.34567 0
M  V30 6327 C 577.978 -2.42213 -2.88114 0
M  V30 6328 C 577.125 -2.25085 -1.61963 0
M  V30 6329 H 580.076 -1.50406 -0.506343 0
M  V30 6330 H 580.097 -2.12663 -3.15523 0
M  V30 6331 H 579.609 -3.40825 -1.85634 0
M  V30 6332 H 577.71 -1.49568 -3.41263 0
M  V30 6333 H 577.823 -3.37983 -3.39565 0
M  V30 6334 H 576.187 -1.72691 -1.87216 0
M  V30 6335 H 576.97 -3.23449 -1.15047 0
M  V30 6336 N 579.415 0.9433 -1.26252 0
M  V30 6337 C 580.378 2.02326 -1.07689 0
M  V30 6338 C 581.378 1.60779 -0.0259174 0
M  V30 6339 O 582.568 1.72108 -0.269134 0
M  V30 6340 C 579.7 3.34886 -0.63752 0
M  V30 6341 H 580.893 2.20225 -2.0357 0
M  V30 6342 H 578.446 1.12197 -1.08819 0
M  V30 6343 H 579.181 3.22684 0.323377 0
M  V30 6344 H 578.966 3.66393 -1.39637 0
M  V30 6345 H 580.456 4.14231 -0.529418 0
M  V30 6346 N 580.893 1.08022 1.14757 0
M  V30 6347 C 582.118 0.82895 1.90114 0
M  V30 6348 C 582.543 -0.612772 1.77839 0
M  V30 6349 O 581.901 -1.42895 1.11583 0
M  V30 6350 C 581.949 1.25062 3.38219 0
M  V30 6351 O 581.053 0.400119 4.10454 0
M  V30 6352 H 580.394 0.301412 0.591648 0
M  V30 6353 H 582.924 1.44062 1.45284 0
M  V30 6354 H 582.934 1.22977 3.89025 0
M  V30 6355 H 581.609 2.30067 3.46471 0
M  V30 6356 H 580.186 0.484052 3.69745 0
M  V30 6357 N 582.371 -1.3172 0.865308 0
M  V30 6358 C 583.334 -2.26918 0.322627 0
M  V30 6359 C 584.334 -1.52031 -0.523751 0
M  V30 6360 O 585.524 -1.70973 -0.333727 0
M  V30 6361 C 582.656 -3.36558 -0.542338 0
M  V30 6362 H 583.849 -2.76432 1.16298 0
M  V30 6363 H 581.402 -1.42573 0.640512 0
M  V30 6364 H 582.137 -2.92329 -1.40407 0
M  V30 6365 H 581.922 -3.92048 0.0636395 0
M  V30 6366 H 583.412 -4.07465 -0.91446 0
M  V30 6367 N 583.85 -0.624285 -1.44708 0
M  V30 6368 C 584.812 0.0749638 -2.29077 0
M  V30 6369 C 585.812 0.778965 -1.40673 0
M  V30 6370 O 587.003 0.624591 -1.62618 0
M  V30 6371 C 584.135 1.11663 -3.22094 0
M  V30 6372 H 585.327 -0.667013 -2.92388 0
M  V30 6373 H 582.88 -0.384098 -1.51507 0
M  V30 6374 H 583.615 1.88881 -2.63618 0
M  V30 6375 H 583.401 0.61583 -3.87234 0
M  V30 6376 H 584.891 1.60585 -3.8549 0
M  V30 6377 N 585.328 1.53329 -0.364422 0
M  V30 6378 C 586.553 2.06132 0.229033 0
M  V30 6379 C 586.978 1.23625 1.41769 0
M  V30 6380 O 586.336 0.255038 1.79497 0
M  V30 6381 C 586.384 3.55544 0.60174 0
M  V30 6382 O 585.488 3.75771 1.69912 0
M  V30 6383 H 584.829 0.663148 0.0336213 0
M  V30 6384 H 587.359 1.97758 -0.524689 0
M  V30 6385 H 587.369 3.98549 0.873073 0
M  V30 6386 H 586.044 4.15039 -0.267421 0
M  V30 6387 H 584.621 3.44663 1.42343 0
M  V30 6388 N 586.806 0.0935595 1.57322 0
M  V30 6389 C 587.753 -0.865935 2.1394 0
M  V30 6390 C 588.723 -1.28083 1.05754 0
M  V30 6391 O 589.908 -1.36285 1.33533 0
M  V30 6392 C 587.048 -2.12023 2.72287 0
M  V30 6393 C 586.161 -1.756 3.94701 0
M  V30 6394 C 585.296 -2.95804 4.41218 0
M  V30 6395 C 584.335 -2.555 5.56225 0
M  V30 6396 N 583.472 -3.68534 5.97601 0
M  V30 6397 H 588.312 -0.376261 2.95615 0
M  V30 6398 H 585.849 -0.174052 1.46067 0
M  V30 6399 H 587.807 -2.85477 3.04235 0
M  V30 6400 H 586.437 -2.58492 1.93343 0
M  V30 6401 H 585.489 -0.921208 3.69077 0
M  V30 6402 H 586.801 -1.41964 4.78171 0
M  V30 6403 H 585.955 -3.77513 4.74941 0
M  V30 6404 H 584.694 -3.32649 3.56645 0
M  V30 6405 H 583.699 -1.72218 5.22131 0
M  V30 6406 H 584.924 -2.19801 6.42545 0
M  V30 6407 H 582.87 -4.051 5.15974 0
M  V30 6408 H 582.787 -3.38737 6.75865 0
M  V30 6409 H 584.055 -4.50757 6.35955 0
M  V30 6410 N 588.284 -1.56567 -0.180126 0
M  V30 6411 C 589.509 -1.85975 -0.918041 0
M  V30 6412 C 589.934 -0.678888 -1.75422 0
M  V30 6413 O 589.292 0.372168 -1.77439 0
M  V30 6414 C 589.34 -3.13731 -1.77779 0
M  V30 6415 O 588.444 -2.95335 -2.87838 0
M  V30 6416 H 587.785 -0.61196 -0.257683 0
M  V30 6417 H 590.315 -2.03798 -0.180923 0
M  V30 6418 H 590.325 -3.4491 -2.17948 0
M  V30 6419 H 589 -3.99293 -1.16352 0
M  V30 6420 H 587.577 -2.7549 -2.51316 0
M  V30 6421 N 589.762 0.448376 -1.51087 0
M  V30 6422 C 591.173 1.0286 -1.5581 0
M  V30 6423 C 591.524 1.92583 -0.374989 0
M  V30 6424 O 590.649 2.10316 0.509533 0
M  V30 6425 C 591.244 1.87223 -2.8237 0
M  V30 6426 C 589.803 2.40314 -2.897 0
M  V30 6427 C 588.95 1.19238 -2.50355 0
M  V30 6428 H 591.901 0.230075 -1.57023 0
M  V30 6429 H 591.922 2.72553 -2.6551 0
M  V30 6430 H 591.434 1.21894 -3.68461 0
M  V30 6431 H 589.535 3.09129 -2.08014 0
M  V30 6432 H 589.648 2.73866 -3.93108 0
M  V30 6433 H 588.012 1.53428 -2.03303 0
M  V30 6434 H 588.795 0.555367 -3.38778 0
M  V30 6435 N 591.24 1.41047 0.703093 0
M  V30 6436 C 592.203 1.42036 1.79884 0
M  V30 6437 C 593.203 0.312153 1.57741 0
M  V30 6438 O 594.393 0.571672 1.64553 0
M  V30 6439 C 591.525 1.22437 3.18154 0
M  V30 6440 H 592.718 2.39572 1.80403 0
M  V30 6441 H 590.271 1.27079 0.909977 0
M  V30 6442 H 591.006 0.257112 3.23279 0
M  V30 6443 H 590.791 2.02723 3.35627 0
M  V30 6444 H 592.281 1.25946 3.98155 0
M  V30 6445 N 592.718 -0.936591 1.26751 0
M  V30 6446 C 593.966 -1.67998 1.12343 0
M  V30 6447 C 594.287 -1.92137 -0.332938 0
M  V30 6448 O 593.557 -1.52132 -1.23421 0
M  V30 6449 H 592.137 -0.622609 0.412756 0
M  V30 6450 H 594.799 -1.12509 1.59147 0
M  V30 6451 H 593.895 -2.65185 1.64571 0
M  V30 6452 N 594.196 -1.08629 -1.14182 0
M  V30 6453 C 595.421 -0.83902 -1.89671 0
M  V30 6454 C 595.846 0.603332 -1.78161 0
M  V30 6455 O 595.204 1.42301 -1.12339 0
M  V30 6456 C 595.252 -1.26854 -3.37551 0
M  V30 6457 O 594.356 -0.42188 -4.10236 0
M  V30 6458 H 593.697 -0.304545 -0.590041 0
M  V30 6459 H 596.227 -1.4483 -1.44518 0
M  V30 6460 H 596.237 -1.25038 -3.88368 0
M  V30 6461 H 594.912 -2.31901 -3.45246 0
M  V30 6462 H 593.489 -0.503654 -3.69483 0
M  V30 6463 N 595.674 1.31259 -0.872281 0
M  V30 6464 C 596.902 2.00795 -0.498907 0
M  V30 6465 C 597.317 1.65464 0.909238 0
M  V30 6466 O 596.674 0.885073 1.59602 0
M  V30 6467 C 596.725 3.55625 -0.649092 0
M  V30 6468 O 596.446 3.89692 -2.00179 0
M  V30 6469 C 597.947 4.42434 -0.277034 0
M  V30 6470 H 595.167 0.642299 -0.194145 0
M  V30 6471 H 597.711 1.67438 -1.17408 0
M  V30 6472 H 595.866 3.87394 -0.0214402 0
M  V30 6473 H 596.28 4.84407 -2.01122 0
M  V30 6474 H 597.754 5.50299 -0.433064 0
M  V30 6475 H 598.231 4.32146 0.783989 0
M  V30 6476 H 598.837 4.16086 -0.880483 0
M  V30 6477 N 597.152 0.631951 1.44375 0
M  V30 6478 C 598.563 0.219036 1.85411 0
M  V30 6479 C 598.914 -1.22974 1.52879 0
M  V30 6480 O 598.039 -1.93579 0.967266 0
M  V30 6481 C 598.634 0.39075 3.36539 0
M  V30 6482 C 597.193 0.0323351 3.76386 0
M  V30 6483 C 596.34 0.703744 2.68221 0
M  V30 6484 H 599.291 0.837056 1.3483 0
M  V30 6485 H 599.312 -0.370056 3.78696 0
M  V30 6486 H 598.824 1.44527 3.60185 0
M  V30 6487 H 596.925 -1.02042 3.58355 0
M  V30 6488 H 597.038 0.442969 4.77048 0
M  V30 6489 H 595.402 0.138974 2.54321 0
M  V30 6490 H 596.185 1.76088 2.947 0
M  V30 6491 N 598.631 -1.53133 0.372548 0
M  V30 6492 C 599.877 -2.01654 -0.215277 0
M  V30 6493 C 600.21 -1.25914 -1.47849 0
M  V30 6494 O 599.485 -0.3548 -1.91237 0
M  V30 6495 C 599.768 -3.56609 -0.500187 0
M  V30 6496 C 599.621 -4.43036 0.777145 0
M  V30 6497 C 600.94 -4.20528 -1.29786 0
M  V30 6498 H 598.059 -0.732991 -0.0767686 0
M  V30 6499 H 600.701 -1.83335 0.498814 0
M  V30 6500 H 598.851 -3.7235 -1.10852 0
M  V30 6501 H 600.523 -4.39079 1.41447 0
M  V30 6502 H 598.766 -4.10723 1.39604 0
M  V30 6503 H 599.437 -5.49424 0.532662 0
M  V30 6504 H 601.913 -4.08663 -0.783198 0
M  V30 6505 H 600.789 -5.28962 -1.46596 0
M  V30 6506 H 601.05 -3.77051 -2.30836 0
M  V30 6507 N 600.109 -0.101901 -1.5727 0
M  V30 6508 C 601.072 0.840129 -2.13247 0
M  V30 6509 C 602.072 1.20625 -1.06331 0
M  V30 6510 O 603.262 1.13456 -1.32186 0
M  V30 6511 C 600.394 2.13372 -2.65867 0
M  V30 6512 H 601.587 0.353945 -2.97804 0
M  V30 6513 H 599.14 0.147167 -1.55606 0
M  V30 6514 H 599.875 2.66461 -1.84849 0
M  V30 6515 H 599.66 1.88085 -3.44044 0
M  V30 6516 H 601.15 2.80748 -3.09145 0
M  V30 6517 N 601.587 1.56661 0.17182 0
M  V30 6518 C 602.836 1.81158 0.886831 0
M  V30 6519 C 603.149 0.679072 1.83434 0
M  V30 6520 O 604.355 0.808964 2.59168 0
M  V30 6521 C 602.811 3.20999 1.6275 0
M  V30 6522 C 602.419 4.42117 0.723652 0
M  V30 6523 C 604.163 3.5479 2.33076 0
M  V30 6524 C 602.07 5.7298 1.46452 0
M  V30 6525 H 601 0.675543 0.334899 0
M  V30 6526 H 603.651 1.82967 0.139765 0
M  V30 6527 H 602.033 3.13506 2.4193 0
M  V30 6528 H 603.207 4.60789 -0.0311485 0
M  V30 6529 H 601.522 4.16197 0.130063 0
M  V30 6530 H 604.119 4.49806 2.89099 0
M  V30 6531 H 604.462 2.79646 3.08389 0
M  V30 6532 H 604.995 3.63834 1.6084 0
M  V30 6533 H 601.734 6.51152 0.753729 0
M  V30 6534 H 601.254 5.58285 2.19266 0
M  V30 6535 H 602.933 6.14916 2.01214 0
M  V30 6536 N 603.065 -0.440357 1.51323 0
M  V30 6537 C 604.476 -1.02032 1.56353 0
M  V30 6538 C 604.827 -1.92382 0.385197 0
M  V30 6539 O 603.952 -2.10583 -0.498373 0
M  V30 6540 C 604.547 -1.85723 2.83359 0
M  V30 6541 C 603.106 -2.38774 2.90971 0
M  V30 6542 C 602.253 -1.17908 2.50984 0
M  V30 6543 H 605.204 -0.221744 1.57143 0
M  V30 6544 H 605.225 -2.71141 2.66951 0
M  V30 6545 H 604.737 -1.19939 3.69102 0
M  V30 6546 H 602.838 -3.08021 2.09651 0
M  V30 6547 H 602.951 -2.71778 3.94555 0
M  V30 6548 H 601.315 -1.52347 2.04114 0
M  V30 6549 H 602.098 -0.537393 3.39068 0
M  V30 6550 N 604.543 -1.41418 -0.695603 0
M  V30 6551 C 605.959 -1.23887 -1.00619 0
M  V30 6552 C 606.159 -0.128206 -2.01092 0
M  V30 6553 O 605.215 0.507408 -2.47349 0
M  V30 6554 C 606.528 -2.58816 -1.53083 0
M  V30 6555 C 608.076 -2.65998 -1.64967 0
M  V30 6556 C 608.551 -4.01244 -2.20833 0
M  V30 6557 N 610.042 -4.0309 -2.28194 0
M  V30 6558 C 610.777 -5.04539 -2.72448 0
M  V30 6559 N 610.273 -6.16378 -3.16306 0
M  V30 6560 N 612.066 -4.91901 -2.72011 0
M  V30 6561 H 604.217 -2.12379 -0.0300061 0
M  V30 6562 H 606.48 -0.944958 -0.0758797 0
M  V30 6563 H 606.186 -3.40842 -0.867147 0
M  V30 6564 H 606.06 -2.81299 -2.51298 0
M  V30 6565 H 608.447 -1.84331 -2.30448 0
M  V30 6566 H 608.528 -2.47325 -0.652982 0
M  V30 6567 H 608.172 -4.83359 -1.55968 0
M  V30 6568 H 608.102 -4.17257 -3.21254 0
M  V30 6569 H 610.593 -3.22341 -1.97242 0
M  V30 6570 H 610.906 -6.89658 -3.487 0
M  V30 6571 H 609.251 -6.19914 -3.14215 0
M  V30 6572 H 612.442 -4.03613 -2.37095 0
M  V30 6573 H 612.615 -5.71102 -3.06181 0
M  V30 6574 N 606.021 0.929856 -1.27246 0
M  V30 6575 C 607.298 1.65544 -1.04186 0
M  V30 6576 C 607.678 2.06796 0.424097 0
M  V30 6577 O 607.026 1.80053 1.40688 0
M  V30 6578 C 607.236 2.85912 -2.00138 0
M  V30 6579 C 608.584 3.57305 -2.29387 0
M  V30 6580 O 609.608 2.96036 -1.98094 0
M  V30 6581 O 608.467 4.67688 -2.82719 0
M  V30 6582 H 605.561 0.725473 -0.397011 0
M  V30 6583 H 608.107 0.980583 -1.38501 0
M  V30 6584 H 606.879 2.52403 -2.99013 0
M  V30 6585 H 606.502 3.61118 -1.66371 0
M  V30 6586 N 607.499 1.09233 1.13605 0
M  V30 6587 C 608.746 0.827159 1.84836 0
M  V30 6588 C 609.074 -0.647199 1.83416 0
M  V30 6589 O 608.329 -1.49228 1.26608 0
M  V30 6590 C 608.628 1.305 3.32723 0
M  V30 6591 C 608.294 2.78864 3.54325 0
M  V30 6592 C 606.956 3.19382 3.59928 0
M  V30 6593 C 609.308 3.74532 3.62457 0
M  V30 6594 C 606.636 4.54346 3.71196 0
M  V30 6595 C 608.988 5.09283 3.75252 0
M  V30 6596 C 607.652 5.49394 3.79108 0
M  V30 6597 H 606.922 0.302679 0.676363 0
M  V30 6598 H 609.569 1.36676 1.34134 0
M  V30 6599 H 607.874 0.68517 3.85762 0
M  V30 6600 H 609.571 1.07648 3.86281 0
M  V30 6601 H 606.161 2.46507 3.50617 0
M  V30 6602 H 610.345 3.44343 3.57409 0
M  V30 6603 H 605.601 4.84864 3.72447 0
M  V30 6604 H 609.775 5.83269 3.80487 0
M  V30 6605 H 607.402 6.5397 3.87591 0
M  V30 6606 N 608.977 -1.30795 0.87923 0
M  V30 6607 C 610.223 -1.97035 0.50487 0
M  V30 6608 C 610.578 -1.68182 -0.934484 0
M  V30 6609 O 609.871 -0.972953 -1.65058 0
M  V30 6610 C 610.065 -3.50287 0.709476 0
M  V30 6611 C 609.894 -3.94035 2.16717 0
M  V30 6612 C 608.664 -4.1992 2.81061 0
M  V30 6613 C 610.862 -4.07288 3.1404 0
M  V30 6614 N 608.844 -4.50088 4.17486 0
M  V30 6615 C 610.215 -4.41273 4.35521 0
M  V30 6616 C 612.27 -3.89696 3.09906 0
M  V30 6617 C 610.973 -4.59501 5.534 0
M  V30 6618 C 612.999 -4.09122 4.27052 0
M  V30 6619 C 612.361 -4.43447 5.47297 0
M  V30 6620 H 608.46 -0.746181 0.233962 0
M  V30 6621 H 611.044 -1.5814 1.13577 0
M  V30 6622 H 609.215 -3.8825 0.108108 0
M  V30 6623 H 610.947 -4.03567 0.302585 0
M  V30 6624 H 607.702 -4.12906 2.3196 0
M  V30 6625 H 608.126 -4.69316 4.87926 0
M  V30 6626 H 612.768 -3.62239 2.18043 0
M  V30 6627 H 610.486 -4.85802 6.45773 0
M  V30 6628 H 614.072 -3.96985 4.25316 0
M  V30 6629 H 612.952 -4.58171 6.36435 0
M  V30 6630 N 610.455 -0.639598 -1.44038 0
M  V30 6631 C 611.385 0.0469443 -2.33453 0
M  V30 6632 C 612.366 0.82609 -1.48694 0
M  V30 6633 O 613.551 0.790285 -1.77393 0
M  V30 6634 C 610.681 1.02338 -3.3188 0
M  V30 6635 C 609.635 0.355284 -4.26523 0
M  V30 6636 C 608.961 1.44221 -5.14883 0
M  V30 6637 C 610.261 -0.743798 -5.16977 0
M  V30 6638 H 611.955 -0.699735 -2.91108 0
M  V30 6639 H 609.501 -0.337946 -1.39978 0
M  V30 6640 H 611.454 1.51247 -3.93322 0
M  V30 6641 H 610.178 1.80105 -2.72451 0
M  V30 6642 H 608.837 -0.113239 -3.66425 0
M  V30 6643 H 608.485 2.21097 -4.51802 0
M  V30 6644 H 608.185 1.00052 -5.79019 0
M  V30 6645 H 609.709 1.93295 -5.79197 0
M  V30 6646 H 611.123 -0.337444 -5.72306 0
M  V30 6647 H 609.52 -1.10914 -5.89761 0
M  V30 6648 H 610.59 -1.60745 -4.57481 0
M  V30 6649 N 611.933 1.52934 -0.380664 0
M  V30 6650 C 613.349 1.59571 -0.0302429 0
M  V30 6651 C 613.549 1.39509 1.45394 0
M  V30 6652 O 612.605 1.20777 2.21741 0
M  V30 6653 C 613.918 2.96519 -0.499691 0
M  V30 6654 C 615.466 3.09672 -0.455204 0
M  V30 6655 C 615.941 4.49056 -0.900703 0
M  V30 6656 N 617.432 4.55215 -0.856367 0
M  V30 6657 C 618.167 5.61282 -1.17259 0
M  V30 6658 N 617.663 6.75035 -1.55885 0
M  V30 6659 N 619.456 5.51343 -1.0944 0
M  V30 6660 H 611.607 1.64224 -1.347 0
M  V30 6661 H 613.87 0.771033 -0.551554 0
M  V30 6662 H 613.576 3.16388 -1.53595 0
M  V30 6663 H 613.45 3.77052 0.105789 0
M  V30 6664 H 615.837 2.89504 0.571949 0
M  V30 6665 H 615.918 2.31113 -1.09638 0
M  V30 6666 H 615.562 4.69964 -1.92604 0
M  V30 6667 H 615.492 5.26068 -0.236629 0
M  V30 6668 H 617.983 3.73546 -0.572013 0
M  V30 6669 H 618.296 7.51926 -1.784 0
M  V30 6670 H 616.641 6.76388 -1.59764 0
M  V30 6671 H 619.832 4.61356 -0.791713 0
M  V30 6672 H 620.005 6.33905 -1.34417 0
M  V30 6673 N 613.412 0.11024 1.57214 0
M  V30 6674 C 614.637 -0.561179 1.99664 0
M  V30 6675 C 615.062 -1.59985 0.989266 0
M  V30 6676 O 614.42 -1.81255 -0.0402399 0
M  V30 6677 C 614.468 -1.17189 3.41027 0
M  V30 6678 O 613.572 -2.28755 3.4314 0
M  V30 6679 H 612.913 -0.14101 0.648855 0
M  V30 6680 H 615.443 0.196128 2.03658 0
M  V30 6681 H 615.453 -1.50954 3.79047 0
M  V30 6682 H 614.128 -0.411041 4.13864 0
M  V30 6683 H 612.705 -1.96495 3.16929 0
M  V30 6684 N 614.89 -1.56749 -0.16351 0
M  V30 6685 C 616.115 -1.86938 -0.898264 0
M  V30 6686 C 616.54 -0.697456 -1.74692 0
M  V30 6687 O 615.898 0.353327 -1.77824 0
M  V30 6688 C 615.946 -3.15599 -1.74441 0
M  V30 6689 O 615.05 -2.98371 -2.8469 0
M  V30 6690 H 614.391 -0.614659 -0.251178 0
M  V30 6691 H 616.921 -2.03979 -0.159298 0
M  V30 6692 H 616.931 -3.47202 -2.14277 0
M  V30 6693 H 615.606 -4.00505 -1.1211 0
M  V30 6694 H 614.183 -2.7814 -2.4838 0
M  V30 6695 N 616.368 0.432326 -1.51554 0
M  V30 6696 C 617.616 1.17901 -1.64146 0
M  V30 6697 C 617.937 1.91604 -0.362367 0
M  V30 6698 O 617.207 1.85764 0.621968 0
M  V30 6699 H 615.787 0.438206 -0.604966 0
M  V30 6700 H 618.449 0.495172 -1.88505 0
M  V30 6701 H 617.545 1.90584 -2.47152 0
M  V30 6702 N 617.846 1.41785 0.688094 0
M  V30 6703 C 619.262 1.24419 0.999608 0
M  V30 6704 C 619.462 0.138868 2.01021 0
M  V30 6705 O 618.518 -0.494283 2.47615 0
M  V30 6706 C 619.831 2.59625 1.51709 0
M  V30 6707 C 621.379 2.66869 1.63554 0
M  V30 6708 C 621.854 4.0241 2.18702 0
M  V30 6709 N 623.345 4.04295 2.26053 0
M  V30 6710 C 624.08 5.05977 2.69768 0
M  V30 6711 N 623.576 6.18047 3.13033 0
M  V30 6712 N 625.369 4.93336 2.69398 0
M  V30 6713 H 617.52 2.12392 0.0187427 0
M  V30 6714 H 619.783 0.945347 0.0708673 0
M  V30 6715 H 619.489 3.41297 0.849059 0
M  V30 6716 H 619.363 2.82628 2.49803 0
M  V30 6717 H 621.75 1.8555 2.29467 0
M  V30 6718 H 621.831 2.47668 0.639857 0
M  V30 6719 H 621.475 4.8418 1.53402 0
M  V30 6720 H 621.405 4.18955 3.19037 0
M  V30 6721 H 623.896 3.23383 1.9553 0
M  V30 6722 H 624.209 6.91498 3.45038 0
M  V30 6723 H 622.554 6.21572 3.10923 0
M  V30 6724 H 625.745 4.04865 2.34952 0
M  V30 6725 H 625.918 5.72717 3.03148 0
M  V30 6726 N 619.324 -0.923095 1.27737 0
M  V30 6727 C 620.571 -1.67127 1.14345 0
M  V30 6728 C 620.899 -1.92017 -0.30982 0
M  V30 6729 O 620.154 -1.51185 -1.24264 0
M  V30 6730 C 620.453 -3.04125 1.8773 0
M  V30 6731 C 620.119 -2.98929 3.37568 0
M  V30 6732 C 618.781 -2.9722 3.78436 0
M  V30 6733 C 621.133 -2.89875 4.33154 0
M  V30 6734 C 618.461 -2.84244 5.13247 0
M  V30 6735 C 620.813 -2.7844 5.68026 0
M  V30 6736 C 619.477 -2.75083 6.08182 0
M  V30 6737 H 618.747 -0.611562 0.418417 0
M  V30 6738 H 621.394 -1.07618 1.584 0
M  V30 6739 H 619.699 -3.67366 1.36196 0
M  V30 6740 H 621.396 -3.609 1.74792 0
M  V30 6741 H 617.986 -3.0105 3.05069 0
M  V30 6742 H 622.17 -2.9029 4.02548 0
M  V30 6743 H 617.426 -2.80034 5.43499 0
M  V30 6744 H 621.6 -2.70401 6.4176 0
M  V30 6745 H 619.227 -2.64786 7.12596 0
M  V30 6746 N 620.802 -1.09834 -1.13024 0
M  V30 6747 C 622.218 -0.828875 -1.36388 0
M  V30 6748 C 622.418 0.554756 -1.93713 0
M  V30 6749 O 621.474 1.30882 -2.15931 0
M  V30 6750 C 622.787 -1.92352 -2.3113 0
M  V30 6751 C 624.335 -1.95124 -2.44735 0
M  V30 6752 C 624.81 -3.03745 -3.42787 0
M  V30 6753 N 626.301 -3.03012 -3.5034 0
M  V30 6754 C 627.036 -3.83699 -4.26101 0
M  V30 6755 N 626.532 -4.74306 -5.04981 0
M  V30 6756 N 628.325 -3.71942 -4.21445 0
M  V30 6757 H 620.476 -1.99029 -0.74169 0
M  V30 6758 H 622.739 -0.864557 -0.388903 0
M  V30 6759 H 622.445 -2.91906 -1.96172 0
M  V30 6760 H 622.319 -1.80536 -3.3119 0
M  V30 6761 H 624.706 -0.962069 -2.78977 0
M  V30 6762 H 624.787 -2.11018 -1.44586 0
M  V30 6763 H 624.431 -4.02878 -3.09276 0
M  V30 6764 H 624.361 -2.85094 -4.42752 0
M  V30 6765 H 626.852 -2.37352 -2.94062 0
M  V30 6766 H 627.165 -5.32446 -5.60108 0
M  V30 6767 H 625.51 -4.78339 -5.04199 0
M  V30 6768 H 628.701 -3.00513 -3.589 0
M  V30 6769 H 628.874 -4.35062 -4.80235 0
M  V30 6770 N 622.28 1.30327 -0.886154 0
M  V30 6771 C 623.212 2.27079 -0.311072 0
M  V30 6772 C 624.225 1.53758 0.53502 0
M  V30 6773 O 625.414 1.74947 0.354378 0
M  V30 6774 C 622.514 3.33965 0.576228 0
M  V30 6775 C 621.687 4.36735 -0.241064 0
M  V30 6776 C 620.746 5.23028 0.576916 0
M  V30 6777 O 619.772 5.692 -0.000802231 0
M  V30 6778 N 620.974 5.49016 1.88579 0
M  V30 6779 H 623.739 2.77065 -1.14259 0
M  V30 6780 H 621.3 1.43519 -0.749258 0
M  V30 6781 H 623.292 3.88618 1.12953 0
M  V30 6782 H 621.862 2.839 1.30842 0
M  V30 6783 H 621.082 3.81932 -0.975805 0
M  V30 6784 H 622.37 5.02451 -0.801272 0
M  V30 6785 H 621.768 5.13288 2.37806 0
M  V30 6786 H 620.325 6.06539 2.38651 0
M  V30 6787 N 623.758 0.647228 1.43697 0
M  V30 6788 C 625.035 0.0883758 1.954 0
M  V30 6789 C 625.415 -1.39006 1.58873 0
M  V30 6790 O 624.763 -2.11255 0.87083 0
M  V30 6791 C 624.973 0.328263 3.47453 0
M  V30 6792 C 626.321 0.230009 4.23977 0
M  V30 6793 O 627.345 0.260496 3.55246 0
M  V30 6794 O 626.204 0.148615 5.46298 0
M  V30 6795 H 623.298 -0.0130683 0.826897 0
M  V30 6796 H 625.844 0.72005 1.53666 0
M  V30 6797 H 624.616 1.3535 3.67146 0
M  V30 6798 H 624.239 -0.336772 3.96171 0
M  V30 6799 N 625.236 -1.5273 0.388769 0
M  V30 6800 C 626.482 -2.01871 -0.193877 0
M  V30 6801 C 626.815 -1.27475 -1.46505 0
M  V30 6802 O 626.09 -0.375063 -1.90849 0
M  V30 6803 C 626.373 -3.5712 -0.462336 0
M  V30 6804 C 626.226 -4.42186 0.824091 0
M  V30 6805 C 627.545 -4.21881 -1.25319 0
M  V30 6806 H 624.664 -0.733764 -0.0689899 0
M  V30 6807 H 627.306 -1.82796 0.518231 0
M  V30 6808 H 625.456 -3.73504 -1.06896 0
M  V30 6809 H 627.128 -4.37554 1.46096 0
M  V30 6810 H 625.371 -4.09219 1.43952 0
M  V30 6811 H 626.042 -5.48828 0.590905 0
M  V30 6812 H 628.518 -4.0947 -0.73981 0
M  V30 6813 H 627.394 -5.30487 -1.40977 0
M  V30 6814 H 627.655 -3.79478 -2.26824 0
M  V30 6815 N 626.714 -0.118576 -1.57153 0
M  V30 6816 C 627.646 0.862247 -2.12363 0
M  V30 6817 C 628.659 1.23025 -1.06625 0
M  V30 6818 O 629.848 1.17927 -1.33998 0
M  V30 6819 C 626.948 2.16425 -2.60794 0
M  V30 6820 C 626.121 1.96801 -3.90626 0
M  V30 6821 C 625.18 3.10726 -4.2466 0
M  V30 6822 O 624.206 2.83659 -4.93484 0
M  V30 6823 N 625.408 4.37147 -3.81946 0
M  V30 6824 H 628.173 0.390564 -2.97144 0
M  V30 6825 H 625.734 0.0658591 -1.61766 0
M  V30 6826 H 627.726 2.91633 -2.80593 0
M  V30 6827 H 626.296 2.54943 -1.80895 0
M  V30 6828 H 625.516 1.05787 -3.7974 0
M  V30 6829 H 626.804 1.80993 -4.7552 0
M  V30 6830 H 626.202 4.62014 -3.26435 0
M  V30 6831 H 624.759 5.09229 -4.06853 0
M  V30 6832 N 628.193 1.56834 0.155195 0
M  V30 6833 C 629.103 2.009 1.21146 0
M  V30 6834 C 630.119 0.923029 1.475 0
M  V30 6835 O 631.295 1.23189 1.59331 0
M  V30 6836 C 628.36 2.37378 2.52691 0
M  V30 6837 C 627.421 3.59883 2.34057 0
M  V30 6838 C 626.654 3.94612 3.59329 0
M  V30 6839 O 626.877 3.30104 4.65175 0
M  V30 6840 O 625.811 4.87895 3.52479 0
M  V30 6841 H 629.637 2.9105 0.867371 0
M  V30 6842 H 627.222 1.44916 0.363298 0
M  V30 6843 H 629.104 2.61737 3.3026 0
M  V30 6844 H 627.779 1.50385 2.86646 0
M  V30 6845 H 626.686 3.40722 1.54465 0
M  V30 6846 H 628.019 4.47468 2.0502 0
M  V30 6847 N 629.671 -0.424282 1.51781 0
M  V30 6848 C 630.634 -1.49848 1.73431 0
M  V30 6849 C 631.634 -1.49016 0.604225 0
M  V30 6850 O 632.824 -1.50808 0.871935 0
M  V30 6851 C 629.956 -2.89332 1.80277 0
M  V30 6852 H 631.149 -1.3195 2.69312 0
M  V30 6853 H 628.702 -0.653809 1.41968 0
M  V30 6854 H 629.437 -3.12618 0.862568 0
M  V30 6855 H 629.222 -2.9134 2.62419 0
M  V30 6856 H 630.712 -3.67233 1.98821 0
M  V30 6857 N 631.149 -1.42148 -0.680565 0
M  V30 6858 C 632.079 -1.4796 -1.80638 0
M  V30 6859 C 633.06 -0.336728 -1.66734 0
M  V30 6860 O 634.245 -0.550247 -1.86242 0
M  V30 6861 C 631.375 -1.37569 -3.18892 0
M  V30 6862 C 630.329 -2.49823 -3.47524 0
M  V30 6863 C 629.655 -2.24491 -4.85291 0
M  V30 6864 C 630.955 -3.92144 -3.44994 0
M  V30 6865 H 632.649 -2.42184 -1.76032 0
M  V30 6866 H 630.195 -1.16566 -0.845481 0
M  V30 6867 H 632.148 -1.40243 -3.97379 0
M  V30 6868 H 630.872 -0.398357 -3.24162 0
M  V30 6869 H 629.531 -2.46455 -2.71395 0
M  V30 6870 H 629.179 -1.25066 -4.87204 0
M  V30 6871 H 628.879 -2.99722 -5.05411 0
M  V30 6872 H 630.403 -2.28906 -5.66069 0
M  V30 6873 H 631.817 -3.97145 -4.13459 0
M  V30 6874 H 630.214 -4.67179 -3.76648 0
M  V30 6875 H 631.284 -4.19225 -2.43676 0
M  V30 6876 N 632.627 0.916307 -1.28225 0
M  V30 6877 C 633.537 2.05165 -1.13775 0
M  V30 6878 C 634.553 1.73879 -0.0649418 0
M  V30 6879 O 635.729 1.99531 -0.273722 0
M  V30 6880 C 632.794 3.37385 -0.798267 0
M  V30 6881 C 631.855 3.82296 -1.95316 0
M  V30 6882 C 631.088 5.08206 -1.62978 0
M  V30 6883 O 631.311 5.6781 -0.542948 0
M  V30 6884 O 630.245 5.48768 -2.47261 0
M  V30 6885 H 634.071 2.20273 -2.09078 0
M  V30 6886 H 631.656 1.0373 -1.07519 0
M  V30 6887 H 633.538 4.16773 -0.62278 0
M  V30 6888 H 632.213 3.23458 0.125139 0
M  V30 6889 H 631.12 3.03746 -2.18378 0
M  V30 6890 H 632.453 4.00782 -2.85718 0
M  V30 6891 N 634.105 1.10431 1.1244 0
M  V30 6892 C 635.353 0.845045 1.83585 0
M  V30 6893 C 635.674 -0.631168 1.84503 0
M  V30 6894 O 634.944 -1.45825 1.30813 0
M  V30 6895 H 633.524 0.309628 0.679809 0
M  V30 6896 H 636.186 1.39458 1.36153 0
M  V30 6897 H 635.282 1.20786 2.8778 0
M  V30 6898 N 635.583 -1.29855 0.893053 0
M  V30 6899 C 636.829 -1.96116 0.516349 0
M  V30 6900 C 637.162 -1.70281 -0.933695 0
M  V30 6901 O 636.437 -1.01205 -1.66096 0
M  V30 6902 C 636.72 -3.51068 0.801455 0
M  V30 6903 C 636.573 -3.86387 2.30272 0
M  V30 6904 C 637.892 -4.39186 0.283423 0
M  V30 6905 H 635.011 -0.712335 0.189072 0
M  V30 6906 H 637.653 -1.53587 1.11852 0
M  V30 6907 H 635.803 -3.87424 0.288949 0
M  V30 6908 H 637.475 -3.60012 2.88425 0
M  V30 6909 H 635.718 -3.34167 2.76613 0
M  V30 6910 H 636.389 -4.94512 2.45279 0
M  V30 6911 H 638.865 -4.09785 0.722187 0
M  V30 6912 H 637.741 -5.46505 0.512169 0
M  V30 6913 H 638.002 -4.34511 -0.815643 0
M  V30 6914 N 637.061 -0.65484 -1.43351 0
M  V30 6915 C 638.286 -0.175046 -2.0666 0
M  V30 6916 C 638.711 1.15104 -1.4877 0
M  V30 6917 O 638.069 1.71144 -0.598279 0
M  V30 6918 C 638.117 -0.0991544 -3.60464 0
M  V30 6919 O 637.221 0.938169 -4.01587 0
M  V30 6920 H 636.562 -0.0956148 -0.65708 0
M  V30 6921 H 639.092 -0.898222 -1.83829 0
M  V30 6922 H 639.102 0.083632 -4.07914 0
M  V30 6923 H 637.777 -1.06719 -4.01975 0
M  V30 6924 H 636.354 0.72804 -3.65724 0
M  V30 6925 N 638.539 1.52521 -0.396863 0
M  V30 6926 C 639.786 2.01672 0.182898 0
M  V30 6927 C 640.114 1.28302 1.46181 0
M  V30 6928 O 639.369 0.374118 1.92091 0
M  V30 6929 C 639.668 3.5403 0.489677 0
M  V30 6930 C 639.334 4.45456 -0.698581 0
M  V30 6931 C 637.996 4.70166 -1.02454 0
M  V30 6932 C 640.348 4.99354 -1.49316 0
M  V30 6933 C 637.676 5.46024 -2.1465 0
M  V30 6934 C 640.028 5.76439 -2.60579 0
M  V30 6935 C 638.692 5.99426 -2.93675 0
M  V30 6936 H 637.962 0.737971 0.066927 0
M  V30 6937 H 640.609 1.83853 -0.535764 0
M  V30 6938 H 638.914 3.69963 1.28976 0
M  V30 6939 H 640.611 3.8956 0.951018 0
M  V30 6940 H 637.201 4.26392 -0.434525 0
M  V30 6941 H 641.385 4.80182 -1.25457 0
M  V30 6942 H 636.641 5.62046 -2.40654 0
M  V30 6943 H 640.815 6.17202 -3.22544 0
M  V30 6944 H 638.442 6.57988 -3.80731 0
M  V30 6945 N 640.017 0.126909 1.57088 0
M  V30 6946 C 641.266 -0.529024 1.94639 0
M  V30 6947 C 641.579 -1.67323 1.01304 0
M  V30 6948 O 642.785 -2.39245 1.28352 0
M  V30 6949 C 641.241 -0.992483 3.45945 0
M  V30 6950 C 640.849 0.123691 4.47829 0
M  V30 6951 C 642.593 -1.61934 3.924 0
M  V30 6952 C 640.5 -0.356911 5.90322 0
M  V30 6953 H 639.43 -0.201397 0.726605 0
M  V30 6954 H 642.081 0.208032 1.82317 0
M  V30 6955 H 640.463 -1.7842 3.53528 0
M  V30 6956 H 641.637 0.900168 4.51922 0
M  V30 6957 H 639.952 0.657699 4.11173 0
M  V30 6958 H 642.549 -1.9902 4.96281 0
M  V30 6959 H 642.892 -2.50075 3.32819 0
M  V30 6960 H 643.425 -0.892894 3.8765 0
M  V30 6961 H 640.164 0.488636 6.53676 0
M  V30 6962 H 639.684 -1.0997 5.89633 0
M  V30 6963 H 641.363 -0.815547 6.41839 0
M  V30 6964 N 641.495 -1.56914 -0.146875 0
M  V30 6965 C 642.458 -1.97368 -1.16526 0
M  V30 6966 C 643.458 -0.860223 -1.35856 0
M  V30 6967 O 644.648 -1.12684 -1.32846 0
M  V30 6968 C 641.78 -2.28974 -2.52555 0
M  V30 6969 H 642.973 -2.88523 -0.818209 0
M  V30 6970 H 640.526 -1.5135 -0.390221 0
M  V30 6971 H 641.261 -1.40611 -2.92231 0
M  V30 6972 H 641.046 -3.10157 -2.39886 0
M  V30 6973 H 642.536 -2.61109 -3.25902 0
M  V30 6974 N 642.974 0.416227 -1.52004 0
M  V30 6975 C 643.906 1.52552 -1.71058 0
M  V30 6976 C 644.919 1.51693 -0.59102 0
M  V30 6977 O 646.108 1.56087 -0.865973 0
M  V30 6978 C 643.208 2.91455 -1.72937 0
M  V30 6979 C 642.381 3.16584 -3.01816 0
M  V30 6980 C 641.44 4.35322 -2.95603 0
M  V30 6981 O 640.466 4.32947 -3.6952 0
M  V30 6982 N 641.668 5.40049 -2.12903 0
M  V30 6983 H 644.433 1.36604 -2.66757 0
M  V30 6984 H 641.994 0.60544 -1.50153 0
M  V30 6985 H 643.986 3.68944 -1.66321 0
M  V30 6986 H 642.556 3.00895 -0.847418 0
M  V30 6987 H 641.776 2.27203 -3.22137 0
M  V30 6988 H 643.064 3.30213 -3.87088 0
M  V30 6989 H 642.462 5.44823 -1.52265 0
M  V30 6990 H 641.019 6.16308 -2.1215 0
M  V30 6991 N 644.452 1.42507 0.673017 0
M  V30 6992 C 645.402 1.4258 1.77919 0
M  V30 6993 C 646.386 0.296885 1.58137 0
M  V30 6994 O 647.578 0.539243 1.68586 0
M  V30 6995 C 644.707 1.33238 3.1639 0
M  V30 6996 C 643.793 2.51081 3.41788 0
M  V30 6997 N 644.184 3.76498 3.37761 0
M  V30 6998 C 642.482 2.4538 3.72431 0
M  V30 6999 C 643.183 4.54784 3.62693 0
M  V30 7000 N 642.159 3.8522 3.83544 0
M  V30 7001 H 645.961 2.37442 1.73201 0
M  V30 7002 H 643.475 1.36881 0.873924 0
M  V30 7003 H 645.472 1.31372 3.9566 0
M  V30 7004 H 644.132 0.393794 3.22303 0
M  V30 7005 H 645.143 4.09068 3.17622 0
M  V30 7006 H 641.82 1.60109 3.85579 0
M  V30 7007 H 643.21 5.63774 3.65525 0
M  V30 7008 N 645.93 -0.909495 1.28709 0
M  V30 7009 C 646.863 -2.01388 1.07323 0
M  V30 7010 C 647.841 -1.62596 -0.0119757 0
M  V30 7011 O 649.025 -1.88003 0.136796 0
M  V30 7012 C 646.152 -3.32755 0.631797 0
M  V30 7013 C 645.198 -3.90532 1.71428 0
M  V30 7014 S 646.031 -4.20853 3.31124 0
M  V30 7015 C 647.187 -5.55276 2.88825 0
M  V30 7016 H 647.42 -2.19219 2.00824 0
M  V30 7017 H 644.953 -1.05489 1.12745 0
M  V30 7018 H 646.911 -4.08702 0.38381 0
M  V30 7019 H 645.572 -3.12818 -0.283451 0
M  V30 7020 H 644.765 -4.85385 1.35712 0
M  V30 7021 H 644.367 -3.21237 1.91528 0
M  V30 7022 H 646.659 -6.35341 2.3526 0
M  V30 7023 H 647.602 -5.95907 3.82492 0
M  V30 7024 H 648.01 -5.16666 2.27412 0
M  V30 7025 N 647.408 -1.11026 -1.11852 0
M  V30 7026 C 648.355 -0.764662 -2.17765 0
M  V30 7027 C 649.325 0.261854 -1.64023 0
M  V30 7028 O 650.51 0.139748 -1.90288 0
M  V30 7029 C 647.65 -0.209317 -3.44465 0
M  V30 7030 C 646.763 -1.29187 -4.12231 0
M  V30 7031 C 645.898 -0.697523 -5.266 0
M  V30 7032 C 644.937 -1.76023 -5.86244 0
M  V30 7033 N 644.074 -1.18569 -6.92016 0
M  V30 7034 H 648.914 -1.67202 -2.46673 0
M  V30 7035 H 646.451 -0.835065 -1.21099 0
M  V30 7036 H 648.409 0.130599 -4.16996 0
M  V30 7037 H 647.039 0.661251 -3.15955 0
M  V30 7038 H 646.091 -1.74881 -3.37818 0
M  V30 7039 H 647.403 -2.09607 -4.52622 0
M  V30 7040 H 646.557 -0.307412 -6.05921 0
M  V30 7041 H 645.296 0.138044 -4.87505 0
M  V30 7042 H 644.301 -2.1597 -5.05606 0
M  V30 7043 H 645.526 -2.59875 -6.27409 0
M  V30 7044 H 643.472 -0.371695 -6.54946 0
M  V30 7045 H 643.389 -1.92666 -7.31038 0
M  V30 7046 H 644.657 -0.82233 -7.7515 0
M  V30 7047 N 648.886 1.2938 -0.899927 0
M  V30 7048 C 649.834 2.29675 -0.367698 0
M  V30 7049 C 650.828 1.60787 0.533282 0
M  V30 7050 O 652.034 1.75126 0.416058 0
M  V30 7051 H 648.409 0.745284 -0.100279 0
M  V30 7052 H 650.38 2.72008 -1.22696 0
M  V30 7053 C 649.129 3.45512 0.389483 0
M  V30 7054 H 648.452 3.98713 -0.294575 0
M  V30 7055 H 649.892 4.17725 0.726744 0
M  V30 7056 C 648.351 2.969 1.59223 0
M  V30 7057 O 648.881 2.98195 2.69152 0
M  V30 7058 N 647.087 2.52728 1.43447 0
M  V30 7059 H 646.634 2.51873 0.540148 0
M  V30 7060 H 646.592 2.20561 2.24054 0
M  V30 7061 N 650.364 0.662433 1.43002 0
M  V30 7062 C 651.641 0.109096 1.95296 0
M  V30 7063 C 652.021 -1.37313 1.60338 0
M  V30 7064 O 651.369 -2.1032 0.893187 0
M  V30 7065 C 651.579 0.365096 3.47085 0
M  V30 7066 C 652.927 0.274964 4.23709 0
M  V30 7067 O 653.951 0.29816 3.5495 0
M  V30 7068 O 652.81 0.206549 5.4611 0
M  V30 7069 H 649.904 -0.00429724 0.826989 0
M  V30 7070 H 652.45 0.736308 1.52894 0
M  V30 7071 H 651.222 1.39237 3.65689 0
M  V30 7072 H 650.845 -0.294733 3.96506 0
M  V30 7073 N 651.842 -1.52309 0.404946 0
M  V30 7074 C 653.119 -1.94237 -0.230544 0
M  V30 7075 C 653.499 -1.34154 -1.6299 0
M  V30 7076 O 652.847 -0.515713 -2.22604 0
M  V30 7077 C 653.057 -3.48166 -0.241106 0
M  V30 7078 C 654.405 -4.22074 -0.462488 0
M  V30 7079 O 655.429 -3.54754 -0.320644 0
M  V30 7080 O 654.288 -5.41443 -0.741708 0
M  V30 7081 H 651.382 -0.813766 -0.147358 0
M  V30 7082 H 653.928 -1.6333 0.460587 0
M  V30 7083 H 652.7 -3.84269 0.738467 0
M  V30 7084 H 652.323 -3.85422 -0.97651 0
M  V30 7085 N 653.32 -0.135238 -1.57019 0
M  V30 7086 C 654.23 0.822226 -2.19719 0
M  V30 7087 C 655.246 1.28057 -1.17802 0
M  V30 7088 O 656.422 1.3402 -1.50335 0
M  V30 7089 C 653.487 2.0484 -2.79717 0
M  V30 7090 C 652.548 1.64042 -3.96723 0
M  V30 7091 C 651.781 2.80814 -4.53849 0
M  V30 7092 O 652.004 3.967 -4.0986 0
M  V30 7093 O 650.938 2.56963 -5.44292 0
M  V30 7094 H 654.764 0.318552 -3.02025 0
M  V30 7095 H 652.349 0.0912021 -1.49121 0
M  V30 7096 H 654.231 2.76622 -3.17897 0
M  V30 7097 H 652.906 2.54182 -2.00432 0
M  V30 7098 H 651.813 0.893182 -3.63281 0
M  V30 7099 H 653.146 1.19426 -4.77492 0
M  V30 7100 N 654.798 1.5699 0.138552 0
M  V30 7101 C 656.075 1.74741 0.87891 0
M  V30 7102 C 656.455 0.705522 1.98961 0
M  V30 7103 O 655.803 -0.274066 2.2685 0
M  V30 7104 C 656.013 3.1909 1.4136 0
M  V30 7105 C 657.361 3.81023 1.87368 0
M  V30 7106 O 658.385 3.22571 1.51084 0
M  V30 7107 O 657.244 4.83722 2.54312 0
M  V30 7108 H 654.338 0.714781 0.415953 0
M  V30 7109 H 656.884 1.69248 0.123817 0
M  V30 7110 H 655.656 3.86424 0.61579 0
M  V30 7111 H 655.279 3.29043 2.23196 0
M  V30 7112 N 656.276 -0.40816 1.52223 0
M  V30 7113 C 657.208 -1.51642 1.71864 0
M  V30 7114 C 658.221 -1.51378 0.599056 0
M  V30 7115 O 659.41 -1.55626 0.874239 0
M  V30 7116 C 656.51 -2.90534 1.74481 0
M  V30 7117 C 655.683 -3.14979 3.03491 0
M  V30 7118 C 654.742 -4.33749 2.97907 0
M  V30 7119 O 653.768 -4.30982 3.71811 0
M  V30 7120 N 654.97 -5.38912 2.15764 0
M  V30 7121 H 657.735 -1.35188 2.67478 0
M  V30 7122 H 655.296 -0.597468 1.50472 0
M  V30 7123 H 657.288 -3.68056 1.68275 0
M  V30 7124 H 655.858 -3.00441 0.863363 0
M  V30 7125 H 655.078 -2.25492 3.23337 0
M  V30 7126 H 656.366 -3.28156 3.88833 0
M  V30 7127 H 655.764 -5.44008 1.55152 0
M  V30 7128 H 654.321 -6.15174 2.15415 0
M  V30 7129 N 657.755 -1.42862 -0.66545 0
M  V30 7130 C 658.98 -1.47456 -1.45848 0
M  V30 7131 C 659.405 -0.0900312 -1.87884 0
M  V30 7132 O 658.763 0.913587 -1.56599 0
M  V30 7133 C 658.811 -2.41514 -2.67774 0
M  V30 7134 O 657.915 -1.89296 -3.66389 0
M  V30 7135 H 657.256 -0.499236 -0.437789 0
M  V30 7136 H 659.786 -1.8765 -0.815394 0
M  V30 7137 H 659.796 -2.58409 -3.15735 0
M  V30 7138 H 658.471 -3.42099 -2.36519 0
M  V30 7139 H 657.048 -1.82003 -3.25468 0
M  V30 7140 N 659.233 0.902656 -1.29189 0
M  V30 7141 C 660.479 1.65532 -1.17163 0
M  V30 7142 C 660.812 1.92216 0.276879 0
M  V30 7143 O 660.087 1.53048 1.20027 0
M  V30 7144 C 660.37 3.00629 -1.98228 0
M  V30 7145 C 660.223 2.81029 -3.51202 0
M  V30 7146 C 661.542 4.01321 -1.80635 0
M  V30 7147 H 658.661 0.60071 -0.426985 0
M  V30 7148 H 661.303 1.04578 -1.5863 0
M  V30 7149 H 659.453 3.52656 -1.62991 0
M  V30 7150 H 661.125 2.35927 -3.96404 0
M  V30 7151 H 659.368 2.1587 -3.76275 0
M  V30 7152 H 660.039 3.77014 -4.03192 0
M  V30 7153 H 662.515 3.58394 -2.11406 0
M  V30 7154 H 661.391 4.93792 -2.3971 0
M  V30 7155 H 661.652 4.35505 -0.760754 0
M  V30 7156 N 660.711 1.11618 1.11262 0
M  V30 7157 C 661.957 0.867463 1.83311 0
M  V30 7158 C 662.29 -0.605366 1.84524 0
M  V30 7159 O 661.565 -1.44704 1.29965 0
M  V30 7160 C 661.848 1.43207 3.30399 0
M  V30 7161 C 661.701 2.97265 3.3757 0
M  V30 7162 C 663.02 1.08454 4.26528 0
M  V30 7163 H 660.139 0.316578 0.665543 0
M  V30 7164 H 662.781 1.38137 1.30454 0
M  V30 7165 H 660.931 0.994982 3.75543 0
M  V30 7166 H 662.603 3.49591 3.00971 0
M  V30 7167 H 660.846 3.33237 2.77733 0
M  V30 7168 H 661.517 3.31859 4.41105 0
M  V30 7169 H 663.993 1.4619 3.89574 0
M  V30 7170 H 662.869 1.50633 5.27826 0
M  V30 7171 H 663.13 -0.00444568 4.421 0
M  V30 7172 N 662.189 -1.289 0.906776 0
M  V30 7173 C 663.099 -2.31256 0.394707 0
M  V30 7174 C 664.115 -1.66231 -0.514121 0
M  V30 7175 O 665.291 -1.97347 -0.401994 0
M  V30 7176 C 662.356 -3.44792 -0.363191 0
M  V30 7177 C 661.417 -4.25391 0.578012 0
M  V30 7178 C 660.65 -5.33506 -0.143811 0
M  V30 7179 O 660.873 -5.53786 -1.36665 0
M  V30 7180 O 659.807 -5.99673 0.5173 0
M  V30 7181 H 663.633 -2.77051 1.24405 0
M  V30 7182 H 661.218 -1.33466 0.671346 0
M  V30 7183 H 663.1 -4.139 -0.791503 0
M  V30 7184 H 661.775 -3.01093 -1.18848 0
M  V30 7185 H 660.682 -3.58899 1.05558 0
M  V30 7186 H 662.015 -4.72752 1.36992 0
M  V30 7187 N 663.667 -0.670007 -1.42649 0
M  V30 7188 C 664.944 -0.119451 -1.95235 0
M  V30 7189 C 665.324 1.36461 -1.61064 0
M  V30 7190 O 664.672 2.09843 -0.904329 0
M  V30 7191 C 664.882 -0.383498 -3.46887 0
M  V30 7192 C 666.23 -0.297431 -4.23557 0
M  V30 7193 O 667.254 -0.31698 -3.54787 0
M  V30 7194 O 666.113 -0.235507 -5.45992 0
M  V30 7195 H 663.207 -8.85474e-05 -0.827 0
M  V30 7196 H 665.753 -0.744406 -1.52501 0
M  V30 7197 H 664.525 -1.41174 -3.64946 0
M  V30 7198 H 664.148 0.273702 -3.96657 0
M  V30 7199 N 665.145 1.52092 -0.413018 0
M  V30 7200 C 666.391 2.02815 0.154104 0
M  V30 7201 C 666.746 1.293 1.42475 0
M  V30 7202 O 666.039 0.391835 1.87551 0
M  V30 7203 C 666.233 3.54529 0.4521 0
M  V30 7204 C 666.062 4.4274 -0.788116 0
M  V30 7205 C 664.832 4.87903 -1.31447 0
M  V30 7206 C 667.03 4.86522 -1.66735 0
M  V30 7207 N 665.012 5.60254 -2.50976 0
M  V30 7208 C 666.383 5.57692 -2.70886 0
M  V30 7209 C 668.438 4.68534 -1.68465 0
M  V30 7210 C 667.141 6.12783 -3.76682 0
M  V30 7211 C 669.167 5.24524 -2.73182 0
M  V30 7212 C 668.529 5.9562 -3.76054 0
M  V30 7213 H 664.628 0.781796 0.0178567 0
M  V30 7214 H 667.212 1.86223 -0.568237 0
M  V30 7215 H 665.383 3.71186 1.14348 0
M  V30 7216 H 667.115 3.91934 1.00844 0
M  V30 7217 H 663.87 4.65504 -0.871931 0
M  V30 7218 H 664.294 6.01069 -3.11521 0
M  V30 7219 H 668.936 4.13051 -0.902708 0
M  V30 7220 H 666.654 6.67335 -4.55729 0
M  V30 7221 H 670.24 5.12473 -2.75433 0
M  V30 7222 H 669.12 6.38169 -4.55752 0
M  V30 7223 N 666.623 0.143563 1.56945 0
M  V30 7224 C 667.57 -0.797433 2.16586 0
M  V30 7225 C 668.54 -1.24654 1.09775 0
M  V30 7226 O 669.725 -1.31968 1.37801 0
M  V30 7227 C 666.865 -2.03253 2.78895 0
M  V30 7228 C 665.978 -1.62954 4.00087 0
M  V30 7229 C 665.113 -2.81617 4.50406 0
M  V30 7230 C 664.152 -2.37675 5.64072 0
M  V30 7231 N 663.289 -3.49335 6.09023 0
M  V30 7232 H 668.129 -0.282023 2.96662 0
M  V30 7233 H 665.666 -0.127494 1.46546 0
M  V30 7234 H 667.624 -2.75653 3.13163 0
M  V30 7235 H 666.254 -2.52211 2.01469 0
M  V30 7236 H 665.306 -0.803322 3.71821 0
M  V30 7237 H 666.618 -1.26679 4.82446 0
M  V30 7238 H 665.772 -3.62212 4.86711 0
M  V30 7239 H 664.511 -3.21134 3.67048 0
M  V30 7240 H 663.516 -1.55519 5.27346 0
M  V30 7241 H 664.741 -1.99247 6.49213 0
M  V30 7242 H 662.687 -3.8848 5.28601 0
M  V30 7243 H 662.604 -3.17064 6.86299 0
M  V30 7244 H 663.872 -4.30297 6.49973 0
M  V30 7245 N 668.101 -1.57061 -0.130224 0
M  V30 7246 C 669.331 -1.88159 -0.853217 0
M  V30 7247 C 669.739 -0.731675 -1.7448 0
M  V30 7248 O 669.082 0.307035 -1.81116 0
M  V30 7249 C 669.144 -3.1415 -1.74785 0
M  V30 7250 C 668.808 -4.45202 -1.03173 0
M  V30 7251 C 669.805 -5.18526 -0.377759 0
M  V30 7252 C 667.49 -4.91912 -1.01624 0
M  V30 7253 C 669.484 -6.36775 0.282123 0
M  V30 7254 C 667.171 -6.10082 -0.352555 0
M  V30 7255 C 668.169 -6.82361 0.295483 0
M  V30 7256 O 667.857 -7.98284 0.948606 0
M  V30 7257 H 667.589 -0.627596 -0.251197 0
M  V30 7258 H 670.143 -2.05034 -0.1226 0
M  V30 7259 H 668.373 -2.93328 -2.51983 0
M  V30 7260 H 670.062 -3.31359 -2.34427 0
M  V30 7261 H 670.828 -4.83498 -0.381417 0
M  V30 7262 H 666.707 -4.35566 -1.51007 0
M  V30 7263 H 670.251 -6.93129 0.788525 0
M  V30 7264 H 666.148 -6.44569 -0.346621 0
M  V30 7265 H 666.916 -8.14054 0.851954 0
M  V30 7266 N 669.579 0.400081 -1.52437 0
M  V30 7267 C 670.825 1.14788 -1.67187 0
M  V30 7268 C 671.158 1.89928 -0.405074 0
M  V30 7269 O 670.433 1.85118 0.596804 0
M  V30 7270 C 670.716 2.13507 -2.89977 0
M  V30 7271 C 670.569 1.42204 -4.2673 0
M  V30 7272 C 671.888 3.14069 -3.083 0
M  V30 7273 H 669.007 0.415939 -0.608411 0
M  V30 7274 H 671.649 0.432542 -1.85011 0
M  V30 7275 H 669.799 2.7451 -2.74912 0
M  V30 7276 H 671.471 0.842503 -4.53541 0
M  V30 7277 H 669.714 0.723939 -4.27717 0
M  V30 7278 H 670.385 2.14281 -5.08712 0
M  V30 7279 H 672.861 2.63148 -3.22323 0
M  V30 7280 H 671.737 3.80398 -3.95713 0
M  V30 7281 H 671.998 3.82309 -2.22018 0
M  V30 7282 N 671.057 1.43213 0.657864 0
M  V30 7283 C 672.02 1.47687 1.75275 0
M  V30 7284 C 673.02 0.362179 1.56668 0
M  V30 7285 O 674.21 0.623734 1.62651 0
M  V30 7286 C 671.342 1.32497 3.14098 0
M  V30 7287 H 672.535 2.4519 1.7269 0
M  V30 7288 H 670.088 1.2991 0.869087 0
M  V30 7289 H 670.823 0.359831 3.22298 0
M  V30 7290 H 670.608 2.13299 3.29008 0
M  V30 7291 H 672.098 1.38549 3.93946 0
M  V30 7292 N 672.536 -0.895792 1.29666 0
M  V30 7293 C 673.469 -2.00238 1.09453 0
M  V30 7294 C 674.447 -1.62599 0.00527044 0
M  V30 7295 O 675.631 -1.87847 0.156729 0
M  V30 7296 C 672.758 -3.32066 0.667054 0
M  V30 7297 C 671.804 -3.88691 1.7556 0
M  V30 7298 S 672.637 -4.17317 3.35569 0
M  V30 7299 C 673.793 -5.52181 2.94698 0
M  V30 7300 H 674.026 -2.17076 2.03138 0
M  V30 7301 H 671.559 -1.04287 1.13858 0
M  V30 7302 H 673.517 -4.08272 0.427136 0
M  V30 7303 H 672.178 -3.13101 -0.250256 0
M  V30 7304 H 671.371 -4.83918 1.40853 0
M  V30 7305 H 670.973 -3.19187 1.94924 0
M  V30 7306 H 673.265 -6.3281 2.41986 0
M  V30 7307 H 674.208 -5.91817 3.88791 0
M  V30 7308 H 674.616 -5.14225 2.32879 0
M  V30 7309 N 674.014 -1.12206 -1.10668 0
M  V30 7310 C 675.26 -0.877172 -1.82848 0
M  V30 7311 C 675.593 0.595571 -1.84842 0
M  V30 7312 O 674.868 1.44013 -1.30731 0
M  V30 7313 C 675.151 -1.44957 -3.29635 0
M  V30 7314 C 675.004 -2.99051 -3.35989 0
M  V30 7315 C 676.323 -1.10714 -4.25946 0
M  V30 7316 H 673.442 -0.320103 -0.663854 0
M  V30 7317 H 676.084 -1.38827 -1.2972 0
M  V30 7318 H 674.234 -1.01488 -3.7501 0
M  V30 7319 H 675.906 -3.51182 -2.99113 0
M  V30 7320 H 674.149 -3.34705 -2.75962 0
M  V30 7321 H 674.82 -3.34194 -4.39339 0
M  V30 7322 H 677.296 -1.48254 -3.88793 0
M  V30 7323 H 676.172 -1.5343 -5.2702 0
M  V30 7324 H 676.433 -0.019 -4.42096 0
M  V30 7325 N 675.492 1.28418 -0.913599 0
M  V30 7326 C 676.738 1.9527 -0.547484 0
M  V30 7327 C 677.071 1.71745 0.906486 0
M  V30 7328 O 676.346 1.03834 1.64465 0
M  V30 7329 C 676.629 3.49748 -0.857205 0
M  V30 7330 C 676.482 3.82675 -2.3639 0
M  V30 7331 C 677.801 4.3868 -0.353258 0
M  V30 7332 H 674.92 0.709236 -0.200381 0
M  V30 7333 H 677.562 1.51789 -1.14281 0
M  V30 7334 H 675.712 3.86915 -0.350548 0
M  V30 7335 H 677.384 3.55378 -2.94116 0
M  V30 7336 H 675.627 3.29724 -2.81894 0
M  V30 7337 H 676.298 4.90547 -2.53115 0
M  V30 7338 H 678.774 4.08584 -0.787288 0
M  V30 7339 H 677.65 5.45621 -0.599049 0
M  V30 7340 H 677.911 4.35753 0.746413 0
M  V30 7341 N 676.97 0.677563 1.42291 0
M  V30 7342 C 678.247 0.129803 1.95169 0
M  V30 7343 C 678.627 -1.35605 1.61786 0
M  V30 7344 O 677.975 -2.09361 0.915444 0
M  V30 7345 C 678.185 0.401889 3.46678 0
M  V30 7346 C 679.533 0.319889 4.23393 0
M  V30 7347 O 680.557 0.33579 3.54614 0
M  V30 7348 O 679.416 0.264459 5.4586 0
M  V30 7349 H 676.51 0.00447433 0.826988 0
M  V30 7350 H 679.056 0.752483 1.52105 0
M  V30 7351 H 677.828 1.43108 3.64192 0
M  V30 7352 H 677.451 -0.252662 3.96796 0
M  V30 7353 N 678.448 -1.51871 0.421078 0
M  V30 7354 C 679.864 -1.59435 0.0725398 0
M  V30 7355 C 680.064 -1.43315 -1.41644 0
M  V30 7356 O 679.12 -1.26614 -2.18461 0
M  V30 7357 C 680.433 -2.9509 0.578132 0
M  V30 7358 C 681.981 -3.08356 0.537149 0
M  V30 7359 C 682.456 -4.4651 1.01945 0
M  V30 7360 N 683.947 -4.52784 0.976758 0
M  V30 7361 C 684.682 -5.57976 1.32099 0
M  V30 7362 N 684.178 -6.70664 1.73727 0
M  V30 7363 N 685.971 -5.48248 1.2402 0
M  V30 7364 H 678.122 -1.60595 1.39007 0
M  V30 7365 H 680.385 -0.756138 0.571803 0
M  V30 7366 H 680.091 -3.12205 1.61929 0
M  V30 7367 H 679.965 -3.772 -0.00578374 0
M  V30 7368 H 682.352 -2.90919 -0.494991 0
M  V30 7369 H 682.433 -2.28125 1.15727 0
M  V30 7370 H 682.077 -4.64692 2.04997 0
M  V30 7371 H 682.007 -5.25256 0.376023 0
M  V30 7372 H 684.498 -3.71898 0.670851 0
M  V30 7373 H 684.811 -7.46932 1.98274 0
M  V30 7374 H 683.156 -6.71914 1.77641 0
M  V30 7375 H 686.347 -4.59095 0.913756 0
M  V30 7376 H 686.52 -6.30119 1.51176 0
M  V30 7377 N 679.926 -0.151884 -1.56866 0
M  V30 7378 C 680.856 0.781943 -2.20018 0
M  V30 7379 C 681.837 1.25347 -1.14987 0
M  V30 7380 O 683.022 1.31015 -1.43348 0
M  V30 7381 C 680.152 2.01928 -2.82564 0
M  V30 7382 C 679.106 1.68434 -3.93464 0
M  V30 7383 C 678.432 2.99472 -4.42968 0
M  V30 7384 C 679.732 0.927244 -5.14003 0
M  V30 7385 H 681.426 0.255607 -2.98307 0
M  V30 7386 H 678.972 0.121502 -1.43486 0
M  V30 7387 H 680.925 2.67741 -3.25411 0
M  V30 7388 H 679.649 2.56943 -2.01614 0
M  V30 7389 H 678.308 1.04998 -3.51242 0
M  V30 7390 H 677.956 3.52488 -3.58834 0
M  V30 7391 H 677.656 2.77823 -5.17772 0
M  V30 7392 H 679.18 3.66348 -4.88489 0
M  V30 7393 H 680.594 1.48756 -5.53665 0
M  V30 7394 H 678.991 0.810513 -5.94601 0
M  V30 7395 H 680.061 -0.0801163 -4.84834 0
M  V30 7396 N 681.404 1.57128 0.121893 0
M  V30 7397 C 682.651 1.847 0.830188 0
M  V30 7398 C 682.979 0.736543 1.80015 0
M  V30 7399 O 682.234 -0.272358 1.93796 0
M  V30 7400 C 682.533 3.1874 1.61677 0
M  V30 7401 C 682.199 4.43901 0.791361 0
M  V30 7402 C 680.861 4.77887 0.563731 0
M  V30 7403 C 683.213 5.20753 0.215823 0
M  V30 7404 C 680.541 5.86168 -0.249737 0
M  V30 7405 C 682.893 6.29891 -0.584821 0
M  V30 7406 C 681.557 6.6241 -0.822794 0
M  V30 7407 H 680.827 0.675866 0.303787 0
M  V30 7408 H 683.474 1.91276 0.0926894 0
M  V30 7409 H 681.779 3.07728 2.42509 0
M  V30 7410 H 683.476 3.37295 2.16872 0
M  V30 7411 H 680.066 4.17272 0.978867 0
M  V30 7412 H 684.25 4.94851 0.378907 0
M  V30 7413 H 679.506 6.0979 -0.44336 0
M  V30 7414 H 683.68 6.88624 -1.03779 0
M  V30 7415 H 681.307 7.46147 -1.45496 0
M  V30 7416 N 682.882 -0.391992 1.52647 0
M  V30 7417 C 683.812 -1.48517 1.8018 0
M  V30 7418 C 684.793 -1.57039 0.653667 0
M  V30 7419 O 685.978 -1.72036 0.900962 0
M  V30 7420 C 683.108 -2.86161 1.96797 0
M  V30 7421 C 682.062 -2.92481 3.12472 0
M  V30 7422 C 681.388 -4.32546 3.14338 0
M  V30 7423 C 682.688 -2.624 4.51601 0
M  V30 7424 H 684.382 -1.25726 2.71723 0
M  V30 7425 H 681.928 -0.603387 1.30749 0
M  V30 7426 H 683.881 -3.62639 2.14641 0
M  V30 7427 H 682.605 -3.10283 1.01941 0
M  V30 7428 H 681.264 -2.18451 2.94406 0
M  V30 7429 H 680.912 -4.53703 2.1717 0
M  V30 7430 H 680.612 -4.37695 3.92042 0
M  V30 7431 H 682.136 -5.10934 3.34333 0
M  V30 7432 H 683.55 -3.28596 4.69785 0
M  V30 7433 H 681.947 -2.78903 5.3135 0
M  V30 7434 H 683.017 -1.57754 4.58521 0
M  V30 7435 N 684.36 -1.4356 -0.65026 0
M  V30 7436 C 685.606 -1.46545 -1.41054 0
M  V30 7437 C 685.961 -0.0894113 -1.92192 0
M  V30 7438 O 685.254 0.892427 -1.69547 0
M  V30 7439 C 685.448 -2.44528 -2.60654 0
M  V30 7440 C 685.277 -3.91524 -2.21222 0
M  V30 7441 C 684.047 -4.59866 -2.09408 0
M  V30 7442 C 686.245 -4.81276 -1.81323 0
M  V30 7443 N 684.227 -5.91772 -1.63337 0
M  V30 7444 C 685.598 -6.02478 -1.46356 0
M  V30 7445 C 687.653 -4.6851 -1.68532 0
M  V30 7446 C 686.356 -7.12332 -0.998805 0
M  V30 7447 C 688.382 -5.78369 -1.23461 0
M  V30 7448 C 687.744 -6.98699 -0.894337 0
M  V30 7449 H 683.843 -0.59135 -0.511693 0
M  V30 7450 H 686.427 -1.79759 -0.747978 0
M  V30 7451 H 684.598 -2.13336 -3.24565 0
M  V30 7452 H 686.33 -2.37932 -3.27369 0
M  V30 7453 H 683.085 -4.14412 -2.29259 0
M  V30 7454 H 683.509 -6.61799 -1.42655 0
M  V30 7455 H 688.151 -3.75933 -1.93479 0
M  V30 7456 H 685.869 -8.04734 -0.736835 0
M  V30 7457 H 689.455 -5.70512 -1.1405 0
M  V30 7458 H 688.335 -7.82263 -0.550901 0
M  V30 7459 N 685.838 0.888903 -1.30139 0
M  V30 7460 C 687.084 1.6428 -1.18912 0
M  V30 7461 C 687.417 1.92499 0.256477 0
M  V30 7462 O 686.692 1.54312 1.18397 0
M  V30 7463 C 686.975 2.9851 -2.01405 0
M  V30 7464 C 686.828 2.77288 -3.54163 0
M  V30 7465 C 688.147 3.99383 -1.84882 0
M  V30 7466 H 685.266 0.596148 -0.433333 0
M  V30 7467 H 687.908 1.0289 -1.5973 0
M  V30 7468 H 686.058 3.50907 -1.66722 0
M  V30 7469 H 687.73 2.31709 -3.98884 0
M  V30 7470 H 685.973 2.11867 -3.78543 0
M  V30 7471 H 686.644 3.72717 -4.07168 0
M  V30 7472 H 689.12 3.56132 -2.15196 0
M  V30 7473 H 687.996 4.91222 -2.44934 0
M  V30 7474 H 688.257 4.34674 -0.806902 0
M  V30 7475 N 687.317 1.12792 1.10072 0
M  V30 7476 C 688.564 0.885545 1.82111 0
M  V30 7477 C 688.892 -0.588519 1.85383 0
M  V30 7478 O 688.147 -1.45124 1.31292 0
M  V30 7479 C 688.446 1.4102 3.28403 0
M  V30 7480 C 688.112 2.89995 3.45273 0
M  V30 7481 C 686.774 3.30671 3.49585 0
M  V30 7482 C 689.126 3.85874 3.50358 0
M  V30 7483 C 686.454 4.65925 3.56553 0
M  V30 7484 C 688.806 5.20963 3.58859 0
M  V30 7485 C 687.47 5.61177 3.61437 0
M  V30 7486 H 686.74 0.324044 0.666391 0
M  V30 7487 H 689.387 1.40874 1.29718 0
M  V30 7488 H 687.692 0.807551 3.83387 0
M  V30 7489 H 689.389 1.19882 3.82661 0
M  V30 7490 H 685.979 2.57537 3.42597 0
M  V30 7491 H 690.163 3.5554 3.46273 0
M  V30 7492 H 685.419 4.96468 3.56833 0
M  V30 7493 H 689.593 5.95079 3.61738 0
M  V30 7494 H 687.22 6.6597 3.66589 0
M  V30 7495 N 688.795 -1.27931 0.920396 0
M  V30 7496 C 689.728 -2.2537 0.358285 0
M  V30 7497 C 690.706 -1.53328 -0.541242 0
M  V30 7498 O 691.89 -1.82196 -0.483399 0
M  V30 7499 C 689.017 -3.35178 -0.487193 0
M  V30 7500 C 688.063 -4.25079 0.347881 0
M  V30 7501 S 688.896 -5.05792 1.75883 0
M  V30 7502 C 690.052 -6.19089 0.920832 0
M  V30 7503 H 690.285 -2.72701 1.18413 0
M  V30 7504 H 687.818 -1.36474 0.722088 0
M  V30 7505 H 689.776 -3.98895 -0.96916 0
M  V30 7506 H 688.437 -2.865 -1.28749 0
M  V30 7507 H 687.63 -5.03113 -0.298912 0
M  V30 7508 H 687.232 -3.66119 0.763748 0
M  V30 7509 H 689.524 -6.77326 0.15349 0
M  V30 7510 H 690.467 -6.8803 1.67394 0
M  V30 7511 H 690.875 -5.62573 0.466069 0
M  V30 7512 N 690.273 -0.685099 -1.4193 0
M  V30 7513 C 691.52 -0.211658 -2.01391 0
M  V30 7514 C 691.848 1.18526 -1.54214 0
M  V30 7515 O 691.103 1.81189 -0.739519 0
M  V30 7516 C 691.402 -0.206154 -3.56805 0
M  V30 7517 C 691.068 -1.54915 -4.23453 0
M  V30 7518 C 689.73 -1.91684 -4.41373 0
M  V30 7519 C 692.082 -2.43317 -4.60919 0
M  V30 7520 C 689.41 -3.16461 -4.94034 0
M  V30 7521 C 691.762 -3.67415 -5.14965 0
M  V30 7522 C 690.426 -4.04341 -5.31098 0
M  V30 7523 H 689.696 -0.0774511 -0.736941 0
M  V30 7524 H 692.343 -0.882121 -1.69973 0
M  V30 7525 H 690.648 0.547841 -3.87951 0
M  V30 7526 H 692.345 0.17753 -4.00607 0
M  V30 7527 H 688.935 -1.25314 -4.09871 0
M  V30 7528 H 693.119 -2.16192 -4.46738 0
M  V30 7529 H 688.375 -3.45078 -5.04709 0
M  V30 7530 H 692.549 -4.3611 -5.42938 0
M  V30 7531 H 690.176 -5.01101 -5.71666 0
M  V30 7532 N 691.751 1.51645 -0.429126 0
M  V30 7533 C 692.997 2.02314 0.140286 0
M  V30 7534 C 693.33 1.31314 1.43074 0
M  V30 7535 O 692.605 0.425531 1.89788 0
M  V30 7536 C 692.888 3.5822 0.36749 0
M  V30 7537 C 692.741 4.39846 -0.941039 0
M  V30 7538 C 694.06 4.25055 1.14089 0
M  V30 7539 H 691.179 0.735335 0.0495112 0
M  V30 7540 H 693.821 1.81358 -0.566514 0
M  V30 7541 H 691.971 3.76207 0.969556 0
M  V30 7542 H 693.643 4.33527 -1.57646 0
M  V30 7543 H 691.886 4.05259 -1.54751 0
M  V30 7544 H 692.557 5.47069 -0.73621 0
M  V30 7545 H 695.033 4.11288 0.630986 0
M  V30 7546 H 693.909 5.34038 1.26863 0
M  V30 7547 H 694.17 3.85358 2.16683 0
M  V30 7548 N 693.229 0.160201 1.56784 0
M  V30 7549 C 694.469 -0.490179 1.98435 0
M  V30 7550 C 694.833 -1.61164 1.04355 0
M  V30 7551 O 696.034 -2.3238 1.35103 0
M  V30 7552 C 694.305 -0.971106 3.43954 0
M  V30 7553 S 695.864 -1.62423 4.07632 0
M  V30 7554 H 692.682 -0.158056 0.693209 0
M  V30 7555 H 695.284 0.255036 1.93829 0
M  V30 7556 H 693.988 -0.144323 4.10146 0
M  V30 7557 H 693.519 -1.75063 3.52302 0
M  V30 7558 H 695.534 -2.91199 4.01768 0
M  V30 7559 N 694.707 -1.5719 -0.113559 0
M  V30 7560 C 695.953 -1.85412 -0.821597 0
M  V30 7561 C 696.286 -0.746722 -1.7927 0
M  V30 7562 O 695.561 0.246971 -1.92926 0
M  V30 7563 C 695.844 -3.24233 -1.56669 0
M  V30 7564 C 695.697 -4.45578 -0.614823 0
M  V30 7565 C 697.016 -3.60697 -2.52161 0
M  V30 7566 H 694.135 -0.674406 -0.29723 0
M  V30 7567 H 696.777 -1.89807 -0.085694 0
M  V30 7568 H 694.927 -3.20617 -2.19401 0
M  V30 7569 H 696.599 -4.613 0.00407137 0
M  V30 7570 H 694.842 -4.33738 0.0732332 0
M  V30 7571 H 695.513 -5.39395 -1.17292 0
M  V30 7572 H 697.989 -3.65139 -1.99532 0
M  V30 7573 H 696.865 -4.58798 -3.01323 0
M  V30 7574 H 697.126 -2.88403 -3.35076 0
M  V30 7575 N 696.185 0.383891 -1.52853 0
M  V30 7576 C 697.115 1.47559 -1.80965 0
M  V30 7577 C 698.096 1.5669 -0.661986 0
M  V30 7578 O 699.281 1.71556 -0.910072 0
M  V30 7579 C 696.411 2.85114 -1.98312 0
M  V30 7580 C 695.365 2.9082 -3.14019 0
M  V30 7581 C 694.691 4.30873 -3.16627 0
M  V30 7582 C 695.991 2.60001 -4.52986 0
M  V30 7583 H 697.685 1.24283 -2.72386 0
M  V30 7584 H 695.231 0.596445 -1.31067 0
M  V30 7585 H 697.184 3.61496 -2.16561 0
M  V30 7586 H 695.908 3.09738 -1.03585 0
M  V30 7587 H 694.567 2.16886 -2.9556 0
M  V30 7588 H 694.215 4.52545 -2.19573 0
M  V30 7589 H 693.915 4.3561 -3.94357 0
M  V30 7590 H 695.439 5.09154 -3.37038 0
M  V30 7591 H 696.853 3.261 -4.71521 0
M  V30 7592 H 695.25 2.76081 -5.32822 0
M  V30 7593 H 696.32 1.5532 -4.59351 0
M  V30 7594 N 697.663 1.43903 0.642637 0
M  V30 7595 C 698.911 1.45791 1.39962 0
M  V30 7596 C 699.232 0.0873144 1.94804 0
M  V30 7597 O 698.502 -0.878825 1.75081 0
M  V30 7598 H 697.082 0.536797 0.519479 0
M  V30 7599 H 699.744 1.7959 0.757189 0
M  V30 7600 H 698.84 2.17665 2.2367 0
M  V30 7601 N 699.141 -0.881989 1.30609 0
M  V30 7602 C 700.369 -1.66711 1.22536 0
M  V30 7603 C 700.784 -1.87614 -0.2113 0
M  V30 7604 O 700.141 -1.42576 -1.13923 0
M  V30 7605 C 700.192 -3.04182 1.95335 0
M  V30 7606 O 699.913 -2.8422 3.33393 0
M  V30 7607 C 701.414 -3.98617 1.93956 0
M  V30 7608 H 698.634 -0.520124 0.423925 0
M  V30 7609 H 701.178 -1.10174 1.72285 0
M  V30 7610 H 699.333 -3.57442 1.49378 0
M  V30 7611 H 699.747 -3.71452 3.70302 0
M  V30 7612 H 701.221 -4.92433 2.49426 0
M  V30 7613 H 701.698 -4.29473 0.919198 0
M  V30 7614 H 702.304 -3.51292 2.39738 0
M  V30 7615 N 700.619 -1.13374 -1.09472 0
M  V30 7616 C 701.865 -0.896516 -1.81908 0
M  V30 7617 C 702.198 0.575933 -1.85463 0
M  V30 7618 O 701.473 1.42618 -1.32251 0
M  V30 7619 C 701.756 -1.48445 -3.28079 0
M  V30 7620 C 701.609 -3.02598 -3.32798 0
M  V30 7621 C 702.928 -1.15226 -4.24748 0
M  V30 7622 H 700.047 -0.327127 -0.660422 0
M  V30 7623 H 702.689 -1.40195 -1.2824 0
M  V30 7624 H 700.839 -1.0546 -3.73912 0
M  V30 7625 H 702.511 -3.54335 -2.95372 0
M  V30 7626 H 700.754 -3.37613 -2.72397 0
M  V30 7627 H 701.425 -3.38835 -4.3577 0
M  V30 7628 H 703.901 -1.52369 -3.87199 0
M  V30 7629 H 702.777 -1.59012 -5.25363 0
M  V30 7630 H 703.038 -0.0658891 -4.42051 0
M  V30 7631 N 702.098 1.27442 -0.927168 0
M  V30 7632 C 703.346 1.94007 -0.566203 0
M  V30 7633 C 703.667 1.7323 0.895345 0
M  V30 7634 O 702.937 1.07973 1.63459 0
M  V30 7635 H 701.517 0.717917 -0.206409 0
M  V30 7636 H 704.179 1.55161 -1.17945 0
M  V30 7637 H 703.275 3.02401 -0.772028 0
M  V30 7638 N 703.576 0.692616 1.41565 0
M  V30 7639 C 704.506 0.0397325 2.33466 0
M  V30 7640 C 705.487 -0.770334 1.51657 0
M  V30 7641 O 706.672 -0.723903 1.80203 0
M  V30 7642 C 703.802 -0.899495 3.3545 0
M  V30 7643 C 702.756 -0.196738 4.27548 0
M  V30 7644 C 702.082 -1.25012 5.19881 0
M  V30 7645 C 703.382 0.935158 5.1386 0
M  V30 7646 H 705.076 0.807296 2.88311 0
M  V30 7647 H 702.622 0.389665 1.38628 0
M  V30 7648 H 704.575 -1.36545 3.98665 0
M  V30 7649 H 703.299 -1.69869 2.78948 0
M  V30 7650 H 701.958 0.249158 3.65752 0
M  V30 7651 H 701.606 -2.04177 4.59696 0
M  V30 7652 H 701.306 -0.784931 5.82334 0
M  V30 7653 H 702.83 -1.71665 5.85972 0
M  V30 7654 H 704.244 0.549619 5.70659 0
M  V30 7655 H 702.641 1.32726 5.85238 0
M  V30 7656 H 703.711 1.77613 4.512 0
M  V30 7657 N 705.054 -1.51416 0.437162 0
M  V30 7658 C 706.301 -2.02086 -0.129364 0
M  V30 7659 C 706.629 -1.32133 -1.42728 0
M  V30 7660 O 705.884 -0.424916 -1.91031 0
M  V30 7661 C 706.183 -3.55203 -0.39564 0
M  V30 7662 C 705.849 -4.43447 0.81644 0
M  V30 7663 C 704.511 -4.67285 1.14884 0
M  V30 7664 C 706.863 -4.95219 1.62503 0
M  V30 7665 C 704.191 -5.40141 2.29052 0
M  V30 7666 C 706.543 -5.69327 2.7577 0
M  V30 7667 C 705.207 -5.91429 3.09464 0
M  V30 7668 H 704.477 -0.739486 -0.0473375 0
M  V30 7669 H 707.124 -1.82368 0.584321 0
M  V30 7670 H 705.429 -3.73252 -1.19121 0
M  V30 7671 H 707.126 -3.91944 -0.847399 0
M  V30 7672 H 703.716 -4.2509 0.547422 0
M  V30 7673 H 707.9 -4.76686 1.38144 0
M  V30 7674 H 703.156 -5.55468 2.55471 0
M  V30 7675 H 707.33 -6.08433 3.38795 0
M  V30 7676 H 704.957 -6.47662 3.98042 0
M  V30 7677 N 706.532 -0.168513 -1.56696 0
M  V30 7678 C 707.462 0.758563 -2.20835 0
M  V30 7679 C 708.443 1.24121 -1.1631 0
M  V30 7680 O 709.628 1.29487 -1.4473 0
M  V30 7681 C 706.758 1.9892 -2.8469 0
M  V30 7682 C 705.712 1.64252 -3.95228 0
M  V30 7683 C 705.038 2.94757 -4.46119 0
M  V30 7684 C 706.338 0.872675 -5.14958 0
M  V30 7685 H 708.032 0.223953 -2.98561 0
M  V30 7686 H 705.578 0.106277 -1.43607 0
M  V30 7687 H 707.531 2.64275 -3.28233 0
M  V30 7688 H 706.255 2.5479 -2.04327 0
M  V30 7689 H 704.914 1.01266 -3.52336 0
M  V30 7690 H 704.562 3.48662 -3.62552 0
M  V30 7691 H 704.262 2.72316 -5.2069 0
M  V30 7692 H 705.786 3.61147 -4.92347 0
M  V30 7693 H 707.2 1.42875 -5.55211 0
M  V30 7694 H 705.597 0.747402 -5.95428 0
M  V30 7695 H 706.667 -0.131535 -4.84722 0
M  V30 7696 N 708.01 1.57248 0.105221 0
M  V30 7697 C 709.421 1.74612 0.660865 0
M  V30 7698 C 709.772 0.789231 1.79626 0
M  V30 7699 O 708.897 -0.0346611 2.16372 0
M  V30 7700 C 709.492 3.16624 1.20559 0
M  V30 7701 C 708.051 3.35447 1.7074 0
M  V30 7702 C 707.198 2.70445 0.612764 0
M  V30 7703 H 710.149 1.5824 -0.12079 0
M  V30 7704 H 710.17 3.18937 2.07508 0
M  V30 7705 H 709.682 3.86245 0.379012 0
M  V30 7706 H 707.783 2.7089 2.5583 0
M  V30 7707 H 707.896 4.43702 1.80736 0
M  V30 7708 H 706.26 2.32061 1.04975 0
M  V30 7709 H 707.043 3.42699 -0.203066 0
M  V30 7710 N 709.488 -0.375779 1.53054 0
M  V30 7711 C 710.899 -0.95309 1.6054 0
M  V30 7712 C 711.25 -1.90575 0.466446 0
M  V30 7713 O 710.375 -2.12507 -0.408609 0
M  V30 7714 C 710.97 -1.73537 2.90982 0
M  V30 7715 C 709.529 -2.26218 3.00836 0
M  V30 7716 C 708.676 -1.07157 2.55759 0
M  V30 7717 H 711.627 -0.154895 1.57942 0
M  V30 7718 H 711.648 -2.59574 2.78211 0
M  V30 7719 H 711.16 -1.04176 3.73857 0
M  V30 7720 H 709.261 -2.98852 2.22527 0
M  V30 7721 H 709.374 -2.54799 4.05727 0
M  V30 7722 H 707.738 -1.43553 2.10391 0
M  V30 7723 H 708.521 -0.393099 3.41042 0
M  V30 7724 N 710.966 -1.44241 -0.634997 0
M  V30 7725 C 711.896 -1.53632 -1.7584 0
M  V30 7726 C 712.877 -0.389603 -1.65578 0
M  V30 7727 O 714.062 -0.609219 -1.84397 0
M  V30 7728 C 711.192 -1.47644 -3.14354 0
M  V30 7729 C 710.146 -2.60752 -3.394 0
M  V30 7730 C 709.472 -2.39817 -4.77904 0
M  V30 7731 C 710.772 -4.02921 -3.32343 0
M  V30 7732 H 712.466 -2.47662 -1.68238 0
M  V30 7733 H 710.012 -1.19197 -0.807969 0
M  V30 7734 H 711.965 -1.52815 -3.92716 0
M  V30 7735 H 710.689 -0.501284 -3.2273 0
M  V30 7736 H 709.348 -2.54965 -2.63417 0
M  V30 7737 H 708.996 -1.40502 -4.82978 0
M  V30 7738 H 708.696 -3.15649 -4.9562 0
M  V30 7739 H 710.22 -2.46799 -5.585 0
M  V30 7740 H 711.634 -4.10098 -4.00615 0
M  V30 7741 H 710.031 -4.78925 -3.61595 0
M  V30 7742 H 711.101 -4.26766 -2.30215 0
M  V30 7743 N 712.444 0.87505 -1.31075 0
M  V30 7744 C 713.691 1.62768 -1.20469 0
M  V30 7745 C 714.019 1.93034 0.23834 0
M  V30 7746 O 713.274 1.55693 1.18567 0
M  V30 7747 C 713.573 2.96948 -1.98888 0
M  V30 7748 C 713.239 2.86195 -3.4843 0
M  V30 7749 C 711.901 2.82969 -3.89207 0
M  V30 7750 C 714.253 2.73599 -4.43614 0
M  V30 7751 C 711.581 2.64999 -5.23443 0
M  V30 7752 C 713.933 2.57166 -5.77969 0
M  V30 7753 C 712.597 2.52321 -6.17973 0
M  V30 7754 H 711.867 0.595611 -0.440827 0
M  V30 7755 H 714.514 1.01665 -1.62285 0
M  V30 7756 H 712.819 3.62058 -1.49737 0
M  V30 7757 H 714.516 3.54164 -1.88067 0
M  V30 7758 H 711.106 2.8952 -3.16032 0
M  V30 7759 H 715.29 2.7515 -4.13045 0
M  V30 7760 H 710.546 2.5967 -5.53517 0
M  V30 7761 H 714.72 2.46396 -6.51354 0
M  V30 7762 H 712.347 2.38156 -7.21932 0
M  V30 7763 N 713.922 1.13953 1.08869 0
M  V30 7764 C 714.854 0.779906 2.15523 0
M  V30 7765 C 715.867 -0.20102 1.61554 0
M  V30 7766 O 717.056 0.0200049 1.78489 0
M  V30 7767 C 714.156 0.136226 3.38626 0
M  V30 7768 C 713.329 1.15069 4.21993 0
M  V30 7769 C 712.388 0.531645 5.23507 0
M  V30 7770 O 711.414 1.19327 5.56552 0
M  V30 7771 N 712.616 -0.693734 5.7634 0
M  V30 7772 H 715.381 1.69769 2.46979 0
M  V30 7773 H 712.942 1.03331 1.24637 0
M  V30 7774 H 714.934 -0.290295 4.03658 0
M  V30 7775 H 713.504 -0.684603 3.05011 0
M  V30 7776 H 712.724 1.75431 3.53012 0
M  V30 7777 H 714.012 1.83614 4.74514 0
M  V30 7778 H 713.41 -1.24994 5.51718 0
M  V30 7779 H 711.967 -1.06283 6.43076 0
M  V30 7780 N 715.4 -1.26948 0.933913 0
M  V30 7781 C 716.628 -1.98186 0.59414 0
M  V30 7782 C 717.043 -1.69614 -0.829257 0
M  V30 7783 O 716.4 -0.960213 -1.55197 0
M  V30 7784 C 716.451 -3.52123 0.818026 0
M  V30 7785 O 716.172 -3.79698 2.18543 0
M  V30 7786 C 717.673 -4.40608 0.48781 0
M  V30 7787 H 714.893 -0.632305 0.224569 0
M  V30 7788 H 717.437 -1.61646 1.25263 0
M  V30 7789 H 715.592 -3.86851 0.206246 0
M  V30 7790 H 716.006 -4.7426 2.24005 0
M  V30 7791 H 717.48 -5.47606 0.695126 0
M  V30 7792 H 717.957 -4.35394 -0.576913 0
M  V30 7793 H 718.563 -4.11411 1.078 0
M  V30 7794 N 716.879 -0.700114 -1.41195 0
M  V30 7795 C 717.829 -0.0144098 -2.27995 0
M  V30 7796 C 718.813 0.748249 -1.42443 0
M  V30 7797 O 720.005 0.622995 -1.65674 0
M  V30 7798 C 717.134 0.917938 -3.308 0
M  V30 7799 C 716.22 0.151286 -4.2383 0
M  V30 7800 N 716.611 -0.85732 -4.98481 0
M  V30 7801 C 714.909 0.386108 -4.44326 0
M  V30 7802 C 715.61 -1.31663 -5.66604 0
M  V30 7803 N 714.586 -0.641689 -5.39799 0
M  V30 7804 H 718.388 -0.787662 -2.83149 0
M  V30 7805 H 715.902 -0.531344 -1.53462 0
M  V30 7806 H 717.899 1.42437 -3.91813 0
M  V30 7807 H 716.559 1.69074 -2.77208 0
M  V30 7808 H 717.57 -1.2377 -5.02893 0
M  V30 7809 H 714.247 1.13644 -4.01735 0
M  V30 7810 H 715.637 -2.15384 -6.36443 0
M  V30 7811 N 718.357 1.51182 -0.445186 0
M  V30 7812 C 719.32 2.26501 0.350722 0
M  V30 7813 C 720.32 1.3025 0.942952 0
M  V30 7814 O 721.51 1.53897 0.816175 0
M  V30 7815 C 718.642 3.06274 1.49697 0
M  V30 7816 H 719.835 2.98299 -0.309474 0
M  V30 7817 H 717.388 1.55034 -0.198551 0
M  V30 7818 H 718.123 2.38911 2.19299 0
M  V30 7819 H 717.908 3.76979 1.0784 0
M  V30 7820 H 719.398 3.63306 2.05909 0
M  V30 7821 N 719.835 0.176821 1.56605 0
M  V30 7822 C 720.798 -0.737429 2.17013 0
M  V30 7823 C 721.798 -1.15414 1.11965 0
M  V30 7824 O 722.988 -1.0702 1.37449 0
M  V30 7825 C 720.12 -2.00445 2.75744 0
M  V30 7826 H 721.313 -0.211455 2.99154 0
M  V30 7827 H 718.866 -0.0727582 1.56131 0
M  V30 7828 H 719.601 -2.57338 1.97352 0
M  V30 7829 H 719.386 -1.71456 3.52626 0
M  V30 7830 H 720.876 -2.65679 3.22187 0
M  V30 7831 N 721.313 -1.57302 -0.09688 0
M  V30 7832 C 722.538 -1.9058 -0.818169 0
M  V30 7833 C 722.963 -0.770921 -1.71576 0
M  V30 7834 O 722.321 0.277588 -1.79162 0
M  V30 7835 C 722.369 -3.22714 -1.60898 0
M  V30 7836 O 721.473 -3.10178 -2.71779 0
M  V30 7837 H 720.814 -0.624759 -0.224882 0
M  V30 7838 H 723.344 -2.04471 -0.07264 0
M  V30 7839 H 723.354 -3.55978 -1.99358 0
M  V30 7840 H 722.029 -4.04899 -0.950227 0
M  V30 7841 H 720.606 -2.88424 -2.3636 0
M  V30 7842 N 722.791 0.367657 -1.53252 0
M  V30 7843 C 723.701 1.47415 -1.82499 0
M  V30 7844 C 724.717 1.58711 -0.713222 0
M  V30 7845 O 725.893 1.74644 -1.00306 0
M  V30 7846 C 722.958 2.82706 -2.00694 0
M  V30 7847 C 722.019 2.80955 -3.24596 0
M  V30 7848 C 721.252 4.09793 -3.41914 0
M  V30 7849 O 721.475 5.05852 -2.63572 0
M  V30 7850 O 720.409 4.15731 -4.3526 0
M  V30 7851 H 724.235 1.25624 -2.765 0
M  V30 7852 H 721.82 0.557559 -1.38606 0
M  V30 7853 H 723.702 3.62873 -2.14246 0
M  V30 7854 H 722.377 3.04479 -1.09883 0
M  V30 7855 H 721.284 1.99494 -3.16469 0
M  V30 7856 H 722.617 2.64136 -4.15323 0
M  V30 7857 N 724.269 1.44576 0.627338 0
M  V30 7858 C 725.517 1.47267 1.38408 0
M  V30 7859 C 725.838 0.107971 1.94701 0
M  V30 7860 O 725.108 -0.860206 1.76004 0
M  V30 7861 H 723.688 0.542276 0.513756 0
M  V30 7862 H 726.35 1.80383 0.738099 0
M  V30 7863 H 725.446 2.20025 2.21349 0
M  V30 7864 N 725.747 -0.868086 1.31537 0
M  V30 7865 C 727.158 -1.437 1.19195 0
M  V30 7866 C 727.509 -1.95169 -0.200842 0
M  V30 7867 O 726.634 -1.86432 -1.09872 0
M  V30 7868 C 727.229 -2.612 2.15778 0
M  V30 7869 C 725.788 -3.1413 2.07363 0
M  V30 7870 C 724.935 -1.86845 2.049 0
M  V30 7871 H 727.886 -0.676457 1.43561 0
M  V30 7872 H 727.907 -3.37948 1.74847 0
M  V30 7873 H 727.419 -2.23709 3.17137 0
M  V30 7874 H 725.52 -3.56238 1.09204 0
M  V30 7875 H 725.633 -3.76285 2.96557 0
M  V30 7876 H 723.997 -2.05886 1.49943 0
M  V30 7877 H 724.78 -1.51589 3.08019 0
M  V30 7878 N 727.225 -1.14528 -1.08264 0
M  V30 7879 C 728.455 -0.936604 -1.8415 0
M  V30 7880 C 728.863 0.518298 -1.81962 0
M  V30 7881 O 728.206 1.37096 -1.22272 0
M  V30 7882 C 728.268 -1.36182 -3.32708 0
M  V30 7883 C 727.932 -2.83257 -3.58629 0
M  V30 7884 C 728.929 -3.81366 -3.5335 0
M  V30 7885 C 726.614 -3.20704 -3.86593 0
M  V30 7886 C 728.608 -5.14929 -3.75668 0
M  V30 7887 C 726.295 -4.54443 -4.08564 0
M  V30 7888 C 727.293 -5.51365 -4.03095 0
M  V30 7889 O 726.981 -6.8269 -4.24488 0
M  V30 7890 H 726.713 -0.333254 -0.588148 0
M  V30 7891 H 729.267 -1.5247 -1.3763 0
M  V30 7892 H 727.497 -0.717063 -3.79994 0
M  V30 7893 H 729.186 -1.12372 -3.90035 0
M  V30 7894 H 729.952 -3.53781 -3.31759 0
M  V30 7895 H 725.831 -2.45857 -3.89969 0
M  V30 7896 H 729.375 -5.90568 -3.71315 0
M  V30 7897 H 725.272 -4.81747 -4.29639 0
M  V30 7898 H 726.04 -6.8897 -4.41886 0
M  V30 7899 N 728.703 1.26451 -0.940633 0
M  V30 7900 C 729.666 2.24651 -0.454378 0
M  V30 7901 C 730.666 1.54826 0.434222 0
M  V30 7902 O 731.856 1.72628 0.233477 0
M  V30 7903 C 728.988 3.39148 0.345192 0
M  V30 7904 H 730.181 2.69182 -1.32217 0
M  V30 7905 H 727.734 1.38596 -0.722547 0
M  V30 7906 H 728.469 3.00018 1.23125 0
M  V30 7907 H 728.254 3.9101 -0.292107 0
M  V30 7908 H 729.744 4.12103 0.675341 0
M  V30 7909 N 730.181 0.707592 1.40822 0
M  V30 7910 C 731.144 0.0587224 2.29125 0
M  V30 7911 C 732.144 -0.695624 1.44975 0
M  V30 7912 O 733.334 -0.528718 1.65983 0
M  V30 7913 C 730.466 -0.926939 3.28056 0
M  V30 7914 H 731.659 0.836349 2.88002 0
M  V30 7915 H 729.212 0.471778 1.4901 0
M  V30 7916 H 729.947 -1.7319 2.74182 0
M  V30 7917 H 729.732 -0.389015 3.90165 0
M  V30 7918 H 731.222 -1.37837 3.94196 0
M  V30 7919 N 731.66 -1.50943 0.453197 0
M  V30 7920 C 732.592 -2.25922 -0.38623 0
M  V30 7921 C 733.605 -1.3055 -0.972652 0
M  V30 7922 O 734.794 -1.56191 -0.864097 0
M  V30 7923 C 731.894 -3.01176 -1.5539 0
M  V30 7924 C 731.067 -4.23768 -1.0835 0
M  V30 7925 C 730.126 -4.81466 -2.12313 0
M  V30 7926 O 729.152 -5.42875 -1.71101 0
M  V30 7927 N 730.354 -4.66889 -3.44956 0
M  V30 7928 H 733.119 -2.98601 0.256468 0
M  V30 7929 H 730.68 -1.59408 0.282965 0
M  V30 7930 H 732.672 -3.36659 -2.24594 0
M  V30 7931 H 731.242 -2.31409 -2.10163 0
M  V30 7932 H 730.462 -3.93597 -0.217961 0
M  V30 7933 H 731.75 -5.03289 -0.746857 0
M  V30 7934 H 731.148 -4.18011 -3.81161 0
M  V30 7935 H 729.705 -5.06691 -4.1001 0
M  V30 7936 N 733.138 -0.185124 -1.56509 0
M  V30 7937 C 734.554 0.170865 -1.58683 0
M  V30 7938 C 734.754 1.61799 -1.20098 0
M  V30 7939 O 733.81 2.35181 -0.919038 0
M  V30 7940 C 735.123 -0.122459 -3.00451 0
M  V30 7941 C 736.671 -0.0617699 -3.12939 0
M  V30 7942 C 737.146 -0.328269 -4.56822 0
M  V30 7943 N 738.637 -0.276533 -4.62374 0
M  V30 7944 C 739.372 -0.456722 -5.71578 0
M  V30 7945 N 738.868 -0.69672 -6.89288 0
M  V30 7946 N 740.661 -0.391669 -5.60734 0
M  V30 7947 H 732.812 -1.12956 -1.79874 0
M  V30 7948 H 735.075 -0.45011 -0.834329 0
M  V30 7949 H 734.781 -1.12546 -3.33206 0
M  V30 7950 H 734.655 0.579578 -3.72721 0
M  V30 7951 H 737.042 0.931826 -2.80002 0
M  V30 7952 H 737.123 -0.796732 -2.43076 0
M  V30 7953 H 736.767 -1.31914 -4.9047 0
M  V30 7954 H 736.697 0.427465 -5.24862 0
M  V30 7955 H 739.188 -0.0972458 -3.77775 0
M  V30 7956 H 739.501 -0.823291 -7.68402 0
M  V30 7957 H 737.846 -0.733497 -6.91119 0
M  V30 7958 H 741.037 -0.204663 -4.67652 0
M  V30 7959 H 741.21 -0.535518 -6.45783 0
M  V30 7960 N 734.616 1.57351 0.0885366 0
M  V30 7961 C 735.893 1.77449 0.822873 0
M  V30 7962 C 736.273 0.768463 1.96616 0
M  V30 7963 O 735.621 -0.201757 2.27608 0
M  V30 7964 C 735.831 3.23425 1.31137 0
M  V30 7965 C 737.179 3.86791 1.75152 0
M  V30 7966 O 738.203 3.27215 1.40745 0
M  V30 7967 O 737.062 4.91568 2.38794 0
M  V30 7968 H 734.156 0.727653 0.393002 0
M  V30 7969 H 736.702 1.69556 0.0699095 0
M  V30 7970 H 735.474 3.88188 0.49254 0
M  V30 7971 H 735.097 3.35977 2.12615 0
M  V30 7972 O 736.133 -0.232414 1.59819 0
M  V30 7973 H 736.824 -0.874496 1.72836 0
M  V30 END ATOM
M  V30 BEGIN BOND
M  V30 END BOND
M  V30 END CTAB
M  END
$$$$
