drugbank_target|Q8ZKR2 Putative sugar kinase (DB03909; DB04568)
 OpenBabel12092120283D

  0  0  0     0  0            999 V3000
M  V30 BEGIN CTAB
M  V30 COUNTS 4743 4792 0 0 0
M  V30 BEGIN ATOM
M  V30 1 H -0.908 1.98254 -0.117106 0
M  V30 2 N 0 1.576 0 0
M  V30 3 C 0.933 2.03868 1.02534 0
M  V30 4 C 1.911 0.928543 1.3348 0
M  V30 5 O 3.095 1.19667 1.45644 0
M  V30 6 C 0.222 2.43627 2.35294 0
M  V30 7 C -0.732 3.65373 2.2001 0
M  V30 8 S 0.101 5.13292 1.52614 0
M  V30 9 C 1.257 5.56322 2.86805 0
M  V30 10 H 1.49 2.90518 0.631377 0
M  V30 11 H -0.977 1.52953 0.210867 0
M  V30 12 H 0.981 2.67203 3.11629 0
M  V30 13 H -0.358 1.57376 2.7183 0
M  V30 14 H -1.165 3.90944 3.18086 0
M  V30 15 H -1.563 3.418 1.51819 0
M  V30 16 H 0.729 5.58782 3.83104 0
M  V30 17 H 1.672 6.56266 2.65933 0
M  V30 18 H 2.08 4.83886 2.90714 0
M  V30 19 N 1.4781 -0.272755 1.55222 0
M  V30 20 C 2.4251 -1.33716 1.88119 0
M  V30 21 C 3.3951 -1.49066 0.73271 0
M  V30 22 O 4.5801 -1.63469 0.984002 0
M  V30 23 C 1.7201 -2.69238 2.15882 0
M  V30 24 C 0.8331 -2.62108 3.43399 0
M  V30 25 C -0.0319 -3.89811 3.60861 0
M  V30 26 C -0.9929 -3.77193 4.8207 0
M  V30 27 N -1.8559 -4.9673 4.96189 0
M  V30 28 H 2.9841 -1.04962 2.78903 0
M  V30 29 H 0.5211 -0.507088 1.38083 0
M  V30 30 H 2.4791 -3.48089 2.29978 0
M  V30 31 H 1.1091 -2.96194 1.28331 0
M  V30 32 H 0.1611 -1.74967 3.37773 0
M  V30 33 H 1.4731 -2.48685 4.32386 0
M  V30 34 H 0.6271 -4.77103 3.74777 0
M  V30 35 H -0.6339 -4.06102 2.7006 0
M  V30 36 H -1.6289 -2.88284 4.68159 0
M  V30 37 H -0.4039 -3.62421 5.74307 0
M  V30 38 H -2.4579 -5.13431 4.08319 0
M  V30 39 H -2.5409 -4.85839 5.79221 0
M  V30 40 H -1.2729 -5.85594 5.1449 0
M  V30 41 N 2.9562 -1.48159 -0.537278 0
M  V30 42 C 3.9192 -1.61665 -1.62472 0
M  V30 43 C 4.9192 -0.490395 -1.5314 0
M  V30 44 O 6.1092 -0.755998 -1.5694 0
M  V30 45 C 3.2412 -1.57997 -3.02076 0
M  V30 46 H 4.4342 -2.58621 -1.51839 0
M  V30 47 H 1.9872 -1.36647 -0.758771 0
M  V30 48 H 2.7222 -0.624913 -3.18222 0
M  V30 49 H 2.5072 -2.39755 -3.10258 0
M  V30 50 H 3.9972 -1.70627 -3.81151 0
M  V30 51 N 4.4343 0.785586 -1.36625 0
M  V30 52 C 5.3673 1.90509 -1.25625 0
M  V30 53 C 6.3453 1.62 -0.139607 0
M  V30 54 O 7.5293 1.8591 -0.31141 0
M  V30 55 C 4.6563 3.25419 -0.939158 0
M  V30 56 C 3.7023 3.72856 -2.07077 0
M  V30 57 S 4.5353 3.88162 -3.68904 0
M  V30 58 C 5.6913 5.25942 -3.39317 0
M  V30 59 H 5.9243 1.99549 -2.20381 0
M  V30 60 H 3.4573 0.945226 -1.22085 0
M  V30 61 H 5.4153 4.03346 -0.763029 0
M  V30 62 H 4.0763 3.14099 -0.00931402 0
M  V30 63 H 3.2693 4.70624 -1.80357 0
M  V30 64 H 2.8713 3.01989 -2.20632 0
M  V30 65 H 5.1633 6.10651 -2.93447 0
M  V30 66 H 6.1063 5.57668 -4.36363 0
M  V30 67 H 6.5143 4.93224 -2.74573 0
M  V30 68 N 5.9124 1.20967 1.01018 0
M  V30 69 C 6.8604 0.961223 2.1181 0
M  V30 70 C 7.8544 -0.0897034 1.69162 0
M  V30 71 O 9.0604 0.0612271 1.79896 0
M  V30 72 H 5.4354 0.29355 0.692338 0
M  V30 73 H 7.4064 1.90178 2.29946 0
M  V30 74 C 6.1554 0.536854 3.4353 0
M  V30 75 H 5.4784 1.33713 3.76777 0
M  V30 76 H 6.9184 0.402286 4.22087 0
M  V30 77 C 5.3774 -0.751574 3.2841 0
M  V30 78 O 5.9074 -1.80841 3.58691 0
M  V30 79 N 4.1134 -0.716079 2.81639 0
M  V30 80 H 3.6604 0.144236 2.57196 0
M  V30 81 H 3.6184 -1.57847 2.71904 0
M  V30 82 N 7.3905 -1.2043 1.01659 0
M  V30 83 C 8.3375 -2.23215 0.586822 0
M  V30 84 C 9.3075 -1.61382 -0.393085 0
M  V30 85 O 10.4925 -1.88544 -0.292525 0
M  V30 86 C 7.6325 -3.45032 -0.0687464 0
M  V30 87 C 6.7455 -4.21296 0.955724 0
M  V30 88 C 5.8805 -5.30507 0.271208 0
M  V30 89 C 4.9195 -5.98515 1.28244 0
M  V30 90 N 4.0565 -6.99316 0.62459 0
M  V30 91 H 8.8965 -2.59336 1.46796 0
M  V30 92 H 6.4335 -1.27431 0.734836 0
M  V30 93 H 8.3915 -4.1459 -0.465965 0
M  V30 94 H 7.0215 -3.09604 -0.913529 0
M  V30 95 H 6.0735 -3.50803 1.4711 0
M  V30 96 H 7.3855 -4.6803 1.72479 0
M  V30 97 H 6.5395 -6.06428 -0.18151 0
M  V30 98 H 5.2785 -4.8481 -0.530163 0
M  V30 99 H 4.2835 -5.21355 1.74554 0
M  V30 100 H 5.5085 -6.46298 2.08509 0
M  V30 101 H 3.4545 -6.55812 -0.156914 0
M  V30 102 H 3.3715 -7.44178 1.33172 0
M  V30 103 H 4.6395 -7.79255 0.195462 0
M  V30 104 N 8.8686 -0.792821 -1.36206 0
M  V30 105 C 10.1146 -0.36733 -1.99446 0
M  V30 106 C 10.4476 1.05917 -1.62774 0
M  V30 107 O 9.7226 1.7324 -0.88421 0
M  V30 108 C 10.0056 -0.535044 -3.56103 0
M  V30 109 C 9.8586 -2.00548 -4.02617 0
M  V30 110 C 11.1776 0.0478191 -4.40074 0
M  V30 111 H 8.2966 -0.134941 -0.724541 0
M  V30 112 H 10.9386 -0.999794 -1.61568 0
M  V30 113 H 9.0886 0.00336329 -3.885 0
M  V30 114 H 10.7606 -2.60521 -3.80692 0
M  V30 115 H 9.0036 -2.50686 -3.54032 0
M  V30 116 H 9.6746 -2.07377 -5.11565 0
M  V30 117 H 12.1506 -0.411822 -4.14057 0
M  V30 118 H 11.0266 -0.0995336 -5.4881 0
M  V30 119 H 11.2876 1.14025 -4.27142 0
M  V30 120 N 10.3467 1.47872 -0.545128 0
M  V30 121 C 11.5927 2.03385 -0.0247951 0
M  V30 122 C 11.9477 1.41325 1.30556 0
M  V30 123 O 11.2407 0.5552 1.8338 0
M  V30 124 C 11.4347 3.57131 0.13867 0
M  V30 125 C 11.2637 4.34097 -1.17429 0
M  V30 126 C 10.0337 4.74458 -1.73831 0
M  V30 127 C 12.2317 4.6998 -2.08861 0
M  V30 128 N 10.2137 5.3602 -2.99258 0
M  V30 129 C 11.5847 5.31719 -3.18866 0
M  V30 130 C 13.6397 4.5191 -2.09003 0
M  V30 131 C 12.3427 5.77295 -4.29096 0
M  V30 132 C 14.3687 4.98477 -3.18237 0
M  V30 133 C 13.7307 5.60253 -4.26961 0
M  V30 134 H 9.8297 0.780339 -0.050943 0
M  V30 135 H 12.4137 1.80507 -0.729753 0
M  V30 136 H 10.5847 3.79802 0.812733 0
M  V30 137 H 12.3167 3.99282 0.659976 0
M  V30 138 H 9.0717 4.56037 -1.2778 0
M  V30 139 H 9.4957 5.71355 -3.63157 0
M  V30 140 H 14.1377 4.03516 -1.26234 0
M  V30 141 H 11.8557 6.24687 -5.12633 0
M  V30 142 H 15.4417 4.86274 -3.1942 0
M  V30 143 H 14.3217 5.95631 -5.10091 0
M  V30 144 N 11.8248 0.280983 1.55075 0
M  V30 145 C 13.0708 -0.33461 2.00021 0
M  V30 146 C 13.4038 -1.55063 1.16915 0
M  V30 147 O 12.6788 -1.93006 0.240646 0
M  V30 148 C 12.9618 -0.711007 3.53011 0
M  V30 149 C 12.8148 0.512766 4.46868 0
M  V30 150 C 14.1338 -1.54522 4.12081 0
M  V30 151 H 11.2528 -0.120147 0.727141 0
M  V30 152 H 13.8948 0.389097 1.85973 0
M  V30 153 H 12.0448 -1.32761 3.65112 0
M  V30 154 H 13.7168 1.15131 4.46702 0
M  V30 155 H 11.9598 1.14975 4.18286 0
M  V30 156 H 12.6308 0.205556 5.51617 0
M  V30 157 H 15.1068 -1.02442 4.03293 0
M  V30 158 H 13.9828 -1.77739 5.19327 0
M  V30 159 H 14.2438 -2.52813 3.62682 0
M  V30 160 N 13.3029 -1.57598 0.00835791 0
M  V30 161 C 14.5519 -1.90107 -0.673968 0
M  V30 162 C 14.8649 -0.884275 -1.7447 0
M  V30 163 O 16.0709 -1.09987 -2.48224 0
M  V30 164 C 14.5269 -3.37497 -1.24995 0
M  V30 165 C 14.1349 -4.47491 -0.2136 0
M  V30 166 C 15.8789 -3.79104 -1.90999 0
M  V30 167 C 13.7859 -5.85963 -0.80005 0
M  V30 168 H 12.7159 -0.709393 -0.255495 0
M  V30 169 H 15.3669 -1.83365 0.0702693 0
M  V30 170 H 13.7489 -3.39102 -2.04513 0
M  V30 171 H 14.9229 -4.57414 0.557596 0
M  V30 172 H 13.2379 -4.14956 0.346474 0
M  V30 173 H 15.8349 -4.79901 -2.35795 0
M  V30 174 H 16.1779 -3.1306 -2.74407 0
M  V30 175 H 16.7109 -3.79833 -1.18203 0
M  V30 176 H 13.4499 -6.555 -0.00456708 0
M  V30 177 H 12.9699 -5.79687 -1.54021 0
M  V30 178 H 14.6489 -6.33884 -1.29615 0
M  V30 179 N 14.781 0.264519 -1.55364 0
M  V30 180 C 16.029 0.993021 -1.76021 0
M  V30 181 C 16.35 1.86511 -0.569099 0
M  V30 182 O 15.62 1.91438 0.415735 0
M  V30 183 H 14.2 0.369639 -0.649135 0
M  V30 184 H 16.862 0.286707 -1.9278 0
M  V30 185 H 15.958 1.62502 -2.66457 0
M  V30 186 N 16.2591 1.48442 0.529413 0
M  V30 187 C 17.5361 1.46978 1.29062 0
M  V30 188 C 17.9161 0.181769 2.10316 0
M  V30 189 O 17.2641 -0.836481 2.12639 0
M  V30 190 C 17.4741 2.7321 2.17157 0
M  V30 191 C 18.8221 3.21562 2.77278 0
M  V30 192 O 19.8461 2.74131 2.27444 0
M  V30 193 O 18.7051 4.04094 3.67927 0
M  V30 194 H 15.7991 0.587003 0.582543 0
M  V30 195 H 18.3451 1.60676 0.546021 0
M  V30 196 H 17.1171 3.58465 1.56903 0
M  V30 197 H 16.7401 2.62235 2.98862 0
M  V30 198 N 17.7372 -0.778329 1.37039 0
M  V30 199 C 18.7002 -1.87301 1.32102 0
M  V30 200 C 19.7002 -1.59198 0.226405 0
M  V30 201 O 20.8902 -1.67403 0.481861 0
M  V30 202 C 18.0222 -3.24309 1.05055 0
M  V30 203 H 19.2152 -1.93093 2.29467 0
M  V30 204 H 16.7682 -0.977358 1.21973 0
M  V30 205 H 17.5032 -3.24196 0.0819373 0
M  V30 206 H 17.2882 -3.46098 1.84279 0
M  V30 207 H 18.7782 -4.04382 1.04234 0
M  V30 208 N 19.2153 -1.21501 -1.00376 0
M  V30 209 C 20.4403 -1.05977 -1.78279 0
M  V30 210 C 20.8653 0.385994 -1.84097 0
M  V30 211 O 20.2233 1.27849 -1.28547 0
M  V30 212 C 20.2713 -1.66302 -3.19963 0
M  V30 213 O 19.3753 -0.909333 -4.0225 0
M  V30 214 H 18.7163 -0.372906 -0.549397 0
M  V30 215 H 21.2463 -1.6107 -1.26165 0
M  V30 216 H 21.2563 -1.70574 -3.70632 0
M  V30 217 H 19.9313 -2.71515 -3.15043 0
M  V30 218 H 18.5083 -0.941795 -3.60811 0
M  V30 219 N 20.6934 1.19889 -1.02296 0
M  V30 220 C 21.9394 1.89701 -0.717033 0
M  V30 221 C 22.2724 1.7905 0.751989 0
M  V30 222 O 21.5474 1.17891 1.547 0
M  V30 223 C 21.8304 3.40858 -1.16136 0
M  V30 224 C 21.6834 3.60411 -2.69117 0
M  V30 225 C 23.0024 4.33876 -0.737549 0
M  V30 226 H 20.1214 0.688874 -0.261957 0
M  V30 227 H 22.7634 1.41154 -1.27183 0
M  V30 228 H 20.9134 3.82335 -0.689342 0
M  V30 229 H 22.5854 3.28145 -3.2422 0
M  V30 230 H 20.8284 3.03665 -3.0979 0
M  V30 231 H 21.4994 4.66396 -2.95261 0
M  V30 232 H 23.9754 4.00081 -1.14344 0
M  V30 233 H 22.8514 5.38242 -1.0764 0
M  V30 234 H 23.1124 4.40628 0.360436 0
M  V30 235 N 22.1715 0.800033 1.35784 0
M  V30 236 C 23.4485 0.30088 1.93272 0
M  V30 237 C 23.8285 -1.20857 1.73081 0
M  V30 238 O 23.1765 -2.00502 1.09596 0
M  V30 239 C 23.3865 0.70511 3.41803 0
M  V30 240 C 24.7345 0.690871 4.18942 0
M  V30 241 O 25.7585 0.646244 3.50289 0
M  V30 242 O 24.6175 0.74332 5.41421 0
M  V30 243 H 21.7115 0.0771605 0.823393 0
M  V30 244 H 24.2575 0.88329 1.449 0
M  V30 245 H 23.0295 1.74571 3.50201 0
M  V30 246 H 22.6525 0.0971541 3.97481 0
M  V30 247 N 23.6496 -1.47581 0.552962 0
M  V30 248 C 24.5796 -2.32762 -0.185451 0
M  V30 249 C 25.5606 -1.43527 -0.912905 0
M  V30 250 O 26.7456 -1.72388 -0.894201 0
M  V30 251 C 23.8756 -3.25219 -1.21859 0
M  V30 252 C 22.8296 -4.23661 -0.607864 0
M  V30 253 C 22.1556 -5.05413 -1.74533 0
M  V30 254 C 23.4556 -5.20481 0.435582 0
M  V30 255 H 25.1496 -2.94749 0.525684 0
M  V30 256 H 22.6956 -1.41738 0.254251 0
M  V30 257 H 24.6486 -3.8365 -1.7433 0
M  V30 258 H 23.3726 -2.61279 -1.95961 0
M  V30 259 H 22.0316 -3.66451 -0.104489 0
M  V30 260 H 21.6796 -4.3788 -2.47529 0
M  V30 261 H 21.3796 -5.72059 -1.34249 0
M  V30 262 H 22.9036 -5.66701 -2.27338 0
M  V30 263 H 24.3176 -5.733 -0.00290157 0
M  V30 264 H 22.7146 -5.95305 0.757067 0
M  V30 265 H 23.7846 -4.66217 1.33303 0
M  V30 266 N 25.1277 -0.289203 -1.54924 0
M  V30 267 C 26.3737 0.323998 -2.00195 0
M  V30 268 C 26.7067 1.54441 -1.17735 0
M  V30 269 O 25.9817 1.92875 -0.250878 0
M  V30 270 C 26.2647 0.692276 -3.53383 0
M  V30 271 C 26.1177 -0.536457 -4.46589 0
M  V30 272 C 27.4367 1.52335 -4.12895 0
M  V30 273 H 24.5557 0.116289 -0.727768 0
M  V30 274 H 27.1977 -0.398954 -1.85764 0
M  V30 275 H 25.3477 1.30822 -3.65811 0
M  V30 276 H 27.0197 -1.17499 -4.46085 0
M  V30 277 H 25.2627 -1.17192 -4.1767 0
M  V30 278 H 25.9337 -0.234806 -5.515 0
M  V30 279 H 28.4097 1.00302 -4.0383 0
M  V30 280 H 27.2857 1.74982 -5.20262 0
M  V30 281 H 27.5467 2.50886 -3.64018 0
M  V30 282 N 26.6058 1.57591 -0.0167156 0
M  V30 283 C 28.0168 1.79201 0.523834 0
M  V30 284 C 28.3678 0.925796 1.72984 0
M  V30 285 O 27.4928 0.132792 2.15992 0
M  V30 286 C 28.0878 3.25 0.957091 0
M  V30 287 C 26.6468 3.47648 1.44283 0
M  V30 288 C 25.7938 2.74374 0.401757 0
M  V30 289 H 28.7448 1.56831 -0.242816 0
M  V30 290 H 28.7658 3.34031 1.82219 0
M  V30 291 H 28.2778 3.88019 0.0791415 0
M  V30 292 H 26.3788 2.89866 2.34113 0
M  V30 293 H 26.4918 4.56352 1.45877 0
M  V30 294 H 24.8558 2.39485 0.867121 0
M  V30 295 H 25.6388 3.40102 -0.467513 0
M  V30 296 N 28.0839 -0.256276 1.55502 0
M  V30 297 C 28.9939 -1.33882 1.92647 0
M  V30 298 C 30.0099 -1.53159 0.825727 0
M  V30 299 O 31.1859 -1.66963 1.12629 0
M  V30 300 C 28.2509 -2.6751 2.20543 0
M  V30 301 C 27.3119 -2.56836 3.43997 0
M  V30 302 C 26.5449 -3.84092 3.70553 0
M  V30 303 O 26.7679 -4.85545 2.99336 0
M  V30 304 O 25.7019 -3.83288 4.64084 0
M  V30 305 H 29.5279 -1.05374 2.84833 0
M  V30 306 H 27.1129 -0.456237 1.42263 0
M  V30 307 H 28.9949 -3.46492 2.39835 0
M  V30 308 H 27.6699 -2.9577 1.31536 0
M  V30 309 H 26.5769 -1.76172 3.30021 0
M  V30 310 H 27.9099 -2.33523 4.33275 0
M  V30 311 N 29.562 -1.4872 -0.521534 0
M  V30 312 C 30.509 -1.63871 -1.62527 0
M  V30 313 C 31.479 -0.480559 -1.58996 0
M  V30 314 O 32.664 -0.705085 -1.77294 0
M  V30 315 C 29.804 -1.69227 -3.00759 0
M  V30 316 C 28.917 -2.96207 -3.14461 0
M  V30 317 C 28.052 -2.92671 -4.43303 0
M  V30 318 C 27.091 -4.14318 -4.50563 0
M  V30 319 N 26.228 -4.0881 -5.70805 0
M  V30 320 H 31.068 -2.58123 -1.48918 0
M  V30 321 H 28.605 -1.28 -0.724878 0
M  V30 322 H 30.563 -1.70314 -3.80853 0
M  V30 323 H 29.193 -0.784586 -3.1312 0
M  V30 324 H 28.245 -3.04826 -2.27564 0
M  V30 325 H 29.557 -3.86192 -3.15686 0
M  V30 326 H 28.711 -2.92206 -5.31696 0
M  V30 327 H 27.45 -2.00429 -4.44612 0
M  V30 328 H 26.455 -4.15049 -3.60575 0
M  V30 329 H 27.68 -5.07729 -4.50986 0
M  V30 330 H 25.626 -3.19394 -5.72995 0
M  V30 331 H 25.543 -4.92509 -5.7356 0
M  V30 332 H 26.811 -4.12418 -6.61462 0
M  V30 333 N 31.0401 0.771051 -1.3745 0
M  V30 334 C 31.9721 1.89352 -1.29146 0
M  V30 335 C 32.9851 1.61477 -0.207124 0
M  V30 336 O 34.1741 1.72382 -0.463324 0
M  V30 337 C 31.2741 3.24596 -0.974195 0
M  V30 338 C 30.4471 3.80111 -2.16413 0
M  V30 339 C 29.5061 4.93832 -1.81703 0
M  V30 340 O 28.5321 5.09382 -2.54006 0
M  V30 341 N 29.7341 5.75483 -0.761573 0
M  V30 342 H 32.4991 1.96991 -2.25864 0
M  V30 343 H 30.0601 0.950191 -1.31084 0
M  V30 344 H 32.0521 3.98193 -0.722828 0
M  V30 345 H 30.6221 3.12454 -0.0955527 0
M  V30 346 H 29.8421 2.98284 -2.57721 0
M  V30 347 H 31.1301 4.13932 -2.95867 0
M  V30 348 H 30.5281 5.65469 -0.161609 0
M  V30 349 H 29.0851 6.49302 -0.570064 0
M  V30 350 N 32.5182 1.22032 0.997298 0
M  V30 351 C 33.4662 0.983634 2.10778 0
M  V30 352 C 34.4602 -0.0717564 1.69248 0
M  V30 353 O 35.6662 0.080304 1.79821 0
M  V30 354 H 32.0412 0.300877 0.689186 0
M  V30 355 H 34.0122 1.92606 2.27916 0
M  V30 356 C 32.7612 0.57326 3.42942 0
M  V30 357 H 32.0842 1.37702 3.75338 0
M  V30 358 H 33.5242 0.447031 4.21637 0
M  V30 359 C 31.9832 -0.7167 3.29188 0
M  V30 360 O 32.5132 -1.77027 3.60589 0
M  V30 361 N 30.7192 -0.686167 2.82383 0
M  V30 362 H 30.2662 0.171507 2.57028 0
M  V30 363 H 30.2242 -1.54955 2.73562 0
M  V30 364 N 33.9963 -1.19345 1.0293 0
M  V30 365 C 35.2213 -1.93538 0.745511 0
M  V30 366 C 35.6463 -1.75007 -0.689511 0
M  V30 367 O 35.0043 -1.05265 -1.47611 0
M  V30 368 C 35.0523 -3.43336 1.10239 0
M  V30 369 O 34.1563 -4.11806 0.221289 0
M  V30 370 H 33.4973 -0.604193 0.275404 0
M  V30 371 H 36.0273 -1.5141 1.37609 0
M  V30 372 H 36.0373 -3.94004 1.05947 0
M  V30 373 H 34.7123 -3.56146 2.14786 0
M  V30 374 H 33.2893 -3.715 0.322842 0
M  V30 375 N 35.4744 -0.807222 -1.35358 0
M  V30 376 C 36.7044 -0.399796 -2.02695 0
M  V30 377 C 37.1124 0.994176 -1.60974 0
M  V30 378 O 36.4554 1.65209 -0.803226 0
M  V30 379 C 36.5174 -0.404445 -3.57218 0
M  V30 380 C 36.1814 -1.74904 -4.22206 0
M  V30 381 C 37.1784 -2.70743 -4.4384 0
M  V30 382 C 34.8634 -2.03322 -4.5931 0
M  V30 383 C 36.8574 -3.93183 -5.01683 0
M  V30 384 C 34.5444 -3.26026 -5.16866 0
M  V30 385 C 35.5424 -4.20774 -5.37994 0
M  V30 386 O 35.2304 -5.41312 -5.94337 0
M  V30 387 H 34.9624 -0.160517 -0.656666 0
M  V30 388 H 37.5164 -1.09235 -1.73945 0
M  V30 389 H 35.7464 0.344707 -3.85161 0
M  V30 390 H 37.4354 -0.0192429 -4.05895 0
M  V30 391 H 38.2014 -2.5008 -4.15554 0
M  V30 392 H 34.0804 -1.30384 -4.42178 0
M  V30 393 H 37.6244 -4.6715 -5.1809 0
M  V30 394 H 33.5214 -3.46559 -5.44579 0
M  V30 395 H 34.2894 -5.42618 -6.12787 0
M  V30 396 N 36.9525 1.47285 -0.560781 0
M  V30 397 C 37.8825 2.32857 0.173105 0
M  V30 398 C 38.8635 1.44009 0.905281 0
M  V30 399 O 40.0485 1.7286 0.885046 0
M  V30 400 C 37.1785 3.25861 1.20133 0
M  V30 401 C 36.1325 4.23978 0.585388 0
M  V30 402 C 35.4585 5.06332 1.7185 0
M  V30 403 C 36.7585 5.20242 -0.463178 0
M  V30 404 H 38.4525 2.94466 -0.541307 0
M  V30 405 H 35.9985 1.41601 -0.261764 0
M  V30 406 H 37.9515 3.84569 1.72293 0
M  V30 407 H 36.6755 2.62315 1.94573 0
M  V30 408 H 35.3345 3.66501 0.085054 0
M  V30 409 H 34.9825 4.39186 2.45203 0
M  V30 410 H 34.6825 5.72762 1.31213 0
M  V30 411 H 36.2065 5.67899 2.24329 0
M  V30 412 H 37.6205 5.73293 -0.027502 0
M  V30 413 H 36.0175 5.94896 -0.788627 0
M  V30 414 H 37.0875 4.65504 -1.35773 0
M  V30 415 N 38.4306 0.297415 1.54768 0
M  V30 416 C 39.3776 -0.580276 2.23386 0
M  V30 417 C 40.3476 -1.13238 1.21517 0
M  V30 418 O 41.5326 -1.17757 1.50126 0
M  V30 419 C 38.6726 -1.74801 2.97555 0
M  V30 420 C 37.7856 -1.22764 4.1419 0
M  V30 421 C 36.9206 -2.35895 4.75949 0
M  V30 422 C 35.9596 -1.80974 5.84735 0
M  V30 423 N 35.0966 -2.87664 6.40464 0
M  V30 424 H 39.9366 0.0114833 2.97998 0
M  V30 425 H 37.4736 0.0174361 1.4709 0
M  V30 426 H 39.4316 -2.43475 3.38786 0
M  V30 427 H 38.0616 -2.31145 2.25326 0
M  V30 428 H 37.1136 -0.433271 3.77924 0
M  V30 429 H 38.4256 -0.785551 4.92575 0
M  V30 430 H 37.5796 -3.12523 5.20014 0
M  V30 431 H 36.3186 -2.83429 3.96887 0
M  V30 432 H 35.3236 -1.02834 5.40097 0
M  V30 433 H 36.5486 -1.34348 6.65678 0
M  V30 434 H 34.4946 -3.34538 5.64287 0
M  V30 435 H 34.4116 -2.4794 7.14186 0
M  V30 436 H 35.6796 -3.642 6.89187 0
M  V30 437 N 39.9087 -1.5758 0.0250728 0
M  V30 438 C 41.1487 -1.93497 -0.65865 0
M  V30 439 C 41.5127 -0.901409 -1.69525 0
M  V30 440 O 42.7137 -1.14664 -2.43116 0
M  V30 441 C 40.9847 -3.34352 -1.26267 0
M  V30 442 S 42.5437 -3.92191 -1.96803 0
M  V30 443 H 39.3617 -0.67709 -0.216958 0
M  V30 444 H 41.9637 -1.95303 0.0877692 0
M  V30 445 H 40.6677 -4.07395 -0.495741 0
M  V30 446 H 40.1987 -3.3598 -2.04648 0
M  V30 447 H 42.2137 -3.75298 -3.24601 0
M  V30 448 N 41.3868 0.248026 -1.55636 0
M  V30 449 C 42.7978 0.817177 -1.67866 0
M  V30 450 C 43.1488 1.86069 -0.622322 0
M  V30 451 O 42.2738 2.15157 0.231618 0
M  V30 452 C 42.8688 1.489 -3.04326 0
M  V30 453 C 41.4278 2.00587 -3.185 0
M  V30 454 C 40.5748 0.856573 -2.63739 0
M  V30 455 H 43.5258 0.0238579 -1.58682 0
M  V30 456 H 43.5468 2.35698 -2.98708 0
M  V30 457 H 43.0588 0.729279 -3.81186 0
M  V30 458 H 41.1598 2.79443 -2.4646 0
M  V30 459 H 41.2728 2.20402 -4.25393 0
M  V30 460 H 39.6368 1.25678 -2.21534 0
M  V30 461 H 40.4198 0.109953 -3.43124 0
M  V30 462 N 42.8649 1.48995 0.513639 0
M  V30 463 C 44.1129 1.57531 1.26604 0
M  V30 464 C 44.4339 0.258236 1.93283 0
M  V30 465 O 43.7039 -0.721502 1.8213 0
M  V30 466 H 42.2839 0.580387 0.470276 0
M  V30 467 H 44.9459 1.85552 0.596373 0
M  V30 468 H 44.0419 2.36486 2.03669 0
M  V30 469 N 44.343 -0.763751 1.37857 0
M  V30 470 C 45.591 -1.51957 1.33243 0
M  V30 471 C 45.912 -1.94835 -0.0801709 0
M  V30 472 O 45.182 -1.66894 -1.02582 0
M  V30 473 H 43.762 -0.563626 0.49024 0
M  V30 474 H 46.424 -0.908504 1.7243 0
M  V30 475 H 45.52 -2.41523 1.97669 0
M  V30 476 N 45.8211 -1.22559 -0.990812 0
M  V30 477 C 46.7841 -0.998863 -2.0629 0
M  V30 478 C 47.7841 0.0354834 -1.60761 0
M  V30 479 O 48.9741 -0.203231 -1.7301 0
M  V30 480 C 46.1061 -0.509203 -3.37076 0
M  V30 481 H 47.2991 -1.95014 -2.27837 0
M  V30 482 H 44.8521 -1.04456 -1.16269 0
M  V30 483 H 45.5871 0.446335 -3.21214 0
M  V30 484 H 45.3721 -1.25547 -3.71457 0
M  V30 485 H 46.8621 -0.370888 -4.1595 0
M  V30 486 N 47.2992 1.18797 -1.03562 0
M  V30 487 C 48.5242 1.9314 -0.755764 0
M  V30 488 C 48.9492 1.7537 0.68022 0
M  V30 489 O 48.3072 1.06046 1.47051 0
M  V30 490 C 48.3552 3.42747 -1.12058 0
M  V30 491 O 47.4592 4.11683 -0.243124 0
M  V30 492 H 46.8002 0.602724 -0.278604 0
M  V30 493 H 49.3302 1.50678 -1.3841 0
M  V30 494 H 49.3402 3.93437 -1.08035 0
M  V30 495 H 48.0152 3.55002 -2.16672 0
M  V30 496 H 46.5922 3.71323 -0.342539 0
M  V30 497 N 48.7773 0.814389 1.34928 0
M  V30 498 C 49.7403 0.235759 2.27984 0
M  V30 499 C 50.7403 -0.581412 1.49921 0
M  V30 500 O 51.9303 -0.398758 1.69575 0
M  V30 501 C 49.0623 -0.670433 3.34242 0
M  V30 502 H 50.2553 1.05659 2.80671 0
M  V30 503 H 47.8083 0.585614 1.44915 0
M  V30 504 H 48.5433 -1.51466 2.86755 0
M  V30 505 H 48.3283 -0.0860822 3.92005 0
M  V30 506 H 49.8183 -1.06935 4.03676 0
M  V30 507 N 50.2554 -1.46986 0.568584 0
M  V30 508 C 51.2034 -2.31858 -0.185649 0
M  V30 509 C 52.1974 -1.43624 -0.898249 0
M  V30 510 O 53.4034 -1.60327 -0.818242 0
M  V30 511 H 49.7784 -0.747866 -0.0787399 0
M  V30 512 H 51.7494 -2.93303 0.549191 0
M  V30 513 C 50.4984 -3.26513 -1.19519 0
M  V30 514 H 49.8214 -3.94377 -0.656285 0
M  V30 515 H 51.2614 -3.88707 -1.6936 0
M  V30 516 C 49.7204 -2.50847 -2.24894 0
M  V30 517 O 50.2504 -2.26119 -3.32014 0
M  V30 518 N 48.4564 -2.11656 -1.99124 0
M  V30 519 H 48.0034 -2.31966 -1.12024 0
M  V30 520 H 47.9614 -1.61347 -2.69842 0
M  V30 521 N 51.7335 -0.305618 -1.54608 0
M  V30 522 C 52.9795 0.302746 -2.00528 0
M  V30 523 C 53.3125 1.53184 -1.19367 0
M  V30 524 O 52.5875 1.92598 -0.271321 0
M  V30 525 C 52.8705 0.654756 -3.54097 0
M  V30 526 C 52.7235 -0.583793 -4.45995 0
M  V30 527 C 54.0425 1.47947 -4.14487 0
M  V30 528 H 51.1615 0.108564 -0.72896 0
M  V30 529 H 53.8035 -0.418634 -1.85331 0
M  V30 530 H 51.9535 1.26935 -3.67178 0
M  V30 531 H 53.6255 -1.22224 -4.44814 0
M  V30 532 H 51.8685 -1.21615 -4.16404 0
M  V30 533 H 52.5395 -0.293287 -5.5122 0
M  V30 534 H 55.0155 0.96013 -4.04871 0
M  V30 535 H 53.8915 1.69454 -5.22088 0
M  V30 536 H 54.1525 2.47011 -3.66658 0
M  V30 537 N 53.2116 1.57565 -0.0334293 0
M  V30 538 C 54.4596 1.91598 0.642999 0
M  V30 539 C 54.7806 0.910847 1.7242 0
M  V30 540 O 54.0506 -0.0469931 1.95844 0
M  V30 541 H 52.6306 0.707228 0.240496 0
M  V30 542 H 55.2926 1.94726 -0.0822488 0
M  V30 543 H 54.3886 2.92336 1.09298 0
M  V30 544 N 54.6897 -0.239769 1.55765 0
M  V30 545 C 55.9357 -0.968234 1.78194 0
M  V30 546 C 56.2687 -1.84701 0.599938 0
M  V30 547 O 55.5437 -1.9031 -0.401524 0
M  V30 548 C 55.8267 -1.8227 3.10564 0
M  V30 549 C 55.6797 -0.971633 4.3918 0
M  V30 550 C 56.9987 -2.80388 3.39221 0
M  V30 551 H 54.1177 -0.350572 0.648281 0
M  V30 552 H 56.7597 -0.238259 1.885 0
M  V30 553 H 54.9097 -2.44507 3.01908 0
M  V30 554 H 56.5817 -0.367408 4.59835 0
M  V30 555 H 54.8247 -0.276276 4.32919 0
M  V30 556 H 55.4957 -1.60346 5.28198 0
M  V30 557 H 57.9717 -2.28287 3.47885 0
M  V30 558 H 56.8477 -3.3729 4.33044 0
M  V30 559 H 57.1087 -3.57212 2.60484 0
M  V30 560 N 56.1678 -1.49265 -0.50573 0
M  V30 561 C 57.4078 -1.60128 -1.27038 0
M  V30 562 C 57.7718 -0.279557 -1.89954 0
M  V30 563 O 58.9728 -0.263329 -2.67507 0
M  V30 564 C 57.2438 -2.72507 -2.31246 0
M  V30 565 S 58.8028 -3.0329 -3.17113 0
M  V30 566 H 55.6208 -0.564863 -0.4318 0
M  V30 567 H 58.2228 -1.86902 -0.573397 0
M  V30 568 H 56.9268 -3.67068 -1.83546 0
M  V30 569 H 56.4578 -2.4771 -3.05619 0
M  V30 570 H 58.4728 -2.44448 -4.31809 0
M  V30 571 N 57.6459 0.756429 -1.3826 0
M  V30 572 C 58.8919 1.51772 -1.34511 0
M  V30 573 C 59.2249 1.94089 0.0656691 0
M  V30 574 O 58.4999 1.65221 1.02626 0
M  V30 575 C 58.7829 2.77226 -2.29821 0
M  V30 576 C 58.6359 2.41065 -3.79747 0
M  V30 577 C 59.9549 3.79236 -2.23312 0
M  V30 578 H 57.0739 0.550578 -0.489931 0
M  V30 579 H 59.7159 0.866607 -1.69086 0
M  V30 580 H 57.8659 3.32784 -2.00467 0
M  V30 581 H 59.5379 1.91303 -4.19763 0
M  V30 582 H 57.7809 1.7356 -3.97567 0
M  V30 583 H 58.4519 3.3081 -4.41892 0
M  V30 584 H 60.9279 3.3321 -2.49219 0
M  V30 585 H 59.8039 4.64714 -2.92116 0
M  V30 586 H 60.0649 4.24615 -1.23102 0
M  V30 587 N 59.124 1.23083 0.984299 0
M  V30 588 C 60.087 1.00979 2.05757 0
M  V30 589 C 61.087 -0.0269573 1.60777 0
M  V30 590 O 62.277 0.212403 1.729 0
M  V30 591 C 59.409 0.527072 3.36801 0
M  V30 592 H 60.602 1.9622 2.26799 0
M  V30 593 H 58.155 1.05072 1.15714 0
M  V30 594 H 58.89 -0.429294 3.21446 0
M  V30 595 H 58.675 1.27515 3.70786 0
M  V30 596 H 60.165 0.392942 4.15747 0
M  V30 597 N 60.6021 -1.18246 1.0419 0
M  V30 598 C 62.0181 -1.40269 0.761366 0
M  V30 599 C 62.2181 -1.90777 -0.648578 0
M  V30 600 O 61.2741 -2.0929 -1.41258 0
M  V30 601 C 62.5871 -2.40237 1.8085 0
M  V30 602 C 64.1351 -2.53961 1.82955 0
M  V30 603 C 64.6101 -3.57194 2.86664 0
M  V30 604 N 66.1011 -3.64702 2.85563 0
M  V30 605 C 66.8361 -4.44309 3.6246 0
M  V30 606 N 66.3321 -5.27514 4.49111 0
M  V30 607 N 68.1251 -4.39084 3.50944 0
M  V30 608 H 60.2761 -0.837882 1.95175 0
M  V30 609 H 62.5391 -0.430608 0.84456 0
M  V30 610 H 62.2451 -2.10176 2.81991 0
M  V30 611 H 62.1191 -3.39601 1.64168 0
M  V30 612 H 64.5061 -2.83338 0.824855 0
M  V30 613 H 64.5871 -1.54706 2.03715 0
M  V30 614 H 64.2311 -3.28558 3.87314 0
M  V30 615 H 64.1611 -4.5613 2.6316 0
M  V30 616 H 66.6521 -3.05289 2.22727 0
M  V30 617 H 66.9651 -5.85411 5.04493 0
M  V30 618 H 65.3101 -5.2693 4.53178 0
M  V30 619 H 68.5011 -3.7313 2.82651 0
M  V30 620 H 68.6741 -5.00883 4.11121 0
M  V30 621 N 62.0802 -0.821533 -1.34494 0
M  V30 622 C 63.0102 -0.257138 -2.3208 0
M  V30 623 C 63.9912 0.625645 -1.58176 0
M  V30 624 O 65.1762 0.552811 -1.86166 0
M  V30 625 C 62.3062 0.582958 -3.42372 0
M  V30 626 C 61.2602 -0.202571 -4.2752 0
M  V30 627 C 60.5862 0.760179 -5.29269 0
M  V30 628 C 61.8862 -1.40998 -5.02908 0
M  V30 629 H 63.5802 -1.07247 -2.79532 0
M  V30 630 H 61.1262 -0.517163 -1.34393 0
M  V30 631 H 63.0792 0.987972 -4.09655 0
M  V30 632 H 61.8032 1.43133 -2.93565 0
M  V30 633 H 60.4622 -0.588936 -3.61838 0
M  V30 634 H 60.1102 1.60447 -4.76724 0
M  V30 635 H 59.8102 0.238809 -5.87115 0
M  V30 636 H 61.3342 1.16308 -5.9942 0
M  V30 637 H 62.7482 -1.07905 -5.63054 0
M  V30 638 H 61.1452 -1.86689 -5.70322 0
M  V30 639 H 62.2152 -2.1889 -4.32684 0
M  V30 640 N 63.5583 1.46682 -0.576371 0
M  V30 641 C 64.8063 2.02013 -0.0594163 0
M  V30 642 C 65.1273 1.45101 1.30271 0
M  V30 643 O 64.3973 0.633317 1.8538 0
M  V30 644 H 62.9773 0.746759 -0.0189745 0
M  V30 645 H 65.6393 1.79862 -0.750717 0
M  V30 646 H 64.7353 3.12097 0.014345 0
M  V30 647 N 65.0364 0.313813 1.54444 0
M  V30 648 C 66.2844 -0.291099 1.99993 0
M  V30 649 C 66.6054 -1.53418 1.20366 0
M  V30 650 O 65.8754 -1.93544 0.302927 0
M  V30 651 H 64.4554 -0.110552 0.738774 0
M  V30 652 H 67.1174 0.428106 1.9014 0
M  V30 653 H 66.2134 -0.554268 3.07139 0
M  V30 654 N 66.5145 -1.57545 0.0417849 0
M  V30 655 C 67.4245 -2.14451 -0.951213 0
M  V30 656 C 68.4405 -1.09992 -1.34825 0
M  V30 657 O 69.6165 -1.42114 -1.42708 0
M  V30 658 C 66.6815 -2.67063 -2.21084 0
M  V30 659 C 65.7425 -3.86284 -1.87304 0
M  V30 660 C 64.9755 -4.36378 -3.07261 0
M  V30 661 O 65.1985 -3.85587 -4.20332 0
M  V30 662 O 64.1325 -5.28077 -2.88822 0
M  V30 663 H 67.9585 -2.99601 -0.497287 0
M  V30 664 H 65.5435 -1.48317 -0.179567 0
M  V30 665 H 67.4255 -3.00914 -2.95006 0
M  V30 666 H 66.1005 -1.84989 -2.65633 0
M  V30 667 H 65.0075 -3.57338 -1.10727 0
M  V30 668 H 66.3405 -4.6956 -1.47562 0
M  V30 669 N 67.9926 0.231505 -1.5589 0
M  V30 670 C 69.2326 0.964533 -1.80211 0
M  V30 671 C 69.5966 1.81926 -0.613744 0
M  V30 672 O 70.7976 2.58526 -0.736045 0
M  V30 673 C 69.0686 1.78956 -3.09369 0
M  V30 674 S 70.6276 2.57959 -3.54969 0
M  V30 675 H 67.4456 0.324173 -0.632798 0
M  V30 676 H 70.0476 0.230985 -1.94131 0
M  V30 677 H 68.7516 1.15161 -3.93911 0
M  V30 678 H 68.2826 2.56559 -2.9823 0
M  V30 679 H 70.2976 3.81309 -3.17519 0
M  V30 680 N 69.4707 1.49531 0.497807 0
M  V30 681 C 70.7187 1.58865 1.24926 0
M  V30 682 C 71.0397 0.278721 1.92998 0
M  V30 683 O 70.3097 -0.702144 1.82885 0
M  V30 684 H 68.8897 0.585343 0.464094 0
M  V30 685 H 71.5517 1.86174 0.57666 0
M  V30 686 H 70.6477 2.38633 2.01149 0
M  V30 687 N 70.9488 -0.749086 1.3866 0
M  V30 688 C 72.1958 -1.50833 1.35114 0
M  V30 689 C 72.5238 -1.94415 -0.0574049 0
M  V30 690 O 71.7788 -1.66065 -1.03541 0
M  V30 691 C 72.0778 -2.7712 2.25697 0
M  V30 692 C 71.7438 -2.52477 3.73585 0
M  V30 693 C 70.4058 -2.45466 4.13884 0
M  V30 694 C 72.7578 -2.31066 4.67181 0
M  V30 695 C 70.0858 -2.15064 5.45861 0
M  V30 696 C 72.4378 -2.02183 5.9942 0
M  V30 697 C 71.1018 -1.93631 6.38798 0
M  V30 698 H 70.3718 -0.551936 0.494416 0
M  V30 699 H 73.0188 -0.860979 1.71054 0
M  V30 700 H 71.3238 -3.46528 1.82827 0
M  V30 701 H 73.0208 -3.35096 2.20254 0
M  V30 702 H 69.6108 -2.58807 3.41638 0
M  V30 703 H 73.7948 -2.35459 4.3689 0
M  V30 704 H 69.0508 -2.06954 5.75308 0
M  V30 705 H 73.2248 -1.8462 6.71482 0
M  V30 706 H 70.8518 -1.69839 7.40985 0
M  V30 707 N 72.4269 -1.23603 -0.977757 0
M  V30 708 C 73.6759 -1.06377 -1.71368 0
M  V30 709 C 73.9889 0.399062 -1.91486 0
M  V30 710 O 75.1949 0.691312 -2.62551 0
M  V30 711 C 73.6509 -1.85512 -3.08404 0
M  V30 712 C 73.2589 -3.36141 -2.96164 0
M  V30 713 C 75.0029 -1.76783 -3.85938 0
M  V30 714 C 72.9099 -4.07659 -4.28449 0
M  V30 715 H 71.8399 -0.394452 -0.642591 0
M  V30 716 H 74.4909 -1.47594 -1.09034 0
M  V30 717 H 72.8729 -1.37103 -3.71509 0
M  V30 718 H 74.0469 -3.92056 -2.42133 0
M  V30 719 H 72.3619 -3.45712 -2.32104 0
M  V30 720 H 74.9589 -2.27526 -4.83876 0
M  V30 721 H 75.3019 -0.731116 -4.0983 0
M  V30 722 H 75.8349 -2.22818 -3.2954 0
M  V30 723 H 72.5739 -5.11648 -4.09752 0
M  V30 724 H 72.0939 -3.5653 -4.82334 0
M  V30 725 H 73.7729 -4.141 -4.97122 0
M  V30 726 N 73.905 1.17692 -1.04816 0
M  V30 727 C 75.153 1.87488 -0.754497 0
M  V30 728 C 75.474 1.81205 0.720407 0
M  V30 729 O 74.744 1.23544 1.52032 0
M  V30 730 H 73.324 0.694101 -0.276102 0
M  V30 731 H 75.986 1.42793 -1.32651 0
M  V30 732 H 75.082 2.93328 -1.06606 0
M  V30 733 N 75.3831 0.828654 1.34056 0
M  V30 734 C 76.6231 0.425394 1.99924 0
M  V30 735 C 76.9871 -0.994294 1.64249 0
M  V30 736 O 78.1881 -1.50074 2.23005 0
M  V30 737 C 76.4591 0.628071 3.51838 0
M  V30 738 S 78.0181 0.318511 4.37642 0
M  V30 739 H 74.8361 0.160465 0.692656 0
M  V30 740 H 77.4381 1.07572 1.63244 0
M  V30 741 H 76.1421 1.66089 3.7529 0
M  V30 742 H 75.6731 -0.0367799 3.93383 0
M  V30 743 H 77.6881 -0.865632 4.88591 0
M  V30 744 N 76.8612 -1.46375 0.584142 0
M  V30 745 C 77.7912 -2.33103 -0.136037 0
M  V30 746 C 78.7722 -1.45431 -0.882255 0
M  V30 747 O 79.9572 -1.74246 -0.857434 0
M  V30 748 C 77.0872 -3.27731 -1.14933 0
M  V30 749 C 76.0412 -4.24855 -0.517862 0
M  V30 750 C 75.3672 -5.09001 -1.63773 0
M  V30 751 C 76.6672 -5.19439 0.545886 0
M  V30 752 H 78.3612 -2.93568 0.588086 0
M  V30 753 H 75.9072 -1.41166 0.284259 0
M  V30 754 H 77.8602 -3.87261 -1.66153 0
M  V30 755 H 76.5842 -2.65377 -1.90375 0
M  V30 756 H 75.2432 -3.6659 -0.0267361 0
M  V30 757 H 74.8912 -4.43031 -2.38185 0
M  V30 758 H 74.5912 -5.74777 -1.22085 0
M  V30 759 H 76.1152 -5.71396 -2.15266 0
M  V30 760 H 77.5292 -5.73177 0.118704 0
M  V30 761 H 75.9262 -5.93566 0.88317 0
M  V30 762 H 76.9962 -4.63285 1.43162 0
M  V30 763 N 78.3393 -0.321999 -1.54275 0
M  V30 764 C 79.5873 0.280489 -2.00144 0
M  V30 765 C 79.9083 1.52777 -1.21178 0
M  V30 766 O 79.1783 1.9338 -0.313187 0
M  V30 767 H 77.7583 0.106632 -0.73935 0
M  V30 768 H 80.4203 -0.438184 -1.8991 0
M  V30 769 H 79.5163 0.537972 -3.07428 0
M  V30 770 N 79.8174 1.5752 -0.0501392 0
M  V30 771 C 81.0944 1.83996 0.663685 0
M  V30 772 C 81.4744 0.938339 1.89099 0
M  V30 773 O 80.8224 -0.00087759 2.285 0
M  V30 774 C 81.0324 3.33702 1.02196 0
M  V30 775 C 82.3804 4.00691 1.40469 0
M  V30 776 O 83.4044 3.38321 1.11433 0
M  V30 777 O 82.2634 5.10658 1.94654 0
M  V30 778 H 79.3574 0.759385 0.32751 0
M  V30 779 H 81.9034 1.69514 -0.0794238 0
M  V30 780 H 80.6754 3.91015 0.149364 0
M  V30 781 H 80.2984 3.53368 1.82255 0
M  V30 782 N 81.2955 -0.223234 1.56011 0
M  V30 783 C 82.5725 -0.972108 1.69733 0
M  V30 784 C 82.9525 -2.02485 0.59691 0
M  V30 785 O 82.3005 -2.25037 -0.396324 0
M  V30 786 C 82.5105 -1.58407 3.10979 0
M  V30 787 C 83.8585 -2.07696 3.70334 0
M  V30 788 O 84.8825 -1.68304 3.1393 0
M  V30 789 O 83.7415 -2.80096 4.69264 0
M  V30 790 H 80.8355 -0.453993 0.691245 0
M  V30 791 H 83.3815 -0.215149 1.68331 0
M  V30 792 H 82.1535 -0.823831 3.82529 0
M  V30 793 H 81.7765 -2.40661 3.16493 0
M  V30 794 N 82.7736 -1.49793 -0.48987 0
M  V30 795 C 84.0506 -1.50348 -1.25119 0
M  V30 796 C 84.4306 -0.237466 -2.0976 0
M  V30 797 O 83.7786 0.77981 -2.14782 0
M  V30 798 C 83.9886 -2.78872 -2.09837 0
M  V30 799 C 85.3366 -3.288 -2.68655 0
M  V30 800 O 86.3606 -2.80065 -2.20096 0
M  V30 801 O 85.2196 -4.13707 -3.57083 0
M  V30 802 H 82.3136 -0.602242 -0.566775 0
M  V30 803 H 84.8596 -1.62067 -0.503229 0
M  V30 804 H 83.6316 -3.62499 -1.47343 0
M  V30 805 H 83.2546 -2.70066 -2.91805 0
M  V30 806 N 84.2517 0.741722 -1.39055 0
M  V30 807 C 85.2147 1.83733 -1.37021 0
M  V30 808 C 86.2147 1.58542 -0.268534 0
M  V30 809 O 87.4047 1.66067 -0.526076 0
M  V30 810 C 84.5367 3.2141 -1.13617 0
M  V30 811 H 85.7297 1.86941 -2.34506 0
M  V30 812 H 83.2827 0.944676 -1.24521 0
M  V30 813 H 84.0177 3.23865 -0.167863 0
M  V30 814 H 83.8027 3.4109 -1.93391 0
M  V30 815 H 85.2927 4.01477 -1.14918 0
M  V30 816 N 85.7298 1.2412 0.971189 0
M  V30 817 C 86.9778 1.07668 1.71032 0
M  V30 818 C 87.2988 -0.385797 1.91146 0
M  V30 819 O 86.5688 -1.27569 1.4867 0
M  V30 820 H 85.1488 0.395429 0.633755 0
M  V30 821 H 87.8108 1.55984 1.16855 0
M  V30 822 H 86.9068 1.57195 2.69622 0
M  V30 823 N 87.2079 -1.17134 1.05439 0
M  V30 824 C 88.6239 -1.39454 0.776201 0
M  V30 825 C 88.8239 -1.91454 -0.628307 0
M  V30 826 O 87.8799 -2.10777 -1.39031 0
M  V30 827 C 89.1929 -2.38305 1.83388 0
M  V30 828 C 90.7409 -2.52006 1.85639 0
M  V30 829 C 91.2159 -3.54133 2.90437 0
M  V30 830 N 92.7069 -3.61653 2.89415 0
M  V30 831 C 93.4419 -4.4044 3.67152 0
M  V30 832 N 92.9379 -5.22721 4.54681 0
M  V30 833 N 94.7309 -4.35337 3.55581 0
M  V30 834 H 86.8819 -0.817134 1.96053 0
M  V30 835 H 89.1449 -0.421626 0.849079 0
M  V30 836 H 88.8509 -2.07173 2.84204 0
M  V30 837 H 88.7249 -3.37841 1.67761 0
M  V30 838 H 91.1119 -2.82447 0.85486 0
M  V30 839 H 91.1929 -1.52537 2.05344 0
M  V30 840 H 90.8369 -3.24431 3.90777 0
M  V30 841 H 90.7669 -4.53313 2.67983 0
M  V30 842 H 93.2579 -3.02909 2.25952 0
M  V30 843 H 93.5709 -5.80027 5.10674 0
M  V30 844 H 91.9159 -5.22093 4.58741 0
M  V30 845 H 95.1069 -3.70112 2.86592 0
M  V30 846 H 95.2799 -4.96494 4.1641 0
M  V30 847 N 88.686 -0.835752 -1.33615 0
M  V30 848 C 89.933 -0.429959 -1.97883 0
M  V30 849 C 90.261 1.01006 -1.66217 0
M  V30 850 O 89.516 1.72047 -0.93265 0
M  V30 851 C 89.815 -0.593925 -3.52431 0
M  V30 852 C 89.481 -2.00158 -4.04039 0
M  V30 853 C 88.143 -2.38662 -4.17844 0
M  V30 854 C 90.495 -2.92117 -4.31644 0
M  V30 855 C 87.823 -3.68435 -4.56588 0
M  V30 856 C 90.175 -4.21368 -4.71838 0
M  V30 857 C 88.839 -4.59833 -4.83849 0
M  V30 858 H 88.109 -0.157333 -0.724104 0
M  V30 859 H 90.756 -1.06217 -1.59343 0
M  V30 860 H 89.061 0.121619 -3.91611 0
M  V30 861 H 90.758 -0.260282 -4.00154 0
M  V30 862 H 87.348 -1.69252 -3.93766 0
M  V30 863 H 91.532 -2.63608 -4.20505 0
M  V30 864 H 86.788 -3.98046 -4.64079 0
M  V30 865 H 90.962 -4.92703 -4.92155 0
M  V30 866 H 88.589 -5.60438 -5.13627 0
M  V30 867 N 90.1641 1.46063 -0.591896 0
M  V30 868 C 91.0941 2.33172 0.123673 0
M  V30 869 C 92.0751 1.45897 0.87453 0
M  V30 870 O 93.2601 1.74698 0.848181 0
M  V30 871 C 90.3901 3.28336 1.13194 0
M  V30 872 C 89.3441 4.25124 0.495324 0
M  V30 873 C 88.6701 5.09863 1.61071 0
M  V30 874 C 89.9701 5.19143 -0.573425 0
M  V30 875 H 91.6641 2.93252 -0.603646 0
M  V30 876 H 89.2101 1.41014 -0.291741 0
M  V30 877 H 91.1631 3.88137 1.64097 0
M  V30 878 H 89.8871 2.66383 1.88965 0
M  V30 879 H 88.5461 3.66599 0.00729452 0
M  V30 880 H 88.1941 4.44288 2.35832 0
M  V30 881 H 87.8941 5.75417 1.19035 0
M  V30 882 H 89.4181 5.72529 2.12233 0
M  V30 883 H 90.8321 5.73106 -0.1491 0
M  V30 884 H 89.2291 5.93089 -0.914636 0
M  V30 885 H 90.2991 4.62519 -1.45617 0
M  V30 886 N 91.6422 0.330177 1.54103 0
M  V30 887 C 93.0582 -0.0222371 1.59585 0
M  V30 888 C 93.2582 -1.49902 1.34654 0
M  V30 889 O 92.3142 -2.25592 1.13421 0
M  V30 890 C 93.6272 0.401932 2.98002 0
M  V30 891 C 95.1752 0.353145 3.11001 0
M  V30 892 C 95.6502 0.752576 4.51775 0
M  V30 893 N 97.1412 0.706239 4.57784 0
M  V30 894 C 97.8762 0.987417 5.64834 0
M  V30 895 N 97.3722 1.33607 6.79795 0
M  V30 896 N 99.1652 0.91254 5.54643 0
M  V30 897 H 91.3162 1.29228 1.68564 0
M  V30 898 H 93.5792 0.525906 0.78875 0
M  V30 899 H 93.2852 1.4311 3.21267 0
M  V30 900 H 93.1592 -0.229699 3.765 0
M  V30 901 H 95.5462 -0.666822 2.87467 0
M  V30 902 H 95.6272 1.0198 2.34593 0
M  V30 903 H 95.2712 1.77049 4.76042 0
M  V30 904 H 95.2012 0.0635409 5.26562 0
M  V30 905 H 97.6922 0.44889 3.75224 0
M  V30 906 H 98.0052 1.53582 7.57385 0
M  V30 907 H 96.3502 1.37439 6.81275 0
M  V30 908 H 99.5412 0.639601 4.6371 0
M  V30 909 H 99.7142 1.13503 6.37982 0
M  V30 910 N 93.1203 -1.57491 0.0584922 0
M  V30 911 C 94.0523 -2.08916 -0.942694 0
M  V30 912 C 95.0653 -1.0185 -1.27006 0
M  V30 913 O 96.2543 -1.29398 -1.22957 0
M  V30 914 C 93.3543 -2.52341 -2.26224 0
M  V30 915 C 92.5273 -3.82827 -2.1157 0
M  V30 916 C 91.5863 -4.12487 -3.26712 0
M  V30 917 O 90.6123 -4.82295 -3.02292 0
M  V30 918 N 91.8143 -3.64978 -4.5141 0
M  V30 919 H 94.5793 -2.95437 -0.503722 0
M  V30 920 H 92.1403 -1.61397 -0.12757 0
M  V30 921 H 94.1323 -2.69254 -3.02133 0
M  V30 922 H 92.7023 -1.7103 -2.61663 0
M  V30 923 H 91.9223 -3.75425 -1.20208 0
M  V30 924 H 93.2103 -4.68263 -1.99015 0
M  V30 925 H 92.6083 -3.08558 -4.7414 0
M  V30 926 H 91.1653 -3.87115 -5.2439 0
M  V30 927 N 94.5984 0.214957 -1.56127 0
M  V30 928 C 95.8444 0.939762 -1.79712 0
M  V30 929 C 96.1774 1.83723 -0.629247 0
M  V30 930 O 95.4524 1.90925 0.371197 0
M  V30 931 C 95.7354 1.77306 -3.13424 0
M  V30 932 C 95.5884 0.90164 -4.40671 0
M  V30 933 C 96.9074 2.74956 -3.43638 0
M  V30 934 H 94.0264 0.340214 -0.653776 0
M  V30 935 H 96.6684 0.20824 -1.88855 0
M  V30 936 H 94.8184 2.39673 -3.0576 0
M  V30 937 H 96.4904 0.294206 -4.60361 0
M  V30 938 H 94.7334 0.207368 -4.33304 0
M  V30 939 H 95.4044 1.51923 -5.30682 0
M  V30 940 H 97.8804 2.22724 -3.51473 0
M  V30 941 H 96.7564 3.30358 -4.38355 0
M  V30 942 H 97.0174 3.53023 -2.66134 0
M  V30 943 N 96.0765 1.50051 0.48192 0
M  V30 944 C 97.3235 1.60498 1.23477 0
M  V30 945 C 97.6515 0.300331 1.92167 0
M  V30 946 O 96.9065 -0.713094 1.82246 0
M  V30 947 C 97.2055 2.72717 2.30998 0
M  V30 948 C 96.8715 4.13572 1.79636 0
M  V30 949 C 95.5335 4.519 1.65348 0
M  V30 950 C 97.8855 5.01649 1.41412 0
M  V30 951 C 95.2135 5.76057 1.11244 0
M  V30 952 C 97.5655 6.26343 0.887538 0
M  V30 953 C 96.2295 6.63483 0.731207 0
M  V30 954 H 95.4995 0.587303 0.451836 0
M  V30 955 H 98.1465 1.83948 0.532468 0
M  V30 956 H 96.4515 2.43312 3.07094 0
M  V30 957 H 98.1485 2.78006 2.88988 0
M  V30 958 H 94.7385 3.83329 1.91721 0
M  V30 959 H 98.9225 4.72679 1.51289 0
M  V30 960 H 94.1785 6.03516 0.978686 0
M  V30 961 H 98.3525 6.93958 0.582654 0
M  V30 962 H 95.9795 7.59568 0.309806 0
M  V30 963 N 97.5546 -0.734337 1.39446 0
M  V30 964 C 98.4866 -1.85861 1.34121 0
M  V30 965 C 99.4996 -1.60871 0.249864 0
M  V30 966 O 100.689 -1.71093 0.508865 0
M  V30 967 C 97.7886 -3.21899 1.05991 0
M  V30 968 C 96.9616 -3.74239 2.26415 0
M  V30 969 C 96.0206 -4.88841 1.94733 0
M  V30 970 O 95.0466 -5.02468 2.67422 0
M  V30 971 N 96.2486 -5.73261 0.913884 0
M  V30 972 H 99.0136 -1.90934 2.31007 0
M  V30 973 H 96.5746 -0.915102 1.33557 0
M  V30 974 H 98.5666 -3.96136 0.828147 0
M  V30 975 H 97.1366 -3.12091 0.178361 0
M  V30 976 H 96.3566 -2.91347 2.65539 0
M  V30 977 H 97.6446 -4.05942 3.06738 0
M  V30 978 H 97.0426 -5.64842 0.311476 0
M  V30 979 H 95.5996 -6.47563 0.742015 0
M  V30 980 N 99.0327 -1.24633 -0.964593 0
M  V30 981 C 100.31 -0.995809 -1.68354 0
M  V30 982 C 100.69 0.480964 -2.05548 0
M  V30 983 O 100.038 1.45599 -1.76105 0
M  V30 984 C 100.248 -1.92177 -2.91323 0
M  V30 985 C 101.596 -2.19446 -3.63495 0
M  V30 986 O 102.62 -1.89855 -3.01386 0
M  V30 987 O 101.479 -2.69714 -4.75307 0
M  V30 988 H 98.5727 -0.376854 -0.736146 0
M  V30 989 H 101.119 -1.35745 -1.0184 0
M  V30 990 H 99.8907 -2.91938 -2.60553 0
M  V30 991 H 99.5137 -1.56349 -3.65569 0
M  V30 992 N 100.511 1.16574 -1.06058 0
M  V30 993 C 101.459 2.22941 -0.663343 0
M  V30 994 C 102.453 1.66358 0.319593 0
M  V30 995 O 103.659 1.7905 0.184713 0
M  V30 996 H 100.034 0.725907 -0.196376 0
M  V30 997 H 102.005 2.53736 -1.57037 0
M  V30 998 C 100.754 3.47642 -0.0632808 0
M  V30 999 H 100.077 3.91493 -0.810733 0
M  V30 1000 H 101.517 4.2363 0.177177 0
M  V30 1001 C 99.9758 3.1509 1.19248 0
M  V30 1002 O 100.506 3.30673 2.28075 0
M  V30 1003 N 98.7118 2.6924 1.09353 0
M  V30 1004 H 98.2588 2.5676 0.207912 0
M  V30 1005 H 98.2168 2.47833 1.93458 0
M  V30 1006 N 101.989 0.842826 1.3317 0
M  V30 1007 C 103.237 0.439577 1.97262 0
M  V30 1008 C 103.558 -1.00548 1.67078 0
M  V30 1009 O 102.828 -1.70098 0.971779 0
M  V30 1010 H 101.408 0.159558 0.72976 0
M  V30 1011 H 104.07 1.07665 1.62463 0
M  V30 1012 H 103.166 0.574886 3.0676 0
M  V30 1013 N 103.467 -1.45747 0.599634 0
M  V30 1014 C 104.713 -2.02592 0.0918643 0
M  V30 1015 C 105.046 -1.46806 -1.27128 0
M  V30 1016 O 104.321 -0.639658 -1.83681 0
M  V30 1017 C 104.604 -3.60073 0.0443398 0
M  V30 1018 C 104.457 -4.26208 1.43759 0
M  V30 1019 C 105.776 -4.35309 -0.647608 0
M  V30 1020 H 102.895 -0.736175 0.034857 0
M  V30 1021 H 105.537 -1.73694 0.770081 0
M  V30 1022 H 103.687 -3.84823 -0.533224 0
M  V30 1023 H 105.359 -4.12668 2.06162 0
M  V30 1024 H 103.602 -3.84916 2.00056 0
M  V30 1025 H 104.273 -5.35069 1.35665 0
M  V30 1026 H 106.749 -4.15805 -0.156776 0
M  V30 1027 H 105.625 -5.45038 -0.649942 0
M  V30 1028 H 105.886 -4.07598 -1.71219 0
M  V30 1029 N 104.945 -0.338344 -1.53925 0
M  V30 1030 C 106.222 0.314774 -1.93051 0
M  V30 1031 C 106.602 1.68669 -1.26941 0
M  V30 1032 O 105.95 2.24636 -0.418445 0
M  V30 1033 C 106.16 0.392249 -3.46789 0
M  V30 1034 C 107.508 0.645554 -4.19664 0
M  V30 1035 O 108.532 0.474575 -3.53024 0
M  V30 1036 O 107.391 0.976408 -5.37707 0
M  V30 1037 H 104.485 0.182598 -0.80659 0
M  V30 1038 H 107.031 -0.389141 -1.65178 0
M  V30 1039 H 105.803 -0.570702 -3.87116 0
M  V30 1040 H 105.426 1.14316 -3.80812 0
M  V30 1041 N 106.423 1.57458 -0.0668435 0
M  V30 1042 C 107.669 1.93587 0.6043 0
M  V30 1043 C 108.002 0.946722 1.69561 0
M  V30 1044 O 107.277 -0.0248516 1.94484 0
M  V30 1045 C 107.56 3.40014 1.18585 0
M  V30 1046 C 107.413 4.49685 0.101529 0
M  V30 1047 C 108.732 3.87154 2.09284 0
M  V30 1048 H 105.851 0.703958 0.218202 0
M  V30 1049 H 108.493 1.89542 -0.131804 0
M  V30 1050 H 106.643 3.43592 1.81319 0
M  V30 1051 H 108.315 4.5823 -0.531279 0
M  V30 1052 H 106.558 4.30059 -0.568487 0
M  V30 1053 H 107.229 5.49266 0.54874 0
M  V30 1054 H 109.705 3.85551 1.56491 0
M  V30 1055 H 108.581 4.90231 2.46911 0
M  V30 1056 H 108.842 3.2481 2.99918 0
M  V30 1057 N 107.901 -0.206675 1.56239 0
M  V30 1058 C 109.129 -0.945345 1.8404 0
M  V30 1059 C 109.544 -1.77336 0.647885 0
M  V30 1060 O 108.901 -1.78425 -0.383511 0
M  V30 1061 C 108.952 -1.8509 3.10522 0
M  V30 1062 O 108.673 -1.05634 4.25174 0
M  V30 1063 C 110.174 -2.70222 3.51418 0
M  V30 1064 H 107.394 -0.276372 0.61144 0
M  V30 1065 H 109.938 -0.217417 2.03341 0
M  V30 1066 H 108.093 -2.53259 2.93153 0
M  V30 1067 H 108.507 -1.67238 4.97124 0
M  V30 1068 H 109.981 -3.29438 4.42916 0
M  V30 1069 H 110.458 -3.43358 2.73864 0
M  V30 1070 H 111.064 -2.07443 3.71278 0
M  V30 1071 N 109.379 -1.50304 -0.473955 0
M  V30 1072 C 110.626 -1.6115 -1.22625 0
M  V30 1073 C 110.954 -0.310517 -1.92005 0
M  V30 1074 O 110.209 0.703419 -1.82621 0
M  V30 1075 C 110.508 -2.73938 -2.29549 0
M  V30 1076 C 110.174 -4.14519 -1.7744 0
M  V30 1077 C 108.836 -4.5277 -1.62949 0
M  V30 1078 C 111.188 -5.02392 -1.3875 0
M  V30 1079 C 108.516 -5.76639 -1.08187 0
M  V30 1080 C 110.868 -6.26805 -0.854309 0
M  V30 1081 C 109.532 -6.63861 -0.696011 0
M  V30 1082 H 108.802 -0.589691 -0.448715 0
M  V30 1083 H 111.449 -1.84228 -0.522705 0
M  V30 1084 H 109.754 -2.44937 -3.05799 0
M  V30 1085 H 111.451 -2.79534 -2.87509 0
M  V30 1086 H 108.041 -3.8434 -1.89685 0
M  V30 1087 H 112.225 -4.73474 -1.4878 0
M  V30 1088 H 107.481 -6.04027 -0.946666 0
M  V30 1089 H 111.655 -6.94258 -0.545843 0
M  V30 1090 H 109.282 -7.59722 -0.26952 0
M  V30 1091 N 110.857 0.726932 -1.39834 0
M  V30 1092 C 111.787 1.85405 -1.41941 0
M  V30 1093 C 112.768 1.67751 -0.281728 0
M  V30 1094 O 113.953 1.8795 -0.488717 0
M  V30 1095 C 111.083 3.23243 -1.2701 0
M  V30 1096 C 110.037 3.55549 -2.38262 0
M  V30 1097 C 109.363 4.9241 -2.08415 0
M  V30 1098 C 110.663 3.577 -3.80589 0
M  V30 1099 H 112.357 1.83899 -2.36266 0
M  V30 1100 H 109.903 0.883349 -1.13723 0
M  V30 1101 H 111.856 4.01775 -1.27103 0
M  V30 1102 H 110.58 3.25296 -0.291564 0
M  V30 1103 H 109.239 2.79351 -2.37399 0
M  V30 1104 H 108.887 4.91052 -1.0898 0
M  V30 1105 H 108.587 5.14992 -2.82943 0
M  V30 1106 H 110.111 5.73289 -2.10171 0
M  V30 1107 H 111.525 4.26293 -3.83337 0
M  V30 1108 H 109.922 3.91804 -4.54543 0
M  V30 1109 H 110.992 2.57328 -4.10987 0
M  V30 1110 N 112.336 1.25143 0.95797 0
M  V30 1111 C 113.752 1.01892 1.22842 0
M  V30 1112 C 113.952 -0.266311 1.99732 0
M  V30 1113 O 113.008 -0.979913 2.3271 0
M  V30 1114 C 114.321 2.24004 2.00606 0
M  V30 1115 C 115.869 2.28731 2.13662 0
M  V30 1116 C 116.344 3.5049 2.94823 0
M  V30 1117 N 117.835 3.50866 3.02403 0
M  V30 1118 C 118.57 4.4174 3.65586 0
M  V30 1119 N 118.066 5.42882 4.30408 0
M  V30 1120 N 119.859 4.29429 3.62694 0
M  V30 1121 H 112.01 2.07718 0.443493 0
M  V30 1122 H 114.273 0.912031 0.258657 0
M  V30 1123 H 113.979 3.17395 1.51503 0
M  V30 1124 H 113.853 2.26907 3.01319 0
M  V30 1125 H 116.24 1.35865 2.61963 0
M  V30 1126 H 116.321 2.29848 1.12265 0
M  V30 1127 H 115.965 4.43676 2.47213 0
M  V30 1128 H 115.895 3.46617 3.96439 0
M  V30 1129 H 118.386 2.777 2.56302 0
M  V30 1130 H 118.699 6.0844 4.76467 0
M  V30 1131 H 117.044 5.46758 4.29047 0
M  V30 1132 H 120.235 3.49643 3.11236 0
M  V30 1133 H 120.408 5.00448 4.1165 0
M  V30 1134 N 113.814 -1.1601 1.06675 0
M  V30 1135 C 114.744 -2.22688 0.702307 0
M  V30 1136 C 115.725 -1.67306 -0.307032 0
M  V30 1137 O 116.91 -1.93352 -0.181305 0
M  V30 1138 C 114.04 -3.47178 0.092038 0
M  V30 1139 C 112.994 -4.15477 1.02777 0
M  V30 1140 C 112.32 -5.33963 0.28061 0
M  V30 1141 C 113.62 -4.66019 2.35846 0
M  V30 1142 H 115.314 -2.53429 1.59419 0
M  V30 1143 H 112.86 -1.21813 0.767961 0
M  V30 1144 H 114.813 -4.21037 -0.174814 0
M  V30 1145 H 113.537 -3.15749 -0.834877 0
M  V30 1146 H 112.196 -3.43549 1.27944 0
M  V30 1147 H 111.844 -4.98788 -0.649545 0
M  V30 1148 H 111.544 -5.806 0.904258 0
M  V30 1149 H 113.068 -6.10596 0.021396 0
M  V30 1150 H 114.482 -5.3144 2.15045 0
M  V30 1151 H 112.879 -5.23293 2.93743 0
M  V30 1152 H 113.949 -3.82023 2.98641 0
M  V30 1153 N 115.292 -0.849877 -1.32721 0
M  V30 1154 C 116.569 -0.372405 -1.92022 0
M  V30 1155 C 116.949 1.1435 -1.77447 0
M  V30 1156 O 116.297 1.96296 -1.16962 0
M  V30 1157 C 116.507 -0.831482 -3.3895 0
M  V30 1158 C 117.855 -0.845882 -4.16089 0
M  V30 1159 O 118.879 -0.775806 -3.47649 0
M  V30 1160 O 117.738 -0.943753 -5.38289 0
M  V30 1161 H 114.832 -0.107667 -0.819961 0
M  V30 1162 H 117.378 -0.93646 -1.41522 0
M  V30 1163 H 116.15 -1.87448 -3.4348 0
M  V30 1164 H 115.773 -0.24461 -3.96847 0
M  V30 1165 N 116.77 1.45427 -0.607355 0
M  V30 1166 C 117.733 2.28974 0.101693 0
M  V30 1167 C 118.733 1.39754 0.795329 0
M  V30 1168 O 119.923 1.61878 0.643527 0
M  V30 1169 C 117.055 3.20768 1.15414 0
M  V30 1170 H 118.248 2.93147 -0.632844 0
M  V30 1171 H 115.801 1.51945 -0.366391 0
M  V30 1172 H 116.536 2.61395 1.91945 0
M  V30 1173 H 116.321 3.86489 0.66098 0
M  V30 1174 H 117.811 3.83589 1.65073 0
M  V30 1175 N 118.248 0.346503 1.53744 0
M  V30 1176 C 119.525 -0.304532 1.93215 0
M  V30 1177 C 119.905 -1.67993 1.27834 0
M  V30 1178 O 119.253 -2.24411 0.430352 0
M  V30 1179 C 119.463 -0.373852 3.46992 0
M  V30 1180 C 120.811 -0.62329 4.2 0
M  V30 1181 O 121.835 -0.455847 3.53271 0
M  V30 1182 O 120.694 -0.947879 5.38217 0
M  V30 1183 H 117.788 -0.178318 0.807547 0
M  V30 1184 H 120.334 0.397895 1.64969 0
M  V30 1185 H 119.106 0.591224 3.86808 0
M  V30 1186 H 118.729 -1.12294 3.81413 0
M  V30 1187 N 119.726 -1.57421 0.075193 0
M  V30 1188 C 120.656 -2.15942 -0.888324 0
M  V30 1189 C 121.637 -1.08737 -1.30806 0
M  V30 1190 O 122.822 -1.36787 -1.37851 0
M  V30 1191 C 119.952 -2.72379 -2.1547 0
M  V30 1192 C 118.906 -3.8478 -1.87425 0
M  V30 1193 C 118.232 -4.27834 -3.20721 0
M  V30 1194 C 119.532 -5.08869 -1.17684 0
M  V30 1195 H 121.226 -2.96705 -0.400799 0
M  V30 1196 H 118.772 -1.42723 -0.191342 0
M  V30 1197 H 120.725 -3.11965 -2.83295 0
M  V30 1198 H 119.449 -1.88841 -2.6647 0
M  V30 1199 H 118.108 -3.45703 -1.22004 0
M  V30 1200 H 117.756 -3.41214 -3.6957 0
M  V30 1201 H 117.456 -5.03605 -3.02746 0
M  V30 1202 H 118.98 -4.70039 -3.89738 0
M  V30 1203 H 120.394 -5.4575 -1.75584 0
M  V30 1204 H 118.791 -5.8994 -1.09956 0
M  V30 1205 H 119.861 -4.84648 -0.156453 0
M  V30 1206 N 121.204 0.198386 -1.56346 0
M  V30 1207 C 122.432 0.935572 -1.84539 0
M  V30 1208 C 122.847 1.76989 -0.657281 0
M  V30 1209 O 122.204 1.78626 0.374043 0
M  V30 1210 C 122.255 1.8344 -3.11499 0
M  V30 1211 O 121.976 1.03377 -4.25728 0
M  V30 1212 C 123.477 2.68355 -3.52846 0
M  V30 1213 H 120.697 0.273126 -0.612897 0
M  V30 1214 H 123.241 0.20663 -2.03453 0
M  V30 1215 H 121.396 2.51701 -2.94492 0
M  V30 1216 H 121.81 1.64599 -4.98003 0
M  V30 1217 H 123.284 3.27085 -4.44657 0
M  V30 1218 H 123.761 3.41901 -2.75681 0
M  V30 1219 H 124.367 2.05471 -3.72373 0
M  V30 1220 N 122.682 1.50554 0.465978 0
M  V30 1221 C 123.907 1.65838 1.24549 0
M  V30 1222 C 124.332 0.343486 1.84937 0
M  V30 1223 O 123.69 -0.69324 1.67523 0
M  V30 1224 C 123.738 2.75533 2.32624 0
M  V30 1225 O 122.842 2.37142 3.37398 0
M  V30 1226 H 122.183 0.553893 0.366194 0
M  V30 1227 H 124.713 1.96959 0.553927 0
M  V30 1228 H 124.723 2.98763 2.77857 0
M  V30 1229 H 123.398 3.70962 1.88043 0
M  V30 1230 H 121.975 2.24377 2.97841 0
M  V30 1231 N 124.16 -0.719506 1.40217 0
M  V30 1232 C 125.123 -1.8153 1.39927 0
M  V30 1233 C 126.123 -1.58095 0.293723 0
M  V30 1234 O 127.313 -1.65209 0.552429 0
M  V30 1235 C 124.445 -3.19561 1.18716 0
M  V30 1236 H 125.638 -1.83186 2.37451 0
M  V30 1237 H 123.191 -0.924746 1.26008 0
M  V30 1238 H 123.926 -3.23557 0.219366 0
M  V30 1239 H 123.711 -3.3797 1.98793 0
M  V30 1240 H 125.201 -3.99598 1.21291 0
M  V30 1241 N 125.638 -1.25649 -0.95132 0
M  V30 1242 C 126.884 -1.10757 -1.69884 0
M  V30 1243 C 127.217 0.350061 -1.91019 0
M  V30 1244 O 126.492 1.25783 -1.48354 0
M  V30 1245 C 126.775 -1.86606 -3.07978 0
M  V30 1246 C 126.628 -3.40217 -2.94232 0
M  V30 1247 C 127.947 -1.65182 -4.07925 0
M  V30 1248 H 125.066 -0.40374 -0.616574 0
M  V30 1249 H 127.708 -1.54521 -1.10558 0
M  V30 1250 H 125.858 -1.49409 -3.58621 0
M  V30 1251 H 127.53 -3.87108 -2.50889 0
M  V30 1252 H 125.773 -3.67759 -2.30078 0
M  V30 1253 H 126.444 -3.88505 -3.92133 0
M  V30 1254 H 128.92 -1.9757 -3.66204 0
M  V30 1255 H 127.796 -2.20683 -5.02583 0
M  V30 1256 H 128.057 -0.593933 -4.38092 0
M  V30 1257 N 127.117 1.15442 -1.07289 0
M  V30 1258 C 128.047 2.22312 -0.714107 0
M  V30 1259 C 129.028 1.67467 0.298155 0
M  V30 1260 O 130.213 1.93445 0.171048 0
M  V30 1261 C 127.343 3.47124 -0.110448 0
M  V30 1262 C 126.297 4.14926 -1.04979 0
M  V30 1263 C 125.623 5.33807 -0.308924 0
M  V30 1264 C 126.923 4.64762 -2.38314 0
M  V30 1265 H 128.617 2.5258 -1.6076 0
M  V30 1266 H 126.163 1.21404 -0.77441 0
M  V30 1267 H 128.116 4.21124 0.152482 0
M  V30 1268 H 126.84 3.16187 0.81812 0
M  V30 1269 H 125.499 3.42866 -1.29764 0
M  V30 1270 H 125.147 4.99126 0.623084 0
M  V30 1271 H 124.847 5.80113 -0.935036 0
M  V30 1272 H 126.371 6.10576 -0.0537771 0
M  V30 1273 H 127.785 5.30292 -2.1786 0
M  V30 1274 H 126.182 5.21728 -2.96514 0
M  V30 1275 H 127.252 3.80434 -3.00663 0
M  V30 1276 N 128.595 0.856903 1.32268 0
M  V30 1277 C 129.844 0.457599 1.96441 0
M  V30 1278 C 130.157 -0.992426 1.68553 0
M  V30 1279 O 131.363 -1.49727 2.26482 0
M  V30 1280 C 129.819 0.767358 3.51624 0
M  V30 1281 C 129.427 2.23326 3.88367 0
M  V30 1282 C 131.171 0.435887 4.22256 0
M  V30 1283 C 129.078 2.48613 5.36606 0
M  V30 1284 H 128.008 0.167387 0.735185 0
M  V30 1285 H 130.659 1.048 1.5063 0
M  V30 1286 H 129.041 0.106367 3.95857 0
M  V30 1287 H 130.215 2.93623 3.55137 0
M  V30 1288 H 128.53 2.52948 3.30766 0
M  V30 1289 H 131.127 0.602202 5.31298 0
M  V30 1290 H 131.47 -0.622672 4.11617 0
M  V30 1291 H 132.003 1.05286 3.83614 0
M  V30 1292 H 128.742 3.53101 5.52268 0
M  V30 1293 H 128.262 1.82896 5.71235 0
M  V30 1294 H 129.941 2.32676 6.03714 0
M  V30 1295 N 130.073 -1.45103 0.615059 0
M  V30 1296 C 131.319 -2.02483 0.113347 0
M  V30 1297 C 131.652 -1.48146 -1.25564 0
M  V30 1298 O 130.927 -0.659104 -1.82992 0
M  V30 1299 C 131.21 -3.60005 0.0825278 0
M  V30 1300 C 131.063 -4.2466 1.48271 0
M  V30 1301 C 132.382 -4.35972 -0.601401 0
M  V30 1302 H 129.501 -0.735764 0.0426632 0
M  V30 1303 H 132.143 -1.72868 0.788461 0
M  V30 1304 H 130.293 -3.85367 -0.492378 0
M  V30 1305 H 131.965 -4.10458 2.10527 0
M  V30 1306 H 130.208 -3.82772 2.04127 0
M  V30 1307 H 130.879 -5.336 1.41332 0
M  V30 1308 H 133.355 -4.15947 -0.112666 0
M  V30 1309 H 132.231 -5.45697 -0.592097 0
M  V30 1310 H 132.492 -4.09391 -1.66887 0
M  V30 1311 N 131.551 -0.354651 -1.53558 0
M  V30 1312 C 132.499 0.512195 -2.26891 0
M  V30 1313 C 133.493 1.09263 -1.29452 0
M  V30 1314 O 134.699 1.03709 -1.47121 0
M  V30 1315 H 131.074 0.183878 -0.729173 0
M  V30 1316 H 133.045 -0.128202 -2.98124 0
M  V30 1317 C 131.794 1.64563 -3.06291 0
M  V30 1318 H 131.117 1.20829 -3.81104 0
M  V30 1319 H 132.557 2.22711 -3.60799 0
M  V30 1320 C 131.016 2.58158 -2.16462 0
M  V30 1321 O 131.546 3.60695 -1.76811 0
M  V30 1322 N 129.752 2.27096 -1.81317 0
M  V30 1323 H 129.299 1.43751 -2.1376 0
M  V30 1324 H 129.257 2.89975 -1.21498 0
M  V30 1325 N 133.029 1.57378 -0.0835403 0
M  V30 1326 C 133.959 2.1641 0.87686 0
M  V30 1327 C 134.94 1.09429 1.30228 0
M  V30 1328 O 136.125 1.37516 1.37124 0
M  V30 1329 C 133.255 2.73517 2.14022 0
M  V30 1330 C 132.209 3.85769 1.85381 0
M  V30 1331 C 131.535 4.29529 3.18448 0
M  V30 1332 C 132.835 5.09486 1.14984 0
M  V30 1333 H 134.529 2.96914 0.385059 0
M  V30 1334 H 132.075 1.42823 0.18377 0
M  V30 1335 H 134.028 3.13463 2.81636 0
M  V30 1336 H 132.752 1.90252 2.65465 0
M  V30 1337 H 131.411 3.46345 1.20169 0
M  V30 1338 H 131.059 3.43169 3.67755 0
M  V30 1339 H 130.759 5.05204 3.00071 0
M  V30 1340 H 132.283 4.72099 3.8724 0
M  V30 1341 H 133.697 5.46674 1.72687 0
M  V30 1342 H 132.094 5.90515 1.06826 0
M  V30 1343 H 133.164 4.84724 0.130749 0
M  V30 1344 N 134.507 -0.190092 1.56449 0
M  V30 1345 C 135.735 -0.925772 1.85033 0
M  V30 1346 C 136.15 -1.76638 0.666658 0
M  V30 1347 O 135.507 -1.78822 -0.364565 0
M  V30 1348 C 135.558 -1.81786 3.12468 0
M  V30 1349 O 135.279 -1.01118 4.26271 0
M  V30 1350 C 136.78 -2.6648 3.54265 0
M  V30 1351 H 134 -0.269872 0.614337 0
M  V30 1352 H 136.544 -0.195837 2.0356 0
M  V30 1353 H 134.699 -2.50136 2.95822 0
M  V30 1354 H 135.113 -1.61956 4.98869 0
M  V30 1355 H 136.587 -3.24722 4.46385 0
M  V30 1356 H 137.064 -3.40434 2.77491 0
M  V30 1357 H 137.67 -2.03493 3.73458 0
M  V30 1358 N 135.985 -1.50799 -0.457987 0
M  V30 1359 C 136.948 -1.7005 -1.53674 0
M  V30 1360 C 137.948 -0.570881 -1.50325 0
M  V30 1361 O 139.138 -0.838126 -1.52712 0
M  V30 1362 C 136.27 -1.73788 -2.93276 0
M  V30 1363 H 137.463 -2.66306 -1.37917 0
M  V30 1364 H 135.016 -1.40477 -0.685271 0
M  V30 1365 H 135.751 -0.792717 -3.14462 0
M  V30 1366 H 135.536 -2.55864 -2.97113 0
M  V30 1367 H 137.026 -1.90591 -3.71571 0
M  V30 1368 N 137.463 0.71206 -1.40597 0
M  V30 1369 C 138.74 1.46536 -1.29563 0
M  V30 1370 C 139.12 2.10931 0.0844217 0
M  V30 1371 O 138.468 2.00418 1.0975 0
M  V30 1372 C 138.678 2.49821 -2.43701 0
M  V30 1373 C 140.026 3.15551 -2.841 0
M  V30 1374 O 141.05 2.60142 -2.4332 0
M  V30 1375 O 139.909 4.15867 -3.54566 0
M  V30 1376 H 137.003 0.651801 -0.509004 0
M  V30 1377 H 139.549 0.743935 -1.52524 0
M  V30 1378 H 138.321 2.00778 -3.35863 0
M  V30 1379 H 137.944 3.29495 -2.22528 0
M  V30 1380 N 138.941 1.26152 0.944643 0
M  V30 1381 C 140.189 1.11271 1.6871 0
M  V30 1382 C 140.51 -0.345166 1.91921 0
M  V30 1383 O 139.78 -1.24387 1.51343 0
M  V30 1384 H 138.36 0.408783 0.625224 0
M  V30 1385 H 141.022 1.58427 1.1352 0
M  V30 1386 H 140.118 1.62879 2.66227 0
M  V30 1387 N 140.419 -1.14872 1.07899 0
M  V30 1388 C 141.329 -2.2341 0.715915 0
M  V30 1389 C 142.345 -1.71808 -0.275306 0
M  V30 1390 O 143.521 -2.01039 -0.120545 0
M  V30 1391 C 140.586 -3.46474 0.125168 0
M  V30 1392 C 139.647 -4.13039 1.17034 0
M  V30 1393 C 138.88 -5.30229 0.607688 0
M  V30 1394 O 139.103 -5.675 -0.574497 0
M  V30 1395 O 138.037 -5.86444 1.35526 0
M  V30 1396 H 141.863 -2.56808 1.62121 0
M  V30 1397 H 139.448 -1.22702 0.852322 0
M  V30 1398 H 141.33 -4.20917 -0.201729 0
M  V30 1399 H 140.005 -3.14811 -0.753364 0
M  V30 1400 H 138.912 -3.40493 1.54968 0
M  V30 1401 H 140.245 -4.48796 2.02097 0
M  V30 1402 N 141.898 -0.863906 -1.31812 0
M  V30 1403 C 143.314 -0.555004 -1.49639 0
M  V30 1404 C 143.514 0.912266 -1.79666 0
M  V30 1405 O 142.57 1.69479 -1.87171 0
M  V30 1406 C 143.883 -1.44998 -2.63431 0
M  V30 1407 C 145.431 -1.45138 -2.77316 0
M  V30 1408 C 145.906 -2.33179 -3.94197 0
M  V30 1409 N 147.397 -2.31025 -4.01474 0
M  V30 1410 C 148.132 -2.95871 -4.9117 0
M  V30 1411 N 147.628 -3.69863 -5.8581 0
M  V30 1412 N 149.421 -2.85211 -4.84367 0
M  V30 1413 H 141.572 -1.81339 -1.10589 0
M  V30 1414 H 143.835 -0.77505 -0.545895 0
M  V30 1415 H 143.541 -2.49377 -2.48 0
M  V30 1416 H 143.415 -1.14409 -3.59431 0
M  V30 1417 H 145.802 -0.415201 -2.92164 0
M  V30 1418 H 145.883 -1.79747 -1.82001 0
M  V30 1419 H 145.527 -3.3687 -3.80107 0
M  V30 1420 H 145.457 -1.95897 -4.88807 0
M  V30 1421 H 147.948 -1.77238 -3.33759 0
M  V30 1422 H 148.261 -4.16486 -6.50968 0
M  V30 1423 H 146.606 -3.73971 -5.85808 0
M  V30 1424 H 149.797 -2.26948 -4.09405 0
M  V30 1425 H 149.97 -3.36027 -5.54066 0
M  V30 1426 N 143.376 1.44774 -0.622745 0
M  V30 1427 C 144.601 2.06999 -0.128968 0
M  V30 1428 C 145.026 1.4617 1.1839 0
M  V30 1429 O 144.384 0.560007 1.72434 0
M  V30 1430 C 144.432 3.60595 -0.0188351 0
M  V30 1431 O 143.536 3.99398 1.02739 0
M  V30 1432 H 142.877 0.659047 -0.0809544 0
M  V30 1433 H 145.407 1.85784 -0.85705 0
M  V30 1434 H 145.417 4.07627 0.174476 0
M  V30 1435 H 144.092 4.04252 -0.977384 0
M  V30 1436 H 142.669 3.64011 0.809326 0
M  V30 1437 N 144.854 0.36279 1.53368 0
M  V30 1438 C 146.101 -0.227776 2.01215 0
M  V30 1439 C 146.429 -1.49003 1.25014 0
M  V30 1440 O 145.684 -1.92876 0.331236 0
M  V30 1441 C 145.983 -0.568417 3.52851 0
M  V30 1442 C 145.649 0.59918 4.46901 0
M  V30 1443 C 144.311 0.919559 4.72332 0
M  V30 1444 C 146.663 1.38156 5.02556 0
M  V30 1445 C 143.991 2.02434 5.5067 0
M  V30 1446 C 146.343 2.47674 5.821 0
M  V30 1447 C 145.007 2.8025 6.05819 0
M  V30 1448 H 144.277 -0.083349 0.736297 0
M  V30 1449 H 146.924 0.494677 1.85001 0
M  V30 1450 H 145.229 -1.37185 3.66998 0
M  V30 1451 H 146.926 -1.03756 3.87344 0
M  V30 1452 H 143.516 0.339437 4.27254 0
M  V30 1453 H 147.7 1.14729 4.82857 0
M  V30 1454 H 142.956 2.28075 5.67267 0
M  V30 1455 H 147.13 3.08716 6.24234 0
M  V30 1456 H 144.757 3.65979 6.66306 0
M  V30 1457 N 146.332 -1.57332 0.0918853 0
M  V30 1458 C 147.56 -1.98574 -0.581048 0
M  V30 1459 C 147.975 -0.970903 -1.61923 0
M  V30 1460 O 147.332 0.0399054 -1.82456 0
M  V30 1461 C 147.383 -3.39872 -1.23164 0
M  V30 1462 O 147.104 -4.37469 -0.234989 0
M  V30 1463 C 148.605 -3.96099 -1.99049 0
M  V30 1464 H 145.825 -0.65261 -0.156018 0
M  V30 1465 H 148.369 -2.0379 0.170225 0
M  V30 1466 H 146.524 -3.35679 -1.93386 0
M  V30 1467 H 146.938 -5.19751 -0.70418 0
M  V30 1468 H 148.412 -4.97127 -2.39934 0
M  V30 1469 H 148.889 -3.3374 -2.85507 0
M  V30 1470 H 149.495 -4.03755 -1.3365 0
M  V30 1471 N 147.81 0.181792 -1.56548 0
M  V30 1472 C 149.04 0.914618 -1.85252 0
M  V30 1473 C 149.448 1.76791 -0.673914 0
M  V30 1474 O 148.791 1.80009 0.366416 0
M  V30 1475 C 148.853 1.85019 -3.08234 0
M  V30 1476 C 148.517 1.17754 -4.41569 0
M  V30 1477 C 149.514 0.548035 -5.17003 0
M  V30 1478 C 147.199 1.17742 -4.88305 0
M  V30 1479 C 149.193 -0.0726128 -6.37359 0
M  V30 1480 C 146.88 0.552946 -6.08593 0
M  V30 1481 C 147.878 -0.070978 -6.82963 0
M  V30 1482 O 147.566 -0.685635 -8.00971 0
M  V30 1483 H 147.298 0.271695 -0.618998 0
M  V30 1484 H 149.852 0.189944 -2.0452 0
M  V30 1485 H 148.082 2.61491 -2.84885 0
M  V30 1486 H 149.771 2.45195 -3.23472 0
M  V30 1487 H 150.537 0.540174 -4.81982 0
M  V30 1488 H 146.416 1.65246 -4.30366 0
M  V30 1489 H 149.96 -0.560213 -6.95347 0
M  V30 1490 H 145.857 0.558354 -6.43081 0
M  V30 1491 H 146.625 -0.58385 -8.16415 0
M  V30 1492 N 149.288 1.51039 0.449983 0
M  V30 1493 C 150.218 1.74379 1.55288 0
M  V30 1494 C 151.199 0.593236 1.5942 0
M  V30 1495 O 152.384 0.834625 1.7535 0
M  V30 1496 C 149.514 1.85728 2.93466 0
M  V30 1497 C 148.468 3.01078 3.04197 0
M  V30 1498 C 147.794 2.97595 4.44231 0
M  V30 1499 C 149.094 4.41254 2.7945 0
M  V30 1500 H 150.788 2.66725 1.36008 0
M  V30 1501 H 148.334 1.2835 0.652864 0
M  V30 1502 H 150.287 2.0064 3.70569 0
M  V30 1503 H 149.011 0.900207 3.13949 0
M  V30 1504 H 147.67 2.85851 2.29531 0
M  V30 1505 H 147.318 1.99691 4.61663 0
M  V30 1506 H 147.018 3.75046 4.52343 0
M  V30 1507 H 148.542 3.14583 5.23326 0
M  V30 1508 H 149.956 4.56897 3.46292 0
M  V30 1509 H 148.353 5.20315 2.98985 0
M  V30 1510 H 149.423 4.52164 1.75144 0
M  V30 1511 N 150.766 -0.704594 1.40972 0
M  V30 1512 C 152.012 -1.46675 1.40051 0
M  V30 1513 C 152.345 -1.94199 0.00641102 0
M  V30 1514 O 151.62 -1.68916 -0.964235 0
M  V30 1515 C 151.903 -2.68505 2.39952 0
M  V30 1516 C 151.756 -2.26805 3.88432 0
M  V30 1517 C 153.075 -3.70686 2.37233 0
M  V30 1518 H 150.194 -0.532015 0.510028 0
M  V30 1519 H 152.836 -0.803255 1.72185 0
M  V30 1520 H 150.986 -3.25114 2.1268 0
M  V30 1521 H 152.658 -1.75592 4.26574 0
M  V30 1522 H 150.901 -1.58685 4.03734 0
M  V30 1523 H 151.572 -3.14181 4.53866 0
M  V30 1524 H 154.048 -3.23731 2.61415 0
M  V30 1525 H 152.924 -4.53553 3.09162 0
M  V30 1526 H 153.185 -4.19754 1.38777 0
M  V30 1527 N 152.244 -1.26651 -0.937939 0
M  V30 1528 C 153.194 -1.05156 -2.02302 0
M  V30 1529 C 154.178 0.0171233 -1.60891 0
M  V30 1530 O 155.37 -0.200213 -1.75864 0
M  V30 1531 C 152.499 -0.689962 -3.36295 0
M  V30 1532 C 151.585 -1.79626 -3.84181 0
M  V30 1533 N 151.976 -3.03422 -4.04684 0
M  V30 1534 C 150.274 -1.6806 -4.13124 0
M  V30 1535 C 150.975 -3.75345 -4.444 0
M  V30 1536 N 149.951 -3.03051 -4.51288 0
M  V30 1537 H 153.753 -1.99117 -2.1617 0
M  V30 1538 H 151.267 -1.17216 -1.12402 0
M  V30 1539 H 153.264 -0.517112 -4.13681 0
M  V30 1540 H 151.924 0.242139 -3.23796 0
M  V30 1541 H 152.935 -3.39293 -3.91281 0
M  V30 1542 H 149.612 -0.818629 -4.09396 0
M  V30 1543 H 151.002 -4.81691 -4.68427 0
M  V30 1544 N 153.722 1.14298 -1.08507 0
M  V30 1545 C 155.133 1.66926 -0.836227 0
M  V30 1546 C 155.484 1.85576 0.63686 0
M  V30 1547 O 154.609 1.56767 1.49175 0
M  V30 1548 C 155.204 3.03219 -1.51142 0
M  V30 1549 C 153.763 3.52876 -1.30979 0
M  V30 1550 C 152.91 2.2833 -1.57356 0
M  V30 1551 H 155.861 0.983491 -1.24552 0
M  V30 1552 H 155.882 3.68726 -0.939211 0
M  V30 1553 H 155.394 2.89612 -2.58353 0
M  V30 1554 H 153.495 3.71703 -0.258429 0
M  V30 1555 H 153.608 4.33586 -2.03814 0
M  V30 1556 H 151.972 2.34454 -0.995164 0
M  V30 1557 H 152.755 2.17298 -2.65775 0
M  V30 1558 N 155.201 0.870884 1.31352 0
M  V30 1559 C 156.449 0.48132 1.96285 0
M  V30 1560 C 156.77 -0.969813 1.69173 0
M  V30 1561 O 156.04 -1.67998 1.00764 0
M  V30 1562 H 154.62 0.175002 0.726212 0
M  V30 1563 H 157.282 1.11087 1.60143 0
M  V30 1564 H 156.378 0.639825 3.05471 0
M  V30 1565 N 156.679 -1.44442 0.630414 0
M  V30 1566 C 157.642 -2.29107 -0.0652523 0
M  V30 1567 C 158.642 -1.41002 -0.772995 0
M  V30 1568 O 159.832 -1.62881 -0.617692 0
M  V30 1569 C 156.964 -3.22564 -1.10296 0
M  V30 1570 H 158.157 -2.92103 0.679401 0
M  V30 1571 H 155.71 -1.51343 0.390517 0
M  V30 1572 H 156.445 -2.64416 -1.87762 0
M  V30 1573 H 156.23 -3.87491 -0.59941 0
M  V30 1574 H 157.72 -3.86167 -1.5895 0
M  V30 1575 N 158.157 -0.370918 -1.53173 0
M  V30 1576 C 159.434 0.273754 -1.93675 0
M  V30 1577 C 159.814 1.65938 -1.3049 0
M  V30 1578 O 159.162 2.23698 -0.465999 0
M  V30 1579 C 159.372 0.318602 -3.47543 0
M  V30 1580 C 160.72 0.556392 -4.20939 0
M  V30 1581 O 161.744 0.399587 -3.53952 0
M  V30 1582 O 160.603 0.862133 -5.39657 0
M  V30 1583 H 157.697 0.165448 -0.810281 0
M  V30 1584 H 160.243 -0.42409 -1.64315 0
M  V30 1585 H 159.015 -0.652687 -3.85818 0
M  V30 1586 H 158.638 1.06212 -3.83151 0
M  V30 1587 N 159.635 1.57281 -0.100228 0
M  V30 1588 C 160.863 1.98879 0.570509 0
M  V30 1589 C 161.278 0.979476 1.61405 0
M  V30 1590 O 160.635 -0.0302288 1.82475 0
M  V30 1591 C 160.686 3.4052 1.2136 0
M  V30 1592 O 160.407 4.37588 0.211786 0
M  V30 1593 C 161.908 3.97149 1.96945 0
M  V30 1594 H 159.128 0.653428 0.152555 0
M  V30 1595 H 161.672 2.03697 -0.18103 0
M  V30 1596 H 159.827 3.367 1.91603 0
M  V30 1597 H 160.241 5.20118 0.676607 0
M  V30 1598 H 161.715 4.98393 2.37294 0
M  V30 1599 H 162.192 3.3525 2.83733 0
M  V30 1600 H 162.798 4.04458 1.31506 0
M  V30 1601 N 161.113 -0.173488 1.56642 0
M  V30 1602 C 162.343 -0.904781 1.85734 0
M  V30 1603 C 162.751 -1.76431 0.68328 0
M  V30 1604 O 162.094 -1.802 -0.356865 0
M  V30 1605 C 162.156 -1.83382 3.09211 0
M  V30 1606 C 161.82 -1.15411 4.42187 0
M  V30 1607 C 162.817 -0.520609 5.17287 0
M  V30 1608 C 160.502 -1.15151 4.88923 0
M  V30 1609 C 162.496 0.106412 6.37311 0
M  V30 1610 C 160.183 -0.520664 6.08878 0
M  V30 1611 C 161.181 0.107196 6.82916 0
M  V30 1612 O 160.869 0.728102 8.00596 0
M  V30 1613 H 160.601 -0.268408 0.62043 0
M  V30 1614 H 163.155 -0.179096 2.04618 0
M  V30 1615 H 161.385 -2.59976 2.86268 0
M  V30 1616 H 163.074 -2.43476 3.24768 0
M  V30 1617 H 163.84 -0.514606 4.82262 0
M  V30 1618 H 159.719 -1.62961 4.31236 0
M  V30 1619 H 163.263 0.597081 6.9504 0
M  V30 1620 H 159.16 -0.524242 6.43368 0
M  V30 1621 H 159.928 0.627138 8.16094 0
M  V30 1622 N 162.591 -1.51276 -0.441967 0
M  V30 1623 C 163.837 -1.63958 -1.19355 0
M  V30 1624 C 164.17 -0.352543 -1.90973 0
M  V30 1625 O 163.445 0.647627 -1.83401 0
M  V30 1626 C 163.728 -2.83979 -2.21422 0
M  V30 1627 C 163.581 -4.22646 -1.53918 0
M  V30 1628 C 164.9 -2.99521 -3.22451 0
M  V30 1629 H 162.019 -0.596709 -0.432559 0
M  V30 1630 H 164.661 -1.83748 -0.483398 0
M  V30 1631 H 162.811 -2.67237 -2.81987 0
M  V30 1632 H 164.483 -4.51045 -0.967256 0
M  V30 1633 H 162.726 -4.25558 -0.841615 0
M  V30 1634 H 163.397 -5.02609 -2.28229 0
M  V30 1635 H 165.873 -3.14944 -2.71937 0
M  V30 1636 H 164.749 -3.85072 -3.91166 0
M  V30 1637 H 165.01 -2.11391 -3.88287 0
M  V30 1638 N 164.069 0.697108 -1.41344 0
M  V30 1639 C 165.294 1.49096 -1.44171 0
M  V30 1640 C 165.719 1.88038 -0.0481568 0
M  V30 1641 O 165.077 1.54525 0.948243 0
M  V30 1642 C 165.125 2.73088 -2.3549 0
M  V30 1643 O 164.229 3.70514 -1.81088 0
M  V30 1644 H 163.57 0.448801 -0.489361 0
M  V30 1645 H 166.1 0.856992 -1.85787 0
M  V30 1646 H 166.11 3.21413 -2.51312 0
M  V30 1647 H 164.785 2.44081 -3.36745 0
M  V30 1648 H 163.362 3.29441 -1.74708 0
M  V30 1649 N 165.547 1.27147 0.931209 0
M  V30 1650 C 166.958 1.12044 1.49342 0
M  V30 1651 C 167.309 -0.295795 1.93957 0
M  V30 1652 O 166.434 -1.18835 1.80852 0
M  V30 1653 C 167.029 2.02781 2.71414 0
M  V30 1654 C 165.588 1.91794 3.2387 0
M  V30 1655 C 164.735 1.95543 1.96617 0
M  V30 1656 H 167.686 1.40091 0.745672 0
M  V30 1657 H 167.707 1.58156 3.46074 0
M  V30 1658 H 167.219 3.05848 2.38911 0
M  V30 1659 H 165.32 0.916992 3.6114 0
M  V30 1660 H 165.433 2.77852 3.90302 0
M  V30 1661 H 163.797 1.39722 2.12955 0
M  V30 1662 H 164.58 3.00259 1.66432 0
M  V30 1663 N 167.025 -1.13721 1.09112 0
M  V30 1664 C 167.957 -2.1871 0.685467 0
M  V30 1665 C 168.97 -1.60527 -0.271068 0
M  V30 1666 O 170.159 -1.78407 -0.0576148 0
M  V30 1667 C 167.259 -3.38898 -0.0111255 0
M  V30 1668 C 166.432 -4.26597 0.966131 0
M  V30 1669 C 165.491 -5.25324 0.303539 0
M  V30 1670 O 164.517 -5.61213 0.950177 0
M  V30 1671 N 165.719 -5.72779 -0.943651 0
M  V30 1672 H 168.484 -2.54126 1.58871 0
M  V30 1673 H 166.045 -1.29012 0.978143 0
M  V30 1674 H 168.037 -4.02014 -0.465517 0
M  V30 1675 H 166.607 -3.01747 -0.816565 0
M  V30 1676 H 165.827 -3.60306 1.59917 0
M  V30 1677 H 167.115 -4.82048 1.6281 0
M  V30 1678 H 166.513 -5.45762 -1.48862 0
M  V30 1679 H 165.07 -6.37847 -1.34142 0
M  V30 1680 N 168.503 -0.877838 -1.30888 0
M  V30 1681 C 169.78 -0.413052 -1.91189 0
M  V30 1682 C 170.16 1.1056 -1.79832 0
M  V30 1683 O 169.508 1.93771 -1.21099 0
M  V30 1684 C 169.718 -0.903191 -3.3711 0
M  V30 1685 C 171.066 -0.93395 -4.14201 0
M  V30 1686 O 172.09 -0.849373 -3.45925 0
M  V30 1687 O 170.949 -1.05772 -5.36167 0
M  V30 1688 H 168.043 -0.125035 -0.817493 0
M  V30 1689 H 170.589 -0.966269 -1.39504 0
M  V30 1690 H 169.361 -1.94692 -3.39427 0
M  V30 1691 H 168.984 -0.328732 -3.96239 0
M  V30 1692 N 169.982 1.44106 -0.638065 0
M  V30 1693 C 170.912 2.33448 0.0494287 0
M  V30 1694 C 171.893 1.48606 0.827672 0
M  V30 1695 O 173.078 1.77308 0.792173 0
M  V30 1696 C 170.208 3.31771 1.02691 0
M  V30 1697 C 169.162 4.26485 0.359823 0
M  V30 1698 C 168.488 5.14729 1.44769 0
M  V30 1699 C 169.788 5.17056 -0.738296 0
M  V30 1700 H 171.482 2.91183 -0.696636 0
M  V30 1701 H 169.028 1.40014 -0.336456 0
M  V30 1702 H 170.981 3.93161 1.51666 0
M  V30 1703 H 169.705 2.7226 1.80395 0
M  V30 1704 H 168.364 3.66437 -0.10934 0
M  V30 1705 H 168.012 4.51566 2.21578 0
M  V30 1706 H 167.712 5.78913 1.00668 0
M  V30 1707 H 169.236 5.78991 1.93911 0
M  V30 1708 H 170.65 5.72342 -0.331354 0
M  V30 1709 H 169.047 5.89879 -1.10286 0
M  V30 1710 H 170.117 4.57652 -1.60258 0
M  V30 1711 N 171.46 0.379036 1.52974 0
M  V30 1712 C 172.871 -0.0972525 1.86447 0
M  V30 1713 C 173.222 -1.47027 1.29914 0
M  V30 1714 O 172.347 -2.07135 0.626433 0
M  V30 1715 C 172.942 -0.183248 3.38304 0
M  V30 1716 C 171.501 -0.603812 3.71525 0
M  V30 1717 C 170.648 0.240632 2.76254 0
M  V30 1718 H 173.599 0.597316 1.4703 0
M  V30 1719 H 173.62 -1.00432 3.67006 0
M  V30 1720 H 173.132 0.816191 3.79421 0
M  V30 1721 H 171.233 -1.61099 3.35973 0
M  V30 1722 H 171.346 -0.369086 4.77676 0
M  V30 1723 H 169.71 -0.292548 2.53014 0
M  V30 1724 H 170.493 1.23786 3.20206 0
M  V30 1725 N 172.938 -1.57226 0.108567 0
M  V30 1726 C 174.349 -1.8195 -0.418464 0
M  V30 1727 C 174.7 -1.02508 -1.67292 0
M  V30 1728 O 173.825 -0.258496 -2.14851 0
M  V30 1729 C 174.42 -3.30028 -0.765979 0
M  V30 1730 C 172.979 -3.55469 -1.23769 0
M  V30 1731 C 172.126 -2.7625 -0.241106 0
M  V30 1732 H 175.077 -1.55149 0.33384 0
M  V30 1733 H 175.098 -3.44086 -1.62434 0
M  V30 1734 H 174.61 -3.87821 0.147219 0
M  V30 1735 H 172.711 -3.03022 -2.16814 0
M  V30 1736 H 172.824 -4.6408 -1.19022 0
M  V30 1737 H 171.188 -2.44133 -0.72602 0
M  V30 1738 H 171.971 -3.36797 0.665007 0
M  V30 1739 N 174.416 0.165178 -1.56732 0
M  V30 1740 C 175.663 0.880807 -1.8234 0
M  V30 1741 C 175.991 1.81977 -0.686621 0
M  V30 1742 O 175.246 1.92971 0.325697 0
M  V30 1743 C 175.545 1.70405 -3.1416 0
M  V30 1744 C 175.211 0.913475 -4.4155 0
M  V30 1745 C 173.873 0.695303 -4.7615 0
M  V30 1746 C 176.225 0.359349 -5.1996 0
M  V30 1747 C 173.553 -0.0879947 -5.86634 0
M  V30 1748 C 175.905 -0.410893 -6.31264 0
M  V30 1749 C 174.569 -0.639808 -6.64427 0
M  V30 1750 H 173.839 0.32231 -0.667231 0
M  V30 1751 H 176.486 0.145402 -1.90947 0
M  V30 1752 H 174.791 2.50903 -3.00923 0
M  V30 1753 H 176.488 2.26091 -3.31186 0
M  V30 1754 H 173.078 1.09357 -4.14414 0
M  V30 1755 H 177.262 0.515228 -4.93618 0
M  V30 1756 H 172.518 -0.27503 -6.10781 0
M  V30 1757 H 176.692 -0.847494 -6.91224 0
M  V30 1758 H 174.319 -1.24864 -7.49875 0
M  V30 1759 N 175.894 1.51508 0.433938 0
M  V30 1760 C 177.31 1.39759 0.770682 0
M  V30 1761 C 177.51 0.482594 1.95636 0
M  V30 1762 O 176.566 -0.0609691 2.52426 0
M  V30 1763 C 177.879 2.81851 1.04787 0
M  V30 1764 C 179.427 2.91025 1.1521 0
M  V30 1765 C 179.902 4.34032 1.46219 0
M  V30 1766 N 181.393 4.37154 1.53136 0
M  V30 1767 C 182.128 5.4484 1.78709 0
M  V30 1768 N 181.624 6.62682 2.02051 0
M  V30 1769 N 183.417 5.32324 1.80519 0
M  V30 1770 H 175.568 2.09548 -0.346892 0
M  V30 1771 H 177.831 0.943446 -0.0928074 0
M  V30 1772 H 177.537 3.50815 0.249304 0
M  V30 1773 H 177.411 3.21386 1.97461 0
M  V30 1774 H 179.798 2.22257 1.94128 0
M  V30 1775 H 179.879 2.54983 0.204281 0
M  V30 1776 H 179.523 5.03351 0.678274 0
M  V30 1777 H 179.453 4.6759 2.42212 0
M  V30 1778 H 181.944 3.52197 1.36987 0
M  V30 1779 H 182.257 7.40543 2.20943 0
M  V30 1780 H 180.602 6.65791 1.99366 0
M  V30 1781 H 183.793 4.39246 1.61805 0
M  V30 1782 H 183.966 6.16328 2.00111 0
M  V30 1783 N 177.372 -0.689602 1.41712 0
M  V30 1784 C 178.304 -1.815 1.39966 0
M  V30 1785 C 179.317 -1.59995 0.300917 0
M  V30 1786 O 180.506 -1.69387 0.563039 0
M  V30 1787 C 177.606 -3.18364 1.16179 0
M  V30 1788 C 176.779 -3.66847 2.38206 0
M  V30 1789 C 175.838 -4.82398 2.10186 0
M  V30 1790 O 174.864 -4.93706 2.83272 0
M  V30 1791 N 176.066 -5.70064 1.0958 0
M  V30 1792 H 178.831 -1.83488 2.36965 0
M  V30 1793 H 176.392 -0.872149 1.36401 0
M  V30 1794 H 178.384 -3.93301 0.953756 0
M  V30 1795 H 176.954 -3.11365 0.27756 0
M  V30 1796 H 176.174 -2.82751 2.74673 0
M  V30 1797 H 177.462 -3.95978 3.19498 0
M  V30 1798 H 176.86 -5.63565 0.491019 0
M  V30 1799 H 175.417 -6.44874 0.947656 0
M  V30 1800 N 178.85 -1.27639 -0.924453 0
M  V30 1801 C 180.08 -1.16819 -1.70402 0
M  V30 1802 C 180.488 0.277191 -1.87158 0
M  V30 1803 O 179.831 1.20025 -1.39067 0
M  V30 1804 C 179.893 -1.78305 -3.12166 0
M  V30 1805 C 179.557 -3.27502 -3.18734 0
M  V30 1806 C 180.554 -4.2409 -3.00738 0
M  V30 1807 C 178.239 -3.68269 -3.4159 0
M  V30 1808 C 180.233 -5.59422 -3.05492 0
M  V30 1809 C 177.92 -5.0373 -3.45977 0
M  V30 1810 C 178.918 -5.99116 -3.27946 0
M  V30 1811 O 178.606 -7.32108 -3.32074 0
M  V30 1812 H 178.338 -0.406931 -0.539799 0
M  V30 1813 H 180.892 -1.69078 -1.16626 0
M  V30 1814 H 179.122 -1.20528 -3.67437 0
M  V30 1815 H 180.811 -1.62154 -3.72103 0
M  V30 1816 H 181.577 -3.93931 -2.82919 0
M  V30 1817 H 177.456 -2.94496 -3.54673 0
M  V30 1818 H 181 -6.33852 -2.91337 0
M  V30 1819 H 176.897 -5.33543 -3.63321 0
M  V30 1820 H 177.665 -7.40598 -3.48507 0
M  V30 1821 N 180.328 1.1314 -1.09713 0
M  V30 1822 C 181.238 2.22242 -0.751367 0
M  V30 1823 C 182.254 1.72224 0.247938 0
M  V30 1824 O 183.43 2.01205 0.0885463 0
M  V30 1825 C 180.495 3.46231 -0.180274 0
M  V30 1826 C 179.556 4.11125 -1.2359 0
M  V30 1827 C 178.789 5.29195 -0.691966 0
M  V30 1828 O 179.012 5.68342 0.48414 0
M  V30 1829 O 177.946 5.84214 -1.44838 0
M  V30 1830 H 181.772 2.54197 -1.66186 0
M  V30 1831 H 179.357 1.21331 -0.871735 0
M  V30 1832 H 181.239 4.21185 0.134739 0
M  V30 1833 H 179.914 3.1597 0.703185 0
M  V30 1834 H 178.821 3.37985 -1.60366 0
M  V30 1835 H 180.154 4.45524 -2.09211 0
M  V30 1836 N 181.806 0.884767 1.30421 0
M  V30 1837 C 183.052 0.513218 1.96819 0
M  V30 1838 C 183.407 -0.927347 1.68577 0
M  V30 1839 O 182.7 -1.64644 0.979941 0
M  V30 1840 C 182.894 0.724318 3.49983 0
M  V30 1841 C 182.723 2.18385 3.93113 0
M  V30 1842 C 181.493 2.82839 4.18725 0
M  V30 1843 C 183.691 3.15763 4.05953 0
M  V30 1844 N 181.673 4.1939 4.48314 0
M  V30 1845 C 183.044 4.37387 4.39423 0
M  V30 1846 C 185.099 3.11555 3.88379 0
M  V30 1847 C 183.802 5.55343 4.5715 0
M  V30 1848 C 185.828 4.28782 4.07308 0
M  V30 1849 C 185.19 5.49172 4.41123 0
M  V30 1850 H 181.289 0.237123 0.745182 0
M  V30 1851 H 183.873 1.14246 1.57658 0
M  V30 1852 H 182.044 0.124565 3.882 0
M  V30 1853 H 183.776 0.31969 4.03435 0
M  V30 1854 H 180.531 2.33708 4.11919 0
M  V30 1855 H 180.955 4.89911 4.67243 0
M  V30 1856 H 185.597 2.19576 3.61312 0
M  V30 1857 H 183.315 6.47826 4.8306 0
M  V30 1858 H 186.901 4.26995 3.95179 0
M  V30 1859 H 185.781 6.38371 4.55469 0
M  V30 1860 N 183.284 -1.43765 0.645699 0
M  V30 1861 C 184.531 -2.01898 0.15604 0
M  V30 1862 C 184.859 -1.50887 -1.22733 0
M  V30 1863 O 184.114 -0.689271 -1.8316 0
M  V30 1864 C 184.413 -3.57238 0.107679 0
M  V30 1865 C 184.079 -4.27564 1.43178 0
M  V30 1866 C 182.741 -4.46492 1.7944 0
M  V30 1867 C 185.093 -4.67454 2.30513 0
M  V30 1868 C 182.421 -5.02573 3.02716 0
M  V30 1869 C 184.773 -5.24901 3.53074 0
M  V30 1870 C 183.437 -5.42046 3.89541 0
M  V30 1871 H 182.707 -0.738797 0.057099 0
M  V30 1872 H 185.354 -1.72341 0.834912 0
M  V30 1873 H 183.659 -3.86293 -0.654618 0
M  V30 1874 H 185.356 -3.99965 -0.287938 0
M  V30 1875 H 181.946 -4.13171 1.13963 0
M  V30 1876 H 186.13 -4.5253 2.0379 0
M  V30 1877 H 181.386 -5.14033 3.31028 0
M  V30 1878 H 185.56 -5.54758 4.20971 0
M  V30 1879 H 183.187 -5.85268 4.85145 0
M  V30 1880 N 184.763 -0.387143 -1.52771 0
M  V30 1881 C 185.993 0.195585 -2.05672 0
M  V30 1882 C 186.401 1.41241 -1.25887 0
M  V30 1883 O 185.744 1.81265 -0.298081 0
M  V30 1884 C 185.806 0.632327 -3.53895 0
M  V30 1885 C 185.47 -0.470739 -4.54569 0
M  V30 1886 C 186.467 -1.32746 -5.02667 0
M  V30 1887 C 184.152 -0.637151 -4.98243 0
M  V30 1888 C 186.146 -2.33574 -5.93061 0
M  V30 1889 C 183.833 -1.64877 -5.88438 0
M  V30 1890 C 184.831 -2.49649 -6.35739 0
M  V30 1891 O 184.519 -3.49082 -7.24153 0
M  V30 1892 H 184.251 0.033658 -0.675162 0
M  V30 1893 H 186.805 -0.550221 -1.97893 0
M  V30 1894 H 185.035 1.43008 -3.59285 0
M  V30 1895 H 186.724 1.14048 -3.89548 0
M  V30 1896 H 187.49 -1.21019 -4.69659 0
M  V30 1897 H 183.369 0.0129567 -4.60998 0
M  V30 1898 H 186.913 -2.99777 -6.29904 0
M  V30 1899 H 182.81 -1.76643 -6.2086 0
M  V30 1900 H 183.578 -3.45065 -7.42208 0
M  V30 1901 N 186.241 1.57166 -0.116904 0
M  V30 1902 C 187.488 1.95123 0.541603 0
M  V30 1903 C 187.816 1.00006 1.6682 0
M  V30 1904 O 187.071 0.0235658 1.95686 0
M  V30 1905 C 187.37 3.39508 1.11664 0
M  V30 1906 C 187.036 4.50762 0.111606 0
M  V30 1907 C 185.698 4.80918 -0.164758 0
M  V30 1908 C 188.05 5.18036 -0.573438 0
M  V30 1909 C 185.378 5.75666 -1.13249 0
M  V30 1910 C 187.73 6.13824 -1.52978 0
M  V30 1911 C 186.394 6.42374 -1.81415 0
M  V30 1912 H 185.664 0.714005 0.198187 0
M  V30 1913 H 188.311 1.9048 -0.197365 0
M  V30 1914 H 186.616 3.40835 1.93232 0
M  V30 1915 H 188.313 3.66189 1.63422 0
M  V30 1916 H 184.903 4.27272 0.337192 0
M  V30 1917 H 189.087 4.94896 -0.373092 0
M  V30 1918 H 184.343 5.96092 -1.35958 0
M  V30 1919 H 188.517 6.65039 -2.06629 0
M  V30 1920 H 186.144 7.15599 -2.56557 0
M  V30 1921 N 187.719 -0.156864 1.56817 0
M  V30 1922 C 188.944 -0.890331 1.87318 0
M  V30 1923 C 189.369 -1.74394 0.704855 0
M  V30 1924 O 188.727 -1.77972 -0.345786 0
M  V30 1925 C 188.775 -1.73102 3.16336 0
M  V30 1926 O 187.879 -2.83422 2.99576 0
M  V30 1927 H 187.22 -0.24857 0.615718 0
M  V30 1928 H 189.75 -0.150649 2.04045 0
M  V30 1929 H 189.76 -2.12803 3.48107 0
M  V30 1930 H 188.435 -1.10412 4.00976 0
M  V30 1931 H 187.012 -2.47199 2.7919 0
M  V30 1932 N 189.197 -1.51736 -0.425897 0
M  V30 1933 C 190.422 -1.69082 -1.20108 0
M  V30 1934 C 190.847 -0.392398 -1.83962 0
M  V30 1935 O 190.205 0.64858 -1.69302 0
M  V30 1936 C 190.253 -2.81604 -2.25237 0
M  V30 1937 O 189.357 -2.46004 -3.30992 0
M  V30 1938 H 188.698 -0.563408 -0.35138 0
M  V30 1939 H 191.228 -1.98358 -0.501512 0
M  V30 1940 H 191.238 -3.06025 -2.69838 0
M  V30 1941 H 189.913 -3.75817 -1.78142 0
M  V30 1942 H 188.49 -2.32195 -2.91787 0
M  V30 1943 N 190.675 0.682077 -1.42076 0
M  V30 1944 C 191.924 1.43786 -1.41451 0
M  V30 1945 C 192.237 1.95574 -0.0317074 0
M  V30 1946 O 193.443 2.71326 0.0971462 0
M  V30 1947 C 191.899 2.60071 -2.48779 0
M  V30 1948 C 191.507 2.15013 -3.93031 0
M  V30 1949 C 193.251 3.37626 -2.57311 0
M  V30 1950 C 191.158 3.28336 -4.91883 0
M  V30 1951 H 190.088 0.540143 -0.526082 0
M  V30 1952 H 192.739 0.739157 -1.67955 0
M  V30 1953 H 191.121 3.32275 -2.15429 0
M  V30 1954 H 192.295 1.5001 -4.35699 0
M  V30 1955 H 190.61 1.50416 -3.88284 0
M  V30 1956 H 193.207 4.22012 -3.28345 0
M  V30 1957 H 193.55 3.83727 -1.61429 0
M  V30 1958 H 194.083 2.72488 -2.89819 0
M  V30 1959 H 190.822 2.87234 -5.89217 0
M  V30 1960 H 190.342 3.92145 -4.53853 0
M  V30 1961 H 192.021 3.93913 -5.13265 0
M  V30 1962 N 192.153 1.28127 0.917671 0
M  V30 1963 C 193.401 1.14825 1.66312 0
M  V30 1964 C 193.722 -0.304379 1.9261 0
M  V30 1965 O 192.992 -1.21149 1.53947 0
M  V30 1966 H 191.572 0.421953 0.616413 0
M  V30 1967 H 194.234 1.608 1.10134 0
M  V30 1968 H 193.33 1.68489 2.62712 0
M  V30 1969 N 193.631 -1.12557 1.10312 0
M  V30 1970 C 194.561 -2.20341 0.772798 0
M  V30 1971 C 195.542 -1.68198 -0.25365 0
M  V30 1972 O 196.727 -1.93831 -0.119699 0
M  V30 1973 C 193.857 -3.46709 0.202443 0
M  V30 1974 C 192.811 -4.11996 1.15943 0
M  V30 1975 C 192.137 -5.328 0.450345 0
M  V30 1976 C 193.437 -4.5828 2.50552 0
M  V30 1977 H 195.131 -2.48229 1.674 0
M  V30 1978 H 192.677 -1.19308 0.806326 0
M  V30 1979 H 194.63 -4.2138 -0.0407752 0
M  V30 1980 H 193.354 -3.18245 -0.734001 0
M  V30 1981 H 192.013 -3.39305 1.38808 0
M  V30 1982 H 191.661 -5.00602 -0.490531 0
M  V30 1983 H 191.361 -5.7743 1.08851 0
M  V30 1984 H 192.885 -6.10219 0.215642 0
M  V30 1985 H 194.299 -5.2433 2.31843 0
M  V30 1986 H 192.696 -5.13683 3.10242 0
M  V30 1987 H 193.766 -3.72329 3.10643 0
M  V30 1988 N 195.109 -0.891671 -1.2995 0
M  V30 1989 C 196.337 -0.52866 -2.00032 0
M  V30 1990 C 196.752 0.884574 -1.66795 0
M  V30 1991 O 196.109 1.5827 -0.908669 0
M  V30 1992 C 196.16 -0.701814 -3.54622 0
M  V30 1993 O 195.881 -2.05942 -3.86678 0
M  V30 1994 C 197.382 -0.342683 -4.41973 0
M  V30 1995 H 194.602 -0.203659 -0.639347 0
M  V30 1996 H 197.146 -1.19881 -1.65677 0
M  V30 1997 H 195.301 -0.0789468 -3.8732 0
M  V30 1998 H 195.715 -2.08291 -4.81368 0
M  V30 1999 H 197.189 -0.514709 -5.49595 0
M  V30 2000 H 197.666 0.71975 -4.33262 0
M  V30 2001 H 198.272 -0.942154 -4.14733 0
M  V30 2002 N 196.587 1.43421 -0.653314 0
M  V30 2003 C 197.864 1.95361 -0.0966581 0
M  V30 2004 C 198.244 1.59461 1.38331 0
M  V30 2005 O 197.592 0.879777 2.10884 0
M  V30 2006 C 197.802 3.47311 -0.342988 0
M  V30 2007 C 199.15 4.23875 -0.24798 0
M  V30 2008 O 200.174 3.55133 -0.275553 0
M  V30 2009 O 199.033 5.4623 -0.171771 0
M  V30 2010 H 196.127 0.826945 0.00956291 0
M  V30 2011 H 198.673 1.5336 -0.726558 0
M  V30 2012 H 197.445 3.66569 -1.36906 0
M  V30 2013 H 197.068 3.9631 0.319975 0
M  V30 2014 N 198.065 0.39524 1.52563 0
M  V30 2015 C 199.481 0.0454682 1.59535 0
M  V30 2016 C 199.681 -1.44056 1.4089 0
M  V30 2017 O 198.737 -2.20579 1.22888 0
M  V30 2018 C 200.05 0.527963 2.96029 0
M  V30 2019 C 201.598 0.484733 3.09224 0
M  V30 2020 C 202.073 0.943512 4.48176 0
M  V30 2021 N 203.564 0.899765 4.54377 0
M  V30 2022 C 204.299 1.22609 5.60138 0
M  V30 2023 N 203.795 1.62319 6.73516 0
M  V30 2024 N 205.588 1.14696 5.50274 0
M  V30 2025 H 197.739 1.36261 1.62931 0
M  V30 2026 H 200.002 0.558887 0.765735 0
M  V30 2027 H 199.708 1.56607 3.14908 0
M  V30 2028 H 199.582 -0.0698056 3.77135 0
M  V30 2029 H 201.969 -0.544298 2.90037 0
M  V30 2030 H 202.05 1.11838 2.30056 0
M  V30 2031 H 201.694 1.9708 4.68104 0
M  V30 2032 H 201.624 0.286817 5.25818 0
M  V30 2033 H 204.115 0.607632 3.72983 0
M  V30 2034 H 204.428 1.85567 7.5019 0
M  V30 2035 H 202.773 1.66211 6.74833 0
M  V30 2036 H 205.964 0.835701 4.6058 0
M  V30 2037 H 206.137 1.40459 6.32594 0
M  V30 2038 N 199.544 -1.57102 0.125237 0
M  V30 2039 C 200.955 -1.82384 -0.399142 0
M  V30 2040 C 201.306 -1.04276 -1.66195 0
M  V30 2041 O 200.431 -0.281269 -2.14564 0
M  V30 2042 C 201.026 -3.30821 -0.730932 0
M  V30 2043 C 199.585 -3.56762 -1.19992 0
M  V30 2044 C 198.732 -2.7649 -0.211792 0
M  V30 2045 H 201.683 -1.54786 0.350277 0
M  V30 2046 H 201.704 -3.4579 -1.58775 0
M  V30 2047 H 201.216 -3.87643 0.188345 0
M  V30 2048 H 199.317 -3.05305 -2.13588 0
M  V30 2049 H 199.43 -4.65317 -1.14093 0
M  V30 2050 H 197.794 -2.4489 -0.700085 0
M  V30 2051 H 198.577 -3.36073 0.700691 0
M  V30 2052 N 201.022 0.148545 -1.56898 0
M  V30 2053 C 201.985 1.16736 -1.97244 0
M  V30 2054 C 202.985 1.35947 -0.858777 0
M  V30 2055 O 204.175 1.32966 -1.12542 0
M  V30 2056 C 201.307 2.52798 -2.28705 0
M  V30 2057 H 202.5 0.821279 -2.88435 0
M  V30 2058 H 200.053 0.391831 -1.51309 0
M  V30 2059 H 200.788 2.92381 -1.403 0
M  V30 2060 H 200.573 2.40216 -3.09901 0
M  V30 2061 H 202.063 3.26179 -2.60762 0
M  V30 2062 N 202.5 1.5196 0.417844 0
M  V30 2063 C 203.916 1.40569 0.755816 0
M  V30 2064 C 204.116 0.503316 1.95113 0
M  V30 2065 O 203.172 -0.0341925 2.52477 0
M  V30 2066 C 204.485 2.82947 1.01791 0
M  V30 2067 C 206.033 2.92231 1.12116 0
M  V30 2068 C 206.508 4.35559 1.41608 0
M  V30 2069 N 207.999 4.38753 1.48491 0
M  V30 2070 C 208.734 5.46705 1.7292 0
M  V30 2071 N 208.23 6.64788 1.95011 0
M  V30 2072 N 210.023 5.34209 1.74863 0
M  V30 2073 H 202.174 2.09168 -0.369098 0
M  V30 2074 H 204.437 0.942409 -0.102809 0
M  V30 2075 H 204.143 3.5106 0.212081 0
M  V30 2076 H 204.017 3.23462 1.94042 0
M  V30 2077 H 206.404 2.24304 1.9176 0
M  V30 2078 H 206.485 2.55185 0.177225 0
M  V30 2079 H 206.129 5.04042 0.624848 0
M  V30 2080 H 206.059 4.70133 2.37239 0
M  V30 2081 H 208.55 3.5363 1.33244 0
M  V30 2082 H 208.863 7.42845 2.13076 0
M  V30 2083 H 207.208 6.67869 1.92293 0
M  V30 2084 H 210.399 4.40937 1.57137 0
M  V30 2085 H 210.572 6.18415 1.93563 0
M  V30 2086 N 203.978 -0.674533 1.42435 0
M  V30 2087 C 204.888 -1.81751 1.48337 0
M  V30 2088 C 205.904 -1.69975 0.372099 0
M  V30 2089 O 207.08 -1.91521 0.62304 0
M  V30 2090 C 204.145 -3.17895 1.38361 0
M  V30 2091 C 203.206 -3.41625 2.59982 0
M  V30 2092 C 202.439 -4.71274 2.50473 0
M  V30 2093 O 202.662 -5.49197 1.54075 0
M  V30 2094 O 201.596 -4.96254 3.4061 0
M  V30 2095 H 205.422 -1.79728 2.44809 0
M  V30 2096 H 203.007 -0.830312 1.24202 0
M  V30 2097 H 204.889 -3.99136 1.35161 0
M  V30 2098 H 203.564 -3.20555 0.450144 0
M  V30 2099 H 202.471 -2.60231 2.68757 0
M  V30 2100 H 203.804 -3.43796 3.52229 0
M  V30 2101 N 205.456 -1.28612 -0.910864 0
M  V30 2102 C 206.419 -1.12803 -1.9952 0
M  V30 2103 C 207.419 -0.0668264 -1.60661 0
M  V30 2104 O 208.609 -0.312847 -1.71368 0
M  V30 2105 C 205.741 -0.72254 -3.33155 0
M  V30 2106 H 206.934 -2.09109 -2.14973 0
M  V30 2107 H 204.487 -1.11639 -1.09391 0
M  V30 2108 H 205.222 0.241152 -3.23402 0
M  V30 2109 H 205.007 -1.48916 -3.62721 0
M  V30 2110 H 206.497 -0.634666 -4.12749 0
M  V30 2111 N 206.934 1.1197 -1.10907 0
M  V30 2112 C 208.174 1.85224 -0.864378 0
M  V30 2113 C 208.538 1.82411 0.599178 0
M  V30 2114 O 209.739 2.51057 0.960416 0
M  V30 2115 C 208.01 3.2868 -1.40371 0
M  V30 2116 S 209.569 4.1925 -1.29518 0
M  V30 2117 H 206.387 0.63878 -0.312219 0
M  V30 2118 H 208.989 1.3485 -1.41548 0
M  V30 2119 H 207.693 3.28289 -2.46281 0
M  V30 2120 H 207.224 3.84121 -0.849402 0
M  V30 2121 H 209.239 4.95539 -0.256059 0
M  V30 2122 N 208.412 0.89855 1.29475 0
M  V30 2123 C 209.342 0.39201 2.30186 0
M  V30 2124 C 210.323 -0.532359 1.61555 0
M  V30 2125 O 211.508 -0.443331 1.89072 0
M  V30 2126 C 208.638 -0.382353 3.45189 0
M  V30 2127 C 207.592 0.451483 4.25612 0
M  V30 2128 C 206.918 -0.450307 5.328 0
M  V30 2129 C 208.218 1.70079 4.93832 0
M  V30 2130 H 209.912 1.23362 2.72804 0
M  V30 2131 H 207.458 0.594638 1.31149 0
M  V30 2132 H 209.411 -0.747451 4.14718 0
M  V30 2133 H 208.135 -1.25774 3.01411 0
M  V30 2134 H 206.794 0.798897 3.57789 0
M  V30 2135 H 206.442 -1.32379 4.85268 0
M  V30 2136 H 206.142 0.103902 5.87508 0
M  V30 2137 H 207.666 -0.811623 6.05182 0
M  V30 2138 H 209.08 1.40549 5.55805 0
M  V30 2139 H 207.477 2.19623 5.58467 0
M  V30 2140 H 208.547 2.43744 4.19186 0
M  V30 2141 N 209.89 -1.43072 0.660911 0
M  V30 2142 C 210.8 -2.34585 -0.0264163 0
M  V30 2143 C 211.816 -1.54316 -0.803898 0
M  V30 2144 O 212.992 -1.86939 -0.749391 0
M  V30 2145 C 210.057 -3.32689 -0.975639 0
M  V30 2146 C 209.118 -4.2886 -0.194236 0
M  V30 2147 C 208.351 -5.22278 -1.09825 0
M  V30 2148 O 208.574 -5.20299 -2.33763 0
M  V30 2149 O 207.508 -5.99228 -0.566513 0
M  V30 2150 H 211.334 -2.94869 0.727034 0
M  V30 2151 H 208.919 -1.43342 0.42111 0
M  V30 2152 H 210.801 -3.92995 -1.52094 0
M  V30 2153 H 209.476 -2.74898 -1.70918 0
M  V30 2154 H 208.383 -3.72011 0.394835 0
M  V30 2155 H 209.716 -4.89655 0.499899 0
M  V30 2156 N 211.368 -0.403325 -1.52352 0
M  V30 2157 C 212.616 0.174003 -2.0135 0
M  V30 2158 C 212.937 1.46139 -1.29106 0
M  V30 2159 O 212.207 1.91448 -0.415253 0
M  V30 2160 H 210.787 0.0672911 -0.743963 0
M  V30 2161 H 213.449 -0.538235 -1.87321 0
M  V30 2162 H 212.545 0.374254 -3.09848 0
M  V30 2163 N 212.846 1.57033 -0.133567 0
M  V30 2164 C 213.809 2.14897 0.796995 0
M  V30 2165 C 214.809 1.0874 1.18458 0
M  V30 2166 O 215.999 1.34446 1.1077 0
M  V30 2167 C 213.131 2.70112 2.07973 0
M  V30 2168 H 214.324 2.98457 0.293873 0
M  V30 2169 H 211.877 1.55871 0.115787 0
M  V30 2170 H 212.612 1.9018 2.62682 0
M  V30 2171 H 212.397 3.47764 1.81115 0
M  V30 2172 H 213.887 3.14738 2.74462 0
M  V30 2173 N 214.325 -0.140222 1.56975 0
M  V30 2174 C 215.741 -0.493088 1.51792 0
M  V30 2175 C 215.941 -1.83013 0.843116 0
M  V30 2176 O 214.997 -2.49041 0.416493 0
M  V30 2177 C 216.31 -0.497144 2.96562 0
M  V30 2178 C 217.858 -0.582186 3.07538 0
M  V30 2179 C 218.333 -0.616838 4.53827 0
M  V30 2180 N 219.824 -0.678873 4.58198 0
M  V30 2181 C 220.559 -0.726782 5.68775 0
M  V30 2182 N 220.055 -0.733623 6.88905 0
M  V30 2183 N 221.848 -0.768179 5.56826 0
M  V30 2184 H 213.999 0.736108 1.99237 0
M  V30 2185 H 216.262 0.269182 0.90898 0
M  V30 2186 H 215.968 0.417217 3.49217 0
M  V30 2187 H 215.842 -1.33263 3.52875 0
M  V30 2188 H 218.229 -1.48697 2.54899 0
M  V30 2189 H 218.31 0.280581 2.54257 0
M  V30 2190 H 217.954 0.283812 5.07106 0
M  V30 2191 H 217.884 -1.49619 5.04898 0
M  V30 2192 H 220.375 -0.68061 3.7172 0
M  V30 2193 H 220.688 -0.772215 7.68932 0
M  V30 2194 H 219.033 -0.701389 6.91452 0
M  V30 2195 H 222.224 -0.760051 4.61888 0
M  V30 2196 H 222.397 -0.80205 6.43017 0
M  V30 2197 N 215.803 -1.52179 -0.40978 0
M  V30 2198 C 217.219 -1.40968 -0.74835 0
M  V30 2199 C 217.419 -0.513657 -1.94843 0
M  V30 2200 O 216.475 0.0208026 -2.52491 0
M  V30 2201 C 217.788 -2.83483 -1.0029 0
M  V30 2202 C 219.336 -2.92821 -1.10565 0
M  V30 2203 C 219.811 -4.36303 -1.39296 0
M  V30 2204 N 221.302 -4.39535 -1.46162 0
M  V30 2205 C 222.037 -5.47614 -1.70018 0
M  V30 2206 N 221.533 -6.65812 -1.91483 0
M  V30 2207 N 223.326 -5.35129 -1.72027 0
M  V30 2208 H 215.477 -2.0897 0.380186 0
M  V30 2209 H 217.74 -0.94185 0.107805 0
M  V30 2210 H 217.446 -3.51168 -0.193461 0
M  V30 2211 H 217.32 -3.24487 -1.92323 0
M  V30 2212 H 219.707 -2.25318 -1.90568 0
M  V30 2213 H 219.788 -2.55276 -0.16369 0
M  V30 2214 H 219.432 -5.04366 -0.598109 0
M  V30 2215 H 219.362 -4.71385 -2.34743 0
M  V30 2216 H 221.853 -3.54332 -1.31367 0
M  V30 2217 H 222.166 -7.43964 -2.09134 0
M  V30 2218 H 220.511 -6.68879 -1.88749 0
M  V30 2219 H 223.702 -4.41764 -1.54796 0
M  V30 2220 H 223.875 -6.19433 -1.9028 0
M  V30 2221 N 217.281 0.66697 -1.42791 0
M  V30 2222 C 218.214 1.79177 -1.41318 0
M  V30 2223 C 219.192 1.60234 -0.276401 0
M  V30 2224 O 220.376 1.82602 -0.46785 0
M  V30 2225 C 217.503 3.16289 -1.21157 0
M  V30 2226 C 216.549 3.53964 -2.37932 0
M  V30 2227 S 217.382 3.55501 -4.00474 0
M  V30 2228 C 218.538 4.95292 -3.8267 0
M  V30 2229 H 218.771 1.80153 -2.365 0
M  V30 2230 H 216.304 0.838357 -1.29657 0
M  V30 2231 H 218.262 3.95428 -1.10212 0
M  V30 2232 H 216.923 3.1289 -0.275481 0
M  V30 2233 H 216.116 4.53646 -2.19594 0
M  V30 2234 H 215.718 2.82204 -2.45432 0
M  V30 2235 H 218.01 5.83584 -3.44145 0
M  V30 2236 H 218.953 5.18679 -4.82055 0
M  V30 2237 H 219.361 4.68179 -3.15386 0
M  V30 2238 N 218.759 1.29093 0.90403 0
M  V30 2239 C 220.175 1.07011 1.1841 0
M  V30 2240 C 220.375 -0.181358 2.00682 0
M  V30 2241 O 219.431 -0.880331 2.36657 0
M  V30 2242 C 220.744 2.32311 1.90924 0
M  V30 2243 C 222.292 2.37587 2.03768 0
M  V30 2244 C 222.767 3.62679 2.79693 0
M  V30 2245 N 224.258 3.63376 2.87249 0
M  V30 2246 C 224.993 4.56848 3.46522 0
M  V30 2247 N 224.489 5.60648 4.06996 0
M  V30 2248 N 226.282 4.44426 3.44154 0
M  V30 2249 H 218.433 2.09412 0.354993 0
M  V30 2250 H 220.696 0.922181 0.219742 0
M  V30 2251 H 220.402 3.23536 1.37905 0
M  V30 2252 H 220.276 2.39483 2.91424 0
M  V30 2253 H 222.663 1.46853 2.55965 0
M  V30 2254 H 222.744 2.34403 1.02415 0
M  V30 2255 H 222.388 4.53762 2.28173 0
M  V30 2256 H 222.318 3.63119 3.81381 0
M  V30 2257 H 224.809 2.88321 2.44293 0
M  V30 2258 H 225.122 6.28101 4.50232 0
M  V30 2259 H 223.467 5.64463 4.05471 0
M  V30 2260 H 226.658 3.62529 2.96126 0
M  V30 2261 H 226.831 5.17457 3.90054 0
M  V30 2262 N 220.237 -1.11381 1.11499 0
M  V30 2263 C 221.147 -2.21019 0.786628 0
M  V30 2264 C 222.163 -1.72597 -0.220507 0
M  V30 2265 O 223.339 -2.01321 -0.0565251 0
M  V30 2266 C 220.404 -3.459 0.235333 0
M  V30 2267 C 219.465 -4.09107 1.30115 0
M  V30 2268 C 218.698 -5.28027 0.776068 0
M  V30 2269 O 218.921 -5.6904 -0.393661 0
M  V30 2270 O 217.855 -5.81835 1.54114 0
M  V30 2271 H 221.681 -2.51521 1.70209 0
M  V30 2272 H 219.266 -1.19928 0.890928 0
M  V30 2273 H 221.148 -4.21346 -0.067715 0
M  V30 2274 H 219.823 -3.17049 -0.652828 0
M  V30 2275 H 218.73 -3.35391 1.65722 0
M  V30 2276 H 220.063 -4.42139 2.16273 0
M  V30 2277 N 221.715 -0.905404 -1.28997 0
M  V30 2278 C 222.678 -0.392253 -2.25819 0
M  V30 2279 C 223.678 0.476753 -1.5357 0
M  V30 2280 O 224.868 0.280994 -1.71919 0
M  V30 2281 C 222 0.438588 -3.38067 0
M  V30 2282 H 223.193 -1.24743 -2.72725 0
M  V30 2283 H 220.746 -0.684051 -1.40536 0
M  V30 2284 H 221.481 1.31352 -2.96508 0
M  V30 2285 H 221.266 -0.184167 -3.91667 0
M  V30 2286 H 222.756 0.78873 -4.10084 0
M  V30 2287 N 223.193 1.4272 -0.668489 0
M  V30 2288 C 224.441 2.01226 -0.187769 0
M  V30 2289 C 224.762 1.53092 1.2078 0
M  V30 2290 O 224.032 0.74993 1.80977 0
M  V30 2291 H 222.612 0.744041 -0.0664272 0
M  V30 2292 H 225.274 1.74723 -0.863583 0
M  V30 2293 H 224.37 3.11556 -0.184166 0
M  V30 2294 N 224.671 0.411399 1.52136 0
M  V30 2295 C 225.919 -0.163322 2.01439 0
M  V30 2296 C 226.24 -1.45453 1.29879 0
M  V30 2297 O 225.51 -1.91225 0.4254 0
M  V30 2298 H 224.09 -0.0633447 0.744309 0
M  V30 2299 H 226.752 0.548161 1.87033 0
M  V30 2300 H 225.848 -0.357817 3.10042 0
M  V30 2301 N 226.149 -1.5696 0.141893 0
M  V30 2302 C 227.379 -2.00031 -0.516828 0
M  V30 2303 C 227.787 -1.02091 -1.59293 0
M  V30 2304 O 227.13 -0.00909657 -1.83698 0
M  V30 2305 C 227.192 -3.39534 -1.1814 0
M  V30 2306 C 226.856 -4.56313 -0.250513 0
M  V30 2307 C 227.853 -5.17295 0.519839 0
M  V30 2308 C 225.538 -5.02061 -0.154907 0
M  V30 2309 C 227.532 -6.2243 1.3733 0
M  V30 2310 C 225.219 -6.07053 0.702161 0
M  V30 2311 C 226.217 -6.67106 1.46487 0
M  V30 2312 O 225.905 -7.70066 2.30767 0
M  V30 2313 H 225.637 -0.661451 -0.139493 0
M  V30 2314 H 228.191 -2.04086 0.231926 0
M  V30 2315 H 226.421 -3.32302 -1.97769 0
M  V30 2316 H 228.11 -3.66745 -1.73933 0
M  V30 2317 H 228.876 -4.82852 0.45598 0
M  V30 2318 H 224.755 -4.5505 -0.7383 0
M  V30 2319 H 228.299 -6.69233 1.96909 0
M  V30 2320 H 224.196 -6.40923 0.76733 0
M  V30 2321 H 224.964 -7.87264 2.23959 0
M  V30 2322 N 227.627 0.131896 -1.57047 0
M  V30 2323 C 228.873 0.843179 -1.84441 0
M  V30 2324 C 229.206 1.80129 -0.725749 0
M  V30 2325 O 228.481 1.92624 0.269469 0
M  V30 2326 C 228.764 1.60442 -3.22382 0
M  V30 2327 C 228.617 0.666782 -4.4483 0
M  V30 2328 C 229.936 2.56354 -3.5773 0
M  V30 2329 H 227.055 0.305081 -0.670891 0
M  V30 2330 H 229.697 0.107839 -1.89694 0
M  V30 2331 H 227.847 2.23128 -3.18035 0
M  V30 2332 H 229.519 0.0497646 -4.61273 0
M  V30 2333 H 227.762 -0.022609 -4.33794 0
M  V30 2334 H 228.433 1.23579 -5.37989 0
M  V30 2335 H 230.909 2.0378 -3.62785 0
M  V30 2336 H 229.785 3.06657 -4.5525 0
M  V30 2337 H 230.046 3.38419 -2.84473 0
M  V30 2338 N 229.106 1.52395 0.401703 0
M  V30 2339 C 230.036 1.79231 1.49661 0
M  V30 2340 C 231.017 0.643654 1.57452 0
M  V30 2341 O 232.202 0.889989 1.72606 0
M  V30 2342 C 229.332 1.94971 2.87409 0
M  V30 2343 C 228.286 3.10604 2.94465 0
M  V30 2344 C 227.612 3.11577 4.34538 0
M  V30 2345 C 228.912 4.49921 2.6527 0
M  V30 2346 H 230.606 2.70917 1.27454 0
M  V30 2347 H 228.152 1.30362 0.6117 0
M  V30 2348 H 230.105 2.12328 3.63999 0
M  V30 2349 H 228.829 0.999632 3.10926 0
M  V30 2350 H 227.488 2.93009 2.20321 0
M  V30 2351 H 227.136 2.14277 4.55076 0
M  V30 2352 H 226.836 3.89247 4.40183 0
M  V30 2353 H 228.36 3.31073 5.13053 0
M  V30 2354 H 229.774 4.67683 3.31581 0
M  V30 2355 H 228.171 5.29564 2.82281 0
M  V30 2356 H 229.241 4.57507 1.60671 0
M  V30 2357 N 230.584 -0.659388 1.43143 0
M  V30 2358 C 231.831 -1.41935 1.44433 0
M  V30 2359 C 232.159 -1.94387 0.0663522 0
M  V30 2360 O 231.414 -1.72314 -0.927706 0
M  V30 2361 C 231.713 -2.62206 2.42864 0
M  V30 2362 C 231.379 -2.28208 3.88886 0
M  V30 2363 C 230.041 -2.18647 4.28657 0
M  V30 2364 C 232.393 -2.00887 4.8093 0
M  V30 2365 C 229.721 -1.79914 5.58433 0
M  V30 2366 C 232.073 -1.63653 6.11065 0
M  V30 2367 C 230.737 -1.52614 6.49819 0
M  V30 2368 H 230.007 -0.519376 0.528517 0
M  V30 2369 H 232.654 -0.750453 1.76183 0
M  V30 2370 H 230.959 -3.34199 2.04495 0
M  V30 2371 H 232.656 -3.2041 2.41119 0
M  V30 2372 H 229.246 -2.36557 3.57406 0
M  V30 2373 H 233.43 -2.07198 4.5098 0
M  V30 2374 H 228.686 -1.69948 5.87305 0
M  V30 2375 H 232.86 -1.41543 6.81864 0
M  V30 2376 H 230.487 -1.22371 7.50286 0
M  V30 2377 N 232.062 -1.29571 -0.897171 0
M  V30 2378 C 233.339 -1.08365 -1.62839 0
M  V30 2379 C 233.719 0.371331 -2.07808 0
M  V30 2380 O 233.067 1.3606 -1.83576 0
M  V30 2381 C 233.277 -2.0735 -2.80726 0
M  V30 2382 C 234.625 -2.38406 -3.51351 0
M  V30 2383 O 235.649 -2.05564 -2.90898 0
M  V30 2384 O 234.508 -2.9453 -4.60341 0
M  V30 2385 H 231.602 -0.415345 -0.715134 0
M  V30 2386 H 234.148 -1.40952 -0.945018 0
M  V30 2387 H 232.92 -3.05339 -2.44711 0
M  V30 2388 H 232.543 -1.75507 -3.56767 0
M  V30 2389 N 233.54 1.10788 -1.12088 0
M  V30 2390 C 234.786 1.82942 -0.875226 0
M  V30 2391 C 235.119 1.84779 0.597538 0
M  V30 2392 O 234.394 1.30578 1.44152 0
M  V30 2393 C 234.677 3.29789 -1.44606 0
M  V30 2394 C 234.53 3.36307 -2.98693 0
M  V30 2395 C 235.849 4.26064 -1.10261 0
M  V30 2396 H 232.968 0.664195 -0.319397 0
M  V30 2397 H 235.61 1.29867 -1.38689 0
M  V30 2398 H 233.76 3.75118 -1.01089 0
M  V30 2399 H 235.432 2.99487 -3.50864 0
M  V30 2400 H 233.675 2.76318 -3.34411 0
M  V30 2401 H 234.346 4.39694 -3.33726 0
M  V30 2402 H 236.822 3.88951 -1.4784 0
M  V30 2403 H 235.698 5.27183 -1.52869 0
M  V30 2404 H 235.959 4.42098 -0.0142953 0
M  V30 2405 N 235.018 0.912232 1.28515 0
M  V30 2406 C 235.966 0.389597 2.29314 0
M  V30 2407 C 236.96 -0.517915 1.61289 0
M  V30 2408 O 238.166 -0.399328 1.75515 0
M  V30 2409 H 234.541 0.107386 0.744293 0
M  V30 2410 H 236.512 1.25286 2.70825 0
M  V30 2411 C 235.261 -0.356496 3.45868 0
M  V30 2412 H 234.584 0.332608 3.98414 0
M  V30 2413 H 236.024 -0.686851 4.184 0
M  V30 2414 C 234.483 -1.56383 2.98406 0
M  V30 2415 O 235.013 -2.66294 3.00749 0
M  V30 2416 N 233.219 -1.41029 2.54085 0
M  V30 2417 H 232.766 -0.516089 2.52377 0
M  V30 2418 H 232.724 -2.21939 2.22689 0
M  V30 2419 N 236.496 -1.42363 0.676048 0
M  V30 2420 C 237.426 -2.33497 0.0124832 0
M  V30 2421 C 238.407 -1.50748 -0.787981 0
M  V30 2422 O 239.592 -1.79346 -0.744884 0
M  V30 2423 C 236.722 -3.34377 -0.938582 0
M  V30 2424 C 235.676 -4.27289 -0.246622 0
M  V30 2425 C 235.002 -5.18386 -1.31071 0
M  V30 2426 C 236.302 -5.14916 0.875125 0
M  V30 2427 H 237.996 -2.89233 0.773593 0
M  V30 2428 H 235.542 -1.39073 0.37346 0
M  V30 2429 H 237.495 -3.97044 -1.41188 0
M  V30 2430 H 236.219 -2.76947 -1.73113 0
M  V30 2431 H 234.878 -3.66018 0.206456 0
M  V30 2432 H 234.526 -4.57282 -2.09528 0
M  V30 2433 H 234.226 -5.81378 -0.852839 0
M  V30 2434 H 235.75 -5.83929 -1.78492 0
M  V30 2435 H 237.164 -5.71262 0.482983 0
M  V30 2436 H 235.561 -5.86747 1.25887 0
M  V30 2437 H 236.631 -4.53242 1.72335 0
M  V30 2438 N 237.974 -0.419461 -1.51915 0
M  V30 2439 C 239.39 -0.0708431 -1.59443 0
M  V30 2440 C 239.59 1.41796 -1.43164 0
M  V30 2441 O 238.646 2.18596 -1.26381 0
M  V30 2442 C 239.959 -0.574991 -2.95151 0
M  V30 2443 C 241.507 -0.533867 -3.08413 0
M  V30 2444 C 241.982 -1.01469 -4.46618 0
M  V30 2445 N 243.473 -0.971939 -4.52888 0
M  V30 2446 C 244.208 -1.31505 -5.58116 0
M  V30 2447 N 243.704 -1.73014 -6.70849 0
M  V30 2448 N 245.497 -1.23436 -5.48379 0
M  V30 2449 H 237.648 -1.38836 -1.60743 0
M  V30 2450 H 239.911 -0.570998 -0.756747 0
M  V30 2451 H 239.617 -1.61597 -3.12377 0
M  V30 2452 H 239.491 0.00979777 -3.77199 0
M  V30 2453 H 241.878 0.498086 -2.90866 0
M  V30 2454 H 241.959 -1.15484 -2.28248 0
M  V30 2455 H 241.603 -2.04502 -4.6491 0
M  V30 2456 H 241.533 -0.370433 -5.25295 0
M  V30 2457 H 244.024 -0.666893 -3.71969 0
M  V30 2458 H 244.337 -1.97479 -7.47143 0
M  V30 2459 H 242.682 -1.76926 -6.72103 0
M  V30 2460 H 245.873 -0.908869 -4.59192 0
M  V30 2461 H 246.046 -1.50506 -6.30279 0
M  V30 2462 N 239.452 1.56882 -0.150215 0
M  V30 2463 C 240.677 2.01027 0.510184 0
M  V30 2464 C 241.102 1.02966 1.57415 0
M  V30 2465 O 240.46 0.00590158 1.81299 0
M  V30 2466 C 240.508 3.43899 1.08472 0
M  V30 2467 O 239.612 3.4885 2.19948 0
M  V30 2468 H 238.953 0.652233 0.124451 0
M  V30 2469 H 241.483 2.03093 -0.247894 0
M  V30 2470 H 241.493 3.82766 1.41259 0
M  V30 2471 H 240.168 4.14776 0.305582 0
M  V30 2472 H 238.745 3.21827 1.88366 0
M  V30 2473 N 240.93 -0.123565 1.57115 0
M  V30 2474 C 241.877 -1.15177 2.00007 0
M  V30 2475 C 242.847 -1.41403 0.871454 0
M  V30 2476 O 244.032 -1.53346 1.13533 0
M  V30 2477 C 241.172 -2.47436 2.40561 0
M  V30 2478 C 240.285 -2.28184 3.66819 0
M  V30 2479 C 239.42 -3.53641 3.96373 0
M  V30 2480 C 238.459 -3.29528 5.15827 0
M  V30 2481 N 237.596 -4.47175 5.41275 0
M  V30 2482 H 242.436 -0.779008 2.87638 0
M  V30 2483 H 239.973 -0.373166 1.42288 0
M  V30 2484 H 241.931 -3.24584 2.62109 0
M  V30 2485 H 240.561 -2.82614 1.55978 0
M  V30 2486 H 239.613 -1.41976 3.52912 0
M  V30 2487 H 240.925 -2.0634 4.5412 0
M  V30 2488 H 240.079 -4.39209 4.18545 0
M  V30 2489 H 238.818 -3.78512 3.07538 0
M  V30 2490 H 237.823 -2.42349 4.93505 0
M  V30 2491 H 239.048 -3.06031 6.06236 0
M  V30 2492 H 236.994 -4.72175 4.55397 0
M  V30 2493 H 236.911 -4.28419 6.22891 0
M  V30 2494 H 238.179 -5.3389 5.67963 0
M  V30 2495 N 242.408 -1.52605 -0.393616 0
M  V30 2496 C 243.341 -1.71798 -1.50202 0
M  V30 2497 C 244.319 -0.565743 -1.52441 0
M  V30 2498 O 245.503 -0.794987 -1.70916 0
M  V30 2499 C 242.63 -1.7714 -2.88685 0
M  V30 2500 C 241.676 -2.98845 -3.04292 0
M  V30 2501 S 242.509 -4.58909 -2.75976 0
M  V30 2502 C 243.665 -4.6706 -4.1666 0
M  V30 2503 H 243.898 -2.65542 -1.33696 0
M  V30 2504 H 241.431 -1.42839 -0.586195 0
M  V30 2505 H 243.389 -1.80903 -3.68489 0
M  V30 2506 H 242.05 -0.844969 -3.02521 0
M  V30 2507 H 241.243 -2.99111 -4.05646 0
M  V30 2508 H 240.845 -2.9305 -2.32374 0
M  V30 2509 H 243.137 -4.45391 -5.10523 0
M  V30 2510 H 244.08 -5.6905 -4.21412 0
M  V30 2511 H 244.488 -3.95944 -4.02354 0
M  V30 2512 N 243.887 0.651787 -1.4349 0
M  V30 2513 C 245.133 1.4121 -1.46395 0
M  V30 2514 C 245.488 1.92202 -0.087366 0
M  V30 2515 O 244.781 1.69452 0.894231 0
M  V30 2516 C 244.975 2.60914 -2.44251 0
M  V30 2517 C 244.804 2.21639 -3.91288 0
M  V30 2518 C 243.574 2.09897 -4.59643 0
M  V30 2519 C 245.772 1.81835 -4.81083 0
M  V30 2520 N 243.754 1.63967 -5.91598 0
M  V30 2521 C 245.125 1.46998 -6.02322 0
M  V30 2522 C 247.18 1.69031 -4.6833 0
M  V30 2523 C 245.883 1.00638 -7.12225 0
M  V30 2524 C 247.909 1.24077 -5.78238 0
M  V30 2525 C 247.271 0.901772 -6.98604 0
M  V30 2526 H 243.37 0.512322 -0.590805 0
M  V30 2527 H 245.954 0.74989 -1.7968 0
M  V30 2528 H 244.125 3.24792 -2.1299 0
M  V30 2529 H 245.857 3.27622 -2.37584 0
M  V30 2530 H 242.612 2.297 -4.14168 0
M  V30 2531 H 243.036 1.43359 -6.61647 0
M  V30 2532 H 247.678 1.93878 -3.75727 0
M  V30 2533 H 245.396 0.745399 -8.04655 0
M  V30 2534 H 248.982 1.14657 -5.7039 0
M  V30 2535 H 247.862 0.559226 -7.82203 0
M  V30 2536 N 245.365 1.30045 0.890287 0
M  V30 2537 C 246.613 1.18327 1.63839 0
M  V30 2538 C 246.934 -0.263455 1.93212 0
M  V30 2539 O 246.204 -1.17856 1.56482 0
M  V30 2540 H 244.784 0.434933 0.607324 0
M  V30 2541 H 247.446 1.631 1.06698 0
M  V30 2542 H 246.542 1.74024 2.59079 0
M  V30 2543 N 246.843 -1.10192 1.12674 0
M  V30 2544 C 247.791 -2.18694 0.792196 0
M  V30 2545 C 248.785 -1.67938 -0.222058 0
M  V30 2546 O 249.991 -1.79822 -0.0800074 0
M  V30 2547 H 246.366 -0.713223 0.238364 0
M  V30 2548 H 248.337 -2.44149 1.71564 0
M  V30 2549 C 247.086 -3.46682 0.265859 0
M  V30 2550 H 246.409 -3.86101 1.03761 0
M  V30 2551 H 247.849 -4.23942 0.0701128 0
M  V30 2552 C 246.308 -3.21506 -1.00675 0
M  V30 2553 O 246.838 -3.43408 -2.08408 0
M  V30 2554 N 245.044 -2.75158 -0.934692 0
M  V30 2555 H 244.591 -2.57535 -0.0578604 0
M  V30 2556 H 244.549 -2.58691 -1.7868 0
M  V30 2557 N 248.321 -0.919034 -1.28029 0
M  V30 2558 C 249.549 -0.570971 -1.98866 0
M  V30 2559 C 249.964 0.848996 -1.68634 0
M  V30 2560 O 249.321 1.56307 -0.942036 0
M  V30 2561 C 249.372 -0.776876 -3.53054 0
M  V30 2562 O 249.093 -2.14097 -3.82222 0
M  V30 2563 C 250.594 -0.436356 -4.41147 0
M  V30 2564 H 247.814 -0.217175 -0.634883 0
M  V30 2565 H 250.358 -1.23368 -1.63097 0
M  V30 2566 H 248.513 -0.161085 -3.87065 0
M  V30 2567 H 248.927 -2.18455 -4.76841 0
M  V30 2568 H 250.401 -0.63117 -5.4838 0
M  V30 2569 H 250.878 0.627686 -4.34692 0
M  V30 2570 H 251.484 -1.02991 -4.12641 0
M  V30 2571 N 249.799 1.42003 -0.683588 0
M  V30 2572 C 251.076 1.95112 -0.138075 0
M  V30 2573 C 251.456 1.62359 1.34918 0
M  V30 2574 O 250.804 0.924311 2.08971 0
M  V30 2575 C 251.014 3.46505 -0.416581 0
M  V30 2576 C 252.362 4.23254 -0.337834 0
M  V30 2577 O 253.386 3.54468 -0.35082 0
M  V30 2578 O 252.245 5.45743 -0.287596 0
M  V30 2579 H 249.339 0.826961 -0.00797996 0
M  V30 2580 H 251.885 1.51784 -0.758924 0
M  V30 2581 H 250.657 3.63582 -1.4465 0
M  V30 2582 H 250.28 3.969 0.235839 0
M  V30 2583 N 251.277 0.427512 1.51691 0
M  V30 2584 C 252.187 -0.39527 2.31246 0
M  V30 2585 C 253.203 -1.03674 1.39742 0
M  V30 2586 O 254.379 -1.03425 1.72816 0
M  V30 2587 C 251.444 -1.48706 3.13189 0
M  V30 2588 C 250.505 -0.866743 4.20459 0
M  V30 2589 C 249.738 -1.90651 4.98486 0
M  V30 2590 O 249.961 -3.12733 4.77026 0
M  V30 2591 O 248.895 -1.5025 5.82845 0
M  V30 2592 H 252.721 0.253918 3.02637 0
M  V30 2593 H 250.306 0.190274 1.48183 0
M  V30 2594 H 252.188 -2.12047 3.64162 0
M  V30 2595 H 250.863 -2.12051 2.44573 0
M  V30 2596 H 249.77 -0.195544 3.73589 0
M  V30 2597 H 251.103 -0.276934 4.9142 0
M  V30 2598 N 252.755 -1.56801 0.158532 0
M  V30 2599 C 254.004 -1.95665 -0.489702 0
M  V30 2600 C 254.317 -1.04654 -1.65248 0
M  V30 2601 O 255.523 -1.33146 -2.3661 0
M  V30 2602 C 253.979 -3.47874 -0.922582 0
M  V30 2603 C 253.587 -4.47489 0.213893 0
M  V30 2604 C 255.331 -3.95583 -1.53996 0
M  V30 2605 C 253.238 -5.90921 -0.237903 0
M  V30 2606 H 252.168 -0.730516 -0.186716 0
M  V30 2607 H 254.819 -1.81861 0.244722 0
M  V30 2608 H 253.201 -3.57051 -1.71261 0
M  V30 2609 H 254.375 -4.50017 0.991036 0
M  V30 2610 H 252.69 -4.09764 0.740407 0
M  V30 2611 H 255.287 -5.0019 -1.8898 0
M  V30 2612 H 255.63 -3.37789 -2.43319 0
M  V30 2613 H 256.163 -3.8937 -0.814611 0
M  V30 2614 H 252.902 -6.52559 0.620236 0
M  V30 2615 H 252.422 -5.91729 -0.980676 0
M  V30 2616 H 254.101 -6.43352 -0.686067 0
M  V30 2617 N 254.233 0.115231 -1.57178 0
M  V30 2618 C 255.644 0.67197 -1.74188 0
M  V30 2619 C 255.995 1.80125 -0.777777 0
M  V30 2620 O 255.12 2.16346 0.0484376 0
M  V30 2621 C 255.715 1.22573 -3.1585 0
M  V30 2622 C 254.274 1.72872 -3.34353 0
M  V30 2623 C 253.421 0.629972 -2.70049 0
M  V30 2624 H 256.372 -0.110712 -1.58313 0
M  V30 2625 H 256.393 2.09535 -3.17609 0
M  V30 2626 H 255.905 0.403598 -3.85996 0
M  V30 2627 H 254.006 2.5755 -2.69256 0
M  V30 2628 H 254.119 1.83557 -4.42542 0
M  V30 2629 H 252.483 1.0645 -2.31388 0
M  V30 2630 H 253.266 -0.181241 -3.42821 0
M  V30 2631 N 255.711 1.52812 0.385517 0
M  V30 2632 C 256.621 1.80766 1.49535 0
M  V30 2633 C 257.637 0.694651 1.59532 0
M  V30 2634 O 258.813 0.982611 1.75803 0
M  V30 2635 C 255.878 1.97381 2.85029 0
M  V30 2636 C 254.939 3.21295 2.84724 0
M  V30 2637 C 254.172 3.37108 4.13756 0
M  V30 2638 O 254.395 2.5765 5.08893 0
M  V30 2639 O 253.329 4.30378 4.20783 0
M  V30 2640 H 257.155 2.75015 1.28842 0
M  V30 2641 H 254.74 1.37946 0.573697 0
M  V30 2642 H 256.622 2.09996 3.65349 0
M  V30 2643 H 255.297 1.06322 3.05741 0
M  V30 2644 H 254.204 3.1412 2.03174 0
M  V30 2645 H 255.537 4.12212 2.68965 0
M  V30 2646 N 257.189 -0.644168 1.43834 0
M  V30 2647 C 258.119 -1.76814 1.52509 0
M  V30 2648 C 259.1 -1.65823 0.379052 0
M  V30 2649 O 260.285 -1.84781 0.597466 0
M  V30 2650 C 257.415 -3.15288 1.4564 0
M  V30 2651 C 256.369 -3.41053 2.58586 0
M  V30 2652 C 255.695 -4.79421 2.36769 0
M  V30 2653 C 256.995 -3.34902 4.00797 0
M  V30 2654 H 258.689 -1.69812 2.46586 0
M  V30 2655 H 256.235 -0.815542 1.1868 0
M  V30 2656 H 258.188 -3.93681 1.50311 0
M  V30 2657 H 256.912 -3.23043 0.480725 0
M  V30 2658 H 255.571 -2.65035 2.53282 0
M  V30 2659 H 255.219 -4.83863 1.37424 0
M  V30 2660 H 254.919 -4.9762 3.12487 0
M  V30 2661 H 256.443 -5.6006 2.43238 0
M  V30 2662 H 257.857 -4.03218 4.07539 0
M  V30 2663 H 256.254 -3.64637 4.76613 0
M  V30 2664 H 257.324 -2.32928 4.25291 0
M  V30 2665 N 258.668 -1.30515 -0.883378 0
M  V30 2666 C 259.917 -1.18795 -1.63005 0
M  V30 2667 C 260.23 0.255923 -1.93919 0
M  V30 2668 O 261.436 0.494654 -2.66956 0
M  V30 2669 C 259.892 -2.07878 -2.93794 0
M  V30 2670 C 259.5 -3.57184 -2.70414 0
M  V30 2671 C 261.244 -2.04924 -3.71761 0
M  V30 2672 C 259.151 -4.38317 -3.97029 0
M  V30 2673 H 258.081 -0.441031 -0.611562 0
M  V30 2674 H 260.732 -1.55275 -0.977854 0
M  V30 2675 H 259.114 -1.64283 -3.60315 0
M  V30 2676 H 260.288 -4.08937 -2.12384 0
M  V30 2677 H 258.603 -3.61976 -2.0582 0
M  V30 2678 H 261.2 -2.62792 -4.65665 0
M  V30 2679 H 261.543 -1.0331 -4.03277 0
M  V30 2680 H 262.076 -2.46649 -3.12104 0
M  V30 2681 H 258.815 -5.40632 -3.70671 0
M  V30 2682 H 258.335 -3.91326 -4.54559 0
M  V30 2683 H 260.014 -4.49834 -4.65036 0
M  V30 2684 N 260.146 1.09593 -1.13257 0
M  V30 2685 C 261.109 2.14359 -0.811358 0
M  V30 2686 C 262.109 1.59808 0.178377 0
M  V30 2687 O 263.299 1.74132 -0.0484911 0
M  V30 2688 C 260.431 3.40269 -0.207276 0
M  V30 2689 H 261.624 2.44284 -1.73969 0
M  V30 2690 H 259.177 1.25102 -0.936973 0
M  V30 2691 H 259.912 3.15969 0.73036 0
M  V30 2692 H 259.697 3.81154 -0.919992 0
M  V30 2693 H 261.187 4.176 0.000667944 0
M  V30 2694 N 261.624 0.925811 1.2754 0
M  V30 2695 C 263.04 0.625767 1.46821 0
M  V30 2696 C 263.24 -0.825506 1.83814 0
M  V30 2697 O 262.296 -1.60356 1.95044 0
M  V30 2698 C 263.609 1.57402 2.56213 0
M  V30 2699 C 265.157 1.58204 2.70075 0
M  V30 2700 C 265.632 2.51721 3.82623 0
M  V30 2701 N 267.123 2.49917 3.89994 0
M  V30 2702 C 267.858 3.18968 4.76494 0
M  V30 2703 N 267.354 3.97391 5.67496 0
M  V30 2704 N 269.147 3.07996 4.70208 0
M  V30 2705 H 261.298 1.86409 1.01811 0
M  V30 2706 H 263.561 0.800213 0.508295 0
M  V30 2707 H 263.267 2.60925 2.35819 0
M  V30 2708 H 263.141 1.31428 3.53563 0
M  V30 2709 H 265.528 0.554124 2.89851 0
M  V30 2710 H 265.609 1.88226 1.73218 0
M  V30 2711 H 265.253 3.54622 3.63601 0
M  V30 2712 H 265.183 2.18996 4.78903 0
M  V30 2713 H 267.674 1.9296 3.24923 0
M  V30 2714 H 267.987 4.4707 6.30356 0
M  V30 2715 H 266.332 4.01495 5.67298 0
M  V30 2716 H 269.523 2.46223 3.9811 0
M  V30 2717 H 269.696 3.6208 5.37403 0
M  V30 2718 N 263.102 -1.41638 0.69111 0
M  V30 2719 C 264.327 -2.06148 0.227583 0
M  V30 2720 C 264.752 -1.51652 -1.11281 0
M  V30 2721 O 264.11 -0.64164 -1.69566 0
M  V30 2722 C 264.158 -3.60095 0.190858 0
M  V30 2723 O 263.262 -4.03845 -0.835664 0
M  V30 2724 H 262.603 -0.654434 0.112306 0
M  V30 2725 H 265.133 -1.81484 0.944714 0
M  V30 2726 H 265.143 -4.07995 0.020207 0
M  V30 2727 H 263.818 -3.99129 1.16915 0
M  V30 2728 H 262.395 -3.67458 -0.63473 0
M  V30 2729 N 264.58 -0.43555 -1.51462 0
M  V30 2730 C 265.543 0.365137 -2.26273 0
M  V30 2731 C 266.543 0.951227 -1.29647 0
M  V30 2732 O 267.733 0.825958 -1.53374 0
M  V30 2733 C 264.865 1.51645 -3.05314 0
M  V30 2734 H 266.058 -0.290474 -2.9849 0
M  V30 2735 H 263.611 -0.188676 -1.55157 0
M  V30 2736 H 264.346 2.20816 -2.3751 0
M  V30 2737 H 264.131 1.10238 -3.76284 0
M  V30 2738 H 265.621 2.08218 -3.61987 0
M  V30 2739 N 266.058 1.56714 -0.166846 0
M  V30 2740 C 267.021 2.16539 0.751232 0
M  V30 2741 C 268.021 1.11228 1.16125 0
M  V30 2742 O 269.211 1.36765 1.07894 0
M  V30 2743 C 266.343 2.74462 2.02196 0
M  V30 2744 H 267.536 2.99013 0.230499 0
M  V30 2745 H 265.089 1.56081 0.0826982 0
M  V30 2746 H 265.824 1.95709 2.58589 0
M  V30 2747 H 265.609 3.51527 1.73698 0
M  V30 2748 H 267.099 3.20489 2.67725 0
M  V30 2749 N 267.536 -0.106894 1.57237 0
M  V30 2750 C 268.466 -1.13148 2.04254 0
M  V30 2751 C 269.447 -1.42476 0.929224 0
M  V30 2752 O 270.632 -1.52709 1.19973 0
M  V30 2753 C 267.762 -2.4545 2.45706 0
M  V30 2754 C 266.716 -2.30558 3.60592 0
M  V30 2755 C 266.042 -3.67931 3.87983 0
M  V30 2756 C 267.342 -1.75597 4.91897 0
M  V30 2757 H 269.036 -0.740374 2.90101 0
M  V30 2758 H 266.582 -0.354696 1.39563 0
M  V30 2759 H 268.535 -3.17389 2.77205 0
M  V30 2760 H 267.259 -2.86475 1.56843 0
M  V30 2761 H 265.918 -1.61067 3.29322 0
M  V30 2762 H 265.566 -4.06462 2.96306 0
M  V30 2763 H 265.266 -3.58817 4.65322 0
M  V30 2764 H 266.79 -4.41356 4.21945 0
M  V30 2765 H 268.204 -2.37364 5.21854 0
M  V30 2766 H 266.601 -1.77272 5.73319 0
M  V30 2767 H 267.671 -0.714451 4.79608 0
M  V30 2768 N 269.014 -1.53014 -0.377408 0
M  V30 2769 C 269.977 -1.77957 -1.44444 0
M  V30 2770 C 270.977 -0.649763 -1.47087 0
M  V30 2771 O 272.167 -0.917897 -1.48055 0
M  V30 2772 C 269.299 -1.89089 -2.83651 0
M  V30 2773 H 270.492 -2.73243 -1.23606 0
M  V30 2774 H 268.045 -1.43912 -0.609844 0
M  V30 2775 H 268.78 -0.958293 -3.09818 0
M  V30 2776 H 268.565 -2.71254 -2.83132 0
M  V30 2777 H 270.055 -2.1002 -3.60945 0
M  V30 2778 N 270.492 0.636531 -1.44174 0
M  V30 2779 C 271.717 1.42847 -1.50364 0
M  V30 2780 C 272.142 1.87665 -0.127867 0
M  V30 2781 O 271.5 1.58408 0.88185 0
M  V30 2782 C 271.548 2.62854 -2.4686 0
M  V30 2783 O 270.652 3.62501 -1.9664 0
M  V30 2784 H 269.993 0.427642 -0.507955 0
M  V30 2785 H 272.523 0.777422 -1.89255 0
M  V30 2786 H 272.533 3.10465 -2.64718 0
M  V30 2787 H 271.208 2.29578 -3.46795 0
M  V30 2788 H 269.785 3.21735 -1.88523 0
M  V30 2789 N 271.97 1.30982 0.876444 0
M  V30 2790 C 273.219 1.19658 1.62373 0
M  V30 2791 C 273.532 -0.245636 1.94052 0
M  V30 2792 O 274.738 -0.48049 2.67214 0
M  V30 2793 C 273.194 2.09433 2.92687 0
M  V30 2794 C 272.802 3.58613 2.68516 0
M  V30 2795 C 274.546 2.06893 3.70669 0
M  V30 2796 C 272.453 4.40416 3.94699 0
M  V30 2797 H 271.383 0.444268 0.609214 0
M  V30 2798 H 274.034 1.55791 0.969605 0
M  V30 2799 H 272.416 1.66191 3.59439 0
M  V30 2800 H 273.59 4.10058 2.10212 0
M  V30 2801 H 271.905 3.63063 2.03898 0
M  V30 2802 H 274.502 2.65258 4.64265 0
M  V30 2803 H 274.845 1.05448 4.02724 0
M  V30 2804 H 275.378 2.48301 3.10792 0
M  V30 2805 H 272.117 5.42591 3.67798 0
M  V30 2806 H 271.637 3.93731 4.52477 0
M  V30 2807 H 273.316 4.52294 4.62644 0
M  V30 2808 N 273.449 -1.08991 1.13837 0
M  V30 2809 C 274.689 -1.82867 0.913183 0
M  V30 2810 C 275.053 -1.83936 -0.550604 0
M  V30 2811 O 276.254 -2.53515 -0.893515 0
M  V30 2812 C 274.525 -3.24843 1.49036 0
M  V30 2813 S 276.084 -4.15669 1.40588 0
M  V30 2814 H 272.902 -0.630278 0.329046 0
M  V30 2815 H 275.504 -1.31049 1.45073 0
M  V30 2816 H 274.208 -3.21644 2.54899 0
M  V30 2817 H 273.739 -3.81734 0.950947 0
M  V30 2818 H 275.754 -4.94686 0.387353 0
M  V30 2819 N 274.927 -0.932562 -1.27047 0
M  V30 2820 C 275.874 -0.434072 -2.26681 0
M  V30 2821 C 276.844 0.501639 -1.58344 0
M  V30 2822 O 278.029 0.419734 -1.86126 0
M  V30 2823 C 275.169 0.30261 -3.43771 0
M  V30 2824 C 274.282 -0.667774 -4.26808 0
M  V30 2825 C 273.417 0.0892393 -5.31125 0
M  V30 2826 C 272.456 -0.873532 -6.05835 0
M  V30 2827 N 271.593 -0.148832 -7.01942 0
M  V30 2828 H 276.433 -1.28868 -2.68695 0
M  V30 2829 H 273.97 -0.646713 -1.32121 0
M  V30 2830 H 275.928 0.746092 -4.10474 0
M  V30 2831 H 274.558 1.12142 -3.02695 0
M  V30 2832 H 273.61 -1.22978 -3.59973 0
M  V30 2833 H 274.922 -1.40337 -4.78651 0
M  V30 2834 H 274.076 0.592409 -6.03801 0
M  V30 2835 H 272.815 0.85777 -4.80097 0
M  V30 2836 H 271.82 -1.38791 -5.31994 0
M  V30 2837 H 273.045 -1.64193 -6.58952 0
M  V30 2838 H 270.991 0.601365 -6.53238 0
M  V30 2839 H 270.908 -0.82391 -7.51497 0
M  V30 2840 H 272.176 0.333527 -7.78786 0
M  V30 2841 N 276.405 1.4127 -0.698611 0
M  V30 2842 C 277.651 2.01478 -0.231207 0
M  V30 2843 C 277.984 1.55215 1.16713 0
M  V30 2844 O 277.259 0.764672 1.78838 0
M  V30 2845 C 277.542 3.58912 -0.292281 0
M  V30 2846 C 277.395 4.15293 -1.72778 0
M  V30 2847 C 278.714 4.38736 0.346194 0
M  V30 2848 H 275.833 0.732025 -0.0854878 0
M  V30 2849 H 278.475 1.67977 -0.887906 0
M  V30 2850 H 276.625 3.87582 0.26686 0
M  V30 2851 H 278.297 3.97486 -2.341 0
M  V30 2852 H 276.54 3.7022 -2.26096 0
M  V30 2853 H 277.211 5.24452 -1.72202 0
M  V30 2854 H 279.687 4.15897 -0.130035 0
M  V30 2855 H 278.563 5.48221 0.272932 0
M  V30 2856 H 278.824 4.18425 1.42734 0
M  V30 2857 N 277.883 0.443576 1.51229 0
M  V30 2858 C 279.108 -0.121648 2.07043 0
M  V30 2859 C 279.533 -1.35156 1.30823 0
M  V30 2860 O 278.891 -1.7793 0.347934 0
M  V30 2861 C 278.939 -0.41624 3.5819 0
M  V30 2862 O 278.043 -1.50163 3.8409 0
M  V30 2863 H 277.384 0.000871367 0.663999 0
M  V30 2864 H 279.914 0.626706 1.94765 0
M  V30 2865 H 279.924 -0.664867 4.02546 0
M  V30 2866 H 278.599 0.482653 4.1309 0
M  V30 2867 H 277.176 -1.24248 3.51592 0
M  V30 2868 N 279.361 -1.56624 0.175154 0
M  V30 2869 C 280.324 -2.16934 -0.739738 0
M  V30 2870 C 281.324 -1.11842 -1.15533 0
M  V30 2871 O 282.514 -1.37335 -1.07167 0
M  V30 2872 C 279.646 -2.75531 -2.00738 0
M  V30 2873 H 280.839 -2.99131 -0.214639 0
M  V30 2874 H 278.392 -1.56123 -0.0744197 0
M  V30 2875 H 279.127 -1.97078 -2.57548 0
M  V30 2876 H 278.912 -3.52444 -1.71831 0
M  V30 2877 H 280.402 -3.21904 -2.66021 0
M  V30 2878 N 280.839 0.0985539 -1.57292 0
M  V30 2879 C 282.116 0.834155 -1.76921 0
M  V30 2880 C 282.496 1.97101 -0.755928 0
M  V30 2881 O 281.844 2.27474 0.216245 0
M  V30 2882 C 282.054 1.33194 -3.22584 0
M  V30 2883 C 283.402 1.77611 -3.85668 0
M  V30 2884 O 284.426 1.42825 -3.26312 0
M  V30 2885 O 283.285 2.4192 -4.90038 0
M  V30 2886 H 280.379 0.397628 -0.725135 0
M  V30 2887 H 282.925 0.0807044 -1.69508 0
M  V30 2888 H 281.697 0.517248 -3.87866 0
M  V30 2889 H 281.32 2.1475 -3.34616 0
M  V30 2890 N 282.317 1.53212 0.369288 0
M  V30 2891 C 283.227 1.82342 1.47609 0
M  V30 2892 C 284.243 0.711532 1.58787 0
M  V30 2893 O 285.419 1.0012 1.74751 0
M  V30 2894 C 282.484 2.00393 2.8292 0
M  V30 2895 C 281.545 3.24297 2.81301 0
M  V30 2896 C 280.778 3.41478 4.10157 0
M  V30 2897 O 281.001 2.63033 5.06132 0
M  V30 2898 O 279.935 4.34817 4.16194 0
M  V30 2899 H 283.761 2.76366 1.25918 0
M  V30 2900 H 281.346 1.38547 0.559034 0
M  V30 2901 H 283.228 2.13859 3.63101 0
M  V30 2902 H 281.903 1.09559 3.04596 0
M  V30 2903 H 280.81 3.16257 1.99831 0
M  V30 2904 H 282.143 4.15041 2.64578 0
M  V30 2905 N 283.795 -0.628877 1.44509 0
M  V30 2906 C 284.725 -1.75187 1.54376 0
M  V30 2907 C 285.706 -1.65411 0.396618 0
M  V30 2908 O 286.891 -1.84137 0.617031 0
M  V30 2909 C 284.021 -3.13725 1.48976 0
M  V30 2910 C 282.975 -3.38291 2.62189 0
M  V30 2911 C 282.301 -4.76883 2.41841 0
M  V30 2912 C 283.601 -3.30632 4.04326 0
M  V30 2913 H 285.295 -1.67187 2.48373 0
M  V30 2914 H 282.841 -0.802909 1.19538 0
M  V30 2915 H 284.794 -3.92064 1.54478 0
M  V30 2916 H 283.518 -3.22515 0.514961 0
M  V30 2917 H 282.177 -2.62334 2.56079 0
M  V30 2918 H 281.825 -4.82378 1.42548 0
M  V30 2919 H 281.525 -4.94278 3.17747 0
M  V30 2920 H 283.049 -5.57449 2.49165 0
M  V30 2921 H 284.463 -3.98873 4.11793 0
M  V30 2922 H 282.86 -3.59561 4.80454 0
M  V30 2923 H 283.93 -2.28404 4.27738 0
M  V30 2924 N 285.273 -1.31445 -0.869486 0
M  V30 2925 C 286.513 -1.22458 -1.63656 0
M  V30 2926 C 286.877 0.213846 -1.90805 0
M  V30 2927 O 288.078 0.427212 -2.65383 0
M  V30 2928 C 286.349 -2.04564 -2.93067 0
M  V30 2929 S 287.908 -2.12445 -3.83944 0
M  V30 2930 H 284.726 -0.436145 -0.561514 0
M  V30 2931 H 287.328 -1.66114 -1.03085 0
M  V30 2932 H 286.032 -3.0816 -2.71045 0
M  V30 2933 H 285.563 -1.6163 -3.58663 0
M  V30 2934 H 287.578 -1.26312 -4.79854 0
M  V30 2935 N 286.751 1.08385 -1.14413 0
M  V30 2936 C 287.683 2.1519 -0.789036 0
M  V30 2937 C 288.696 1.61638 0.19417 0
M  V30 2938 O 289.885 1.78479 -0.0275711 0
M  V30 2939 C 286.985 3.38565 -0.15058 0
M  V30 2940 C 286.158 4.21501 -1.16857 0
M  V30 2941 C 285.217 5.23277 -0.553832 0
M  V30 2942 O 284.243 5.56041 -1.21686 0
M  V30 2943 N 285.445 5.76629 0.669296 0
M  V30 2944 H 288.21 2.46257 -1.70814 0
M  V30 2945 H 285.771 1.24198 -1.03858 0
M  V30 2946 H 287.763 4.03777 0.273181 0
M  V30 2947 H 286.333 3.05299 0.671667 0
M  V30 2948 H 285.553 3.52265 -1.76926 0
M  V30 2949 H 286.841 4.73731 -1.85624 0
M  V30 2950 H 286.239 5.52243 1.22654 0
M  V30 2951 H 284.796 6.43521 1.03556 0
M  V30 2952 N 288.23 0.939286 1.26551 0
M  V30 2953 C 289.16 0.465044 2.28822 0
M  V30 2954 C 290.141 -0.480692 1.63167 0
M  V30 2955 O 291.326 -0.382955 1.90387 0
M  V30 2956 C 288.456 -0.27234 3.46231 0
M  V30 2957 C 287.41 0.58666 4.2396 0
M  V30 2958 C 286.736 -0.280573 5.33963 0
M  V30 2959 C 288.036 1.85704 4.88171 0
M  V30 2960 H 289.73 1.31979 2.68741 0
M  V30 2961 H 287.276 0.636061 1.29191 0
M  V30 2962 H 289.229 -0.615133 4.16886 0
M  V30 2963 H 287.953 -1.16121 3.0526 0
M  V30 2964 H 286.612 0.91232 3.55067 0
M  V30 2965 H 286.26 -1.16874 4.89234 0
M  V30 2966 H 285.96 0.29076 5.8688 0
M  V30 2967 H 287.484 -0.618678 6.07458 0
M  V30 2968 H 288.898 1.58161 5.51052 0
M  V30 2969 H 287.295 2.37279 5.51197 0
M  V30 2970 H 288.365 2.56957 4.11219 0
M  V30 2971 N 289.708 -1.40897 0.706093 0
M  V30 2972 C 290.933 -2.05895 0.249435 0
M  V30 2973 C 291.358 -1.52823 -1.09666 0
M  V30 2974 O 290.716 -0.659589 -1.68876 0
M  V30 2975 C 290.764 -3.59872 0.22904 0
M  V30 2976 O 289.868 -4.04708 -0.792784 0
M  V30 2977 H 289.209 -0.653206 0.119241 0
M  V30 2978 H 291.739 -1.80471 0.96391 0
M  V30 2979 H 291.749 -4.07951 0.0634791 0
M  V30 2980 H 290.424 -3.97866 1.21141 0
M  V30 2981 H 289.001 -3.68111 -0.59572 0
M  V30 2982 N 291.186 -0.45159 -1.50991 0
M  V30 2983 C 292.434 0.109857 -2.01801 0
M  V30 2984 C 292.755 1.41958 -1.3369 0
M  V30 2985 O 292.025 1.9003 -0.475951 0
M  V30 2986 H 290.605 0.0435884 -0.745727 0
M  V30 2987 H 293.267 -0.597557 -1.85514 0
M  V30 2988 H 292.363 0.275489 -3.10882 0
M  V30 2989 N 292.664 1.56529 -0.183458 0
M  V30 2990 C 293.627 2.17324 0.728223 0
M  V30 2991 C 294.627 1.12453 1.14939 0
M  V30 2992 O 295.817 1.37902 1.06437 0
M  V30 2993 C 292.949 2.76591 1.99274 0
M  V30 2994 H 294.142 2.99241 0.198772 0
M  V30 2995 H 291.695 1.5616 0.0661391 0
M  V30 2996 H 292.43 1.98441 2.56499 0
M  V30 2997 H 292.215 3.5335 1.69959 0
M  V30 2998 H 293.705 3.23311 2.6431 0
M  V30 2999 N 294.142 -0.090211 1.57342 0
M  V30 3000 C 295.367 -0.810082 1.90925 0
M  V30 3001 C 295.792 -1.71248 0.778187 0
M  V30 3002 O 295.15 -1.79278 -0.269991 0
M  V30 3003 C 295.198 -1.59529 3.23393 0
M  V30 3004 O 294.302 -2.70461 3.11327 0
M  V30 3005 H 293.643 -0.222231 0.625707 0
M  V30 3006 H 296.173 -0.0639716 2.045 0
M  V30 3007 H 296.183 -1.97847 3.5682 0
M  V30 3008 H 294.858 -0.933055 4.05299 0
M  V30 3009 H 293.435 -2.35135 2.89423 0
M  V30 3010 N 295.62 -1.53406 -0.361157 0
M  V30 3011 C 296.57 -1.76536 -1.44287 0
M  V30 3012 C 297.554 -0.620019 -1.48474 0
M  V30 3013 O 298.746 -0.878834 -1.53641 0
M  V30 3014 C 295.875 -1.96266 -2.81664 0
M  V30 3015 C 294.961 -3.16815 -2.81938 0
M  V30 3016 N 295.352 -4.38637 -2.51855 0
M  V30 3017 C 293.65 -3.17627 -3.13096 0
M  V30 3018 C 294.351 -5.20401 -2.59919 0
M  V30 3019 N 293.327 -4.56712 -2.94814 0
M  V30 3020 H 297.129 -2.68331 -1.19899 0
M  V30 3021 H 294.643 -1.52091 -0.56938 0
M  V30 3022 H 296.64 -2.10966 -3.59582 0
M  V30 3023 H 295.3 -1.05702 -3.07013 0
M  V30 3024 H 296.311 -4.66293 -2.25369 0
M  V30 3025 H 292.988 -2.36971 -3.43731 0
M  V30 3026 H 294.378 -6.27586 -2.39969 0
M  V30 3027 N 297.098 0.621204 -1.44841 0
M  V30 3028 C 298.344 1.38073 -1.49357 0
M  V30 3029 C 298.699 1.91973 -0.128115 0
M  V30 3030 O 297.992 1.71311 0.858087 0
M  V30 3031 C 298.186 2.55675 -2.4973 0
M  V30 3032 C 298.015 2.13289 -3.95901 0
M  V30 3033 C 296.785 2.001 -4.63991 0
M  V30 3034 C 298.983 1.7159 -4.84831 0
M  V30 3035 N 296.965 1.51381 -5.94943 0
M  V30 3036 C 298.336 1.34188 -6.05304 0
M  V30 3037 C 300.391 1.59059 -4.7181 0
M  V30 3038 C 299.094 0.855085 -7.14199 0
M  V30 3039 C 301.12 1.11784 -5.8074 0
M  V30 3040 C 300.482 0.753385 -7.0036 0
M  V30 3041 H 296.581 0.499675 -0.601539 0
M  V30 3042 H 299.165 0.711609 -1.8123 0
M  V30 3043 H 297.336 3.20201 -2.19832 0
M  V30 3044 H 299.068 3.22509 -2.4448 0
M  V30 3045 H 295.823 2.20863 -4.18947 0
M  V30 3046 H 296.247 1.29293 -6.64539 0
M  V30 3047 H 300.889 1.85865 -3.79755 0
M  V30 3048 H 298.607 0.574552 -8.06055 0
M  V30 3049 H 302.193 1.02533 -5.72694 0
M  V30 3050 H 301.073 0.393183 -7.83214 0
M  V30 3051 N 298.576 1.31904 0.862503 0
M  V30 3052 C 299.508 1.16005 1.97675 0
M  V30 3053 C 300.521 0.0971234 1.6251 0
M  V30 3054 O 301.71 0.345337 1.75128 0
M  V30 3055 C 298.81 0.751791 3.30456 0
M  V30 3056 C 297.983 1.90133 3.93914 0
M  V30 3057 C 297.042 1.4779 5.05019 0
M  V30 3058 O 296.068 2.18872 5.25437 0
M  V30 3059 N 297.27 0.369491 5.79323 0
M  V30 3060 H 300.035 2.11982 2.11857 0
M  V30 3061 H 297.596 1.24337 1.03691 0
M  V30 3062 H 299.588 0.451084 4.02178 0
M  V30 3063 H 298.158 -0.116593 3.12382 0
M  V30 3064 H 297.378 2.36896 3.15078 0
M  V30 3065 H 298.666 2.67111 4.33047 0
M  V30 3066 H 298.064 -0.222299 5.65263 0
M  V30 3067 H 296.621 0.128354 6.51674 0
M  V30 3068 N 300.054 -1.07777 1.14986 0
M  V30 3069 C 301.331 -1.7699 0.832695 0
M  V30 3070 C 301.711 -2.001 -0.672561 0
M  V30 3071 O 301.059 -1.61598 -1.6155 0
M  V30 3072 C 301.269 -3.08139 1.63863 0
M  V30 3073 C 302.617 -3.8256 1.84208 0
M  V30 3074 O 303.641 -3.17939 1.60603 0
M  V30 3075 O 302.5 -4.98612 2.23714 0
M  V30 3076 H 299.594 -0.768389 0.305791 0
M  V30 3077 H 302.14 -1.14182 1.25541 0
M  V30 3078 H 300.912 -2.86909 2.6608 0
M  V30 3079 H 300.535 -3.78678 1.21197 0
M  V30 3080 N 301.532 -0.945985 -1.26051 0
M  V30 3081 C 302.495 -0.463897 -2.24456 0
M  V30 3082 C 303.495 0.427655 -1.55009 0
M  V30 3083 O 304.685 0.226157 -1.72726 0
M  V30 3084 C 301.817 0.330812 -3.39291 0
M  V30 3085 H 303.01 -1.33357 -2.68619 0
M  V30 3086 H 300.563 -0.728416 -1.38289 0
M  V30 3087 H 301.298 1.21852 -3.00537 0
M  V30 3088 H 301.083 -0.308679 -3.90883 0
M  V30 3089 H 302.573 0.657865 -4.12386 0
M  V30 3090 N 303.011 1.40521 -0.713556 0
M  V30 3091 C 304.427 1.54839 -0.386907 0
M  V30 3092 C 304.627 1.68532 1.1045 0
M  V30 3093 O 303.683 1.67377 1.89053 0
M  V30 3094 C 304.996 2.77792 -1.15118 0
M  V30 3095 C 306.544 2.91607 -1.13729 0
M  V30 3096 C 307.019 4.1747 -1.88368 0
M  V30 3097 N 308.51 4.24466 -1.85427 0
M  V30 3098 C 309.245 5.20755 -2.40004 0
M  V30 3099 N 308.741 6.22965 -3.03129 0
M  V30 3100 N 310.534 5.1282 -2.30158 0
M  V30 3101 H 302.685 1.29879 -1.68063 0
M  V30 3102 H 304.948 0.627896 -0.710247 0
M  V30 3103 H 304.654 2.73944 -2.20561 0
M  V30 3104 H 304.528 3.6984 -0.741477 0
M  V30 3105 H 306.915 2.94959 -0.0910608 0
M  V30 3106 H 306.996 2.00682 -1.5862 0
M  V30 3107 H 306.64 4.1488 -2.9298 0
M  V30 3108 H 306.57 5.074 -1.40898 0
M  V30 3109 H 309.061 3.51241 -1.3942 0
M  V30 3110 H 309.374 6.92859 -3.42295 0
M  V30 3111 H 307.719 6.23415 -3.07212 0
M  V30 3112 H 310.91 4.31899 -1.80501 0
M  V30 3113 H 311.083 5.87689 -2.72993 0
M  V30 3114 N 304.489 0.459591 1.5075 0
M  V30 3115 C 305.719 -0.0972338 2.06371 0
M  V30 3116 C 306.127 -1.35074 1.32483 0
M  V30 3117 O 305.47 -1.79637 0.384226 0
M  V30 3118 C 305.532 -0.462759 3.56509 0
M  V30 3119 C 305.196 0.687084 4.51805 0
M  V30 3120 C 306.193 1.56578 4.95761 0
M  V30 3121 C 303.878 0.874144 4.94635 0
M  V30 3122 C 305.872 2.61604 5.81242 0
M  V30 3123 C 303.559 1.92765 5.79901 0
M  V30 3124 C 304.557 2.79697 6.23104 0
M  V30 3125 O 304.245 3.83235 7.06673 0
M  V30 3126 H 303.977 -0.00140687 0.675999 0
M  V30 3127 H 306.531 0.644011 1.95043 0
M  V30 3128 H 304.761 -1.25703 3.65699 0
M  V30 3129 H 306.45 -0.953323 3.94546 0
M  V30 3130 H 307.216 1.4329 4.6335 0
M  V30 3131 H 303.095 0.207006 4.60535 0
M  V30 3132 H 306.639 3.29489 6.14884 0
M  V30 3133 H 302.536 2.06064 6.11725 0
M  V30 3134 H 303.304 3.80084 7.24899 0
M  V30 3135 N 305.967 -1.56429 0.191757 0
M  V30 3136 C 307.197 -2.01574 -0.452928 0
M  V30 3137 C 307.605 -1.07107 -1.55964 0
M  V30 3138 O 306.948 -0.067534 -1.83576 0
M  V30 3139 C 307.01 -3.43121 -1.07278 0
M  V30 3140 C 306.674 -4.56879 -0.105214 0
M  V30 3141 C 307.671 -5.15379 0.684149 0
M  V30 3142 C 305.356 -5.023 0.00489824 0
M  V30 3143 C 307.35 -6.17746 1.57062 0
M  V30 3144 C 305.037 -6.04511 0.894935 0
M  V30 3145 C 306.035 -6.62108 1.67637 0
M  V30 3146 O 305.723 -7.62335 2.55149 0
M  V30 3147 H 305.455 -0.665554 -0.118379 0
M  V30 3148 H 308.009 -2.03245 0.296737 0
M  V30 3149 H 306.239 -3.38425 -1.87097 0
M  V30 3150 H 307.928 -3.72093 -1.62177 0
M  V30 3151 H 308.694 -4.81157 0.609365 0
M  V30 3152 H 304.573 -4.57168 -0.593156 0
M  V30 3153 H 308.117 -6.6263 2.181 0
M  V30 3154 H 304.014 -6.38157 0.970847 0
M  V30 3155 H 304.782 -7.79741 2.48892 0
M  V30 3156 N 307.445 0.0818655 -1.57387 0
M  V30 3157 C 308.375 1.09885 -2.06028 0
M  V30 3158 C 309.356 1.4098 -0.951774 0
M  V30 3159 O 310.541 1.50781 -1.22387 0
M  V30 3160 C 307.671 2.4151 -2.4958 0
M  V30 3161 C 306.625 2.24792 -3.64215 0
M  V30 3162 C 305.951 3.61712 -3.93787 0
M  V30 3163 C 307.251 1.67749 -4.94629 0
M  V30 3164 H 308.945 0.694128 -2.91243 0
M  V30 3165 H 306.491 0.332448 -1.4011 0
M  V30 3166 H 308.444 3.12939 -2.82219 0
M  V30 3167 H 307.168 2.83943 -1.61381 0
M  V30 3168 H 305.827 1.55807 -3.31843 0
M  V30 3169 H 305.475 4.01697 -3.02735 0
M  V30 3170 H 305.175 3.51368 -4.70971 0
M  V30 3171 H 306.699 4.34587 -4.28913 0
M  V30 3172 H 308.113 2.29032 -5.25564 0
M  V30 3173 H 306.51 1.68128 -5.76067 0
M  V30 3174 H 307.58 0.638059 -4.80684 0
M  V30 3175 N 308.923 1.53595 0.353017 0
M  V30 3176 C 310.339 1.43648 0.695516 0
M  V30 3177 C 310.539 0.585617 1.92802 0
M  V30 3178 O 309.595 0.0729223 2.52395 0
M  V30 3179 C 310.908 2.8701 0.896991 0
M  V30 3180 C 312.456 2.96723 0.996209 0
M  V30 3181 C 312.931 4.41173 1.23007 0
M  V30 3182 N 314.422 4.44657 1.29749 0
M  V30 3183 C 315.157 5.53547 1.49577 0
M  V30 3184 N 314.653 6.72461 1.66639 0
M  V30 3185 N 316.446 5.41145 1.52048 0
M  V30 3186 H 308.597 2.07415 -0.457481 0
M  V30 3187 H 310.86 0.9372 -0.142687 0
M  V30 3188 H 310.566 3.51644 0.0629938 0
M  V30 3189 H 310.44 3.31401 1.80148 0
M  V30 3190 H 312.827 2.32235 1.82074 0
M  V30 3191 H 312.908 2.55707 0.0688331 0
M  V30 3192 H 312.552 5.06238 0.410505 0
M  V30 3193 H 312.482 4.79772 2.17086 0
M  V30 3194 H 314.973 3.58963 1.18126 0
M  V30 3195 H 315.286 7.51214 1.81378 0
M  V30 3196 H 313.631 6.75423 1.63794 0
M  V30 3197 H 316.822 4.47205 1.38294 0
M  V30 3198 H 316.995 6.26068 1.67159 0
M  V30 3199 N 310.401 -0.613514 1.45168 0
M  V30 3200 C 311.678 -1.37263 1.39349 0
M  V30 3201 C 312.058 -2.11012 0.0610848 0
M  V30 3202 O 311.406 -2.07502 -0.956825 0
M  V30 3203 C 311.616 -2.3244 2.60332 0
M  V30 3204 C 312.964 -2.9523 3.05163 0
M  V30 3205 O 313.988 -2.42762 2.60663 0
M  V30 3206 O 312.847 -3.90454 3.82372 0
M  V30 3207 H 309.941 -0.615188 0.552696 0
M  V30 3208 H 312.487 -0.637097 1.57287 0
M  V30 3209 H 311.259 -1.77164 3.48896 0
M  V30 3210 H 310.882 -3.13383 2.44698 0
M  V30 3211 N 311.879 -1.3236 -0.855495 0
M  V30 3212 C 312.809 -1.23833 -1.97958 0
M  V30 3213 C 313.79 -0.122361 -1.69659 0
M  V30 3214 O 314.975 -0.30939 -1.9172 0
M  V30 3215 C 312.105 -0.959772 -3.33775 0
M  V30 3216 C 311.059 -2.03689 -3.76424 0
M  V30 3217 C 310.385 -1.61075 -5.09862 0
M  V30 3218 C 311.685 -3.4518 -3.9198 0
M  V30 3219 H 313.379 -2.1788 -2.0535 0
M  V30 3220 H 310.925 -1.04891 -0.986605 0
M  V30 3221 H 312.878 -0.886678 -4.11966 0
M  V30 3222 H 311.602 0.0163404 -3.26596 0
M  V30 3223 H 310.261 -2.10012 -3.00484 0
M  V30 3224 H 309.909 -0.622107 -4.99138 0
M  V30 3225 H 309.609 -2.33143 -5.39368 0
M  V30 3226 H 311.133 -1.55201 -5.90546 0
M  V30 3227 H 312.547 -3.4145 -4.60526 0
M  V30 3228 H 310.944 -4.1559 -4.32903 0
M  V30 3229 H 312.014 -3.84903 -2.94919 0
M  V30 3230 N 313.357 1.07166 -1.15556 0
M  V30 3231 C 314.605 1.79443 -0.929764 0
M  V30 3232 C 314.926 1.87246 0.544414 0
M  V30 3233 O 314.196 1.37473 1.39564 0
M  V30 3234 H 312.776 0.664625 -0.341003 0
M  V30 3235 H 315.438 1.29499 -1.45657 0
M  V30 3236 H 314.534 2.81832 -1.34079 0
M  V30 3237 N 314.835 0.952656 1.25548 0
M  V30 3238 C 316.075 0.614013 1.9496 0
M  V30 3239 C 316.439 -0.833215 1.72978 0
M  V30 3240 O 317.64 -1.28135 2.36294 0
M  V30 3241 C 315.911 0.960562 3.4425 0
M  V30 3242 S 317.47 0.734195 4.32614 0
M  V30 3243 H 314.288 0.225754 0.674208 0
M  V30 3244 H 316.89 1.22641 1.52248 0
M  V30 3245 H 315.594 2.01103 3.57751 0
M  V30 3246 H 315.125 0.338336 3.91942 0
M  V30 3247 H 317.14 -0.395995 4.94617 0
M  V30 3248 N 316.313 -1.40141 0.720998 0
M  V30 3249 C 317.59 -1.94677 0.189757 0
M  V30 3250 C 317.97 -1.65879 -1.30566 0
M  V30 3251 O 317.318 -0.979391 -2.06447 0
M  V30 3252 C 317.528 -3.45279 0.508304 0
M  V30 3253 C 318.876 -4.22209 0.449934 0
M  V30 3254 O 319.9 -3.53413 0.444677 0
M  V30 3255 O 318.759 -5.44788 0.432189 0
M  V30 3256 H 315.853 -0.826459 0.0299026 0
M  V30 3257 H 318.399 -1.49719 0.7989 0
M  V30 3258 H 317.171 -3.59619 1.54239 0
M  V30 3259 H 316.794 -3.97386 -0.130525 0
M  V30 3260 N 317.792 -0.46758 -1.50504 0
M  V30 3261 C 319.02 0.0864133 -2.06719 0
M  V30 3262 C 319.435 1.33819 -1.33184 0
M  V30 3263 O 318.792 1.78061 -0.400083 0
M  V30 3264 C 318.843 0.378079 -3.59517 0
M  V30 3265 O 318.564 -0.824044 -4.3028 0
M  V30 3266 C 320.065 0.979426 -4.32345 0
M  V30 3267 H 317.285 -0.00551697 -0.670977 0
M  V30 3268 H 319.829 -0.655354 -1.93715 0
M  V30 3269 H 317.984 1.06977 -3.72337 0
M  V30 3270 H 318.398 -0.566518 -5.21432 0
M  V30 3271 H 319.872 1.1333 -5.40241 0
M  V30 3272 H 320.349 1.9686 -3.9261 0
M  V30 3273 H 320.955 0.326216 -4.24047 0
M  V30 3274 N 319.27 1.56325 -0.20005 0
M  V30 3275 C 320.498 2.02105 0.442874 0
M  V30 3276 C 320.913 1.08014 1.5485 0
M  V30 3277 O 320.27 0.0858797 1.82298 0
M  V30 3278 C 320.321 3.47549 0.994583 0
M  V30 3279 O 320.042 4.38049 -0.0669322 0
M  V30 3280 C 321.543 4.0887 1.7129 0
M  V30 3281 H 318.763 0.661807 0.110691 0
M  V30 3282 H 321.307 2.02134 -0.310207 0
M  V30 3283 H 319.462 3.48204 1.69803 0
M  V30 3284 H 319.876 5.23368 0.344462 0
M  V30 3285 H 321.35 5.12475 2.05118 0
M  V30 3286 H 321.827 3.52615 2.61838 0
M  V30 3287 H 322.433 4.12002 1.05518 0
M  V30 3288 N 320.748 -0.0735177 1.57428 0
M  V30 3289 C 321.997 -0.771809 1.86349 0
M  V30 3290 C 322.31 -1.78828 0.792452 0
M  V30 3291 O 323.516 -2.53602 0.96945 0
M  V30 3292 C 321.972 -1.42358 3.30548 0
M  V30 3293 C 321.58 -0.445761 4.45777 0
M  V30 3294 C 323.324 -2.10434 3.6867 0
M  V30 3295 C 321.231 -1.10335 5.81016 0
M  V30 3296 H 320.161 -0.291999 0.695164 0
M  V30 3297 H 322.812 -0.0250749 1.83483 0
M  V30 3298 H 321.194 -2.21852 3.28021 0
M  V30 3299 H 322.368 0.319239 4.59693 0
M  V30 3300 H 320.683 0.130457 4.16196 0
M  V30 3301 H 323.28 -2.60405 4.67004 0
M  V30 3302 H 323.623 -2.90298 2.98383 0
M  V30 3303 H 324.156 -1.37773 3.7318 0
M  V30 3304 H 320.895 -0.345061 6.54591 0
M  V30 3305 H 320.415 -1.83925 5.70904 0
M  V30 3306 H 322.094 -1.62367 6.26295 0
M  V30 3307 N 322.226 -1.5378 -0.344866 0
M  V30 3308 C 323.475 -1.7018 -1.08267 0
M  V30 3309 C 323.788 -0.471 -1.89845 0
M  V30 3310 O 324.994 -0.515917 -2.66553 0
M  V30 3311 C 323.45 -3.00923 -1.97417 0
M  V30 3312 C 323.058 -4.31335 -1.21053 0
M  V30 3313 C 324.802 -3.26688 -2.71063 0
M  V30 3314 C 322.709 -5.53153 -2.09225 0
M  V30 3315 H 321.639 -0.634138 -0.407903 0
M  V30 3316 H 324.29 -1.8028 -0.342246 0
M  V30 3317 H 322.672 -2.84676 -2.75274 0
M  V30 3318 H 323.846 -4.58281 -0.481159 0
M  V30 3319 H 322.161 -4.12173 -0.591813 0
M  V30 3320 H 324.758 -4.1489 -3.37299 0
M  V30 3321 H 325.101 -2.43639 -3.37558 0
M  V30 3322 H 325.634 -3.43705 -2.0028 0
M  V30 3323 H 322.373 -6.38741 -1.47274 0
M  V30 3324 H 321.893 -5.30458 -2.79955 0
M  V30 3325 H 323.572 -5.88744 -2.68308 0
M  V30 3326 N 323.704 0.605807 -1.45491 0
M  V30 3327 C 324.929 1.39625 -1.53361 0
M  V30 3328 C 325.354 1.87351 -0.167645 0
M  V30 3329 O 324.712 1.60243 0.848051 0
M  V30 3330 C 324.76 2.57559 -2.5238 0
M  V30 3331 O 323.864 3.58248 -2.04285 0
M  V30 3332 H 323.205 0.416771 -0.516912 0
M  V30 3333 H 325.735 0.737103 -1.90861 0
M  V30 3334 H 325.745 3.0478 -2.71244 0
M  V30 3335 H 324.42 2.22171 -3.51586 0
M  V30 3336 H 322.997 3.17664 -1.95305 0
M  V30 3337 N 325.182 1.32811 0.848464 0
M  V30 3338 C 326.112 1.24882 1.97299 0
M  V30 3339 C 327.093 0.131357 1.69592 0
M  V30 3340 O 328.278 0.319553 1.91553 0
M  V30 3341 C 325.408 0.97746 3.33261 0
M  V30 3342 C 324.362 2.05682 3.75338 0
M  V30 3343 C 323.688 1.63777 5.09 0
M  V30 3344 C 324.988 3.47254 3.90144 0
M  V30 3345 H 326.682 2.18966 2.04191 0
M  V30 3346 H 324.228 1.05413 0.981029 0
M  V30 3347 H 326.181 0.908513 4.1149 0
M  V30 3348 H 324.905 0.000980011 3.266 0
M  V30 3349 H 323.564 2.11603 2.99366 0
M  V30 3350 H 323.212 0.648569 4.98801 0
M  V30 3351 H 322.912 2.36 5.38124 0
M  V30 3352 H 324.436 1.5833 5.89715 0
M  V30 3353 H 325.85 3.43888 4.58709 0
M  V30 3354 H 324.247 4.1788 4.30693 0
M  V30 3355 H 325.317 3.86462 2.92874 0
M  V30 3356 N 326.66 -1.06551 1.16123 0
M  V30 3357 C 327.908 -1.78947 0.939267 0
M  V30 3358 C 328.229 -1.87532 -0.534476 0
M  V30 3359 O 327.499 -1.38211 -1.38833 0
M  V30 3360 H 326.079 -0.662807 0.344523 0
M  V30 3361 H 328.741 -1.28725 1.46342 0
M  V30 3362 H 327.837 -2.81117 1.35572 0
M  V30 3363 N 328.138 -0.959301 -1.25041 0
M  V30 3364 C 329.101 -0.487677 -2.23952 0
M  V30 3365 C 330.101 0.41119 -1.55454 0
M  V30 3366 O 331.291 0.207825 -1.72956 0
M  V30 3367 C 328.423 0.294807 -3.39623 0
M  V30 3368 H 329.616 -1.36198 -2.67189 0
M  V30 3369 H 327.169 -0.743042 -1.37508 0
M  V30 3370 H 327.904 1.18658 -3.01813 0
M  V30 3371 H 327.689 -0.35012 -3.90534 0
M  V30 3372 H 329.179 0.614089 -4.1306 0
M  V30 3373 N 329.616 1.39756 -0.72842 0
M  V30 3374 C 330.893 1.94574 -0.200079 0
M  V30 3375 C 331.273 1.66569 1.29684 0
M  V30 3376 O 330.621 0.990326 2.05924 0
M  V30 3377 C 330.831 3.45004 -0.526608 0
M  V30 3378 C 332.179 4.21965 -0.472318 0
M  V30 3379 O 333.203 3.53173 -0.463413 0
M  V30 3380 O 332.062 5.44552 -0.461075 0
M  V30 3381 H 329.156 0.826289 -0.0342851 0
M  V30 3382 H 331.702 1.49293 -0.806829 0
M  V30 3383 H 330.474 3.58796 -1.56144 0
M  V30 3384 H 330.097 3.97449 0.109449 0
M  V30 3385 N 331.094 0.475555 1.50254 0
M  V30 3386 C 332.342 -0.077738 2.0195 0
M  V30 3387 C 332.663 -1.39813 1.35931 0
M  V30 3388 O 331.933 -1.89249 0.506123 0
M  V30 3389 H 330.513 -0.031719 0.746326 0
M  V30 3390 H 333.175 0.626995 1.84539 0
M  V30 3391 H 332.271 -0.225995 3.11281 0
M  V30 3392 N 332.573 -1.56217 0.208337 0
M  V30 3393 C 333.536 -2.18455 -0.693557 0
M  V30 3394 C 334.536 -1.14268 -1.13135 0
M  V30 3395 O 335.726 -1.39577 -1.0423 0
M  V30 3396 C 332.858 -2.79727 -1.94848 0
M  V30 3397 H 334.051 -2.99519 -0.15114 0
M  V30 3398 H 331.604 -1.56245 -0.041287 0
M  V30 3399 H 332.339 -2.02497 -2.53309 0
M  V30 3400 H 332.124 -3.56009 -1.64316 0
M  V30 3401 H 333.614 -3.27475 -2.59133 0
M  V30 3402 N 334.051 0.0651679 -1.57465 0
M  V30 3403 C 334.981 1.07693 -2.07182 0
M  V30 3404 C 335.962 1.39962 -0.966673 0
M  V30 3405 O 337.147 1.49475 -1.2398 0
M  V30 3406 C 334.277 2.3885 -2.52127 0
M  V30 3407 C 333.231 2.20917 -3.66579 0
M  V30 3408 C 332.557 3.57515 -3.97601 0
M  V30 3409 C 333.857 1.62493 -4.9638 0
M  V30 3410 H 335.551 0.663199 -2.91962 0
M  V30 3411 H 333.097 0.317569 -1.40455 0
M  V30 3412 H 335.05 3.09928 -2.85522 0
M  V30 3413 H 333.774 2.82215 -1.64384 0
M  V30 3414 H 332.433 1.52279 -3.33477 0
M  V30 3415 H 332.081 3.98463 -3.06979 0
M  V30 3416 H 331.781 3.46353 -4.74672 0
M  V30 3417 H 333.305 4.30013 -4.33499 0
M  V30 3418 H 334.719 2.23445 -5.27963 0
M  V30 3419 H 333.116 1.62009 -5.77818 0
M  V30 3420 H 334.186 0.587041 -4.81333 0
M  V30 3421 N 335.529 1.53961 0.336706 0
M  V30 3422 C 336.459 1.85417 1.41925 0
M  V30 3423 C 337.44 0.709856 1.5458 0
M  V30 3424 O 338.625 0.962396 1.68676 0
M  V30 3425 C 335.755 2.06985 2.78881 0
M  V30 3426 C 334.709 3.22813 2.81026 0
M  V30 3427 C 334.035 3.29727 4.20932 0
M  V30 3428 C 335.335 4.60767 2.45949 0
M  V30 3429 H 337.029 2.76079 1.15848 0
M  V30 3430 H 334.575 1.32839 0.555859 0
M  V30 3431 H 336.528 2.27575 3.54665 0
M  V30 3432 H 335.252 1.13061 3.06406 0
M  V30 3433 H 333.911 3.0209 2.07695 0
M  V30 3434 H 333.559 2.33385 4.45579 0
M  V30 3435 H 333.259 4.07566 4.23277 0
M  V30 3436 H 334.783 3.52536 4.98549 0
M  V30 3437 H 336.197 4.81325 3.11446 0
M  V30 3438 H 334.594 5.4106 2.59566 0
M  V30 3439 H 335.664 4.6391 1.41122 0
M  V30 3440 N 337.007 -0.598083 1.45811 0
M  V30 3441 C 338.256 -1.35295 1.49594 0
M  V30 3442 C 338.569 -1.95057 0.145679 0
M  V30 3443 O 339.775 -2.71431 0.0612099 0
M  V30 3444 C 338.231 -2.45124 2.63519 0
M  V30 3445 C 337.839 -1.91732 4.04899 0
M  V30 3446 C 339.583 -3.2205 2.76558 0
M  V30 3447 C 337.49 -2.991 5.1019 0
M  V30 3448 H 336.42 -0.508552 0.556679 0
M  V30 3449 H 339.071 -0.639977 1.71978 0
M  V30 3450 H 337.453 -3.19149 2.34435 0
M  V30 3451 H 338.627 -1.24352 4.43704 0
M  V30 3452 H 336.942 -1.27522 3.96393 0
M  V30 3453 H 339.539 -4.0215 3.52391 0
M  V30 3454 H 339.882 -3.73663 1.83526 0
M  V30 3455 H 340.415 -2.55127 3.05213 0
M  V30 3456 H 337.154 -2.52393 6.04961 0
M  V30 3457 H 336.674 -3.65017 4.75944 0
M  V30 3458 H 338.353 -3.63318 5.35359 0
M  V30 3459 N 338.485 -1.33259 -0.841409 0
M  V30 3460 C 339.713 -1.27605 -1.62864 0
M  V30 3461 C 340.128 0.153507 -1.88175 0
M  V30 3462 O 339.485 1.09485 -1.46011 0
M  V30 3463 C 339.536 -2.04596 -2.98031 0
M  V30 3464 O 339.257 -3.41975 -2.73834 0
M  V30 3465 C 340.758 -2.06122 -3.92465 0
M  V30 3466 H 337.978 -0.439718 -0.506842 0
M  V30 3467 H 340.522 -1.75591 -1.04824 0
M  V30 3468 H 338.677 -1.60299 -3.5268 0
M  V30 3469 H 339.091 -3.81549 -3.59889 0
M  V30 3470 H 340.565 -2.64451 -4.84531 0
M  V30 3471 H 341.042 -1.05083 -4.26444 0
M  V30 3472 H 341.648 -2.50427 -3.43753 0
M  V30 3473 N 339.963 1.05934 -1.16686 0
M  V30 3474 C 340.926 2.11669 -0.879144 0
M  V30 3475 C 341.926 1.60294 0.127445 0
M  V30 3476 O 343.116 1.7389 -0.103865 0
M  V30 3477 C 340.248 3.39438 -0.315425 0
M  V30 3478 H 341.441 2.38626 -1.81653 0
M  V30 3479 H 338.994 1.22058 -0.976299 0
M  V30 3480 H 339.729 3.18132 0.629468 0
M  V30 3481 H 339.514 3.78034 -1.04079 0
M  V30 3482 H 341.004 4.17391 -0.132189 0
M  V30 3483 N 341.441 0.965919 1.2453 0
M  V30 3484 C 342.351 0.502154 2.29163 0
M  V30 3485 C 343.367 -0.436017 1.68448 0
M  V30 3486 O 344.543 -0.309497 1.99008 0
M  V30 3487 C 341.608 -0.201956 3.46111 0
M  V30 3488 C 340.669 0.775821 4.22232 0
M  V30 3489 C 339.902 0.105217 5.33596 0
M  V30 3490 O 340.125 -1.10683 5.59558 0
M  V30 3491 O 339.059 0.796475 5.96607 0
M  V30 3492 H 342.885 1.37194 2.70946 0
M  V30 3493 H 340.47 0.732875 1.30189 0
M  V30 3494 H 342.352 -0.597564 4.17142 0
M  V30 3495 H 341.027 -1.04673 3.06309 0
M  V30 3496 H 339.934 1.22185 3.53584 0
M  V30 3497 H 341.267 1.58896 4.65846 0
M  V30 3498 N 342.919 -1.39368 0.735821 0
M  V30 3499 C 344.167 -2.00101 0.283562 0
M  V30 3500 C 344.488 -1.5868 -1.13338 0
M  V30 3501 O 343.758 -0.835423 -1.77193 0
M  V30 3502 H 342.338 -0.740024 0.101851 0
M  V30 3503 H 345 -1.70404 0.945962 0
M  V30 3504 H 344.096 -3.10323 0.332604 0
M  V30 3505 N 344.397 -0.483516 -1.5 0
M  V30 3506 C 345.307 0.309172 -2.32554 0
M  V30 3507 C 346.323 0.984159 -1.43493 0
M  V30 3508 O 347.499 0.969399 -1.76535 0
M  V30 3509 C 344.564 1.36979 -3.18493 0
M  V30 3510 C 343.625 0.710095 -4.23387 0
M  V30 3511 C 342.858 1.72018 -5.05218 0
M  V30 3512 O 343.081 2.94813 -4.88305 0
M  V30 3513 O 342.015 1.28515 -5.8802 0
M  V30 3514 H 345.841 -0.366064 -3.01486 0
M  V30 3515 H 343.426 -0.24514 -1.47375 0
M  V30 3516 H 345.308 1.98385 -3.71781 0
M  V30 3517 H 343.983 2.02828 -2.52275 0
M  V30 3518 H 342.89 0.0567539 -3.74057 0
M  V30 3519 H 344.223 0.0943557 -4.9211 0
M  V30 3520 N 345.875 1.56104 -0.216619 0
M  V30 3521 C 347.122 1.98172 0.416416 0
M  V30 3522 C 347.45 1.10413 1.60122 0
M  V30 3523 O 346.705 0.147967 1.9514 0
M  V30 3524 C 347.004 3.45923 0.898464 0
M  V30 3525 C 346.67 4.50559 -0.175288 0
M  V30 3526 C 345.332 4.78897 -0.470271 0
M  V30 3527 C 347.684 5.1334 -0.901728 0
M  V30 3528 C 345.012 5.67299 -1.4963 0
M  V30 3529 C 347.364 6.02853 -1.91705 0
M  V30 3530 C 346.028 6.29537 -2.21901 0
M  V30 3531 H 345.298 0.725164 0.152377 0
M  V30 3532 H 347.945 1.88839 -0.318103 0
M  V30 3533 H 346.25 3.52434 1.71165 0
M  V30 3534 H 347.947 3.75841 1.39803 0
M  V30 3535 H 344.537 4.28551 0.0647806 0
M  V30 3536 H 348.721 4.91521 -0.687072 0
M  V30 3537 H 343.977 5.86239 -1.73592 0
M  V30 3538 H 348.151 6.50552 -2.48505 0
M  V30 3539 H 345.778 6.97835 -3.01548 0
M  V30 3540 N 347.353 -0.0568162 1.57498 0
M  V30 3541 C 348.303 -1.07315 2.01166 0
M  V30 3542 C 349.287 -1.33632 0.896171 0
M  V30 3543 O 350.479 -1.33682 1.16009 0
M  V30 3544 C 347.608 -2.38257 2.47161 0
M  V30 3545 C 346.694 -2.1515 3.65474 0
M  V30 3546 N 347.085 -1.62014 4.7915 0
M  V30 3547 C 345.383 -2.45559 3.72313 0
M  V30 3548 C 346.084 -1.54069 5.60926 0
M  V30 3549 N 345.06 -2.00652 5.05213 0
M  V30 3550 H 348.862 -0.655878 2.86488 0
M  V30 3551 H 346.376 -0.263635 1.60246 0
M  V30 3552 H 348.373 -3.11845 2.76691 0
M  V30 3553 H 347.033 -2.80687 1.63232 0
M  V30 3554 H 348.044 -1.30667 5.01145 0
M  V30 3555 H 344.721 -2.91253 2.99129 0
M  V30 3556 H 346.111 -1.13712 6.62208 0
M  V30 3557 N 348.832 -1.54138 -0.328536 0
M  V30 3558 C 350.079 -1.72105 -1.06706 0
M  V30 3559 C 350.407 -0.492111 -1.88171 0
M  V30 3560 O 349.662 0.526153 -1.88494 0
M  V30 3561 C 349.961 -2.9457 -2.02393 0
M  V30 3562 C 349.627 -4.29544 -1.37122 0
M  V30 3563 C 348.289 -4.6624 -1.19052 0
M  V30 3564 C 350.641 -5.1333 -0.902331 0
M  V30 3565 C 347.969 -5.84325 -0.527331 0
M  V30 3566 C 350.321 -6.32094 -0.252988 0
M  V30 3567 C 348.985 -6.67473 -0.0600901 0
M  V30 3568 H 348.255 -0.629775 -0.390466 0
M  V30 3569 H 350.902 -1.88372 -0.34473 0
M  V30 3570 H 349.207 -2.72969 -2.81061 0
M  V30 3571 H 350.904 -3.05665 -2.59557 0
M  V30 3572 H 347.494 -4.0067 -1.52188 0
M  V30 3573 H 351.678 -4.855 -1.02974 0
M  V30 3574 H 346.934 -6.103 -0.366634 0
M  V30 3575 H 351.108 -6.96299 0.118366 0
M  V30 3576 H 348.735 -7.58832 0.455828 0
M  V30 3577 N 350.31 0.590341 -1.46126 0
M  V30 3578 C 351.721 1.17243 -1.45296 0
M  V30 3579 C 352.072 1.95281 -0.189723 0
M  V30 3580 O 351.197 2.04502 0.707674 0
M  V30 3581 C 351.792 2.13284 -2.6324 0
M  V30 3582 C 350.351 2.66832 -2.65476 0
M  V30 3583 C 349.498 1.42557 -2.3785 0
M  V30 3584 H 352.449 0.378692 -1.54116 0
M  V30 3585 H 352.47 2.96619 -2.38323 0
M  V30 3586 H 351.982 1.56459 -3.55165 0
M  V30 3587 H 350.083 3.27548 -1.77603 0
M  V30 3588 H 350.196 3.10088 -3.65215 0
M  V30 3589 H 348.56 1.72107 -1.87753 0
M  V30 3590 H 349.343 0.875741 -3.31942 0
M  V30 3591 N 351.788 1.33704 0.83433 0
M  V30 3592 C 352.751 1.24244 1.92603 0
M  V30 3593 C 353.751 0.160383 1.59998 0
M  V30 3594 O 354.941 0.412228 1.69252 0
M  V30 3595 C 352.073 0.91555 3.28376 0
M  V30 3596 H 353.266 2.21287 2.02416 0
M  V30 3597 H 350.819 1.17827 1.02696 0
M  V30 3598 H 351.554 -0.0521886 3.24258 0
M  V30 3599 H 351.339 1.69811 3.53422 0
M  V30 3600 H 352.829 0.874231 4.08347 0
M  V30 3601 N 353.266 -1.05314 1.17247 0
M  V30 3602 C 354.677 -1.59753 0.96623 0
M  V30 3603 C 355.028 -1.9005 -0.487378 0
M  V30 3604 O 354.153 -1.68126 -1.36245 0
M  V30 3605 C 354.748 -2.90249 1.74759 0
M  V30 3606 C 353.307 -3.41352 1.58606 0
M  V30 3607 C 352.454 -2.15103 1.75002 0
M  V30 3608 H 355.405 -0.881406 1.31973 0
M  V30 3609 H 355.426 -3.60097 1.22925 0
M  V30 3610 H 354.938 -2.68166 2.8055 0
M  V30 3611 H 353.039 -3.68474 0.552985 0
M  V30 3612 H 353.152 -4.16019 2.37624 0
M  V30 3613 H 351.516 -2.25804 1.17833 0
M  V30 3614 H 352.299 -1.95491 2.82202 0
M  V30 3615 N 354.744 -0.972509 -1.24016 0
M  V30 3616 C 356.16 -0.679827 -1.44397 0
M  V30 3617 C 356.36 0.756716 -1.86751 0
M  V30 3618 O 355.416 1.53007 -2.00861 0
M  V30 3619 C 356.729 -1.66803 -2.50195 0
M  V30 3620 C 358.277 -1.68119 -2.64017 0
M  V30 3621 C 358.752 -2.65748 -3.73017 0
M  V30 3622 N 360.243 -2.64219 -3.8045 0
M  V30 3623 C 360.978 -3.36433 -4.64328 0
M  V30 3624 N 360.474 -4.1818 -5.52356 0
M  V30 3625 N 362.267 -3.25235 -4.58453 0
M  V30 3626 H 354.418 -1.90059 -0.948228 0
M  V30 3627 H 356.681 -0.818527 -0.478245 0
M  V30 3628 H 356.387 -2.69498 -2.25973 0
M  V30 3629 H 356.261 -1.4446 -3.48441 0
M  V30 3630 H 358.648 -0.661319 -2.87594 0
M  V30 3631 H 358.729 -1.94525 -1.66113 0
M  V30 3632 H 358.373 -3.67872 -3.50189 0
M  V30 3633 H 358.303 -2.36619 -4.70446 0
M  V30 3634 H 360.794 -2.04887 -3.17537 0
M  V30 3635 H 361.107 -4.70157 -6.13329 0
M  V30 3636 H 359.452 -4.22273 -5.52006 0
M  V30 3637 H 362.643 -2.60829 -3.88698 0
M  V30 3638 H 362.816 -3.81776 -5.23594 0
M  V30 3639 N 356.222 1.38976 -0.743202 0
M  V30 3640 C 357.468 2.0064 -0.295189 0
M  V30 3641 C 357.801 1.5885 1.11716 0
M  V30 3642 O 357.076 0.821181 1.76315 0
M  V30 3643 C 357.359 3.578 -0.406318 0
M  V30 3644 C 357.212 4.09586 -1.85903 0
M  V30 3645 C 358.531 4.39616 0.206439 0
M  V30 3646 H 355.65 0.728935 -0.108733 0
M  V30 3647 H 358.292 1.65067 -0.940897 0
M  V30 3648 H 356.442 3.88235 0.143419 0
M  V30 3649 H 358.114 3.89837 -2.46627 0
M  V30 3650 H 356.357 3.6284 -2.3776 0
M  V30 3651 H 357.028 5.18708 -1.888 0
M  V30 3652 H 359.504 4.15273 -0.262283 0
M  V30 3653 H 358.38 5.48812 0.0983819 0
M  V30 3654 H 358.641 4.22754 1.2935 0
M  V30 3655 N 357.7 0.491464 1.49741 0
M  V30 3656 C 358.977 -0.118984 1.95238 0
M  V30 3657 C 359.357 -1.55044 1.43264 0
M  V30 3658 O 358.705 -2.19287 0.642287 0
M  V30 3659 C 358.915 -0.0414187 3.48975 0
M  V30 3660 C 360.263 -0.220133 4.24029 0
M  V30 3661 O 361.287 -0.117055 3.56008 0
M  V30 3662 O 360.146 -0.430567 5.44801 0
M  V30 3663 H 357.24 -0.100536 0.820866 0
M  V30 3664 H 359.786 0.553322 1.60426 0
M  V30 3665 H 358.558 0.957214 3.79412 0
M  V30 3666 H 358.181 -0.754292 3.9038 0
M  V30 3667 N 359.178 -1.55987 0.224894 0
M  V30 3668 C 360.424 -1.98684 -0.406502 0
M  V30 3669 C 360.757 -1.11248 -1.59177 0
M  V30 3670 O 360.032 -0.170909 -1.93748 0
M  V30 3671 C 360.315 -3.50218 -0.837808 0
M  V30 3672 C 360.168 -4.48426 0.351332 0
M  V30 3673 C 361.487 -4.06243 -1.69278 0
M  V30 3674 H 358.606 -0.722337 -0.146283 0
M  V30 3675 H 361.248 -1.87255 0.321799 0
M  V30 3676 H 359.398 -3.60089 -1.45837 0
M  V30 3677 H 361.07 -4.50562 0.989526 0
M  V30 3678 H 359.313 -4.22159 0.998207 0
M  V30 3679 H 359.984 -5.52 0.00655905 0
M  V30 3680 H 362.46 -3.99337 -1.16914 0
M  V30 3681 H 361.336 -5.12581 -1.96346 0
M  V30 3682 H 361.597 -3.53332 -2.65723 0
M  V30 3683 N 360.656 0.0484629 -1.57525 0
M  V30 3684 C 361.902 0.744226 -1.88651 0
M  V30 3685 C 362.235 1.76029 -0.820212 0
M  V30 3686 O 361.51 1.93782 0.166985 0
M  V30 3687 C 361.793 1.43128 -3.30434 0
M  V30 3688 C 361.646 0.43005 -4.47739 0
M  V30 3689 C 362.965 2.37031 -3.70816 0
M  V30 3690 H 360.084 0.269089 -0.68612 0
M  V30 3691 H 362.726 0.00713532 -1.89999 0
M  V30 3692 H 360.876 2.05956 -3.29415 0
M  V30 3693 H 362.548 -0.194816 -4.60888 0
M  V30 3694 H 360.791 -0.252522 -4.33064 0
M  V30 3695 H 361.462 0.948874 -5.43783 0
M  V30 3696 H 363.938 1.84263 -3.73077 0
M  V30 3697 H 362.814 2.82094 -4.70865 0
M  V30 3698 H 363.075 3.22864 -3.02012 0
M  V30 3699 N 362.134 1.5431 0.320358 0
M  V30 3700 C 363.411 1.63322 1.07635 0
M  V30 3701 C 363.791 0.46912 2.05821 0
M  V30 3702 O 363.139 -0.536274 2.22118 0
M  V30 3703 C 363.349 3.00465 1.77544 0
M  V30 3704 C 364.697 3.56621 2.30449 0
M  V30 3705 O 365.721 3.02791 1.87606 0
M  V30 3706 O 364.58 4.5083 3.08892 0
M  V30 3707 H 361.674 0.661502 0.496331 0
M  V30 3708 H 364.22 1.66656 0.319992 0
M  V30 3709 H 362.992 3.76629 1.06143 0
M  V30 3710 H 362.615 3.00824 2.59982 0
M  V30 3711 N 363.613 -0.582584 1.46437 0
M  V30 3712 C 364.841 -1.36682 1.55324 0
M  V30 3713 C 365.256 -1.87796 0.194409 0
M  V30 3714 O 364.613 -1.63623 -0.808318 0
M  V30 3715 C 364.664 -2.55426 2.55812 0
M  V30 3716 O 364.385 -2.0643 3.86417 0
M  V30 3717 C 365.886 -3.47976 2.74641 0
M  V30 3718 H 363.106 -0.417545 0.525259 0
M  V30 3719 H 365.65 -0.708219 1.91845 0
M  V30 3720 H 363.805 -3.17275 2.22295 0
M  V30 3721 H 364.219 -2.83762 4.41111 0
M  V30 3722 H 365.693 -4.27775 3.48874 0
M  V30 3723 H 366.17 -3.99919 1.81553 0
M  V30 3724 H 366.776 -2.91962 3.09255 0
M  V30 3725 N 365.091 -1.34144 -0.827227 0
M  V30 3726 C 366.319 -1.29325 -1.61501 0
M  V30 3727 C 366.734 0.13354 -1.88327 0
M  V30 3728 O 366.091 1.0793 -1.47164 0
M  V30 3729 C 366.142 -2.07746 -2.95844 0
M  V30 3730 O 365.863 -3.4486 -2.70191 0
M  V30 3731 C 367.364 -2.10273 -3.90256 0
M  V30 3732 H 364.584 -0.445069 -0.50215 0
M  V30 3733 H 367.128 -1.76693 -1.02955 0
M  V30 3734 H 365.283 -1.6403 -3.5096 0
M  V30 3735 H 365.697 -3.85345 -3.55822 0
M  V30 3736 H 367.171 -2.69575 -4.81698 0
M  V30 3737 H 367.648 -1.096 -4.25305 0
M  V30 3738 H 368.254 -2.54059 -3.41078 0
M  V30 3739 N 366.569 1.04691 -1.17803 0
M  V30 3740 C 367.817 1.7743 -0.967617 0
M  V30 3741 C 368.138 1.88359 0.504574 0
M  V30 3742 O 367.408 1.40402 1.36617 0
M  V30 3743 H 365.988 0.657242 -0.355024 0
M  V30 3744 H 368.65 1.2638 -1.48371 0
M  V30 3745 H 367.746 2.78924 -1.40027 0
M  V30 3746 N 368.047 0.979072 1.23499 0
M  V30 3747 C 369.01 0.523244 2.23147 0
M  V30 3748 C 370.01 -0.386406 1.56088 0
M  V30 3749 O 371.2 -0.180283 1.73265 0
M  V30 3750 C 368.332 -0.240739 3.40049 0
M  V30 3751 H 369.525 1.40432 2.64989 0
M  V30 3752 H 367.078 0.764824 1.36309 0
M  V30 3753 H 367.813 -1.13841 3.03662 0
M  V30 3754 H 367.598 0.412207 3.89927 0
M  V30 3755 H 369.088 -0.548297 4.13985 0
M  V30 3756 N 369.525 -1.3858 0.750561 0
M  V30 3757 C 370.773 -1.99789 0.30477 0
M  V30 3758 C 371.094 -1.59874 -1.11649 0
M  V30 3759 O 370.364 -0.85417 -1.76297 0
M  V30 3760 H 368.944 -0.738902 0.109694 0
M  V30 3761 H 371.606 -1.69391 0.963983 0
M  V30 3762 H 370.702 -3.09952 0.365499 0
M  V30 3763 N 371.003 -0.499398 -1.49478 0
M  V30 3764 C 372.28 0.108629 -1.95298 0
M  V30 3765 C 372.66 1.54282 -1.44084 0
M  V30 3766 O 372.008 2.18944 -0.653908 0
M  V30 3767 C 372.218 0.0229111 -3.48992 0
M  V30 3768 C 373.566 0.197643 -4.2414 0
M  V30 3769 O 374.59 0.0981735 -3.56065 0
M  V30 3770 O 373.449 0.401669 -5.45022 0
M  V30 3771 H 370.543 0.096181 -0.821388 0
M  V30 3772 H 373.089 -0.561822 -1.6013 0
M  V30 3773 H 371.861 -0.977321 -3.78899 0
M  V30 3774 H 371.484 0.733579 -3.90774 0
M  V30 3775 N 372.481 1.55866 -0.233164 0
M  V30 3776 C 373.444 2.1953 0.658715 0
M  V30 3777 C 374.444 1.16053 1.11303 0
M  V30 3778 O 375.634 1.41218 1.01996 0
M  V30 3779 C 372.766 2.82791 1.90373 0
M  V30 3780 H 373.959 2.99721 0.10347 0
M  V30 3781 H 371.512 1.56291 0.0164245 0
M  V30 3782 H 372.247 2.06501 2.50056 0
M  V30 3783 H 372.032 3.58578 1.58632 0
M  V30 3784 H 373.522 3.31556 2.53891 0
M  V30 3785 N 373.959 -0.0401083 1.57549 0
M  V30 3786 C 375.206 -0.733125 1.88763 0
M  V30 3787 C 375.534 -1.75946 0.829058 0
M  V30 3788 O 374.789 -1.94949 -0.171323 0
M  V30 3789 C 375.088 -1.44902 3.26708 0
M  V30 3790 C 374.754 -0.559707 4.47413 0
M  V30 3791 C 373.416 -0.314731 4.8017 0
M  V30 3792 C 375.768 0.0549743 5.21171 0
M  V30 3793 C 373.096 0.553886 5.8408 0
M  V30 3794 C 375.448 0.911229 6.26003 0
M  V30 3795 C 374.112 1.16577 6.57241 0
M  V30 3796 H 373.382 -0.268269 0.690733 0
M  V30 3797 H 376.029 0.00679408 1.91499 0
M  V30 3798 H 374.334 -2.26197 3.1991 0
M  V30 3799 H 376.031 -1.99058 3.48105 0
M  V30 3800 H 372.621 -0.760793 4.21794 0
M  V30 3801 H 376.805 -0.121344 4.96152 0
M  V30 3802 H 372.061 0.759518 6.06664 0
M  V30 3803 H 376.235 1.3941 6.82303 0
M  V30 3804 H 373.862 1.84058 7.37582 0
M  V30 3805 N 375.437 -1.54477 -0.31217 0
M  V30 3806 C 376.683 -1.73483 -1.0503 0
M  V30 3807 C 377.016 -0.513125 -1.87298 0
M  V30 3808 O 376.291 0.489864 -1.8823 0
M  V30 3809 C 376.574 -3.01723 -1.96558 0
M  V30 3810 C 376.427 -4.3417 -1.17545 0
M  V30 3811 C 377.746 -3.25772 -2.95907 0
M  V30 3812 H 374.865 -0.631222 -0.380432 0
M  V30 3813 H 377.507 -1.87184 -0.325932 0
M  V30 3814 H 375.657 -2.90174 -2.58324 0
M  V30 3815 H 377.329 -4.5762 -0.581513 0
M  V30 3816 H 375.572 -4.31159 -0.477925 0
M  V30 3817 H 376.243 -5.20143 -1.84811 0
M  V30 3818 H 378.719 -3.36857 -2.44267 0
M  V30 3819 H 377.595 -4.16838 -3.57123 0
M  V30 3820 H 377.856 -2.43537 -3.68974 0
M  V30 3821 N 376.915 0.57481 -1.46744 0
M  V30 3822 C 378.163 1.33009 -1.52161 0
M  V30 3823 C 378.484 1.94185 -0.178092 0
M  V30 3824 O 377.754 1.7899 0.796196 0
M  V30 3825 H 376.334 0.493873 -0.560445 0
M  V30 3826 H 378.996 0.672589 -1.82927 0
M  V30 3827 H 378.092 2.13273 -2.27862 0
M  V30 3828 N 378.394 1.34581 0.820102 0
M  V30 3829 C 379.642 1.26845 1.57336 0
M  V30 3830 C 379.963 -0.160667 1.94337 0
M  V30 3831 O 379.233 -1.09396 1.6251 0
M  V30 3832 H 377.813 0.466514 0.583415 0
M  V30 3833 H 380.475 1.68526 0.979027 0
M  V30 3834 H 379.571 1.87513 2.4949 0
M  V30 3835 N 379.872 -1.04064 1.18357 0
M  V30 3836 C 380.802 -2.14001 0.934113 0
M  V30 3837 C 381.783 -1.69616 -0.128186 0
M  V30 3838 O 382.968 -1.94185 0.0244093 0
M  V30 3839 C 380.098 -3.44253 0.459066 0
M  V30 3840 C 379.052 -4.02261 1.46185 0
M  V30 3841 C 378.378 -5.27992 0.844322 0
M  V30 3842 C 379.678 -4.38432 2.83856 0
M  V30 3843 H 381.372 -2.35127 1.85352 0
M  V30 3844 H 378.918 -1.12998 0.892604 0
M  V30 3845 H 380.871 -4.20522 0.271907 0
M  V30 3846 H 379.595 -3.22813 -0.495912 0
M  V30 3847 H 378.254 -3.28074 1.63595 0
M  V30 3848 H 377.902 -5.02862 -0.117845 0
M  V30 3849 H 377.602 -5.67765 1.51384 0
M  V30 3850 H 379.126 -6.06938 0.667693 0
M  V30 3851 H 380.54 -5.05688 2.70098 0
M  V30 3852 H 378.937 -4.89254 3.47491 0
M  V30 3853 H 380.007 -3.4826 3.37406 0
M  V30 3854 N 381.35 -0.985608 -1.22978 0
M  V30 3855 C 382.28 -0.549649 -2.26939 0
M  V30 3856 C 383.261 0.419803 -1.64838 0
M  V30 3857 O 384.446 0.31203 -1.91677 0
M  V30 3858 C 381.576 0.143652 -3.47003 0
M  V30 3859 C 380.53 -0.743606 -4.21491 0
M  V30 3860 C 379.856 0.0822027 -5.34637 0
M  V30 3861 C 381.156 -2.03694 -4.80943 0
M  V30 3862 H 382.85 -1.41862 -2.63658 0
M  V30 3863 H 380.396 -0.683571 -1.26741 0
M  V30 3864 H 382.349 0.459985 -4.18882 0
M  V30 3865 H 381.073 1.04711 -3.09359 0
M  V30 3866 H 379.732 -1.04347 -3.51436 0
M  V30 3867 H 379.38 0.986359 -4.93234 0
M  V30 3868 H 379.08 -0.508377 -5.85397 0
M  V30 3869 H 380.604 0.392797 -6.09335 0
M  V30 3870 H 382.018 -1.78504 -5.44802 0
M  V30 3871 H 380.415 -2.57573 -5.42011 0
M  V30 3872 H 381.485 -2.72042 -4.01399 0
M  V30 3873 N 382.828 1.3818 -0.7579 0
M  V30 3874 C 384.075 2.00019 -0.315985 0
M  V30 3875 C 384.403 1.60163 1.10355 0
M  V30 3876 O 383.658 0.83264 1.77103 0
M  V30 3877 C 383.957 3.55252 -0.391218 0
M  V30 3878 C 383.623 4.14834 -1.76702 0
M  V30 3879 C 382.285 4.30821 -2.14353 0
M  V30 3880 C 384.637 4.47658 -2.66931 0
M  V30 3881 C 381.965 4.76928 -3.41696 0
M  V30 3882 C 384.317 4.95184 -3.93669 0
M  V30 3883 C 382.981 5.09377 -4.31383 0
M  V30 3884 H 382.251 0.731923 -0.115627 0
M  V30 3885 H 384.898 1.65161 -0.969223 0
M  V30 3886 H 383.203 3.90273 0.34558 0
M  V30 3887 H 384.9 4.00988 -0.030805 0
M  V30 3888 H 381.49 4.02808 -1.46435 0
M  V30 3889 H 385.674 4.34904 -2.39106 0
M  V30 3890 H 380.93 4.86103 -3.70829 0
M  V30 3891 H 385.104 5.19551 -4.63724 0
M  V30 3892 H 382.731 5.44865 -5.30119 0
M  V30 3893 N 384.306 0.507319 1.49211 0
M  V30 3894 C 385.534 -0.0315749 2.06876 0
M  V30 3895 C 385.949 -1.30241 1.36685 0
M  V30 3896 O 385.306 -1.76937 0.447152 0
M  V30 3897 C 385.357 -0.282627 3.60393 0
M  V30 3898 O 385.078 0.937835 4.27944 0
M  V30 3899 C 386.579 -0.864453 4.3479 0
M  V30 3900 H 383.799 0.0233048 0.670595 0
M  V30 3901 H 386.343 0.706484 1.91909 0
M  V30 3902 H 384.498 -0.97068 3.75042 0
M  V30 3903 H 384.912 0.704567 5.19746 0
M  V30 3904 H 386.386 -0.989664 5.43056 0
M  V30 3905 H 386.863 -1.86382 3.97692 0
M  V30 3906 H 387.469 -0.213672 4.24763 0
M  V30 3907 N 385.784 -1.5574 0.241426 0
M  V30 3908 C 386.714 -2.24133 -0.654722 0
M  V30 3909 C 387.695 -1.21974 -1.1856 0
M  V30 3910 O 388.88 -1.50612 -1.22595 0
M  V30 3911 C 386.01 -2.93659 -1.85423 0
M  V30 3912 C 384.964 -4.0246 -1.45636 0
M  V30 3913 C 384.29 -4.59383 -2.73626 0
M  V30 3914 C 385.59 -5.18468 -0.631506 0
M  V30 3915 H 387.284 -2.99281 -0.0844353 0
M  V30 3916 H 384.83 -1.43947 -0.0391707 0
M  V30 3917 H 386.783 -3.40203 -2.48676 0
M  V30 3918 H 385.507 -2.15991 -2.44981 0
M  V30 3919 H 384.166 -3.56676 -0.847202 0
M  V30 3920 H 383.814 -3.78422 -3.3137 0
M  V30 3921 H 383.514 -5.32826 -2.4773 0
M  V30 3922 H 385.038 -5.08658 -3.37786 0
M  V30 3923 H 386.452 -5.61272 -1.1682 0
M  V30 3924 H 384.849 -5.98266 -0.468831 0
M  V30 3925 H 385.919 -4.8358 0.357506 0
M  V30 3926 N 387.262 0.0317525 -1.57568 0
M  V30 3927 C 388.487 0.738664 -1.938 0
M  V30 3928 C 388.912 1.68242 -0.841208 0
M  V30 3929 O 388.27 1.80157 0.203267 0
M  V30 3930 C 388.318 1.47417 -3.29091 0
M  V30 3931 O 387.422 2.5872 -3.2115 0
M  V30 3932 H 386.763 0.198856 -0.633524 0
M  V30 3933 H 389.293 -0.0119713 -2.04596 0
M  V30 3934 H 389.303 1.84468 -3.63917 0
M  V30 3935 H 387.978 0.781988 -4.08482 0
M  V30 3936 H 386.555 2.24231 -2.97951 0
M  V30 3937 N 388.74 1.54641 0.303973 0
M  V30 3938 C 390.156 1.45788 0.649463 0
M  V30 3939 C 390.356 0.64666 1.90842 0
M  V30 3940 O 389.412 0.153183 2.52035 0
M  V30 3941 C 390.725 2.89718 0.805227 0
M  V30 3942 C 392.273 2.99742 0.901305 0
M  V30 3943 C 392.748 4.44863 1.08909 0
M  V30 3944 N 394.239 4.48559 1.15536 0
M  V30 3945 C 394.974 5.58026 1.3189 0
M  V30 3946 N 394.47 6.77422 1.45161 0
M  V30 3947 N 396.263 5.45708 1.34755 0
M  V30 3948 H 388.414 2.05854 -0.523237 0
M  V30 3949 H 390.677 0.932186 -0.172431 0
M  V30 3950 H 390.383 3.51666 -0.0489108 0
M  V30 3951 H 390.257 3.36964 1.69513 0
M  V30 3952 H 392.644 2.3791 1.74593 0
M  V30 3953 H 392.725 2.55797 -0.0125531 0
M  V30 3954 H 392.369 5.07288 0.249241 0
M  V30 3955 H 392.299 4.86436 2.01713 0
M  V30 3956 H 394.79 3.6254 1.06646 0
M  V30 3957 H 395.103 7.56604 1.57387 0
M  V30 3958 H 393.448 6.80292 1.42223 0
M  V30 3959 H 396.639 4.51378 1.23996 0
M  V30 3960 H 396.812 6.3107 1.47157 0
M  V30 3961 N 390.218 -0.567019 1.47046 0
M  V30 3962 C 391.181 -1.65696 1.58359 0
M  V30 3963 C 392.181 -1.54097 0.459441 0
M  V30 3964 O 393.371 -1.58432 0.724225 0
M  V30 3965 C 390.503 -3.05197 1.51879 0
M  V30 3966 H 391.696 -1.57019 2.5551 0
M  V30 3967 H 389.249 -0.786148 1.3509 0
M  V30 3968 H 389.984 -3.19417 0.560673 0
M  V30 3969 H 389.769 -3.15025 2.33455 0
M  V30 3970 H 391.259 -3.84511 1.62913 0
M  V30 3971 N 391.696 -1.35014 -0.812953 0
M  V30 3972 C 392.644 -1.27435 -1.94585 0
M  V30 3973 C 393.638 -0.170494 -1.6854 0
M  V30 3974 O 394.844 -0.336085 -1.76835 0
M  V30 3975 H 391.219 -0.396144 -0.639198 0
M  V30 3976 H 393.19 -2.23158 -1.98098 0
M  V30 3977 C 391.939 -1.05677 -3.31252 0
M  V30 3978 H 391.262 -1.89853 -3.51846 0
M  V30 3979 H 392.702 -1.04413 -4.10943 0
M  V30 3980 C 391.161 0.239615 -3.36047 0
M  V30 3981 O 391.691 1.23759 -3.8216 0
M  V30 3982 N 389.897 0.276186 -2.89285 0
M  V30 3983 H 389.444 -0.53653 -2.51951 0
M  V30 3984 H 389.402 1.14332 -2.92875 0
M  V30 3985 N 393.175 1.03435 -1.18907 0
M  V30 3986 C 394.415 1.78302 -0.999391 0
M  V30 3987 C 394.779 1.86353 0.462219 0
M  V30 3988 O 395.98 2.57489 0.771543 0
M  V30 3989 C 394.251 3.17362 -1.64365 0
M  V30 3990 S 395.81 4.08488 -1.6026 0
M  V30 3991 H 392.628 0.613861 -0.358742 0
M  V30 3992 H 395.23 1.23979 -1.51161 0
M  V30 3993 H 393.934 3.09116 -2.69955 0
M  V30 3994 H 393.465 3.76762 -1.13199 0
M  V30 3995 H 395.48 4.92274 -0.622932 0
M  V30 3996 N 394.653 0.992116 1.22453 0
M  V30 3997 C 395.899 0.678177 1.91761 0
M  V30 3998 C 396.254 -0.781141 1.75829 0
M  V30 3999 O 395.547 -1.55747 1.11595 0
M  V30 4000 C 395.741 1.01832 3.42586 0
M  V30 4001 C 395.57 2.50916 3.73191 0
M  V30 4002 C 394.34 3.17308 3.93248 0
M  V30 4003 C 396.538 3.49032 3.77732 0
M  V30 4004 N 394.52 4.55876 4.11157 0
M  V30 4005 C 395.891 4.73055 4.00773 0
M  V30 4006 C 397.946 3.43349 3.60577 0
M  V30 4007 C 396.649 5.92089 4.0844 0
M  V30 4008 C 398.675 4.61759 3.69503 0
M  V30 4009 C 398.037 5.84582 3.92993 0
M  V30 4010 H 394.136 0.299425 0.722405 0
M  V30 4011 H 396.72 1.27197 1.47408 0
M  V30 4012 H 394.891 0.453118 3.85748 0
M  V30 4013 H 396.623 0.660454 3.99274 0
M  V30 4014 H 393.378 2.67778 3.9063 0
M  V30 4015 H 393.802 5.27748 4.24042 0
M  V30 4016 H 398.444 2.49408 3.41402 0
M  V30 4017 H 396.162 6.86435 4.26418 0
M  V30 4018 H 399.748 4.58951 3.57569 0
M  V30 4019 H 398.628 6.74676 3.99728 0
M  V30 4020 N 396.131 -1.37776 0.765217 0
M  V30 4021 C 397.408 -1.93975 0.251596 0
M  V30 4022 C 397.788 -1.69949 -1.25222 0
M  V30 4023 O 397.136 -1.04457 -2.03226 0
M  V30 4024 C 397.346 -3.43487 0.617895 0
M  V30 4025 C 398.694 -4.20564 0.584029 0
M  V30 4026 O 399.718 -3.5182 0.556888 0
M  V30 4027 O 398.577 -5.43138 0.605291 0
M  V30 4028 H 395.671 -0.82509 0.0561806 0
M  V30 4029 H 398.217 -1.47101 0.846128 0
M  V30 4030 H 396.989 -3.5453 1.65602 0
M  V30 4031 H 396.612 -3.976 -0.00403411 0
M  V30 4032 N 397.609 -0.515225 -1.4894 0
M  V30 4033 C 398.559 0.275113 -2.26334 0
M  V30 4034 C 399.543 0.923007 -1.31793 0
M  V30 4035 O 400.735 0.828254 -1.56426 0
M  V30 4036 C 397.864 1.33041 -3.16473 0
M  V30 4037 C 396.95 0.688051 -4.18481 0
M  V30 4038 N 397.341 -0.217638 -5.05332 0
M  V30 4039 C 395.639 0.94699 -4.3583 0
M  V30 4040 C 396.34 -0.58676 -5.78733 0
M  V30 4041 N 395.316 0.0486966 -5.43578 0
M  V30 4042 H 399.118 -0.421876 -2.90856 0
M  V30 4043 H 396.632 -0.332249 -1.58965 0
M  V30 4044 H 398.629 1.9102 -3.70563 0
M  V30 4045 H 397.289 2.02894 -2.53504 0
M  V30 4046 H 398.3 -0.589343 -5.14536 0
M  V30 4047 H 394.977 1.63719 -3.8406 0
M  V30 4048 H 396.367 -1.32855 -6.58634 0
M  V30 4049 N 399.087 1.5561 -0.249682 0
M  V30 4050 C 400.05 2.20217 0.635394 0
M  V30 4051 C 401.05 1.17227 1.10066 0
M  V30 4052 O 402.24 1.42292 1.00492 0
M  V30 4053 C 399.372 2.84794 1.87363 0
M  V30 4054 H 400.565 2.99814 0.0716752 0
M  V30 4055 H 398.118 1.563 -0.000153234 0
M  V30 4056 H 398.853 2.09142 2.47851 0
M  V30 4057 H 398.638 3.60241 1.5482 0
M  V30 4058 H 400.128 3.3423 2.5036 0
M  V30 4059 N 400.565 -0.0233959 1.57583 0
M  V30 4060 C 401.495 -1.02162 2.09965 0
M  V30 4061 C 402.476 -1.3735 1.00344 0
M  V30 4062 O 403.661 -1.46135 1.27899 0
M  V30 4063 C 400.791 -2.32081 2.58371 0
M  V30 4064 C 399.745 -2.1112 3.72307 0
M  V30 4065 C 399.071 -3.46848 4.06941 0
M  V30 4066 C 400.371 -1.49276 5.00514 0
M  V30 4067 H 402.065 -0.585557 2.93618 0
M  V30 4068 H 399.611 -0.280218 1.41247 0
M  V30 4069 H 401.564 -3.02249 2.93639 0
M  V30 4070 H 400.288 -2.77758 1.71808 0
M  V30 4071 H 398.947 -1.43384 3.37397 0
M  V30 4072 H 398.595 -3.90184 3.17436 0
M  V30 4073 H 398.295 -3.33646 4.83688 0
M  V30 4074 H 399.819 -4.18369 4.44747 0
M  V30 4075 H 401.233 -2.09368 5.33702 0
M  V30 4076 H 399.63 -1.46632 5.8191 0
M  V30 4077 H 400.7 -0.459217 4.82721 0
M  V30 4078 N 402.043 -1.548 -0.295768 0
M  V30 4079 C 402.973 -1.89115 -1.36959 0
M  V30 4080 C 403.954 -0.75059 -1.52644 0
M  V30 4081 O 405.139 -1.00678 -1.66065 0
M  V30 4082 C 402.269 -2.14307 -2.73295 0
M  V30 4083 C 401.223 -3.30151 -2.72368 0
M  V30 4084 C 400.549 -3.40772 -4.12042 0
M  V30 4085 C 401.849 -4.67126 -2.33646 0
M  V30 4086 H 403.543 -2.79053 -1.08488 0
M  V30 4087 H 401.089 -1.34266 -0.520443 0
M  V30 4088 H 403.042 -2.36898 -3.48507 0
M  V30 4089 H 401.766 -1.21145 -3.03301 0
M  V30 4090 H 400.425 -3.0749 -1.99613 0
M  V30 4091 H 400.073 -2.45117 -4.39234 0
M  V30 4092 H 399.773 -4.18645 -4.12322 0
M  V30 4093 H 401.297 -3.6563 -4.89027 0
M  V30 4094 H 402.711 -4.89414 -2.98575 0
M  V30 4095 H 401.108 -5.47751 -2.45129 0
M  V30 4096 H 402.178 -4.67489 -1.28772 0
M  V30 4097 N 403.521 0.559213 -1.47345 0
M  V30 4098 C 404.484 1.64854 -1.59235 0
M  V30 4099 C 405.484 1.53851 -0.467607 0
M  V30 4100 O 406.674 1.58045 -0.732617 0
M  V30 4101 C 403.806 3.04388 -1.53496 0
M  V30 4102 H 404.999 1.55662 -2.56339 0
M  V30 4103 H 402.552 0.778973 -1.35505 0
M  V30 4104 H 403.287 3.19115 -0.577604 0
M  V30 4105 H 403.072 3.13783 -2.35123 0
M  V30 4106 H 404.562 3.83642 -1.6495 0
M  V30 4107 N 404.999 1.35443 0.805782 0
M  V30 4108 C 405.909 1.30546 1.94923 0
M  V30 4109 C 406.925 0.210233 1.72725 0
M  V30 4110 O 408.101 0.43975 1.9654 0
M  V30 4111 C 405.166 1.07782 3.29521 0
M  V30 4112 C 404.227 2.26625 3.64609 0
M  V30 4113 C 403.46 2.04938 4.92784 0
M  V30 4114 O 403.683 1.01624 5.61274 0
M  V30 4115 O 402.617 2.9232 5.26149 0
M  V30 4116 H 406.443 2.26779 2.02002 0
M  V30 4117 H 404.028 1.15823 0.943682 0
M  V30 4118 H 405.91 0.969392 4.10098 0
M  V30 4119 H 404.585 0.146003 3.23371 0
M  V30 4120 H 403.492 2.43033 2.84404 0
M  V30 4121 H 404.825 3.18257 3.75464 0
M  V30 4122 N 406.477 -1.02803 1.19454 0
M  V30 4123 C 407.44 -2.09264 0.934955 0
M  V30 4124 C 408.44 -1.60576 -0.0849015 0
M  V30 4125 O 409.63 -1.73554 0.149933 0
M  V30 4126 C 406.762 -3.38482 0.40531 0
M  V30 4127 H 407.955 -2.33726 1.87916 0
M  V30 4128 H 405.508 -1.19426 1.00832 0
M  V30 4129 H 406.243 -3.19689 -0.544899 0
M  V30 4130 H 406.028 -3.75142 1.14065 0
M  V30 4131 H 407.518 -4.16894 0.242806 0
M  V30 4132 N 407.956 -0.998596 -1.21925 0
M  V30 4133 C 409.205 -0.673085 -1.90138 0
M  V30 4134 C 409.518 0.79895 -1.78539 0
M  V30 4135 O 410.724 1.23628 -2.4172 0
M  V30 4136 C 409.18 -1.15339 -3.40918 0
M  V30 4137 C 408.788 -2.65106 -3.61141 0
M  V30 4138 C 410.532 -0.902476 -4.14796 0
M  V30 4139 C 408.439 -3.0671 -5.05651 0
M  V30 4140 H 407.369 -0.248057 -0.712028 0
M  V30 4141 H 410.02 -1.20891 -1.38049 0
M  V30 4142 H 408.402 -0.545658 -3.92223 0
M  V30 4143 H 409.576 -3.31274 -3.20304 0
M  V30 4144 H 407.891 -2.88142 -3.00605 0
M  V30 4145 H 410.488 -1.18895 -5.21314 0
M  V30 4146 H 410.831 0.161349 -4.15987 0
M  V30 4147 H 411.364 -1.47269 -3.69536 0
M  V30 4148 H 408.103 -4.12292 -5.09603 0
M  V30 4149 H 407.623 -2.45249 -5.47369 0
M  V30 4150 H 409.302 -2.9833 -5.74115 0
M  V30 4151 N 409.434 1.37368 -0.772513 0
M  V30 4152 C 410.659 2.0447 -0.347386 0
M  V30 4153 C 411.084 1.57882 1.0225 0
M  V30 4154 O 410.442 0.73941 1.65537 0
M  V30 4155 C 410.49 3.58369 -0.400479 0
M  V30 4156 O 409.594 4.0803 0.598789 0
M  V30 4157 H 408.935 0.646773 -0.15027 0
M  V30 4158 H 411.465 1.75667 -1.04892 0
M  V30 4159 H 411.475 4.07183 -0.258045 0
M  V30 4160 H 410.15 3.91633 -1.39986 0
M  V30 4161 H 408.727 3.70534 0.419411 0
M  V30 4162 N 410.912 0.523116 1.48665 0
M  V30 4163 C 411.86 -0.256859 2.31177 0
M  V30 4164 C 412.854 -0.94199 1.40794 0
M  V30 4165 O 414.06 -0.867157 1.57735 0
M  V30 4166 H 410.435 -0.1017 0.745091 0
M  V30 4167 H 412.406 0.458739 2.94853 0
M  V30 4168 C 411.155 -1.29503 3.22683 0
M  V30 4169 H 410.478 -0.777248 3.92172 0
M  V30 4170 H 411.918 -1.81233 3.83315 0
M  V30 4171 C 410.377 -2.32501 2.43813 0
M  V30 4172 O 410.907 -3.3881 2.15803 0
M  V30 4173 N 409.113 -2.05538 2.05432 0
M  V30 4174 H 408.66 -1.19104 2.28412 0
M  V30 4175 H 408.618 -2.74676 1.52973 0
M  V30 4176 N 412.39 -1.55475 0.257931 0
M  V30 4177 C 413.353 -2.20551 -0.623706 0
M  V30 4178 C 414.353 -1.17809 -1.09443 0
M  V30 4179 O 415.543 -1.42823 -0.997362 0
M  V30 4180 C 412.675 -2.85784 -1.8585 0
M  V30 4181 H 413.868 -2.99848 -0.0557743 0
M  V30 4182 H 411.421 -1.56298 0.0084422 0
M  V30 4183 H 412.156 -2.10453 -2.46739 0
M  V30 4184 H 411.941 -3.61057 -1.52907 0
M  V30 4185 H 413.431 -3.35553 -2.48584 0
M  V30 4186 N 413.868 0.0150385 -1.57593 0
M  V30 4187 C 414.816 1.02958 -2.08572 0
M  V30 4188 C 415.81 1.36554 -1.00246 0
M  V30 4189 O 417.016 1.35295 -1.18724 0
M  V30 4190 H 413.391 0.349619 -0.665786 0
M  V30 4191 H 415.362 0.573932 -2.92829 0
M  V30 4192 C 414.111 2.31752 -2.59203 0
M  V30 4193 H 413.434 2.06765 -3.42182 0
M  V30 4194 H 414.874 3.01053 -2.98568 0
M  V30 4195 C 413.333 3.01692 -1.49945 0
M  V30 4196 O 413.863 3.92083 -0.873704 0
M  V30 4197 N 412.069 2.6326 -1.23056 0
M  V30 4198 H 411.616 1.89838 -1.74125 0
M  V30 4199 H 411.574 3.10372 -0.501685 0
M  V30 4200 N 415.346 1.54954 0.287554 0
M  V30 4201 C 416.309 1.86076 1.33823 0
M  V30 4202 C 417.309 0.734414 1.43049 0
M  V30 4203 O 418.499 1.00266 1.42452 0
M  V30 4204 C 415.631 2.05305 2.72144 0
M  V30 4205 H 416.824 2.79984 1.07465 0
M  V30 4206 H 414.377 1.47223 0.524902 0
M  V30 4207 H 415.112 1.1373 3.03704 0
M  V30 4208 H 414.897 2.873 2.66836 0
M  V30 4209 H 416.387 2.30706 3.48087 0
M  V30 4210 N 416.824 -0.551391 1.4764 0
M  V30 4211 C 418.064 -1.31901 1.56145 0
M  V30 4212 C 418.428 -1.90724 0.221013 0
M  V30 4213 O 419.629 -2.6819 0.180945 0
M  V30 4214 C 417.9 -2.39517 2.65267 0
M  V30 4215 S 419.459 -3.26289 2.93395 0
M  V30 4216 H 416.277 -0.448965 0.551318 0
M  V30 4217 H 418.879 -0.630599 1.85051 0
M  V30 4218 H 417.583 -1.94747 3.6125 0
M  V30 4219 H 417.114 -3.13092 2.38195 0
M  V30 4220 H 419.129 -4.39122 2.31055 0
M  V30 4221 N 418.302 -1.35869 -0.798587 0
M  V30 4222 C 419.55 -1.29332 -1.55298 0
M  V30 4223 C 419.871 0.129729 -1.94568 0
M  V30 4224 O 419.141 1.06796 -1.6423 0
M  V30 4225 H 417.721 -0.475737 -0.57592 0
M  V30 4226 H 420.383 -1.70062 -0.952093 0
M  V30 4227 H 419.479 -1.91458 -2.46476 0
M  V30 4228 N 419.78 1.02168 -1.19998 0
M  V30 4229 C 420.743 2.08765 -0.94604 0
M  V30 4230 C 421.743 1.60618 0.0763846 0
M  V30 4231 O 422.933 1.73472 -0.159135 0
M  V30 4232 C 420.065 3.38262 -0.423255 0
M  V30 4233 H 421.258 2.32726 -1.89153 0
M  V30 4234 H 418.811 1.1889 -1.01464 0
M  V30 4235 H 419.546 3.19974 0.527938 0
M  V30 4236 H 419.331 3.74532 -1.16053 0
M  V30 4237 H 420.821 4.16759 -0.264911 0
M  V30 4238 N 421.258 1.00505 1.21394 0
M  V30 4239 C 422.191 0.51032 2.22421 0
M  V30 4240 C 423.169 -0.436 1.56645 0
M  V30 4241 O 424.353 -0.358709 1.85055 0
M  V30 4242 C 421.48 -0.258733 3.3771 0
M  V30 4243 C 420.526 0.635395 4.2174 0
M  V30 4244 S 421.359 2.09783 4.92698 0
M  V30 4245 C 422.515 1.33862 6.11418 0
M  V30 4246 H 422.748 1.36637 2.64041 0
M  V30 4247 H 420.281 0.812991 1.31262 0
M  V30 4248 H 422.239 -0.696372 4.0455 0
M  V30 4249 H 420.9 -1.0902 2.94573 0
M  V30 4250 H 420.093 0.0430189 5.03982 0
M  V30 4251 H 419.695 1.01031 3.60095 0
M  V30 4252 H 421.987 0.612541 6.74725 0
M  V30 4253 H 422.93 2.13675 6.75092 0
M  V30 4254 H 423.338 0.846568 5.58116 0
M  V30 4255 N 422.737 -1.36956 0.779787 0
M  V30 4256 C 423.7 -2.2851 0.177662 0
M  V30 4257 C 424.7 -1.48393 -0.619377 0
M  V30 4258 O 425.89 -1.68505 -0.441785 0
M  V30 4259 C 423.022 -3.32428 -0.755279 0
M  V30 4260 H 424.215 -2.83269 0.984823 0
M  V30 4261 H 421.768 -1.46358 0.548544 0
M  V30 4262 H 422.503 -2.82808 -1.58714 0
M  V30 4263 H 422.288 -3.91659 -0.185817 0
M  V30 4264 H 423.778 -4.00824 -1.17174 0
M  V30 4265 N 424.215 -0.530993 -1.48385 0
M  V30 4266 C 425.461 0.00274135 -2.028 0
M  V30 4267 C 425.794 1.33838 -1.40716 0
M  V30 4268 O 425.069 1.86465 -0.553277 0
M  V30 4269 C 425.352 0.123676 -3.59888 0
M  V30 4270 C 425.205 -1.2372 -4.3245 0
M  V30 4271 C 426.524 0.849967 -4.31814 0
M  V30 4272 H 423.643 -0.000477758 -0.737 0
M  V30 4273 H 426.285 -0.688217 -1.77098 0
M  V30 4274 H 424.435 0.712157 -3.81917 0
M  V30 4275 H 426.107 -1.86687 -4.21836 0
M  V30 4276 H 424.35 -1.81882 -3.93829 0
M  V30 4277 H 425.021 -1.10557 -5.40815 0
M  V30 4278 H 427.497 0.350572 -4.14621 0
M  V30 4279 H 426.373 0.903486 -5.41413 0
M  V30 4280 H 426.634 1.90047 -3.99167 0
M  V30 4281 N 425.693 1.55336 -0.266172 0
M  V30 4282 C 426.921 2.03801 0.356756 0
M  V30 4283 C 427.336 1.14485 1.50129 0
M  V30 4284 O 426.693 0.163121 1.8177 0
M  V30 4285 C 426.744 3.51455 0.846281 0
M  V30 4286 O 426.465 4.37371 -0.252663 0
M  V30 4287 C 427.966 4.15767 1.53794 0
M  V30 4288 H 425.186 0.665906 0.0825218 0
M  V30 4289 H 427.73 2.00636 -0.39566 0
M  V30 4290 H 425.885 3.55092 1.54881 0
M  V30 4291 H 426.299 5.24358 0.122173 0
M  V30 4292 H 427.773 5.20714 1.83198 0
M  V30 4293 H 428.25 3.63404 2.46646 0
M  V30 4294 H 428.856 4.16107 0.879488 0
M  V30 4295 N 427.171 -0.0066808 1.57599 0
M  V30 4296 C 428.134 -0.985035 2.06953 0
M  V30 4297 C 429.134 -1.27663 0.977687 0
M  V30 4298 O 430.324 -1.22293 1.24057 0
M  V30 4299 C 427.456 -2.3118 2.50536 0
M  V30 4300 H 428.649 -0.558255 2.94658 0
M  V30 4301 H 426.202 -0.254011 1.54222 0
M  V30 4302 H 426.937 -2.78561 1.66054 0
M  V30 4303 H 426.722 -2.11338 3.3027 0
M  V30 4304 H 428.212 -3.01377 2.8907 0
M  V30 4305 N 428.649 -1.55105 -0.279332 0
M  V30 4306 C 429.596 -1.8755 -1.34513 0
M  V30 4307 C 430.566 -0.726384 -1.49375 0
M  V30 4308 O 431.751 -0.977063 -1.63884 0
M  V30 4309 C 428.891 -2.14738 -2.70151 0
M  V30 4310 C 428.004 -3.42285 -2.63562 0
M  V30 4311 C 427.139 -3.59206 -3.91337 0
M  V30 4312 C 426.178 -4.80467 -3.79233 0
M  V30 4313 N 425.315 -4.94079 -4.98829 0
M  V30 4314 H 430.155 -2.78456 -1.06143 0
M  V30 4315 H 427.692 -1.37867 -0.512936 0
M  V30 4316 H 429.65 -2.28501 -3.49061 0
M  V30 4317 H 428.28 -1.27075 -2.96735 0
M  V30 4318 H 427.332 -3.37029 -1.76397 0
M  V30 4319 H 428.644 -4.31328 -2.50515 0
M  V30 4320 H 427.798 -3.72751 -4.78687 0
M  V30 4321 H 426.537 -2.68337 -4.07243 0
M  V30 4322 H 425.542 -4.66932 -2.90266 0
M  V30 4323 H 426.767 -5.72765 -3.64852 0
M  V30 4324 H 424.713 -4.06139 -5.15158 0
M  V30 4325 H 424.63 -5.77156 -4.8829 0
M  V30 4326 H 425.898 -5.12003 -5.8777 0
M  V30 4327 N 430.127 0.543554 -1.4793 0
M  V30 4328 C 431.375 1.29752 -1.54948 0
M  V30 4329 C 431.696 1.93764 -0.219242 0
M  V30 4330 O 430.966 1.80639 0.75805 0
M  V30 4331 H 429.546 0.481874 -0.570795 0
M  V30 4332 H 432.208 0.633636 -1.84312 0
M  V30 4333 H 431.304 2.08392 -2.32334 0
M  V30 4334 N 431.605 1.3629 0.791371 0
M  V30 4335 C 432.568 1.30309 1.88553 0
M  V30 4336 C 433.568 0.211204 1.59407 0
M  V30 4337 O 434.758 0.465865 1.67855 0
M  V30 4338 C 431.89 1.01956 3.25297 0
M  V30 4339 H 433.083 2.27614 1.95273 0
M  V30 4340 H 430.636 1.21035 0.988953 0
M  V30 4341 H 431.371 0.050998 3.2426 0
M  V30 4342 H 431.156 1.80968 3.4784 0
M  V30 4343 H 432.646 1.0037 4.05359 0
M  V30 4344 N 433.083 -1.0153 1.20538 0
M  V30 4345 C 434.016 -2.09759 0.898695 0
M  V30 4346 C 434.994 -1.61909 -0.149733 0
M  V30 4347 O 436.178 -1.88486 -0.0230293 0
M  V30 4348 C 433.305 -3.36913 0.347512 0
M  V30 4349 C 432.351 -4.03655 1.37713 0
M  V30 4350 S 433.184 -4.47402 2.94265 0
M  V30 4351 C 434.34 -5.77756 2.40726 0
M  V30 4352 H 434.573 -2.3545 1.81523 0
M  V30 4353 H 432.106 -1.14665 1.03399 0
M  V30 4354 H 434.064 -4.10484 0.0360518 0
M  V30 4355 H 432.725 -3.09291 -0.547546 0
M  V30 4356 H 431.918 -4.9514 0.940872 0
M  V30 4357 H 431.52 -3.36313 1.63614 0
M  V30 4358 H 433.812 -6.52994 1.80569 0
M  V30 4359 H 434.755 -6.2618 3.30612 0
M  V30 4360 H 435.163 -5.34081 1.82806 0
M  V30 4361 N 434.561 -1.01147 -1.20859 0
M  V30 4362 C 435.789 -0.716911 -1.94082 0
M  V30 4363 C 436.204 0.721568 -1.74467 0
M  V30 4364 O 435.561 1.48889 -1.05539 0
M  V30 4365 C 435.612 -1.03662 -3.46318 0
M  V30 4366 O 435.333 -2.4186 -3.65288 0
M  V30 4367 C 436.834 -0.762386 -4.36695 0
M  V30 4368 H 434.054 -0.26367 -0.617024 0
M  V30 4369 H 436.598 -1.35127 -1.53496 0
M  V30 4370 H 434.753 -0.447757 -3.84804 0
M  V30 4371 H 435.167 -2.53224 -4.59323 0
M  V30 4372 H 436.641 -1.03621 -5.42187 0
M  V30 4373 H 437.118 0.303514 -4.3815 0
M  V30 4374 H 437.724 -1.33316 -4.03865 0
M  V30 4375 N 436.039 1.36541 -0.78704 0
M  V30 4376 C 437.002 2.28413 -0.189778 0
M  V30 4377 C 438.002 1.48719 0.611499 0
M  V30 4378 O 439.192 1.68737 0.432842 0
M  V30 4379 C 436.324 3.32824 0.737638 0
M  V30 4380 H 437.517 2.82743 -0.999831 0
M  V30 4381 H 435.07 1.46065 -0.556298 0
M  V30 4382 H 435.805 2.83646 1.57212 0
M  V30 4383 H 435.59 3.91752 0.165044 0
M  V30 4384 H 437.08 4.0144 1.15047 0
M  V30 4385 N 437.518 0.538854 1.48102 0
M  V30 4386 C 438.448 -0.207654 2.32575 0
M  V30 4387 C 439.429 -0.926559 1.4265 0
M  V30 4388 O 440.614 -0.91061 1.71527 0
M  V30 4389 C 437.744 -1.24957 3.24042 0
M  V30 4390 C 436.698 -0.648263 4.23062 0
M  V30 4391 C 436.024 -1.79348 5.03725 0
M  V30 4392 C 437.324 0.385897 5.20872 0
M  V30 4393 H 439.018 0.497534 2.95237 0
M  V30 4394 H 436.564 0.240715 1.41974 0
M  V30 4395 H 438.517 -1.77983 3.81969 0
M  V30 4396 H 437.241 -1.98446 2.59397 0
M  V30 4397 H 435.9 -0.139452 3.66335 0
M  V30 4398 H 435.548 -2.51696 4.35498 0
M  V30 4399 H 435.248 -1.39702 5.70751 0
M  V30 4400 H 436.772 -2.32735 5.64506 0
M  V30 4401 H 438.186 -0.057607 5.73271 0
M  V30 4402 H 436.583 0.700227 5.96001 0
M  V30 4403 H 437.653 1.28848 4.67468 0
M  V30 4404 N 438.996 -1.55193 0.274407 0
M  V30 4405 C 440.407 -1.85358 -0.223488 0
M  V30 4406 C 440.758 -1.19642 -1.555 0
M  V30 4407 O 439.883 -0.484498 -2.10907 0
M  V30 4408 C 440.478 -3.36282 -0.412285 0
M  V30 4409 C 439.037 -3.66574 -0.854413 0
M  V30 4410 C 438.184 -2.7725 0.0527056 0
M  V30 4411 H 441.135 -1.50743 0.496215 0
M  V30 4412 H 441.156 -3.59349 -1.25094 0
M  V30 4413 H 440.668 -3.84083 0.556965 0
M  V30 4414 H 438.769 -3.24273 -1.83516 0
M  V30 4415 H 438.882 -4.74073 -0.692226 0
M  V30 4416 H 437.246 -2.50447 -0.463484 0
M  V30 4417 H 438.029 -3.27865 1.01783 0
M  V30 4418 N 440.474 -0.00167713 -1.576 0
M  V30 4419 C 441.721 0.68282 -1.90641 0
M  V30 4420 C 442.049 1.73686 -0.875415 0
M  V30 4421 O 441.304 1.95334 0.119575 0
M  V30 4422 C 441.603 1.36189 -3.30435 0
M  V30 4423 C 441.269 0.440887 -4.48739 0
M  V30 4424 C 439.931 0.187312 -4.80835 0
M  V30 4425 C 442.283 -0.193134 -5.20842 0
M  V30 4426 C 439.611 -0.70855 -5.82406 0
M  V30 4427 C 441.963 -1.07688 -6.23367 0
M  V30 4428 C 440.627 -1.33962 -6.53919 0
M  V30 4429 H 439.897 0.249862 -0.697603 0
M  V30 4430 H 442.544 -0.0575642 -1.91413 0
M  V30 4431 H 440.849 2.17636 -3.25794 0
M  V30 4432 H 442.546 1.89759 -3.5326 0
M  V30 4433 H 439.136 0.648694 -4.23663 0
M  V30 4434 H 443.32 -0.0102445 -4.96299 0
M  V30 4435 H 438.576 -0.920097 -6.04437 0
M  V30 4436 H 442.75 -1.57451 -6.78367 0
M  V30 4437 H 440.377 -2.03549 -7.32442 0
M  V30 4438 N 441.952 1.55251 0.271103 0
M  V30 4439 C 443.363 1.66635 0.842007 0
M  V30 4440 C 443.714 0.594631 1.86972 0
M  V30 4441 O 442.839 -0.263532 2.14789 0
M  V30 4442 C 443.434 3.02082 1.53401 0
M  V30 4443 C 441.993 3.15487 2.05293 0
M  V30 4444 C 441.14 2.62438 0.895631 0
M  V30 4445 H 444.091 1.58629 0.0474117 0
M  V30 4446 H 444.112 2.95176 2.40107 0
M  V30 4447 H 443.624 3.80062 0.785786 0
M  V30 4448 H 441.725 2.42284 2.83071 0
M  V30 4449 H 441.838 4.22075 2.26693 0
M  V30 4450 H 440.202 2.19644 1.28953 0
M  V30 4451 H 440.985 3.42923 0.160878 0
M  V30 4452 N 443.43 -0.535701 1.48216 0
M  V30 4453 C 444.707 -1.29683 1.46429 0
M  V30 4454 C 445.087 -2.10391 0.172852 0
M  V30 4455 O 444.435 -2.12282 -0.845488 0
M  V30 4456 C 444.645 -2.18313 2.72287 0
M  V30 4457 C 445.993 -2.78639 3.20383 0
M  V30 4458 O 447.017 -2.28604 2.73164 0
M  V30 4459 O 445.876 -3.69636 4.02531 0
M  V30 4460 H 442.97 -0.585026 0.584529 0
M  V30 4461 H 445.516 -0.552827 1.60443 0
M  V30 4462 H 444.288 -1.58421 3.57797 0
M  V30 4463 H 443.911 -2.99971 2.60966 0
M  V30 4464 N 444.908 -1.36708 -0.784132 0
M  V30 4465 C 445.84 -1.27333 -1.90575 0
M  V30 4466 C 446.853 -0.191706 -1.61667 0
M  V30 4467 O 448.042 -0.446854 -1.72816 0
M  V30 4468 C 445.142 -0.943177 -3.25511 0
M  V30 4469 C 444.315 -2.12776 -3.82158 0
M  V30 4470 C 443.374 -1.76983 -4.95544 0
M  V30 4471 O 442.4 -2.49134 -5.11782 0
M  V30 4472 N 443.602 -0.706624 -5.76183 0
M  V30 4473 H 446.367 -2.23974 -1.99138 0
M  V30 4474 H 443.928 -1.30171 -0.962656 0
M  V30 4475 H 445.92 -0.684799 -3.98864 0
M  V30 4476 H 444.49 -0.0657333 -3.12531 0
M  V30 4477 H 443.71 -2.54863 -3.0073 0
M  V30 4478 H 444.998 -2.91904 -4.16737 0
M  V30 4479 H 444.396 -0.107643 -5.65598 0
M  V30 4480 H 442.953 -0.50808 -6.49817 0
M  V30 4481 N 446.386 1.0089 -1.21074 0
M  V30 4482 C 447.316 2.1145 -0.990523 0
M  V30 4483 C 448.297 1.69897 0.0831699 0
M  V30 4484 O 449.482 1.94052 -0.0758853 0
M  V30 4485 C 446.612 3.42914 -0.550177 0
M  V30 4486 C 445.566 3.98244 -1.56799 0
M  V30 4487 C 444.892 5.25568 -0.984013 0
M  V30 4488 C 446.192 4.30752 -2.95381 0
M  V30 4489 H 447.886 2.3013 -1.91521 0
M  V30 4490 H 445.432 1.10592 -0.92225 0
M  V30 4491 H 447.385 4.19653 -0.383305 0
M  V30 4492 H 446.109 3.24014 0.41015 0
M  V30 4493 H 444.768 3.23621 -1.72236 0
M  V30 4494 H 444.416 5.02998 -0.0155216 0
M  V30 4495 H 444.116 5.63551 -1.66384 0
M  V30 4496 H 445.64 6.04955 -0.828378 0
M  V30 4497 H 447.054 4.98349 -2.8341 0
M  V30 4498 H 445.451 4.79869 -3.60341 0
M  V30 4499 H 446.521 3.39192 -3.46521 0
M  V30 4500 N 447.864 1.01787 1.20321 0
M  V30 4501 C 448.812 0.58254 2.25187 0
M  V30 4502 C 449.806 -0.379359 1.65098 0
M  V30 4503 O 451.012 -0.249142 1.78267 0
M  V30 4504 H 447.387 0.170078 0.732514 0
M  V30 4505 H 449.358 1.47788 2.59232 0
M  V30 4506 C 448.107 -0.0620885 3.47645 0
M  V30 4507 H 447.43 0.669069 3.94162 0
M  V30 4508 H 448.87 -0.329784 4.22716 0
M  V30 4509 C 447.329 -1.3053 3.10586 0
M  V30 4510 O 447.859 -2.39848 3.22236 0
M  V30 4511 N 446.065 -1.18988 2.65123 0
M  V30 4512 H 445.612 -0.300341 2.55843 0
M  V30 4513 H 445.57 -2.02267 2.40698 0
M  V30 4514 N 449.342 -1.36122 0.79427 0
M  V30 4515 C 450.57 -2.03362 0.380989 0
M  V30 4516 C 450.985 -1.59881 -1.00416 0
M  V30 4517 O 450.342 -0.790515 -1.6449 0
M  V30 4518 C 450.393 -3.58804 0.440649 0
M  V30 4519 O 450.114 -4.007 1.77118 0
M  V30 4520 C 451.615 -4.43296 0.0186117 0
M  V30 4521 H 448.835 -0.652526 0.156367 0
M  V30 4522 H 451.379 -1.73998 1.07447 0
M  V30 4523 H 449.534 -3.8686 -0.204458 0
M  V30 4524 H 449.948 -4.95309 1.72538 0
M  V30 4525 H 451.422 -5.51887 0.111488 0
M  V30 4526 H 451.899 -4.2684 -1.03461 0
M  V30 4527 H 452.505 -4.20512 0.636395 0
M  V30 4528 N 450.82 -0.546701 -1.47814 0
M  V30 4529 C 452.067 -0.0187407 -2.02491 0
M  V30 4530 C 452.395 1.32685 -1.42215 0
M  V30 4531 O 451.65 1.87413 -0.563454 0
M  V30 4532 C 451.949 0.134869 -3.57145 0
M  V30 4533 C 451.615 -1.13849 -4.3629 0
M  V30 4534 C 450.277 -1.48743 -4.57634 0
M  V30 4535 C 452.629 -1.98277 -4.82012 0
M  V30 4536 C 449.957 -2.67932 -5.21948 0
M  V30 4537 C 452.309 -3.16659 -5.4764 0
M  V30 4538 C 450.973 -3.51879 -5.67219 0
M  V30 4539 H 450.243 -0.0068577 -0.740968 0
M  V30 4540 H 452.89 -0.716097 -1.77607 0
M  V30 4541 H 451.195 0.915118 -3.80963 0
M  V30 4542 H 452.892 0.558556 -3.97091 0
M  V30 4543 H 449.482 -0.856767 -4.19949 0
M  V30 4544 H 453.666 -1.72628 -4.6531 0
M  V30 4545 H 448.922 -2.95401 -5.35302 0
M  V30 4546 H 453.096 -3.82374 -5.82033 0
M  V30 4547 H 450.723 -4.44331 -6.16825 0
M  V30 4548 N 452.299 1.55045 -0.282633 0
M  V30 4549 C 453.229 2.2579 0.595066 0
M  V30 4550 C 454.21 1.25074 1.15284 0
M  V30 4551 O 455.395 1.5381 1.18559 0
M  V30 4552 C 452.525 2.98472 1.77572 0
M  V30 4553 C 451.479 4.0618 1.34914 0
M  V30 4554 C 450.805 4.66477 2.6135 0
M  V30 4555 C 452.105 5.1996 0.493821 0
M  V30 4556 H 453.799 2.994 0.00505653 0
M  V30 4557 H 451.345 1.44 0.000992001 0
M  V30 4558 H 453.298 3.46677 2.39568 0
M  V30 4559 H 452.022 2.2241 2.39168 0
M  V30 4560 H 450.681 3.58797 0.752338 0
M  V30 4561 H 450.329 3.87074 3.2122 0
M  V30 4562 H 450.029 5.39207 2.33516 0
M  V30 4563 H 451.553 5.17435 3.24181 0
M  V30 4564 H 452.967 5.64172 1.01898 0
M  V30 4565 H 451.364 5.99299 0.310047 0
M  V30 4566 H 452.434 4.82462 -0.485593 0
M  V30 4567 N 453.777 0.010035 1.57597 0
M  V30 4568 C 455.002 -0.687021 1.95691 0
M  V30 4569 C 455.427 -1.65952 0.885519 0
M  V30 4570 O 454.785 -1.80633 -0.15543 0
M  V30 4571 C 454.833 -1.3864 3.32884 0
M  V30 4572 O 453.937 -2.50115 3.27897 0
M  V30 4573 H 453.278 -0.181989 0.638573 0
M  V30 4574 H 455.808 0.0662122 2.04493 0
M  V30 4575 H 455.818 -1.74754 3.6868 0
M  V30 4576 H 454.493 -0.673411 4.10412 0
M  V30 4577 H 453.07 -2.16253 3.03791 0
M  V30 4578 N 455.255 -1.55392 -0.262866 0
M  V30 4579 C 456.48 -1.80847 -1.01533 0
M  V30 4580 C 456.905 -0.584946 -1.78774 0
M  V30 4581 O 456.263 0.465701 -1.75217 0
M  V30 4582 C 456.311 -3.03866 -1.94159 0
M  V30 4583 O 455.415 -2.79662 -3.03089 0
M  V30 4584 H 454.756 -0.597441 -0.289759 0
M  V30 4585 H 457.286 -2.02553 -0.288698 0
M  V30 4586 H 457.296 -3.32872 -2.35924 0
M  V30 4587 H 455.971 -3.92564 -1.37354 0
M  V30 4588 H 454.548 -2.61781 -2.65566 0
M  V30 4589 N 456.733 0.527833 -1.48498 0
M  V30 4590 C 457.683 1.62844 -1.5958 0
M  V30 4591 C 458.667 1.54397 -0.452809 0
M  V30 4592 O 459.859 1.62381 -0.704364 0
M  V30 4593 C 456.988 3.01557 -1.64067 0
M  V30 4594 C 456.074 3.151 -2.83853 0
M  V30 4595 N 456.465 2.9861 -4.08247 0
M  V30 4596 C 454.763 3.46158 -2.8123 0
M  V30 4597 C 455.464 3.15626 -4.88626 0
M  V30 4598 N 454.44 3.43298 -4.21483 0
M  V30 4599 H 458.242 1.48708 -2.53502 0
M  V30 4600 H 455.756 0.733343 -1.44899 0
M  V30 4601 H 457.753 3.8062 -1.70101 0
M  V30 4602 H 456.413 3.16783 -0.712636 0
M  V30 4603 H 457.424 2.75329 -4.3865 0
M  V30 4604 H 454.101 3.67728 -1.97692 0
M  V30 4605 H 455.491 3.07596 -5.97356 0
M  V30 4606 N 458.211 1.37122 0.776871 0
M  V30 4607 C 459.436 1.354 1.57104 0
M  V30 4608 C 459.861 -0.0595562 1.88006 0
M  V30 4609 O 459.219 -1.03514 1.48844 0
M  V30 4610 C 459.267 2.19472 2.8612 0
M  V30 4611 O 458.371 1.59582 3.80273 0
M  V30 4612 H 457.712 0.462869 0.476076 0
M  V30 4613 H 460.242 1.80577 0.961932 0
M  V30 4614 H 460.252 2.32502 3.35271 0
M  V30 4615 H 458.927 3.22222 2.62956 0
M  V30 4616 H 457.504 1.55564 3.38902 0
M  V30 4617 N 459.689 -1.00246 1.21608 0
M  V30 4618 C 460.619 -2.10921 1.00172 0
M  V30 4619 C 461.6 -1.69938 -0.0741587 0
M  V30 4620 O 462.785 -1.94009 0.0861753 0
M  V30 4621 C 459.915 -3.42618 0.568355 0
M  V30 4622 C 458.869 -3.97407 1.58909 0
M  V30 4623 C 458.195 -5.25038 1.01187 0
M  V30 4624 C 459.495 -4.2918 2.97661 0
M  V30 4625 H 461.189 -2.29112 1.92739 0
M  V30 4626 H 458.735 -1.10101 0.928102 0
M  V30 4627 H 460.688 -4.19444 0.405555 0
M  V30 4628 H 459.412 -3.24227 -0.392961 0
M  V30 4629 H 458.071 -3.22703 1.73949 0
M  V30 4630 H 457.719 -5.02982 0.0421965 0
M  V30 4631 H 457.419 -5.62661 1.6937 0
M  V30 4632 H 458.943 -6.04507 0.860448 0
M  V30 4633 H 460.357 -4.96839 2.86049 0
M  V30 4634 H 458.754 -4.77952 3.6288 0
M  V30 4635 H 459.824 -3.3735 3.48315 0
M  V30 4636 N 461.167 -1.02423 -1.1978 0
M  V30 4637 C 462.13 -0.605703 -2.21052 0
M  V30 4638 C 463.13 0.328209 -1.57415 0
M  V30 4639 O 464.32 0.115853 -1.73814 0
M  V30 4640 C 461.452 0.114366 -3.40708 0
M  V30 4641 H 462.645 -1.5017 -2.59594 0
M  V30 4642 H 460.198 -0.814888 -1.33376 0
M  V30 4643 H 460.933 1.02492 -3.07678 0
M  V30 4644 H 460.718 -0.556641 -3.88129 0
M  V30 4645 H 462.208 0.394272 -4.15735 0
M  V30 4646 N 462.645 1.35699 -0.801477 0
M  V30 4647 C 463.577 2.28598 -0.166028 0
M  V30 4648 C 464.59 1.50044 0.631721 0
M  V30 4649 O 465.779 1.72339 0.464921 0
M  V30 4650 C 462.879 3.29625 0.787451 0
M  V30 4651 C 462.052 4.37384 0.037171 0
M  V30 4652 C 461.111 5.183 0.908375 0
M  V30 4653 O 460.137 5.68053 0.361189 0
M  V30 4654 N 461.339 5.35912 2.23112 0
M  V30 4655 H 464.104 2.83771 -0.964071 0
M  V30 4656 H 461.665 1.47994 -0.656469 0
M  V30 4657 H 463.657 3.80648 1.37439 0
M  V30 4658 H 462.227 2.75004 1.48632 0
M  V30 4659 H 461.447 3.87364 -0.730935 0
M  V30 4660 H 462.735 5.0653 -0.480109 0
M  V30 4661 H 462.133 4.97125 2.69968 0
M  V30 4662 H 460.69 5.90133 2.76741 0
M  V30 4663 N 464.123 0.554532 1.47522 0
M  V30 4664 C 465.086 -0.184174 2.28459 0
M  V30 4665 C 466.086 -0.845195 1.36796 0
M  V30 4666 O 467.276 -0.701467 1.59452 0
M  V30 4667 C 464.408 -1.26903 3.16399 0
M  V30 4668 H 465.601 0.526751 2.95238 0
M  V30 4669 H 463.154 0.311375 1.53167 0
M  V30 4670 H 463.889 -2.01244 2.54306 0
M  V30 4671 H 463.674 -0.799883 3.83854 0
M  V30 4672 H 465.164 -1.78794 3.77389 0
M  V30 4673 N 465.601 -1.54893 0.290851 0
M  V30 4674 C 466.534 -2.19289 -0.631489 0
M  V30 4675 C 467.512 -1.15893 -1.14051 0
M  V30 4676 O 468.696 -1.4449 -1.21058 0
M  V30 4677 C 465.823 -2.82866 -1.86291 0
M  V30 4678 C 464.869 -3.997 -1.48801 0
M  V30 4679 S 465.702 -5.32641 -0.552644 0
M  V30 4680 C 466.858 -5.99696 -1.79209 0
M  V30 4681 H 467.091 -2.9718 -0.0843791 0
M  V30 4682 H 464.624 -1.54218 0.075031 0
M  V30 4683 H 466.582 -3.20124 -2.56964 0
M  V30 4684 H 465.243 -2.04839 -2.38117 0
M  V30 4685 H 464.436 -4.42932 -2.40473 0
M  V30 4686 H 464.038 -3.63947 -0.861321 0
M  V30 4687 H 466.33 -6.19886 -2.734 0
M  V30 4688 H 467.273 -6.94071 -1.40251 0
M  V30 4689 H 467.681 -5.29226 -1.96419 0
M  V30 4690 N 467.08 -0.0183926 -1.57589 0
M  V30 4691 C 468.308 0.673046 -1.95647 0
M  V30 4692 C 468.723 1.66275 -0.894312 0
M  V30 4693 O 468.08 1.82072 0.124975 0
M  V30 4694 C 468.131 1.38884 -3.33756 0
M  V30 4695 O 467.852 0.438806 -4.35897 0
M  V30 4696 C 469.353 2.1731 -3.86383 0
M  V30 4697 H 466.573 0.186292 -0.644621 0
M  V30 4698 H 469.117 -0.0749748 -2.04363 0
M  V30 4699 H 467.272 2.08835 -3.26293 0
M  V30 4700 H 467.686 0.945869 -5.15901 0
M  V30 4701 H 469.16 2.62863 -4.85394 0
M  V30 4702 H 469.637 3.00764 -3.20059 0
M  V30 4703 H 470.243 1.52339 -3.97081 0
M  V30 4704 N 468.558 1.5553 0.254621 0
M  V30 4705 C 469.804 1.77262 0.985193 0
M  V30 4706 C 470.137 0.582286 1.85265 0
M  V30 4707 O 469.412 -0.419666 1.89919 0
M  V30 4708 C 469.695 3.0881 1.85225 0
M  V30 4709 C 469.548 4.38233 1.0135 0
M  V30 4710 C 470.867 3.3653 2.83612 0
M  V30 4711 H 467.986 0.644906 0.356742 0
M  V30 4712 H 470.628 1.88264 0.256236 0
M  V30 4713 H 468.778 2.99562 2.47376 0
M  V30 4714 H 470.45 4.59463 0.411269 0
M  V30 4715 H 468.693 4.32636 0.317574 0
M  V30 4716 H 469.364 5.26644 1.65379 0
M  V30 4717 H 471.84 3.45691 2.31596 0
M  V30 4718 H 470.716 4.29805 3.41407 0
M  V30 4719 H 470.977 2.57064 3.59681 0
M  V30 4720 N 470.036 -0.519951 1.48776 0
M  V30 4721 C 470.983 -1.62352 1.64044 0
M  V30 4722 C 471.953 -1.58945 0.482251 0
M  V30 4723 O 473.138 -1.77219 0.706971 0
M  V30 4724 C 470.278 -3.00579 1.69547 0
M  V30 4725 C 469.391 -3.14145 2.96541 0
M  V30 4726 C 468.526 -4.42991 2.93142 0
M  V30 4727 C 467.565 -4.50122 4.14797 0
M  V30 4728 N 466.702 -5.7037 4.09418 0
M  V30 4729 H 471.542 -1.48643 2.58281 0
M  V30 4730 H 469.079 -0.723516 1.28077 0
M  V30 4731 H 471.037 -3.80671 1.70719 0
M  V30 4732 H 469.667 -3.13036 0.787918 0
M  V30 4733 H 468.719 -2.27239 3.05068 0
M  V30 4734 H 470.031 -3.15275 3.86527 0
M  V30 4735 H 469.185 -5.31385 2.92772 0
M  V30 4736 H 467.924 -4.44398 2.00902 0
M  V30 4737 H 466.929 -3.60133 4.15433 0
M  V30 4738 H 468.154 -4.50445 5.08208 0
M  V30 4739 H 466.1 -5.72655 3.20004 0
M  V30 4740 H 466.017 -5.73036 4.93119 0
M  V30 4741 H 467.285 -6.61023 4.13121 0
M  V30 4742 O 471.553 -1.47171 -0.665045 0
M  V30 4743 H 472.244 -1.41937 -1.31809 0
M  V30 END ATOM
M  V30 BEGIN BOND
M  V30 END BOND
M  V30 END CTAB
M  END
$$$$
