drugbank_target|Q9H3N8 Histamine H4 receptor (DB00321; DB00363; DB00408; DB00477; DB00543; DB01142; DB01238; DB01620; DB05032; DB05381; DB06148)
 OpenBabel12092119253D

  0  0  0     0  0            999 V3000
M  V30 BEGIN CTAB
M  V30 COUNTS 6312 6402 0 0 0
M  V30 BEGIN ATOM
M  V30 1 H -0.908 1.98254 -0.117106 0
M  V30 2 N 0 1.576 0 0
M  V30 3 C 0.933 2.03868 1.02534 0
M  V30 4 C 1.911 0.928543 1.3348 0
M  V30 5 O 3.095 1.19667 1.45644 0
M  V30 6 C 0.222 2.43627 2.35294 0
M  V30 7 C -0.732 3.65373 2.2001 0
M  V30 8 S 0.101 5.13292 1.52614 0
M  V30 9 C 1.257 5.56322 2.86805 0
M  V30 10 H 1.49 2.90518 0.631377 0
M  V30 11 H -0.977 1.52953 0.210867 0
M  V30 12 H 0.981 2.67203 3.11629 0
M  V30 13 H -0.358 1.57376 2.7183 0
M  V30 14 H -1.165 3.90944 3.18086 0
M  V30 15 H -1.563 3.418 1.51819 0
M  V30 16 H 0.729 5.58782 3.83104 0
M  V30 17 H 1.672 6.56266 2.65933 0
M  V30 18 H 2.08 4.83886 2.90714 0
M  V30 19 N 1.4781 -0.272755 1.55222 0
M  V30 20 C 2.8891 -0.84378 1.66545 0
M  V30 21 C 3.2401 -1.87035 0.592641 0
M  V30 22 O 2.3651 -2.14761 -0.265818 0
M  V30 23 C 2.9601 -1.53723 3.01918 0
M  V30 24 C 1.5191 -2.05628 3.15268 0
M  V30 25 C 0.6661 -0.898424 2.62343 0
M  V30 26 H 3.6171 -0.0490998 1.58624 0
M  V30 27 H 3.6381 -2.40421 2.94921 0
M  V30 28 H 3.1501 -0.78983 3.79978 0
M  V30 29 H 1.2511 -2.83329 2.41983 0
M  V30 30 H 1.3641 -2.27142 4.21833 0
M  V30 31 H -0.2719 -1.29186 2.19506 0
M  V30 32 H 0.5111 -0.164528 3.42906 0
M  V30 33 N 2.9562 -1.48159 -0.537278 0
M  V30 34 C 4.2332 -1.46291 -1.29839 0
M  V30 35 C 4.6132 -0.170613 -2.10409 0
M  V30 36 O 3.9612 0.847746 -2.12192 0
M  V30 37 C 4.1712 -2.72055 -2.18603 0
M  V30 38 C 5.5192 -3.20087 -2.7898 0
M  V30 39 O 6.5432 -2.72921 -2.28894 0
M  V30 40 O 5.4022 -4.02138 -3.70064 0
M  V30 41 H 2.4962 -0.583906 -0.585647 0
M  V30 42 H 5.0422 -1.60384 -0.554534 0
M  V30 43 H 3.8142 -3.57628 -1.58801 0
M  V30 44 H 3.4372 -2.60646 -3.00249 0
M  V30 45 N 4.4343 0.785586 -1.36625 0
M  V30 46 C 5.6623 1.57448 -1.3423 0
M  V30 47 C 6.0773 1.88649 0.0755653 0
M  V30 48 O 5.4343 1.50414 1.03354 0
M  V30 49 C 5.4853 2.89316 -2.16745 0
M  V30 50 O 5.2063 2.59459 -3.53005 0
M  V30 51 C 6.7073 3.83606 -2.22174 0
M  V30 52 H 3.9273 0.488226 -0.4603 0
M  V30 53 H 6.4713 0.974733 -1.79775 0
M  V30 54 H 4.6263 3.4575 -1.74745 0
M  V30 55 H 5.0403 3.43804 -3.96105 0
M  V30 56 H 6.5143 4.73181 -2.8426 0
M  V30 57 H 6.9913 4.21734 -1.22627 0
M  V30 58 H 7.5973 3.33104 -2.64427 0
M  V30 59 N 5.9124 1.20967 1.01018 0
M  V30 60 C 6.8604 0.961223 2.1181 0
M  V30 61 C 7.8544 -0.0897034 1.69162 0
M  V30 62 O 9.0604 0.0612271 1.79896 0
M  V30 63 H 5.4354 0.29355 0.692338 0
M  V30 64 H 7.4064 1.90178 2.29946 0
M  V30 65 C 6.1554 0.536854 3.4353 0
M  V30 66 H 5.4784 1.33713 3.76777 0
M  V30 67 H 6.9184 0.402286 4.22087 0
M  V30 68 C 5.3774 -0.751574 3.2841 0
M  V30 69 O 5.9074 -1.80841 3.58691 0
M  V30 70 N 4.1134 -0.716079 2.81639 0
M  V30 71 H 3.6604 0.144236 2.57196 0
M  V30 72 H 3.6184 -1.57847 2.71904 0
M  V30 73 N 7.3905 -1.2043 1.01659 0
M  V30 74 C 8.6155 -1.94318 0.724942 0
M  V30 75 C 9.0405 -1.74266 -0.708034 0
M  V30 76 O 8.3985 -1.03694 -1.48719 0
M  V30 77 C 8.4465 -3.44486 1.06591 0
M  V30 78 O 7.5505 -4.12017 0.177599 0
M  V30 79 H 6.8915 -0.60708 0.26898 0
M  V30 80 H 9.4215 -1.52861 1.35995 0
M  V30 81 H 9.4315 -3.95106 1.01762 0
M  V30 82 H 8.1065 -3.58404 2.10997 0
M  V30 83 H 6.6835 -3.71821 0.283421 0
M  V30 84 N 8.8686 -0.792821 -1.36206 0
M  V30 85 C 10.0966 -0.378825 -2.03402 0
M  V30 86 C 10.5116 1.00586 -1.59774 0
M  V30 87 O 9.8686 1.64574 -0.788764 0
M  V30 88 C 9.9196 -0.43683 -3.58851 0
M  V30 89 O 9.6406 -1.76691 -4.00889 0
M  V30 90 C 11.1416 -0.0138943 -4.43298 0
M  V30 91 H 8.3616 -0.155673 -0.652692 0
M  V30 92 H 10.9056 -1.07261 -1.74113 0
M  V30 93 H 9.0606 0.208575 -3.86838 0
M  V30 94 H 9.4746 -1.72011 -4.95492 0
M  V30 95 H 10.9486 -0.105615 -5.51899 0
M  V30 96 H 11.4256 1.03915 -4.2673 0
M  V30 97 H 12.0316 -0.63192 -4.20579 0
M  V30 98 N 10.3467 1.47872 -0.545128 0
M  V30 99 C 11.5957 2.01695 -0.0145033 0
M  V30 100 C 11.9087 1.42609 1.33873 0
M  V30 101 O 13.1147 1.88021 1.95858 0
M  V30 102 C 11.5707 3.59892 0.0245068 0
M  V30 103 C 11.1787 4.27966 -1.32475 0
M  V30 104 C 12.9227 4.21507 0.50316 0
M  V30 105 C 10.8297 5.78136 -1.2455 0
M  V30 106 H 9.7597 0.753998 -0.00165172 0
M  V30 107 H 12.4107 1.69985 -0.691175 0
M  V30 108 H 10.7927 3.88509 0.766575 0
M  V30 109 H 11.9667 4.11003 -2.08357 0
M  V30 110 H 10.2817 3.78286 -1.74036 0
M  V30 111 H 12.8787 5.31538 0.580656 0
M  V30 112 H 13.2217 3.87855 1.51243 0
M  V30 113 H 13.7547 3.97376 -0.183681 0
M  V30 114 H 10.4937 6.16388 -2.23039 0
M  V30 115 H 10.0137 5.97469 -0.528282 0
M  V30 116 H 11.6927 6.40099 -0.942488 0
M  V30 117 N 11.8248 0.280983 1.55075 0
M  V30 118 C 12.7728 -0.619864 2.24188 0
M  V30 119 C 13.7668 -1.15315 1.24092 0
M  V30 120 O 14.9728 -1.1061 1.42005 0
M  V30 121 H 11.3478 -0.218459 0.719569 0
M  V30 122 H 13.3188 -0.0141831 2.98397 0
M  V30 123 C 12.0678 -1.7899 2.98091 0
M  V30 124 H 11.3908 -1.38874 3.74905 0
M  V30 125 H 12.8308 -2.39672 3.49762 0
M  V30 126 C 11.2898 -2.68192 2.03899 0
M  V30 127 O 11.8198 -3.6872 1.594 0
M  V30 128 N 10.0258 -2.35488 1.70275 0
M  V30 129 H 9.5728 -1.53787 2.06658 0
M  V30 130 H 9.5308 -2.95442 1.07524 0
M  V30 131 N 13.3029 -1.57598 0.00835791 0
M  V30 132 C 14.2329 -2.1198 -0.979113 0
M  V30 133 C 15.2139 -1.03091 -1.35301 0
M  V30 134 O 16.3989 -1.30818 -1.43528 0
M  V30 135 C 13.5289 -2.62995 -2.26828 0
M  V30 136 C 12.4829 -3.76485 -2.03576 0
M  V30 137 C 11.8089 -4.13846 -3.38579 0
M  V30 138 C 13.1089 -5.0342 -1.39161 0
M  V30 139 H 14.8029 -2.94738 -0.526281 0
M  V30 140 H 12.3489 -1.41783 -0.251704 0
M  V30 141 H 14.3019 -2.99669 -2.96271 0
M  V30 142 H 13.0259 -1.7737 -2.7424 0
M  V30 143 H 11.6849 -3.40217 -1.36557 0
M  V30 144 H 11.3329 -3.25232 -3.83709 0
M  V30 145 H 11.0329 -4.90312 -3.23834 0
M  V30 146 H 12.5569 -4.53086 -4.09323 0
M  V30 147 H 13.9709 -5.37812 -1.98573 0
M  V30 148 H 12.3679 -5.84746 -1.34878 0
M  V30 149 H 13.4379 -4.83548 -0.361868 0
M  V30 150 N 14.781 0.264519 -1.55364 0
M  V30 151 C 16.006 1.01726 -1.80739 0
M  V30 152 C 16.431 1.78836 -0.583044 0
M  V30 153 O 15.789 1.75167 0.467566 0
M  V30 154 C 15.837 1.94482 -3.03659 0
M  V30 155 O 14.941 3.03386 -2.7934 0
M  V30 156 H 14.282 0.290395 -0.597132 0
M  V30 157 H 16.812 0.290854 -2.02522 0
M  V30 158 H 16.822 2.36278 -3.32621 0
M  V30 159 H 15.497 1.37772 -3.92418 0
M  V30 160 H 14.074 2.65844 -2.61498 0
M  V30 161 N 16.2591 1.48442 0.529413 0
M  V30 162 C 17.1891 1.65902 1.64313 0
M  V30 163 C 18.1701 0.507897 1.6234 0
M  V30 164 O 19.3551 0.740503 1.79528 0
M  V30 165 C 16.4851 1.69911 3.02898 0
M  V30 166 C 15.4391 2.8453 3.19729 0
M  V30 167 C 14.7651 2.73629 4.59381 0
M  V30 168 C 16.0651 4.25821 3.02447 0
M  V30 169 H 17.7591 2.5914 1.49955 0
M  V30 170 H 15.3051 1.24709 0.719982 0
M  V30 171 H 17.2581 1.80715 3.80684 0
M  V30 172 H 15.9821 0.732524 3.18279 0
M  V30 173 H 14.6411 2.73283 2.44361 0
M  V30 174 H 14.2891 1.74938 4.71599 0
M  V30 175 H 13.9891 3.50541 4.71588 0
M  V30 176 H 15.5131 2.86401 5.39265 0
M  V30 177 H 16.9271 4.37898 3.70024 0
M  V30 178 H 15.3241 5.03735 3.26146 0
M  V30 179 H 16.3941 4.42244 1.98867 0
M  V30 180 N 17.7372 -0.778329 1.37039 0
M  V30 181 C 18.9622 -1.57248 1.35233 0
M  V30 182 C 19.3872 -1.87999 -0.0615568 0
M  V30 183 O 18.7452 -1.48734 -1.03672 0
M  V30 184 C 18.7932 -2.86353 2.19167 0
M  V30 185 O 17.8972 -3.80442 1.59178 0
M  V30 186 H 17.2382 -0.476569 0.462362 0
M  V30 187 H 19.7682 -0.963853 1.80474 0
M  V30 188 H 19.7782 -3.35519 2.32145 0
M  V30 189 H 18.4532 -2.63299 3.21942 0
M  V30 190 H 17.0302 -3.39067 1.55203 0
M  V30 191 N 19.2153 -1.21501 -1.00376 0
M  V30 192 C 20.4433 -1.059 -1.77744 0
M  V30 193 C 20.8583 0.391125 -1.84704 0
M  V30 194 O 20.2153 1.27133 -1.30933 0
M  V30 195 C 20.2663 -1.65111 -3.21591 0
M  V30 196 O 19.9873 -3.0445 -3.15027 0
M  V30 197 C 21.4883 -1.54637 -4.15454 0
M  V30 198 H 18.7083 -0.371825 -0.558558 0
M  V30 199 H 21.2523 -1.60865 -1.26264 0
M  V30 200 H 19.4073 -1.14235 -3.70175 0
M  V30 201 H 19.8213 -3.3278 -4.0541 0
M  V30 202 H 21.2953 -2.00808 -5.14179 0
M  V30 203 H 21.7723 -0.501022 -4.36333 0
M  V30 204 H 22.3783 -2.04767 -3.72761 0
M  V30 205 N 20.6934 1.19889 -1.02296 0
M  V30 206 C 22.1094 1.41462 -0.738954 0
M  V30 207 C 22.3094 1.89721 0.678846 0
M  V30 208 O 21.3654 2.07016 1.4457 0
M  V30 209 C 22.6784 2.43083 -1.77005 0
M  V30 210 C 24.2264 2.5684 -1.78892 0
M  V30 211 C 24.7014 3.61709 -2.80945 0
M  V30 212 N 26.1924 3.69199 -2.79725 0
M  V30 213 C 26.9274 4.50019 -3.55345 0
M  V30 214 N 26.4234 5.34592 -4.40662 0
M  V30 215 N 28.2164 4.44612 -3.43914 0
M  V30 216 H 20.3674 0.868827 -1.93817 0
M  V30 217 H 22.6304 0.44399 -0.837602 0
M  V30 218 H 22.3364 2.14636 -2.78612 0
M  V30 219 H 22.2104 3.4217 -1.58744 0
M  V30 220 H 24.5974 2.84614 -0.779674 0
M  V30 221 H 24.6784 1.57927 -2.01228 0
M  V30 222 H 24.3224 3.34678 -3.82038 0
M  V30 223 H 24.2524 4.60259 -2.5587 0
M  V30 224 H 26.7434 3.08794 -2.17842 0
M  V30 225 H 27.0564 5.93363 -4.95116 0
M  V30 226 H 25.4014 5.34073 -4.44737 0
M  V30 227 H 28.5924 3.7758 -2.76679 0
M  V30 228 H 28.7654 5.0736 -4.031 0
M  V30 229 N 22.1715 0.800033 1.35784 0
M  V30 230 C 23.4175 0.377901 1.99248 0
M  V30 231 C 23.7505 -1.05052 1.63333 0
M  V30 232 O 23.0255 -1.72768 0.893385 0
M  V30 233 C 23.3085 0.553922 3.55814 0
M  V30 234 C 23.1615 2.0268 4.01548 0
M  V30 235 C 24.4805 -0.0244802 4.40093 0
M  V30 236 H 21.5995 0.138782 0.723815 0
M  V30 237 H 24.2415 1.00835 1.61035 0
M  V30 238 H 22.3915 0.0172398 3.88496 0
M  V30 239 H 24.0635 2.62536 3.79305 0
M  V30 240 H 22.3065 2.5256 3.52698 0
M  V30 241 H 22.9775 2.10087 5.10458 0
M  V30 242 H 25.4535 0.433775 4.13833 0
M  V30 243 H 24.3295 0.128637 5.48749 0
M  V30 244 H 24.5905 -1.11758 4.27741 0
M  V30 245 N 23.6496 -1.47581 0.552962 0
M  V30 246 C 24.8776 -2.06875 0.0320556 0
M  V30 247 C 25.2926 -1.40625 -1.25976 0
M  V30 248 O 24.6496 -0.501349 -1.75479 0
M  V30 249 C 24.7006 -3.61092 -0.17167 0
M  V30 250 O 24.4216 -4.24858 1.06899 0
M  V30 251 C 25.9226 -4.37242 -0.730344 0
M  V30 252 H 23.1426 -0.669561 0.043915 0
M  V30 253 H 25.6866 -1.89646 0.765163 0
M  V30 254 H 23.8416 -3.7785 -0.854894 0
M  V30 255 H 24.2556 -5.17334 0.864059 0
M  V30 256 H 25.7296 -5.45842 -0.822203 0
M  V30 257 H 26.2066 -4.03235 -1.74064 0
M  V30 258 H 26.8126 -4.25219 -0.0829543 0
M  V30 259 N 25.1277 -0.289203 -1.54924 0
M  V30 260 C 26.0577 0.58549 -2.2604 0
M  V30 261 C 27.0387 1.14753 -1.25562 0
M  V30 262 O 28.2237 1.17906 -1.54311 0
M  V30 263 C 25.3537 1.76305 -2.99222 0
M  V30 264 C 24.3077 1.33191 -4.06748 0
M  V30 265 C 23.6337 2.5937 -4.6758 0
M  V30 266 C 24.9337 0.471775 -5.20165 0
M  V30 267 H 26.6277 -0.00763532 -2.99399 0
M  V30 268 H 24.1737 -0.00511229 -1.43999 0
M  V30 269 H 26.1267 2.38097 -3.47689 0
M  V30 270 H 24.8507 2.38223 -2.23422 0
M  V30 271 H 23.5097 0.737121 -3.59113 0
M  V30 272 H 23.1577 3.19576 -3.88433 0
M  V30 273 H 22.8577 2.31228 -5.40192 0
M  V30 274 H 24.3817 3.21985 -5.18804 0
M  V30 275 H 25.7957 0.995056 -5.64599 0
M  V30 276 H 24.1927 0.284639 -5.99425 0
M  V30 277 H 25.2627 -0.506041 -4.82252 0
M  V30 278 N 26.6058 1.57591 -0.0167156 0
M  V30 279 C 27.5688 2.08393 0.954204 0
M  V30 280 C 28.5688 0.996531 1.26198 0
M  V30 281 O 29.7588 1.25858 1.20438 0
M  V30 282 C 26.8908 2.5394 2.27436 0
M  V30 283 H 28.0838 2.95455 0.514451 0
M  V30 284 H 25.6368 1.54582 0.231089 0
M  V30 285 H 26.3718 1.70171 2.76066 0
M  V30 286 H 26.1568 3.33371 2.06412 0
M  V30 287 H 27.6468 2.93512 2.97053 0
M  V30 288 N 28.0839 -0.256276 1.55502 0
M  V30 289 C 29.3309 -0.985619 1.76895 0
M  V30 290 C 29.6589 -1.85671 0.579355 0
M  V30 291 O 28.9139 -1.90744 -0.437651 0
M  V30 292 C 29.2129 -1.88432 3.03691 0
M  V30 293 C 28.8789 -1.16936 4.35473 0
M  V30 294 C 27.5409 -0.97173 4.71286 0
M  V30 295 C 29.8929 -0.661889 5.1698 0
M  V30 296 C 27.2209 -0.254179 5.86149 0
M  V30 297 C 29.5729 0.042149 6.32586 0
M  V30 298 C 28.2369 0.25134 6.67027 0
M  V30 299 H 27.5069 -0.360663 0.647304 0
M  V30 300 H 30.1539 -0.256483 1.89775 0
M  V30 301 H 28.4589 -2.68021 2.85783 0
M  V30 302 H 30.1559 -2.45015 3.1744 0
M  V30 303 H 26.7459 -1.33332 4.07333 0
M  V30 304 H 30.9299 -0.802145 4.89775 0
M  V30 305 H 26.1859 -0.0815408 6.11346 0
M  V30 306 H 30.3599 0.443049 6.94989 0
M  V30 307 H 27.9869 0.809314 7.5588 0
M  V30 308 N 29.562 -1.4872 -0.521534 0
M  V30 309 C 30.809 -1.57168 -1.27689 0
M  V30 310 C 31.137 -0.249275 -1.92896 0
M  V30 311 O 30.392 0.761162 -1.80291 0
M  V30 312 C 30.691 -2.66497 -2.38148 0
M  V30 313 C 30.357 -4.08664 -1.90538 0
M  V30 314 C 29.019 -4.47357 -1.77271 0
M  V30 315 C 31.371 -4.97724 -1.54663 0
M  V30 316 C 28.699 -5.72905 -1.26478 0
M  V30 317 C 31.051 -6.2377 -1.05329 0
M  V30 318 C 29.715 -6.61311 -0.906861 0
M  V30 319 H 28.985 -0.575117 -0.467249 0
M  V30 320 H 31.632 -1.82472 -0.581051 0
M  V30 321 H 29.937 -2.35085 -3.13437 0
M  V30 322 H 31.634 -2.70246 -2.96257 0
M  V30 323 H 28.224 -3.78111 -2.01816 0
M  V30 324 H 32.408 -4.68501 -1.63768 0
M  V30 325 H 27.664 -6.00709 -1.13835 0
M  V30 326 H 31.838 -6.9217 -0.76644 0
M  V30 327 H 29.465 -7.5848 -0.511083 0
M  V30 328 N 31.0401 0.771051 -1.3745 0
M  V30 329 C 31.9731 1.89166 -1.27638 0
M  V30 330 C 32.9511 1.61842 -0.156782 0
M  V30 331 O 34.1351 1.85569 -0.331111 0
M  V30 332 C 31.2621 3.24405 -0.973621 0
M  V30 333 C 30.3081 3.70638 -2.1102 0
M  V30 334 S 31.1411 3.84228 -3.73 0
M  V30 335 C 32.2971 5.22313 -3.44876 0
M  V30 336 H 32.5301 1.972 -2.22485 0
M  V30 337 H 30.0631 0.932224 -1.23081 0
M  V30 338 H 32.0211 4.02514 -0.805766 0
M  V30 339 H 30.6821 3.14071 -0.0426279 0
M  V30 340 H 29.8751 4.68685 -1.85338 0
M  V30 341 H 29.4771 2.99632 -2.23822 0
M  V30 342 H 31.7691 6.07505 -2.99908 0
M  V30 343 H 32.7121 5.53008 -4.42253 0
M  V30 344 H 33.1201 4.90284 -2.79789 0
M  V30 345 N 32.5182 1.22032 0.997298 0
M  V30 346 C 33.7432 1.06921 1.77715 0
M  V30 347 C 34.1682 -0.376226 1.84299 0
M  V30 348 O 33.5262 -1.27165 1.29223 0
M  V30 349 C 33.5742 1.67996 3.19076 0
M  V30 350 O 32.6782 0.930653 4.01762 0
M  V30 351 H 32.0192 0.375814 0.547412 0
M  V30 352 H 34.5492 1.61737 1.25309 0
M  V30 353 H 34.5592 1.72538 3.69723 0
M  V30 354 H 33.2342 2.73182 3.13599 0
M  V30 355 H 31.8112 0.960917 3.60307 0
M  V30 356 N 33.9963 -1.19345 1.0293 0
M  V30 357 C 34.9263 -2.2481 0.631105 0
M  V30 358 C 35.9073 -1.66245 -0.360104 0
M  V30 359 O 37.0923 -1.92677 -0.242726 0
M  V30 360 C 34.2223 -3.47295 -0.0184607 0
M  V30 361 C 33.1763 -4.18536 0.895073 0
M  V30 362 C 32.5023 -5.34586 0.110592 0
M  V30 363 C 33.8023 -4.73287 2.209 0
M  V30 364 H 35.4963 -2.58372 1.51275 0
M  V30 365 H 33.0423 -1.24194 0.728818 0
M  V30 366 H 34.9953 -4.20268 -0.308675 0
M  V30 367 H 33.7193 -3.12933 -0.934907 0
M  V30 368 H 32.3783 -3.47446 1.16949 0
M  V30 369 H 32.0263 -4.96469 -0.807902 0
M  V30 370 H 31.7263 -5.83183 0.719087 0
M  V30 371 H 33.2503 -6.10355 -0.172871 0
M  V30 372 H 34.6643 -5.38013 1.98028 0
M  V30 373 H 33.0613 -5.32373 2.76946 0
M  V30 374 H 34.1313 -3.91331 2.86336 0
M  V30 375 N 35.4744 -0.807222 -1.35358 0
M  V30 376 C 36.7204 -0.388463 -1.99045 0
M  V30 377 C 37.0534 1.04184 -1.63888 0
M  V30 378 O 36.3284 1.72292 -0.902535 0
M  V30 379 C 36.6114 -0.572783 -3.55515 0
M  V30 380 C 36.4644 -2.04807 -4.00468 0
M  V30 381 C 37.7834 0.00114064 -4.401 0
M  V30 382 H 34.9024 -0.142619 -0.723069 0
M  V30 383 H 37.5444 -1.01687 -1.60498 0
M  V30 384 H 35.6944 -0.0378425 -3.88482 0
M  V30 385 H 37.3664 -2.64544 -3.77908 0
M  V30 386 H 35.6094 -2.54427 -3.51353 0
M  V30 387 H 36.2804 -2.12792 -5.09337 0
M  V30 388 H 38.7564 -0.455716 -4.13597 0
M  V30 389 H 37.6324 -0.157737 -5.48673 0
M  V30 390 H 37.8934 1.09488 -4.28328 0
M  V30 391 N 36.9525 1.47285 -0.560781 0
M  V30 392 C 37.9155 2.28535 0.174488 0
M  V30 393 C 38.9155 1.37153 0.839388 0
M  V30 394 O 40.1055 1.59748 0.694702 0
M  V30 395 C 37.2375 3.16934 1.25561 0
M  V30 396 H 38.4305 2.95012 -0.539262 0
M  V30 397 H 35.9835 1.53034 -0.317865 0
M  V30 398 H 36.7185 2.55157 2.00164 0
M  V30 399 H 36.5035 3.8419 0.783604 0
M  V30 400 H 37.9935 3.78143 1.77193 0
M  V30 401 N 38.4306 0.297415 1.54768 0
M  V30 402 C 39.6776 -0.312913 2.00068 0
M  V30 403 C 40.0056 -1.54171 1.18582 0
M  V30 404 O 39.2606 -1.94108 0.249133 0
M  V30 405 C 39.5596 -0.717561 3.50123 0
M  V30 406 C 39.2256 0.409095 4.4904 0
M  V30 407 C 37.8876 0.718399 4.75807 0
M  V30 408 C 40.2396 1.16717 5.07963 0
M  V30 409 C 37.5676 1.78896 5.5876 0
M  V30 410 C 39.9196 2.22762 5.92081 0
M  V30 411 C 38.5836 2.54303 6.1716 0
M  V30 412 H 37.8536 -0.114503 0.7321 0
M  V30 413 H 40.5006 0.415767 1.86932 0
M  V30 414 H 38.8056 -1.52627 3.60849 0
M  V30 415 H 40.5026 -1.20091 3.82595 0
M  V30 416 H 37.0926 0.157918 4.28309 0
M  V30 417 H 41.2766 0.941466 4.87289 0
M  V30 418 H 36.5326 2.0381 5.7643 0
M  V30 419 H 40.7066 2.81962 6.36765 0
M  V30 420 H 38.3336 3.3739 6.81229 0
M  V30 421 N 39.9087 -1.5758 0.0250728 0
M  V30 422 C 40.8717 -2.08896 -0.943139 0
M  V30 423 C 41.8717 -1.00321 -1.25668 0
M  V30 424 O 43.0617 -1.26495 -1.19769 0
M  V30 425 C 40.1937 -2.55143 -2.26086 0
M  V30 426 H 41.3867 -2.95723 -0.498775 0
M  V30 427 H 38.9397 -1.54703 -0.222888 0
M  V30 428 H 39.6747 -1.71633 -2.75159 0
M  V30 429 H 39.4597 -3.34461 -2.04641 0
M  V30 430 H 40.9497 -2.95083 -2.95492 0
M  V30 431 N 41.3868 0.248026 -1.55636 0
M  V30 432 C 42.6358 0.974134 -1.76617 0
M  V30 433 C 42.9488 1.86528 -0.588796 0
M  V30 434 O 44.1548 2.62805 -0.681594 0
M  V30 435 C 42.6108 1.78213 -3.12679 0
M  V30 436 C 42.2188 0.93843 -4.38061 0
M  V30 437 C 43.9628 2.50104 -3.42999 0
M  V30 438 C 41.8698 1.74225 -5.65155 0
M  V30 439 H 40.7998 0.36745 -0.658405 0
M  V30 440 H 43.4508 0.22884 -1.82067 0
M  V30 441 H 41.8328 2.56933 -3.01333 0
M  V30 442 H 43.0068 0.193635 -4.60393 0
M  V30 443 H 41.3218 0.332905 -4.15067 0
M  V30 444 H 43.9188 3.10694 -4.3517 0
M  V30 445 H 44.2618 3.21662 -2.64271 0
M  V30 446 H 44.7948 1.78395 -3.55556 0
M  V30 447 H 41.5338 1.07043 -6.46701 0
M  V30 448 H 41.0538 2.46235 -5.46926 0
M  V30 449 H 42.7328 2.30967 -6.0437 0
M  V30 450 N 42.8649 1.48995 0.513639 0
M  V30 451 C 43.7979 1.59319 1.63379 0
M  V30 452 C 44.7759 0.442816 1.56454 0
M  V30 453 O 45.9599 0.656655 1.76693 0
M  V30 454 C 43.0869 1.5364 3.01848 0
M  V30 455 C 42.1329 2.7372 3.27078 0
M  V30 456 S 42.9659 4.35528 3.1157 0
M  V30 457 C 44.1219 4.32473 4.52458 0
M  V30 458 H 44.3549 2.54079 1.54374 0
M  V30 459 H 41.8879 1.3773 0.697849 0
M  V30 460 H 43.8459 1.51049 3.81699 0
M  V30 461 H 42.5069 0.601898 3.08279 0
M  V30 462 H 41.6999 2.6593 4.28132 0
M  V30 463 H 41.3019 2.73657 2.54927 0
M  V30 464 H 43.5939 4.03414 5.44301 0
M  V30 465 H 44.5369 5.33762 4.65299 0
M  V30 466 H 44.9449 3.62718 4.32546 0
M  V30 467 N 44.343 -0.763751 1.37857 0
M  V30 468 C 45.273 -1.89103 1.36975 0
M  V30 469 C 46.254 -1.68439 0.237152 0
M  V30 470 O 47.439 -1.8918 0.438713 0
M  V30 471 C 44.569 -3.26496 1.18395 0
M  V30 472 C 43.523 -3.61741 2.28751 0
M  V30 473 C 42.849 -4.97762 1.95286 0
M  V30 474 C 44.149 -3.67665 3.70972 0
M  V30 475 H 45.843 -1.90099 2.31307 0
M  V30 476 H 43.389 -0.91319 1.11341 0
M  V30 477 H 45.342 -4.05003 1.16406 0
M  V30 478 H 44.066 -3.25955 0.205215 0
M  V30 479 H 42.725 -2.85547 2.29909 0
M  V30 480 H 42.373 -4.93769 0.959221 0
M  V30 481 H 42.073 -5.22313 2.69189 0
M  V30 482 H 43.597 -5.7866 1.94898 0
M  V30 483 H 45.011 -4.36307 3.719 0
M  V30 484 H 43.408 -4.03718 4.43995 0
M  V30 485 H 44.478 -2.68134 4.0402 0
M  V30 486 N 45.8211 -1.22559 -0.990812 0
M  V30 487 C 47.0691 -1.04933 -1.72724 0
M  V30 488 C 47.3901 0.416158 -1.90508 0
M  V30 489 O 46.6601 1.29918 -1.46622 0
M  V30 490 H 45.2401 -0.385296 -0.639965 0
M  V30 491 H 47.9021 -1.54105 -1.19322 0
M  V30 492 H 46.9981 -1.52886 -2.72089 0
M  V30 493 N 47.2992 1.18797 -1.03562 0
M  V30 494 C 48.2472 2.24297 -0.615905 0
M  V30 495 C 49.2412 1.65643 0.354808 0
M  V30 496 O 50.4472 1.78618 0.22265 0
M  V30 497 H 46.8222 0.729909 -0.180934 0
M  V30 498 H 48.7932 2.5701 -1.5162 0
M  V30 499 C 47.5422 3.47698 0.0104735 0
M  V30 500 H 46.8652 3.93125 -0.727509 0
M  V30 501 H 48.3052 4.23159 0.266995 0
M  V30 502 C 46.7642 3.12489 1.25905 0
M  V30 503 O 47.2942 3.25761 2.35038 0
M  V30 504 N 45.5002 2.6686 1.15039 0
M  V30 505 H 45.0472 2.56261 0.262328 0
M  V30 506 H 45.0052 2.43674 1.98672 0
M  V30 507 N 48.7773 0.814389 1.34928 0
M  V30 508 C 49.7403 0.235759 2.27984 0
M  V30 509 C 50.7403 -0.581412 1.49921 0
M  V30 510 O 51.9303 -0.398758 1.69575 0
M  V30 511 C 49.0623 -0.670433 3.34242 0
M  V30 512 H 50.2553 1.05659 2.80671 0
M  V30 513 H 47.8083 0.585614 1.44915 0
M  V30 514 H 48.5433 -1.51466 2.86755 0
M  V30 515 H 48.3283 -0.0860822 3.92005 0
M  V30 516 H 49.8183 -1.06935 4.03676 0
M  V30 517 N 50.2554 -1.46986 0.568584 0
M  V30 518 C 51.1854 -2.32946 -0.160753 0
M  V30 519 C 52.1664 -1.44487 -0.897631 0
M  V30 520 O 53.3514 -1.73327 -0.875867 0
M  V30 521 C 50.4814 -3.26494 -1.18403 0
M  V30 522 C 49.4354 -4.24282 -0.562895 0
M  V30 523 C 48.7614 -5.07236 -1.69163 0
M  V30 524 C 50.0614 -5.19989 0.490761 0
M  V30 525 H 51.7554 -2.94175 0.556916 0
M  V30 526 H 49.3014 -1.4146 0.26927 0
M  V30 527 H 51.2544 -3.85477 -1.70251 0
M  V30 528 H 49.9784 -2.63343 -1.93179 0
M  V30 529 H 48.6374 -3.66541 -0.0656164 0
M  V30 530 H 48.2854 -4.4048 -2.42871 0
M  V30 531 H 47.9854 -5.7345 -1.28174 0
M  V30 532 H 49.5094 -5.6908 -2.21314 0
M  V30 533 H 50.9234 -5.73271 0.0579047 0
M  V30 534 H 49.3204 -5.94469 0.820165 0
M  V30 535 H 50.3904 -4.64777 1.3824 0
M  V30 536 N 51.7335 -0.305618 -1.54608 0
M  V30 537 C 52.9795 0.302746 -2.00528 0
M  V30 538 C 53.3125 1.53184 -1.19367 0
M  V30 539 O 52.5875 1.92598 -0.271321 0
M  V30 540 C 52.8705 0.654756 -3.54097 0
M  V30 541 C 52.7235 -0.583793 -4.45995 0
M  V30 542 C 54.0425 1.47947 -4.14487 0
M  V30 543 H 51.1615 0.108564 -0.72896 0
M  V30 544 H 53.8035 -0.418634 -1.85331 0
M  V30 545 H 51.9535 1.26935 -3.67178 0
M  V30 546 H 53.6255 -1.22224 -4.44814 0
M  V30 547 H 51.8685 -1.21615 -4.16404 0
M  V30 548 H 52.5395 -0.293287 -5.5122 0
M  V30 549 H 55.0155 0.96013 -4.04871 0
M  V30 550 H 53.8915 1.69454 -5.22088 0
M  V30 551 H 54.1525 2.47011 -3.66658 0
M  V30 552 N 53.2116 1.57565 -0.0334293 0
M  V30 553 C 54.4606 1.91155 0.643639 0
M  V30 554 C 54.7736 0.91192 1.73042 0
M  V30 555 O 55.9796 1.13923 2.46442 0
M  V30 556 C 54.4356 3.39443 1.1961 0
M  V30 557 C 54.0436 4.47774 0.142381 0
M  V30 558 C 55.7876 3.82094 1.84944 0
M  V30 559 C 53.6946 5.87162 0.706727 0
M  V30 560 H 52.6246 0.713368 0.244176 0
M  V30 561 H 55.2756 1.8323 -0.0994323 0
M  V30 562 H 53.6576 3.42313 1.99092 0
M  V30 563 H 54.8316 4.56469 -0.630296 0
M  V30 564 H 53.1466 4.14352 -0.412446 0
M  V30 565 H 55.7436 4.83591 2.2813 0
M  V30 566 H 56.0866 3.17386 2.69392 0
M  V30 567 H 56.6196 3.81665 1.12145 0
M  V30 568 H 53.3586 6.55424 -0.0997178 0
M  V30 569 H 52.8786 5.82064 1.44779 0
M  V30 570 H 54.5576 6.35866 1.19514 0
M  V30 571 N 54.6897 -0.239769 1.55765 0
M  V30 572 C 55.6197 -1.30052 1.9393 0
M  V30 573 C 56.6007 -1.49839 0.805132 0
M  V30 574 O 57.7857 -1.62328 1.06599 0
M  V30 575 C 54.9157 -2.65391 2.2402 0
M  V30 576 C 53.8697 -2.60289 3.39755 0
M  V30 577 C 53.1957 -3.99489 3.55405 0
M  V30 578 C 54.4957 -2.16654 4.75246 0
M  V30 579 H 56.1897 -0.983573 2.82783 0
M  V30 580 H 53.7357 -0.471701 1.36055 0
M  V30 581 H 55.6887 -3.3974 2.49308 0
M  V30 582 H 54.4127 -2.98736 1.32 0
M  V30 583 H 53.0717 -1.88398 3.14487 0
M  V30 584 H 52.7197 -4.30112 2.60793 0
M  V30 585 H 52.4197 -3.96962 4.33238 0
M  V30 586 H 53.9437 -4.75528 3.83022 0
M  V30 587 H 55.3577 -2.80737 4.99859 0
M  V30 588 H 53.7547 -2.25223 5.56232 0
M  V30 589 H 54.8247 -1.11835 4.71827 0
M  V30 590 N 56.1678 -1.49265 -0.50573 0
M  V30 591 C 57.1308 -1.65075 -1.59006 0
M  V30 592 C 58.1308 -0.522768 -1.52065 0
M  V30 593 O 59.3208 -0.789117 -1.55302 0
M  V30 594 C 56.4528 -1.64369 -2.98656 0
M  V30 595 H 57.6458 -2.61784 -1.46319 0
M  V30 596 H 55.1988 -1.38226 -0.729616 0
M  V30 597 H 55.9338 -0.692272 -3.16825 0
M  V30 598 H 55.7188 -2.46282 -3.05103 0
M  V30 599 H 57.2088 -1.78674 -3.77446 0
M  V30 600 N 57.6459 0.756429 -1.3826 0
M  V30 601 C 58.8929 1.51547 -1.34312 0
M  V30 602 C 59.2209 1.94382 0.0677144 0
M  V30 603 O 58.4759 1.65514 1.04421 0
M  V30 604 C 58.7749 2.78313 -2.24224 0
M  V30 605 C 58.4409 2.54455 -3.72241 0
M  V30 606 C 57.1029 2.47657 -4.12576 0
M  V30 607 C 59.4549 2.3354 -4.65949 0
M  V30 608 C 56.7829 2.17956 -5.44713 0
M  V30 609 C 59.1349 2.05359 -5.9834 0
M  V30 610 C 57.7989 1.97016 -6.37762 0
M  V30 611 H 57.0689 0.55455 -0.491482 0
M  V30 612 H 59.7159 0.870039 -1.70595 0
M  V30 613 H 58.0209 3.47492 -1.80987 0
M  V30 614 H 59.7179 3.36259 -2.18474 0
M  V30 615 H 56.3079 2.60616 -3.40261 0
M  V30 616 H 60.4919 2.37772 -4.35635 0
M  V30 617 H 55.7479 2.10003 -5.74203 0
M  V30 618 H 59.9219 1.88179 -6.70494 0
M  V30 619 H 57.5489 1.73766 -7.40074 0
M  V30 620 N 59.124 1.23083 0.984299 0
M  V30 621 C 60.37 1.06214 1.72761 0
M  V30 622 C 60.703 -0.400584 1.90024 0
M  V30 623 O 59.978 -1.29672 1.44967 0
M  V30 624 C 60.261 1.78375 3.12817 0
M  V30 625 C 60.114 3.32296 3.03149 0
M  V30 626 C 61.433 1.54309 4.12161 0
M  V30 627 H 58.552 0.387251 0.627061 0
M  V30 628 H 61.194 1.51536 1.14616 0
M  V30 629 H 59.344 1.39848 3.62457 0
M  V30 630 H 61.016 3.8032 2.61064 0
M  V30 631 H 59.259 3.6153 2.39747 0
M  V30 632 H 59.93 3.77972 4.02295 0
M  V30 633 H 62.406 1.87791 3.71314 0
M  V30 634 H 61.282 2.07281 5.08258 0
M  V30 635 H 61.543 0.477572 4.39513 0
M  V30 636 N 60.6021 -1.18246 1.0419 0
M  V30 637 C 61.8481 -1.88536 0.747122 0
M  V30 638 C 62.1811 -1.80223 -0.723409 0
M  V30 639 O 61.4561 -1.20337 -1.52804 0
M  V30 640 C 61.7391 -3.38968 1.21544 0
M  V30 641 C 61.5921 -3.56084 2.74816 0
M  V30 642 C 62.9111 -4.32648 0.806482 0
M  V30 643 H 60.0301 -0.684619 0.272883 0
M  V30 644 H 62.6721 -1.39113 1.29413 0
M  V30 645 H 60.8221 -3.8119 0.750081 0
M  V30 646 H 62.4941 -3.22946 3.29399 0
M  V30 647 H 60.7371 -2.98699 3.14582 0
M  V30 648 H 61.4081 -4.61639 3.02644 0
M  V30 649 H 63.8841 -3.98211 1.20695 0
M  V30 650 H 62.7601 -5.36462 1.1619 0
M  V30 651 H 63.0211 -4.41146 -0.29029 0
M  V30 652 N 62.0802 -0.821533 -1.34494 0
M  V30 653 C 63.3572 -0.33159 -1.92769 0
M  V30 654 C 63.7372 1.18088 -1.74981 0
M  V30 655 O 63.0852 1.98733 -1.12772 0
M  V30 656 C 63.2952 -0.759398 -3.40638 0
M  V30 657 C 64.6432 -0.757433 -4.1779 0
M  V30 658 O 65.6672 -0.70189 -3.49216 0
M  V30 659 O 64.5262 -0.829361 -5.4017 0
M  V30 660 H 61.6202 -0.0902502 -0.822061 0
M  V30 661 H 64.1662 -0.906231 -1.43477 0
M  V30 662 H 62.9382 -1.8012 -3.47379 0
M  V30 663 H 62.5612 -0.160378 -3.97276 0
M  V30 664 N 63.5583 1.46682 -0.576371 0
M  V30 665 C 64.5053 2.30241 0.160499 0
M  V30 666 C 65.4753 1.40233 0.890162 0
M  V30 667 O 66.6603 1.69186 0.882084 0
M  V30 668 C 63.8003 3.24578 1.1723 0
M  V30 669 C 62.9133 4.29684 0.446736 0
M  V30 670 C 62.0483 5.11154 1.44551 0
M  V30 671 C 61.0873 6.08015 0.70599 0
M  V30 672 N 60.2243 6.82376 1.65251 0
M  V30 673 H 65.0643 2.92727 -0.558127 0
M  V30 674 H 62.6013 1.44272 -0.287056 0
M  V30 675 H 64.5593 3.77711 1.77172 0
M  V30 676 H 63.1893 2.63916 1.85872 0
M  V30 677 H 62.2413 3.79458 -0.267594 0
M  V30 678 H 63.5533 4.98626 -0.131686 0
M  V30 679 H 62.7073 5.68533 2.11791 0
M  V30 680 H 61.4463 4.42158 2.05786 0
M  V30 681 H 60.4513 5.49796 0.0197725 0
M  V30 682 H 61.6763 6.79028 0.09912 0
M  V30 683 H 59.6223 6.16094 2.25308 0
M  V30 684 H 59.5393 7.47556 1.12673 0
M  V30 685 H 60.8073 7.44316 2.31546 0
M  V30 686 N 65.0364 0.313813 1.54444 0
M  V30 687 C 65.9844 -0.572171 2.25453 0
M  V30 688 C 66.9784 -1.12657 1.2651 0
M  V30 689 O 68.1844 -1.07573 1.44319 0
M  V30 690 H 64.5594 -0.203146 0.724041 0
M  V30 691 H 66.5304 0.0491145 2.9836 0
M  V30 692 C 65.2794 -1.72626 3.0182 0
M  V30 693 H 64.6024 -1.30891 3.77767 0
M  V30 694 H 66.0424 -2.32199 3.54767 0
M  V30 695 C 64.5014 -2.63806 2.09542 0
M  V30 696 O 65.0314 -3.65256 1.67185 0
M  V30 697 N 63.2374 -2.31824 1.75232 0
M  V30 698 H 62.7844 -1.49368 2.09873 0
M  V30 699 H 62.7424 -2.93095 1.13767 0
M  V30 700 N 66.5145 -1.57545 0.0417849 0
M  V30 701 C 67.4445 -2.14009 -0.933929 0
M  V30 702 C 68.4255 -1.05938 -1.33083 0
M  V30 703 O 69.6105 -1.33833 -1.40721 0
M  V30 704 C 66.7405 -2.67747 -2.21199 0
M  V30 705 C 65.6945 -3.80718 -1.95544 0
M  V30 706 C 65.0205 -4.20935 -3.29724 0
M  V30 707 C 66.3205 -5.06258 -1.28452 0
M  V30 708 H 68.0145 -2.95788 -0.463645 0
M  V30 709 H 65.5605 -1.42285 -0.221573 0
M  V30 710 H 67.5135 -3.05886 -2.89848 0
M  V30 711 H 66.2375 -1.83147 -2.70416 0
M  V30 712 H 64.8965 -3.43037 -1.2931 0
M  V30 713 H 64.5445 -3.33298 -3.76724 0
M  V30 714 H 64.2445 -4.9707 -3.13361 0
M  V30 715 H 65.7685 -4.61666 -3.9962 0
M  V30 716 H 67.1825 -5.41903 -1.8712 0
M  V30 717 H 65.5795 -5.87475 -1.22445 0
M  V30 718 H 66.6495 -4.84207 -0.259219 0
M  V30 719 N 67.9926 0.231505 -1.5589 0
M  V30 720 C 69.4086 0.580748 -1.48659 0
M  V30 721 C 69.6086 1.87617 -0.73498 0
M  V30 722 O 68.6646 2.51046 -0.270586 0
M  V30 723 C 69.9776 0.669202 -2.93159 0
M  V30 724 C 71.5256 0.760499 -3.03621 0
M  V30 725 C 72.0006 0.880383 -4.49459 0
M  V30 726 N 73.4916 0.944861 -4.53461 0
M  V30 727 C 74.2266 1.05716 -5.63571 0
M  V30 728 N 73.7226 1.13403 -6.83456 0
M  V30 729 N 75.5156 1.09152 -5.514 0
M  V30 730 H 67.6666 -0.618695 -2.03189 0
M  V30 731 H 69.9296 -0.215728 -0.923128 0
M  V30 732 H 69.6356 -0.212904 -3.51055 0
M  V30 733 H 69.5096 1.5361 -3.44505 0
M  V30 734 H 71.8966 1.63305 -2.45796 0
M  V30 735 H 71.9776 -0.131864 -2.5546 0
M  V30 736 H 71.6216 0.0123284 -5.07899 0
M  V30 737 H 71.5516 1.78802 -4.95316 0
M  V30 738 H 74.0426 0.896176 -3.6712 0
M  V30 739 H 74.3556 1.21921 -7.63122 0
M  V30 740 H 72.7006 1.10333 -6.86186 0
M  V30 741 H 75.8916 1.02805 -4.56671 0
M  V30 742 H 76.0646 1.17558 -6.37247 0
M  V30 743 N 69.4707 1.49531 0.497807 0
M  V30 744 C 70.4207 1.62829 1.59596 0
M  V30 745 C 71.4047 0.483824 1.53453 0
M  V30 746 O 72.5967 0.736937 1.60929 0
M  V30 747 C 69.7257 1.7011 2.98191 0
M  V30 748 C 68.8117 2.90144 3.09317 0
M  V30 749 N 69.2027 4.1418 2.90324 0
M  V30 750 C 67.5007 2.88148 3.40422 0
M  V30 751 C 68.2017 4.94886 3.05717 0
M  V30 752 N 67.1777 4.28314 3.34736 0
M  V30 753 H 70.9797 2.56446 1.4357 0
M  V30 754 H 68.4937 1.46347 0.704001 0
M  V30 755 H 70.4907 1.77735 3.77115 0
M  V30 756 H 69.1507 0.776315 3.15283 0
M  V30 757 H 70.1617 4.44109 2.66436 0
M  V30 758 H 66.8387 2.05061 3.63671 0
M  V30 759 H 68.2287 6.03432 2.95499 0
M  V30 760 N 70.9488 -0.749086 1.3866 0
M  V30 761 C 72.3648 -1.05276 1.19955 0
M  V30 762 C 72.5648 -2.01435 0.05134 0
M  V30 763 O 71.6208 -2.45232 -0.60147 0
M  V30 764 C 72.9338 -1.62853 2.52783 0
M  V30 765 C 74.4818 -1.75002 2.59506 0
M  V30 766 C 74.9568 -2.35991 3.92521 0
M  V30 767 N 76.4478 -2.43416 3.94085 0
M  V30 768 C 77.1828 -2.91511 4.9377 0
M  V30 769 N 76.6788 -3.39608 6.03853 0
M  V30 770 N 78.4718 -2.90592 4.81157 0
M  V30 771 H 70.6228 -0.111066 2.12109 0
M  V30 772 H 72.8858 -0.111901 0.941373 0
M  V30 773 H 72.5918 -0.99664 3.37283 0
M  V30 774 H 72.4658 -2.61854 2.715 0
M  V30 775 H 74.8528 -2.37317 1.75398 0
M  V30 776 H 74.9338 -0.74693 2.44652 0
M  V30 777 H 74.5778 -1.74308 4.77053 0
M  V30 778 H 74.5078 -3.3695 4.04688 0
M  V30 779 H 76.9988 -2.09405 3.14576 0
M  V30 780 H 77.3118 -3.74775 6.75843 0
M  V30 781 H 75.6568 -3.37653 6.07466 0
M  V30 782 H 78.8478 -2.52332 3.94267 0
M  V30 783 H 79.0208 -3.27762 5.58996 0
M  V30 784 N 72.4269 -1.23603 -0.977757 0
M  V30 785 C 73.6519 -1.09735 -1.75991 0
M  V30 786 C 74.0769 0.346858 -1.84874 0
M  V30 787 O 73.4349 1.25093 -1.3123 0
M  V30 788 C 73.4829 -1.73051 -3.16363 0
M  V30 789 O 72.5869 -0.994452 -4.0023 0
M  V30 790 H 71.9279 -0.384476 -0.541364 0
M  V30 791 H 74.4579 -1.6371 -1.2272 0
M  V30 792 H 74.4679 -1.78398 -3.66931 0
M  V30 793 H 73.1429 -2.78137 -3.09213 0
M  V30 794 H 71.7199 -1.01812 -3.58732 0
M  V30 795 N 73.905 1.17692 -1.04816 0
M  V30 796 C 75.13 1.92327 -0.776207 0
M  V30 797 C 75.555 1.76082 0.661581 0
M  V30 798 O 74.913 1.076 1.45917 0
M  V30 799 C 74.961 3.41539 -1.15687 0
M  V30 800 O 74.065 4.11402 -0.286775 0
M  V30 801 H 73.406 0.599735 -0.284981 0
M  V30 802 H 75.936 1.49201 -1.4 0
M  V30 803 H 75.946 3.92269 -1.12202 0
M  V30 804 H 74.621 3.52684 -2.20425 0
M  V30 805 H 73.198 3.70939 -0.381903 0
M  V30 806 N 75.3831 0.828654 1.34056 0
M  V30 807 C 76.6131 0.431993 2.02033 0
M  V30 808 C 77.0211 -0.96844 1.62536 0
M  V30 809 O 76.3641 -1.6391 0.829408 0
M  V30 810 C 76.4261 0.461224 3.56529 0
M  V30 811 C 76.0901 1.81599 4.1937 0
M  V30 812 C 77.0871 2.7777 4.39477 0
M  V30 813 C 74.7721 2.10604 4.56017 0
M  V30 814 C 76.7661 4.01115 4.95364 0
M  V30 815 C 74.4531 3.34207 5.11614 0
M  V30 816 C 75.4511 4.2928 5.31232 0
M  V30 817 O 75.1391 5.50699 5.8565 0
M  V30 818 H 74.8711 0.170943 0.654029 0
M  V30 819 H 77.4251 1.11988 1.72185 0
M  V30 820 H 75.6551 -0.283388 3.8566 0
M  V30 821 H 77.3441 0.0838149 4.05813 0
M  V30 822 H 78.1101 2.56659 4.11523 0
M  V30 823 H 73.9891 1.37402 4.40047 0
M  V30 824 H 77.5331 4.75333 5.10592 0
M  V30 825 H 73.4301 3.55179 5.38997 0
M  V30 826 H 74.1981 5.52298 6.04077 0
M  V30 827 N 76.8612 -1.46375 0.584142 0
M  V30 828 C 78.1082 -2.02378 0.0702675 0
M  V30 829 C 78.4362 -1.45545 -1.29023 0
M  V30 830 O 77.6912 -0.610967 -1.85918 0
M  V30 831 C 77.9902 -3.57373 -0.0439342 0
M  V30 832 C 77.6562 -4.33252 1.24915 0
M  V30 833 C 76.3182 -4.53701 1.60341 0
M  V30 834 C 78.6702 -4.7681 2.1048 0
M  V30 835 C 75.9982 -5.1496 2.81128 0
M  V30 836 C 78.3502 -5.39404 3.30494 0
M  V30 837 C 77.0142 -5.5808 3.66201 0
M  V30 838 H 76.2842 -0.740554 0.0257127 0
M  V30 839 H 78.9312 -1.75727 0.761065 0
M  V30 840 H 77.2362 -3.83169 -0.817869 0
M  V30 841 H 78.9332 -3.98384 -0.457318 0
M  V30 842 H 75.5232 -4.17633 0.963364 0
M  V30 843 H 79.7072 -4.60766 1.84414 0
M  V30 844 H 74.9632 -5.27611 3.08928 0
M  V30 845 H 79.1372 -5.72114 3.97063 0
M  V30 846 H 76.7642 -6.05318 4.59885 0
M  V30 847 N 78.3393 -0.321999 -1.54275 0
M  V30 848 C 79.5863 0.281044 -2.0054 0
M  V30 849 C 79.9143 1.52265 -1.21019 0
M  V30 850 O 79.1693 1.93687 -0.279982 0
M  V30 851 C 79.4683 0.661769 -3.5122 0
M  V30 852 C 79.1343 -0.480482 -4.48333 0
M  V30 853 C 77.7963 -0.794005 -4.74604 0
M  V30 854 C 80.1483 -1.24783 -5.06042 0
M  V30 855 C 77.4763 -1.87763 -5.55844 0
M  V30 856 C 79.8283 -2.32153 -5.88462 0
M  V30 857 C 78.4923 -2.64089 -6.13036 0
M  V30 858 H 77.7623 0.102841 -0.733829 0
M  V30 859 H 80.4093 -0.445453 -1.86247 0
M  V30 860 H 78.7143 1.46867 -3.63232 0
M  V30 861 H 80.4113 1.13989 -3.84457 0
M  V30 862 H 77.0013 -0.226039 -4.28004 0
M  V30 863 H 81.1853 -1.01887 -4.85729 0
M  V30 864 H 76.4413 -2.12954 -5.73115 0
M  V30 865 H 80.6153 -2.92057 -6.32199 0
M  V30 866 H 78.2423 -3.48185 -6.75775 0
M  V30 867 N 79.8174 1.5752 -0.0501392 0
M  V30 868 C 80.7474 2.14502 0.922566 0
M  V30 869 C 81.7284 1.06642 1.3252 0
M  V30 870 O 82.9134 1.34577 1.4001 0
M  V30 871 C 80.0434 2.68916 2.19776 0
M  V30 872 C 78.9974 3.8175 1.93523 0
M  V30 873 C 78.3234 4.22677 3.27487 0
M  V30 874 C 79.6234 5.06932 1.25765 0
M  V30 875 H 81.3174 2.9603 0.447952 0
M  V30 876 H 78.8634 1.42401 0.214024 0
M  V30 877 H 80.8164 3.07419 2.88222 0
M  V30 878 H 79.5404 1.84578 2.69441 0
M  V30 879 H 78.1994 3.43718 1.27489 0
M  V30 880 H 77.8474 3.35291 3.74952 0
M  V30 881 H 77.5474 4.98725 3.1072 0
M  V30 882 H 79.0714 4.63779 3.97166 0
M  V30 883 H 80.4854 5.42888 1.84244 0
M  V30 884 H 78.8824 5.88116 1.19328 0
M  V30 885 H 79.9524 4.84337 0.233536 0
M  V30 886 N 81.2955 -0.223234 1.56011 0
M  V30 887 C 82.2435 -1.29627 1.93131 0
M  V30 888 C 83.2375 -1.48608 0.813146 0
M  V30 889 O 84.4435 -1.49802 0.997966 0
M  V30 890 H 80.8185 -0.434563 0.613726 0
M  V30 891 H 82.7895 -0.955995 2.82672 0
M  V30 892 C 81.5385 -2.63983 2.26292 0
M  V30 893 H 80.8615 -2.50185 3.11846 0
M  V30 894 H 82.3015 -3.3788 2.56151 0
M  V30 895 C 80.7605 -3.18866 1.08747 0
M  V30 896 O 81.2905 -4.00192 0.347727 0
M  V30 897 N 79.4965 -2.77217 0.871743 0
M  V30 898 H 79.0435 -2.1119 1.47501 0
M  V30 899 H 79.0015 -3.1428 0.0869905 0
M  V30 900 N 82.7736 -1.49793 -0.48987 0
M  V30 901 C 83.7036 -1.70201 -1.59856 0
M  V30 902 C 84.6846 -0.55076 -1.60937 0
M  V30 903 O 85.8696 -0.787841 -1.77501 0
M  V30 904 C 82.9996 -1.77882 -2.98287 0
M  V30 905 C 81.9536 -2.92907 -3.12073 0
M  V30 906 C 81.2796 -2.85712 -4.51965 0
M  V30 907 C 82.5796 -4.3369 -2.91051 0
M  V30 908 H 84.2736 -2.63025 -1.43032 0
M  V30 909 H 81.8196 -1.26574 -0.686664 0
M  V30 910 H 83.7726 -1.90744 -3.75759 0
M  V30 911 H 82.4966 -0.816653 -3.16225 0
M  V30 912 H 81.1556 -2.79665 -2.37029 0
M  V30 913 H 80.8036 -1.8738 -4.66795 0
M  V30 914 H 80.5036 -3.62921 -4.62128 0
M  V30 915 H 82.0276 -3.00598 -5.31482 0
M  V30 916 H 83.4416 -4.47555 -3.58284 0
M  V30 917 H 81.8386 -5.12205 -3.12675 0
M  V30 918 H 82.9086 -4.47362 -1.87071 0
M  V30 919 N 84.2517 0.741722 -1.39055 0
M  V30 920 C 85.2147 1.83733 -1.37021 0
M  V30 921 C 86.2147 1.58542 -0.268534 0
M  V30 922 O 87.4047 1.66067 -0.526076 0
M  V30 923 C 84.5367 3.2141 -1.13617 0
M  V30 924 H 85.7297 1.86941 -2.34506 0
M  V30 925 H 83.2827 0.944676 -1.24521 0
M  V30 926 H 84.0177 3.23865 -0.167863 0
M  V30 927 H 83.8027 3.4109 -1.93391 0
M  V30 928 H 85.2927 4.01477 -1.14918 0
M  V30 929 N 85.7298 1.2412 0.971189 0
M  V30 930 C 86.9788 1.07284 1.70801 0
M  V30 931 C 87.2918 -0.388902 1.91695 0
M  V30 932 O 88.4978 -0.677379 2.62914 0
M  V30 933 C 86.9538 1.87145 3.07416 0
M  V30 934 C 86.5618 3.37707 2.94377 0
M  V30 935 C 88.3058 1.78828 3.84995 0
M  V30 936 C 86.2128 4.09925 4.26281 0
M  V30 937 H 85.1428 0.397854 0.64049 0
M  V30 938 H 87.7938 1.4817 1.0825 0
M  V30 939 H 86.1758 1.39071 3.70777 0
M  V30 940 H 87.3498 3.93335 2.4005 0
M  V30 941 H 85.6648 3.46938 2.30267 0
M  V30 942 H 88.2618 2.30089 4.82662 0
M  V30 943 H 88.6048 0.75284 4.09436 0
M  V30 944 H 89.1378 2.24563 3.28354 0
M  V30 945 H 85.8768 5.13813 4.07033 0
M  V30 946 H 85.3968 3.59083 4.80437 0
M  V30 947 H 87.0758 4.1673 4.94919 0
M  V30 948 N 87.2079 -1.17134 1.05439 0
M  V30 949 C 88.4329 -1.91913 0.786396 0
M  V30 950 C 88.8579 -1.7643 -0.652234 0
M  V30 951 O 88.2159 -1.08372 -1.45345 0
M  V30 952 C 88.2639 -3.40921 1.17497 0
M  V30 953 O 87.3679 -4.11244 0.308589 0
M  V30 954 H 86.7089 -0.598215 0.288158 0
M  V30 955 H 89.2389 -1.48457 1.4079 0
M  V30 956 H 89.2489 -3.91668 1.14281 0
M  V30 957 H 87.9239 -3.5151 2.22292 0
M  V30 958 H 86.5009 -3.70731 0.40157 0
M  V30 959 N 88.686 -0.835752 -1.33615 0
M  V30 960 C 89.963 -0.352017 -1.92406 0
M  V30 961 C 90.343 1.16225 -1.76224 0
M  V30 962 O 89.691 1.97526 -1.14873 0
M  V30 963 C 89.901 -0.795485 -3.39813 0
M  V30 964 C 91.249 -0.801703 -4.16963 0
M  V30 965 O 92.273 -0.738889 -3.48452 0
M  V30 966 O 91.132 -0.886607 -5.3926 0
M  V30 967 H 88.226 -0.0989641 -0.821057 0
M  V30 968 H 90.772 -0.921397 -1.42507 0
M  V30 969 H 89.544 -1.83795 -3.45449 0
M  V30 970 H 89.167 -0.202505 -3.97084 0
M  V30 971 N 90.1641 1.46063 -0.591896 0
M  V30 972 C 91.4111 2.02338 -0.0809991 0
M  V30 973 C 91.7391 1.46228 1.28249 0
M  V30 974 O 90.9941 0.620818 1.85592 0
M  V30 975 C 91.2931 3.57391 0.0249813 0
M  V30 976 C 90.9591 4.32583 -1.27211 0
M  V30 977 C 89.6211 4.52844 -1.62745 0
M  V30 978 C 91.9731 4.75687 -2.13005 0
M  V30 979 C 89.3011 5.13462 -2.83855 0
M  V30 980 C 91.6531 5.37644 -3.3335 0
M  V30 981 C 90.3171 5.5613 -3.69155 0
M  V30 982 H 89.5871 0.740407 -0.0296397 0
M  V30 983 H 92.2341 1.75321 -0.770374 0
M  V30 984 H 90.5391 3.83597 0.797537 0
M  V30 985 H 92.2361 3.98621 0.436184 0
M  V30 986 H 88.8261 4.17116 -0.985499 0
M  V30 987 H 93.0101 4.59782 -1.86855 0
M  V30 988 H 88.2661 5.25965 -3.11722 0
M  V30 989 H 92.4401 5.7 -4.00092 0
M  V30 990 H 90.0671 6.0287 -4.63089 0
M  V30 991 N 91.6422 0.330177 1.54103 0
M  V30 992 C 92.8892 -0.270405 2.00686 0
M  V30 993 C 93.2172 -1.51621 1.21825 0
M  V30 994 O 92.4722 -1.93536 0.29025 0
M  V30 995 C 92.7712 -0.643134 3.51566 0
M  V30 996 C 92.4372 0.504251 4.48072 0
M  V30 997 C 91.0992 0.819163 4.74176 0
M  V30 998 C 93.4512 1.27465 5.05373 0
M  V30 999 C 90.7792 1.90708 5.5484 0
M  V30 1000 C 93.1312 2.35271 5.87223 0
M  V30 1001 C 91.7952 2.67336 6.11627 0
M  V30 1002 H 91.0652 -0.0989482 0.734364 0
M  V30 1003 H 93.7122 0.455324 1.86008 0
M  V30 1004 H 92.0172 -1.44938 3.64006 0
M  V30 1005 H 93.7142 -1.11949 3.85056 0
M  V30 1006 H 90.3042 0.248733 4.27878 0
M  V30 1007 H 94.4882 1.04462 4.85182 0
M  V30 1008 H 89.7442 2.15991 5.71977 0
M  V30 1009 H 93.9182 2.95405 6.30641 0
M  V30 1010 H 91.5452 3.51763 6.73919 0
M  V30 1011 N 93.1203 -1.57491 0.0584922 0
M  V30 1012 C 94.3663 -1.93264 -0.614558 0
M  V30 1013 C 94.6993 -0.937717 -1.7006 0
M  V30 1014 O 93.9743 0.0351652 -1.94468 0
M  V30 1015 C 94.2573 -3.3938 -1.20386 0
M  V30 1016 C 94.1103 -4.49625 -0.125375 0
M  V30 1017 C 95.4293 -3.86039 -2.11334 0
M  V30 1018 H 92.5483 -0.702791 -0.221933 0
M  V30 1019 H 95.1903 -1.8961 0.12175 0
M  V30 1020 H 93.3403 -3.42626 -1.83139 0
M  V30 1021 H 95.0123 -4.58506 0.506971 0
M  V30 1022 H 93.2553 -4.30354 0.545672 0
M  V30 1023 H 93.9263 -5.48967 -0.577861 0
M  V30 1024 H 96.4023 -3.84716 -1.58534 0
M  V30 1025 H 95.2783 -4.88914 -2.49507 0
M  V30 1026 H 95.5393 -3.23215 -3.01636 0
M  V30 1027 N 94.5984 0.214957 -1.56127 0
M  V30 1028 C 95.8464 0.936518 -1.79091 0
M  V30 1029 C 96.1674 1.84606 -0.628148 0
M  V30 1030 O 95.4374 1.92664 0.35462 0
M  V30 1031 H 94.0174 0.3488 -0.660566 0
M  V30 1032 H 96.6794 0.22523 -1.93594 0
M  V30 1033 H 95.7754 1.53943 -2.71492 0
M  V30 1034 N 96.0765 1.50051 0.48192 0
M  V30 1035 C 97.3225 1.60736 1.2366 0
M  V30 1036 C 97.6555 0.301786 1.91841 0
M  V30 1037 O 96.9305 -0.696025 1.8162 0
M  V30 1038 C 97.2135 2.78009 2.28874 0
M  V30 1039 C 97.0665 4.18416 1.65069 0
M  V30 1040 C 98.3855 2.90867 3.30279 0
M  V30 1041 H 95.5045 0.585031 0.448228 0
M  V30 1042 H 98.1465 1.82402 0.531946 0
M  V30 1043 H 96.2965 2.59667 2.88973 0
M  V30 1044 H 97.9685 4.48322 1.0865 0
M  V30 1045 H 96.2115 4.23177 0.954148 0
M  V30 1046 H 96.8825 4.96381 2.41474 0
M  V30 1047 H 99.3585 3.07623 2.80191 0
M  V30 1048 H 98.2345 3.74566 4.01238 0
M  V30 1049 H 98.4955 2.01021 3.93755 0
M  V30 1050 N 97.5546 -0.734337 1.39446 0
M  V30 1051 C 98.8036 -1.48937 1.36017 0
M  V30 1052 C 99.1166 -1.95557 -0.0409005 0
M  V30 1053 O 100.323 -2.70779 -0.19778 0
M  V30 1054 C 98.7786 -2.69125 2.38955 0
M  V30 1055 C 98.3866 -2.29452 3.8478 0
M  V30 1056 C 100.131 -3.46944 2.44603 0
M  V30 1057 C 98.0376 -3.46366 4.79358 0
M  V30 1058 H 96.9676 -0.559296 0.505672 0
M  V30 1059 H 99.6186 -0.800983 1.65095 0
M  V30 1060 H 98.0006 -3.40041 2.02948 0
M  V30 1061 H 99.1746 -1.66077 4.29831 0
M  V30 1062 H 97.4896 -1.64723 3.82433 0
M  V30 1063 H 100.087 -4.33907 3.12456 0
M  V30 1064 H 100.43 -3.89454 1.47076 0
M  V30 1065 H 100.963 -2.83056 2.79507 0
M  V30 1066 H 97.7016 -3.08905 5.78151 0
M  V30 1067 H 97.2216 -4.08719 4.38986 0
M  V30 1068 H 98.9006 -4.12691 4.98292 0
M  V30 1069 N 99.0327 -1.24633 -0.964593 0
M  V30 1070 C 100.258 -1.11596 -1.74818 0
M  V30 1071 C 100.683 0.32723 -1.85232 0
M  V30 1072 O 100.041 1.23695 -1.32549 0
M  V30 1073 C 100.089 -1.76397 -3.1451 0
M  V30 1074 O 99.1927 -1.03685 -3.99153 0
M  V30 1075 H 98.5337 -0.390196 -0.537255 0
M  V30 1076 H 101.064 -1.65002 -1.20977 0
M  V30 1077 H 101.074 -1.8228 -3.65018 0
M  V30 1078 H 99.7487 -2.81401 -3.06246 0
M  V30 1079 H 98.3257 -1.05611 -3.57632 0
M  V30 1080 N 100.511 1.16574 -1.06058 0
M  V30 1081 C 101.76 1.86385 -0.770944 0
M  V30 1082 C 102.073 1.82448 0.705129 0
M  V30 1083 O 103.279 2.47815 1.10905 0
M  V30 1084 C 101.735 3.34466 -1.32893 0
M  V30 1085 C 101.343 3.46883 -2.83507 0
M  V30 1086 C 103.087 4.09548 -1.11672 0
M  V30 1087 C 100.994 4.89036 -3.32562 0
M  V30 1088 H 99.9238 0.698181 -0.284709 0
M  V30 1089 H 102.575 1.31583 -1.27899 0
M  V30 1090 H 100.957 3.88859 -0.748662 0
M  V30 1091 H 102.131 3.02663 -3.47465 0
M  V30 1092 H 100.446 2.85232 -3.03368 0
M  V30 1093 H 103.043 5.14434 -1.45814 0
M  V30 1094 H 103.386 4.16264 -0.0549535 0
M  V30 1095 H 103.919 3.61387 -1.66265 0
M  V30 1096 H 100.658 4.87499 -4.38207 0
M  V30 1097 H 100.178 5.3389 -2.73351 0
M  V30 1098 H 101.857 5.57843 -3.2775 0
M  V30 1099 N 101.989 0.842826 1.3317 0
M  V30 1100 C 103.4 0.496651 1.79973 0
M  V30 1101 C 103.751 -0.984641 1.69703 0
M  V30 1102 O 102.876 -1.76743 1.24863 0
M  V30 1103 C 103.471 0.894727 3.26772 0
M  V30 1104 C 102.03 0.600629 3.71577 0
M  V30 1105 C 101.177 1.10091 2.5451 0
M  V30 1106 H 104.128 1.03116 1.20635 0
M  V30 1107 H 104.149 0.206347 3.7994 0
M  V30 1108 H 103.661 1.97287 3.34215 0
M  V30 1109 H 101.762 -0.467284 3.69658 0
M  V30 1110 H 101.875 1.15863 4.64879 0
M  V30 1111 H 100.239 0.52162 2.49301 0
M  V30 1112 H 101.022 2.18591 2.64713 0
M  V30 1113 N 103.467 -1.45747 0.599634 0
M  V30 1114 C 104.397 -2.33235 -0.111306 0
M  V30 1115 C 105.378 -1.46359 -0.866781 0
M  V30 1116 O 106.563 -1.75146 -0.838904 0
M  V30 1117 C 103.693 -3.28932 -1.11451 0
M  V30 1118 C 102.647 -4.25381 -0.472772 0
M  V30 1119 C 101.973 -5.1071 -1.58365 0
M  V30 1120 C 103.273 -5.18831 0.600948 0
M  V30 1121 H 104.967 -2.92927 0.61919 0
M  V30 1122 H 102.513 -1.40857 0.299215 0
M  V30 1123 H 104.466 -3.89002 -1.62036 0
M  V30 1124 H 103.19 -2.67381 -1.8755 0
M  V30 1125 H 101.849 -3.66598 0.0121472 0
M  V30 1126 H 101.497 -4.45533 -2.33473 0
M  V30 1127 H 101.197 -5.7604 -1.15982 0
M  V30 1128 H 102.721 -5.73647 -2.09194 0
M  V30 1129 H 104.135 -5.73019 0.179491 0
M  V30 1130 H 102.532 -5.92595 0.946076 0
M  V30 1131 H 103.602 -4.6174 1.48068 0
M  V30 1132 N 104.945 -0.338344 -1.53925 0
M  V30 1133 C 106.175 0.260919 -2.04946 0
M  V30 1134 C 106.583 1.45174 -1.2133 0
M  V30 1135 O 105.926 1.82122 -0.240262 0
M  V30 1136 C 105.988 0.744596 -3.51704 0
M  V30 1137 C 105.652 -0.325883 -4.55837 0
M  V30 1138 C 106.649 -1.16687 -5.06636 0
M  V30 1139 C 104.334 -0.478317 -5.00017 0
M  V30 1140 C 106.328 -2.14588 -6.00192 0
M  V30 1141 C 104.015 -1.46073 -5.93385 0
M  V30 1142 C 105.013 -2.29297 -6.4336 0
M  V30 1143 O 104.701 -3.25867 -7.34892 0
M  V30 1144 H 104.433 0.0551207 -0.673749 0
M  V30 1145 H 106.987 -0.486984 -1.99544 0
M  V30 1146 H 105.217 1.54366 -3.54553 0
M  V30 1147 H 106.906 1.26383 -3.85723 0
M  V30 1148 H 107.672 -1.06016 -4.73271 0
M  V30 1149 H 103.551 0.159613 -4.60724 0
M  V30 1150 H 107.095 -2.79585 -6.39123 0
M  V30 1151 H 102.992 -1.56802 -6.26166 0
M  V30 1152 H 103.76 -3.21278 -7.5281 0
M  V30 1153 N 106.423 1.57458 -0.0668435 0
M  V30 1154 C 107.672 1.92477 0.602947 0
M  V30 1155 C 107.985 0.948419 1.71068 0
M  V30 1156 O 109.191 1.19124 2.43971 0
M  V30 1157 C 107.647 3.41903 1.12383 0
M  V30 1158 C 107.255 4.47975 0.04737 0
M  V30 1159 C 108.999 3.85931 1.76797 0
M  V30 1160 C 106.906 5.88529 0.582022 0
M  V30 1161 H 105.836 0.718387 0.22899 0
M  V30 1162 H 108.487 1.82978 -0.138276 0
M  V30 1163 H 106.869 3.46459 1.91787 0
M  V30 1164 H 108.043 4.55029 -0.726978 0
M  V30 1165 H 106.358 4.13384 -0.500243 0
M  V30 1166 H 108.955 4.88322 2.17821 0
M  V30 1167 H 109.298 3.23029 2.62599 0
M  V30 1168 H 109.831 3.83958 1.04024 0
M  V30 1169 H 106.57 6.55065 -0.238721 0
M  V30 1170 H 106.09 5.85004 1.324 0
M  V30 1171 H 107.769 6.38258 1.05999 0
M  V30 1172 N 107.901 -0.206675 1.56239 0
M  V30 1173 C 109.312 -0.772383 1.69974 0
M  V30 1174 C 109.663 -1.84353 0.671436 0
M  V30 1175 O 108.788 -2.15695 -0.174491 0
M  V30 1176 C 109.383 -1.40779 3.08167 0
M  V30 1177 C 107.942 -1.92072 3.23706 0
M  V30 1178 C 107.089 -0.786347 2.65917 0
M  V30 1179 H 110.04 0.0182223 1.5869 0
M  V30 1180 H 110.061 -2.27696 3.04852 0
M  V30 1181 H 109.573 -0.627958 3.82986 0
M  V30 1182 H 107.674 -2.7281 2.53782 0
M  V30 1183 H 107.787 -2.09046 4.31087 0
M  V30 1184 H 106.151 -1.1976 2.24788 0
M  V30 1185 H 106.934 -0.0189416 3.43295 0
M  V30 1186 N 109.379 -1.50304 -0.473955 0
M  V30 1187 C 110.329 -1.65347 -1.56985 0
M  V30 1188 C 111.313 -0.508176 -1.52664 0
M  V30 1189 O 112.505 -0.762446 -1.59737 0
M  V30 1190 C 109.634 -1.74832 -2.95447 0
M  V30 1191 C 108.72 -2.95028 -3.04662 0
M  V30 1192 N 109.111 -4.18747 -2.83698 0
M  V30 1193 C 107.409 -2.93527 -3.35795 0
M  V30 1194 C 108.11 -4.99687 -2.97805 0
M  V30 1195 N 107.086 -4.33585 -3.2788 0
M  V30 1196 H 110.888 -2.58698 -1.39472 0
M  V30 1197 H 108.402 -1.47449 -0.680629 0
M  V30 1198 H 110.399 -1.83712 -3.7424 0
M  V30 1199 H 109.059 -0.826376 -3.14008 0
M  V30 1200 H 110.07 -4.48291 -2.59337 0
M  V30 1201 H 106.747 -2.10821 -3.60362 0
M  V30 1202 H 108.137 -6.08057 -2.85861 0
M  V30 1203 N 110.857 0.726932 -1.39834 0
M  V30 1204 C 112.085 1.51613 -1.40787 0
M  V30 1205 C 112.5 1.88799 -0.00451505 0
M  V30 1206 O 111.857 1.54662 0.968809 0
M  V30 1207 C 111.908 2.79863 -2.28821 0
M  V30 1208 O 111.629 2.44253 -3.63692 0
M  V30 1209 C 113.13 3.73837 -2.38245 0
M  V30 1210 H 110.35 0.468264 -0.480593 0
M  V30 1211 H 112.894 0.897607 -1.83748 0
M  V30 1212 H 111.049 3.38027 -1.89252 0
M  V30 1213 H 111.463 3.26695 -4.1033 0
M  V30 1214 H 112.937 4.60699 -3.04073 0
M  V30 1215 H 113.414 4.16153 -1.40403 0
M  V30 1216 H 114.02 3.21589 -2.78317 0
M  V30 1217 N 112.336 1.25143 0.95797 0
M  V30 1218 C 113.266 1.07711 2.07173 0
M  V30 1219 C 114.247 -0.0128462 1.70095 0
M  V30 1220 O 115.432 0.156061 1.93572 0
M  V30 1221 C 112.562 0.691503 3.40346 0
M  V30 1222 C 111.516 1.73132 3.9142 0
M  V30 1223 C 110.842 1.20049 5.21049 0
M  V30 1224 C 112.142 3.1294 4.1817 0
M  V30 1225 H 113.836 2.00873 2.22014 0
M  V30 1226 H 111.382 0.967191 1.06684 0
M  V30 1227 H 113.335 0.556505 4.17709 0
M  V30 1228 H 112.059 -0.275819 3.25433 0
M  V30 1229 H 110.718 1.8547 3.16222 0
M  V30 1230 H 110.366 0.223499 5.02503 0
M  V30 1231 H 110.066 1.89545 5.56189 0
M  V30 1232 H 111.59 1.07782 6.01012 0
M  V30 1233 H 113.004 3.03775 4.86203 0
M  V30 1234 H 111.401 3.79875 4.64559 0
M  V30 1235 H 112.471 3.6025 3.24573 0
M  V30 1236 N 113.814 -1.1601 1.06675 0
M  V30 1237 C 115.061 -1.86633 0.785781 0
M  V30 1238 C 115.389 -1.81929 -0.687896 0
M  V30 1239 O 114.644 -1.23253 -1.52011 0
M  V30 1240 C 114.943 -3.35547 1.23057 0
M  V30 1241 C 114.609 -3.60448 2.70902 0
M  V30 1242 C 113.271 -3.66954 3.11285 0
M  V30 1243 C 115.623 -3.7071 3.66365 0
M  V30 1244 C 112.951 -3.81225 4.45965 0
M  V30 1245 C 115.303 -3.86503 5.00797 0
M  V30 1246 C 113.967 -3.91252 5.40813 0
M  V30 1247 H 113.237 -0.682937 0.287538 0
M  V30 1248 H 115.884 -1.37146 1.33654 0
M  V30 1249 H 114.189 -3.87193 0.59907 0
M  V30 1250 H 115.886 -3.88583 0.990163 0
M  V30 1251 H 112.476 -3.56021 2.38636 0
M  V30 1252 H 116.66 -3.64991 3.36296 0
M  V30 1253 H 111.916 -3.83155 4.76447 0
M  V30 1254 H 116.09 -3.93385 5.74649 0
M  V30 1255 H 113.717 -4.02062 6.45174 0
M  V30 1256 N 115.292 -0.849877 -1.32721 0
M  V30 1257 C 116.202 -0.293791 -2.32753 0
M  V30 1258 C 117.218 0.585906 -1.63839 0
M  V30 1259 O 118.394 0.487413 -1.95413 0
M  V30 1260 C 115.459 0.512752 -3.42887 0
M  V30 1261 C 114.52 -0.39252 -4.27502 0
M  V30 1262 C 113.753 0.375625 -5.32377 0
M  V30 1263 O 113.976 1.60613 -5.4732 0
M  V30 1264 O 112.91 -0.256094 -6.01355 0
M  V30 1265 H 116.736 -1.12242 -2.82197 0
M  V30 1266 H 114.321 -0.612685 -1.36259 0
M  V30 1267 H 116.203 0.970704 -4.10067 0
M  V30 1268 H 114.878 1.31826 -2.95641 0
M  V30 1269 H 113.785 -0.898547 -3.63149 0
M  V30 1270 H 115.118 -1.16309 -4.7826 0
M  V30 1271 N 116.77 1.45427 -0.607355 0
M  V30 1272 C 118.016 2.03097 -0.111035 0
M  V30 1273 C 118.371 1.46735 1.24445 0
M  V30 1274 O 117.664 0.632478 1.8086 0
M  V30 1275 C 117.858 3.57398 -0.0129263 0
M  V30 1276 C 117.687 4.28726 -1.35735 0
M  V30 1277 C 116.457 4.66659 -1.93798 0
M  V30 1278 C 118.655 4.60699 -2.28607 0
M  V30 1279 N 116.637 5.22845 -3.21723 0
M  V30 1280 C 118.008 5.17716 -3.41131 0
M  V30 1281 C 120.063 4.42638 -2.27982 0
M  V30 1282 C 118.766 5.58576 -4.53194 0
M  V30 1283 C 120.792 4.84531 -3.39093 0
M  V30 1284 C 120.154 5.4164 -4.50339 0
M  V30 1285 H 116.253 0.777476 -0.083994 0
M  V30 1286 H 118.837 1.77249 -0.805655 0
M  V30 1287 H 117.008 3.82907 0.650914 0
M  V30 1288 H 118.74 4.01722 0.490033 0
M  V30 1289 H 115.495 4.50207 -1.47007 0
M  V30 1290 H 115.919 5.55438 -3.87063 0
M  V30 1291 H 120.561 3.97798 -1.43235 0
M  V30 1292 H 118.279 6.02382 -5.38667 0
M  V30 1293 H 121.865 4.72289 -3.39757 0
M  V30 1294 H 120.745 5.73461 -5.34895 0
M  V30 1295 N 118.248 0.346503 1.53744 0
M  V30 1296 C 119.525 -0.304532 1.93215 0
M  V30 1297 C 119.905 -1.67993 1.27834 0
M  V30 1298 O 119.253 -2.24411 0.430352 0
M  V30 1299 C 119.463 -0.373852 3.46992 0
M  V30 1300 C 120.811 -0.62329 4.2 0
M  V30 1301 O 121.835 -0.455847 3.53271 0
M  V30 1302 O 120.694 -0.947879 5.38217 0
M  V30 1303 H 117.788 -0.178318 0.807547 0
M  V30 1304 H 120.334 0.397895 1.64969 0
M  V30 1305 H 119.106 0.591224 3.86808 0
M  V30 1306 H 118.729 -1.12294 3.81413 0
M  V30 1307 N 119.726 -1.57421 0.075193 0
M  V30 1308 C 120.973 -1.93618 -0.593146 0
M  V30 1309 C 121.301 -0.955484 -1.69413 0
M  V30 1310 O 120.556 0.0283251 -1.9568 0
M  V30 1311 C 120.855 -3.36428 -1.20626 0
M  V30 1312 C 120.521 -4.50307 -0.231078 0
M  V30 1313 C 119.183 -4.81186 0.0371936 0
M  V30 1314 C 121.535 -5.19374 0.435888 0
M  V30 1315 C 118.863 -5.78466 0.979461 0
M  V30 1316 C 121.215 -6.17665 1.3665 0
M  V30 1317 C 119.879 -6.46958 1.6432 0
M  V30 1318 H 119.149 -0.708499 -0.217047 0
M  V30 1319 H 121.796 -1.90937 0.146793 0
M  V30 1320 H 120.101 -3.35592 -2.02201 0
M  V30 1321 H 121.798 -3.61727 -1.73073 0
M  V30 1322 H 118.388 -4.26227 -0.450357 0
M  V30 1323 H 122.572 -4.95711 0.241748 0
M  V30 1324 H 117.828 -5.99487 1.20106 0
M  V30 1325 H 122.002 -6.70284 1.88924 0
M  V30 1326 H 119.629 -7.2215 2.37494 0
M  V30 1327 N 121.204 0.198386 -1.56346 0
M  V30 1328 C 122.452 0.91747 -1.80075 0
M  V30 1329 C 122.773 1.83929 -0.647692 0
M  V30 1330 O 122.043 1.93029 0.334166 0
M  V30 1331 H 120.623 0.341774 -0.664228 0
M  V30 1332 H 123.285 0.204684 -1.93822 0
M  V30 1333 H 122.381 1.51055 -2.7311 0
M  V30 1334 N 122.682 1.50554 0.465978 0
M  V30 1335 C 123.629 1.6979 1.56333 0
M  V30 1336 C 124.599 0.539239 1.57103 0
M  V30 1337 O 125.784 0.770401 1.74555 0
M  V30 1338 C 122.924 1.80273 2.94271 0
M  V30 1339 C 122.037 3.07674 3.0325 0
M  V30 1340 C 121.172 3.08922 4.32135 0
M  V30 1341 C 120.211 4.30755 4.34875 0
M  V30 1342 N 119.348 4.29714 5.55239 0
M  V30 1343 H 124.188 2.63472 1.39235 0
M  V30 1344 H 121.725 1.30602 0.676873 0
M  V30 1345 H 123.683 1.84332 3.74269 0
M  V30 1346 H 122.313 0.900258 3.09992 0
M  V30 1347 H 121.365 3.13062 2.16094 0
M  V30 1348 H 122.677 3.97642 3.01135 0
M  V30 1349 H 121.831 3.11738 5.20485 0
M  V30 1350 H 120.57 2.16792 4.36866 0
M  V30 1351 H 119.575 4.28146 3.44922 0
M  V30 1352 H 120.8 5.24117 4.31831 0
M  V30 1353 H 118.746 3.4044 5.60746 0
M  V30 1354 H 118.663 5.13456 5.54886 0
M  V30 1355 H 119.931 4.36683 6.457 0
M  V30 1356 N 124.16 -0.719506 1.40217 0
M  V30 1357 C 125.07 -1.86378 1.42479 0
M  V30 1358 C 126.086 -1.71073 0.317834 0
M  V30 1359 O 127.262 -1.93406 0.561794 0
M  V30 1360 C 124.327 -3.22136 1.28178 0
M  V30 1361 C 123.388 -3.49723 2.48982 0
M  V30 1362 C 122.621 -4.79004 2.35353 0
M  V30 1363 O 122.844 -5.53821 1.36524 0
M  V30 1364 O 121.778 -5.06839 3.2465 0
M  V30 1365 H 125.604 -1.87425 2.38968 0
M  V30 1366 H 123.189 -0.869405 1.21498 0
M  V30 1367 H 125.071 -4.03234 1.22395 0
M  V30 1368 H 123.746 -3.21825 0.347934 0
M  V30 1369 H 122.653 -2.6865 2.60342 0
M  V30 1370 H 123.986 -3.54828 3.41113 0
M  V30 1371 N 125.638 -1.25649 -0.95132 0
M  V30 1372 C 126.887 -1.09988 -1.69073 0
M  V30 1373 C 127.2 0.358355 -1.92289 0
M  V30 1374 O 128.406 0.635466 -2.63958 0
M  V30 1375 C 126.862 -1.92012 -3.044 0
M  V30 1376 C 126.47 -3.42347 -2.88968 0
M  V30 1377 C 128.214 -1.8493 -3.82101 0
M  V30 1378 C 126.121 -4.16655 -4.19705 0
M  V30 1379 H 125.051 -0.407993 -0.63408 0
M  V30 1380 H 127.702 -1.49873 -1.05879 0
M  V30 1381 H 126.084 -1.44952 -3.68517 0
M  V30 1382 H 127.258 -3.97104 -2.33762 0
M  V30 1383 H 125.573 -3.50557 -2.24719 0
M  V30 1384 H 128.17 -2.37739 -4.78941 0
M  V30 1385 H 128.513 -0.817883 -4.08187 0
M  V30 1386 H 129.046 -2.29758 -3.2474 0
M  V30 1387 H 125.785 -5.20224 -3.98807 0
M  V30 1388 H 125.305 -3.66681 -4.74663 0
M  V30 1389 H 126.984 -4.24551 -4.88227 0
M  V30 1390 N 127.117 1.15442 -1.07289 0
M  V30 1391 C 128.357 1.8788 -0.805012 0
M  V30 1392 C 128.721 1.80413 0.656907 0
M  V30 1393 O 129.922 2.47874 1.0398 0
M  V30 1394 C 128.193 3.3298 -1.29843 0
M  V30 1395 S 129.752 4.23158 -1.16114 0
M  V30 1396 H 126.57 0.64839 -0.291739 0
M  V30 1397 H 129.172 1.39285 -1.37186 0
M  V30 1398 H 127.876 3.35958 -2.35712 0
M  V30 1399 H 127.407 3.86629 -0.726767 0
M  V30 1400 H 129.422 4.96103 -0.0982778 0
M  V30 1401 N 128.595 0.856903 1.32268 0
M  V30 1402 C 129.841 0.462069 1.97466 0
M  V30 1403 C 130.174 -0.980298 1.67642 0
M  V30 1404 O 129.449 -1.68824 0.965858 0
M  V30 1405 C 129.732 0.704336 3.53145 0
M  V30 1406 C 129.585 2.19529 3.9259 0
M  V30 1407 C 130.904 0.1622 4.39801 0
M  V30 1408 H 128.023 0.169357 0.717278 0
M  V30 1409 H 130.665 1.07574 1.56614 0
M  V30 1410 H 128.815 0.181999 3.88073 0
M  V30 1411 H 130.487 2.78387 3.67829 0
M  V30 1412 H 128.73 2.67292 3.41668 0
M  V30 1413 H 129.401 2.31549 5.01088 0
M  V30 1414 H 131.877 0.608905 4.11621 0
M  V30 1415 H 130.753 0.361265 5.4771 0
M  V30 1416 H 131.014 -0.935158 4.32096 0
M  V30 1417 N 130.073 -1.45103 0.615059 0
M  V30 1418 C 131.32 -2.02183 0.113179 0
M  V30 1419 C 131.648 -1.48249 -1.25906 0
M  V30 1420 O 130.903 -0.650265 -1.84581 0
M  V30 1421 C 131.202 -3.57386 0.0318797 0
M  V30 1422 C 130.868 -4.30505 1.34077 0
M  V30 1423 C 129.53 -4.50197 1.69929 0
M  V30 1424 C 131.882 -4.72238 2.20546 0
M  V30 1425 C 129.21 -5.08881 2.91988 0
M  V30 1426 C 131.562 -5.32272 3.41861 0
M  V30 1427 C 130.226 -5.50187 3.77956 0
M  V30 1428 H 129.496 -0.739842 0.0414151 0
M  V30 1429 H 132.143 -1.74073 0.798168 0
M  V30 1430 H 130.448 -3.84817 -0.736409 0
M  V30 1431 H 132.145 -3.99264 -0.372712 0
M  V30 1432 H 128.735 -4.15496 1.05173 0
M  V30 1433 H 132.919 -4.56751 1.94146 0
M  V30 1434 H 128.175 -5.20939 3.2005 0
M  V30 1435 H 132.349 -5.63563 4.09109 0
M  V30 1436 H 129.976 -5.95427 4.72622 0
M  V30 1437 N 131.551 -0.354651 -1.53558 0
M  V30 1438 C 132.797 0.231422 -2.02079 0
M  V30 1439 C 133.152 1.47308 -1.23767 0
M  V30 1440 O 132.445 1.8891 -0.319947 0
M  V30 1441 C 132.639 0.587121 -3.52545 0
M  V30 1442 C 132.468 -0.618513 -4.45426 0
M  V30 1443 C 131.238 -1.12724 -4.92566 0
M  V30 1444 C 133.436 -1.48039 -4.92533 0
M  V30 1445 N 131.418 -2.29404 -5.69427 0
M  V30 1446 C 132.789 -2.49397 -5.67628 0
M  V30 1447 C 134.844 -1.50454 -4.74624 0
M  V30 1448 C 133.547 -3.53013 -6.26717 0
M  V30 1449 C 135.573 -2.52958 -5.34571 0
M  V30 1450 C 134.935 -3.5304 -6.09543 0
M  V30 1451 H 131.034 0.0476909 -0.780544 0
M  V30 1452 H 133.618 -0.496727 -1.88257 0
M  V30 1453 H 131.789 1.28436 -3.6655 0
M  V30 1454 H 133.521 1.15734 -3.87799 0
M  V30 1455 H 130.276 -0.693577 -4.68494 0
M  V30 1456 H 130.7 -2.88347 -6.12524 0
M  V30 1457 H 135.342 -0.744356 -4.16196 0
M  V30 1458 H 133.06 -4.2992 -6.84247 0
M  V30 1459 H 136.646 -2.55667 -5.22614 0
M  V30 1460 H 135.526 -4.31056 -6.55103 0
M  V30 1461 N 133.029 1.57378 -0.0835403 0
M  V30 1462 C 133.959 2.1641 0.87686 0
M  V30 1463 C 134.94 1.09429 1.30228 0
M  V30 1464 O 136.125 1.37516 1.37124 0
M  V30 1465 C 133.255 2.73517 2.14022 0
M  V30 1466 C 132.209 3.85769 1.85381 0
M  V30 1467 C 131.535 4.29529 3.18448 0
M  V30 1468 C 132.835 5.09486 1.14984 0
M  V30 1469 H 134.529 2.96914 0.385059 0
M  V30 1470 H 132.075 1.42823 0.18377 0
M  V30 1471 H 134.028 3.13463 2.81636 0
M  V30 1472 H 132.752 1.90252 2.65465 0
M  V30 1473 H 131.411 3.46345 1.20169 0
M  V30 1474 H 131.059 3.43169 3.67755 0
M  V30 1475 H 130.759 5.05204 3.00071 0
M  V30 1476 H 132.283 4.72099 3.8724 0
M  V30 1477 H 133.697 5.46674 1.72687 0
M  V30 1478 H 132.094 5.90515 1.06826 0
M  V30 1479 H 133.164 4.84724 0.130749 0
M  V30 1480 N 134.507 -0.190092 1.56449 0
M  V30 1481 C 135.735 -0.925772 1.85033 0
M  V30 1482 C 136.15 -1.76638 0.666658 0
M  V30 1483 O 135.507 -1.78822 -0.364565 0
M  V30 1484 C 135.558 -1.81786 3.12468 0
M  V30 1485 O 135.279 -1.01118 4.26271 0
M  V30 1486 C 136.78 -2.6648 3.54265 0
M  V30 1487 H 134 -0.269872 0.614337 0
M  V30 1488 H 136.544 -0.195837 2.0356 0
M  V30 1489 H 134.699 -2.50136 2.95822 0
M  V30 1490 H 135.113 -1.61956 4.98869 0
M  V30 1491 H 136.587 -3.24722 4.46385 0
M  V30 1492 H 137.064 -3.40434 2.77491 0
M  V30 1493 H 137.67 -2.03493 3.73458 0
M  V30 1494 N 135.985 -1.50799 -0.457987 0
M  V30 1495 C 137.213 -1.66218 -1.23203 0
M  V30 1496 C 137.628 -0.350894 -1.85511 0
M  V30 1497 O 136.985 0.668546 -1.69814 0
M  V30 1498 C 137.036 -2.76291 -2.33121 0
M  V30 1499 O 136.757 -4.02338 -1.73366 0
M  V30 1500 C 138.258 -3.028 -3.2377 0
M  V30 1501 H 135.478 -0.558361 -0.372121 0
M  V30 1502 H 138.022 -1.97099 -0.545179 0
M  V30 1503 H 136.177 -2.48068 -2.97558 0
M  V30 1504 H 136.591 -4.63312 -2.4585 0
M  V30 1505 H 138.065 -3.8345 -3.97077 0
M  V30 1506 H 138.542 -2.14385 -3.83322 0
M  V30 1507 H 139.148 -3.32604 -2.65056 0
M  V30 1508 N 137.463 0.71206 -1.40597 0
M  V30 1509 C 138.74 1.46536 -1.29563 0
M  V30 1510 C 139.12 2.10931 0.0844217 0
M  V30 1511 O 138.468 2.00418 1.0975 0
M  V30 1512 C 138.678 2.49821 -2.43701 0
M  V30 1513 C 140.026 3.15551 -2.841 0
M  V30 1514 O 141.05 2.60142 -2.4332 0
M  V30 1515 O 139.909 4.15867 -3.54566 0
M  V30 1516 H 137.003 0.651801 -0.509004 0
M  V30 1517 H 139.549 0.743935 -1.52524 0
M  V30 1518 H 138.321 2.00778 -3.35863 0
M  V30 1519 H 137.944 3.29495 -2.22528 0
M  V30 1520 N 138.941 1.26152 0.944643 0
M  V30 1521 C 140.171 1.14094 1.72239 0
M  V30 1522 C 140.579 -0.306931 1.86694 0
M  V30 1523 O 139.922 -1.22222 1.3714 0
M  V30 1524 C 139.984 1.73316 3.14963 0
M  V30 1525 C 139.648 3.2239 3.23904 0
M  V30 1526 C 140.645 4.19252 3.07447 0
M  V30 1527 C 138.33 3.62788 3.47405 0
M  V30 1528 C 140.324 5.54491 3.14353 0
M  V30 1529 C 138.011 4.98162 3.53947 0
M  V30 1530 C 139.009 5.93823 3.37436 0
M  V30 1531 O 138.697 7.26732 3.43679 0
M  V30 1532 H 138.429 0.398292 0.546205 0
M  V30 1533 H 140.983 1.67201 1.19301 0
M  V30 1534 H 139.213 1.14667 3.69308 0
M  V30 1535 H 140.902 1.56214 3.74636 0
M  V30 1536 H 141.668 3.8938 2.8915 0
M  V30 1537 H 137.547 2.88816 3.59313 0
M  V30 1538 H 141.091 6.29137 3.01384 0
M  V30 1539 H 136.988 5.27695 3.71763 0
M  V30 1540 H 137.756 7.3496 3.60245 0
M  V30 1541 N 140.419 -1.14872 1.07899 0
M  V30 1542 C 141.349 -2.2193 0.725887 0
M  V30 1543 C 142.33 -1.67622 -0.28927 0
M  V30 1544 O 143.515 -1.93533 -0.160787 0
M  V30 1545 C 140.645 -3.47061 0.128856 0
M  V30 1546 C 139.599 -4.14363 1.07178 0
M  V30 1547 C 138.925 -5.33636 0.337229 0
M  V30 1548 C 140.225 -4.63492 2.40775 0
M  V30 1549 H 141.919 -2.51724 1.62097 0
M  V30 1550 H 139.465 -1.20991 0.780838 0
M  V30 1551 H 141.418 -4.21199 -0.130147 0
M  V30 1552 H 140.142 -3.16617 -0.80134 0
M  V30 1553 H 138.801 -3.42173 1.3158 0
M  V30 1554 H 138.449 -4.99449 -0.596606 0
M  V30 1555 H 138.149 -5.79609 0.965788 0
M  V30 1556 H 139.673 -6.10539 0.0861567 0
M  V30 1557 H 141.087 -5.2913 2.20669 0
M  V30 1558 H 139.484 -5.20148 2.99276 0
M  V30 1559 H 140.554 -3.78834 3.02676 0
M  V30 1560 N 141.898 -0.863906 -1.31812 0
M  V30 1561 C 142.828 -0.330843 -2.31144 0
M  V30 1562 C 143.809 0.575005 -1.60087 0
M  V30 1563 O 144.994 0.493304 -1.8783 0
M  V30 1564 C 142.124 0.47374 -3.44054 0
M  V30 1565 C 141.078 -0.338481 -4.26659 0
M  V30 1566 C 140.404 0.591412 -5.31419 0
M  V30 1567 C 141.704 -1.56926 -4.98168 0
M  V30 1568 H 143.398 -1.16086 -2.75979 0
M  V30 1569 H 140.944 -0.559657 -1.32679 0
M  V30 1570 H 142.897 0.857143 -4.12591 0
M  V30 1571 H 141.621 1.33721 -2.9797 0
M  V30 1572 H 140.28 -0.703754 -3.59782 0
M  V30 1573 H 139.928 1.45199 -4.81587 0
M  V30 1574 H 139.628 0.0519022 -5.87577 0
M  V30 1575 H 141.152 0.97179 -6.02817 0
M  V30 1576 H 142.566 -1.25764 -5.59336 0
M  V30 1577 H 140.963 -2.04739 -5.64094 0
M  V30 1578 H 142.033 -2.32544 -4.25501 0
M  V30 1579 N 143.376 1.44774 -0.622745 0
M  V30 1580 C 144.616 2.04004 -0.127102 0
M  V30 1581 C 144.98 1.47862 1.22478 0
M  V30 1582 O 146.181 1.98541 1.81204 0
M  V30 1583 C 144.452 3.57247 -0.104429 0
M  V30 1584 S 146.011 4.37574 0.327814 0
M  V30 1585 H 142.829 0.708713 -0.0569776 0
M  V30 1586 H 145.431 1.77275 -0.824253 0
M  V30 1587 H 144.135 3.95616 -1.09159 0
M  V30 1588 H 143.666 3.88575 0.614236 0
M  V30 1589 H 145.681 4.70575 1.57395 0
M  V30 1590 N 144.854 0.36279 1.53368 0
M  V30 1591 C 146.082 -0.228613 2.05633 0
M  V30 1592 C 146.497 -1.42676 1.23649 0
M  V30 1593 O 145.854 -1.80394 0.27647 0
M  V30 1594 C 145.905 -0.624845 3.56059 0
M  V30 1595 O 145.626 0.525675 4.34935 0
M  V30 1596 C 147.127 -1.27493 4.24571 0
M  V30 1597 H 144.347 -0.0407183 0.669763 0
M  V30 1598 H 146.891 0.520352 1.97769 0
M  V30 1599 H 145.046 -1.32373 3.64083 0
M  V30 1600 H 145.46 0.205969 5.24095 0
M  V30 1601 H 146.934 -1.50277 5.31151 0
M  V30 1602 H 147.411 -2.23439 3.78116 0
M  V30 1603 H 148.017 -0.617558 4.20792 0
M  V30 1604 N 146.332 -1.57332 0.0918853 0
M  V30 1605 C 147.295 -2.12708 -0.85369 0
M  V30 1606 C 148.295 -1.05561 -1.213 0
M  V30 1607 O 149.485 -1.31461 -1.14296 0
M  V30 1608 C 146.617 -2.64503 -2.15061 0
M  V30 1609 H 147.81 -2.97573 -0.3729 0
M  V30 1610 H 145.363 -1.55509 -0.157072 0
M  V30 1611 H 146.098 -1.83149 -2.67632 0
M  V30 1612 H 145.883 -3.4284 -1.90272 0
M  V30 1613 H 147.373 -3.07351 -2.82711 0
M  V30 1614 N 147.81 0.181792 -1.56548 0
M  V30 1615 C 149.035 0.920019 -1.85877 0
M  V30 1616 C 149.46 1.75494 -0.677021 0
M  V30 1617 O 148.818 1.77399 0.374056 0
M  V30 1618 C 148.866 1.78112 -3.13542 0
M  V30 1619 O 147.97 2.88152 -2.95029 0
M  V30 1620 H 147.311 0.258334 -0.611686 0
M  V30 1621 H 149.841 0.183092 -2.03779 0
M  V30 1622 H 149.851 2.18314 -3.44678 0
M  V30 1623 H 148.526 1.16777 -3.99169 0
M  V30 1624 H 147.103 2.51609 -2.75222 0
M  V30 1625 N 149.288 1.51039 0.449983 0
M  V30 1626 C 150.534 1.63322 1.20223 0
M  V30 1627 C 150.867 0.34241 1.91158 0
M  V30 1628 O 150.142 -0.657344 1.83055 0
M  V30 1629 C 150.425 2.82801 2.22925 0
M  V30 1630 C 150.278 4.21823 1.56157 0
M  V30 1631 C 151.597 2.97807 3.24035 0
M  V30 1632 H 148.716 0.594407 0.435718 0
M  V30 1633 H 151.358 1.83489 0.493136 0
M  V30 1634 H 149.508 2.65738 2.834 0
M  V30 1635 H 151.18 4.50526 0.991162 0
M  V30 1636 H 149.423 4.25105 0.864172 0
M  V30 1637 H 150.094 5.01391 2.30891 0
M  V30 1638 H 152.57 3.13497 2.73603 0
M  V30 1639 H 151.446 3.82992 3.93202 0
M  V30 1640 H 151.707 2.09328 3.89402 0
M  V30 1641 N 150.766 -0.704594 1.40972 0
M  V30 1642 C 151.996 -1.49138 1.42974 0
M  V30 1643 C 152.404 -1.89175 0.0308406 0
M  V30 1644 O 151.747 -1.56734 -0.958138 0
M  V30 1645 C 151.809 -2.79016 2.26694 0
M  V30 1646 C 151.473 -2.61236 3.74973 0
M  V30 1647 C 152.47 -2.27773 4.67349 0
M  V30 1648 C 150.155 -2.77158 4.18914 0
M  V30 1649 C 152.149 -2.10457 6.01653 0
M  V30 1650 C 149.836 -2.59459 5.53285 0
M  V30 1651 C 150.834 -2.26158 6.4447 0
M  V30 1652 O 150.522 -2.08605 7.76363 0
M  V30 1653 H 150.254 -0.466443 0.489292 0
M  V30 1654 H 152.808 -0.8758 1.85793 0
M  V30 1655 H 151.038 -3.42947 1.78673 0
M  V30 1656 H 152.727 -3.40782 2.20504 0
M  V30 1657 H 153.493 -2.15095 4.34694 0
M  V30 1658 H 149.372 -3.02064 3.48251 0
M  V30 1659 H 152.916 -1.84387 6.72791 0
M  V30 1660 H 148.813 -2.71725 5.85522 0
M  V30 1661 H 149.581 -2.23439 7.87412 0
M  V30 1662 N 152.244 -1.26651 -0.937939 0
M  V30 1663 C 153.192 -1.08308 -2.05845 0
M  V30 1664 C 154.186 -0.0090757 -1.69398 0
M  V30 1665 O 155.392 -0.166007 -1.79233 0
M  V30 1666 H 151.767 -0.333416 -0.674046 0
M  V30 1667 H 153.738 -2.03261 -2.18467 0
M  V30 1668 C 152.487 -0.736229 -3.39816 0
M  V30 1669 H 151.81 -1.55453 -3.6834 0
M  V30 1670 H 153.25 -0.64769 -4.19024 0
M  V30 1671 C 151.709 0.558824 -3.32233 0
M  V30 1672 O 152.239 1.59621 -3.68624 0
M  V30 1673 N 150.445 0.550657 -2.85335 0
M  V30 1674 H 149.992 -0.293943 -2.55917 0
M  V30 1675 H 149.95 1.41726 -2.80644 0
M  V30 1676 N 153.722 1.14298 -1.08507 0
M  V30 1677 C 154.971 1.84708 -0.810305 0
M  V30 1678 C 155.284 1.83903 0.666271 0
M  V30 1679 O 156.49 2.50112 1.05624 0
M  V30 1680 C 154.946 3.31572 -1.39957 0
M  V30 1681 C 154.554 3.40791 -2.90801 0
M  V30 1682 C 156.298 4.07087 -1.20334 0
M  V30 1683 C 154.205 4.81872 -3.4286 0
M  V30 1684 H 153.135 0.691985 -0.299454 0
M  V30 1685 H 155.786 1.28841 -1.30661 0
M  V30 1686 H 154.168 3.87183 -0.830976 0
M  V30 1687 H 155.342 2.95225 -3.53806 0
M  V30 1688 H 153.657 2.78732 -3.0935 0
M  V30 1689 H 156.254 5.11225 -1.56693 0
M  V30 1690 H 156.597 4.16054 -0.143237 0
M  V30 1691 H 157.13 3.57779 -1.73893 0
M  V30 1692 H 153.869 4.78094 -4.48449 0
M  V30 1693 H 153.389 5.27972 -2.84615 0
M  V30 1694 H 155.068 5.50765 -3.39509 0
M  V30 1695 N 155.201 0.870884 1.31352 0
M  V30 1696 C 156.447 0.482987 1.96965 0
M  V30 1697 C 156.78 -0.962462 1.68672 0
M  V30 1698 O 156.055 -1.6779 0.98371 0
M  V30 1699 C 156.338 0.741752 3.52378 0
M  V30 1700 C 156.191 2.2368 3.9024 0
M  V30 1701 C 157.51 0.208838 4.39604 0
M  V30 1702 H 154.629 0.176955 0.715441 0
M  V30 1703 H 157.271 1.09229 1.55464 0
M  V30 1704 H 155.421 0.223149 3.87859 0
M  V30 1705 H 157.093 2.82273 3.64856 0
M  V30 1706 H 155.336 2.70901 3.38814 0
M  V30 1707 H 156.007 2.3685 4.98604 0
M  V30 1708 H 158.483 0.652529 4.10952 0
M  V30 1709 H 157.359 0.419336 5.47296 0
M  V30 1710 H 157.62 -0.889275 4.33064 0
M  V30 1711 N 156.679 -1.44442 0.630414 0
M  V30 1712 C 157.609 -2.33418 -0.0618083 0
M  V30 1713 C 158.59 -1.48165 -0.835541 0
M  V30 1714 O 159.775 -1.76886 -0.801564 0
M  V30 1715 C 156.905 -3.31222 -1.04449 0
M  V30 1716 C 155.859 -4.26288 -0.382436 0
M  V30 1717 C 155.185 -5.13954 -1.47497 0
M  V30 1718 C 156.485 -5.1744 0.710865 0
M  V30 1719 H 158.179 -2.91548 0.681184 0
M  V30 1720 H 155.725 -1.40191 0.329026 0
M  V30 1721 H 157.678 -3.92351 -1.53748 0
M  V30 1722 H 156.402 -2.71299 -1.81836 0
M  V30 1723 H 155.061 -3.6649 0.0899054 0
M  V30 1724 H 154.709 -4.50385 -2.2397 0
M  V30 1725 H 154.409 -5.7837 -1.03737 0
M  V30 1726 H 155.933 -5.77955 -1.96979 0
M  V30 1727 H 157.347 -5.72509 0.300996 0
M  V30 1728 H 155.744 -5.90455 1.07156 0
M  V30 1729 H 156.814 -4.58496 1.57829 0
M  V30 1730 N 158.157 -0.370918 -1.53173 0
M  V30 1731 C 159.406 0.218249 -2.00516 0
M  V30 1732 C 159.719 1.49429 -1.26215 0
M  V30 1733 O 160.925 2.16239 -1.64174 0
M  V30 1734 C 159.381 0.43948 -3.57207 0
M  V30 1735 C 158.989 -0.822244 -4.4039 0
M  V30 1736 C 160.733 0.986012 -4.1289 0
M  V30 1737 C 158.64 -0.570304 -5.88644 0
M  V30 1738 H 157.57 0.0853333 -0.749156 0
M  V30 1739 H 160.221 -0.490483 -1.76823 0
M  V30 1740 H 158.603 1.20961 -3.77074 0
M  V30 1741 H 159.777 -1.59557 -4.32294 0
M  V30 1742 H 158.092 -1.29238 -3.95836 0
M  V30 1743 H 160.689 1.18991 -5.21292 0
M  V30 1744 H 161.032 1.94972 -3.6782 0
M  V30 1745 H 161.565 0.27592 -3.96842 0
M  V30 1746 H 158.304 -1.50449 -6.38001 0
M  V30 1747 H 157.824 0.164427 -5.99575 0
M  V30 1748 H 159.503 -0.19784 -6.46697 0
M  V30 1749 N 159.635 1.57281 -0.100228 0
M  V30 1750 C 160.86 1.99302 0.573881 0
M  V30 1751 C 161.285 0.979059 1.60611 0
M  V30 1752 O 160.643 -0.0517803 1.81226 0
M  V30 1753 C 160.691 3.40274 1.19358 0
M  V30 1754 O 159.795 3.41676 2.30935 0
M  V30 1755 H 159.136 0.647944 0.145138 0
M  V30 1756 H 161.666 2.03779 -0.183156 0
M  V30 1757 H 161.676 3.78078 1.53365 0
M  V30 1758 H 160.351 4.13594 0.437385 0
M  V30 1759 H 158.928 3.15672 1.98509 0
M  V30 1760 N 161.113 -0.173488 1.56642 0
M  V30 1761 C 162.343 -0.904781 1.85734 0
M  V30 1762 C 162.751 -1.76431 0.68328 0
M  V30 1763 O 162.094 -1.802 -0.356865 0
M  V30 1764 C 162.156 -1.83382 3.09211 0
M  V30 1765 C 161.82 -1.15411 4.42187 0
M  V30 1766 C 162.817 -0.520609 5.17287 0
M  V30 1767 C 160.502 -1.15151 4.88923 0
M  V30 1768 C 162.496 0.106412 6.37311 0
M  V30 1769 C 160.183 -0.520664 6.08878 0
M  V30 1770 C 161.181 0.107196 6.82916 0
M  V30 1771 O 160.869 0.728102 8.00596 0
M  V30 1772 H 160.601 -0.268408 0.62043 0
M  V30 1773 H 163.155 -0.179096 2.04618 0
M  V30 1774 H 161.385 -2.59976 2.86268 0
M  V30 1775 H 163.074 -2.43476 3.24768 0
M  V30 1776 H 163.84 -0.514606 4.82262 0
M  V30 1777 H 159.719 -1.62961 4.31236 0
M  V30 1778 H 163.263 0.597081 6.9504 0
M  V30 1779 H 159.16 -0.524242 6.43368 0
M  V30 1780 H 159.928 0.627138 8.16094 0
M  V30 1781 N 162.591 -1.51276 -0.441967 0
M  V30 1782 C 163.868 -1.54252 -1.20273 0
M  V30 1783 C 164.248 -0.30408 -2.08898 0
M  V30 1784 O 163.596 0.711084 -2.17154 0
M  V30 1785 C 163.806 -2.85406 -2.00859 0
M  V30 1786 C 165.154 -3.37181 -2.58059 0
M  V30 1787 O 166.178 -2.86925 -2.11074 0
M  V30 1788 O 165.037 -4.24858 -3.43741 0
M  V30 1789 H 162.131 -0.619969 -0.547328 0
M  V30 1790 H 164.677 -1.63586 -0.451413 0
M  V30 1791 H 163.449 -3.67003 -1.35736 0
M  V30 1792 H 163.072 -2.79213 -2.83065 0
M  V30 1793 N 164.069 0.697108 -1.41344 0
M  V30 1794 C 165.485 1.00751 -1.2378 0
M  V30 1795 C 165.685 2.01105 -0.126066 0
M  V30 1796 O 164.741 2.47295 0.51004 0
M  V30 1797 C 166.054 1.53359 -2.58653 0
M  V30 1798 C 167.602 1.6525 -2.65822 0
M  V30 1799 C 168.077 2.2126 -4.01009 0
M  V30 1800 N 169.568 2.28622 -4.02847 0
M  V30 1801 C 170.303 2.72984 -5.04249 0
M  V30 1802 N 169.799 3.16962 -6.16041 0
M  V30 1803 N 171.592 2.72534 -4.91611 0
M  V30 1804 H 163.743 0.0322662 -2.12375 0
M  V30 1805 H 166.006 0.0768853 -0.944877 0
M  V30 1806 H 165.712 0.870773 -3.4075 0
M  V30 1807 H 165.586 2.51597 -2.81032 0
M  V30 1808 H 167.973 2.30644 -1.84086 0
M  V30 1809 H 168.054 0.655614 -2.47256 0
M  V30 1810 H 167.698 1.56482 -4.83193 0
M  V30 1811 H 167.628 3.21698 -4.16915 0
M  V30 1812 H 170.119 1.97585 -3.22131 0
M  V30 1813 H 170.432 3.49434 -6.89287 0
M  V30 1814 H 168.777 3.14875 -6.1958 0
M  V30 1815 H 171.968 2.37525 -4.0336 0
M  V30 1816 H 172.141 3.06789 -5.70775 0
M  V30 1817 N 165.547 1.27147 0.931209 0
M  V30 1818 C 166.777 1.15914 1.71019 0
M  V30 1819 C 167.185 -0.287112 1.87009 0
M  V30 1820 O 166.528 -1.20761 1.38429 0
M  V30 1821 C 166.59 1.76647 3.13107 0
M  V30 1822 C 166.254 3.25807 3.20467 0
M  V30 1823 C 167.251 4.22489 3.02983 0
M  V30 1824 C 164.936 3.66452 3.43538 0
M  V30 1825 C 166.93 5.57794 3.08454 0
M  V30 1826 C 164.617 5.01888 3.48643 0
M  V30 1827 C 165.615 5.97369 3.31119 0
M  V30 1828 O 165.303 7.30337 3.35952 0
M  V30 1829 H 165.035 0.404062 0.54195 0
M  V30 1830 H 167.589 1.68457 1.17521 0
M  V30 1831 H 165.819 1.18578 3.68071 0
M  V30 1832 H 167.508 1.60179 3.72958 0
M  V30 1833 H 168.274 3.92425 2.85004 0
M  V30 1834 H 164.153 2.92611 3.5623 0
M  V30 1835 H 167.697 6.32298 2.94694 0
M  V30 1836 H 163.594 5.31609 3.66145 0
M  V30 1837 H 164.362 7.38739 3.5243 0
M  V30 1838 N 167.025 -1.13721 1.09112 0
M  V30 1839 C 167.955 -2.21148 0.749385 0
M  V30 1840 C 168.936 -1.6792 -0.271475 0
M  V30 1841 O 170.121 -1.93693 -0.140251 0
M  V30 1842 C 167.251 -3.46905 0.165659 0
M  V30 1843 C 166.205 -4.13203 1.11567 0
M  V30 1844 C 165.531 -5.33248 0.393809 0
M  V30 1845 C 166.831 -4.60912 2.45678 0
M  V30 1846 H 168.525 -2.4999 1.64758 0
M  V30 1847 H 166.071 -1.20156 0.793626 0
M  V30 1848 H 168.024 -4.21313 -0.085466 0
M  V30 1849 H 166.748 -3.17449 -0.767714 0
M  V30 1850 H 165.407 -3.40758 1.35202 0
M  V30 1851 H 165.055 -5.00054 -0.543599 0
M  V30 1852 H 164.755 -5.78552 1.02721 0
M  V30 1853 H 166.279 -6.10413 0.150908 0
M  V30 1854 H 167.693 -5.26759 2.26269 0
M  V30 1855 H 166.09 -5.16944 3.04776 0
M  V30 1856 H 167.16 -3.75603 3.06677 0
M  V30 1857 N 168.503 -0.877838 -1.30888 0
M  V30 1858 C 169.728 -0.506629 -2.01117 0
M  V30 1859 C 170.153 0.895564 -1.65412 0
M  V30 1860 O 169.511 1.5923 -0.866922 0
M  V30 1861 C 169.559 -0.680223 -3.54126 0
M  V30 1862 O 168.663 0.277033 -4.11468 0
M  V30 1863 H 168.004 -0.200518 -0.633 0
M  V30 1864 H 170.534 -1.18342 -1.66902 0
M  V30 1865 H 170.544 -0.5765 -4.03907 0
M  V30 1866 H 169.219 -1.70261 -3.79452 0
M  V30 1867 H 167.796 0.127606 -3.72682 0
M  V30 1868 N 169.982 1.44106 -0.638065 0
M  V30 1869 C 171.228 2.02277 -0.145546 0
M  V30 1870 C 171.561 1.50125 1.23191 0
M  V30 1871 O 170.836 0.688133 1.8192 0
M  V30 1872 C 171.119 3.59829 -0.139791 0
M  V30 1873 C 170.972 4.22247 -1.55008 0
M  V30 1874 C 172.291 4.36873 0.531966 0
M  V30 1875 H 169.41 0.734992 -0.0543632 0
M  V30 1876 H 172.052 1.71592 -0.815863 0
M  V30 1877 H 170.202 3.86102 0.431007 0
M  V30 1878 H 171.874 4.07057 -2.1703 0
M  V30 1879 H 170.117 3.79476 -2.10191 0
M  V30 1880 H 170.788 5.31284 -1.49804 0
M  V30 1881 H 173.264 4.16074 0.0464781 0
M  V30 1882 H 172.14 5.4657 0.505206 0
M  V30 1883 H 172.401 4.11995 1.60352 0
M  V30 1884 N 171.46 0.379036 1.52974 0
M  V30 1885 C 172.685 -0.209353 2.06341 0
M  V30 1886 C 173.11 -1.40583 1.24972 0
M  V30 1887 O 172.468 -1.79246 0.272155 0
M  V30 1888 C 172.516 -0.567786 3.56102 0
M  V30 1889 O 171.62 -1.66318 3.77375 0
M  V30 1890 H 170.961 -0.0272919 0.663439 0
M  V30 1891 H 173.491 0.543536 1.97248 0
M  V30 1892 H 173.501 -0.835003 3.99364 0
M  V30 1893 H 172.176 0.307013 4.14765 0
M  V30 1894 H 170.753 -1.39048 3.46006 0
M  V30 1895 N 172.938 -1.57226 0.108567 0
M  V30 1896 C 173.886 -2.16002 -0.862885 0
M  V30 1897 C 174.88 -1.10644 -1.28274 0
M  V30 1898 O 176.086 -1.28966 -1.2557 0
M  V30 1899 H 172.461 -0.691148 -0.296342 0
M  V30 1900 H 174.432 -2.96427 -0.342575 0
M  V30 1901 C 173.181 -2.76576 -2.10716 0
M  V30 1902 H 172.504 -3.5734 -1.793 0
M  V30 1903 H 173.944 -3.21253 -2.76717 0
M  V30 1904 C 172.403 -1.73137 -2.89007 0
M  V30 1905 O 172.933 -1.17842 -3.84026 0
M  V30 1906 N 171.139 -1.43317 -2.52801 0
M  V30 1907 H 170.686 -1.88473 -1.75601 0
M  V30 1908 H 170.644 -0.743485 -3.05483 0
M  V30 1909 N 174.416 0.165178 -1.56732 0
M  V30 1910 C 175.379 1.18822 -1.95995 0
M  V30 1911 C 176.379 1.3685 -0.84431 0
M  V30 1912 O 177.569 1.34152 -1.11126 0
M  V30 1913 C 174.701 2.5521 -2.26011 0
M  V30 1914 H 175.894 0.851825 -2.87548 0
M  V30 1915 H 173.447 0.407857 -1.50885 0
M  V30 1916 H 174.182 2.93852 -1.37191 0
M  V30 1917 H 173.967 2.43489 -3.07336 0
M  V30 1918 H 175.457 3.28927 -2.57288 0
M  V30 1919 N 175.894 1.51508 0.433938 0
M  V30 1920 C 177.14 1.64588 1.18484 0
M  V30 1921 C 177.473 0.362666 1.90784 0
M  V30 1922 O 176.748 -0.637892 1.83742 0
M  V30 1923 C 177.031 2.85149 2.19913 0
M  V30 1924 C 176.884 4.23456 1.51674 0
M  V30 1925 C 178.203 3.01227 3.20858 0
M  V30 1926 H 175.322 0.598994 0.429389 0
M  V30 1927 H 177.964 1.84002 0.473647 0
M  V30 1928 H 176.114 2.68729 2.80566 0
M  V30 1929 H 177.786 4.51552 0.943322 0
M  V30 1930 H 176.029 4.25998 0.819035 0
M  V30 1931 H 176.7 5.03812 2.2556 0
M  V30 1932 H 179.176 3.16382 2.70263 0
M  V30 1933 H 178.052 3.87141 3.89118 0
M  V30 1934 H 178.313 2.13447 3.8716 0
M  V30 1935 N 177.372 -0.689602 1.41712 0
M  V30 1936 C 178.597 -1.48329 1.44959 0
M  V30 1937 C 179.022 -1.8801 0.0581283 0
M  V30 1938 O 178.38 -1.55026 -0.940035 0
M  V30 1939 C 178.428 -2.71835 2.36935 0
M  V30 1940 O 177.532 -3.69549 1.8305 0
M  V30 1941 H 176.873 -0.446199 0.491734 0
M  V30 1942 H 179.403 -0.847127 1.86239 0
M  V30 1943 H 179.413 -3.20076 2.53013 0
M  V30 1944 H 178.088 -2.42291 3.38035 0
M  V30 1945 H 176.665 -3.2851 1.76452 0
M  V30 1946 N 178.85 -1.27639 -0.924453 0
M  V30 1947 C 180.08 -1.16819 -1.70402 0
M  V30 1948 C 180.488 0.277191 -1.87158 0
M  V30 1949 O 179.831 1.20025 -1.39067 0
M  V30 1950 C 179.893 -1.78305 -3.12166 0
M  V30 1951 C 179.557 -3.27502 -3.18734 0
M  V30 1952 C 180.554 -4.2409 -3.00738 0
M  V30 1953 C 178.239 -3.68269 -3.4159 0
M  V30 1954 C 180.233 -5.59422 -3.05492 0
M  V30 1955 C 177.92 -5.0373 -3.45977 0
M  V30 1956 C 178.918 -5.99116 -3.27946 0
M  V30 1957 O 178.606 -7.32108 -3.32074 0
M  V30 1958 H 178.338 -0.406931 -0.539799 0
M  V30 1959 H 180.892 -1.69078 -1.16626 0
M  V30 1960 H 179.122 -1.20528 -3.67437 0
M  V30 1961 H 180.811 -1.62154 -3.72103 0
M  V30 1962 H 181.577 -3.93931 -2.82919 0
M  V30 1963 H 177.456 -2.94496 -3.54673 0
M  V30 1964 H 181 -6.33852 -2.91337 0
M  V30 1965 H 176.897 -5.33543 -3.63321 0
M  V30 1966 H 177.665 -7.40598 -3.48507 0
M  V30 1967 N 180.328 1.1314 -1.09713 0
M  V30 1968 C 181.744 1.36477 -0.827423 0
M  V30 1969 C 181.944 1.93654 0.556817 0
M  V30 1970 O 181 2.15791 1.31112 0
M  V30 1971 C 182.313 2.31334 -1.92106 0
M  V30 1972 C 183.861 2.44943 -1.94864 0
M  V30 1973 C 184.336 3.4311 -3.0338 0
M  V30 1974 N 185.827 3.50662 -3.02639 0
M  V30 1975 C 186.562 4.2651 -3.83246 0
M  V30 1976 N 186.058 5.05485 -4.73768 0
M  V30 1977 N 187.851 4.2184 -3.71493 0
M  V30 1978 H 180.002 0.743807 -1.9895 0
M  V30 1979 H 182.265 0.389823 -0.864143 0
M  V30 1980 H 181.971 1.96483 -2.91698 0
M  V30 1981 H 181.845 3.31381 -1.80184 0
M  V30 1982 H 184.232 2.79079 -0.959099 0
M  V30 1983 H 184.313 1.4481 -2.10864 0
M  V30 1984 H 183.957 3.09704 -4.02549 0
M  V30 1985 H 183.887 4.43055 -2.84622 0
M  V30 1986 H 186.378 2.94315 -2.37039 0
M  V30 1987 H 186.691 5.60675 -5.3185 0
M  V30 1988 H 185.036 5.04708 -4.77802 0
M  V30 1989 H 188.227 3.5922 -3.00131 0
M  V30 1990 H 188.4 4.80697 -4.3455 0
M  V30 1991 N 181.806 0.884767 1.30421 0
M  V30 1992 C 183.034 0.518044 2.0031 0
M  V30 1993 C 183.449 -0.893408 1.66324 0
M  V30 1994 O 182.806 -1.5875 0.900262 0
M  V30 1995 C 182.857 0.682997 3.54989 0
M  V30 1996 O 182.578 2.03888 3.87764 0
M  V30 1997 C 184.079 0.31924 4.42149 0
M  V30 1998 H 181.299 0.200265 0.640418 0
M  V30 1999 H 183.843 1.19001 1.6631 0
M  V30 2000 H 181.998 0.0584052 3.87356 0
M  V30 2001 H 182.412 2.05735 4.82466 0
M  V30 2002 H 183.886 0.485555 5.4986 0
M  V30 2003 H 184.363 -0.742717 4.32875 0
M  V30 2004 H 184.969 0.920147 4.15227 0
M  V30 2005 N 183.284 -1.43765 0.645699 0
M  V30 2006 C 184.216 -2.29027 -0.0890605 0
M  V30 2007 C 185.229 -1.42093 -0.794563 0
M  V30 2008 O 186.418 -1.66104 -0.653575 0
M  V30 2009 C 183.518 -3.18831 -1.14891 0
M  V30 2010 C 182.691 -4.34261 -0.523043 0
M  V30 2011 C 181.75 -5.04994 -1.47878 0
M  V30 2012 O 180.776 -5.6052 -0.990277 0
M  V30 2013 N 181.978 -5.07795 -2.81291 0
M  V30 2014 H 184.743 -2.92727 0.64272 0
M  V30 2015 H 182.304 -1.54373 0.487924 0
M  V30 2016 H 184.296 -3.63015 -1.78892 0
M  V30 2017 H 182.866 -2.56782 -1.78275 0
M  V30 2018 H 182.086 -3.93088 0.295896 0
M  V30 2019 H 183.374 -5.08728 -0.0858147 0
M  V30 2020 H 182.772 -4.64042 -3.23546 0
M  V30 2021 H 181.329 -5.55721 -3.40614 0
M  V30 2022 N 184.763 -0.387143 -1.52771 0
M  V30 2023 C 185.713 0.465942 -2.23188 0
M  V30 2024 C 186.697 1.03138 -1.23496 0
M  V30 2025 O 187.889 0.957845 -1.48843 0
M  V30 2026 C 185.018 1.59384 -3.04059 0
M  V30 2027 C 184.104 1.04024 -4.11144 0
M  V30 2028 N 184.495 0.211416 -5.05358 0
M  V30 2029 C 182.793 1.31295 -4.26237 0
M  V30 2030 C 183.494 -0.0941698 -5.81624 0
M  V30 2031 N 182.47 0.509207 -5.4121 0
M  V30 2032 H 186.272 -0.173856 -2.93385 0
M  V30 2033 H 183.786 -0.19633 -1.61209 0
M  V30 2034 H 185.783 2.21738 -3.53041 0
M  V30 2035 H 184.443 2.23648 -2.35397 0
M  V30 2036 H 185.454 -0.151151 -5.17679 0
M  V30 2037 H 182.131 1.95679 -3.68803 0
M  V30 2038 H 183.521 -0.765572 -6.67524 0
M  V30 2039 N 186.241 1.57166 -0.116904 0
M  V30 2040 C 187.469 1.99473 0.549383 0
M  V30 2041 C 187.884 0.996541 1.60357 0
M  V30 2042 O 187.241 -0.0108731 1.82497 0
M  V30 2043 C 187.292 3.41788 1.17741 0
M  V30 2044 O 187.013 4.37788 0.165362 0
M  V30 2045 C 188.514 3.99216 1.92722 0
M  V30 2046 H 185.734 0.655009 0.145616 0
M  V30 2047 H 188.278 2.03494 -0.202625 0
M  V30 2048 H 186.433 3.38713 1.88021 0
M  V30 2049 H 186.847 5.20806 0.621403 0
M  V30 2050 H 188.321 5.00882 2.31995 0
M  V30 2051 H 188.798 3.3824 2.80161 0
M  V30 2052 H 189.404 4.0583 1.27209 0
M  V30 2053 N 187.719 -0.156864 1.56817 0
M  V30 2054 C 188.967 -0.869404 1.82444 0
M  V30 2055 C 189.288 -1.82147 0.69623 0
M  V30 2056 O 188.558 -1.93847 -0.28287 0
M  V30 2057 H 187.138 -0.324043 0.673056 0
M  V30 2058 H 189.8 -0.153224 1.94297 0
M  V30 2059 H 188.896 -1.43761 2.77019 0
M  V30 2060 N 189.197 -1.51736 -0.425897 0
M  V30 2061 C 190.443 -1.65214 -1.1761 0
M  V30 2062 C 190.776 -0.372778 -1.90589 0
M  V30 2063 O 190.051 0.628139 -1.84078 0
M  V30 2064 C 190.334 -2.86312 -2.18398 0
M  V30 2065 C 190.187 -4.24254 -1.49426 0
M  V30 2066 C 191.506 -3.02925 -3.19256 0
M  V30 2067 H 188.625 -0.601263 -0.426206 0
M  V30 2068 H 191.267 -1.8425 -0.463882 0
M  V30 2069 H 189.417 -2.70213 -2.79137 0
M  V30 2070 H 191.089 -4.52046 -0.919362 0
M  V30 2071 H 189.332 -4.26426 -0.796432 0
M  V30 2072 H 190.003 -5.05001 -2.22885 0
M  V30 2073 H 192.479 -3.1781 -2.68581 0
M  V30 2074 H 191.355 -3.89199 -3.8706 0
M  V30 2075 H 191.616 -2.15497 -3.86023 0
M  V30 2076 N 190.675 0.682077 -1.42076 0
M  V30 2077 C 191.605 1.80796 -1.47767 0
M  V30 2078 C 192.586 1.6677 -0.334954 0
M  V30 2079 O 193.771 1.863 -0.548264 0
M  V30 2080 C 190.901 3.19038 -1.37229 0
M  V30 2081 C 189.855 3.47789 -2.49453 0
M  V30 2082 C 189.181 4.8553 -2.23975 0
M  V30 2083 C 190.481 3.45411 -3.91776 0
M  V30 2084 H 192.175 1.7629 -2.41997 0
M  V30 2085 H 189.721 0.846721 -1.16476 0
M  V30 2086 H 191.674 3.97528 -1.39821 0
M  V30 2087 H 190.398 3.24204 -0.394907 0
M  V30 2088 H 189.057 2.71657 -2.46166 0
M  V30 2089 H 188.705 4.87337 -1.24547 0
M  V30 2090 H 188.405 5.0573 -2.99184 0
M  V30 2091 H 189.929 5.66312 -2.28304 0
M  V30 2092 H 191.343 4.13882 -3.96705 0
M  V30 2093 H 189.74 3.77145 -4.66778 0
M  V30 2094 H 190.81 2.44122 -4.18966 0
M  V30 2095 N 192.153 1.28127 0.917671 0
M  V30 2096 C 193.1 1.11717 2.0196 0
M  V30 2097 C 194.07 0.0153929 1.66093 0
M  V30 2098 O 195.255 0.179596 1.89953 0
M  V30 2099 C 192.395 0.780927 3.36148 0
M  V30 2100 C 191.508 1.96135 3.84909 0
M  V30 2101 C 190.643 1.56609 5.0759 0
M  V30 2102 C 189.682 2.71339 5.48673 0
M  V30 2103 N 188.819 2.32332 6.62545 0
M  V30 2104 H 193.659 2.06003 2.15329 0
M  V30 2105 H 191.196 1.02535 1.05475 0
M  V30 2106 H 193.154 0.56675 4.13333 0
M  V30 2107 H 191.784 -0.124998 3.22558 0
M  V30 2108 H 190.836 2.28777 3.03916 0
M  V30 2109 H 192.148 2.82165 4.1132 0
M  V30 2110 H 191.302 1.31374 5.92305 0
M  V30 2111 H 190.041 0.677014 4.82978 0
M  V30 2112 H 189.046 2.97276 4.62501 0
M  V30 2113 H 190.271 3.60882 5.75274 0
M  V30 2114 H 188.217 1.45889 6.39572 0
M  V30 2115 H 188.134 3.11899 6.88662 0
M  V30 2116 H 189.402 2.10371 7.50576 0
M  V30 2117 N 193.631 -1.12557 1.10312 0
M  V30 2118 C 194.88 -1.83395 0.839588 0
M  V30 2119 C 195.193 -1.84939 -0.636929 0
M  V30 2120 O 196.399 -2.51761 -1.01631 0
M  V30 2121 C 194.855 -3.29303 1.45215 0
M  V30 2122 C 194.463 -3.36122 2.96186 0
M  V30 2123 C 196.207 -4.05121 1.26796 0
M  V30 2124 C 194.114 -4.76357 3.50483 0
M  V30 2125 H 193.044 -0.687133 0.310425 0
M  V30 2126 H 195.695 -1.26746 1.32694 0
M  V30 2127 H 194.077 -3.85812 0.892469 0
M  V30 2128 H 195.251 -2.89559 3.58458 0
M  V30 2129 H 193.566 -2.73776 3.13745 0
M  V30 2130 H 196.163 -5.08668 1.64806 0
M  V30 2131 H 196.506 -4.15773 0.209409 0
M  V30 2132 H 197.039 -3.54967 1.79563 0
M  V30 2133 H 193.778 -4.70899 4.55998 0
M  V30 2134 H 193.298 -5.23377 2.92978 0
M  V30 2135 H 194.977 -5.45294 3.48228 0
M  V30 2136 N 195.109 -0.891671 -1.2995 0
M  V30 2137 C 196.355 -0.514261 -1.96171 0
M  V30 2138 C 196.688 0.935506 -1.70182 0
M  V30 2139 O 195.963 1.66204 -1.01028 0
M  V30 2140 C 196.246 -0.797719 -3.51153 0
M  V30 2141 C 196.099 -2.2986 -3.86632 0
M  V30 2142 C 197.418 -0.278749 -4.39216 0
M  V30 2143 H 194.537 -0.188314 -0.712535 0
M  V30 2144 H 197.179 -1.11689 -1.53706 0
M  V30 2145 H 195.329 -0.284826 -3.87455 0
M  V30 2146 H 197.001 -2.88042 -3.60319 0
M  V30 2147 H 195.244 -2.76257 -3.34462 0
M  V30 2148 H 195.915 -2.44753 -4.94773 0
M  V30 2149 H 198.391 -0.717825 -4.09862 0
M  V30 2150 H 197.267 -0.506353 -5.46559 0
M  V30 2151 H 197.528 0.820266 -4.34424 0
M  V30 2152 N 196.587 1.43421 -0.653314 0
M  V30 2153 C 197.815 2.06163 -0.174491 0
M  V30 2154 C 198.23 1.48969 1.1599 0
M  V30 2155 O 197.587 0.621042 1.71608 0
M  V30 2156 C 197.638 3.61417 -0.0774865 0
M  V30 2157 O 197.359 4.16485 -1.35912 0
M  V30 2158 C 198.86 4.41235 0.427402 0
M  V30 2159 H 196.08 0.664946 -0.0899353 0
M  V30 2160 H 198.624 1.83924 -0.893988 0
M  V30 2161 H 196.779 3.82841 0.59257 0
M  V30 2162 H 197.193 5.10153 -1.21839 0
M  V30 2163 H 198.667 5.5021 0.44423 0
M  V30 2164 H 199.144 4.14268 1.45873 0
M  V30 2165 H 199.75 4.2478 -0.210167 0
M  V30 2166 N 198.065 0.39524 1.52563 0
M  V30 2167 C 198.995 -0.428384 2.29537 0
M  V30 2168 C 199.976 -1.05831 1.33169 0
M  V30 2169 O 201.161 -1.06995 1.62067 0
M  V30 2170 C 198.291 -1.55274 3.10656 0
M  V30 2171 C 197.245 -1.04855 4.14957 0
M  V30 2172 C 196.571 -2.26543 4.84337 0
M  V30 2173 C 197.871 -0.112324 5.22179 0
M  V30 2174 H 199.565 0.213867 2.98635 0
M  V30 2175 H 197.111 0.104298 1.43622 0
M  V30 2176 H 199.064 -2.1358 3.63265 0
M  V30 2177 H 197.788 -2.22266 2.39302 0
M  V30 2178 H 196.447 -0.487985 3.63338 0
M  V30 2179 H 196.095 -2.92059 4.09525 0
M  V30 2180 H 195.795 -1.93466 5.54837 0
M  V30 2181 H 197.319 -2.85481 5.39753 0
M  V30 2182 H 198.733 -0.603752 5.70112 0
M  V30 2183 H 197.13 0.128968 5.99961 0
M  V30 2184 H 198.2 0.837052 4.77621 0
M  V30 2185 N 199.544 -1.57102 0.125237 0
M  V30 2186 C 200.477 -2.11371 -0.860094 0
M  V30 2187 C 201.455 -1.03168 -1.25679 0
M  V30 2188 O 202.639 -1.30862 -1.35674 0
M  V30 2189 C 199.766 -2.61555 -2.1519 0
M  V30 2190 C 198.812 -3.81701 -1.9028 0
M  V30 2191 S 199.645 -5.23797 -1.11343 0
M  V30 2192 C 200.801 -5.77353 -2.41689 0
M  V30 2193 H 201.034 -2.94617 -0.39852 0
M  V30 2194 H 198.567 -1.54145 -0.0886555 0
M  V30 2195 H 200.525 -2.91122 -2.89411 0
M  V30 2196 H 199.186 -1.78479 -2.58465 0
M  V30 2197 H 198.379 -4.14985 -2.86014 0
M  V30 2198 H 197.981 -3.52783 -1.24178 0
M  V30 2199 H 200.273 -5.87458 -3.37489 0
M  V30 2200 H 201.216 -6.75323 -2.12942 0
M  V30 2201 H 201.624 -5.05457 -2.51342 0
M  V30 2202 N 201.022 0.148545 -1.56898 0
M  V30 2203 C 202.268 0.862694 -1.83536 0
M  V30 2204 C 202.601 1.80889 -0.706604 0
M  V30 2205 O 201.876 1.92328 0.289885 0
M  V30 2206 C 202.159 1.63853 -3.20662 0
M  V30 2207 C 202.012 0.713925 -4.44098 0
M  V30 2208 C 203.331 2.60133 -3.54991 0
M  V30 2209 H 200.45 0.312179 -0.667618 0
M  V30 2210 H 203.092 0.127953 -1.89569 0
M  V30 2211 H 201.242 2.26489 -3.1565 0
M  V30 2212 H 202.914 0.098686 -4.61194 0
M  V30 2213 H 201.157 0.0234019 -4.33794 0
M  V30 2214 H 201.828 1.29278 -5.36648 0
M  V30 2215 H 204.304 2.07616 -3.60603 0
M  V30 2216 H 203.18 3.11468 -4.51972 0
M  V30 2217 H 203.441 3.41417 -2.80868 0
M  V30 2218 N 202.5 1.5196 0.417844 0
M  V30 2219 C 203.463 1.74065 1.49111 0
M  V30 2220 C 204.463 0.610537 1.48758 0
M  V30 2221 O 205.653 0.87832 1.50437 0
M  V30 2222 C 202.785 1.81502 2.88565 0
M  V30 2223 H 203.978 2.69869 1.30807 0
M  V30 2224 H 201.531 1.42244 0.647785 0
M  V30 2225 H 202.266 0.875813 3.1225 0
M  V30 2226 H 202.051 2.63651 2.90225 0
M  V30 2227 H 203.541 2.00376 3.66387 0
M  V30 2228 N 203.978 -0.674533 1.42435 0
M  V30 2229 C 205.224 -1.43671 1.43131 0
M  V30 2230 C 205.557 -1.94142 0.0476021 0
M  V30 2231 O 204.832 -1.70924 -0.928188 0
M  V30 2232 C 205.115 -2.63355 2.45594 0
M  V30 2233 C 204.968 -2.18514 3.93156 0
M  V30 2234 C 206.287 -3.65571 2.45043 0
M  V30 2235 H 203.406 -0.521077 0.521198 0
M  V30 2236 H 206.048 -0.766551 1.7385 0
M  V30 2237 H 204.198 -3.2053 2.19528 0
M  V30 2238 H 205.87 -1.66504 4.30202 0
M  V30 2239 H 204.113 -1.50086 4.07009 0
M  V30 2240 H 204.784 -3.04484 4.60428 0
M  V30 2241 H 207.26 -3.18113 2.68223 0
M  V30 2242 H 206.136 -4.46893 3.18713 0
M  V30 2243 H 206.397 -4.16716 1.47649 0
M  V30 2244 N 205.456 -1.28612 -0.910864 0
M  V30 2245 C 206.702 -1.17116 -1.66299 0
M  V30 2246 C 207.057 0.276917 -1.90397 0
M  V30 2247 O 206.35 1.19795 -1.49532 0
M  V30 2248 C 206.544 -1.90624 -3.0232 0
M  V30 2249 C 206.373 -3.42431 -2.91498 0
M  V30 2250 C 205.143 -4.11773 -2.92867 0
M  V30 2251 C 207.341 -4.38124 -2.69355 0
M  V30 2252 N 205.323 -5.50025 -2.72664 0
M  V30 2253 C 206.694 -5.63759 -2.58023 0
M  V30 2254 C 208.749 -4.28016 -2.54375 0
M  V30 2255 C 207.452 -6.80436 -2.33238 0
M  V30 2256 C 209.478 -5.44433 -2.30969 0
M  V30 2257 C 208.84 -6.69034 -2.20394 0
M  V30 2258 H 204.939 -0.483506 -0.61461 0
M  V30 2259 H 207.523 -1.62299 -1.0755 0
M  V30 2260 H 205.694 -1.4787 -3.5915 0
M  V30 2261 H 207.426 -1.71488 -3.66571 0
M  V30 2262 H 204.181 -3.63378 -3.03732 0
M  V30 2263 H 204.605 -6.22705 -2.65646 0
M  V30 2264 H 209.247 -3.32388 -2.613 0
M  V30 2265 H 206.965 -7.7613 -2.25051 0
M  V30 2266 H 210.551 -5.38504 -2.20238 0
M  V30 2267 H 209.431 -7.57595 -2.02531 0
M  V30 2268 N 206.934 1.1197 -1.10907 0
M  V30 2269 C 208.18 1.8386 -0.855773 0
M  V30 2270 C 208.513 1.84134 0.617103 0
M  V30 2271 O 207.788 1.29041 1.45529 0
M  V30 2272 C 208.071 3.31305 -1.411 0
M  V30 2273 C 207.924 3.39456 -2.9511 0
M  V30 2274 C 209.243 4.2721 -1.05736 0
M  V30 2275 H 206.362 0.667545 -0.312334 0
M  V30 2276 H 209.004 1.31331 -1.37303 0
M  V30 2277 H 207.154 3.76169 -0.97105 0
M  V30 2278 H 208.826 3.03191 -3.47668 0
M  V30 2279 H 207.069 2.79849 -3.31462 0
M  V30 2280 H 207.74 4.43209 -3.29044 0
M  V30 2281 H 210.216 3.90497 -1.43706 0
M  V30 2282 H 209.092 5.28775 -1.47269 0
M  V30 2283 H 209.353 4.42088 0.0325958 0
M  V30 2284 N 208.412 0.89855 1.29475 0
M  V30 2285 C 209.342 0.39201 2.30186 0
M  V30 2286 C 210.323 -0.532359 1.61555 0
M  V30 2287 O 211.508 -0.443331 1.89072 0
M  V30 2288 C 208.638 -0.382353 3.45189 0
M  V30 2289 C 207.592 0.451483 4.25612 0
M  V30 2290 C 206.918 -0.450307 5.328 0
M  V30 2291 C 208.218 1.70079 4.93832 0
M  V30 2292 H 209.912 1.23362 2.72804 0
M  V30 2293 H 207.458 0.594638 1.31149 0
M  V30 2294 H 209.411 -0.747451 4.14718 0
M  V30 2295 H 208.135 -1.25774 3.01411 0
M  V30 2296 H 206.794 0.798897 3.57789 0
M  V30 2297 H 206.442 -1.32379 4.85268 0
M  V30 2298 H 206.142 0.103902 5.87508 0
M  V30 2299 H 207.666 -0.811623 6.05182 0
M  V30 2300 H 209.08 1.40549 5.55805 0
M  V30 2301 H 207.477 2.19623 5.58467 0
M  V30 2302 H 208.547 2.43744 4.19186 0
M  V30 2303 N 209.89 -1.43072 0.660911 0
M  V30 2304 C 210.853 -2.29194 -0.0166406 0
M  V30 2305 C 211.853 -1.42609 -0.742912 0
M  V30 2306 O 213.043 -1.64155 -0.583004 0
M  V30 2307 C 210.175 -3.24831 -1.0343 0
M  V30 2308 H 211.368 -2.90596 0.741208 0
M  V30 2309 H 208.921 -1.5048 0.422532 0
M  V30 2310 H 209.656 -2.68339 -1.82111 0
M  V30 2311 H 209.441 -3.88676 -0.517082 0
M  V30 2312 H 210.931 -3.89451 -1.50723 0
M  V30 2313 N 211.368 -0.403325 -1.52352 0
M  V30 2314 C 212.615 0.174347 -2.01748 0
M  V30 2315 C 212.943 1.45636 -1.2892 0
M  V30 2316 O 212.198 1.9193 -0.382258 0
M  V30 2317 C 212.497 0.474665 -3.54234 0
M  V30 2318 C 212.163 -0.717458 -4.45155 0
M  V30 2319 C 210.825 -1.04447 -4.69728 0
M  V30 2320 C 213.177 -1.51432 -4.98716 0
M  V30 2321 C 210.505 -2.16963 -5.45109 0
M  V30 2322 C 212.857 -2.6302 -5.75329 0
M  V30 2323 C 211.521 -2.96213 -5.98175 0
M  V30 2324 H 210.791 0.0637981 -0.738248 0
M  V30 2325 H 213.438 -0.543553 -1.83624 0
M  V30 2326 H 211.743 1.27406 -3.70506 0
M  V30 2327 H 213.44 0.934496 -3.89959 0
M  V30 2328 H 210.03 -0.452596 -4.26204 0
M  V30 2329 H 214.214 -1.27491 -4.79645 0
M  V30 2330 H 209.47 -2.43034 -5.61021 0
M  V30 2331 H 213.644 -3.25158 -6.15829 0
M  V30 2332 H 211.271 -3.83516 -6.56368 0
M  V30 2333 N 212.846 1.57033 -0.133567 0
M  V30 2334 C 213.776 2.1909 0.807567 0
M  V30 2335 C 214.757 1.13517 1.26681 0
M  V30 2336 O 215.942 1.41809 1.32679 0
M  V30 2337 C 213.072 2.80188 2.05212 0
M  V30 2338 C 212.026 3.91471 1.73015 0
M  V30 2339 C 211.352 4.39443 3.04622 0
M  V30 2340 C 212.652 5.12886 0.987168 0
M  V30 2341 H 214.346 2.97988 0.290403 0
M  V30 2342 H 211.892 1.43335 0.138239 0
M  V30 2343 H 213.845 3.22264 2.71521 0
M  V30 2344 H 212.569 1.98601 2.59278 0
M  V30 2345 H 211.228 3.49993 1.0909 0
M  V30 2346 H 210.876 3.54695 3.56651 0
M  V30 2347 H 210.576 5.14495 2.83847 0
M  V30 2348 H 212.1 4.8418 3.72024 0
M  V30 2349 H 213.514 5.51891 1.55208 0
M  V30 2350 H 211.911 5.93615 0.87985 0
M  V30 2351 H 212.981 4.84894 -0.0235286 0
M  V30 2352 N 214.325 -0.140222 1.56975 0
M  V30 2353 C 215.571 -0.852949 1.83991 0
M  V30 2354 C 215.904 -1.80512 0.716187 0
M  V30 2355 O 215.179 -1.92479 -0.279681 0
M  V30 2356 C 215.462 -1.6215 3.21527 0
M  V30 2357 C 215.315 -0.690363 4.4447 0
M  V30 2358 C 216.634 -2.58247 3.56366 0
M  V30 2359 H 213.753 -0.308634 0.669264 0
M  V30 2360 H 216.395 -0.117898 1.89634 0
M  V30 2361 H 214.545 -2.24812 3.16847 0
M  V30 2362 H 216.217 -0.0742264 4.6124 0
M  V30 2363 H 214.46 -0.000396433 4.338 0
M  V30 2364 H 215.131 -1.2643 5.37326 0
M  V30 2365 H 217.607 -2.05701 3.61699 0
M  V30 2366 H 216.483 -3.09067 4.53617 0
M  V30 2367 H 216.744 -3.39923 2.82674 0
M  V30 2368 N 215.803 -1.52179 -0.40978 0
M  V30 2369 C 216.751 -1.76086 -1.51975 0
M  V30 2370 C 217.745 -0.627964 -1.57331 0
M  V30 2371 O 218.951 -0.809993 -1.60745 0
M  V30 2372 H 215.326 -0.556829 -0.505416 0
M  V30 2373 H 217.297 -2.69077 -1.28996 0
M  V30 2374 C 216.046 -1.92799 -2.8935 0
M  V30 2375 H 215.369 -2.79392 -2.85972 0
M  V30 2376 H 216.809 -2.13527 -3.66309 0
M  V30 2377 C 215.268 -0.694923 -3.29655 0
M  V30 2378 O 215.798 0.13751 -4.01465 0
M  V30 2379 N 214.004 -0.53101 -2.85707 0
M  V30 2380 H 213.551 -1.20952 -2.27439 0
M  V30 2381 H 213.509 0.292718 -3.13034 0
M  V30 2382 N 217.281 0.66697 -1.42791 0
M  V30 2383 C 218.529 1.42417 -1.43394 0
M  V30 2384 C 218.85 1.94925 -0.0542373 0
M  V30 2385 O 218.12 1.73564 0.908415 0
M  V30 2386 H 216.7 0.528515 -0.527902 0
M  V30 2387 H 219.362 0.787562 -1.78279 0
M  V30 2388 H 218.458 2.27333 -2.13837 0
M  V30 2389 N 218.759 1.29093 0.90403 0
M  V30 2390 C 220.17 1.15186 1.46932 0
M  V30 2391 C 220.521 -0.254587 1.94541 0
M  V30 2392 O 219.646 -1.14972 1.83332 0
M  V30 2393 C 220.241 2.08492 2.67051 0
M  V30 2394 C 218.8 1.98621 3.19729 0
M  V30 2395 C 217.947 1.9967 1.92425 0
M  V30 2396 H 220.898 1.41641 0.715789 0
M  V30 2397 H 220.919 1.65461 3.42641 0
M  V30 2398 H 220.431 3.10847 2.3237 0
M  V30 2399 H 218.532 0.993389 3.59114 0
M  V30 2400 H 218.645 2.86068 3.8432 0
M  V30 2401 H 217.009 1.44208 2.09943 0
M  V30 2402 H 217.792 3.03721 1.60026 0
M  V30 2403 N 220.237 -1.11381 1.11499 0
M  V30 2404 C 221.17 -2.16621 0.71769 0
M  V30 2405 C 222.148 -1.60058 -0.286413 0
M  V30 2406 O 223.332 -1.87613 -0.182689 0
M  V30 2407 C 220.459 -3.38646 0.0607265 0
M  V30 2408 C 219.505 -4.13874 1.03008 0
M  V30 2409 S 220.338 -4.70731 2.55289 0
M  V30 2410 C 221.494 -5.96079 1.90895 0
M  V30 2411 H 221.727 -2.49987 1.60915 0
M  V30 2412 H 219.26 -1.23015 0.933092 0
M  V30 2413 H 221.218 -4.09313 -0.311965 0
M  V30 2414 H 219.879 -3.03537 -0.807702 0
M  V30 2415 H 219.072 -5.01333 0.517853 0
M  V30 2416 H 218.674 -3.4897 1.34522 0
M  V30 2417 H 220.966 -6.65948 1.24577 0
M  V30 2418 H 221.909 -6.51946 2.76354 0
M  V30 2419 H 222.317 -5.47652 1.36885 0
M  V30 2420 N 221.715 -0.905404 -1.28997 0
M  V30 2421 C 222.964 -0.530191 -1.94607 0
M  V30 2422 C 223.277 0.929185 -1.72121 0
M  V30 2423 O 224.483 1.41218 -2.31883 0
M  V30 2424 C 222.939 -0.897333 -3.48534 0
M  V30 2425 C 222.547 -2.37587 -3.79811 0
M  V30 2426 C 224.291 -0.592304 -4.20347 0
M  V30 2427 C 222.198 -2.68357 -5.27009 0
M  V30 2428 H 221.128 -0.194558 -0.728466 0
M  V30 2429 H 223.779 -1.10318 -1.46636 0
M  V30 2430 H 222.161 -0.253214 -3.9519 0
M  V30 2431 H 223.335 -3.06602 -3.43994 0
M  V30 2432 H 221.65 -2.6505 -3.2115 0
M  V30 2433 H 224.247 -0.798975 -5.28697 0
M  V30 2434 H 224.59 0.469474 -4.13644 0
M  V30 2435 H 225.123 -1.19452 -3.79442 0
M  V30 2436 H 221.862 -3.73355 -5.38782 0
M  V30 2437 H 221.382 -2.03971 -5.64053 0
M  V30 2438 H 223.061 -2.54922 -5.94663 0
M  V30 2439 N 223.193 1.4272 -0.668489 0
M  V30 2440 C 224.123 2.335 -0.000100175 0
M  V30 2441 C 225.104 1.50328 0.795964 0
M  V30 2442 O 226.289 1.78949 0.754385 0
M  V30 2443 C 223.419 3.33874 0.956302 0
M  V30 2444 C 222.373 4.27152 0.269278 0
M  V30 2445 C 221.699 5.17684 1.33818 0
M  V30 2446 C 222.999 5.15373 -0.847805 0
M  V30 2447 H 224.693 2.89639 -0.758244 0
M  V30 2448 H 222.239 1.39269 -0.366079 0
M  V30 2449 H 224.192 3.9629 1.43292 0
M  V30 2450 H 222.916 2.76025 1.74579 0
M  V30 2451 H 221.575 3.66123 -0.187042 0
M  V30 2452 H 221.223 4.56165 2.1195 0
M  V30 2453 H 220.923 5.80918 0.883659 0
M  V30 2454 H 222.447 5.82974 1.81586 0
M  V30 2455 H 223.861 5.7151 -0.452681 0
M  V30 2456 H 222.258 5.87407 -1.22773 0
M  V30 2457 H 223.328 4.5415 -1.69929 0
M  V30 2458 N 224.671 0.411399 1.52136 0
M  V30 2459 C 225.917 -0.163888 2.02137 0
M  V30 2460 C 226.25 -1.44597 1.29636 0
M  V30 2461 O 225.525 -1.90272 0.403353 0
M  V30 2462 C 225.808 -0.40927 3.57767 0
M  V30 2463 C 225.661 0.889643 4.40914 0
M  V30 2464 C 226.98 -1.19042 4.23694 0
M  V30 2465 H 224.099 -0.0580896 0.734707 0
M  V30 2466 H 226.741 0.54531 1.82007 0
M  V30 2467 H 224.891 -1.0134 3.7505 0
M  V30 2468 H 226.563 1.52575 4.35337 0
M  V30 2469 H 224.806 1.50011 4.07037 0
M  V30 2470 H 225.477 0.672314 5.4789 0
M  V30 2471 H 227.953 -0.678942 4.10524 0
M  V30 2472 H 226.829 -1.33086 5.32522 0
M  V30 2473 H 227.09 -2.21166 3.82803 0
M  V30 2474 N 226.149 -1.5696 0.141893 0
M  V30 2475 C 227.374 -2.00754 -0.520838 0
M  V30 2476 C 227.799 -1.0213 -1.57959 0
M  V30 2477 O 227.157 0.00371324 -1.813 0
M  V30 2478 C 227.205 -3.43318 -1.10294 0
M  V30 2479 O 226.309 -3.47679 -2.21795 0
M  V30 2480 H 225.65 -0.651564 -0.127908 0
M  V30 2481 H 228.18 -2.03221 0.23712 0
M  V30 2482 H 228.19 -3.82012 -1.43287 0
M  V30 2483 H 226.865 -4.14608 -0.327574 0
M  V30 2484 H 225.442 -3.20824 -1.9007 0
M  V30 2485 N 227.627 0.131896 -1.57047 0
M  V30 2486 C 228.537 1.1815 -2.02676 0
M  V30 2487 C 229.553 1.46113 -0.944824 0
M  V30 2488 O 230.729 1.57485 -1.25541 0
M  V30 2489 C 227.794 2.49139 -2.41103 0
M  V30 2490 C 226.855 2.28688 -3.63318 0
M  V30 2491 C 226.088 3.53431 -3.99903 0
M  V30 2492 O 226.311 4.60223 -3.36973 0
M  V30 2493 O 225.245 3.45198 -4.93074 0
M  V30 2494 H 229.071 0.824069 -2.92306 0
M  V30 2495 H 226.656 0.341745 -1.45439 0
M  V30 2496 H 228.538 3.26338 -2.66611 0
M  V30 2497 H 227.213 2.84382 -1.54624 0
M  V30 2498 H 226.12 1.4939 -3.42977 0
M  V30 2499 H 227.453 1.98355 -4.50462 0
M  V30 2500 N 229.106 1.52395 0.401703 0
M  V30 2501 C 230.331 1.70972 1.17403 0
M  V30 2502 C 230.756 0.421615 1.83314 0
M  V30 2503 O 230.114 -0.621564 1.70312 0
M  V30 2504 C 230.162 2.85151 2.20728 0
M  V30 2505 O 229.266 2.51238 3.27037 0
M  V30 2506 H 228.607 0.568927 0.342372 0
M  V30 2507 H 231.137 1.99131 0.469891 0
M  V30 2508 H 231.147 3.10279 2.64936 0
M  V30 2509 H 229.822 3.78603 1.7214 0
M  V30 2510 H 228.399 2.36808 2.88057 0
M  V30 2511 N 230.584 -0.659388 1.43143 0
M  V30 2512 C 231.83 -1.41984 1.45644 0
M  V30 2513 C 232.185 -1.92245 0.0771718 0
M  V30 2514 O 231.478 -1.68976 -0.903205 0
M  V30 2515 C 231.672 -2.62206 2.42864 0
M  V30 2516 C 231.501 -2.23711 3.90107 0
M  V30 2517 C 230.271 -2.12332 4.58523 0
M  V30 2518 C 232.469 -1.84384 4.80112 0
M  V30 2519 N 230.451 -1.67102 5.9072 0
M  V30 2520 C 231.822 -1.5019 6.01534 0
M  V30 2521 C 233.877 -1.71512 4.67427 0
M  V30 2522 C 232.58 -1.04414 7.11681 0
M  V30 2523 C 234.606 -1.27142 5.77572 0
M  V30 2524 C 233.968 -0.938808 6.98116 0
M  V30 2525 H 230.067 -0.515448 0.588079 0
M  V30 2526 H 232.651 -0.759409 1.79279 0
M  V30 2527 H 230.822 -3.25917 2.11265 0
M  V30 2528 H 232.554 -3.28877 2.35843 0
M  V30 2529 H 229.309 -2.31893 4.12944 0
M  V30 2530 H 229.733 -1.46866 6.60878 0
M  V30 2531 H 234.375 -1.95868 3.74694 0
M  V30 2532 H 232.093 -0.788061 8.04248 0
M  V30 2533 H 235.679 -1.17681 5.69774 0
M  V30 2534 H 234.559 -0.6007 7.81896 0
M  V30 2535 N 232.062 -1.29571 -0.897171 0
M  V30 2536 C 233.009 -1.14916 -2.00158 0
M  V30 2537 C 233.979 -0.0418149 -1.66047 0
M  V30 2538 O 235.164 -0.209793 -1.89643 0
M  V30 2539 C 232.304 -0.834307 -3.34863 0
M  V30 2540 C 231.417 -2.02234 -3.8174 0
M  V30 2541 C 230.552 -1.64664 -5.05034 0
M  V30 2542 C 229.591 -2.80033 -5.44286 0
M  V30 2543 N 228.728 -2.42843 -6.58765 0
M  V30 2544 H 233.568 -2.09403 -2.12025 0
M  V30 2545 H 231.105 -1.042 -1.0383 0
M  V30 2546 H 233.063 -0.632436 -4.12379 0
M  V30 2547 H 231.693 0.0736656 -3.22716 0
M  V30 2548 H 230.745 -2.33583 -3.00238 0
M  V30 2549 H 232.057 -2.88673 -4.06779 0
M  V30 2550 H 231.211 -1.4078 -5.9014 0
M  V30 2551 H 229.95 -0.753766 -4.8184 0
M  V30 2552 H 228.955 -3.04596 -4.57713 0
M  V30 2553 H 230.18 -3.69989 -5.6946 0
M  V30 2554 H 228.126 -1.56046 -6.3717 0
M  V30 2555 H 228.043 -3.22815 -6.83613 0
M  V30 2556 H 229.311 -2.22285 -7.47134 0
M  V30 2557 N 233.54 1.10788 -1.12088 0
M  V30 2558 C 234.817 1.79136 -0.785476 0
M  V30 2559 C 235.197 1.98246 0.725377 0
M  V30 2560 O 234.545 1.57258 1.65778 0
M  V30 2561 C 234.755 3.12375 -1.55636 0
M  V30 2562 C 236.103 3.8731 -1.74001 0
M  V30 2563 O 237.127 3.22085 -1.52117 0
M  V30 2564 O 235.986 5.04369 -2.10415 0
M  V30 2565 H 233.08 0.776226 -0.285311 0
M  V30 2566 H 235.626 1.1747 -1.2247 0
M  V30 2567 H 234.398 2.93863 -2.5838 0
M  V30 2568 H 234.021 3.81758 -1.11114 0
M  V30 2569 N 235.018 0.912232 1.28515 0
M  V30 2570 C 235.928 0.404506 2.31086 0
M  V30 2571 C 236.944 -0.50707 1.66448 0
M  V30 2572 O 238.12 -0.393624 1.97516 0
M  V30 2573 C 235.185 -0.348572 3.44943 0
M  V30 2574 C 234.246 0.59604 4.25142 0
M  V30 2575 C 233.479 -0.121194 5.33562 0
M  V30 2576 O 233.702 -1.34317 5.5436 0
M  V30 2577 O 232.636 0.542716 5.99448 0
M  V30 2578 H 236.462 1.25579 2.76521 0
M  V30 2579 H 234.047 0.676998 1.33181 0
M  V30 2580 H 235.929 -0.77395 4.14232 0
M  V30 2581 H 234.604 -1.17571 3.01594 0
M  V30 2582 H 233.511 1.07079 3.58448 0
M  V30 2583 H 234.844 1.38995 4.72167 0
M  V30 2584 N 236.496 -1.42363 0.676048 0
M  V30 2585 C 237.744 -2.01123 0.198437 0
M  V30 2586 C 238.065 -1.53731 -1.19966 0
M  V30 2587 O 237.335 -0.759518 -1.80577 0
M  V30 2588 H 235.915 -0.743678 0.0703721 0
M  V30 2589 H 238.577 -1.74263 0.872837 0
M  V30 2590 H 237.673 -3.11454 0.200686 0
M  V30 2591 N 237.974 -0.419461 -1.51915 0
M  V30 2592 C 239.199 0.154572 -2.06823 0
M  V30 2593 C 239.624 1.3722 -1.28656 0
M  V30 2594 O 238.982 1.78461 -0.319583 0
M  V30 2595 C 239.03 0.473172 -3.57482 0
M  V30 2596 O 238.134 1.56255 -3.81652 0
M  V30 2597 H 237.475 0.0096924 -0.663929 0
M  V30 2598 H 240.005 -0.595642 -1.95738 0
M  V30 2599 H 240.015 0.728825 -4.01438 0
M  V30 2600 H 238.69 -0.416873 -4.13805 0
M  V30 2601 H 237.267 1.29825 -3.49571 0
M  V30 2602 N 239.452 1.56882 -0.150215 0
M  V30 2603 C 240.362 2.20494 0.801222 0
M  V30 2604 C 241.378 1.19019 1.26927 0
M  V30 2605 O 242.554 1.51607 1.32579 0
M  V30 2606 C 239.619 2.81659 2.02161 0
M  V30 2607 C 238.68 3.9827 1.60249 0
M  V30 2608 C 237.913 4.56508 2.7647 0
M  V30 2609 O 238.136 4.13627 3.92771 0
M  V30 2610 O 237.07 5.46719 2.51757 0
M  V30 2611 H 240.896 3.02315 0.289717 0
M  V30 2612 H 238.481 1.49202 0.0769684 0
M  V30 2613 H 240.363 3.20522 2.73576 0
M  V30 2614 H 239.038 2.02849 2.52258 0
M  V30 2615 H 237.945 3.64117 0.858477 0
M  V30 2616 H 239.278 4.78609 1.14864 0
M  V30 2617 N 240.93 -0.123565 1.57115 0
M  V30 2618 C 242.17 -0.838097 1.86428 0
M  V30 2619 C 242.534 -1.77266 0.737611 0
M  V30 2620 O 243.735 -2.52842 0.912389 0
M  V30 2621 C 242.006 -1.57219 3.20962 0
M  V30 2622 S 243.565 -2.32893 3.71896 0
M  V30 2623 H 240.383 -0.279811 0.653626 0
M  V30 2624 H 242.985 -0.0967034 1.95261 0
M  V30 2625 H 241.689 -0.877522 4.00909 0
M  V30 2626 H 241.22 -2.35405 3.15195 0
M  V30 2627 H 243.235 -3.5853 3.43032 0
M  V30 2628 N 242.408 -1.52605 -0.393616 0
M  V30 2629 C 243.318 -1.79971 -1.50492 0
M  V30 2630 C 244.334 -0.686181 -1.59899 0
M  V30 2631 O 245.51 -0.973274 -1.76322 0
M  V30 2632 C 242.575 -1.95867 -2.86072 0
M  V30 2633 C 241.636 -3.19781 -2.86424 0
M  V30 2634 C 240.869 -3.34909 -4.15538 0
M  V30 2635 O 241.092 -2.54948 -5.10253 0
M  V30 2636 O 240.026 -4.28141 -4.23059 0
M  V30 2637 H 243.852 -2.74328 -1.30299 0
M  V30 2638 H 241.437 -1.3764 -0.581005 0
M  V30 2639 H 243.319 -2.08056 -3.66457 0
M  V30 2640 H 241.994 -1.04699 -3.063 0
M  V30 2641 H 240.901 -3.13038 -2.04837 0
M  V30 2642 H 242.234 -4.1078 -2.71147 0
M  V30 2643 N 243.887 0.651787 -1.4349 0
M  V30 2644 C 245.298 1.233 -1.40193 0
M  V30 2645 C 245.649 1.9591 -0.106727 0
M  V30 2646 O 244.774 2.01316 0.793773 0
M  V30 2647 C 245.369 2.24257 -2.53957 0
M  V30 2648 C 243.928 2.77852 -2.5392 0
M  V30 2649 C 243.075 1.52517 -2.3159 0
M  V30 2650 H 246.026 0.443717 -1.52371 0
M  V30 2651 H 246.047 3.0646 -2.25528 0
M  V30 2652 H 245.559 1.71382 -3.4821 0
M  V30 2653 H 243.66 3.34786 -1.63551 0
M  V30 2654 H 243.773 3.25299 -3.51735 0
M  V30 2655 H 242.137 1.79915 -1.80285 0
M  V30 2656 H 242.92 1.01574 -3.27929 0
M  V30 2657 N 245.365 1.30045 0.890287 0
M  V30 2658 C 246.613 1.18327 1.63839 0
M  V30 2659 C 246.934 -0.263455 1.93212 0
M  V30 2660 O 246.204 -1.17856 1.56482 0
M  V30 2661 H 244.784 0.434933 0.607324 0
M  V30 2662 H 247.446 1.631 1.06698 0
M  V30 2663 H 246.542 1.74024 2.59079 0
M  V30 2664 N 246.843 -1.10192 1.12674 0
M  V30 2665 C 248.09 -1.82205 0.883606 0
M  V30 2666 C 248.418 -1.8532 -0.590492 0
M  V30 2667 O 247.673 -1.31137 -1.45264 0
M  V30 2668 C 247.972 -3.28552 1.4067 0
M  V30 2669 C 247.638 -3.45582 2.89627 0
M  V30 2670 C 246.3 -3.49937 3.30299 0
M  V30 2671 C 248.652 -3.50768 3.85501 0
M  V30 2672 C 245.98 -3.57049 4.65546 0
M  V30 2673 C 248.332 -3.59414 5.20581 0
M  V30 2674 C 246.996 -3.62034 5.60792 0
M  V30 2675 H 246.266 -0.666735 0.323334 0
M  V30 2676 H 248.913 -1.29868 1.40736 0
M  V30 2677 H 247.218 -3.83473 0.80347 0
M  V30 2678 H 248.915 -3.82788 1.19475 0
M  V30 2679 H 245.505 -3.42871 2.57172 0
M  V30 2680 H 249.689 -3.46651 3.55171 0
M  V30 2681 H 244.945 -3.57361 4.96088 0
M  V30 2682 H 249.119 -3.62371 5.94693 0
M  V30 2683 H 246.746 -3.67298 6.6558 0
M  V30 2684 N 248.321 -0.919034 -1.28029 0
M  V30 2685 C 249.568 -0.554934 -1.94748 0
M  V30 2686 C 249.896 0.90231 -1.72304 0
M  V30 2687 O 249.151 1.65767 -1.04018 0
M  V30 2688 C 249.45 -0.816855 -3.4794 0
M  V30 2689 C 249.116 -2.25448 -3.90492 0
M  V30 2690 C 247.778 -2.64752 -4.01821 0
M  V30 2691 C 250.13 -3.18977 -4.12193 0
M  V30 2692 C 247.458 -3.96727 -4.32232 0
M  V30 2693 C 249.81 -4.50523 -4.44086 0
M  V30 2694 C 248.474 -4.89673 -4.53626 0
M  V30 2695 H 247.744 -0.203065 -0.712633 0
M  V30 2696 H 250.391 -1.16136 -1.52265 0
M  V30 2697 H 248.696 -0.127677 -3.91592 0
M  V30 2698 H 250.393 -0.514238 -3.97689 0
M  V30 2699 H 246.983 -1.93952 -3.82205 0
M  V30 2700 H 251.167 -2.89817 -4.02889 0
M  V30 2701 H 246.423 -4.26754 -4.37825 0
M  V30 2702 H 250.597 -5.23005 -4.59825 0
M  V30 2703 H 248.224 -5.91969 -4.76946 0
M  V30 2704 N 249.799 1.42003 -0.683588 0
M  V30 2705 C 251.024 2.06265 -0.216647 0
M  V30 2706 C 251.449 1.51059 1.12083 0
M  V30 2707 O 250.807 0.632638 1.69904 0
M  V30 2708 C 250.855 3.60191 -0.171759 0
M  V30 2709 O 249.959 4.03396 0.857069 0
M  V30 2710 H 249.3 0.65502 -0.108834 0
M  V30 2711 H 251.83 1.81982 -0.935077 0
M  V30 2712 H 251.84 4.08 0.0014303 0
M  V30 2713 H 250.515 3.99743 -1.14796 0
M  V30 2714 H 249.092 3.67117 0.654208 0
M  V30 2715 N 251.277 0.427512 1.51691 0
M  V30 2716 C 252.187 -0.39527 2.31246 0
M  V30 2717 C 253.203 -1.03674 1.39742 0
M  V30 2718 O 254.379 -1.03425 1.72816 0
M  V30 2719 C 251.444 -1.48706 3.13189 0
M  V30 2720 C 250.505 -0.866743 4.20459 0
M  V30 2721 C 249.738 -1.90651 4.98486 0
M  V30 2722 O 249.961 -3.12733 4.77026 0
M  V30 2723 O 248.895 -1.5025 5.82845 0
M  V30 2724 H 252.721 0.253918 3.02637 0
M  V30 2725 H 250.306 0.190274 1.48183 0
M  V30 2726 H 252.188 -2.12047 3.64162 0
M  V30 2727 H 250.863 -2.12051 2.44573 0
M  V30 2728 H 249.77 -0.195544 3.73589 0
M  V30 2729 H 251.103 -0.276934 4.9142 0
M  V30 2730 N 252.755 -1.56801 0.158532 0
M  V30 2731 C 254.001 -1.97559 -0.483957 0
M  V30 2732 C 254.356 -1.04239 -1.61716 0
M  V30 2733 O 253.649 -0.079603 -1.91435 0
M  V30 2734 C 253.843 -3.4235 -1.02623 0
M  V30 2735 C 253.672 -4.49669 0.0528929 0
M  V30 2736 C 252.442 -5.02838 0.498234 0
M  V30 2737 C 254.64 -5.0725 0.848616 0
M  V30 2738 N 252.622 -5.93775 1.559 0
M  V30 2739 C 253.993 -5.94506 1.7596 0
M  V30 2740 C 256.048 -4.89788 0.895121 0
M  V30 2741 C 254.751 -6.66169 2.71314 0
M  V30 2742 C 256.777 -5.62161 1.83654 0
M  V30 2743 C 256.139 -6.49134 2.73503 0
M  V30 2744 H 252.238 -0.768332 -0.145566 0
M  V30 2745 H 254.822 -1.93012 0.255799 0
M  V30 2746 H 252.993 -3.47467 -1.73555 0
M  V30 2747 H 254.725 -3.70145 -1.63629 0
M  V30 2748 H 251.48 -4.73498 0.0983222 0
M  V30 2749 H 251.904 -6.43948 2.08949 0
M  V30 2750 H 256.546 -4.22255 0.21453 0
M  V30 2751 H 254.264 -7.32923 3.40367 0
M  V30 2752 H 257.85 -5.5064 1.87847 0
M  V30 2753 H 256.73 -7.04153 3.45163 0
M  V30 2754 N 254.233 0.115231 -1.57178 0
M  V30 2755 C 255.463 0.835224 -1.88964 0
M  V30 2756 C 255.871 1.73774 -0.74829 0
M  V30 2757 O 255.214 1.81401 0.289739 0
M  V30 2758 C 255.276 1.7178 -3.15804 0
M  V30 2759 C 254.94 0.989198 -4.46166 0
M  V30 2760 C 255.937 0.328263 -5.18863 0
M  V30 2761 C 253.622 0.969256 -4.9286 0
M  V30 2762 C 255.616 -0.342873 -6.36477 0
M  V30 2763 C 253.303 0.294324 -6.10391 0
M  V30 2764 C 254.301 -0.360582 -6.82048 0
M  V30 2765 O 253.989 -1.02474 -7.97342 0
M  V30 2766 H 253.721 0.245197 -0.629964 0
M  V30 2767 H 256.275 0.10303 -2.05141 0
M  V30 2768 H 254.505 2.49173 -2.95719 0
M  V30 2769 H 256.194 2.31255 -3.33581 0
M  V30 2770 H 256.96 0.335263 -4.8384 0
M  V30 2771 H 252.839 1.46844 -4.36987 0
M  V30 2772 H 256.383 -0.854629 -6.92345 0
M  V30 2773 H 252.28 0.285099 -6.4487 0
M  V30 2774 H 253.048 -0.929594 -8.13204 0
M  V30 2775 N 255.711 1.52812 0.385517 0
M  V30 2776 C 256.96 1.67249 1.12741 0
M  V30 2777 C 257.273 0.4205 1.91027 0
M  V30 2778 O 258.479 0.445064 2.67827 0
M  V30 2779 C 256.935 2.95583 2.05326 0
M  V30 2780 C 256.543 4.27974 1.32447 0
M  V30 2781 C 258.287 3.19386 2.7963 0
M  V30 2782 C 256.194 5.47412 2.23818 0
M  V30 2783 H 255.124 0.6231 0.424573 0
M  V30 2784 H 257.775 1.79309 0.389924 0
M  V30 2785 H 256.157 2.77277 2.82725 0
M  V30 2786 H 257.331 4.56844 0.602495 0
M  V30 2787 H 255.646 4.10459 0.700885 0
M  V30 2788 H 258.243 4.05801 3.48181 0
M  V30 2789 H 258.586 2.34604 3.43899 0
M  V30 2790 H 259.119 3.38274 2.09322 0
M  V30 2791 H 255.858 6.34612 1.64157 0
M  V30 2792 H 255.378 5.22849 2.93921 0
M  V30 2793 H 257.057 5.81423 2.83824 0
M  V30 2794 N 257.189 -0.644168 1.43834 0
M  V30 2795 C 258.119 -1.76814 1.52509 0
M  V30 2796 C 259.1 -1.65823 0.379052 0
M  V30 2797 O 260.285 -1.84781 0.597466 0
M  V30 2798 C 257.415 -3.15288 1.4564 0
M  V30 2799 C 256.369 -3.41053 2.58586 0
M  V30 2800 C 255.695 -4.79421 2.36769 0
M  V30 2801 C 256.995 -3.34902 4.00797 0
M  V30 2802 H 258.689 -1.69812 2.46586 0
M  V30 2803 H 256.235 -0.815542 1.1868 0
M  V30 2804 H 258.188 -3.93681 1.50311 0
M  V30 2805 H 256.912 -3.23043 0.480725 0
M  V30 2806 H 255.571 -2.65035 2.53282 0
M  V30 2807 H 255.219 -4.83863 1.37424 0
M  V30 2808 H 254.919 -4.9762 3.12487 0
M  V30 2809 H 256.443 -5.6006 2.43238 0
M  V30 2810 H 257.857 -4.03218 4.07539 0
M  V30 2811 H 256.254 -3.64637 4.76613 0
M  V30 2812 H 257.324 -2.32928 4.25291 0
M  V30 2813 N 258.668 -1.30515 -0.883378 0
M  V30 2814 C 259.631 -1.1701 -1.97082 0
M  V30 2815 C 260.631 -0.10089 -1.60483 0
M  V30 2816 O 261.821 -0.349127 -1.70666 0
M  V30 2817 C 258.953 -0.793045 -3.31547 0
M  V30 2818 H 260.146 -2.13622 -2.10489 0
M  V30 2819 H 257.699 -1.13935 -1.06998 0
M  V30 2820 H 258.434 0.172499 -3.23841 0
M  V30 2821 H 258.219 -1.56576 -3.5948 0
M  V30 2822 H 259.709 -0.722073 -4.1131 0
M  V30 2823 N 260.146 1.09593 -1.13257 0
M  V30 2824 C 261.395 1.81105 -0.887917 0
M  V30 2825 C 261.708 1.86563 0.587672 0
M  V30 2826 O 262.914 2.54367 0.949204 0
M  V30 2827 C 261.37 3.25338 -1.53895 0
M  V30 2828 C 260.978 3.28151 -3.04994 0
M  V30 2829 C 262.722 4.01617 -1.37492 0
M  V30 2830 C 260.629 4.66897 -3.6299 0
M  V30 2831 H 259.559 0.678661 -0.328534 0
M  V30 2832 H 262.21 1.23183 -1.36008 0
M  V30 2833 H 260.592 3.8331 -0.994446 0
M  V30 2834 H 261.766 2.79953 -3.66009 0
M  V30 2835 H 260.081 2.65361 -3.20893 0
M  V30 2836 H 262.678 5.04119 -1.78235 0
M  V30 2837 H 263.021 4.15072 -0.31957 0
M  V30 2838 H 263.554 3.50082 -1.88912 0
M  V30 2839 H 260.293 4.58643 -4.68323 0
M  V30 2840 H 259.813 5.15426 -3.06752 0
M  V30 2841 H 261.492 5.3587 -3.62563 0
M  V30 2842 N 261.624 0.925811 1.2754 0
M  V30 2843 C 262.852 0.581509 1.9856 0
M  V30 2844 C 263.267 -0.840041 1.69082 0
M  V30 2845 O 262.624 -1.55805 0.950312 0
M  V30 2846 C 262.675 0.795589 3.52637 0
M  V30 2847 O 262.396 2.16121 3.81082 0
M  V30 2848 C 263.897 0.459744 4.4091 0
M  V30 2849 H 261.117 0.220538 0.633722 0
M  V30 2850 H 263.661 1.24232 1.6244 0
M  V30 2851 H 261.816 0.18161 3.86974 0
M  V30 2852 H 262.23 2.2098 4.75676 0
M  V30 2853 H 263.704 0.660244 5.48037 0
M  V30 2854 H 264.181 -0.604625 4.35018 0
M  V30 2855 H 264.787 1.05178 4.12089 0
M  V30 2856 N 263.102 -1.41638 0.69111 0
M  V30 2857 C 264.327 -2.06148 0.227583 0
M  V30 2858 C 264.752 -1.51652 -1.11281 0
M  V30 2859 O 264.11 -0.64164 -1.69566 0
M  V30 2860 C 264.158 -3.60095 0.190858 0
M  V30 2861 O 263.262 -4.03845 -0.835664 0
M  V30 2862 H 262.603 -0.654434 0.112306 0
M  V30 2863 H 265.133 -1.81484 0.944714 0
M  V30 2864 H 265.143 -4.07995 0.020207 0
M  V30 2865 H 263.818 -3.99129 1.16915 0
M  V30 2866 H 262.395 -3.67458 -0.63473 0
M  V30 2867 N 264.58 -0.43555 -1.51462 0
M  V30 2868 C 265.827 0.131514 -2.02072 0
M  V30 2869 C 266.155 1.42868 -1.31981 0
M  V30 2870 O 265.41 1.91076 -0.422883 0
M  V30 2871 C 265.709 0.39942 -3.55161 0
M  V30 2872 C 265.375 -0.81172 -4.43533 0
M  V30 2873 C 264.037 -1.14387 -4.67407 0
M  V30 2874 C 266.389 -1.61976 -4.95392 0
M  V30 2875 C 263.717 -2.28477 -5.40384 0
M  V30 2876 C 266.069 -2.75164 -5.6962 0
M  V30 2877 C 264.733 -3.08835 -5.91758 0
M  V30 2878 H 264.003 0.0481244 -0.739436 0
M  V30 2879 H 266.65 -0.58238 -1.8243 0
M  V30 2880 H 264.955 1.19519 -3.73125 0
M  V30 2881 H 266.652 0.85157 -3.91854 0
M  V30 2882 H 263.242 -0.542898 -4.25148 0
M  V30 2883 H 267.426 -1.37637 -4.76833 0
M  V30 2884 H 262.682 -2.5488 -5.55739 0
M  V30 2885 H 266.856 -3.38147 -6.08793 0
M  V30 2886 H 264.483 -3.97353 -6.48086 0
M  V30 2887 N 266.058 1.56714 -0.166846 0
M  V30 2888 C 266.988 2.20754 0.760913 0
M  V30 2889 C 267.969 1.16178 1.24244 0
M  V30 2890 O 269.154 1.44592 1.29641 0
M  V30 2891 C 266.284 2.84478 1.99223 0
M  V30 2892 C 265.238 3.95053 1.64672 0
M  V30 2893 C 264.564 4.45805 2.95232 0
M  V30 2894 C 265.864 5.14865 0.878155 0
M  V30 2895 H 267.558 2.98537 0.22713 0
M  V30 2896 H 265.104 1.43596 0.107805 0
M  V30 2897 H 267.057 3.27951 2.64624 0
M  V30 2898 H 265.781 2.04056 2.55007 0
M  V30 2899 H 264.44 3.52228 1.01641 0
M  V30 2900 H 264.088 3.62181 3.49047 0
M  V30 2901 H 263.788 5.204 2.7287 0
M  V30 2902 H 265.312 4.91962 3.6167 0
M  V30 2903 H 266.726 5.55059 1.43466 0
M  V30 2904 H 265.123 5.95348 0.753738 0
M  V30 2905 H 266.193 4.84735 -0.126377 0
M  V30 2906 N 267.536 -0.106894 1.57237 0
M  V30 2907 C 268.446 -1.14911 2.0453 0
M  V30 2908 C 269.462 -1.44592 0.96795 0
M  V30 2909 O 270.638 -1.55468 1.2803 0
M  V30 2910 C 267.703 -2.45272 2.45036 0
M  V30 2911 C 266.764 -2.22879 3.66911 0
M  V30 2912 C 265.997 -3.47024 4.05475 0
M  V30 2913 O 266.22 -4.54804 3.44252 0
M  V30 2914 O 265.154 -3.3731 4.98504 0
M  V30 2915 H 268.98 -0.777461 2.9358 0
M  V30 2916 H 266.565 -0.318563 1.45964 0
M  V30 2917 H 268.447 -3.22055 2.71769 0
M  V30 2918 H 267.122 -2.81886 1.59129 0
M  V30 2919 H 266.029 -1.43915 3.45311 0
M  V30 2920 H 267.362 -1.91163 4.53561 0
M  V30 2921 N 269.014 -1.53014 -0.377408 0
M  V30 2922 C 270.261 -1.68623 -1.12128 0
M  V30 2923 C 270.589 -0.431997 -1.89642 0
M  V30 2924 O 269.844 0.585855 -1.86725 0
M  V30 2925 C 270.143 -2.87982 -2.11663 0
M  V30 2926 C 269.809 -4.24964 -1.50719 0
M  V30 2927 C 268.471 -4.62217 -1.33825 0
M  V30 2928 C 270.823 -5.10199 -1.06519 0
M  V30 2929 C 268.151 -5.82352 -0.712963 0
M  V30 2930 C 270.503 -6.30969 -0.453955 0
M  V30 2931 C 269.167 -6.66944 -0.272411 0
M  V30 2932 H 268.437 -0.617034 -0.410305 0
M  V30 2933 H 271.084 -1.8718 -0.404484 0
M  V30 2934 H 269.389 -2.63889 -2.89603 0
M  V30 2935 H 271.086 -2.97253 -2.6915 0
M  V30 2936 H 267.676 -3.95626 -1.64858 0
M  V30 2937 H 271.86 -4.81978 -1.18368 0
M  V30 2938 H 267.116 -6.08824 -0.560611 0
M  V30 2939 H 271.29 -6.96324 -0.103217 0
M  V30 2940 H 268.917 -7.59898 0.214181 0
M  V30 2941 N 270.492 0.636531 -1.44174 0
M  V30 2942 C 271.738 1.39826 -1.4689 0
M  V30 2943 C 272.071 1.93947 -0.0990585 0
M  V30 2944 O 271.346 1.73325 0.882544 0
M  V30 2945 C 271.629 2.56751 -2.5249 0
M  V30 2946 C 271.482 2.08014 -3.98811 0
M  V30 2947 C 272.801 3.58946 -2.54649 0
M  V30 2948 H 269.92 0.507075 -0.53483 0
M  V30 2949 H 272.562 0.720188 -1.75822 0
M  V30 2950 H 270.712 3.14597 -2.2795 0
M  V30 2951 H 272.384 1.5504 -4.34466 0
M  V30 2952 H 270.627 1.39242 -4.10846 0
M  V30 2953 H 271.298 2.92169 -4.68339 0
M  V30 2954 H 273.774 3.1089 -2.76563 0
M  V30 2955 H 272.65 4.38286 -3.3045 0
M  V30 2956 H 272.911 4.12655 -1.58646 0
M  V30 2957 N 271.97 1.30982 0.876444 0
M  V30 2958 C 273.219 1.19658 1.62373 0
M  V30 2959 C 273.532 -0.245636 1.94052 0
M  V30 2960 O 274.738 -0.48049 2.67214 0
M  V30 2961 C 273.194 2.09433 2.92687 0
M  V30 2962 C 272.802 3.58613 2.68516 0
M  V30 2963 C 274.546 2.06893 3.70669 0
M  V30 2964 C 272.453 4.40416 3.94699 0
M  V30 2965 H 271.383 0.444268 0.609214 0
M  V30 2966 H 274.034 1.55791 0.969605 0
M  V30 2967 H 272.416 1.66191 3.59439 0
M  V30 2968 H 273.59 4.10058 2.10212 0
M  V30 2969 H 271.905 3.63063 2.03898 0
M  V30 2970 H 274.502 2.65258 4.64265 0
M  V30 2971 H 274.845 1.05448 4.02724 0
M  V30 2972 H 275.378 2.48301 3.10792 0
M  V30 2973 H 272.117 5.42591 3.67798 0
M  V30 2974 H 271.637 3.93731 4.52477 0
M  V30 2975 H 273.316 4.52294 4.62644 0
M  V30 2976 N 273.449 -1.08991 1.13837 0
M  V30 2977 C 274.86 -1.62746 0.914917 0
M  V30 2978 C 275.211 -1.88403 -0.547594 0
M  V30 2979 O 274.336 -1.63706 -1.41525 0
M  V30 2980 C 274.931 -2.95662 1.65437 0
M  V30 2981 C 273.49 -3.46225 1.47666 0
M  V30 2982 C 272.637 -2.20562 1.6807 0
M  V30 2983 H 275.588 -0.922946 1.29102 0
M  V30 2984 H 275.609 -3.63825 1.11407 0
M  V30 2985 H 275.121 -2.76956 2.71877 0
M  V30 2986 H 273.222 -3.70046 0.435478 0
M  V30 2987 H 273.335 -4.23368 2.24268 0
M  V30 2988 H 271.699 -2.29439 1.10589 0
M  V30 2989 H 272.482 -2.0437 2.7584 0
M  V30 2990 N 274.927 -0.932562 -1.27047 0
M  V30 2991 C 276.173 -0.576412 -1.94436 0
M  V30 2992 C 276.506 0.880891 -1.73072 0
M  V30 2993 O 275.781 1.62905 -1.06264 0
M  V30 2994 C 276.064 -0.909031 -3.48437 0
M  V30 2995 C 275.917 -2.42044 -3.79123 0
M  V30 2996 C 277.236 -0.418341 -4.38107 0
M  V30 2997 H 274.355 -0.210888 -0.706184 0
M  V30 2998 H 276.997 -1.16522 -1.50075 0
M  V30 2999 H 275.147 -0.407947 -3.86352 0
M  V30 3000 H 276.819 -2.99359 -3.50973 0
M  V30 3001 H 275.062 -2.86758 -3.25503 0
M  V30 3002 H 275.733 -2.6037 -4.86736 0
M  V30 3003 H 278.209 -0.847856 -4.0737 0
M  V30 3004 H 277.085 -0.679981 -5.44672 0
M  V30 3005 H 277.346 0.681642 -4.36814 0
M  V30 3006 N 276.405 1.4127 -0.698611 0
M  V30 3007 C 277.654 2.00408 -0.227949 0
M  V30 3008 C 277.967 1.55981 1.18023 0
M  V30 3009 O 279.173 2.07699 1.74852 0
M  V30 3010 C 277.629 3.58129 -0.356636 0
M  V30 3011 C 277.237 4.11536 -1.77037 0
M  V30 3012 C 278.981 4.24466 0.0540969 0
M  V30 3013 C 276.888 5.61701 -1.85055 0
M  V30 3014 H 275.818 0.749586 -0.0814657 0
M  V30 3015 H 278.469 1.61713 -0.867249 0
M  V30 3016 H 276.851 3.94442 0.350965 0
M  V30 3017 H 278.025 3.86636 -2.50698 0
M  V30 3018 H 276.34 3.57736 -2.13105 0
M  V30 3019 H 278.937 5.34698 0.0146723 0
M  V30 3020 H 279.28 4.01687 1.09332 0
M  V30 3021 H 279.813 3.93198 -0.603337 0
M  V30 3022 H 276.552 5.89312 -2.8704 0
M  V30 3023 H 276.072 5.88519 -1.15783 0
M  V30 3024 H 277.751 6.26524 -1.61484 0
M  V30 3025 N 277.883 0.443576 1.51229 0
M  V30 3026 C 278.813 -0.355142 2.30783 0
M  V30 3027 C 279.794 -1.0154 1.36468 0
M  V30 3028 O 280.979 -1.01785 1.65389 0
M  V30 3029 C 278.109 -1.45312 3.15439 0
M  V30 3030 C 277.063 -0.916002 4.18083 0
M  V30 3031 C 276.389 -2.1102 4.91299 0
M  V30 3032 C 277.689 0.0538602 5.22272 0
M  V30 3033 H 279.383 0.308767 2.97804 0
M  V30 3034 H 276.929 0.149937 1.43217 0
M  V30 3035 H 278.882 -2.01914 3.69876 0
M  V30 3036 H 277.606 -2.14541 2.46252 0
M  V30 3037 H 276.265 -0.372145 3.64706 0
M  V30 3038 H 275.913 -2.78882 4.18609 0
M  V30 3039 H 275.613 -1.75717 5.60712 0
M  V30 3040 H 277.137 -2.68164 5.48562 0
M  V30 3041 H 278.551 -0.422069 5.71744 0
M  V30 3042 H 276.948 0.319776 5.99247 0
M  V30 3043 H 278.018 0.98858 4.74716 0
M  V30 3044 N 279.361 -1.56624 0.175154 0
M  V30 3045 C 280.607 -1.9729 -0.469506 0
M  V30 3046 C 280.94 -1.06128 -1.62636 0
M  V30 3047 O 280.215 -0.109183 -1.94193 0
M  V30 3048 C 280.498 -3.47375 -0.948804 0
M  V30 3049 C 280.351 -4.49317 0.208491 0
M  V30 3050 C 281.67 -4.00652 -1.82116 0
M  V30 3051 H 278.789 -0.717317 -0.16919 0
M  V30 3052 H 281.431 -1.88184 0.262062 0
M  V30 3053 H 279.581 -3.55267 -1.57219 0
M  V30 3054 H 281.253 -4.53482 0.845682 0
M  V30 3055 H 279.496 -4.25121 0.863395 0
M  V30 3056 H 280.167 -5.51741 -0.169059 0
M  V30 3057 H 282.643 -3.95416 -1.2956 0
M  V30 3058 H 281.519 -5.06075 -2.12554 0
M  V30 3059 H 281.78 -3.44699 -2.7683 0
M  V30 3060 N 280.839 0.0985539 -1.57292 0
M  V30 3061 C 281.802 1.10402 -2.00858 0
M  V30 3062 C 282.802 1.33146 -0.901593 0
M  V30 3063 O 283.992 1.29318 -1.16716 0
M  V30 3064 C 281.124 2.45394 -2.36632 0
M  V30 3065 H 282.317 0.729099 -2.90902 0
M  V30 3066 H 279.87 0.343495 -1.52479 0
M  V30 3067 H 280.605 2.87769 -1.49531 0
M  V30 3068 H 280.39 2.30235 -3.17387 0
M  V30 3069 H 281.88 3.17718 -2.71007 0
M  V30 3070 N 282.317 1.53212 0.369288 0
M  V30 3071 C 283.547 1.72868 1.13139 0
M  V30 3072 C 283.955 0.455754 1.83629 0
M  V30 3073 O 283.298 -0.580861 1.74275 0
M  V30 3074 C 283.36 2.83667 2.20847 0
M  V30 3075 C 283.024 4.24142 1.70155 0
M  V30 3076 C 284.021 5.06619 1.16763 0
M  V30 3077 C 281.706 4.70539 1.7578 0
M  V30 3078 C 283.7 6.33581 0.696678 0
M  V30 3079 C 281.387 5.97481 1.28297 0
M  V30 3080 C 282.385 6.78833 0.753307 0
M  V30 3081 O 282.073 8.03393 0.285475 0
M  V30 3082 H 281.805 0.581707 0.344373 0
M  V30 3083 H 284.359 2.00736 0.435243 0
M  V30 3084 H 282.589 2.51265 2.93944 0
M  V30 3085 H 284.278 2.91536 2.82421 0
M  V30 3086 H 285.044 4.71948 1.11758 0
M  V30 3087 H 280.923 4.07293 2.15949 0
M  V30 3088 H 284.467 6.97027 0.282581 0
M  V30 3089 H 280.364 6.31651 1.32994 0
M  V30 3090 H 281.132 8.17497 0.405145 0
M  V30 3091 N 283.795 -0.628877 1.44509 0
M  V30 3092 C 285.042 -1.38839 1.47411 0
M  V30 3093 C 285.37 -1.94202 0.10757 0
M  V30 3094 O 284.625 -1.74243 -0.890947 0
M  V30 3095 C 284.924 -2.56995 2.48371 0
M  V30 3096 C 284.59 -2.19908 3.93639 0
M  V30 3097 C 283.252 -2.09506 4.33198 0
M  V30 3098 C 285.604 -1.9064 4.85083 0
M  V30 3099 C 282.932 -1.68028 5.62124 0
M  V30 3100 C 285.284 -1.50655 6.14399 0
M  V30 3101 C 283.948 -1.38796 6.5291 0
M  V30 3102 H 283.218 -0.508048 0.539414 0
M  V30 3103 H 285.865 -0.712913 1.77735 0
M  V30 3104 H 284.17 -3.29786 2.11538 0
M  V30 3105 H 285.867 -3.15223 2.47861 0
M  V30 3106 H 282.457 -2.28922 3.62343 0
M  V30 3107 H 286.641 -1.97585 4.55273 0
M  V30 3108 H 281.897 -1.57452 5.90778 0
M  V30 3109 H 286.071 -1.27048 6.84713 0
M  V30 3110 H 283.698 -1.06429 7.52713 0
M  V30 3111 N 285.273 -1.31445 -0.869486 0
M  V30 3112 C 286.221 -1.19067 -1.99814 0
M  V30 3113 C 287.215 -0.0988569 -1.69111 0
M  V30 3114 O 288.421 -0.260781 -1.78101 0
M  V30 3115 H 284.796 -0.368677 -0.655425 0
M  V30 3116 H 286.767 -2.14555 -2.07385 0
M  V30 3117 C 285.516 -0.915323 -3.35436 0
M  V30 3118 H 284.839 -1.74759 -3.59582 0
M  V30 3119 H 286.279 -0.868895 -4.15001 0
M  V30 3120 C 284.738 0.381928 -3.34728 0
M  V30 3121 O 285.268 1.39857 -3.76567 0
M  V30 3122 N 283.474 0.398633 -2.87853 0
M  V30 3123 H 283.021 -0.429186 -2.54 0
M  V30 3124 H 282.979 1.26651 -2.87762 0
M  V30 3125 N 286.751 1.08385 -1.14413 0
M  V30 3126 C 287.684 2.14642 -0.774871 0
M  V30 3127 C 288.662 1.60761 0.243876 0
M  V30 3128 O 289.846 1.88031 0.132883 0
M  V30 3129 C 286.973 3.38366 -0.150491 0
M  V30 3130 C 286.019 4.10997 -1.13945 0
M  V30 3131 S 286.852 4.63797 -2.67679 0
M  V30 3132 C 288.008 5.90808 -2.06631 0
M  V30 3133 H 288.241 2.45633 -1.67487 0
M  V30 3134 H 285.774 1.20498 -0.96538 0
M  V30 3135 H 287.732 4.09996 0.203334 0
M  V30 3136 H 286.393 3.05572 0.72694 0
M  V30 3137 H 285.586 4.99783 -0.65059 0
M  V30 3138 H 285.188 3.4528 -1.43727 0
M  V30 3139 H 287.48 6.62411 -1.4219 0
M  V30 3140 H 288.423 6.4439 -2.93542 0
M  V30 3141 H 288.831 5.4383 -1.51357 0
M  V30 3142 N 288.23 0.939286 1.26551 0
M  V30 3143 C 289.178 0.43815 2.28436 0
M  V30 3144 C 290.172 -0.483587 1.62351 0
M  V30 3145 O 291.378 -0.362009 1.76322 0
M  V30 3146 H 287.753 0.123149 0.741848 0
M  V30 3147 H 289.724 1.31002 2.68106 0
M  V30 3148 C 288.473 -0.283052 3.46546 0
M  V30 3149 H 287.796 0.417043 3.97619 0
M  V30 3150 H 289.236 -0.597948 4.19763 0
M  V30 3151 C 287.695 -1.50018 3.01656 0
M  V30 3152 O 288.225 -2.59855 3.0633 0
M  V30 3153 N 286.431 -1.35608 2.57019 0
M  V30 3154 H 285.978 -0.46244 2.53415 0
M  V30 3155 H 285.936 -2.17165 2.27347 0
M  V30 3156 N 289.708 -1.40897 0.706093 0
M  V30 3157 C 290.957 -2.00284 0.238574 0
M  V30 3158 C 291.27 -1.56604 -1.17194 0
M  V30 3159 O 292.476 -2.08624 -1.73748 0
M  V30 3160 C 290.932 -3.57934 0.375623 0
M  V30 3161 C 290.54 -4.10591 1.79217 0
M  V30 3162 C 292.284 -4.24488 -0.0315857 0
M  V30 3163 C 290.191 -5.60712 1.88032 0
M  V30 3164 H 289.121 -0.749144 0.0854398 0
M  V30 3165 H 291.772 -1.61251 0.875813 0
M  V30 3166 H 290.154 -3.94622 -0.330042 0
M  V30 3167 H 291.328 -3.85301 2.52745 0
M  V30 3168 H 289.643 -3.56601 2.15 0
M  V30 3169 H 292.24 -5.34698 0.0136842 0
M  V30 3170 H 292.583 -4.02261 -1.072 0
M  V30 3171 H 293.116 -3.92873 0.624181 0
M  V30 3172 H 289.855 -5.87781 2.90161 0
M  V30 3173 H 289.375 -5.87896 1.18903 0
M  V30 3174 H 291.054 -6.25658 1.64805 0
M  V30 3175 N 291.186 -0.45159 -1.50991 0
M  V30 3176 C 292.416 0.108177 -2.06317 0
M  V30 3177 C 292.824 1.35774 -1.31765 0
M  V30 3178 O 292.167 1.79838 -0.374694 0
M  V30 3179 C 292.229 0.481659 -3.56259 0
M  V30 3180 C 291.893 -0.663114 -4.52163 0
M  V30 3181 C 292.89 -1.53947 -4.96585 0
M  V30 3182 C 290.575 -0.8479 -4.95092 0
M  V30 3183 C 292.569 -2.58518 -5.82621 0
M  V30 3184 C 290.256 -1.89686 -5.80915 0
M  V30 3185 C 291.254 -2.76388 -6.24579 0
M  V30 3186 O 290.942 -3.79482 -7.08695 0
M  V30 3187 H 290.674 0.00499183 -0.675982 0
M  V30 3188 H 293.228 -0.633659 -1.95381 0
M  V30 3189 H 291.458 1.27641 -3.65027 0
M  V30 3190 H 293.147 0.974233 -3.94035 0
M  V30 3191 H 293.913 -1.4083 -4.64103 0
M  V30 3192 H 289.792 -0.18258 -4.60638 0
M  V30 3193 H 293.336 -3.26224 -6.16623 0
M  V30 3194 H 289.233 -2.02817 -6.12809 0
M  V30 3195 H 290.001 -3.76234 -7.26905 0
M  V30 3196 N 292.664 1.56529 -0.183458 0
M  V30 3197 C 293.91 1.98304 0.452466 0
M  V30 3198 C 294.265 1.06799 1.60037 0
M  V30 3199 O 293.558 0.110049 1.91284 0
M  V30 3200 C 293.752 3.43939 0.971637 0
M  V30 3201 C 293.581 4.49528 -0.124425 0
M  V30 3202 C 292.351 5.01981 -0.578168 0
M  V30 3203 C 294.549 5.05836 -0.929207 0
M  V30 3204 N 292.531 5.91219 -1.65327 0
M  V30 3205 C 293.902 5.91632 -1.85396 0
M  V30 3206 C 295.957 4.88302 -0.972929 0
M  V30 3207 C 294.66 6.61768 -2.81878 0
M  V30 3208 C 296.686 5.59168 -1.92574 0
M  V30 3209 C 296.048 6.44701 -2.83795 0
M  V30 3210 H 292.147 0.770551 0.133324 0
M  V30 3211 H 294.731 1.92581 -0.286473 0
M  V30 3212 H 292.902 3.50184 1.68006 0
M  V30 3213 H 294.634 3.72702 1.5772 0
M  V30 3214 H 291.389 4.73282 -0.173639 0
M  V30 3215 H 291.813 6.40543 -2.19167 0
M  V30 3216 H 296.455 4.21861 -0.28168 0
M  V30 3217 H 294.173 7.27415 -3.51984 0
M  V30 3218 H 297.759 5.47582 -1.96583 0
M  V30 3219 H 296.639 6.98573 -3.56322 0
M  V30 3220 N 294.142 -0.090211 1.57342 0
M  V30 3221 C 295.367 -0.810082 1.90925 0
M  V30 3222 C 295.792 -1.71248 0.778187 0
M  V30 3223 O 295.15 -1.79278 -0.269991 0
M  V30 3224 C 295.198 -1.59529 3.23393 0
M  V30 3225 O 294.302 -2.70461 3.11327 0
M  V30 3226 H 293.643 -0.222231 0.625707 0
M  V30 3227 H 296.173 -0.0639716 2.045 0
M  V30 3228 H 296.183 -1.97847 3.5682 0
M  V30 3229 H 294.858 -0.933055 4.05299 0
M  V30 3230 H 293.435 -2.35135 2.89423 0
M  V30 3231 N 295.62 -1.53406 -0.361157 0
M  V30 3232 C 296.55 -1.83136 -1.44857 0
M  V30 3233 C 297.531 -0.685174 -1.5569 0
M  V30 3234 O 298.716 -0.93544 -1.70186 0
M  V30 3235 C 295.846 -2.02522 -2.82138 0
M  V30 3236 C 294.8 -3.18302 -2.86126 0
M  V30 3237 C 294.126 -3.22989 -4.26125 0
M  V30 3238 C 295.426 -4.56796 -2.53248 0
M  V30 3239 H 297.12 -2.74201 -1.20226 0
M  V30 3240 H 294.666 -1.31938 -0.576922 0
M  V30 3241 H 296.619 -2.21904 -3.58241 0
M  V30 3242 H 295.343 -1.08172 -3.08166 0
M  V30 3243 H 294.002 -2.98747 -2.12475 0
M  V30 3244 H 293.65 -2.26267 -4.49235 0
M  V30 3245 H 293.35 -4.00781 -4.29708 0
M  V30 3246 H 294.874 -3.44559 -5.04094 0
M  V30 3247 H 296.288 -4.7631 -3.19064 0
M  V30 3248 H 294.685 -5.36862 -2.68141 0
M  V30 3249 H 295.755 -4.61606 -1.48484 0
M  V30 3250 N 297.098 0.621204 -1.44841 0
M  V30 3251 C 298.344 1.38073 -1.49357 0
M  V30 3252 C 298.699 1.91973 -0.128115 0
M  V30 3253 O 297.992 1.71311 0.858087 0
M  V30 3254 C 298.186 2.55675 -2.4973 0
M  V30 3255 C 298.015 2.13289 -3.95901 0
M  V30 3256 C 296.785 2.001 -4.63991 0
M  V30 3257 C 298.983 1.7159 -4.84831 0
M  V30 3258 N 296.965 1.51381 -5.94943 0
M  V30 3259 C 298.336 1.34188 -6.05304 0
M  V30 3260 C 300.391 1.59059 -4.7181 0
M  V30 3261 C 299.094 0.855085 -7.14199 0
M  V30 3262 C 301.12 1.11784 -5.8074 0
M  V30 3263 C 300.482 0.753385 -7.0036 0
M  V30 3264 H 296.581 0.499675 -0.601539 0
M  V30 3265 H 299.165 0.711609 -1.8123 0
M  V30 3266 H 297.336 3.20201 -2.19832 0
M  V30 3267 H 299.068 3.22509 -2.4448 0
M  V30 3268 H 295.823 2.20863 -4.18947 0
M  V30 3269 H 296.247 1.29293 -6.64539 0
M  V30 3270 H 300.889 1.85865 -3.79755 0
M  V30 3271 H 298.607 0.574552 -8.06055 0
M  V30 3272 H 302.193 1.02533 -5.72694 0
M  V30 3273 H 301.073 0.393183 -7.83214 0
M  V30 3274 N 298.576 1.31904 0.862503 0
M  V30 3275 C 299.523 1.20182 1.9704 0
M  V30 3276 C 300.493 0.0858247 1.65878 0
M  V30 3277 O 301.678 0.26 1.8902 0
M  V30 3278 C 298.818 0.922797 3.32533 0
M  V30 3279 C 297.931 2.12284 3.76244 0
M  V30 3280 C 297.066 1.77996 5.00491 0
M  V30 3281 C 296.105 2.94366 5.36671 0
M  V30 3282 N 295.242 2.60223 6.52095 0
M  V30 3283 H 300.082 2.14951 2.06398 0
M  V30 3284 H 297.619 1.06917 1.01031 0
M  V30 3285 H 299.577 0.741548 4.10557 0
M  V30 3286 H 298.207 0.0119227 3.22798 0
M  V30 3287 H 297.259 2.41461 2.9394 0
M  V30 3288 H 298.571 2.99357 3.98982 0
M  V30 3289 H 297.725 1.56377 5.862 0
M  V30 3290 H 296.464 0.881252 4.79672 0
M  V30 3291 H 295.469 3.16625 4.49476 0
M  V30 3292 H 296.694 3.84957 5.59451 0
M  V30 3293 H 294.64 1.72884 6.32809 0
M  V30 3294 H 294.557 3.40827 6.74814 0
M  V30 3295 H 295.825 2.42016 7.40978 0
M  V30 3296 N 300.054 -1.07777 1.14986 0
M  V30 3297 C 301.47 -1.32373 0.891596 0
M  V30 3298 C 301.67 -1.9609 -0.463788 0
M  V30 3299 O 300.726 -2.21801 -1.20667 0
M  V30 3300 C 302.039 -2.21905 2.02925 0
M  V30 3301 C 303.587 -2.35367 2.06329 0
M  V30 3302 C 304.062 -3.28245 3.19405 0
M  V30 3303 N 305.553 -3.35824 3.19024 0
M  V30 3304 C 306.288 -4.07739 4.03158 0
M  V30 3305 N 305.784 -4.82306 4.97346 0
M  V30 3306 N 307.577 -4.03635 3.91197 0
M  V30 3307 H 299.728 -0.648039 2.02273 0
M  V30 3308 H 301.991 -0.348149 0.881757 0
M  V30 3309 H 301.697 -1.82342 3.0074 0
M  V30 3310 H 301.571 -3.22407 1.95789 0
M  V30 3311 H 303.958 -2.74186 1.09116 0
M  V30 3312 H 304.039 -1.34585 2.17533 0
M  V30 3313 H 303.683 -2.90146 4.16867 0
M  V30 3314 H 303.613 -4.28971 3.05437 0
M  V30 3315 H 306.104 -2.8267 2.50811 0
M  V30 3316 H 306.417 -5.34661 5.57994 0
M  V30 3317 H 304.762 -4.81337 5.01338 0
M  V30 3318 H 307.953 -3.44491 3.16928 0
M  V30 3319 H 308.126 -4.59417 4.5699 0
M  V30 3320 N 301.532 -0.945985 -1.26051 0
M  V30 3321 C 302.809 -0.513816 -1.88731 0
M  V30 3322 C 303.189 1.00872 -1.8544 0
M  V30 3323 O 302.537 1.8708 -1.312 0
M  V30 3324 C 302.747 -1.08062 -3.31849 0
M  V30 3325 C 304.095 -1.1522 -4.08668 0
M  V30 3326 O 305.119 -1.03155 -3.40936 0
M  V30 3327 O 303.978 -1.34044 -5.29806 0
M  V30 3328 H 301.072 -0.168193 -0.809716 0
M  V30 3329 H 303.618 -1.03886 -1.34186 0
M  V30 3330 H 302.39 -2.1241 -3.2863 0
M  V30 3331 H 302.013 -0.538307 -3.93939 0
M  V30 3332 N 303.011 1.40521 -0.713556 0
M  V30 3333 C 303.961 2.27971 -0.036165 0
M  V30 3334 C 304.945 1.43151 0.734623 0
M  V30 3335 O 306.137 1.66261 0.607158 0
M  V30 3336 C 303.266 3.31661 0.886331 0
M  V30 3337 C 302.352 4.23955 0.110836 0
M  V30 3338 N 302.743 4.97641 -0.904847 0
M  V30 3339 C 301.041 4.44674 0.343692 0
M  V30 3340 C 301.742 5.65322 -1.37064 0
M  V30 3341 N 300.718 5.39162 -0.693168 0
M  V30 3342 H 304.52 2.82384 -0.814645 0
M  V30 3343 H 302.034 1.52948 -0.545963 0
M  V30 3344 H 304.031 3.93154 1.38692 0
M  V30 3345 H 302.691 2.78808 1.66421 0
M  V30 3346 H 303.702 5.01689 -1.28563 0
M  V30 3347 H 300.379 4.02801 1.09805 0
M  V30 3348 H 301.769 6.34359 -2.21447 0
M  V30 3349 N 304.489 0.459591 1.5075 0
M  V30 3350 C 305.419 -0.330644 2.31147 0
M  V30 3351 C 306.4 -1.00087 1.37538 0
M  V30 3352 O 307.585 -1.00025 1.66459 0
M  V30 3353 C 304.715 -1.41958 3.16962 0
M  V30 3354 C 303.669 -0.871608 4.19031 0
M  V30 3355 C 302.995 -2.05797 4.9351 0
M  V30 3356 C 304.295 0.109251 5.22186 0
M  V30 3357 H 305.989 0.340336 2.97459 0
M  V30 3358 H 303.535 0.165119 1.4305 0
M  V30 3359 H 305.488 -1.9798 3.71997 0
M  V30 3360 H 304.212 -2.11917 2.48513 0
M  V30 3361 H 302.871 -0.333442 3.6508 0
M  V30 3362 H 302.519 -2.74427 4.21544 0
M  V30 3363 H 302.219 -1.6976 5.62544 0
M  V30 3364 H 303.743 -2.62331 5.51375 0
M  V30 3365 H 305.157 -0.361405 5.7216 0
M  V30 3366 H 303.554 0.383316 5.98875 0
M  V30 3367 H 304.624 1.03887 4.73641 0
M  V30 3368 N 305.967 -1.56429 0.191757 0
M  V30 3369 C 307.192 -2.02309 -0.456706 0
M  V30 3370 C 307.617 -1.07103 -1.5463 0
M  V30 3371 O 306.975 -0.0539677 -1.8122 0
M  V30 3372 C 307.023 -3.46654 -0.993159 0
M  V30 3373 O 306.127 -3.54559 -2.10622 0
M  V30 3374 H 305.468 -0.655303 -0.107114 0
M  V30 3375 H 307.998 -2.02364 0.301653 0
M  V30 3376 H 308.008 -3.86377 -1.31061 0
M  V30 3377 H 306.683 -4.1544 -0.195504 0
M  V30 3378 H 305.26 -3.26708 -1.79767 0
M  V30 3379 N 307.445 0.0818655 -1.57387 0
M  V30 3380 C 308.861 0.436412 -1.53517 0
M  V30 3381 C 309.061 1.79758 -0.910459 0
M  V30 3382 O 308.117 2.47324 -0.508636 0
M  V30 3383 C 309.43 0.386734 -2.98203 0
M  V30 3384 C 310.978 0.467644 -3.09487 0
M  V30 3385 C 311.453 0.447978 -4.55804 0
M  V30 3386 N 312.944 0.508348 -4.60402 0
M  V30 3387 C 313.679 0.515184 -5.71081 0
M  V30 3388 N 313.175 0.477435 -6.91153 0
M  V30 3389 N 314.968 0.560988 -5.59294 0
M  V30 3390 H 307.119 -0.809546 -1.96367 0
M  V30 3391 H 309.382 -0.302733 -0.898363 0
M  V30 3392 H 309.088 -0.546539 -3.47427 0
M  V30 3393 H 308.962 1.20075 -3.57578 0
M  V30 3394 H 311.349 1.39134 -2.60242 0
M  V30 3395 H 311.43 -0.374753 -2.5304 0
M  V30 3396 H 311.074 -0.471826 -5.05704 0
M  V30 3397 H 311.004 1.30777 -5.10103 0
M  V30 3398 H 313.495 0.54218 -3.7399 0
M  V30 3399 H 313.808 0.486299 -7.71268 0
M  V30 3400 H 312.153 0.444278 -6.93579 0
M  V30 3401 H 315.344 0.5881 -4.64391 0
M  V30 3402 H 315.517 0.562846 -6.45551 0
M  V30 3403 N 308.923 1.53595 0.353017 0
M  V30 3404 C 310.163 1.72094 1.10286 0
M  V30 3405 C 310.527 0.469217 1.86178 0
M  V30 3406 O 311.728 0.531083 2.63501 0
M  V30 3407 C 309.999 2.94386 2.02661 0
M  V30 3408 S 311.558 3.33651 2.84996 0
M  V30 3409 H 308.376 0.605433 0.372789 0
M  V30 3410 H 310.978 1.91722 0.38248 0
M  V30 3411 H 309.682 3.83669 1.45691 0
M  V30 3412 H 309.213 2.77197 2.79152 0
M  V30 3413 H 311.228 2.86645 4.0503 0
M  V30 3414 N 310.401 -0.613514 1.45168 0
M  V30 3415 C 311.333 -1.73825 1.4939 0
M  V30 3416 C 312.346 -1.58175 0.385304 0
M  V30 3417 O 313.535 -1.66165 0.652036 0
M  V30 3418 C 310.635 -3.11758 1.32891 0
M  V30 3419 C 309.808 -3.53704 2.57317 0
M  V30 3420 C 308.867 -4.70579 2.35462 0
M  V30 3421 O 307.893 -4.77996 3.09044 0
M  V30 3422 N 309.095 -5.63454 1.39644 0
M  V30 3423 H 311.86 -1.70669 2.46358 0
M  V30 3424 H 309.421 -0.79862 1.40832 0
M  V30 3425 H 311.413 -3.87692 1.1609 0
M  V30 3426 H 309.983 -3.09456 0.442218 0
M  V30 3427 H 309.203 -2.67794 2.89275 0
M  V30 3428 H 310.491 -3.78486 3.40038 0
M  V30 3429 H 309.889 -5.6017 0.789062 0
M  V30 3430 H 308.446 -6.38944 1.28816 0
M  V30 3431 N 311.879 -1.3236 -0.855495 0
M  V30 3432 C 313.104 -1.2601 -1.64731 0
M  V30 3433 C 313.529 0.169068 -1.87339 0
M  V30 3434 O 312.887 1.12016 -1.42556 0
M  V30 3435 C 312.935 -2.02417 -2.98429 0
M  V30 3436 O 312.039 -1.3714 -3.8893 0
M  V30 3437 H 311.38 -0.434325 -0.502253 0
M  V30 3438 H 313.91 -1.74661 -1.06558 0
M  V30 3439 H 313.92 -2.12559 -3.48257 0
M  V30 3440 H 312.595 -3.06343 -2.81295 0
M  V30 3441 H 311.172 -1.3554 -3.47395 0
M  V30 3442 N 313.357 1.07166 -1.15556 0
M  V30 3443 C 314.307 2.12649 -0.82247 0
M  V30 3444 C 315.291 1.59725 0.194129 0
M  V30 3445 O 316.483 1.76999 -0.00540402 0
M  V30 3446 C 313.612 3.41847 -0.315572 0
M  V30 3447 C 312.698 4.0162 -1.36244 0
M  V30 3448 N 313.089 4.35625 -2.5703 0
M  V30 3449 C 311.387 4.29114 -1.21562 0
M  V30 3450 C 312.088 4.83017 -3.24144 0
M  V30 3451 N 311.064 4.81906 -2.51531 0
M  V30 3452 H 314.866 2.36776 -1.74111 0
M  V30 3453 H 312.38 1.24622 -1.0413 0
M  V30 3454 H 314.377 4.16859 -0.0585855 0
M  V30 3455 H 313.037 3.19163 0.597105 0
M  V30 3456 H 314.048 4.26253 -2.94158 0
M  V30 3457 H 310.725 4.15919 -0.362988 0
M  V30 3458 H 312.115 5.18605 -4.27198 0
M  V30 3459 N 314.835 0.952656 1.25548 0
M  V30 3460 C 316.246 0.647392 1.75116 0
M  V30 3461 C 316.597 -0.837274 1.77438 0
M  V30 3462 O 315.722 -1.65525 1.39393 0
M  V30 3463 C 316.317 1.16845 3.18014 0
M  V30 3464 C 314.876 0.913382 3.6515 0
M  V30 3465 C 314.023 1.31265 2.44264 0
M  V30 3466 H 316.974 1.12968 1.11462 0
M  V30 3467 H 316.995 0.527606 3.76824 0
M  V30 3468 H 316.507 2.24902 3.16292 0
M  V30 3469 H 314.608 -0.152316 3.72289 0
M  V30 3470 H 314.721 1.54845 4.53387 0
M  V30 3471 H 313.085 0.731028 2.43984 0
M  V30 3472 H 313.868 2.40239 2.45234 0
M  V30 3473 N 316.313 -1.40141 0.720998 0
M  V30 3474 C 317.561 -2.0039 0.262323 0
M  V30 3475 C 317.882 -1.57469 -1.15015 0
M  V30 3476 O 317.152 -0.816582 -1.78069 0
M  V30 3477 H 315.732 -0.741063 0.093996 0
M  V30 3478 H 318.394 -1.71398 0.927835 0
M  V30 3479 H 317.49 -3.10658 0.299671 0
M  V30 3480 N 317.792 -0.46758 -1.50504 0
M  V30 3481 C 318.722 0.318381 -2.31319 0
M  V30 3482 C 319.703 0.993564 -1.38066 0
M  V30 3483 O 320.888 0.991411 -1.66987 0
M  V30 3484 C 318.018 1.40275 -3.17711 0
M  V30 3485 C 316.972 0.849373 -4.19487 0
M  V30 3486 C 316.298 2.03177 -4.94594 0
M  V30 3487 C 317.598 -0.136942 -5.2212 0
M  V30 3488 H 319.292 -0.356106 -2.97275 0
M  V30 3489 H 316.838 -0.172703 -1.42961 0
M  V30 3490 H 318.791 1.96004 -3.73042 0
M  V30 3491 H 317.515 2.10596 -2.49634 0
M  V30 3492 H 316.174 0.314076 -3.65252 0
M  V30 3493 H 315.822 2.72187 -4.22993 0
M  V30 3494 H 315.522 1.66774 -5.63436 0
M  V30 3495 H 317.046 2.59403 -5.52759 0
M  V30 3496 H 318.46 0.331056 -5.72343 0
M  V30 3497 H 316.857 -0.41507 -5.98663 0
M  V30 3498 H 317.927 -1.06398 -4.73083 0
M  V30 3499 N 319.27 1.56325 -0.20005 0
M  V30 3500 C 320.498 2.02105 0.442874 0
M  V30 3501 C 320.913 1.08014 1.5485 0
M  V30 3502 O 320.27 0.0858797 1.82298 0
M  V30 3503 C 320.321 3.47549 0.994583 0
M  V30 3504 O 320.042 4.38049 -0.0669322 0
M  V30 3505 C 321.543 4.0887 1.7129 0
M  V30 3506 H 318.763 0.661807 0.110691 0
M  V30 3507 H 321.307 2.02134 -0.310207 0
M  V30 3508 H 319.462 3.48204 1.69803 0
M  V30 3509 H 319.876 5.23368 0.344462 0
M  V30 3510 H 321.35 5.12475 2.05118 0
M  V30 3511 H 321.827 3.52615 2.61838 0
M  V30 3512 H 322.433 4.12002 1.05518 0
M  V30 3513 N 320.748 -0.0735177 1.57428 0
M  V30 3514 C 321.711 -1.07192 2.02589 0
M  V30 3515 C 322.711 -1.31695 0.922661 0
M  V30 3516 O 323.901 -1.27445 1.18758 0
M  V30 3517 C 321.033 -2.41599 2.40506 0
M  V30 3518 H 322.226 -0.682727 2.92025 0
M  V30 3519 H 319.779 -0.319193 1.53006 0
M  V30 3520 H 320.514 -2.85354 1.5409 0
M  V30 3521 H 320.299 -2.25156 3.21009 0
M  V30 3522 H 321.789 -3.13367 2.76027 0
M  V30 3523 N 322.226 -1.5378 -0.344866 0
M  V30 3524 C 323.472 -1.71216 -1.08687 0
M  V30 3525 C 323.805 -0.473281 -1.88345 0
M  V30 3526 O 323.08 0.52968 -1.87149 0
M  V30 3527 C 323.363 -2.97486 -2.02914 0
M  V30 3528 C 323.216 -4.31579 -1.26727 0
M  V30 3529 C 324.535 -3.19422 -3.0275 0
M  V30 3530 H 321.654 -0.62301 -0.393735 0
M  V30 3531 H 324.296 -1.8645 -0.365563 0
M  V30 3532 H 322.446 -2.84629 -2.64421 0
M  V30 3533 H 324.118 -4.56284 -0.67845 0
M  V30 3534 H 322.361 -4.30049 -0.569273 0
M  V30 3535 H 323.032 -5.16106 -1.95803 0
M  V30 3536 H 325.508 -3.316 -2.51357 0
M  V30 3537 H 324.384 -4.09169 -3.65885 0
M  V30 3538 H 324.645 -2.35656 -3.74057 0
M  V30 3539 N 323.704 0.605807 -1.45491 0
M  V30 3540 C 324.929 1.39625 -1.53361 0
M  V30 3541 C 325.354 1.87351 -0.167645 0
M  V30 3542 O 324.712 1.60243 0.848051 0
M  V30 3543 C 324.76 2.57559 -2.5238 0
M  V30 3544 O 323.864 3.58248 -2.04285 0
M  V30 3545 H 323.205 0.416771 -0.516912 0
M  V30 3546 H 325.735 0.737103 -1.90861 0
M  V30 3547 H 325.745 3.0478 -2.71244 0
M  V30 3548 H 324.42 2.22171 -3.51586 0
M  V30 3549 H 322.997 3.17664 -1.95305 0
M  V30 3550 N 325.182 1.32811 0.848464 0
M  V30 3551 C 326.407 1.26882 1.6406 0
M  V30 3552 C 326.832 -0.15913 1.87426 0
M  V30 3553 O 326.19 -1.11258 1.43148 0
M  V30 3554 C 326.238 2.03997 2.97351 0
M  V30 3555 O 325.342 1.39201 3.88197 0
M  V30 3556 H 324.683 0.436982 0.499943 0
M  V30 3557 H 327.213 1.75224 1.0563 0
M  V30 3558 H 327.223 2.14403 3.47124 0
M  V30 3559 H 325.898 3.0783 2.79666 0
M  V30 3560 H 324.475 1.37381 3.46671 0
M  V30 3561 N 326.66 -1.06551 1.16123 0
M  V30 3562 C 327.608 -2.16063 0.861371 0
M  V30 3563 C 328.602 -1.6856 -0.168517 0
M  V30 3564 O 329.808 -1.79986 -0.0227579 0
M  V30 3565 H 326.183 -0.705278 0.260934 0
M  V30 3566 H 328.154 -2.38567 1.79244 0
M  V30 3567 C 326.903 -3.45661 0.376018 0
M  V30 3568 H 326.226 -3.82604 1.15992 0
M  V30 3569 H 327.666 -4.23504 0.204951 0
M  V30 3570 C 326.125 -3.24546 -0.903954 0
M  V30 3571 O 326.655 -3.49865 -1.97377 0
M  V30 3572 N 324.861 -2.77992 -0.846679 0
M  V30 3573 H 324.408 -2.57589 0.0241017 0
M  V30 3574 H 324.366 -2.64244 -1.70359 0
M  V30 3575 N 328.138 -0.959301 -1.25041 0
M  V30 3576 C 329.387 -0.612254 -1.92183 0
M  V30 3577 C 329.7 0.855347 -1.75907 0
M  V30 3578 O 330.906 1.31256 -2.37664 0
M  V30 3579 C 329.362 -1.04435 -3.44414 0
M  V30 3580 C 328.97 -2.53482 -3.69393 0
M  V30 3581 C 330.714 -0.770055 -4.17457 0
M  V30 3582 C 328.621 -2.90468 -5.15153 0
M  V30 3583 H 327.551 -0.225279 -0.719559 0
M  V30 3584 H 330.202 -1.16438 -1.41825 0
M  V30 3585 H 328.584 -0.4206 -3.9376 0
M  V30 3586 H 329.758 -3.20916 -3.30681 0
M  V30 3587 H 328.073 -2.78432 -3.0962 0
M  V30 3588 H 330.67 -1.02249 -5.24832 0
M  V30 3589 H 331.013 0.293611 -4.15263 0
M  V30 3590 H 331.546 -1.35437 -3.74034 0
M  V30 3591 H 328.285 -3.95871 -5.22462 0
M  V30 3592 H 327.805 -2.27711 -5.54894 0
M  V30 3593 H 329.484 -2.79914 -5.83315 0
M  V30 3594 N 329.616 1.39756 -0.72842 0
M  V30 3595 C 330.856 2.025 -0.278078 0
M  V30 3596 C 331.22 1.5654 1.11173 0
M  V30 3597 O 332.421 2.11435 1.65978 0
M  V30 3598 C 330.692 3.55489 -0.369139 0
M  V30 3599 S 332.251 4.388 0.00232983 0
M  V30 3600 H 329.069 0.702534 -0.109391 0
M  V30 3601 H 331.671 1.70672 -0.95348 0
M  V30 3602 H 330.375 3.86429 -1.38204 0
M  V30 3603 H 329.906 3.92061 0.324308 0
M  V30 3604 H 331.921 4.80954 1.22055 0
M  V30 3605 N 331.094 0.475555 1.50254 0
M  V30 3606 C 332.342 -0.077738 2.0195 0
M  V30 3607 C 332.663 -1.39813 1.35931 0
M  V30 3608 O 331.933 -1.89249 0.506123 0
M  V30 3609 H 330.513 -0.031719 0.746326 0
M  V30 3610 H 333.175 0.626995 1.84539 0
M  V30 3611 H 332.271 -0.225995 3.11281 0
M  V30 3612 N 332.573 -1.56217 0.208337 0
M  V30 3613 C 333.523 -2.16324 -0.720281 0
M  V30 3614 C 334.507 -1.10775 -1.16695 0
M  V30 3615 O 335.699 -1.36801 -1.12314 0
M  V30 3616 C 332.828 -2.83644 -1.93393 0
M  V30 3617 C 331.914 -3.96401 -1.50755 0
M  V30 3618 N 332.305 -4.99546 -0.792937 0
M  V30 3619 C 330.603 -4.08246 -1.79585 0
M  V30 3620 C 331.304 -5.78828 -0.577364 0
M  V30 3621 N 330.28 -5.31723 -1.1301 0
M  V30 3622 H 334.082 -2.93432 -0.165725 0
M  V30 3623 H 331.596 -1.62397 0.00906463 0
M  V30 3624 H 333.593 -3.25107 -2.60981 0
M  V30 3625 H 332.253 -2.08027 -2.49308 0
M  V30 3626 H 333.264 -5.15967 -0.447004 0
M  V30 3627 H 329.941 -3.4377 -2.36915 0
M  V30 3628 H 331.331 -6.71899 -0.00952956 0
M  V30 3629 N 334.051 0.0651679 -1.57465 0
M  V30 3630 C 335.276 0.779605 -1.9219 0
M  V30 3631 C 335.701 1.69988 -0.805333 0
M  V30 3632 O 335.059 1.79685 0.241435 0
M  V30 3633 C 335.107 1.54364 -3.2589 0
M  V30 3634 O 334.211 2.65474 -3.1559 0
M  V30 3635 H 333.552 0.212249 -0.629163 0
M  V30 3636 H 336.082 0.0314294 -2.04576 0
M  V30 3637 H 336.092 1.92146 -3.59922 0
M  V30 3638 H 334.767 0.868457 -4.06732 0
M  V30 3639 H 333.344 2.30501 -2.93128 0
M  V30 3640 N 335.529 1.53961 0.336706 0
M  V30 3641 C 336.776 1.71536 1.07618 0
M  V30 3642 C 337.104 0.482125 1.8843 0
M  V30 3643 O 336.359 -0.536142 1.88213 0
M  V30 3644 C 336.658 2.93493 2.03953 0
M  V30 3645 C 336.324 4.28811 1.39399 0
M  V30 3646 C 334.986 4.65602 1.21523 0
M  V30 3647 C 337.338 5.12844 0.929541 0
M  V30 3648 C 334.666 5.84037 0.558312 0
M  V30 3649 C 337.018 6.31951 0.286505 0
M  V30 3650 C 335.682 6.67432 0.0954869 0
M  V30 3651 H 334.952 0.627696 0.393801 0
M  V30 3652 H 337.599 1.88186 0.354715 0
M  V30 3653 H 335.904 2.71475 2.82504 0
M  V30 3654 H 337.601 3.04285 2.61174 0
M  V30 3655 H 334.191 3.99858 1.54311 0
M  V30 3656 H 338.375 4.84947 1.05548 0
M  V30 3657 H 333.631 6.10097 0.398995 0
M  V30 3658 H 337.805 6.96352 -0.0814376 0
M  V30 3659 H 335.432 7.59063 -0.415579 0
M  V30 3660 N 337.007 -0.598083 1.45811 0
M  V30 3661 C 338.423 -0.919847 1.30426 0
M  V30 3662 C 338.623 -1.99759 0.264303 0
M  V30 3663 O 337.679 -2.50221 -0.338472 0
M  V30 3664 C 338.992 -1.35176 2.68603 0
M  V30 3665 C 340.54 -1.46546 2.76574 0
M  V30 3666 C 341.015 -1.9311 4.15298 0
M  V30 3667 N 342.506 -2.00328 4.1764 0
M  V30 3668 C 343.241 -2.37599 5.21856 0
M  V30 3669 N 342.737 -2.73771 6.36413 0
M  V30 3670 N 344.53 -2.38021 5.09218 0
M  V30 3671 H 336.681 0.114111 2.12093 0
M  V30 3672 H 338.944 -0.0116121 0.947929 0
M  V30 3673 H 338.65 -0.633969 3.45939 0
M  V30 3674 H 338.524 -2.3164 2.97696 0
M  V30 3675 H 340.911 -2.17415 1.99537 0
M  V30 3676 H 340.992 -0.483727 2.51185 0
M  V30 3677 H 340.636 -1.22824 4.92825 0
M  V30 3678 H 340.566 -2.92213 4.38086 0
M  V30 3679 H 343.057 -1.74925 3.34977 0
M  V30 3680 H 343.37 -3.0112 7.11721 0
M  V30 3681 H 341.715 -2.71445 6.39799 0
M  V30 3682 H 344.906 -2.09174 4.18765 0
M  V30 3683 H 345.079 -2.66741 5.90554 0
M  V30 3684 N 338.485 -1.33259 -0.841409 0
M  V30 3685 C 339.733 -1.24326 -1.59334 0
M  V30 3686 C 340.054 0.191564 -1.94057 0
M  V30 3687 O 339.324 1.11967 -1.60749 0
M  V30 3688 H 337.904 -0.457174 -0.590763 0
M  V30 3689 H 340.566 -1.66947 -1.00571 0
M  V30 3690 H 339.662 -1.8352 -2.52442 0
M  V30 3691 N 339.963 1.05934 -1.16686 0
M  V30 3692 C 341.379 1.30938 -0.912542 0
M  V30 3693 C 341.579 1.96803 0.432533 0
M  V30 3694 O 340.635 2.23693 1.17123 0
M  V30 3695 C 341.948 2.18649 -2.06429 0
M  V30 3696 C 343.496 2.32055 -2.10047 0
M  V30 3697 C 343.971 3.23122 -3.24586 0
M  V30 3698 N 345.462 3.30706 -3.24327 0
M  V30 3699 C 346.197 4.01273 -4.09594 0
M  V30 3700 N 345.693 4.74332 -5.04956 0
M  V30 3701 N 347.486 3.97361 -3.97569 0
M  V30 3702 H 339.637 0.615777 -2.03278 0
M  V30 3703 H 341.9 0.334077 -0.887185 0
M  V30 3704 H 341.606 1.77534 -3.03603 0
M  V30 3705 H 341.48 3.19252 -2.00894 0
M  V30 3706 H 343.867 2.72415 -1.13464 0
M  V30 3707 H 343.948 1.31107 -2.19647 0
M  V30 3708 H 343.592 2.83477 -4.2143 0
M  V30 3709 H 343.522 4.24057 -3.12223 0
M  V30 3710 H 346.013 2.78644 -2.55276 0
M  V30 3711 H 346.326 5.25716 -5.6643 0
M  V30 3712 H 344.671 4.733 -5.08933 0
M  V30 3713 H 347.862 3.39405 -3.22369 0
M  V30 3714 H 348.035 4.52089 -4.64241 0
M  V30 3715 N 341.441 0.965919 1.2453 0
M  V30 3716 C 342.371 0.513476 2.27784 0
M  V30 3717 C 343.352 -0.445974 1.6415 0
M  V30 3718 O 344.537 -0.342485 1.91156 0
M  V30 3719 C 341.667 -0.198839 3.4673 0
M  V30 3720 C 340.621 0.676456 4.2262 0
M  V30 3721 C 339.947 -0.167248 5.34438 0
M  V30 3722 C 341.247 1.96017 4.84123 0
M  V30 3723 H 342.941 1.3765 2.65881 0
M  V30 3724 H 340.487 0.663321 1.27813 0
M  V30 3725 H 342.44 -0.526567 4.18097 0
M  V30 3726 H 341.164 -1.0962 3.07654 0
M  V30 3727 H 339.823 0.98743 3.53052 0
M  V30 3728 H 339.471 -1.0647 4.91603 0
M  V30 3729 H 339.171 0.415181 5.86131 0
M  V30 3730 H 340.695 -0.489688 6.08633 0
M  V30 3731 H 342.109 1.69814 5.47573 0
M  V30 3732 H 340.506 2.48918 5.4604 0
M  V30 3733 H 341.576 2.65622 4.05676 0
M  V30 3734 N 342.919 -1.39368 0.735821 0
M  V30 3735 C 344.144 -2.05319 0.293052 0
M  V30 3736 C 344.569 -1.55115 -1.064 0
M  V30 3737 O 343.927 -0.695261 -1.67439 0
M  V30 3738 C 343.975 -3.59305 0.305323 0
M  V30 3739 O 343.079 -4.06299 -0.706761 0
M  V30 3740 H 342.42 -0.650529 0.13307 0
M  V30 3741 H 344.95 -1.78386 1.00197 0
M  V30 3742 H 344.96 -4.07724 0.149997 0
M  V30 3743 H 343.635 -3.95207 1.29553 0
M  V30 3744 H 342.212 -3.69292 -0.517504 0
M  V30 3745 N 344.397 -0.483516 -1.5 0
M  V30 3746 C 345.622 0.0667119 -2.07293 0
M  V30 3747 C 346.047 1.3164 -1.3436 0
M  V30 3748 O 345.405 1.76945 -0.394987 0
M  V30 3749 C 345.453 0.321126 -3.59167 0
M  V30 3750 O 344.557 1.39927 -3.87936 0
M  V30 3751 H 343.898 -0.0184758 -0.663743 0
M  V30 3752 H 346.428 -0.678125 -1.93035 0
M  V30 3753 H 346.438 0.557906 -4.04168 0
M  V30 3754 H 345.113 -0.592007 -4.11665 0
M  V30 3755 H 343.69 1.14882 -3.54763 0
M  V30 3756 N 345.875 1.56104 -0.216619 0
M  V30 3757 C 347.291 1.58995 0.13886 0
M  V30 3758 C 347.491 1.23333 1.59346 0
M  V30 3759 O 346.547 0.966234 2.33281 0
M  V30 3760 C 347.86 3.00143 -0.182968 0
M  V30 3761 C 349.408 3.12751 -0.124807 0
M  V30 3762 C 349.883 4.56068 -0.420241 0
M  V30 3763 N 351.374 4.61723 -0.369634 0
M  V30 3764 C 352.109 5.70542 -0.571789 0
M  V30 3765 N 351.605 6.87744 -0.835453 0
M  V30 3766 N 353.398 5.59831 -0.504563 0
M  V30 3767 H 345.549 1.77562 -1.16557 0
M  V30 3768 H 347.812 0.825091 -0.466828 0
M  V30 3769 H 347.518 3.30871 -1.19237 0
M  V30 3770 H 347.392 3.73813 0.504367 0
M  V30 3771 H 349.779 2.81822 0.875223 0
M  V30 3772 H 349.86 2.41421 -0.845544 0
M  V30 3773 H 349.504 4.87713 -1.41769 0
M  V30 3774 H 349.434 5.25617 0.321631 0
M  V30 3775 H 351.925 3.77502 -0.173338 0
M  V30 3776 H 352.238 7.66587 -0.977938 0
M  V30 3777 H 350.583 6.895 -0.872592 0
M  V30 3778 H 353.774 4.67145 -0.298842 0
M  V30 3779 H 353.947 6.44573 -0.665519 0
M  V30 3780 N 347.353 -0.0568162 1.57498 0
M  V30 3781 C 348.769 -0.411933 1.54192 0
M  V30 3782 C 348.969 -1.78287 0.938942 0
M  V30 3783 O 348.025 -2.46483 0.547919 0
M  V30 3784 C 349.338 -0.339244 2.9878 0
M  V30 3785 C 350.886 -0.418348 3.10192 0
M  V30 3786 C 351.361 -0.375407 4.56459 0
M  V30 3787 N 352.852 -0.435038 4.61153 0
M  V30 3788 C 353.587 -0.424265 5.71828 0
M  V30 3789 N 353.083 -0.367418 6.91825 0
M  V30 3790 N 354.876 -0.471938 5.60115 0
M  V30 3791 H 347.027 0.840684 1.95055 0
M  V30 3792 H 349.29 0.316987 0.893433 0
M  V30 3793 H 348.996 0.601742 3.46514 0
M  V30 3794 H 348.87 -1.14371 3.59443 0
M  V30 3795 H 351.257 -1.34976 2.62422 0
M  V30 3796 H 351.338 0.414962 2.52412 0
M  V30 3797 H 350.982 0.552219 5.04889 0
M  V30 3798 H 350.912 -1.22645 5.12119 0
M  V30 3799 H 353.403 -0.482612 3.74806 0
M  V30 3800 H 353.716 -0.363535 7.71944 0
M  V30 3801 H 352.061 -0.333879 6.94198 0
M  V30 3802 H 355.252 -0.514145 4.65268 0
M  V30 3803 H 355.425 -0.460073 6.46365 0
M  V30 3804 N 348.832 -1.54138 -0.328536 0
M  V30 3805 C 350.057 -1.76378 -1.09112 0
M  V30 3806 C 350.482 -0.508596 -1.81094 0
M  V30 3807 O 349.84 0.539598 -1.73084 0
M  V30 3808 C 349.888 -2.95358 -2.06872 0
M  V30 3809 O 348.992 -2.66556 -3.14677 0
M  V30 3810 H 348.333 -0.584614 -0.314838 0
M  V30 3811 H 350.863 -2.01146 -0.374348 0
M  V30 3812 H 350.873 -3.22566 -2.4983 0
M  V30 3813 H 349.548 -3.86385 -1.5388 0
M  V30 3814 H 348.125 -2.50282 -2.7643 0
M  V30 3815 N 350.31 0.590341 -1.46126 0
M  V30 3816 C 351.24 1.71032 -1.58966 0
M  V30 3817 C 352.221 1.64302 -0.440335 0
M  V30 3818 O 353.406 1.82436 -0.665634 0
M  V30 3819 C 350.536 3.09665 -1.57241 0
M  V30 3820 C 349.49 3.31221 -2.71066 0
M  V30 3821 C 348.816 4.70303 -2.54399 0
M  V30 3822 C 350.116 3.19796 -4.1295 0
M  V30 3823 H 351.81 1.60543 -2.52718 0
M  V30 3824 H 349.356 0.770933 -1.21625 0
M  V30 3825 H 351.309 3.87831 -1.64819 0
M  V30 3826 H 350.033 3.21036 -0.600289 0
M  V30 3827 H 348.692 2.55452 -2.62944 0
M  V30 3828 H 348.34 4.78429 -1.55288 0
M  V30 3829 H 348.04 4.85679 -3.30741 0
M  V30 3830 H 349.564 5.50647 -2.63857 0
M  V30 3831 H 350.978 3.87815 -4.22223 0
M  V30 3832 H 349.375 3.46696 -4.89818 0
M  V30 3833 H 350.445 2.16983 -4.33643 0
M  V30 3834 N 351.788 1.33704 0.83433 0
M  V30 3835 C 353.013 1.28615 1.62705 0
M  V30 3836 C 353.438 -0.139242 1.87584 0
M  V30 3837 O 352.796 -1.09734 1.4432 0
M  V30 3838 C 352.844 2.07139 2.95171 0
M  V30 3839 O 351.948 1.4331 3.86699 0
M  V30 3840 H 351.289 0.44226 0.49528 0
M  V30 3841 H 353.819 1.76335 1.03766 0
M  V30 3842 H 353.829 2.18073 3.44831 0
M  V30 3843 H 352.504 3.10779 2.76386 0
M  V30 3844 H 351.081 1.4105 3.45195 0
M  V30 3845 N 353.266 -1.05314 1.17247 0
M  V30 3846 C 354.229 -2.112 0.890357 0
M  V30 3847 C 355.229 -1.60359 -0.118943 0
M  V30 3848 O 356.419 -1.73833 0.113086 0
M  V30 3849 C 353.551 -3.39266 0.333422 0
M  V30 3850 H 354.744 -2.37659 1.82916 0
M  V30 3851 H 352.297 -1.21538 0.982758 0
M  V30 3852 H 353.032 -3.18462 -0.612587 0
M  V30 3853 H 352.817 -3.77477 1.06082 0
M  V30 3854 H 354.307 -4.17315 0.154322 0
M  V30 3855 N 354.744 -0.972509 -1.24016 0
M  V30 3856 C 355.969 -0.654417 -1.96805 0
M  V30 3857 C 356.394 0.770398 -1.716 0
M  V30 3858 O 355.752 1.52361 -0.982647 0
M  V30 3859 C 355.8 -0.941031 -3.48105 0
M  V30 3860 O 354.904 -0.0289472 -4.1239 0
M  V30 3861 H 354.245 -0.24692 -0.616382 0
M  V30 3862 H 356.775 -1.30396 -1.57664 0
M  V30 3863 H 356.785 -0.87452 -3.98517 0
M  V30 3864 H 355.46 -1.97939 -3.65777 0
M  V30 3865 H 354.037 -0.149192 -3.72601 0
M  V30 3866 N 356.222 1.38976 -0.743202 0
M  V30 3867 C 357.45 2.04636 -0.30525 0
M  V30 3868 C 357.865 1.56044 1.06281 0
M  V30 3869 O 357.222 0.728921 1.67311 0
M  V30 3870 C 357.273 3.60193 -0.307177 0
M  V30 3871 O 356.994 4.06998 -1.62124 0
M  V30 3872 C 358.495 4.4306 0.145928 0
M  V30 3873 H 355.715 0.65788 -0.132041 0
M  V30 3874 H 358.259 1.77866 -1.00915 0
M  V30 3875 H 356.414 3.85835 0.347898 0
M  V30 3876 H 356.828 5.01371 -1.54036 0
M  V30 3877 H 358.302 5.51921 0.0934183 0
M  V30 3878 H 358.779 4.22706 1.19231 0
M  V30 3879 H 359.385 4.22584 -0.479886 0
M  V30 3880 N 357.7 0.491464 1.49741 0
M  V30 3881 C 358.61 -0.296835 2.32715 0
M  V30 3882 C 359.626 -0.976536 1.44013 0
M  V30 3883 O 360.802 -0.960023 1.77047 0
M  V30 3884 C 357.867 -1.35288 3.19215 0
M  V30 3885 C 356.928 -0.687632 4.23757 0
M  V30 3886 C 356.161 -1.69336 5.06123 0
M  V30 3887 O 356.384 -2.92219 4.89861 0
M  V30 3888 O 355.318 -1.25394 5.88693 0
M  V30 3889 H 359.144 0.382048 3.01287 0
M  V30 3890 H 356.729 0.252953 1.47243 0
M  V30 3891 H 358.611 -1.96411 3.72828 0
M  V30 3892 H 357.286 -2.01487 2.53347 0
M  V30 3893 H 356.193 -0.0369159 3.74082 0
M  V30 3894 H 357.526 -0.0682566 4.92153 0
M  V30 3895 N 359.178 -1.55987 0.224894 0
M  V30 3896 C 360.424 -1.98684 -0.406502 0
M  V30 3897 C 360.757 -1.11248 -1.59177 0
M  V30 3898 O 360.032 -0.170909 -1.93748 0
M  V30 3899 C 360.315 -3.50218 -0.837808 0
M  V30 3900 C 360.168 -4.48426 0.351332 0
M  V30 3901 C 361.487 -4.06243 -1.69278 0
M  V30 3902 H 358.606 -0.722337 -0.146283 0
M  V30 3903 H 361.248 -1.87255 0.321799 0
M  V30 3904 H 359.398 -3.60089 -1.45837 0
M  V30 3905 H 361.07 -4.50562 0.989526 0
M  V30 3906 H 359.313 -4.22159 0.998207 0
M  V30 3907 H 359.984 -5.52 0.00655905 0
M  V30 3908 H 362.46 -3.99337 -1.16914 0
M  V30 3909 H 361.336 -5.12581 -1.96346 0
M  V30 3910 H 361.597 -3.53332 -2.65723 0
M  V30 3911 N 360.656 0.0484629 -1.57525 0
M  V30 3912 C 362.067 0.597486 -1.76881 0
M  V30 3913 C 362.418 1.76664 -0.853475 0
M  V30 3914 O 361.543 2.16357 -0.0433656 0
M  V30 3915 C 362.138 1.09066 -3.20765 0
M  V30 3916 C 360.697 1.58535 -3.41385 0
M  V30 3917 C 359.844 0.514868 -2.72478 0
M  V30 3918 H 362.795 -0.177758 -1.57701 0
M  V30 3919 H 362.816 1.95875 -3.2621 0
M  V30 3920 H 362.328 0.239521 -3.8736 0
M  V30 3921 H 360.429 2.45898 -2.79937 0
M  V30 3922 H 360.542 1.64622 -4.49929 0
M  V30 3923 H 358.906 0.965407 -2.35695 0
M  V30 3924 H 359.689 -0.32648 -3.41744 0
M  V30 3925 N 362.134 1.5431 0.320358 0
M  V30 3926 C 363.097 1.83195 1.3774 0
M  V30 3927 C 364.097 0.703906 1.44575 0
M  V30 3928 O 365.287 0.972214 1.44546 0
M  V30 3929 C 362.419 1.99487 2.76438 0
M  V30 3930 H 363.612 2.77642 1.1338 0
M  V30 3931 H 361.165 1.46076 0.556012 0
M  V30 3932 H 361.9 1.07262 3.06048 0
M  V30 3933 H 361.685 2.81575 2.7287 0
M  V30 3934 H 363.175 2.23271 3.52902 0
M  V30 3935 N 363.613 -0.582584 1.46437 0
M  V30 3936 C 364.838 -1.37168 1.55563 0
M  V30 3937 C 365.263 -1.87061 0.19743 0
M  V30 3938 O 364.621 -1.61572 -0.822451 0
M  V30 3939 C 364.669 -2.53511 2.56446 0
M  V30 3940 O 363.773 -3.54953 2.09958 0
M  V30 3941 H 363.114 -0.408494 0.523477 0
M  V30 3942 H 365.644 -0.706646 1.9201 0
M  V30 3943 H 365.654 -3.00426 2.76058 0
M  V30 3944 H 364.329 -2.16549 3.55076 0
M  V30 3945 H 362.906 -3.14516 2.00334 0
M  V30 3946 N 365.091 -1.34144 -0.827227 0
M  V30 3947 C 366.338 -1.26258 -1.58319 0
M  V30 3948 C 366.666 0.168595 -1.93768 0
M  V30 3949 O 365.921 1.12877 -1.59866 0
M  V30 3950 C 366.22 -2.09464 -2.89585 0
M  V30 3951 C 365.886 -3.58521 -2.73448 0
M  V30 3952 C 364.548 -3.99155 -2.68754 0
M  V30 3953 C 366.9 -4.53189 -2.57428 0
M  V30 3954 C 364.228 -5.32656 -2.45957 0
M  V30 3955 C 366.58 -5.86864 -2.36163 0
M  V30 3956 C 365.244 -6.26667 -2.29879 0
M  V30 3957 H 364.514 -0.462013 -0.579332 0
M  V30 3958 H 367.161 -1.65845 -0.95748 0
M  V30 3959 H 365.466 -1.62692 -3.56425 0
M  V30 3960 H 367.163 -2.00712 -3.47154 0
M  V30 3961 H 363.753 -3.26264 -2.77939 0
M  V30 3962 H 367.937 -4.22696 -2.60081 0
M  V30 3963 H 363.193 -5.62519 -2.39546 0
M  V30 3964 H 367.367 -6.59813 -2.22754 0
M  V30 3965 H 364.994 -7.30049 -2.11975 0
M  V30 3966 N 366.569 1.04691 -1.17803 0
M  V30 3967 C 367.519 2.10856 -0.867391 0
M  V30 3968 C 368.503 1.601 0.160206 0
M  V30 3969 O 369.695 1.76948 -0.042947 0
M  V30 3970 C 366.824 3.411 -0.388012 0
M  V30 3971 C 365.91 3.9864 -1.44732 0
M  V30 3972 N 366.301 4.30075 -2.66212 0
M  V30 3973 C 364.599 4.26439 -1.30637 0
M  V30 3974 C 365.3 4.76033 -3.34317 0
M  V30 3975 N 364.276 4.76462 -2.61696 0
M  V30 3976 H 368.078 2.33029 -1.79094 0
M  V30 3977 H 365.592 1.22386 -1.0675 0
M  V30 3978 H 367.589 4.16641 -0.146994 0
M  V30 3979 H 366.249 3.20357 0.529271 0
M  V30 3980 H 367.26 4.19917 -3.03134 0
M  V30 3981 H 363.937 4.15056 -0.451129 0
M  V30 3982 H 365.327 5.09427 -4.38103 0
M  V30 3983 N 368.047 0.979072 1.23499 0
M  V30 3984 C 369.272 0.664845 1.96455 0
M  V30 3985 C 369.697 -0.761287 1.72006 0
M  V30 3986 O 369.055 -1.51837 0.990713 0
M  V30 3987 C 369.103 0.959479 3.47601 0
M  V30 3988 O 368.207 0.0508168 4.12369 0
M  V30 3989 H 367.548 0.250185 0.615064 0
M  V30 3990 H 370.078 1.31231 1.5697 0
M  V30 3991 H 370.088 0.895642 3.98048 0
M  V30 3992 H 368.763 1.99876 3.64723 0
M  V30 3993 H 367.34 0.16895 3.72517 0
M  V30 3994 N 369.525 -1.3858 0.750561 0
M  V30 3995 C 370.435 -2.34278 0.122825 0
M  V30 3996 C 371.451 -1.59116 -0.704131 0
M  V30 3997 O 372.627 -1.91326 -0.628987 0
M  V30 3998 C 369.692 -3.38221 -0.762086 0
M  V30 3999 C 368.753 -4.29227 0.078896 0
M  V30 4000 C 367.986 -5.28205 -0.763874 0
M  V30 4001 O 368.209 -5.34112 -2.00201 0
M  V30 4002 O 367.143 -6.01618 -0.18428 0
M  V30 4003 H 370.969 -2.89649 0.913088 0
M  V30 4004 H 368.554 -1.40374 0.511417 0
M  V30 4005 H 370.436 -4.01872 -1.26793 0
M  V30 4006 H 369.111 -2.85211 -1.5309 0
M  V30 4007 H 368.018 -3.68747 0.630621 0
M  V30 4008 H 369.351 -4.85484 0.810289 0
M  V30 4009 N 371.003 -0.499398 -1.49478 0
M  V30 4010 C 372.419 -0.155261 -1.58843 0
M  V30 4011 C 372.619 1.34008 -1.50479 0
M  V30 4012 O 371.675 2.11589 -1.37791 0
M  V30 4013 C 372.988 -0.730636 -2.91689 0
M  V30 4014 C 374.536 -0.696599 -3.0515 0
M  V30 4015 C 375.011 -1.25001 -4.40612 0
M  V30 4016 N 376.502 -1.21064 -4.47099 0
M  V30 4017 C 377.237 -1.60905 -5.50361 0
M  V30 4018 N 376.733 -2.08331 -6.60735 0
M  V30 4019 N 378.526 -1.52331 -5.41065 0
M  V30 4020 H 370.677 -1.47162 -1.53158 0
M  V30 4021 H 372.94 -0.610309 -0.725415 0
M  V30 4022 H 372.646 -1.77928 -3.03372 0
M  V30 4023 H 372.52 -0.190161 -3.7672 0
M  V30 4024 H 374.907 0.343204 -2.93097 0
M  V30 4025 H 374.988 -1.2742 -2.21806 0
M  V30 4026 H 374.632 -2.28859 -4.53416 0
M  V30 4027 H 374.562 -0.64836 -5.22593 0
M  V30 4028 H 377.053 -0.863128 -3.67911 0
M  V30 4029 H 377.366 -2.36805 -7.35624 0
M  V30 4030 H 375.711 -2.12304 -6.6178 0
M  V30 4031 H 378.902 -1.151 -4.53729 0
M  V30 4032 H 379.075 -1.83704 -6.21415 0
M  V30 4033 N 372.481 1.55866 -0.233164 0
M  V30 4034 C 373.413 2.18099 0.704668 0
M  V30 4035 C 374.426 1.15334 1.14899 0
M  V30 4036 O 375.615 1.42262 1.07814 0
M  V30 4037 C 372.715 2.7592 1.96777 0
M  V30 4038 C 371.888 4.03969 1.67713 0
M  V30 4039 C 370.947 4.46242 2.78845 0
M  V30 4040 O 369.973 5.12903 2.46818 0
M  V30 4041 N 371.175 4.12886 4.08051 0
M  V30 4042 H 373.94 2.99205 0.172258 0
M  V30 4043 H 371.501 1.61815 -0.0525945 0
M  V30 4044 H 373.493 3.01165 2.70337 0
M  V30 4045 H 372.063 1.99051 2.41034 0
M  V30 4046 H 371.283 3.86459 0.777391 0
M  V30 4047 H 372.571 4.8748 1.4574 0
M  V30 4048 H 371.969 3.59342 4.3691 0
M  V30 4049 H 370.526 4.42997 4.78118 0
M  V30 4050 N 373.959 -0.0401083 1.57549 0
M  V30 4051 C 375.375 -0.395556 1.54621 0
M  V30 4052 C 375.575 -1.77281 0.957799 0
M  V30 4053 O 374.631 -2.45888 0.574031 0
M  V30 4054 C 375.944 -0.307535 2.99123 0
M  V30 4055 C 377.492 -0.385425 3.10618 0
M  V30 4056 C 377.967 -0.326973 4.56831 0
M  V30 4057 N 379.458 -0.386102 4.61588 0
M  V30 4058 C 380.193 -0.363591 5.72246 0
M  V30 4059 N 379.689 -0.29402 6.92176 0
M  V30 4060 N 381.482 -0.412503 5.60584 0
M  V30 4061 H 373.633 0.861325 1.94152 0
M  V30 4062 H 375.896 0.326445 0.890021 0
M  V30 4063 H 375.602 0.638461 3.45856 0
M  V30 4064 H 375.476 -1.10552 3.60636 0
M  V30 4065 H 377.863 -1.32185 2.63839 0
M  V30 4066 H 377.944 0.44171 2.51957 0
M  V30 4067 H 377.588 0.605738 5.04275 0
M  V30 4068 H 377.518 -1.17207 5.13391 0
M  V30 4069 H 380.009 -0.442832 3.75296 0
M  V30 4070 H 380.322 -0.28164 7.72287 0
M  V30 4071 H 378.667 -0.260232 6.94513 0
M  V30 4072 H 381.858 -0.464769 4.65787 0
M  V30 4073 H 382.031 -0.391492 6.46816 0
M  V30 4074 N 375.437 -1.54477 -0.31217 0
M  V30 4075 C 376.853 -1.45442 -0.657185 0
M  V30 4076 C 377.053 -0.63653 -1.91182 0
M  V30 4077 O 376.109 -0.139815 -2.52113 0
M  V30 4078 C 377.422 -2.89287 -0.82058 0
M  V30 4079 C 378.97 -2.9926 -0.917188 0
M  V30 4080 C 379.445 -4.44279 -1.11267 0
M  V30 4081 N 380.936 -4.4794 -1.17914 0
M  V30 4082 C 381.671 -5.57318 -1.34848 0
M  V30 4083 N 381.167 -6.76642 -1.48752 0
M  V30 4084 N 382.96 -5.44986 -1.37647 0
M  V30 4085 H 375.111 -2.06129 0.512313 0
M  V30 4086 H 377.374 -0.933088 0.167485 0
M  V30 4087 H 377.08 -3.51687 0.0302604 0
M  V30 4088 H 376.954 -3.36061 -1.71298 0
M  V30 4089 H 379.341 -2.36981 -1.75852 0
M  V30 4090 H 379.422 -2.558 -0.00101257 0
M  V30 4091 H 379.066 -5.07149 -0.27614 0
M  V30 4092 H 378.996 -4.85359 -2.04289 0
M  V30 4093 H 381.487 -3.61969 -1.08567 0
M  V30 4094 H 381.8 -7.55758 -1.61397 0
M  V30 4095 H 380.145 -6.79529 -1.45828 0
M  V30 4096 H 383.336 -4.50715 -1.26388 0
M  V30 4097 H 383.509 -6.3028 -1.50501 0
M  V30 4098 N 376.915 0.57481 -1.46744 0
M  V30 4099 C 377.862 1.68329 -1.57905 0
M  V30 4100 C 378.832 1.60625 -0.422927 0
M  V30 4101 O 380.017 1.79721 -0.640711 0
M  V30 4102 C 377.157 3.06665 -1.58274 0
M  V30 4103 C 376.27 3.24935 -2.84678 0
M  V30 4104 C 375.405 4.53566 -2.76499 0
M  V30 4105 C 374.444 4.65207 -3.97806 0
M  V30 4106 N 373.581 5.85172 -3.87967 0
M  V30 4107 H 378.421 1.58127 -2.52587 0
M  V30 4108 H 375.958 0.770552 -1.25303 0
M  V30 4109 H 377.916 3.86745 -1.56473 0
M  V30 4110 H 376.546 3.15745 -0.671194 0
M  V30 4111 H 375.598 2.38405 -2.96424 0
M  V30 4112 H 376.91 3.29403 -3.7456 0
M  V30 4113 H 376.064 5.41885 -2.72848 0
M  V30 4114 H 374.803 4.51548 -1.8427 0
M  V30 4115 H 373.808 3.75304 -4.0178 0
M  V30 4116 H 375.033 4.68997 -4.9114 0
M  V30 4117 H 372.979 5.84137 -2.98529 0
M  V30 4118 H 372.896 5.90943 -4.71511 0
M  V30 4119 H 374.164 6.759 -3.88303 0
M  V30 4120 N 378.394 1.34581 0.820102 0
M  V30 4121 C 379.619 1.30333 1.61332 0
M  V30 4122 C 380.044 -0.119339 1.87721 0
M  V30 4123 O 379.402 -1.08197 1.45475 0
M  V30 4124 C 379.45 2.10258 2.92957 0
M  V30 4125 O 378.554 1.47404 3.85157 0
M  V30 4126 H 377.895 0.447488 0.490561 0
M  V30 4127 H 380.425 1.77425 1.01889 0
M  V30 4128 H 380.435 2.21718 3.42498 0
M  V30 4129 H 379.11 3.13693 2.73074 0
M  V30 4130 H 377.687 1.44703 3.43679 0
M  V30 4131 N 379.872 -1.04064 1.18357 0
M  V30 4132 C 381.097 -1.81454 1.00445 0
M  V30 4133 C 381.522 -1.82823 -0.442423 0
M  V30 4134 O 380.88 -1.24555 -1.31741 0
M  V30 4135 C 380.928 -3.24925 1.56384 0
M  V30 4136 O 380.032 -4.04856 0.785209 0
M  V30 4137 H 379.373 -0.560604 0.355835 0
M  V30 4138 H 381.903 -1.31059 1.57114 0
M  V30 4139 H 381.913 -3.75702 1.59097 0
M  V30 4140 H 380.588 -3.23244 2.61699 0
M  V30 4141 H 379.165 -3.63537 0.830399 0
M  V30 4142 N 381.35 -0.985608 -1.22978 0
M  V30 4143 C 382.28 -0.549649 -2.26939 0
M  V30 4144 C 383.261 0.419803 -1.64838 0
M  V30 4145 O 384.446 0.31203 -1.91677 0
M  V30 4146 C 381.576 0.143652 -3.47003 0
M  V30 4147 C 380.53 -0.743606 -4.21491 0
M  V30 4148 C 379.856 0.0822027 -5.34637 0
M  V30 4149 C 381.156 -2.03694 -4.80943 0
M  V30 4150 H 382.85 -1.41862 -2.63658 0
M  V30 4151 H 380.396 -0.683571 -1.26741 0
M  V30 4152 H 382.349 0.459985 -4.18882 0
M  V30 4153 H 381.073 1.04711 -3.09359 0
M  V30 4154 H 379.732 -1.04347 -3.51436 0
M  V30 4155 H 379.38 0.986359 -4.93234 0
M  V30 4156 H 379.08 -0.508377 -5.85397 0
M  V30 4157 H 380.604 0.392797 -6.09335 0
M  V30 4158 H 382.018 -1.78504 -5.44802 0
M  V30 4159 H 380.415 -2.57573 -5.42011 0
M  V30 4160 H 381.485 -2.72042 -4.01399 0
M  V30 4161 N 382.828 1.3818 -0.7579 0
M  V30 4162 C 383.761 2.28055 -0.0814093 0
M  V30 4163 C 384.739 1.45603 0.723779 0
M  V30 4164 O 385.923 1.74961 0.701491 0
M  V30 4165 C 383.05 3.2676 0.891394 0
M  V30 4166 C 382.096 4.26153 0.171909 0
M  V30 4167 S 382.929 5.23434 -1.13035 0
M  V30 4168 C 384.085 6.25694 -0.160727 0
M  V30 4169 H 384.318 2.85082 -0.84353 0
M  V30 4170 H 381.851 1.44246 -0.550671 0
M  V30 4171 H 383.809 3.8414 1.44731 0
M  V30 4172 H 382.47 2.68706 1.62652 0
M  V30 4173 H 381.663 4.95738 0.908843 0
M  V30 4174 H 381.265 3.72691 -0.312606 0
M  V30 4175 H 383.557 6.74161 0.671773 0
M  V30 4176 H 384.5 7.03285 -0.824353 0
M  V30 4177 H 384.908 5.64064 0.221892 0
M  V30 4178 N 384.306 0.507319 1.49211 0
M  V30 4179 C 385.553 -0.0349529 2.0247 0
M  V30 4180 C 385.881 -1.36409 1.38647 0
M  V30 4181 O 385.136 -1.88841 0.513566 0
M  V30 4182 C 385.435 -0.229513 3.56662 0
M  V30 4183 C 385.101 1.02241 4.39156 0
M  V30 4184 C 383.763 1.36557 4.61417 0
M  V30 4185 C 386.115 1.85428 4.871 0
M  V30 4186 C 383.443 2.53999 5.28868 0
M  V30 4187 C 385.795 3.02028 5.55843 0
M  V30 4188 C 384.459 3.36717 5.76349 0
M  V30 4189 H 383.729 -0.0127902 0.74089 0
M  V30 4190 H 386.376 0.668756 1.79443 0
M  V30 4191 H 384.681 -1.0158 3.78403 0
M  V30 4192 H 386.378 -0.663641 3.9547 0
M  V30 4193 H 382.968 0.745124 4.22073 0
M  V30 4194 H 387.152 1.6023 4.69723 0
M  V30 4195 H 382.408 2.81105 5.42946 0
M  V30 4196 H 386.582 3.66808 5.91967 0
M  V30 4197 H 384.209 4.27821 6.28389 0
M  V30 4198 N 385.784 -1.5574 0.241426 0
M  V30 4199 C 387.009 -2.0366 -0.392111 0
M  V30 4200 C 387.434 -1.11969 -1.51144 0
M  V30 4201 O 386.792 -0.111594 -1.80956 0
M  V30 4202 C 386.84 -3.49638 -0.882371 0
M  V30 4203 O 385.944 -3.6108 -1.99235 0
M  V30 4204 H 385.285 -0.658379 -0.0862122 0
M  V30 4205 H 387.815 -2.01302 0.365881 0
M  V30 4206 H 387.825 -3.90351 -1.18702 0
M  V30 4207 H 386.5 -4.15852 -0.0632361 0
M  V30 4208 H 385.077 -3.32262 -1.69282 0
M  V30 4209 N 387.262 0.0317525 -1.57568 0
M  V30 4210 C 388.487 0.738664 -1.938 0
M  V30 4211 C 388.912 1.68242 -0.841208 0
M  V30 4212 O 388.27 1.80157 0.203267 0
M  V30 4213 C 388.318 1.47417 -3.29091 0
M  V30 4214 O 387.422 2.5872 -3.2115 0
M  V30 4215 H 386.763 0.198856 -0.633524 0
M  V30 4216 H 389.293 -0.0119713 -2.04596 0
M  V30 4217 H 389.303 1.84468 -3.63917 0
M  V30 4218 H 387.978 0.781988 -4.08482 0
M  V30 4219 H 386.555 2.24231 -2.97951 0
M  V30 4220 N 388.74 1.54641 0.303973 0
M  V30 4221 C 390.156 1.45788 0.649463 0
M  V30 4222 C 390.356 0.64666 1.90842 0
M  V30 4223 O 389.412 0.153183 2.52035 0
M  V30 4224 C 390.725 2.89718 0.805227 0
M  V30 4225 C 392.273 2.99742 0.901305 0
M  V30 4226 C 392.748 4.44863 1.08909 0
M  V30 4227 N 394.239 4.48559 1.15536 0
M  V30 4228 C 394.974 5.58026 1.3189 0
M  V30 4229 N 394.47 6.77422 1.45161 0
M  V30 4230 N 396.263 5.45708 1.34755 0
M  V30 4231 H 388.414 2.05854 -0.523237 0
M  V30 4232 H 390.677 0.932186 -0.172431 0
M  V30 4233 H 390.383 3.51666 -0.0489108 0
M  V30 4234 H 390.257 3.36964 1.69513 0
M  V30 4235 H 392.644 2.3791 1.74593 0
M  V30 4236 H 392.725 2.55797 -0.0125531 0
M  V30 4237 H 392.369 5.07288 0.249241 0
M  V30 4238 H 392.299 4.86436 2.01713 0
M  V30 4239 H 394.79 3.6254 1.06646 0
M  V30 4240 H 395.103 7.56604 1.57387 0
M  V30 4241 H 393.448 6.80292 1.42223 0
M  V30 4242 H 396.639 4.51378 1.23996 0
M  V30 4243 H 396.812 6.3107 1.47157 0
M  V30 4244 N 390.218 -0.567019 1.47046 0
M  V30 4245 C 391.446 -1.35027 1.56765 0
M  V30 4246 C 391.861 -1.8758 0.214316 0
M  V30 4247 O 391.218 -1.64471 -0.790919 0
M  V30 4248 C 391.269 -2.52698 2.58507 0
M  V30 4249 O 390.99 -2.0232 3.88585 0
M  V30 4250 C 392.491 -3.45043 2.78316 0
M  V30 4251 H 389.711 -0.41195 0.529658 0
M  V30 4252 H 392.255 -0.687832 1.92585 0
M  V30 4253 H 390.41 -3.149 2.25648 0
M  V30 4254 H 390.824 -2.79068 4.44096 0
M  V30 4255 H 392.298 -4.2405 3.53391 0
M  V30 4256 H 392.775 -3.97971 1.85784 0
M  V30 4257 H 393.381 -2.88665 3.12334 0
M  V30 4258 N 391.696 -1.35014 -0.812953 0
M  V30 4259 C 392.643 -1.27412 -1.92444 0
M  V30 4260 C 393.613 -0.14733 -1.65445 0
M  V30 4261 O 394.798 -0.329974 -1.87925 0
M  V30 4262 C 391.938 -1.04558 -3.28879 0
M  V30 4263 C 391.051 -2.26101 -3.68106 0
M  V30 4264 C 390.186 -1.96449 -4.9354 0
M  V30 4265 C 389.225 -3.14081 -5.25376 0
M  V30 4266 N 388.362 -2.84246 -6.41988 0
M  V30 4267 H 393.202 -2.22463 -1.98278 0
M  V30 4268 H 390.739 -1.10593 -0.969933 0
M  V30 4269 H 392.697 -0.893413 -4.07522 0
M  V30 4270 H 391.327 -0.131719 -3.22531 0
M  V30 4271 H 390.379 -2.52204 -2.84775 0
M  V30 4272 H 391.691 -3.13959 -3.87597 0
M  V30 4273 H 390.845 -1.78026 -5.79993 0
M  V30 4274 H 389.584 -1.05867 -4.76071 0
M  V30 4275 H 388.589 -3.33089 -4.37415 0
M  V30 4276 H 389.814 -4.05455 -5.44778 0
M  V30 4277 H 387.76 -1.96252 -6.25956 0
M  V30 4278 H 387.677 -3.65637 -6.61699 0
M  V30 4279 H 388.945 -2.6935 -7.31485 0
M  V30 4280 N 393.175 1.03435 -1.18907 0
M  V30 4281 C 394.108 2.11162 -0.86521 0
M  V30 4282 C 395.086 1.6165 0.175473 0
M  V30 4283 O 396.27 1.88425 0.0530129 0
M  V30 4284 C 393.397 3.37423 -0.293868 0
M  V30 4285 C 392.443 4.05795 -1.31274 0
M  V30 4286 S 393.276 4.52027 -2.8711 0
M  V30 4287 C 394.432 5.81513 -2.31504 0
M  V30 4288 H 394.665 2.38308 -1.77754 0
M  V30 4289 H 392.198 1.16295 -1.01562 0
M  V30 4290 H 394.156 4.1049 0.0292572 0
M  V30 4291 H 392.817 3.0838 0.596682 0
M  V30 4292 H 392.01 4.96574 -0.86198 0
M  V30 4293 H 391.612 3.38874 -1.58242 0
M  V30 4294 H 393.904 6.55784 -1.70157 0
M  V30 4295 H 394.847 6.3136 -3.20608 0
M  V30 4296 H 395.255 5.36921 -1.74286 0
M  V30 4297 N 394.653 0.992116 1.22453 0
M  V30 4298 C 395.601 0.534644 2.26372 0
M  V30 4299 C 396.595 -0.414293 1.64256 0
M  V30 4300 O 397.801 -0.286899 1.77699 0
M  V30 4301 H 394.176 0.154502 0.735957 0
M  V30 4302 H 396.147 1.42256 2.62309 0
M  V30 4303 C 394.896 -0.135815 3.47435 0
M  V30 4304 H 394.219 0.585311 3.95492 0
M  V30 4305 H 395.659 -0.419374 4.21921 0
M  V30 4306 C 394.118 -1.37089 3.07747 0
M  V30 4307 O 394.648 -2.46629 3.17076 0
M  V30 4308 N 392.854 -1.24585 2.62539 0
M  V30 4309 H 392.401 -0.354542 2.55149 0
M  V30 4310 H 392.359 -2.07327 2.36353 0
M  V30 4311 N 396.131 -1.37776 0.765217 0
M  V30 4312 C 397.356 -2.04651 0.336537 0
M  V30 4313 C 397.781 -1.57337 -1.03086 0
M  V30 4314 O 397.139 -0.730621 -1.65927 0
M  V30 4315 C 397.187 -3.58577 0.381468 0
M  V30 4316 O 396.291 -4.07706 -0.62042 0
M  V30 4317 H 395.632 -0.64756 0.146838 0
M  V30 4318 H 398.162 -1.76221 1.03959 0
M  V30 4319 H 398.172 -4.07314 0.236448 0
M  V30 4320 H 396.847 -3.9237 1.37907 0
M  V30 4321 H 395.424 -3.70306 -0.439056 0
M  V30 4322 N 397.609 -0.515225 -1.4894 0
M  V30 4323 C 398.557 0.269115 -2.31038 0
M  V30 4324 C 399.551 0.949443 -1.40292 0
M  V30 4325 O 400.757 0.87551 -1.57273 0
M  V30 4326 H 397.132 0.10565 -0.744542 0
M  V30 4327 H 399.103 -0.443096 -2.95092 0
M  V30 4328 C 397.852 1.31213 -3.21991 0
M  V30 4329 H 397.175 0.798034 -3.91754 0
M  V30 4330 H 398.615 1.83263 -3.82349 0
M  V30 4331 C 397.074 2.33791 -2.42576 0
M  V30 4332 O 397.604 3.3995 -2.14003 0
M  V30 4333 N 395.81 2.06625 -2.0434 0
M  V30 4334 H 395.357 1.20314 -2.27777 0
M  V30 4335 H 395.315 2.75483 -1.51514 0
M  V30 4336 N 399.087 1.5561 -0.249682 0
M  V30 4337 C 400.315 2.03411 0.378352 0
M  V30 4338 C 400.73 1.12886 1.51335 0
M  V30 4339 O 400.087 0.143833 1.81932 0
M  V30 4340 C 400.138 3.50537 0.88351 0
M  V30 4341 O 399.859 4.37614 -0.20626 0
M  V30 4342 C 401.36 4.14113 1.58195 0
M  V30 4343 H 398.58 0.664994 0.08958 0
M  V30 4344 H 401.124 2.01044 -0.374357 0
M  V30 4345 H 399.279 3.5343 1.58639 0
M  V30 4346 H 399.693 5.24199 0.177782 0
M  V30 4347 H 401.167 5.18741 1.8871 0
M  V30 4348 H 401.644 3.60767 2.50487 0
M  V30 4349 H 402.25 4.15151 0.923573 0
M  V30 4350 N 400.565 -0.0233959 1.57583 0
M  V30 4351 C 401.814 -0.712133 1.8871 0
M  V30 4352 C 402.127 -1.76217 0.848944 0
M  V30 4353 O 403.333 -2.50389 1.04964 0
M  V30 4354 C 401.789 -1.3177 3.3491 0
M  V30 4355 C 401.397 -0.303715 4.46969 0
M  V30 4356 C 403.141 -1.98598 3.75179 0
M  V30 4357 C 401.048 -0.917945 5.84233 0
M  V30 4358 H 399.978 -0.269735 0.704101 0
M  V30 4359 H 402.629 0.0333114 1.8347 0
M  V30 4360 H 401.011 -2.11304 3.34913 0
M  V30 4361 H 402.185 0.465325 4.58445 0
M  V30 4362 H 400.5 0.2628 4.1557 0
M  V30 4363 H 403.097 -2.45416 4.75053 0
M  V30 4364 H 403.44 -2.80659 3.07468 0
M  V30 4365 H 403.973 -1.25831 3.77374 0
M  V30 4366 H 400.712 -0.136633 6.55358 0
M  V30 4367 H 400.232 -1.65669 5.76467 0
M  V30 4368 H 401.911 -1.4236 6.31144 0
M  V30 4369 N 402.043 -1.548 -0.295768 0
M  V30 4370 C 403.006 -1.85363 -1.34808 0
M  V30 4371 C 404.006 -0.726817 -1.43436 0
M  V30 4372 O 405.196 -0.995088 -1.42981 0
M  V30 4373 C 402.328 -2.03859 -2.73229 0
M  V30 4374 H 403.521 -2.7941 -1.08949 0
M  V30 4375 H 401.074 -1.46942 -0.532702 0
M  V30 4376 H 401.809 -1.12117 -3.04303 0
M  V30 4377 H 401.594 -2.8588 -2.68356 0
M  V30 4378 H 403.084 -2.28857 -3.49305 0
M  V30 4379 N 403.521 0.559213 -1.47345 0
M  V30 4380 C 404.746 1.34676 -1.57725 0
M  V30 4381 C 405.171 1.86723 -0.227164 0
M  V30 4382 O 404.529 1.6286 0.796642 0
M  V30 4383 C 404.577 2.49399 -2.60447 0
M  V30 4384 O 403.681 3.51567 -2.15578 0
M  V30 4385 H 403.022 0.400115 -0.52991 0
M  V30 4386 H 405.552 0.676009 -1.93109 0
M  V30 4387 H 405.562 2.95996 -2.80803 0
M  V30 4388 H 404.237 2.10873 -3.58477 0
M  V30 4389 H 402.814 3.11289 -2.05313 0
M  V30 4390 N 404.999 1.35443 0.805782 0
M  V30 4391 C 405.946 1.28431 1.91766 0
M  V30 4392 C 406.916 0.156102 1.65365 0
M  V30 4393 O 408.101 0.339936 1.87747 0
M  V30 4394 C 405.241 1.06301 3.2832 0
M  V30 4395 C 404.354 2.2805 3.66902 0
M  V30 4396 C 403.489 1.99064 4.92491 0
M  V30 4397 C 402.528 3.16863 5.23703 0
M  V30 4398 N 401.665 2.87647 6.40471 0
M  V30 4399 H 406.505 2.23511 1.97096 0
M  V30 4400 H 404.042 1.11105 0.964054 0
M  V30 4401 H 406 0.915012 4.07042 0
M  V30 4402 H 404.63 0.148822 3.22457 0
M  V30 4403 H 403.682 2.53711 2.83434 0
M  V30 4404 H 404.994 3.1601 3.85927 0
M  V30 4405 H 404.148 1.81099 5.7904 0
M  V30 4406 H 402.887 1.0839 4.75503 0
M  V30 4407 H 401.892 3.35404 4.35642 0
M  V30 4408 H 403.117 4.08339 5.4262 0
M  V30 4409 H 401.063 1.99568 6.24907 0
M  V30 4410 H 400.98 3.69141 6.59751 0
M  V30 4411 H 402.248 2.73226 7.30047 0
M  V30 4412 N 406.477 -1.02803 1.19454 0
M  V30 4413 C 407.41 -2.107 0.876396 0
M  V30 4414 C 408.388 -1.61741 -0.166897 0
M  V30 4415 O 409.572 -1.88451 -0.0430195 0
M  V30 4416 C 406.699 -3.37262 0.311758 0
M  V30 4417 C 405.745 -4.05093 1.33424 0
M  V30 4418 S 406.578 -4.50498 2.89503 0
M  V30 4419 C 407.734 -5.80277 2.34584 0
M  V30 4420 H 407.967 -2.37362 1.79016 0
M  V30 4421 H 405.5 -1.15755 1.02177 0
M  V30 4422 H 407.458 -4.10499 -0.00748752 0
M  V30 4423 H 406.119 -3.08693 -0.58032 0
M  V30 4424 H 405.312 -4.9611 0.888302 0
M  V30 4425 H 404.914 -3.3803 1.60037 0
M  V30 4426 H 407.206 -6.54873 1.73633 0
M  V30 4427 H 408.149 -6.29651 3.23952 0
M  V30 4428 H 408.557 -5.3599 1.77131 0
M  V30 4429 N 407.956 -0.998596 -1.21925 0
M  V30 4430 C 409.204 -0.676325 -1.90448 0
M  V30 4431 C 409.525 0.794719 -1.78071 0
M  V30 4432 O 408.795 1.5701 -1.17152 0
M  V30 4433 H 407.375 -0.247165 -0.704925 0
M  V30 4434 H 410.037 -1.26633 -1.48156 0
M  V30 4435 H 409.133 -0.943858 -2.97486 0
M  V30 4436 N 409.434 1.37368 -0.772513 0
M  V30 4437 C 410.659 2.0447 -0.347386 0
M  V30 4438 C 411.084 1.57882 1.0225 0
M  V30 4439 O 410.442 0.73941 1.65537 0
M  V30 4440 C 410.49 3.58369 -0.400479 0
M  V30 4441 O 409.594 4.0803 0.598789 0
M  V30 4442 H 408.935 0.646773 -0.15027 0
M  V30 4443 H 411.465 1.75667 -1.04892 0
M  V30 4444 H 411.475 4.07183 -0.258045 0
M  V30 4445 H 410.15 3.91633 -1.39986 0
M  V30 4446 H 408.727 3.70534 0.419411 0
M  V30 4447 N 410.912 0.523116 1.48665 0
M  V30 4448 C 412.159 -0.0134763 2.02496 0
M  V30 4449 C 412.487 -1.3493 1.40086 0
M  V30 4450 O 411.742 -1.88286 0.533567 0
M  V30 4451 C 412.041 -0.191671 3.56886 0
M  V30 4452 C 411.707 1.06893 4.38046 0
M  V30 4453 C 410.369 1.41443 4.59943 0
M  V30 4454 C 412.721 1.90584 4.85106 0
M  V30 4455 C 410.049 2.59594 5.26144 0
M  V30 4456 C 412.401 3.07907 5.52609 0
M  V30 4457 C 411.065 3.42811 5.72745 0
M  V30 4458 H 410.335 -0.00493133 0.740984 0
M  V30 4459 H 412.982 0.687751 1.78724 0
M  V30 4460 H 411.287 -0.97561 3.79459 0
M  V30 4461 H 412.984 -0.621659 3.96152 0
M  V30 4462 H 409.574 0.789848 4.21259 0
M  V30 4463 H 413.758 1.65203 4.67997 0
M  V30 4464 H 409.014 2.86847 5.39934 0
M  V30 4465 H 413.188 3.73066 5.88043 0
M  V30 4466 H 410.815 4.34462 6.23816 0
M  V30 4467 N 412.39 -1.55475 0.257931 0
M  V30 4468 C 413.615 -2.04064 -0.370488 0
M  V30 4469 C 414.04 -1.13565 -1.49948 0
M  V30 4470 O 413.398 -0.130781 -1.80828 0
M  V30 4471 C 413.446 -3.50554 -0.845237 0
M  V30 4472 O 412.55 -3.63173 -1.95394 0
M  V30 4473 H 411.891 -0.659257 -0.0792243 0
M  V30 4474 H 414.421 -2.00903 0.387212 0
M  V30 4475 H 414.431 -3.91588 -1.14555 0
M  V30 4476 H 413.106 -4.15896 -0.0191259 0
M  V30 4477 H 411.683 -3.34039 -1.65748 0
M  V30 4478 N 413.868 0.0150385 -1.57593 0
M  V30 4479 C 414.8 1.03912 -2.04291 0
M  V30 4480 C 415.813 1.31618 -0.958146 0
M  V30 4481 O 417.002 1.28859 -1.23522 0
M  V30 4482 C 414.102 2.37749 -2.41514 0
M  V30 4483 C 413.275 2.29198 -3.72541 0
M  V30 4484 C 412.334 3.45598 -3.96797 0
M  V30 4485 O 411.36 3.24461 -4.67668 0
M  V30 4486 N 412.562 4.67945 -3.43523 0
M  V30 4487 H 415.327 0.64099 -2.92765 0
M  V30 4488 H 412.888 0.20272 -1.60626 0
M  V30 4489 H 414.88 3.14364 -2.54867 0
M  V30 4490 H 413.45 2.69357 -1.58637 0
M  V30 4491 H 412.67 1.3759 -3.69408 0
M  V30 4492 H 413.958 2.20642 -4.5847 0
M  V30 4493 H 413.356 4.88017 -2.86104 0
M  V30 4494 H 411.913 5.41878 -3.62232 0
M  V30 4495 N 415.346 1.54954 0.287554 0
M  V30 4496 C 416.571 1.79209 1.04397 0
M  V30 4497 C 416.996 0.556431 1.79682 0
M  V30 4498 O 416.354 -0.493518 1.74454 0
M  V30 4499 C 416.402 3.00739 1.98969 0
M  V30 4500 O 415.506 2.74805 3.075 0
M  V30 4501 H 414.847 0.592755 0.299227 0
M  V30 4502 H 417.377 2.02068 0.320886 0
M  V30 4503 H 417.387 3.29077 2.4119 0
M  V30 4504 H 416.062 3.90329 1.43582 0
M  V30 4505 H 414.639 2.57523 2.69697 0
M  V30 4506 N 416.824 -0.551391 1.4764 0
M  V30 4507 C 418.101 -1.31229 1.45046 0
M  V30 4508 C 418.481 -2.10563 0.150527 0
M  V30 4509 O 417.829 -2.11374 -0.867956 0
M  V30 4510 C 418.039 -2.21189 2.69956 0
M  V30 4511 C 419.387 -2.82021 3.1741 0
M  V30 4512 O 420.411 -2.31488 2.70724 0
M  V30 4513 O 419.27 -3.73885 3.98588 0
M  V30 4514 H 416.364 -0.591193 0.578291 0
M  V30 4515 H 418.91 -0.569813 1.59847 0
M  V30 4516 H 417.682 -1.62207 3.56096 0
M  V30 4517 H 417.305 -3.02722 2.57769 0
M  V30 4518 N 418.302 -1.35869 -0.798587 0
M  V30 4519 C 419.527 -1.32883 -1.59238 0
M  V30 4520 C 419.952 0.0894587 -1.87887 0
M  V30 4521 O 419.31 1.05869 -1.47178 0
M  V30 4522 C 419.358 -2.14892 -2.89575 0
M  V30 4523 O 418.462 -1.53512 -3.82763 0
M  V30 4524 H 417.803 -0.455236 -0.48338 0
M  V30 4525 H 420.333 -1.79024 -0.990539 0
M  V30 4526 H 420.343 -2.27139 -3.38928 0
M  V30 4527 H 419.018 -3.17998 -2.68049 0
M  V30 4528 H 417.595 -1.50153 -3.41334 0
M  V30 4529 N 419.78 1.02168 -1.19998 0
M  V30 4530 C 421.026 1.75945 -1.00852 0
M  V30 4531 C 421.359 1.88702 0.458828 0
M  V30 4532 O 420.634 1.40911 1.34069 0
M  V30 4533 C 420.917 3.18154 -1.68671 0
M  V30 4534 C 420.77 3.13224 -3.22817 0
M  V30 4535 C 422.089 4.16711 -1.41561 0
M  V30 4536 H 419.208 0.638673 -0.367785 0
M  V30 4537 H 421.85 1.19222 -1.4794 0
M  V30 4538 H 420 3.66586 -1.28636 0
M  V30 4539 H 421.672 2.72635 -3.72112 0
M  V30 4540 H 419.915 2.50751 -3.53986 0
M  V30 4541 H 420.586 4.13728 -3.65422 0
M  V30 4542 H 423.062 3.76913 -1.76284 0
M  V30 4543 H 421.938 5.14391 -1.91553 0
M  V30 4544 H 422.199 4.40774 -0.342193 0
M  V30 4545 N 421.258 1.00505 1.21394 0
M  V30 4546 C 422.221 0.570459 2.21987 0
M  V30 4547 C 423.221 -0.353211 1.56873 0
M  V30 4548 O 424.411 -0.14349 1.73608 0
M  V30 4549 C 421.543 -0.168555 3.40483 0
M  V30 4550 H 422.736 1.46021 2.6195 0
M  V30 4551 H 420.289 0.793565 1.34656 0
M  V30 4552 H 421.024 -1.07374 3.06009 0
M  V30 4553 H 420.809 0.494823 3.88965 0
M  V30 4554 H 422.299 -0.460362 4.15055 0
M  V30 4555 N 422.737 -1.36956 0.779787 0
M  V30 4556 C 423.667 -2.32761 0.185651 0
M  V30 4557 C 424.648 -1.56177 -0.673989 0
M  V30 4558 O 425.833 -1.84378 -0.609797 0
M  V30 4559 C 422.963 -3.40418 -0.687964 0
M  V30 4560 C 421.917 -4.27941 0.0710102 0
M  V30 4561 C 421.243 -5.26681 -0.922573 0
M  V30 4562 C 422.543 -5.07006 1.25467 0
M  V30 4563 H 424.237 -2.82698 0.986008 0
M  V30 4564 H 421.783 -1.3592 0.475592 0
M  V30 4565 H 423.736 -4.06423 -1.11348 0
M  V30 4566 H 422.46 -2.89025 -1.52093 0
M  V30 4567 H 421.119 -3.63478 0.47739 0
M  V30 4568 H 420.767 -4.71565 -1.7503 0
M  V30 4569 H 420.467 -5.86103 -0.419237 0
M  V30 4570 H 421.991 -5.9556 -1.34686 0
M  V30 4571 H 423.405 -5.66105 0.905401 0
M  V30 4572 H 421.802 -5.75793 1.69063 0
M  V30 4573 H 422.872 -4.3921 2.05481 0
M  V30 4574 N 424.215 -0.530993 -1.48385 0
M  V30 4575 C 425.165 0.251092 -2.26613 0
M  V30 4576 C 426.149 0.908977 -1.32765 0
M  V30 4577 O 427.341 0.811616 -1.57295 0
M  V30 4578 C 424.47 1.29677 -3.17866 0
M  V30 4579 C 423.556 0.643627 -4.19188 0
M  V30 4580 N 423.947 -0.271223 -5.05072 0
M  V30 4581 C 422.245 0.900711 -4.3681 0
M  V30 4582 C 422.946 -0.648109 -5.78078 0
M  V30 4583 N 421.922 -0.00895987 -5.43599 0
M  V30 4584 H 425.724 -0.452702 -2.90393 0
M  V30 4585 H 423.238 -0.349091 -1.58604 0
M  V30 4586 H 425.235 1.87079 -3.72568 0
M  V30 4587 H 423.895 2.00193 -2.55642 0
M  V30 4588 H 424.906 -0.643883 -5.13882 0
M  V30 4589 H 421.583 1.59636 -3.85775 0
M  V30 4590 H 422.973 -1.39833 -6.57188 0
M  V30 4591 N 425.693 1.55336 -0.266172 0
M  V30 4592 C 426.625 2.19544 0.658247 0
M  V30 4593 C 427.638 1.17746 1.12427 0
M  V30 4594 O 428.827 1.44517 1.04772 0
M  V30 4595 C 425.927 2.80032 1.9088 0
M  V30 4596 C 425.1 4.07436 1.59106 0
M  V30 4597 C 424.159 4.52056 2.69317 0
M  V30 4598 O 423.185 5.18023 2.35883 0
M  V30 4599 N 424.387 4.21448 3.99201 0
M  V30 4600 H 427.152 2.99503 0.108754 0
M  V30 4601 H 424.713 1.61667 -0.0869059 0
M  V30 4602 H 426.705 3.06831 2.63888 0
M  V30 4603 H 425.275 2.04119 2.36758 0
M  V30 4604 H 424.495 3.88021 0.695243 0
M  V30 4605 H 425.783 4.90462 1.35367 0
M  V30 4606 H 425.181 3.68528 4.29189 0
M  V30 4607 H 423.738 4.53039 4.68614 0
M  V30 4608 N 427.171 -0.0066808 1.57599 0
M  V30 4609 C 428.587 -0.36267 1.55425 0
M  V30 4610 C 428.787 -1.75209 0.995187 0
M  V30 4611 O 427.843 -2.44616 0.626058 0
M  V30 4612 C 429.156 -0.244017 2.99708 0
M  V30 4613 C 430.704 -0.319451 3.11366 0
M  V30 4614 C 431.179 -0.229998 4.57422 0
M  V30 4615 N 432.67 -0.288105 4.62303 0
M  V30 4616 C 433.405 -0.242127 5.72889 0
M  V30 4617 N 432.901 -0.147133 6.92644 0
M  V30 4618 N 434.694 -0.293502 5.61333 0
M  V30 4619 H 426.845 0.902314 1.92281 0
M  V30 4620 H 429.108 0.34525 0.882896 0
M  V30 4621 H 428.814 0.711678 3.44424 0
M  V30 4622 H 428.688 -1.02877 3.629 0
M  V30 4623 H 431.075 -1.26559 2.66584 0
M  V30 4624 H 431.156 0.495055 2.50964 0
M  V30 4625 H 430.8 0.712566 5.02877 0
M  V30 4626 H 430.73 -1.0629 5.15761 0
M  V30 4627 H 433.221 -0.363126 3.76151 0
M  V30 4628 H 433.534 -0.117763 7.7271 0
M  V30 4629 H 431.879 -0.112857 6.94908 0
M  V30 4630 H 435.07 -0.365864 4.66668 0
M  V30 4631 H 435.243 -0.254204 6.47501 0
M  V30 4632 N 428.649 -1.55105 -0.279332 0
M  V30 4633 C 429.559 -1.90638 -1.36727 0
M  V30 4634 C 430.575 -0.802899 -1.54368 0
M  V30 4635 O 431.751 -1.10138 -1.68616 0
M  V30 4636 C 428.816 -2.16547 -2.70755 0
M  V30 4637 C 427.877 -3.40146 -2.61915 0
M  V30 4638 C 427.11 -3.6481 -3.8955 0
M  V30 4639 O 427.333 -2.92095 -4.89935 0
M  V30 4640 O 426.267 -4.58343 -3.90135 0
M  V30 4641 H 430.093 -2.83237 -1.09591 0
M  V30 4642 H 427.678 -1.4157 -0.477306 0
M  V30 4643 H 429.56 -2.34665 -3.50014 0
M  V30 4644 H 428.235 -1.27131 -2.9769 0
M  V30 4645 H 427.142 -3.2737 -1.81052 0
M  V30 4646 H 428.475 -4.29761 -2.3993 0
M  V30 4647 N 430.127 0.543554 -1.4793 0
M  V30 4648 C 431.077 1.64527 -1.57844 0
M  V30 4649 C 432.061 1.54869 -0.436408 0
M  V30 4650 O 433.253 1.63119 -0.687101 0
M  V30 4651 C 430.382 3.03281 -1.6086 0
M  V30 4652 C 429.468 3.18093 -2.80495 0
M  V30 4653 N 429.859 3.02923 -4.05057 0
M  V30 4654 C 428.157 3.49121 -2.77543 0
M  V30 4655 C 428.858 3.20791 -4.85251 0
M  V30 4656 N 427.834 3.47749 -4.17818 0
M  V30 4657 H 431.636 1.51388 -2.5191 0
M  V30 4658 H 429.15 0.748671 -1.44113 0
M  V30 4659 H 431.147 3.82403 -1.66054 0
M  V30 4660 H 429.807 3.17521 -0.678996 0
M  V30 4661 H 430.818 2.79966 -4.35705 0
M  V30 4662 H 427.495 3.69804 -1.93781 0
M  V30 4663 H 428.885 3.13915 -5.9406 0
M  V30 4664 N 431.605 1.3629 0.791371 0
M  V30 4665 C 432.851 1.30605 1.55146 0
M  V30 4666 C 433.184 -0.115042 1.93859 0
M  V30 4667 O 432.459 -1.06798 1.62556 0
M  V30 4668 C 432.742 2.22692 2.82985 0
M  V30 4669 C 432.595 3.73489 2.50651 0
M  V30 4670 C 433.914 2.13588 3.84796 0
M  V30 4671 H 431.033 0.475761 0.562868 0
M  V30 4672 H 433.675 1.66825 0.909358 0
M  V30 4673 H 431.825 1.91933 3.37778 0
M  V30 4674 H 433.497 4.14758 2.01924 0
M  V30 4675 H 431.74 3.93021 1.83622 0
M  V30 4676 H 432.411 4.3333 3.41949 0
M  V30 4677 H 434.887 2.40659 3.39445 0
M  V30 4678 H 433.763 2.80195 4.71998 0
M  V30 4679 H 434.024 1.12256 4.27611 0
M  V30 4680 N 433.083 -1.0153 1.20538 0
M  V30 4681 C 433.993 -2.13557 0.971113 0
M  V30 4682 C 435.009 -1.73845 -0.0734366 0
M  V30 4683 O 436.185 -2.01075 0.114299 0
M  V30 4684 C 433.25 -3.42661 0.527639 0
M  V30 4685 C 432.311 -3.96608 1.64319 0
M  V30 4686 C 431.544 -5.1955 1.22078 0
M  V30 4687 O 431.767 -5.70329 0.0900198 0
M  V30 4688 O 430.701 -5.66681 2.02871 0
M  V30 4689 H 434.527 -2.3619 1.90913 0
M  V30 4690 H 432.112 -1.11946 0.989362 0
M  V30 4691 H 433.994 -4.20404 0.289621 0
M  V30 4692 H 432.669 -3.21441 -0.381779 0
M  V30 4693 H 431.576 -3.20139 1.93551 0
M  V30 4694 H 432.909 -4.22219 2.52966 0
M  V30 4695 N 434.561 -1.01147 -1.20859 0
M  V30 4696 C 435.491 -0.597663 -2.25722 0
M  V30 4697 C 436.472 0.384744 -1.65692 0
M  V30 4698 O 437.657 0.271303 -1.92296 0
M  V30 4699 C 434.787 0.0700149 -3.47229 0
M  V30 4700 C 433.741 -0.832843 -4.19819 0
M  V30 4701 C 433.067 -0.0312202 -5.34691 0
M  V30 4702 C 434.367 -2.1385 -4.76514 0
M  V30 4703 H 436.061 -1.47423 -2.60589 0
M  V30 4704 H 433.607 -0.710301 -1.25263 0
M  V30 4705 H 435.56 0.37103 -4.19763 0
M  V30 4706 H 434.284 0.981259 -3.11511 0
M  V30 4707 H 432.943 -1.11778 -3.49144 0
M  V30 4708 H 432.591 0.881515 -4.95215 0
M  V30 4709 H 432.291 -0.632434 -5.84187 0
M  V30 4710 H 433.815 0.26346 -6.10031 0
M  V30 4711 H 435.229 -1.9002 -5.40893 0
M  V30 4712 H 433.626 -2.69012 -5.36426 0
M  V30 4713 H 434.696 -2.80495 -3.95538 0
M  V30 4714 N 436.039 1.36541 -0.78704 0
M  V30 4715 C 436.969 2.32659 -0.197992 0
M  V30 4716 C 437.95 1.56533 0.665697 0
M  V30 4717 O 439.135 1.84698 0.60001 0
M  V30 4718 C 436.265 3.40778 0.669901 0
M  V30 4719 C 435.219 4.27897 -0.0937039 0
M  V30 4720 C 434.545 5.27163 0.894629 0
M  V30 4721 C 435.845 5.06334 -1.28154 0
M  V30 4722 H 437.539 2.82171 -1.00099 0
M  V30 4723 H 435.085 1.35665 -0.482793 0
M  V30 4724 H 437.038 4.07008 1.09191 0
M  V30 4725 H 435.762 2.89827 1.50558 0
M  V30 4726 H 434.421 3.6322 -0.49666 0
M  V30 4727 H 434.069 4.72486 1.72527 0
M  V30 4728 H 433.769 5.86317 0.388149 0
M  V30 4729 H 435.293 5.96266 1.31525 0
M  V30 4730 H 436.707 5.65617 -0.93541 0
M  V30 4731 H 435.104 5.74888 -1.72115 0
M  V30 4732 H 436.174 4.38114 -2.07807 0
M  V30 4733 N 437.518 0.538854 1.48102 0
M  V30 4734 C 438.934 0.19732 1.58376 0
M  V30 4735 C 439.134 -1.29971 1.5398 0
M  V30 4736 O 438.19 -2.07861 1.43352 0
M  V30 4737 C 439.503 0.807716 2.89649 0
M  V30 4738 C 441.051 0.77726 3.03196 0
M  V30 4739 C 441.526 1.36639 4.37143 0
M  V30 4740 N 443.017 1.32875 4.43732 0
M  V30 4741 C 443.752 1.7544 5.45901 0
M  V30 4742 N 443.248 2.25776 6.54979 0
M  V30 4743 N 445.041 1.66623 5.36836 0
M  V30 4744 H 437.192 1.5117 1.49202 0
M  V30 4745 H 439.455 0.629327 0.708979 0
M  V30 4746 H 439.161 1.85909 2.98548 0
M  V30 4747 H 439.035 0.289975 3.76084 0
M  V30 4748 H 441.422 -0.265374 2.93904 0
M  V30 4749 H 441.503 1.33256 2.18349 0
M  V30 4750 H 441.147 2.408 4.47189 0
M  V30 4751 H 441.077 0.786689 5.20691 0
M  V30 4752 H 443.568 0.96037 3.65493 0
M  V30 4753 H 443.881 2.56226 7.29087 0
M  V30 4754 H 442.226 2.29775 6.55918 0
M  V30 4755 H 445.417 1.27089 4.50517 0
M  V30 4756 H 445.59 2.00115 6.16326 0
M  V30 4757 N 438.996 -1.55193 0.274407 0
M  V30 4758 C 439.959 -2.212 -0.600279 0
M  V30 4759 C 440.959 -1.18963 -1.08187 0
M  V30 4760 O 442.149 -1.43873 -0.982158 0
M  V30 4761 C 439.281 -2.87739 -1.82809 0
M  V30 4762 H 440.474 -2.9989 -0.0239682 0
M  V30 4763 H 438.027 -1.5628 0.0250192 0
M  V30 4764 H 438.762 -2.13058 -2.44493 0
M  V30 4765 H 438.547 -3.62658 -1.49069 0
M  V30 4766 H 440.037 -3.38171 -2.45011 0
M  V30 4767 N 440.474 -0.00167713 -1.576 0
M  V30 4768 C 441.89 0.354422 -1.55615 0
M  V30 4769 C 442.09 1.74679 -1.00447 0
M  V30 4770 O 441.146 2.4428 -0.639022 0
M  V30 4771 C 442.459 0.22812 -2.99833 0
M  V30 4772 C 444.007 0.302934 -3.11531 0
M  V30 4773 C 444.482 0.205737 -4.57538 0
M  V30 4774 N 445.973 0.263584 -4.62449 0
M  V30 4775 C 446.708 0.211742 -5.73009 0
M  V30 4776 N 446.204 0.110399 -6.92712 0
M  V30 4777 N 447.997 0.263729 -5.61481 0
M  V30 4778 H 440.148 -0.912498 -1.918 0
M  V30 4779 H 442.411 -0.349928 -0.881053 0
M  V30 4780 H 442.117 -0.729934 -3.44042 0
M  V30 4781 H 441.991 1.00951 -3.6344 0
M  V30 4782 H 444.378 1.25143 -2.67251 0
M  V30 4783 H 444.459 -0.508357 -2.50698 0
M  V30 4784 H 444.103 -0.739225 -5.02492 0
M  V30 4785 H 444.033 1.03554 -5.16318 0
M  V30 4786 H 446.524 0.343173 -3.76339 0
M  V30 4787 H 446.837 0.0767828 -7.72762 0
M  V30 4788 H 445.182 0.0760025 -6.94958 0
M  V30 4789 H 448.373 0.34111 -4.66855 0
M  V30 4790 H 448.546 0.219862 -6.47627 0
M  V30 4791 N 441.952 1.55251 0.271103 0
M  V30 4792 C 443.368 1.47133 0.618393 0
M  V30 4793 C 443.568 0.686994 1.89427 0
M  V30 4794 O 442.624 0.206609 2.51653 0
M  V30 4795 C 443.937 2.91361 0.743593 0
M  V30 4796 C 445.485 3.01587 0.837522 0
M  V30 4797 C 445.96 4.47073 0.994483 0
M  V30 4798 N 447.451 4.50909 1.05996 0
M  V30 4799 C 448.186 5.60698 1.20024 0
M  V30 4800 N 447.682 6.80348 1.30759 0
M  V30 4801 N 449.475 5.48444 1.23149 0
M  V30 4802 H 441.626 2.04698 -0.566784 0
M  V30 4803 H 443.889 0.928319 -0.192165 0
M  V30 4804 H 443.595 3.51483 -0.123493 0
M  V30 4805 H 443.469 3.40484 1.62328 0
M  V30 4806 H 445.856 2.4156 1.69507 0
M  V30 4807 H 445.937 2.55713 -0.0668086 0
M  V30 4808 H 445.581 5.07703 0.141582 0
M  V30 4809 H 445.511 4.90605 1.91349 0
M  V30 4810 H 448.002 3.6472 0.989316 0
M  V30 4811 H 448.315 7.59772 1.41303 0
M  V30 4812 H 446.66 6.83156 1.27761 0
M  V30 4813 H 449.851 4.53907 1.14394 0
M  V30 4814 H 450.024 6.34049 1.33738 0
M  V30 4815 N 443.43 -0.535701 1.48216 0
M  V30 4816 C 444.36 -1.65014 1.65204 0
M  V30 4817 C 445.341 -1.62554 0.501011 0
M  V30 4818 O 446.526 -1.7984 0.732886 0
M  V30 4819 C 443.656 -3.03616 1.68626 0
M  V30 4820 C 442.61 -3.20932 2.83172 0
M  V30 4821 C 441.936 -4.60537 2.71679 0
M  V30 4822 C 443.236 -3.04249 4.24535 0
M  V30 4823 H 444.93 -1.51053 2.58502 0
M  V30 4824 H 442.476 -0.725262 1.24402 0
M  V30 4825 H 444.429 -3.81446 1.79099 0
M  V30 4826 H 443.153 -3.18587 0.719026 0
M  V30 4827 H 441.812 -2.45517 2.72244 0
M  V30 4828 H 441.46 -4.72336 1.72937 0
M  V30 4829 H 441.16 -4.73069 3.48538 0
M  V30 4830 H 442.684 -5.40475 2.84112 0
M  V30 4831 H 444.098 -3.71877 4.36326 0
M  V30 4832 H 442.495 -3.28278 5.02348 0
M  V30 4833 H 443.565 -2.00739 4.41397 0
M  V30 4834 N 444.908 -1.36708 -0.784132 0
M  V30 4835 C 445.871 -1.31307 -1.87859 0
M  V30 4836 C 446.871 -0.219654 -1.59293 0
M  V30 4837 O 448.061 -0.47476 -1.67606 0
M  V30 4838 C 445.193 -1.03679 -3.24751 0
M  V30 4839 H 446.386 -2.28647 -1.94064 0
M  V30 4840 H 443.939 -1.21558 -0.98252 0
M  V30 4841 H 444.674 -0.0681936 -3.24228 0
M  V30 4842 H 444.459 -1.82811 -3.46876 0
M  V30 4843 H 445.949 -1.02518 -4.04821 0
M  V30 4844 N 446.386 1.0089 -1.21074 0
M  V30 4845 C 447.333 2.09588 -0.966512 0
M  V30 4846 C 448.303 1.65761 0.106089 0
M  V30 4847 O 449.488 1.90758 -0.0402287 0
M  V30 4848 C 446.628 3.40958 -0.533058 0
M  V30 4849 C 445.741 3.9822 -1.67467 0
M  V30 4850 C 444.876 5.17682 -1.19076 0
M  V30 4851 C 443.915 5.67043 -2.30496 0
M  V30 4852 N 443.052 6.77759 -1.83267 0
M  V30 4853 H 447.892 2.29815 -1.89708 0
M  V30 4854 H 445.429 1.12689 -0.945489 0
M  V30 4855 H 447.387 4.1637 -0.263019 0
M  V30 4856 H 446.017 3.20781 0.360505 0
M  V30 4857 H 445.069 3.1983 -2.05944 0
M  V30 4858 H 446.381 4.3085 -2.51336 0
M  V30 4859 H 445.535 6.00326 -0.877151 0
M  V30 4860 H 444.274 4.86635 -0.322066 0
M  V30 4861 H 443.279 4.82999 -2.62664 0
M  V30 4862 H 444.504 6.00121 -3.17855 0
M  V30 4863 H 442.45 6.48527 -0.987356 0
M  V30 4864 H 442.367 7.09624 -2.60711 0
M  V30 4865 H 443.635 7.63949 -1.54928 0
M  V30 4866 N 447.864 1.01787 1.20321 0
M  V30 4867 C 449.089 0.727009 1.9424 0
M  V30 4868 C 449.514 -0.706179 1.74341 0
M  V30 4869 O 448.872 -1.48609 1.03852 0
M  V30 4870 C 448.92 1.06958 3.44372 0
M  V30 4871 O 448.024 0.181983 4.11998 0
M  V30 4872 H 447.365 0.269626 0.606793 0
M  V30 4873 H 449.895 1.36158 1.52716 0
M  V30 4874 H 449.905 1.02182 3.94997 0
M  V30 4875 H 448.58 2.11378 3.58179 0
M  V30 4876 H 447.157 0.287378 3.71791 0
M  V30 4877 N 449.342 -1.36122 0.79427 0
M  V30 4878 C 450.272 -2.32551 0.210328 0
M  V30 4879 C 451.253 -1.56884 -0.657386 0
M  V30 4880 O 452.438 -1.85014 -0.590207 0
M  V30 4881 C 449.568 -3.41128 -0.651819 0
M  V30 4882 C 448.522 -4.27842 0.116395 0
M  V30 4883 C 447.848 -5.2763 -0.86666 0
M  V30 4884 C 449.148 -5.05647 1.30837 0
M  V30 4885 H 450.842 -2.81636 1.01594 0
M  V30 4886 H 448.388 -1.35407 0.489981 0
M  V30 4887 H 450.341 -4.07581 -1.07031 0
M  V30 4888 H 449.065 -2.90622 -1.49019 0
M  V30 4889 H 447.724 -3.62952 0.515915 0
M  V30 4890 H 447.372 -4.73395 -1.70019 0
M  V30 4891 H 447.072 -5.86514 -0.35705 0
M  V30 4892 H 448.596 -5.96955 -1.28361 0
M  V30 4893 H 450.01 -5.65113 0.965393 0
M  V30 4894 H 448.407 -5.73967 1.75161 0
M  V30 4895 H 449.477 -4.37006 2.10128 0
M  V30 4896 N 450.82 -0.546701 -1.47814 0
M  V30 4897 C 451.783 0.196287 -2.28358 0
M  V30 4898 C 452.783 0.852437 -1.36346 0
M  V30 4899 O 453.973 0.709913 -1.59078 0
M  V30 4900 C 451.105 1.28579 -3.15722 0
M  V30 4901 H 452.298 -0.511086 -2.95513 0
M  V30 4902 H 449.851 -0.303248 -1.5333 0
M  V30 4903 H 450.586 2.0259 -2.53235 0
M  V30 4904 H 450.371 0.820229 -3.83425 0
M  V30 4905 H 451.861 1.80793 -3.76435 0
M  V30 4906 N 452.299 1.55045 -0.282633 0
M  V30 4907 C 453.548 1.98938 0.332667 0
M  V30 4908 C 453.861 1.17455 1.56409 0
M  V30 4909 O 455.067 1.51527 2.25282 0
M  V30 4910 C 453.523 3.54105 0.643226 0
M  V30 4911 C 453.131 4.44374 -0.568814 0
M  V30 4912 C 454.875 4.06569 1.22074 0
M  V30 4913 C 452.782 5.90943 -0.232426 0
M  V30 4914 H 451.712 0.743043 0.128075 0
M  V30 4915 H 454.363 1.79341 -0.388464 0
M  V30 4916 H 452.745 3.69532 1.42346 0
M  V30 4917 H 453.919 4.40718 -1.34551 0
M  V30 4918 H 452.234 4.02585 -1.06369 0
M  V30 4919 H 454.831 5.13626 1.48635 0
M  V30 4920 H 455.174 3.56057 2.15707 0
M  V30 4921 H 455.707 3.94612 0.502621 0
M  V30 4922 H 452.446 6.45567 -1.13683 0
M  V30 4923 H 451.966 5.9765 0.507357 0
M  V30 4924 H 453.645 6.4677 0.172657 0
M  V30 4925 N 453.777 0.010035 1.57597 0
M  V30 4926 C 454.707 -0.976857 2.12084 0
M  V30 4927 C 455.688 -1.35191 1.03235 0
M  V30 4928 O 456.873 -1.43389 1.3097 0
M  V30 4929 C 454.003 -2.26548 2.63236 0
M  V30 4930 C 452.957 -2.03175 3.76701 0
M  V30 4931 C 452.283 -3.38138 4.14206 0
M  V30 4932 C 453.583 -1.38625 5.03568 0
M  V30 4933 H 455.277 -0.523145 2.94794 0
M  V30 4934 H 452.823 -0.250195 1.4181 0
M  V30 4935 H 454.776 -2.95952 2.99984 0
M  V30 4936 H 453.5 -2.74051 1.77661 0
M  V30 4937 H 452.159 -1.36195 3.40362 0
M  V30 4938 H 451.807 -3.83363 3.25641 0
M  V30 4939 H 451.507 -3.23312 4.90656 0
M  V30 4940 H 453.031 -4.08841 4.53521 0
M  V30 4941 H 454.445 -1.98 5.38023 0
M  V30 4942 H 452.842 -1.34256 5.84889 0
M  V30 4943 H 453.912 -0.356722 4.83586 0
M  V30 4944 N 455.255 -1.55392 -0.262866 0
M  V30 4945 C 456.185 -1.91978 -1.32917 0
M  V30 4946 C 457.166 -0.7828 -1.51017 0
M  V30 4947 O 458.351 -1.04178 -1.63892 0
M  V30 4948 C 455.481 -2.20055 -2.68687 0
M  V30 4949 C 454.435 -3.35854 -2.65304 0
M  V30 4950 C 453.761 -3.49435 -4.04721 0
M  V30 4951 C 455.061 -4.71977 -2.23685 0
M  V30 4952 H 456.755 -2.81292 -1.02544 0
M  V30 4953 H 454.301 -1.3534 -0.491846 0
M  V30 4954 H 456.254 -2.44237 -3.43404 0
M  V30 4955 H 454.978 -1.27551 -3.00663 0
M  V30 4956 H 453.637 -3.11655 -1.93045 0
M  V30 4957 H 453.285 -2.54379 -4.33936 0
M  V30 4958 H 452.985 -4.27297 -4.0335 0
M  V30 4959 H 454.509 -3.7592 -4.81161 0
M  V30 4960 H 455.923 -4.95637 -2.88127 0
M  V30 4961 H 454.32 -5.52828 -2.33456 0
M  V30 4962 H 455.39 -4.70115 -1.18827 0
M  V30 4963 N 456.733 0.527833 -1.48498 0
M  V30 4964 C 457.981 1.28101 -1.56316 0
M  V30 4965 C 458.302 1.9352 -0.239781 0
M  V30 4966 O 457.572 1.81433 0.738849 0
M  V30 4967 H 456.152 0.475793 -0.575873 0
M  V30 4968 H 458.814 0.614052 -1.84974 0
M  V30 4969 H 457.91 2.05916 -2.34532 0
M  V30 4970 N 458.211 1.37122 0.776871 0
M  V30 4971 C 459.457 1.32243 1.53752 0
M  V30 4972 C 459.79 -0.0944745 1.9397 0
M  V30 4973 O 459.065 -1.05068 1.6368 0
M  V30 4974 C 459.348 2.25681 2.80607 0
M  V30 4975 C 459.201 3.76127 2.46676 0
M  V30 4976 C 460.52 2.17657 3.82509 0
M  V30 4977 H 457.639 0.481704 0.557791 0
M  V30 4978 H 460.281 1.6778 0.891612 0
M  V30 4979 H 458.431 1.95505 3.35723 0
M  V30 4980 H 460.103 4.16877 1.97513 0
M  V30 4981 H 458.346 3.94946 1.79443 0
M  V30 4982 H 459.017 4.36933 3.37333 0
M  V30 4983 H 461.493 2.44245 3.36873 0
M  V30 4984 H 460.369 2.85185 4.69 0
M  V30 4985 H 460.63 1.16785 4.26396 0
M  V30 4986 N 459.689 -1.00246 1.21608 0
M  V30 4987 C 460.936 -1.74061 1.03485 0
M  V30 4988 C 461.264 -1.89658 -0.431308 0
M  V30 4989 O 460.519 -1.42976 -1.33627 0
M  V30 4990 C 460.818 -3.15448 1.68009 0
M  V30 4991 C 460.484 -3.19792 3.17874 0
M  V30 4992 C 459.146 -3.20685 3.58768 0
M  V30 4993 C 461.498 -3.16835 4.13842 0
M  V30 4994 C 458.826 -3.16309 4.94131 0
M  V30 4995 C 461.178 -3.14001 5.49169 0
M  V30 4996 C 459.842 -3.13204 5.89457 0
M  V30 4997 H 459.112 -0.636934 0.378677 0
M  V30 4998 H 461.759 -1.17473 1.51236 0
M  V30 4999 H 460.064 -3.75284 1.12557 0
M  V30 5000 H 461.761 -3.71285 1.51487 0
M  V30 5001 H 458.351 -3.19842 2.85305 0
M  V30 5002 H 462.535 -3.15303 3.83272 0
M  V30 5003 H 457.791 -3.14032 5.24589 0
M  V30 5004 H 461.965 -3.10667 6.23265 0
M  V30 5005 H 459.592 -3.09568 6.94314 0
M  V30 5006 N 461.167 -1.02423 -1.1978 0
M  V30 5007 C 462.13 -0.605703 -2.21052 0
M  V30 5008 C 463.13 0.328209 -1.57415 0
M  V30 5009 O 464.32 0.115853 -1.73814 0
M  V30 5010 C 461.452 0.114366 -3.40708 0
M  V30 5011 H 462.645 -1.5017 -2.59594 0
M  V30 5012 H 460.198 -0.814888 -1.33376 0
M  V30 5013 H 460.933 1.02492 -3.07678 0
M  V30 5014 H 460.718 -0.556641 -3.88129 0
M  V30 5015 H 462.208 0.394272 -4.15735 0
M  V30 5016 N 462.645 1.35699 -0.801477 0
M  V30 5017 C 463.891 1.99208 -0.380022 0
M  V30 5018 C 464.224 1.63445 1.04878 0
M  V30 5019 O 463.499 0.895223 1.72673 0
M  V30 5020 C 463.782 3.55755 -0.557708 0
M  V30 5021 C 463.635 4.01332 -2.03107 0
M  V30 5022 C 464.954 4.40096 0.0197968 0
M  V30 5023 H 462.073 0.723667 -0.139552 0
M  V30 5024 H 464.715 1.60928 -1.01006 0
M  V30 5025 H 462.865 3.88494 -0.0213741 0
M  V30 5026 H 464.537 3.79026 -2.62939 0
M  V30 5027 H 462.78 3.52429 -2.52936 0
M  V30 5028 H 463.451 5.10234 -2.1063 0
M  V30 5029 H 465.927 4.13786 -0.438179 0
M  V30 5030 H 464.803 5.48735 -0.134477 0
M  V30 5031 H 465.064 4.2786 1.11303 0
M  V30 5032 N 464.123 0.554532 1.47522 0
M  V30 5033 C 465.363 0.0317994 2.04375 0
M  V30 5034 C 465.727 -1.29242 1.41988 0
M  V30 5035 O 466.928 -1.90269 1.89872 0
M  V30 5036 C 465.199 -0.0623344 3.57346 0
M  V30 5037 S 466.758 -0.531578 4.35568 0
M  V30 5038 H 463.576 0.0238553 0.7106 0
M  V30 5039 H 466.178 0.74066 1.80927 0
M  V30 5040 H 464.882 0.905857 4.00278 0
M  V30 5041 H 464.413 -0.794831 3.85287 0
M  V30 5042 H 466.428 -1.79175 4.62721 0
M  V30 5043 N 465.601 -1.54893 0.290851 0
M  V30 5044 C 466.847 -2.00949 -0.314784 0
M  V30 5045 C 467.202 -1.1757 -1.52299 0
M  V30 5046 O 466.495 -0.241558 -1.90071 0
M  V30 5047 C 466.689 -3.49815 -0.732397 0
M  V30 5048 C 466.518 -4.47603 0.433799 0
M  V30 5049 C 465.288 -4.96806 0.922599 0
M  V30 5050 C 467.486 -4.98233 1.27546 0
M  V30 5051 N 465.468 -5.78426 2.05662 0
M  V30 5052 C 466.839 -5.77455 2.25712 0
M  V30 5053 C 468.894 -4.80439 1.307 0
M  V30 5054 C 467.597 -6.40778 3.26796 0
M  V30 5055 C 469.623 -5.44574 2.30637 0
M  V30 5056 C 468.985 -6.23619 3.27533 0
M  V30 5057 H 465.084 -0.777905 -0.0799257 0
M  V30 5058 H 467.668 -1.9015 0.418458 0
M  V30 5059 H 465.839 -3.60925 -1.43483 0
M  V30 5060 H 467.571 -3.82681 -1.31671 0
M  V30 5061 H 464.326 -4.70961 0.49926 0
M  V30 5062 H 464.75 -6.23923 2.62772 0
M  V30 5063 H 469.392 -4.18918 0.571622 0
M  V30 5064 H 467.11 -7.01439 4.01258 0
M  V30 5065 H 470.696 -5.32739 2.33838 0
M  V30 5066 H 469.576 -6.72367 4.03599 0
M  V30 5067 N 467.08 -0.0183926 -1.57589 0
M  V30 5068 C 468.043 0.951986 -2.08494 0
M  V30 5069 C 469.043 1.26092 -0.997874 0
M  V30 5070 O 470.233 1.20304 -1.25987 0
M  V30 5071 C 467.365 2.27165 -2.54182 0
M  V30 5072 H 468.558 0.511307 -2.95509 0
M  V30 5073 H 466.111 0.229444 -1.54607 0
M  V30 5074 H 466.846 2.75884 -1.70465 0
M  V30 5075 H 466.631 2.06057 -3.33591 0
M  V30 5076 H 468.121 2.9674 -2.93828 0
M  V30 5077 N 468.558 1.5553 0.254621 0
M  V30 5078 C 469.969 1.67518 0.824286 0
M  V30 5079 C 470.32 0.614429 1.86331 0
M  V30 5080 O 469.445 -0.240736 2.15057 0
M  V30 5081 C 470.04 3.03692 1.50189 0
M  V30 5082 C 468.599 3.17646 2.01935 0
M  V30 5083 C 467.746 2.63373 0.867746 0
M  V30 5084 H 470.697 1.58671 0.0305843 0
M  V30 5085 H 470.718 2.97706 2.36962 0
M  V30 5086 H 470.23 3.80874 0.745431 0
M  V30 5087 H 468.331 2.45273 2.80485 0
M  V30 5088 H 468.444 4.24455 2.22204 0
M  V30 5089 H 466.808 2.20999 1.26616 0
M  V30 5090 H 467.591 3.43074 0.124498 0
M  V30 5091 N 470.036 -0.519951 1.48776 0
M  V30 5092 C 471.266 -1.29783 1.60748 0
M  V30 5093 C 471.674 -1.87253 0.27072 0
M  V30 5094 O 471.017 -1.67628 -0.751438 0
M  V30 5095 C 471.079 -2.47984 2.60277 0
M  V30 5096 C 470.743 -2.11526 4.051 0
M  V30 5097 C 471.74 -1.66608 4.92481 0
M  V30 5098 C 469.425 -2.21742 4.50706 0
M  V30 5099 C 471.419 -1.32384 6.23501 0
M  V30 5100 C 469.106 -1.87129 5.81744 0
M  V30 5101 C 470.104 -1.42523 6.67964 0
M  V30 5102 O 469.792 -1.0837 7.96562 0
M  V30 5103 H 469.524 -0.400562 0.544542 0
M  V30 5104 H 472.078 -0.632879 1.95407 0
M  V30 5105 H 470.308 -3.17493 2.2076 0
M  V30 5106 H 471.997 -3.10036 2.61978 0
M  V30 5107 H 472.763 -1.58178 4.58481 0
M  V30 5108 H 468.642 -2.55415 3.83776 0
M  V30 5109 H 472.186 -0.974949 6.90754 0
M  V30 5110 H 468.083 -1.95204 6.15277 0
M  V30 5111 H 468.851 -1.21681 8.09405 0
M  V30 5112 N 471.514 -1.37532 -0.769588 0
M  V30 5113 C 472.739 -1.36231 -1.56384 0
M  V30 5114 C 473.164 0.0495849 -1.88035 0
M  V30 5115 O 472.522 1.02723 -1.49391 0
M  V30 5116 C 472.57 -2.20986 -2.84952 0
M  V30 5117 O 471.674 -1.61597 -3.79421 0
M  V30 5118 H 471.015 -0.465387 -0.473615 0
M  V30 5119 H 473.545 -1.81085 -0.952342 0
M  V30 5120 H 473.555 -2.34277 -3.34034 0
M  V30 5121 H 472.23 -3.23612 -2.61243 0
M  V30 5122 H 470.807 -1.57359 -3.38072 0
M  V30 5123 N 472.992 0.995999 -1.22138 0
M  V30 5124 C 473.922 2.10387 -1.01289 0
M  V30 5125 C 474.903 1.69975 0.0651454 0
M  V30 5126 O 476.088 1.9396 -0.0964628 0
M  V30 5127 C 473.218 3.42312 -0.586517 0
M  V30 5128 C 472.172 3.96558 -1.61014 0
M  V30 5129 C 471.498 5.24494 -1.0397 0
M  V30 5130 C 472.798 4.27595 -2.99933 0
M  V30 5131 H 474.492 2.28086 -1.93951 0
M  V30 5132 H 472.038 1.09607 -0.933928 0
M  V30 5133 H 473.991 4.19223 -0.427793 0
M  V30 5134 H 472.715 3.24431 0.375761 0
M  V30 5135 H 471.374 3.21776 -1.75658 0
M  V30 5136 H 471.022 5.02953 -0.0688703 0
M  V30 5137 H 470.722 5.61755 -1.72352 0
M  V30 5138 H 472.246 6.04042 -0.892494 0
M  V30 5139 H 473.66 4.95315 -2.8868 0
M  V30 5140 H 472.057 4.76021 -3.6541 0
M  V30 5141 H 473.127 3.35498 -3.50099 0
M  V30 5142 N 474.47 1.03057 1.19235 0
M  V30 5143 C 475.717 0.728019 1.88961 0
M  V30 5144 C 476.045 -0.743515 1.79728 0
M  V30 5145 O 475.3 -1.55729 1.1852 0
M  V30 5146 C 475.599 1.1268 3.39172 0
M  V30 5147 C 475.265 2.5969 3.68608 0
M  V30 5148 C 473.927 2.99854 3.76352 0
M  V30 5149 C 476.279 3.54793 3.81801 0
M  V30 5150 C 473.607 4.34031 3.94758 0
M  V30 5151 C 475.959 4.88675 4.0172 0
M  V30 5152 C 474.623 5.28526 4.07697 0
M  V30 5153 H 473.893 0.266401 0.691456 0
M  V30 5154 H 476.54 1.29373 1.41191 0
M  V30 5155 H 474.845 0.479722 3.88852 0
M  V30 5156 H 476.542 0.870203 3.91444 0
M  V30 5157 H 473.132 2.27575 3.63191 0
M  V30 5158 H 477.316 3.24914 3.7516 0
M  V30 5159 H 472.572 4.6444 3.97625 0
M  V30 5160 H 476.746 5.6228 4.1087 0
M  V30 5161 H 474.373 6.32506 4.21712 0
M  V30 5162 N 475.948 -1.35272 0.808662 0
M  V30 5163 C 477.176 -2.02946 0.402537 0
M  V30 5164 C 477.591 -1.60937 -0.987147 0
M  V30 5165 O 476.948 -0.807917 -1.63643 0
M  V30 5166 C 476.999 -3.58317 0.47868 0
M  V30 5167 O 476.72 -3.98799 1.81358 0
M  V30 5168 C 478.221 -4.43251 0.0656281 0
M  V30 5169 H 475.441 -0.650831 0.163279 0
M  V30 5170 H 477.985 -1.72849 1.09286 0
M  V30 5171 H 476.14 -3.87055 -0.163415 0
M  V30 5172 H 476.554 -4.93451 1.77781 0
M  V30 5173 H 478.028 -5.51738 0.170017 0
M  V30 5174 H 478.505 -4.27913 -0.989278 0
M  V30 5175 H 479.111 -4.19813 0.68096 0
M  V30 5176 N 477.426 -0.562348 -1.47226 0
M  V30 5177 C 478.675 -0.038041 -2.01664 0
M  V30 5178 C 478.988 1.32199 -1.44162 0
M  V30 5179 O 480.194 1.9365 -1.90294 0
M  V30 5180 C 478.65 -0.0174958 -3.59896 0
M  V30 5181 C 478.258 -1.3746 -4.2639 0
M  V30 5182 C 480.002 0.453934 -4.22066 0
M  V30 5183 C 477.909 -1.31289 -5.76643 0
M  V30 5184 H 476.839 -0.0104511 -0.753928 0
M  V30 5185 H 479.49 -0.710966 -1.69167 0
M  V30 5186 H 477.872 0.721182 -3.89378 0
M  V30 5187 H 479.046 -2.1314 -4.08544 0
M  V30 5188 H 477.361 -1.78438 -3.7623 0
M  V30 5189 H 479.958 0.518584 -5.32179 0
M  V30 5190 H 480.301 1.46706 -3.89594 0
M  V30 5191 H 480.834 -0.230044 -3.97134 0
M  V30 5192 H 477.573 -2.30217 -6.13743 0
M  V30 5193 H 477.093 -0.597973 -5.96812 0
M  V30 5194 H 478.772 -1.01713 -6.38955 0
M  V30 5195 N 478.904 1.54736 -0.299062 0
M  V30 5196 C 480.15 2.00397 0.311244 0
M  V30 5197 C 480.483 1.18716 1.53688 0
M  V30 5198 O 479.758 0.263154 1.92712 0
M  V30 5199 C 480.041 3.53817 0.669761 0
M  V30 5200 C 479.894 4.46239 -0.564882 0
M  V30 5201 C 481.213 4.13856 1.49702 0
M  V30 5202 H 478.332 0.728493 0.111653 0
M  V30 5203 H 480.974 1.85506 -0.410774 0
M  V30 5204 H 479.124 3.66637 1.28491 0
M  V30 5205 H 480.796 4.45328 -1.20337 0
M  V30 5206 H 479.039 4.16916 -1.19849 0
M  V30 5207 H 479.71 5.5134 -0.269918 0
M  V30 5208 H 482.186 4.04461 0.977284 0
M  V30 5209 H 481.062 5.21365 1.71666 0
M  V30 5210 H 481.323 3.65608 2.48563 0
M  V30 5211 N 480.382 0.0267497 1.57577 0
M  V30 5212 C 481.312 -0.954308 2.13108 0
M  V30 5213 C 482.293 -1.34088 1.04663 0
M  V30 5214 O 483.478 -1.41992 1.32484 0
M  V30 5215 C 480.608 -2.23744 2.65624 0
M  V30 5216 C 479.562 -1.99168 3.78835 0
M  V30 5217 C 478.888 -3.33726 4.17769 0
M  V30 5218 C 480.188 -1.33277 5.0501 0
M  V30 5219 H 481.882 -0.491848 2.95332 0
M  V30 5220 H 479.428 -0.23514 1.42067 0
M  V30 5221 H 481.381 -2.92754 3.03106 0
M  V30 5222 H 480.105 -2.72151 1.80558 0
M  V30 5223 H 478.764 -1.32577 3.41788 0
M  V30 5224 H 478.412 -3.79888 3.29688 0
M  V30 5225 H 478.112 -3.18089 4.94058 0
M  V30 5226 H 479.636 -4.04008 4.57832 0
M  V30 5227 H 481.05 -1.92283 5.40093 0
M  V30 5228 H 479.447 -1.28045 5.8628 0
M  V30 5229 H 480.517 -0.305411 4.83937 0
M  V30 5230 N 481.861 -1.55662 -0.24637 0
M  V30 5231 C 483.086 -1.81914 -0.996093 0
M  V30 5232 C 483.511 -0.603875 -1.78143 0
M  V30 5233 O 482.869 0.447091 -1.75701 0
M  V30 5234 C 482.917 -3.05908 -1.90925 0
M  V30 5235 O 482.021 -2.82861 -3.00105 0
M  V30 5236 H 481.362 -0.600481 -0.283406 0
M  V30 5237 H 483.892 -2.02848 -0.267199 0
M  V30 5238 H 483.902 -3.35356 -2.3238 0
M  V30 5239 H 482.577 -3.93999 -1.33183 0
M  V30 5240 H 481.154 -2.64583 -2.62775 0
M  V30 5241 N 483.339 0.512053 -1.4905 0
M  V30 5242 C 484.586 1.26686 -1.57978 0
M  V30 5243 C 484.914 1.92733 -0.261553 0
M  V30 5244 O 484.169 1.80772 0.749667 0
M  V30 5245 C 484.468 2.36446 -2.68008 0
M  V30 5246 C 484.134 1.87932 -4.09869 0
M  V30 5247 C 482.796 1.74419 -4.48477 0
M  V30 5248 C 485.148 1.5149 -4.98698 0
M  V30 5249 C 482.476 1.22827 -5.73699 0
M  V30 5250 C 484.828 1.01355 -6.24428 0
M  V30 5251 C 483.492 0.864735 -6.61875 0
M  V30 5252 H 482.762 0.463577 -0.578081 0
M  V30 5253 H 485.409 0.569421 -1.82838 0
M  V30 5254 H 483.714 3.11933 -2.37076 0
M  V30 5255 H 485.411 2.9453 -2.72127 0
M  V30 5256 H 482.001 1.99405 -3.79389 0
M  V30 5257 H 486.185 1.60782 -4.69535 0
M  V30 5258 H 481.441 1.10008 -6.01422 0
M  V30 5259 H 485.615 0.722351 -6.92644 0
M  V30 5260 H 483.242 0.462777 -7.5879 0
M  V30 5261 N 484.817 1.37938 0.762283 0
M  V30 5262 C 486.047 1.36685 1.54922 0
M  V30 5263 C 486.455 -0.0474099 1.89141 0
M  V30 5264 O 485.798 -1.02213 1.52638 0
M  V30 5265 C 485.86 2.14963 2.88152 0
M  V30 5266 C 485.524 3.6385 2.76518 0
M  V30 5267 C 486.521 4.57531 2.46904 0
M  V30 5268 C 484.206 4.07095 2.94243 0
M  V30 5269 C 486.2 5.92436 2.35156 0
M  V30 5270 C 483.887 5.42083 2.82116 0
M  V30 5271 C 484.885 6.34567 2.52614 0
M  V30 5272 O 484.573 7.67073 2.40529 0
M  V30 5273 H 484.305 0.469586 0.486276 0
M  V30 5274 H 486.859 1.82012 0.951876 0
M  V30 5275 H 485.089 1.6434 3.50042 0
M  V30 5276 H 486.778 2.06224 3.49609 0
M  V30 5277 H 487.544 4.25428 2.32886 0
M  V30 5278 H 483.423 3.35462 3.16206 0
M  V30 5279 H 486.967 6.64591 2.12049 0
M  V30 5280 H 482.864 5.73785 2.95704 0
M  V30 5281 H 483.632 7.77499 2.55807 0
M  V30 5282 N 486.295 -0.989507 1.22664 0
M  V30 5283 C 487.52 -1.77031 1.08051 0
M  V30 5284 C 487.945 -1.84535 -0.364483 0
M  V30 5285 O 487.303 -1.3003 -1.2634 0
M  V30 5286 C 487.351 -3.18 1.70024 0
M  V30 5287 O 486.455 -4.01161 0.956216 0
M  V30 5288 H 485.796 -0.545008 0.379292 0
M  V30 5289 H 488.326 -1.24277 1.62531 0
M  V30 5290 H 488.336 -3.68616 1.74888 0
M  V30 5291 H 487.011 -3.11853 2.75174 0
M  V30 5292 H 485.588 -3.59687 0.98384 0
M  V30 5293 N 487.773 -1.03688 -1.18687 0
M  V30 5294 C 488.998 -0.757819 -1.93059 0
M  V30 5295 C 489.423 0.678353 -1.75442 0
M  V30 5296 O 488.781 1.46938 -1.06203 0
M  V30 5297 C 488.829 -1.12423 -3.42627 0
M  V30 5298 O 487.933 -0.247505 -4.11657 0
M  V30 5299 H 487.274 -0.279245 -0.602427 0
M  V30 5300 H 489.804 -1.3857 -1.5053 0
M  V30 5301 H 489.814 -1.08454 -3.93322 0
M  V30 5302 H 488.489 -2.17049 -3.54771 0
M  V30 5303 H 487.066 -0.34649 -3.71287 0
M  V30 5304 N 489.251 1.34841 -0.815825 0
M  V30 5305 C 490.214 2.27959 -0.238185 0
M  V30 5306 C 491.214 1.49983 0.579816 0
M  V30 5307 O 492.404 1.69617 0.396953 0
M  V30 5308 C 489.536 3.34314 0.666876 0
M  V30 5309 H 490.729 2.80558 -1.05958 0
M  V30 5310 H 488.282 1.44852 -0.587156 0
M  V30 5311 H 489.017 2.86916 1.5116 0
M  V30 5312 H 488.802 3.92014 0.0819106 0
M  V30 5313 H 490.292 4.0379 1.06506 0
M  V30 5314 N 490.729 0.570148 1.46925 0
M  V30 5315 C 491.957 0.0561966 2.06824 0
M  V30 5316 C 492.372 -1.24326 1.42086 0
M  V30 5317 O 491.729 -1.74882 0.521794 0
M  V30 5318 C 491.78 -0.129517 3.61268 0
M  V30 5319 O 491.501 1.1185 4.23581 0
M  V30 5320 C 493.002 -0.679266 4.38065 0
M  V30 5321 H 490.222 0.0517261 0.669003 0
M  V30 5322 H 492.766 0.787243 1.8874 0
M  V30 5323 H 490.921 -0.810739 3.78822 0
M  V30 5324 H 491.335 0.924375 5.1629 0
M  V30 5325 H 492.809 -0.758445 5.46765 0
M  V30 5326 H 493.286 -1.69346 4.05239 0
M  V30 5327 H 493.892 -0.0333237 4.25287 0
M  V30 5328 N 492.207 -1.54576 0.307264 0
M  V30 5329 C 493.455 -1.99867 -0.299574 0
M  V30 5330 C 493.776 -1.19714 -1.53927 0
M  V30 5331 O 493.046 -0.29472 -1.9367 0
M  V30 5332 H 491.626 -0.738299 -0.113683 0
M  V30 5333 H 494.288 -1.9032 0.420042 0
M  V30 5334 H 493.384 -3.06901 -0.567283 0
M  V30 5335 N 493.685 -0.035106 -1.57561 0
M  V30 5336 C 495.096 0.502885 -1.798 0
M  V30 5337 C 495.447 1.71892 -0.945921 0
M  V30 5338 O 494.572 2.15822 -0.157991 0
M  V30 5339 C 495.167 0.919097 -3.26095 0
M  V30 5340 C 493.726 1.40216 -3.49308 0
M  V30 5341 C 492.873 0.369709 -2.74824 0
M  V30 5342 H 495.824 -0.261102 -1.56537 0
M  V30 5343 H 495.845 1.78308 -3.36135 0
M  V30 5344 H 495.357 0.0338526 -3.88085 0
M  V30 5345 H 493.458 2.30714 -2.92578 0
M  V30 5346 H 493.571 1.40541 -4.58023 0
M  V30 5347 H 491.935 0.839113 -2.40481 0
M  V30 5348 H 492.718 -0.507173 -3.39533 0
M  V30 5349 N 495.163 1.55791 0.238111 0
M  V30 5350 C 496.11 1.9105 1.29493 0
M  V30 5351 C 497.08 0.765733 1.47397 0
M  V30 5352 O 498.265 1.02017 1.61236 0
M  V30 5353 C 495.405 2.21826 2.64362 0
M  V30 5354 C 494.518 3.49153 2.54394 0
M  V30 5355 C 493.653 3.69455 3.81676 0
M  V30 5356 C 492.692 4.90353 3.66361 0
M  V30 5357 N 491.829 5.07131 4.85554 0
M  V30 5358 H 496.669 2.81172 0.987233 0
M  V30 5359 H 494.206 1.39179 0.476203 0
M  V30 5360 H 496.164 2.37675 3.4288 0
M  V30 5361 H 494.794 1.34897 2.93262 0
M  V30 5362 H 493.846 3.41587 1.67399 0
M  V30 5363 H 495.158 4.37818 2.38991 0
M  V30 5364 H 494.312 3.85311 4.68636 0
M  V30 5365 H 493.051 2.7904 3.99985 0
M  V30 5366 H 492.056 4.74464 2.77784 0
M  V30 5367 H 493.281 5.82237 3.49538 0
M  V30 5368 H 491.227 4.19654 5.04209 0
M  V30 5369 H 491.144 5.89899 4.72816 0
M  V30 5370 H 492.412 5.27407 5.73988 0
M  V30 5371 N 496.642 -0.504142 1.49319 0
M  V30 5372 C 497.867 -1.28729 1.62615 0
M  V30 5373 C 498.292 -1.85752 0.296309 0
M  V30 5374 O 497.65 -1.65704 -0.735649 0
M  V30 5375 C 497.698 -2.39561 2.69524 0
M  V30 5376 O 496.802 -3.43324 2.28478 0
M  V30 5377 H 496.143 -0.380172 0.544395 0
M  V30 5378 H 498.673 -0.603872 1.95485 0
M  V30 5379 H 498.683 -2.8537 2.91595 0
M  V30 5380 H 497.358 -1.97423 3.66056 0
M  V30 5381 H 495.935 -3.03455 2.16725 0
M  V30 5382 N 498.12 -1.38341 -0.754957 0
M  V30 5383 C 499.366 -1.34672 -1.51628 0
M  V30 5384 C 499.699 0.0636036 -1.94096 0
M  V30 5385 O 498.974 1.0245 -1.6533 0
M  V30 5386 C 499.257 -2.30116 -2.76981 0
M  V30 5387 C 499.11 -3.80003 -2.4066 0
M  V30 5388 C 500.429 -2.23715 -3.78998 0
M  V30 5389 H 497.548 -0.490517 -0.550056 0
M  V30 5390 H 500.19 -1.69178 -0.864807 0
M  V30 5391 H 498.34 -2.00821 -3.3257 0
M  V30 5392 H 500.012 -4.19966 -1.90856 0
M  V30 5393 H 498.255 -3.97751 -1.73137 0
M  V30 5394 H 498.926 -4.42244 -3.30339 0
M  V30 5395 H 501.402 -2.49574 -3.32945 0
M  V30 5396 H 500.278 -2.9261 -4.64403 0
M  V30 5397 H 500.539 -1.23554 -4.24484 0
M  V30 5398 N 499.598 0.982988 -1.23187 0
M  V30 5399 C 500.844 1.7273 -1.07405 0
M  V30 5400 C 501.199 1.885 0.385447 0
M  V30 5401 O 500.492 1.4243 1.28157 0
M  V30 5402 C 500.686 3.12736 -1.73006 0
M  V30 5403 C 500.515 3.10621 -3.25184 0
M  V30 5404 C 499.285 3.15957 -3.94334 0
M  V30 5405 C 501.483 2.93992 -4.21987 0
M  V30 5406 N 499.465 3.03701 -5.33516 0
M  V30 5407 C 500.836 2.8987 -5.48065 0
M  V30 5408 C 502.891 2.78457 -4.12754 0
M  V30 5409 C 501.594 2.71804 -6.65969 0
M  V30 5410 C 503.62 2.61754 -5.30319 0
M  V30 5411 C 502.982 2.58328 -6.55321 0
M  V30 5412 H 499.081 0.641279 -0.447533 0
M  V30 5413 H 501.665 1.16664 -1.55877 0
M  V30 5414 H 499.836 3.67026 -1.2707 0
M  V30 5415 H 501.568 3.75786 -1.50224 0
M  V30 5416 H 498.323 3.24034 -3.45397 0
M  V30 5417 H 498.747 3.00855 -6.06478 0
M  V30 5418 H 503.389 2.79898 -3.16886 0
M  V30 5419 H 501.107 2.69108 -7.61975 0
M  V30 5420 H 504.693 2.50702 -5.25014 0
M  V30 5421 H 503.573 2.45564 -7.4476 0
M  V30 5422 N 501.076 1.04316 1.18135 0
M  V30 5423 C 502.306 0.767003 1.91835 0
M  V30 5424 C 502.714 -0.68002 1.76557 0
M  V30 5425 O 502.057 -1.47548 1.09432 0
M  V30 5426 C 502.119 1.05674 3.43618 0
M  V30 5427 C 501.783 2.49818 3.82675 0
M  V30 5428 C 502.78 3.48003 3.86251 0
M  V30 5429 C 500.465 2.84596 4.13897 0
M  V30 5430 C 502.459 4.79016 4.20503 0
M  V30 5431 C 500.146 4.15813 4.4782 0
M  V30 5432 C 501.144 5.12834 4.51099 0
M  V30 5433 O 500.832 6.41699 4.84229 0
M  V30 5434 H 500.564 0.278948 0.615763 0
M  V30 5435 H 503.118 1.3946 1.50798 0
M  V30 5436 H 501.348 0.372029 3.84906 0
M  V30 5437 H 503.037 0.767994 3.98568 0
M  V30 5438 H 503.803 3.22475 3.62264 0
M  V30 5439 H 499.682 2.09748 4.1052 0
M  V30 5440 H 503.226 5.54739 4.22978 0
M  V30 5441 H 499.123 4.41109 4.71268 0
M  V30 5442 H 499.891 6.46387 5.02121 0
M  V30 5443 N 502.554 -1.34406 0.822964 0
M  V30 5444 C 503.97 -1.51275 0.508727 0
M  V30 5445 C 504.17 -1.76776 -0.967083 0
M  V30 5446 O 503.226 -1.81871 -1.75155 0
M  V30 5447 C 504.539 -2.67765 1.36829 0
M  V30 5448 C 506.087 -2.81647 1.36542 0
M  V30 5449 C 506.562 -4.01181 2.20947 0
M  V30 5450 N 508.053 -4.08388 2.18571 0
M  V30 5451 C 508.788 -5.00036 2.80627 0
M  V30 5452 N 508.284 -5.96906 3.51674 0
M  V30 5453 N 510.077 -4.92908 2.70181 0
M  V30 5454 H 502.228 -1.16113 1.77852 0
M  V30 5455 H 504.491 -0.56947 0.757897 0
M  V30 5456 H 504.197 -2.55551 2.41633 0
M  V30 5457 H 504.071 -3.62779 1.03303 0
M  V30 5458 H 506.458 -2.93303 0.325163 0
M  V30 5459 H 506.539 -1.87443 1.74066 0
M  V30 5460 H 506.183 -3.90286 3.25022 0
M  V30 5461 H 506.113 -4.94599 1.80774 0
M  V30 5462 H 508.604 -3.39051 1.66891 0
M  V30 5463 H 508.917 -6.63468 3.96271 0
M  V30 5464 H 507.262 -5.9703 3.5578 0
M  V30 5465 H 510.453 -4.1619 2.14251 0
M  V30 5466 H 510.626 -5.64137 3.18831 0
M  V30 5467 N 504.032 -0.577932 -1.46621 0
M  V30 5468 C 505.281 -0.0594281 -2.01612 0
M  V30 5469 C 505.594 1.30663 -1.45556 0
M  V30 5470 O 506.8 1.91621 -1.92337 0
M  V30 5471 C 505.256 -0.0556666 -3.59857 0
M  V30 5472 C 504.864 -1.41975 -4.24908 0
M  V30 5473 C 506.608 0.409143 -4.22524 0
M  V30 5474 C 504.515 -1.37397 -5.75218 0
M  V30 5475 H 503.445 -0.0184469 -0.753774 0
M  V30 5476 H 506.096 -0.728869 -1.68404 0
M  V30 5477 H 504.478 0.679843 -3.90121 0
M  V30 5478 H 505.652 -2.17461 -4.0626 0
M  V30 5479 H 503.967 -1.82419 -3.74316 0
M  V30 5480 H 506.564 0.46211 -5.32699 0
M  V30 5481 H 506.907 1.42565 -3.91128 0
M  V30 5482 H 507.44 -0.272152 -3.96868 0
M  V30 5483 H 504.179 -2.36714 -6.11267 0
M  V30 5484 H 503.699 -0.661239 -5.96144 0
M  V30 5485 H 505.378 -1.08484 -6.3784 0
M  V30 5486 N 505.51 1.54411 -0.315457 0
M  V30 5487 C 506.473 2.22713 0.54142 0
M  V30 5488 C 507.473 1.2179 1.04995 0
M  V30 5489 O 508.663 1.46426 0.943667 0
M  V30 5490 C 505.795 2.92485 1.75116 0
M  V30 5491 H 506.988 2.99849 -0.0555508 0
M  V30 5492 H 504.541 1.56159 -0.0664453 0
M  V30 5493 H 505.276 2.19466 2.38758 0
M  V30 5494 H 505.061 3.66483 1.39401 0
M  V30 5495 H 506.551 3.44548 2.35959 0
M  V30 5496 N 506.988 0.0434614 1.5754 0
M  V30 5497 C 508.235 -0.632035 1.92384 0
M  V30 5498 C 508.563 -1.71304 0.921157 0
M  V30 5499 O 507.818 -1.95583 -0.067744 0
M  V30 5500 C 508.117 -1.2738 3.3393 0
M  V30 5501 C 507.783 -0.321757 4.49751 0
M  V30 5502 C 506.445 -0.0597611 4.81163 0
M  V30 5503 C 508.797 0.331158 5.20147 0
M  V30 5504 C 506.125 0.862715 5.80322 0
M  V30 5505 C 508.477 1.24178 6.20292 0
M  V30 5506 C 507.141 1.51252 6.50138 0
M  V30 5507 H 506.411 -0.231278 0.703983 0
M  V30 5508 H 509.058 0.108294 1.91194 0
M  V30 5509 H 507.363 -2.08921 3.3145 0
M  V30 5510 H 509.06 -1.80326 3.58167 0
M  V30 5511 H 505.65 -0.53614 4.25233 0
M  V30 5512 H 509.834 0.141826 4.96097 0
M  V30 5513 H 505.09 1.08003 6.01785 0
M  V30 5514 H 509.264 1.75381 6.73954 0
M  V30 5515 H 506.891 2.22897 7.26788 0
M  V30 5516 N 508.466 -1.55915 -0.229846 0
M  V30 5517 C 509.712 -1.79718 -0.952517 0
M  V30 5518 C 510.067 -0.61514 -1.82301 0
M  V30 5519 O 509.36 0.391098 -1.87566 0
M  V30 5520 C 509.554 -3.06845 -1.8325 0
M  V30 5521 C 509.383 -4.37302 -1.04868 0
M  V30 5522 C 508.153 -4.99749 -0.746932 0
M  V30 5523 C 510.351 -5.12599 -0.417989 0
M  V30 5524 N 508.333 -6.13871 0.0591596 0
M  V30 5525 C 509.704 -6.19488 0.251879 0
M  V30 5526 C 511.759 -4.96804 -0.33018 0
M  V30 5527 C 510.462 -7.12299 1.00115 0
M  V30 5528 C 512.488 -5.90007 0.4056 0
M  V30 5529 C 511.85 -6.96317 1.06404 0
M  V30 5530 H 507.949 -0.709382 -0.329091 0
M  V30 5531 H 510.533 -1.93406 -0.224114 0
M  V30 5532 H 508.704 -2.94456 -2.53279 0
M  V30 5533 H 510.436 -3.18874 -2.49202 0
M  V30 5534 H 507.191 -4.61518 -1.06292 0
M  V30 5535 H 507.615 -6.75497 0.450798 0
M  V30 5536 H 512.257 -4.14675 -0.824898 0
M  V30 5537 H 509.975 -7.93916 1.50741 0
M  V30 5538 H 513.561 -5.79862 0.474436 0
M  V30 5539 H 512.441 -7.67194 1.62429 0
M  V30 5540 N 509.944 0.496216 -1.49584 0
M  V30 5541 C 510.874 1.60576 -1.69521 0
M  V30 5542 C 511.855 1.61169 -0.543933 0
M  V30 5543 O 513.04 1.77834 -0.78031 0
M  V30 5544 C 510.17 2.99038 -1.76616 0
M  V30 5545 C 509.124 3.13312 -2.91581 0
M  V30 5546 C 508.45 4.53172 -2.83794 0
M  V30 5547 C 509.75 2.92886 -4.32452 0
M  V30 5548 H 511.444 1.44146 -2.62416 0
M  V30 5549 H 508.99 0.692024 -1.26282 0
M  V30 5550 H 510.943 3.76564 -1.8915 0
M  V30 5551 H 509.667 3.16568 -0.80324 0
M  V30 5552 H 508.326 2.38213 -2.78658 0
M  V30 5553 H 507.974 4.67585 -1.854 0
M  V30 5554 H 507.674 4.63662 -3.60958 0
M  V30 5555 H 509.198 5.32752 -2.98342 0
M  V30 5556 H 510.612 3.60178 -4.46032 0
M  V30 5557 H 509.009 3.14844 -5.10875 0
M  V30 5558 H 510.079 1.88966 -4.46565 0
M  V30 5559 N 511.423 1.38739 0.74761 0
M  V30 5560 C 512.355 1.32341 1.87132 0
M  V30 5561 C 513.368 0.234502 1.61102 0
M  V30 5562 O 514.557 0.492516 1.71571 0
M  V30 5563 C 511.657 1.02915 3.22896 0
M  V30 5564 C 510.83 2.22834 3.76383 0
M  V30 5565 C 509.889 1.90059 4.90677 0
M  V30 5566 O 508.915 2.62615 5.04997 0
M  V30 5567 N 510.117 0.859141 5.74107 0
M  V30 5568 H 512.882 2.29175 1.93129 0
M  V30 5569 H 510.443 1.32678 0.927805 0
M  V30 5570 H 512.435 0.79031 3.96908 0
M  V30 5571 H 511.005 0.148572 3.12247 0
M  V30 5572 H 510.225 2.62747 2.93867 0
M  V30 5573 H 511.513 3.02851 4.08851 0
M  V30 5574 H 510.911 0.257564 5.65113 0
M  V30 5575 H 509.468 0.680189 6.48241 0
M  V30 5576 N 512.901 -0.976442 1.23707 0
M  V30 5577 C 514.147 -1.72158 1.08319 0
M  V30 5578 C 514.502 -1.88701 -0.375445 0
M  V30 5579 O 513.795 -1.43107 -1.274 0
M  V30 5580 C 513.989 -3.11814 1.74662 0
M  V30 5581 C 513.818 -3.08892 3.26827 0
M  V30 5582 C 512.588 -3.13861 3.96004 0
M  V30 5583 C 514.786 -2.9175 4.2354 0
M  V30 5584 N 512.768 -3.00867 5.35119 0
M  V30 5585 C 514.139 -2.8696 5.49595 0
M  V30 5586 C 516.194 -2.76265 4.14225 0
M  V30 5587 C 514.897 -2.68268 6.67401 0
M  V30 5588 C 516.923 -2.58938 5.317 0
M  V30 5589 C 516.285 -2.54849 6.56682 0
M  V30 5590 H 512.384 -0.638896 0.450927 0
M  V30 5591 H 514.968 -1.15835 1.56494 0
M  V30 5592 H 513.139 -3.66347 1.29014 0
M  V30 5593 H 514.871 -3.74984 1.52215 0
M  V30 5594 H 511.626 -3.22198 3.4711 0
M  V30 5595 H 512.05 -2.97634 6.08065 0
M  V30 5596 H 516.692 -2.78213 3.18366 0
M  V30 5597 H 514.41 -2.65063 7.63392 0
M  V30 5598 H 517.996 -2.47914 5.26336 0
M  V30 5599 H 516.876 -2.41611 7.46052 0
M  V30 5600 N 514.379 -1.04941 -1.1758 0
M  V30 5601 C 515.626 -0.757989 -1.87779 0
M  V30 5602 C 515.954 0.714827 -1.80888 0
M  V30 5603 O 515.209 1.53824 -1.20982 0
M  V30 5604 C 515.508 -1.18062 -3.37337 0
M  V30 5605 C 515.174 -2.65521 -3.6443 0
M  V30 5606 C 513.836 -3.05804 -3.71534 0
M  V30 5607 C 516.188 -3.60822 -3.76108 0
M  V30 5608 C 513.516 -4.40256 -3.87803 0
M  V30 5609 C 515.868 -4.95005 -3.93895 0
M  V30 5610 C 514.532 -5.34945 -3.99237 0
M  V30 5611 H 513.802 -0.277368 -0.68713 0
M  V30 5612 H 516.449 -1.31603 -1.39115 0
M  V30 5613 H 514.754 -0.541525 -3.8804 0
M  V30 5614 H 516.451 -0.932368 -3.9001 0
M  V30 5615 H 513.041 -2.33324 -3.59524 0
M  V30 5616 H 517.225 -3.30841 -3.69943 0
M  V30 5617 H 512.481 -4.70707 -3.90186 0
M  V30 5618 H 516.655 -5.68746 -4.01872 0
M  V30 5619 H 514.282 -6.39135 -4.11596 0
M  V30 5620 N 515.857 1.33968 -0.830081 0
M  V30 5621 C 516.805 2.31301 -0.245435 0
M  V30 5622 C 517.799 1.57734 0.617762 0
M  V30 5623 O 519.005 1.72674 0.508303 0
M  V30 5624 H 515.38 0.749552 -0.0606316 0
M  V30 5625 H 517.351 2.78129 -1.08105 0
M  V30 5626 C 516.1 3.42961 0.572084 0
M  V30 5627 H 515.423 3.99714 -0.0828118 0
M  V30 5628 H 516.863 4.13286 0.94715 0
M  V30 5629 C 515.322 2.88043 1.74737 0
M  V30 5630 O 515.852 2.83508 2.8458 0
M  V30 5631 N 514.058 2.44768 1.56642 0
M  V30 5632 H 513.605 2.48656 0.672901 0
M  V30 5633 H 513.563 2.08375 2.3543 0
M  V30 5634 N 517.335 0.585699 1.46312 0
M  V30 5635 C 518.56 0.0762461 2.0726 0
M  V30 5636 C 518.985 -1.22071 1.43109 0
M  V30 5637 O 518.343 -1.73804 0.515942 0
M  V30 5638 C 518.391 -0.0729404 3.60526 0
M  V30 5639 O 517.495 -1.1287 3.96654 0
M  V30 5640 H 516.836 0.0641558 0.660893 0
M  V30 5641 H 519.366 0.809492 1.87905 0
M  V30 5642 H 519.376 -0.278158 4.07051 0
M  V30 5643 H 518.051 0.874188 4.06609 0
M  V30 5644 H 516.628 -0.901703 3.61834 0
M  V30 5645 N 518.813 -1.54241 0.323641 0
M  V30 5646 C 520.06 -2.0057 -0.27891 0
M  V30 5647 C 520.388 -1.21181 -1.52136 0
M  V30 5648 O 519.643 -0.282043 -1.93657 0
M  V30 5649 C 519.942 -3.5129 -0.658031 0
M  V30 5650 C 519.608 -4.48281 0.485252 0
M  V30 5651 C 518.27 -4.74519 0.799055 0
M  V30 5652 C 520.622 -5.05909 1.25322 0
M  V30 5653 C 517.95 -5.55643 1.88354 0
M  V30 5654 C 520.302 -5.88215 2.32779 0
M  V30 5655 C 518.966 -6.12755 2.64741 0
M  V30 5656 H 518.236 -0.733938 -0.10206 0
M  V30 5657 H 520.883 -1.862 0.447435 0
M  V30 5658 H 519.188 -3.63388 -1.4648 0
M  V30 5659 H 520.885 -3.84578 -1.1358 0
M  V30 5660 H 517.475 -4.27979 0.230593 0
M  V30 5661 H 521.659 -4.8562 1.02404 0
M  V30 5662 H 516.915 -5.72888 2.13564 0
M  V30 5663 H 521.089 -6.31888 2.92729 0
M  V30 5664 H 518.716 -6.75404 3.48904 0
M  V30 5665 N 520.291 -0.0518155 -1.57515 0
M  V30 5666 C 521.537 0.622745 -1.93002 0
M  V30 5667 C 521.87 1.70456 -0.930499 0
M  V30 5668 O 521.145 1.94452 0.0434086 0
M  V30 5669 C 521.428 1.21824 -3.38867 0
M  V30 5670 C 521.281 0.144434 -4.49568 0
M  V30 5671 C 522.6 2.12968 -3.8514 0
M  V30 5672 H 519.719 0.22491 -0.701844 0
M  V30 5673 H 522.361 -0.113711 -1.89659 0
M  V30 5674 H 520.511 1.8459 -3.41846 0
M  V30 5675 H 522.183 -0.48753 -4.58717 0
M  V30 5676 H 520.426 -0.527424 -4.30582 0
M  V30 5677 H 521.097 0.601127 -5.48717 0
M  V30 5678 H 523.573 1.60163 -3.8404 0
M  V30 5679 H 522.449 2.51578 -4.87852 0
M  V30 5680 H 522.71 3.03004 -3.21934 0
M  V30 5681 N 521.769 1.56035 0.221574 0
M  V30 5682 C 522.717 1.93269 1.29421 0
M  V30 5683 C 523.711 0.814727 1.48521 0
M  V30 5684 O 524.917 0.999559 1.49696 0
M  V30 5685 H 521.292 0.614188 0.43391 0
M  V30 5686 H 523.263 2.82773 0.952987 0
M  V30 5687 C 522.012 2.26573 2.63742 0
M  V30 5688 H 521.335 3.12112 2.49853 0
M  V30 5689 H 522.775 2.5651 3.37607 0
M  V30 5690 C 521.234 1.09086 3.1875 0
M  V30 5691 O 521.764 0.351985 4.00155 0
M  V30 5692 N 519.97 0.874693 2.77124 0
M  V30 5693 H 519.517 1.47726 2.11033 0
M  V30 5694 H 519.475 0.0903349 3.1427 0
M  V30 5695 N 523.247 -0.488276 1.49845 0
M  V30 5696 C 524.658 -1.06955 1.53028 0
M  V30 5697 C 525.009 -1.9351 0.323797 0
M  V30 5698 O 524.134 -2.08891 -0.565116 0
M  V30 5699 C 524.729 -1.94643 2.77307 0
M  V30 5700 C 523.288 -2.4791 2.83227 0
M  V30 5701 C 522.435 -1.25833 2.47106 0
M  V30 5702 H 525.386 -0.271626 1.56358 0
M  V30 5703 H 525.407 -2.79496 2.5819 0
M  V30 5704 H 524.919 -1.31621 3.65099 0
M  V30 5705 H 523.02 -3.14535 1.99745 0
M  V30 5706 H 523.133 -2.84193 3.85709 0
M  V30 5707 H 521.497 -1.58764 1.99163 0
M  V30 5708 H 522.28 -0.644993 3.37186 0
M  V30 5709 N 524.725 -1.39134 -0.740242 0
M  V30 5710 C 525.655 -1.40165 -1.86751 0
M  V30 5711 C 526.636 -0.265708 -1.68012 0
M  V30 5712 O 527.821 -0.47076 -1.88408 0
M  V30 5713 C 524.951 -1.2392 -3.2444 0
M  V30 5714 C 523.905 -2.34858 -3.57807 0
M  V30 5715 C 523.231 -2.03707 -4.94376 0
M  V30 5716 C 524.531 -3.77159 -3.61315 0
M  V30 5717 H 526.225 -2.345 -1.86145 0
M  V30 5718 H 523.771 -1.12875 -0.89416 0
M  V30 5719 H 525.724 -1.23263 -4.02969 0
M  V30 5720 H 524.448 -0.26051 -3.25559 0
M  V30 5721 H 523.107 -2.34723 -2.81604 0
M  V30 5722 H 522.755 -1.04289 -4.9207 0
M  V30 5723 H 522.455 -2.78016 -5.17669 0
M  V30 5724 H 523.979 -2.04691 -5.75268 0
M  V30 5725 H 525.393 -3.79252 -4.29931 0
M  V30 5726 H 523.79 -4.50784 -3.96124 0
M  V30 5727 H 524.86 -4.08513 -2.61238 0
M  V30 5728 N 526.204 0.969867 -1.24223 0
M  V30 5729 C 527.134 2.08191 -1.05729 0
M  V30 5730 C 528.115 1.70075 0.0290765 0
M  V30 5731 O 529.3 1.93712 -0.137583 0
M  V30 5732 C 526.43 3.40991 -0.658995 0
M  V30 5733 C 525.384 3.93054 -1.69389 0
M  V30 5734 C 524.71 5.22171 -1.15072 0
M  V30 5735 C 526.01 4.21137 -3.08935 0
M  V30 5736 H 527.704 2.23921 -1.98746 0
M  V30 5737 H 525.25 1.07602 -0.956967 0
M  V30 5738 H 527.203 4.18221 -0.51662 0
M  V30 5739 H 525.927 3.25155 0.30686 0
M  V30 5740 H 524.586 3.17977 -1.82444 0
M  V30 5741 H 524.234 5.02694 -0.175539 0
M  V30 5742 H 523.934 5.57973 -1.84229 0
M  V30 5743 H 525.458 6.02013 -1.02042 0
M  V30 5744 H 526.872 4.8908 -2.99121 0
M  V30 5745 H 525.269 4.68163 -3.75425 0
M  V30 5746 H 526.339 3.27996 -3.57137 0
M  V30 5747 N 527.682 1.05563 1.17022 0
M  V30 5748 C 528.912 0.787307 1.91011 0
M  V30 5749 C 529.32 -0.661256 1.77268 0
M  V30 5750 O 528.663 -1.46379 1.10991 0
M  V30 5751 C 528.725 1.09313 3.42478 0
M  V30 5752 C 528.389 2.53863 3.80004 0
M  V30 5753 C 529.386 3.52081 3.82538 0
M  V30 5754 C 527.071 2.88969 4.10855 0
M  V30 5755 C 529.065 4.83449 4.15399 0
M  V30 5756 C 526.752 4.2054 4.43384 0
M  V30 5757 C 527.75 5.17589 4.45635 0
M  V30 5758 O 527.438 6.46799 4.77395 0
M  V30 5759 H 527.17 0.285463 0.61277 0
M  V30 5760 H 529.724 1.41051 1.49311 0
M  V30 5761 H 527.954 0.412833 3.8449 0
M  V30 5762 H 529.643 0.810224 3.97731 0
M  V30 5763 H 530.409 3.26299 3.58823 0
M  V30 5764 H 526.288 2.1409 4.08272 0
M  V30 5765 H 529.832 5.59194 4.1707 0
M  V30 5766 H 525.729 4.46083 4.66563 0
M  V30 5767 H 526.497 6.51677 4.95237 0
M  V30 5768 N 529.16 -1.33526 0.837174 0
M  V30 5769 C 530.571 -1.80182 0.489017 0
M  V30 5770 C 530.922 -1.69285 -0.991826 0
M  V30 5771 O 530.047 -1.24113 -1.77271 0
M  V30 5772 C 530.642 -3.27149 0.880866 0
M  V30 5773 C 529.201 -3.71828 0.584872 0
M  V30 5774 C 528.348 -2.54974 1.09011 0
M  V30 5775 H 531.299 -1.21071 1.02603 0
M  V30 5776 H 531.32 -3.80024 0.190239 0
M  V30 5777 H 530.832 -3.35048 1.95869 0
M  V30 5778 H 528.933 -3.69457 -0.48295 0
M  V30 5779 H 529.046 -4.65366 1.13892 0
M  V30 5780 H 527.41 -2.4952 0.511047 0
M  V30 5781 H 528.193 -2.65637 2.17467 0
M  V30 5782 N 530.638 -0.59345 -1.46 0
M  V30 5783 C 531.568 0.121192 -2.33185 0
M  V30 5784 C 532.549 0.872977 -1.4599 0
M  V30 5785 O 533.734 0.846321 -1.74789 0
M  V30 5786 C 530.864 1.12844 -3.28456 0
M  V30 5787 C 529.818 0.4908 -4.25177 0
M  V30 5788 C 529.144 1.60529 -5.10034 0
M  V30 5789 C 530.444 -0.578949 -5.19081 0
M  V30 5790 H 532.138 -0.606767 -2.93187 0
M  V30 5791 H 529.684 -0.293242 -1.40983 0
M  V30 5792 H 531.637 1.63684 -3.88311 0
M  V30 5793 H 530.361 1.88681 -2.66584 0
M  V30 5794 H 529.02 0.00339328 -3.666 0
M  V30 5795 H 528.668 2.35359 -4.44539 0
M  V30 5796 H 528.368 1.18422 -5.75543 0
M  V30 5797 H 529.892 2.11623 -5.72755 0
M  V30 5798 H 531.306 -0.155199 -5.7309 0
M  V30 5799 H 529.703 -0.920947 -5.92991 0
M  V30 5800 H 530.773 -1.46109 -4.62364 0
M  V30 5801 N 532.116 1.54067 -0.331816 0
M  V30 5802 C 533.356 2.02625 0.26876 0
M  V30 5803 C 533.72 1.21462 1.48697 0
M  V30 5804 O 534.921 1.59863 2.16096 0
M  V30 5805 C 533.192 3.52554 0.586577 0
M  V30 5806 S 534.751 4.23035 1.16563 0
M  V30 5807 H 531.569 0.706395 0.0807862 0
M  V30 5808 H 534.171 1.89844 -0.466856 0
M  V30 5809 H 532.875 4.09242 -0.308046 0
M  V30 5810 H 532.406 3.69432 1.35217 0
M  V30 5811 H 534.421 4.31382 2.45203 0
M  V30 5812 N 533.594 0.0601682 1.57485 0
M  V30 5813 C 534.544 -0.920969 2.08572 0
M  V30 5814 C 535.528 -1.26617 0.992827 0
M  V30 5815 O 536.72 -1.24708 1.25606 0
M  V30 5816 C 533.849 -2.19267 2.64153 0
M  V30 5817 C 532.935 -1.87447 3.80427 0
M  V30 5818 N 533.326 -1.26025 4.89848 0
M  V30 5819 C 531.624 -2.17265 3.89502 0
M  V30 5820 C 532.325 -1.12036 5.70809 0
M  V30 5821 N 531.301 -1.62624 5.18705 0
M  V30 5822 H 535.103 -0.441561 2.90564 0
M  V30 5823 H 532.617 -0.144043 1.6176 0
M  V30 5824 H 534.614 -2.90462 2.99061 0
M  V30 5825 H 533.274 -2.67806 1.83603 0
M  V30 5826 H 534.285 -0.931336 5.09457 0
M  V30 5827 H 530.962 -2.68262 3.19909 0
M  V30 5828 H 532.352 -0.642783 6.68818 0
M  V30 5829 N 535.072 -1.5615 -0.213296 0
M  V30 5830 C 536.019 -1.93086 -1.26437 0
M  V30 5831 C 536.989 -0.789086 -1.4616 0
M  V30 5832 O 538.174 -1.04569 -1.59593 0
M  V30 5833 C 535.314 -2.26003 -2.608 0
M  V30 5834 C 534.427 -3.53156 -2.48807 0
M  V30 5835 C 533.562 -3.7548 -3.7575 0
M  V30 5836 C 532.601 -4.96119 -3.58514 0
M  V30 5837 N 531.738 -5.14791 -4.77425 0
M  V30 5838 H 536.578 -2.82707 -0.942376 0
M  V30 5839 H 534.115 -1.39919 -0.454001 0
M  V30 5840 H 536.073 -2.431 -3.39055 0
M  V30 5841 H 534.703 -1.39546 -2.91079 0
M  V30 5842 H 533.755 -3.44207 -1.61944 0
M  V30 5843 H 535.067 -4.41565 -2.31996 0
M  V30 5844 H 534.221 -3.92718 -4.62447 0
M  V30 5845 H 532.96 -2.85368 -3.95495 0
M  V30 5846 H 531.965 -4.78823 -2.70201 0
M  V30 5847 H 533.19 -5.87724 -3.40231 0
M  V30 5848 H 531.136 -4.27623 -4.97468 0
M  V30 5849 H 531.053 -5.97347 -4.63371 0
M  V30 5850 H 532.321 -5.36471 -5.65525 0
M  V30 5851 N 536.55 0.480323 -1.50102 0
M  V30 5852 C 537.966 0.813295 -1.37323 0
M  V30 5853 C 538.166 1.97027 -0.422206 0
M  V30 5854 O 537.222 2.5212 0.138563 0
M  V30 5855 C 538.535 1.13404 -2.78496 0
M  V30 5856 C 540.083 1.24104 -2.87345 0
M  V30 5857 C 540.558 1.59497 -4.29331 0
M  V30 5858 N 542.049 1.66507 -4.32238 0
M  V30 5859 C 542.784 1.95378 -5.39087 0
M  V30 5860 N 542.28 2.22333 -6.56155 0
M  V30 5861 N 544.073 1.96803 -5.26522 0
M  V30 5862 H 536.224 -0.282291 -2.10516 0
M  V30 5863 H 538.487 -0.063752 -0.945854 0
M  V30 5864 H 538.193 0.357064 -3.49883 0
M  V30 5865 H 538.067 2.07251 -3.15162 0
M  V30 5866 H 540.454 2.00871 -2.16183 0
M  V30 5867 H 540.535 0.282593 -2.54234 0
M  V30 5868 H 540.179 0.832736 -5.01027 0
M  V30 5869 H 540.109 2.56477 -4.59921 0
M  V30 5870 H 542.6 1.47753 -3.47818 0
M  V30 5871 H 542.913 2.43611 -7.33399 0
M  V30 5872 H 541.258 2.19745 -6.59346 0
M  V30 5873 H 544.449 1.75235 -4.34062 0
M  V30 5874 H 544.622 2.18969 -6.09883 0
M  V30 5875 N 538.028 1.39524 0.732853 0
M  V30 5876 C 539.275 1.36865 1.49246 0
M  V30 5877 C 539.603 -0.0347118 1.94469 0
M  V30 5878 O 538.858 -1.01596 1.67262 0
M  V30 5879 C 539.157 2.28916 2.74468 0
M  V30 5880 C 538.823 3.76506 2.481 0
M  V30 5881 C 537.485 4.16721 2.40619 0
M  V30 5882 C 539.837 4.69846 2.25598 0
M  V30 5883 C 537.165 5.48334 2.08679 0
M  V30 5884 C 539.517 6.01739 1.95174 0
M  V30 5885 C 538.181 6.41015 1.86163 0
M  V30 5886 H 537.451 0.500824 0.546129 0
M  V30 5887 H 540.098 1.72047 0.840958 0
M  V30 5888 H 538.403 1.86859 3.4437 0
M  V30 5889 H 540.1 2.2415 3.32502 0
M  V30 5890 H 536.69 3.44635 2.54803 0
M  V30 5891 H 540.874 4.39608 2.30344 0
M  V30 5892 H 536.13 5.77685 2.00226 0
M  V30 5893 H 540.304 6.73591 1.76771 0
M  V30 5894 H 537.931 7.42917 1.61179 0
M  V30 5895 N 539.506 -0.963266 1.24736 0
M  V30 5896 C 540.438 -2.06162 1.0015 0
M  V30 5897 C 541.451 -1.62771 -0.0305905 0
M  V30 5898 O 542.64 -1.77296 0.206966 0
M  V30 5899 C 539.74 -3.35333 0.490385 0
M  V30 5900 C 538.913 -4.07609 1.58663 0
M  V30 5901 C 537.972 -5.15052 1.0774 0
M  V30 5902 O 536.998 -5.4098 1.77002 0
M  V30 5903 N 538.2 -5.80436 -0.0858605 0
M  V30 5904 H 540.965 -2.27825 1.94719 0
M  V30 5905 H 538.526 -1.13121 1.15825 0
M  V30 5906 H 540.518 -4.04477 0.134371 0
M  V30 5907 H 539.088 -3.10507 -0.361155 0
M  V30 5908 H 538.308 -3.32681 2.11463 0
M  V30 5909 H 539.596 -4.52656 2.32336 0
M  V30 5910 H 538.994 -5.6178 -0.664806 0
M  V30 5911 H 537.551 -6.50674 -0.382981 0
M  V30 5912 N 540.985 -1.06182 -1.16461 0
M  V30 5913 C 541.932 -0.671613 -2.20812 0
M  V30 5914 C 542.902 0.331186 -1.62765 0
M  V30 5915 O 544.087 0.22033 -1.89524 0
M  V30 5916 C 541.227 -0.063029 -3.45042 0
M  V30 5917 C 540.34 -1.11587 -4.1734 0
M  V30 5918 C 539.475 -0.473546 -5.29085 0
M  V30 5919 C 538.514 -1.51 -5.93182 0
M  V30 5920 N 537.651 -0.891118 -6.96422 0
M  V30 5921 H 542.491 -1.56589 -2.53542 0
M  V30 5922 H 540.028 -0.782951 -1.24532 0
M  V30 5923 H 541.986 0.307344 -4.16066 0
M  V30 5924 H 540.616 0.794663 -3.12866 0
M  V30 5925 H 539.668 -1.60396 -3.44931 0
M  V30 5926 H 540.98 -1.90221 -4.61104 0
M  V30 5927 H 540.134 -0.0501432 -6.06679 0
M  V30 5928 H 538.873 0.344687 -4.8648 0
M  V30 5929 H 537.878 -1.94331 -5.14311 0
M  V30 5930 H 539.103 -2.33031 -6.37866 0
M  V30 5931 H 537.049 -0.0935753 -6.55933 0
M  V30 5932 H 536.966 -1.61486 -7.38551 0
M  V30 5933 H 538.234 -0.492822 -7.77941 0
M  V30 5934 N 542.463 1.3308 -0.844243 0
M  V30 5935 C 543.426 2.27403 -0.286485 0
M  V30 5936 C 544.426 1.51179 0.547872 0
M  V30 5937 O 545.616 1.70421 0.360886 0
M  V30 5938 C 542.748 3.35653 0.595813 0
M  V30 5939 H 543.941 2.78248 -1.11885 0
M  V30 5940 H 541.494 1.43574 -0.617749 0
M  V30 5941 H 542.229 2.90058 1.4504 0
M  V30 5942 H 542.014 3.921 -0.00125994 0
M  V30 5943 H 543.504 4.05958 0.979168 0
M  V30 5944 N 543.941 0.601185 1.45683 0
M  V30 5945 C 545.188 0.0938811 2.02282 0
M  V30 5946 C 545.516 -1.27315 1.47041 0
M  V30 5947 O 544.771 -1.85193 0.632623 0
M  V30 5948 C 545.07 -0.00222425 3.574 0
M  V30 5949 C 544.736 1.29963 4.31764 0
M  V30 5950 C 543.398 1.65625 4.51798 0
M  V30 5951 C 545.75 2.1603 4.74321 0
M  V30 5952 C 543.078 2.87119 5.11644 0
M  V30 5953 C 545.43 3.36766 5.3551 0
M  V30 5954 C 544.094 3.72689 5.53768 0
M  V30 5955 H 543.364 0.0343535 0.740203 0
M  V30 5956 H 546.011 0.781522 1.74827 0
M  V30 5957 H 544.316 -0.773096 3.84097 0
M  V30 5958 H 546.013 -0.410794 3.9889 0
M  V30 5959 H 542.603 1.01204 4.1648 0
M  V30 5960 H 546.787 1.89778 4.58582 0
M  V30 5961 H 542.043 3.15065 5.2397 0
M  V30 5962 H 546.217 4.03713 5.67441 0
M  V30 5963 H 543.844 4.66918 5.99909 0
M  V30 5964 N 545.419 -1.53889 0.339982 0
M  V30 5965 C 546.349 -2.27843 -0.510856 0
M  V30 5966 C 547.33 -1.29267 -1.10563 0
M  V30 5967 O 548.515 -1.58104 -1.12768 0
M  V30 5968 C 545.645 -3.04857 -1.66372 0
M  V30 5969 C 544.599 -4.10907 -1.19746 0
M  V30 5970 C 543.925 -4.75855 -2.43857 0
M  V30 5971 C 545.225 -5.21435 -0.300501 0
M  V30 5972 H 546.919 -2.99212 0.106067 0
M  V30 5973 H 544.465 -1.43904 0.0524533 0
M  V30 5974 H 546.418 -3.5533 -2.26537 0
M  V30 5975 H 545.142 -2.31133 -2.30749 0
M  V30 5976 H 543.801 -3.61342 -0.618654 0
M  V30 5977 H 543.449 -3.9873 -3.06633 0
M  V30 5978 H 543.149 -5.47502 -2.13343 0
M  V30 5979 H 544.673 -5.2911 -3.04754 0
M  V30 5980 H 546.087 -5.67565 -0.80889 0
M  V30 5981 H 544.484 -6.00036 -0.0874076 0
M  V30 5982 H 545.554 -4.80328 0.664321 0
M  V30 5983 N 546.897 -0.0685191 -1.57451 0
M  V30 5984 C 547.844 0.899861 -2.12535 0
M  V30 5985 C 548.814 1.29749 -1.03703 0
M  V30 5986 O 549.999 1.38392 -1.31348 0
M  V30 5987 C 547.139 2.16328 -2.6888 0
M  V30 5988 C 546.252 1.81857 -3.91857 0
M  V30 5989 C 545.387 3.02786 -4.36457 0
M  V30 5990 C 544.426 2.64317 -5.5209 0
M  V30 5991 N 543.563 3.77994 -5.91663 0
M  V30 5992 H 548.403 0.423243 -2.94979 0
M  V30 5993 H 545.94 0.197268 -1.45771 0
M  V30 5994 H 547.898 2.90281 -2.99655 0
M  V30 5995 H 546.528 2.61536 -1.89206 0
M  V30 5996 H 545.58 0.979808 -3.67565 0
M  V30 5997 H 546.892 1.49553 -4.75852 0
M  V30 5998 H 546.046 3.85021 -4.68875 0
M  V30 5999 H 544.785 3.38281 -3.51308 0
M  V30 6000 H 543.79 1.80503 -5.19325 0
M  V30 6001 H 545.015 2.29995 -6.38967 0
M  V30 6002 H 542.961 4.13258 -5.09464 0
M  V30 6003 H 542.878 3.49447 -6.7039 0
M  V30 6004 H 544.146 4.60818 -6.28703 0
M  V30 6005 N 548.375 1.56261 0.205012 0
M  V30 6006 C 549.624 1.79236 0.925058 0
M  V30 6007 C 549.937 0.640011 1.84833 0
M  V30 6008 O 551.143 0.753809 2.60826 0
M  V30 6009 C 549.599 3.17475 1.69522 0
M  V30 6010 C 549.207 4.40482 0.817269 0
M  V30 6011 C 550.951 3.49766 2.4055 0
M  V30 6012 C 548.858 5.69744 1.58573 0
M  V30 6013 H 547.788 0.668287 0.349153 0
M  V30 6014 H 550.439 1.82629 0.178544 0
M  V30 6015 H 548.821 3.08304 2.48526 0
M  V30 6016 H 549.995 4.60752 0.0665988 0
M  V30 6017 H 548.31 4.15827 0.218316 0
M  V30 6018 H 550.907 4.43573 2.98575 0
M  V30 6019 H 551.25 2.73041 3.14252 0
M  V30 6020 H 551.783 3.60341 1.68522 0
M  V30 6021 H 548.522 6.49407 0.891679 0
M  V30 6022 H 548.042 5.53509 2.31059 0
M  V30 6023 H 549.721 6.1051 2.14212 0
M  V30 6024 N 549.853 -0.472356 1.50355 0
M  V30 6025 C 551.1 -1.22453 1.61281 0
M  V30 6026 C 551.428 -1.91972 0.31256 0
M  V30 6027 O 550.683 -1.82696 -0.701475 0
M  V30 6028 C 550.982 -2.29257 2.74182 0
M  V30 6029 C 550.648 -1.76999 4.14708 0
M  V30 6030 C 549.31 -1.62467 4.52944 0
M  V30 6031 C 551.662 -1.38215 5.0254 0
M  V30 6032 C 548.99 -1.07574 5.76754 0
M  V30 6033 C 551.342 -0.847638 6.26895 0
M  V30 6034 C 550.006 -0.688946 6.63935 0
M  V30 6035 H 549.276 -0.448087 0.590168 0
M  V30 6036 H 551.923 -0.520744 1.84284 0
M  V30 6037 H 550.228 -3.05538 2.45263 0
M  V30 6038 H 551.925 -2.87212 2.7984 0
M  V30 6039 H 548.515 -1.89276 3.84542 0
M  V30 6040 H 552.699 -1.48276 4.73633 0
M  V30 6041 H 547.955 -0.940237 6.04127 0
M  V30 6042 H 552.129 -0.538455 6.94315 0
M  V30 6043 H 549.756 -0.261435 7.5975 0
M  V30 6044 N 551.331 -1.39911 -0.725443 0
M  V30 6045 C 552.571 -1.39096 -1.49772 0
M  V30 6046 C 552.935 0.0106452 -1.91997 0
M  V30 6047 O 554.136 0.143859 -2.68415 0
M  V30 6048 C 552.407 -2.34441 -2.69764 0
M  V30 6049 S 553.966 -2.51898 -3.59295 0
M  V30 6050 H 550.784 -0.49314 -0.512186 0
M  V30 6051 H 553.386 -1.76093 -0.849197 0
M  V30 6052 H 552.09 -3.35123 -2.36898 0
M  V30 6053 H 551.621 -1.98692 -3.39537 0
M  V30 6054 H 553.636 -1.76402 -4.63785 0
M  V30 6055 N 552.809 0.956637 -1.25245 0
M  V30 6056 C 554.058 1.69537 -1.0927 0
M  V30 6057 C 554.371 1.92136 0.366503 0
M  V30 6058 O 555.577 2.63687 0.64665 0
M  V30 6059 C 554.033 3.05211 -1.9072 0
M  V30 6060 C 553.641 2.90416 -3.41119 0
M  V30 6061 C 555.385 3.82882 -1.83308 0
M  V30 6062 C 553.292 4.21468 -4.14872 0
M  V30 6063 H 552.222 0.635804 -0.405302 0
M  V30 6064 H 554.873 1.06513 -1.49423 0
M  V30 6065 H 553.255 3.69128 -1.43389 0
M  V30 6066 H 554.429 2.35444 -3.9611 0
M  V30 6067 H 552.744 2.26203 -3.49602 0
M  V30 6068 H 555.341 4.79944 -2.35706 0
M  V30 6069 H 555.684 4.0853 -0.800572 0
M  V30 6070 H 556.217 3.25711 -2.28379 0
M  V30 6071 H 552.956 4.01009 -5.18529 0
M  V30 6072 H 552.476 4.76213 -3.64665 0
M  V30 6073 H 554.155 4.90022 -4.22478 0
M  V30 6074 N 554.287 1.06798 1.15896 0
M  V30 6075 C 555.234 0.683314 2.20453 0
M  V30 6076 C 556.204 -0.32255 1.62938 0
M  V30 6077 O 557.389 -0.210276 1.89638 0
M  V30 6078 C 554.529 0.0813266 3.45004 0
M  V30 6079 C 553.642 1.13799 4.16742 0
M  V30 6080 C 552.777 0.501598 5.28826 0
M  V30 6081 C 551.816 1.54144 5.92373 0
M  V30 6082 N 550.953 0.928038 6.9594 0
M  V30 6083 H 555.793 1.57932 2.52708 0
M  V30 6084 H 553.33 0.789544 1.24115 0
M  V30 6085 H 555.288 -0.285274 4.16224 0
M  V30 6086 H 553.918 -0.77806 3.13283 0
M  V30 6087 H 552.97 1.62223 3.44075 0
M  V30 6088 H 554.282 1.92664 4.60089 0
M  V30 6089 H 553.436 0.0823162 6.06644 0
M  V30 6090 H 552.175 -0.318883 4.86656 0
M  V30 6091 H 551.18 1.97056 5.13273 0
M  V30 6092 H 552.405 2.3641 6.36621 0
M  V30 6093 H 550.351 0.12836 6.55874 0
M  V30 6094 H 550.268 1.65401 7.37685 0
M  V30 6095 H 551.536 0.534071 7.77668 0
M  V30 6096 N 555.766 -1.3263 0.851289 0
M  V30 6097 C 556.713 -2.28952 0.291469 0
M  V30 6098 C 557.683 -1.54897 -0.599676 0
M  V30 6099 O 558.868 -1.83137 -0.535305 0
M  V30 6100 C 556.008 -3.41206 -0.516992 0
M  V30 6101 C 555.121 -4.30148 0.399566 0
M  V30 6102 C 554.256 -5.29527 -0.4212 0
M  V30 6103 C 553.295 -6.10112 0.492969 0
M  V30 6104 N 552.432 -7.01499 -0.290414 0
M  V30 6105 H 557.272 -2.76228 1.11813 0
M  V30 6106 H 554.809 -1.35907 0.562826 0
M  V30 6107 H 556.767 -4.05005 -1.00132 0
M  V30 6108 H 555.397 -2.9509 -1.30851 0
M  V30 6109 H 554.449 -3.66959 1.00227 0
M  V30 6110 H 555.761 -4.8649 1.1013 0
M  V30 6111 H 554.915 -5.98914 -0.968832 0
M  V30 6112 H 553.654 -4.73794 -1.15632 0
M  V30 6113 H 552.659 -5.39632 1.05251 0
M  V30 6114 H 553.884 -6.6793 1.22664 0
M  V30 6115 H 551.83 -6.48199 -1.00868 0
M  V30 6116 H 551.747 -7.55178 0.352354 0
M  V30 6117 H 553.015 -7.75176 -0.819882 0
M  V30 6118 N 557.244 -0.608902 -1.45362 0
M  V30 6119 C 558.176 0.147318 -2.28726 0
M  V30 6120 C 559.189 0.830468 -1.40025 0
M  V30 6121 O 560.378 0.695636 -1.64387 0
M  V30 6122 C 557.478 1.22968 -3.15804 0
M  V30 6123 C 556.651 0.633391 -4.3279 0
M  V30 6124 C 555.71 1.60682 -5.01067 0
M  V30 6125 O 554.736 1.13261 -5.57818 0
M  V30 6126 N 555.938 2.94123 -5.00472 0
M  V30 6127 H 558.703 -0.568014 -2.94268 0
M  V30 6128 H 556.264 -0.448479 -1.55564 0
M  V30 6129 H 558.256 1.88072 -3.58345 0
M  V30 6130 H 556.826 1.84752 -2.52162 0
M  V30 6131 H 556.046 -0.195762 -3.93714 0
M  V30 6132 H 557.334 0.215255 -5.08344 0
M  V30 6133 H 556.732 3.3525 -4.55657 0
M  V30 6134 H 555.289 3.54646 -5.46872 0
M  V30 6135 N 558.722 1.53707 -0.348139 0
M  V30 6136 C 560.133 1.86213 0.134797 0
M  V30 6137 C 560.484 1.26925 1.49614 0
M  V30 6138 O 559.609 0.584573 2.08355 0
M  V30 6139 C 560.204 3.37866 0.251371 0
M  V30 6140 C 558.763 3.70233 0.678543 0
M  V30 6141 C 557.91 2.76683 -0.184925 0
M  V30 6142 H 560.861 1.48204 -0.567571 0
M  V30 6143 H 560.882 3.64908 1.07806 0
M  V30 6144 H 560.394 3.80988 -0.739581 0
M  V30 6145 H 558.495 3.32659 1.67835 0
M  V30 6146 H 558.608 4.76836 0.465251 0
M  V30 6147 H 556.972 2.52374 0.343465 0
M  V30 6148 H 557.755 3.22635 -1.1731 0
M  V30 6149 N 560.2 0.0768682 1.57412 0
M  V30 6150 C 561.13 -0.886026 2.16037 0
M  V30 6151 C 562.111 -1.30691 1.08876 0
M  V30 6152 O 563.296 -1.37705 1.36934 0
M  V30 6153 C 560.426 -2.1518 2.72608 0
M  V30 6154 C 559.38 -1.87015 3.8498 0
M  V30 6155 C 558.706 -3.20266 4.28175 0
M  V30 6156 C 560.006 -1.17143 5.08994 0
M  V30 6157 H 561.7 -0.397642 2.96748 0
M  V30 6158 H 559.246 -0.189823 1.42743 0
M  V30 6159 H 561.199 -2.82962 3.12266 0
M  V30 6160 H 559.923 -2.66269 1.89125 0
M  V30 6161 H 558.582 -1.21636 3.45833 0
M  V30 6162 H 558.23 -3.69207 3.41607 0
M  V30 6163 H 557.93 -3.0221 5.03927 0
M  V30 6164 H 559.454 -3.89237 4.70454 0
M  V30 6165 H 560.868 -1.75003 5.45937 0
M  V30 6166 H 559.265 -1.09328 5.90057 0
M  V30 6167 H 560.335 -0.151295 4.84664 0
M  V30 6168 N 561.678 -1.56367 -0.196722 0
M  V30 6169 C 563.089 -1.70462 -0.761545 0
M  V30 6170 C 563.44 -0.683161 -1.83922 0
M  V30 6171 O 562.565 0.160753 -2.15802 0
M  V30 6172 C 563.16 -3.09057 -1.38814 0
M  V30 6173 C 561.719 -3.24922 -1.90007 0
M  V30 6174 C 560.866 -2.66412 -0.769399 0
M  V30 6175 H 563.817 -1.58675 0.0283263 0
M  V30 6176 H 563.838 -3.06296 -2.2575 0
M  V30 6177 H 563.35 -3.83378 -0.603559 0
M  V30 6178 H 561.451 -2.55514 -2.71189 0
M  V30 6179 H 561.564 -4.3241 -2.06297 0
M  V30 6180 H 559.928 -2.25546 -1.18326 0
M  V30 6181 H 560.711 -3.433 0.00291773 0
M  V30 6182 N 563.156 0.464375 -1.50603 0
M  V30 6183 C 564.381 1.24372 -1.65971 0
M  V30 6184 C 564.806 1.84901 -0.345453 0
M  V30 6185 O 564.164 1.67596 0.691457 0
M  V30 6186 C 564.212 2.32331 -2.7578 0
M  V30 6187 O 563.316 3.37146 -2.375 0
M  V30 6188 H 562.657 0.365604 -0.554283 0
M  V30 6189 H 565.187 0.55183 -1.97018 0
M  V30 6190 H 565.197 2.77539 -2.99059 0
M  V30 6191 H 563.872 1.87648 -3.71162 0
M  V30 6192 H 562.449 2.97602 -2.24694 0
M  V30 6193 N 564.634 1.40294 0.718013 0
M  V30 6194 C 565.566 1.36281 1.84283 0
M  V30 6195 C 566.579 0.268621 1.60569 0
M  V30 6196 O 567.768 0.528798 1.70487 0
M  V30 6197 C 564.868 1.09741 3.2064 0
M  V30 6198 C 564.041 2.30767 3.71571 0
M  V30 6199 C 563.1 2.00424 4.86535 0
M  V30 6200 O 562.126 2.73268 4.99313 0
M  V30 6201 N 563.328 0.980724 5.72156 0
M  V30 6202 H 566.093 2.3322 1.88225 0
M  V30 6203 H 563.654 1.34616 0.899453 0
M  V30 6204 H 565.646 0.874322 3.95143 0
M  V30 6205 H 564.216 0.214771 3.11861 0
M  V30 6206 H 563.436 2.68921 2.88228 0
M  V30 6207 H 564.724 3.11455 4.02335 0
M  V30 6208 H 564.122 0.377375 5.6444 0
M  V30 6209 H 562.679 0.817538 6.46653 0
M  V30 6210 N 566.112 -0.949982 1.2575 0
M  V30 6211 C 567.062 -2.03297 1.03221 0
M  V30 6212 C 568.046 -1.60867 -0.0324751 0
M  V30 6213 O 569.238 -1.76047 0.183423 0
M  V30 6214 C 566.367 -3.36938 0.657841 0
M  V30 6215 C 565.453 -3.85878 1.75952 0
M  V30 6216 N 565.844 -4.0756 2.99547 0
M  V30 6217 C 564.142 -4.14709 1.64111 0
M  V30 6218 C 564.843 -4.47961 3.71087 0
M  V30 6219 N 563.819 -4.5416 2.98731 0
M  V30 6220 H 567.621 -2.1806 1.97045 0
M  V30 6221 H 565.135 -1.13516 1.16138 0
M  V30 6222 H 567.132 -4.14155 0.477614 0
M  V30 6223 H 565.792 -3.2355 -0.273025 0
M  V30 6224 H 566.803 -3.94501 3.35544 0
M  V30 6225 H 563.48 -4.10158 0.779527 0
M  V30 6226 H 564.87 -4.73002 4.77199 0
M  V30 6227 N 567.59 -1.07411 -1.15328 0
M  V30 6228 C 568.815 -0.818856 -1.90551 0
M  V30 6229 C 569.24 0.622194 -1.77512 0
M  V30 6230 O 568.598 1.43484 -1.10824 0
M  V30 6231 C 568.646 -1.23267 -3.38877 0
M  V30 6232 O 567.75 -0.378345 -4.10661 0
M  V30 6233 H 567.091 -0.29827 -0.593238 0
M  V30 6234 H 569.621 -1.43289 -1.46046 0
M  V30 6235 H 569.631 -1.20912 -3.89672 0
M  V30 6236 H 568.306 -2.28226 -3.47686 0
M  V30 6237 H 566.883 -0.464437 -3.69996 0
M  V30 6238 N 569.068 1.32177 -0.85831 0
M  V30 6239 C 570.484 1.49873 -0.548656 0
M  V30 6240 C 570.684 1.79278 0.919874 0
M  V30 6241 O 569.74 1.86451 1.70271 0
M  V30 6242 C 571.053 2.64043 -1.4388 0
M  V30 6243 C 572.601 2.77928 -1.43961 0
M  V30 6244 C 573.076 3.95182 -2.31506 0
M  V30 6245 N 574.567 4.0245 -2.29321 0
M  V30 6246 C 575.302 4.9242 -2.93786 0
M  V30 6247 N 574.798 5.87373 -3.67376 0
M  V30 6248 N 576.591 4.85572 -2.83155 0
M  V30 6249 H 568.742 1.11357 -1.80868 0
M  V30 6250 H 571.005 0.549175 -0.772729 0
M  V30 6251 H 570.711 2.49055 -2.48324 0
M  V30 6252 H 570.585 3.59912 -1.12885 0
M  V30 6253 H 572.972 2.92338 -0.402813 0
M  V30 6254 H 573.053 1.82762 -1.78974 0
M  V30 6255 H 572.697 3.81531 -3.35256 0
M  V30 6256 H 572.627 4.89633 -1.93823 0
M  V30 6257 H 575.118 3.34507 -1.75822 0
M  V30 6258 H 575.431 6.52728 -4.13722 0
M  V30 6259 H 573.776 5.87388 -3.71484 0
M  V30 6260 H 576.967 4.10363 -2.25211 0
M  V30 6261 H 577.14 5.55486 -3.33676 0
M  V30 6262 N 570.547 0.616602 1.45037 0
M  V30 6263 C 571.772 0.120192 2.07051 0
M  V30 6264 C 572.197 -1.19008 1.45666 0
M  V30 6265 O 571.555 -1.7267 0.552692 0
M  V30 6266 C 571.603 0.00354901 3.606 0
M  V30 6267 O 570.707 -1.04431 3.98958 0
M  V30 6268 H 570.048 0.0781599 0.659384 0
M  V30 6269 H 572.578 0.849167 1.86146 0
M  V30 6270 H 572.588 -0.191754 4.07549 0
M  V30 6271 H 571.263 0.960239 4.04663 0
M  V30 6272 H 569.84 -0.824749 3.63665 0
M  V30 6273 N 572.025 -1.5352 0.356285 0
M  V30 6274 C 573.271 -2.01414 -0.236653 0
M  V30 6275 C 573.604 -1.24339 -1.49176 0
M  V30 6276 O 572.879 -0.334496 -1.91602 0
M  V30 6277 C 573.162 -3.56059 -0.537982 0
M  V30 6278 C 573.015 -4.43835 0.730112 0
M  V30 6279 C 574.334 -4.19127 -1.34239 0
M  V30 6280 H 571.453 -0.732135 -0.0845386 0
M  V30 6281 H 574.095 -1.83854 0.479341 0
M  V30 6282 H 572.245 -3.71153 -1.14795 0
M  V30 6283 H 573.917 -4.40555 1.36782 0
M  V30 6284 H 572.16 -4.1218 1.3524 0
M  V30 6285 H 572.831 -5.49958 0.474358 0
M  V30 6286 H 575.307 -4.07809 -0.826498 0
M  V30 6287 H 574.183 -5.27378 -1.52198 0
M  V30 6288 H 574.444 -3.74581 -2.34822 0
M  V30 6289 N 573.503 -0.0852151 -1.57369 0
M  V30 6290 C 574.728 0.592872 -1.98746 0
M  V30 6291 C 575.153 1.61538 -0.963689 0
M  V30 6292 O 574.511 1.81168 0.069071 0
M  V30 6293 C 574.559 1.22599 -3.39119 0
M  V30 6294 O 573.663 2.34185 -3.39457 0
M  V30 6295 H 573.004 0.151314 -0.646529 0
M  V30 6296 H 575.534 -0.163703 -2.03944 0
M  V30 6297 H 575.544 1.56965 -3.76598 0
M  V30 6298 H 574.219 0.476831 -4.13158 0
M  V30 6299 H 572.796 2.01512 -3.13763 0
M  V30 6300 N 574.981 1.5647 0.188427 0
M  V30 6301 C 576.206 1.85486 0.927891 0
M  V30 6302 C 576.631 0.669575 1.75779 0
M  V30 6303 O 575.989 -0.381573 1.77239 0
M  V30 6304 C 576.037 3.12784 1.7944 0
M  V30 6305 O 575.141 2.93805 2.894 0
M  V30 6306 H 574.482 0.610585 0.260925 0
M  V30 6307 H 577.012 2.037 0.191729 0
M  V30 6308 H 577.022 3.43749 2.19774 0
M  V30 6309 H 575.697 3.98671 1.18468 0
M  V30 6310 H 574.274 2.74153 2.52774 0
M  V30 6311 O 576.498 -0.333583 1.58017 0
M  V30 6312 H 577.189 -0.982643 1.66925 0
M  V30 END ATOM
M  V30 BEGIN BOND
M  V30 END BOND
M  V30 END CTAB
M  END
$$$$
