drugbank_target|Q6FHJ7 Secreted frizzled-related protein 4 (DB00606; DB00790)
 OpenBabel12092121083D

  0  0  0     0  0            999 V3000
M  V30 BEGIN CTAB
M  V30 COUNTS 5627 5693 0 0 0
M  V30 BEGIN ATOM
M  V30 1 H -0.908 1.98254 -0.117106 0
M  V30 2 N 0 1.576 0 0
M  V30 3 C 0.933 2.03868 1.02534 0
M  V30 4 C 1.911 0.928543 1.3348 0
M  V30 5 O 3.095 1.19667 1.45644 0
M  V30 6 C 0.222 2.43627 2.35294 0
M  V30 7 C -0.732 3.65373 2.2001 0
M  V30 8 S 0.101 5.13292 1.52614 0
M  V30 9 C 1.257 5.56322 2.86805 0
M  V30 10 H 1.49 2.90518 0.631377 0
M  V30 11 H -0.977 1.52953 0.210867 0
M  V30 12 H 0.981 2.67203 3.11629 0
M  V30 13 H -0.358 1.57376 2.7183 0
M  V30 14 H -1.165 3.90944 3.18086 0
M  V30 15 H -1.563 3.418 1.51819 0
M  V30 16 H 0.729 5.58782 3.83104 0
M  V30 17 H 1.672 6.56266 2.65933 0
M  V30 18 H 2.08 4.83886 2.90714 0
M  V30 19 N 1.4781 -0.272755 1.55222 0
M  V30 20 C 2.7251 -1.00433 1.7584 0
M  V30 21 C 3.0531 -1.86275 0.559629 0
M  V30 22 O 2.3081 -1.90269 -0.457857 0
M  V30 23 C 2.6071 -1.91642 3.01675 0
M  V30 24 C 2.2731 -1.21548 4.34208 0
M  V30 25 C 0.9351 -1.02166 4.70229 0
M  V30 26 C 3.2871 -0.716684 5.16249 0
M  V30 27 C 0.6151 -0.316334 5.85847 0
M  V30 28 C 2.9671 -0.0249476 6.32595 0
M  V30 29 C 1.6311 0.180579 6.67256 0
M  V30 30 H 0.9011 -0.367509 0.643443 0
M  V30 31 H 3.5481 -0.276596 1.89492 0
M  V30 32 H 1.8531 -2.71037 2.82924 0
M  V30 33 H 3.5501 -2.48369 3.14824 0
M  V30 34 H 0.1401 -1.37645 4.05896 0
M  V30 35 H 4.3241 -0.854047 4.88896 0
M  V30 36 H -0.4199 -0.146378 6.11225 0
M  V30 37 H 3.7541 0.369311 6.9542 0
M  V30 38 H 1.3811 0.729098 7.56696 0
M  V30 39 N 2.9562 -1.48159 -0.537278 0
M  V30 40 C 3.8862 -1.65029 -1.6519 0
M  V30 41 C 4.8672 -0.499281 -1.62607 0
M  V30 42 O 6.0522 -0.730972 -1.79918 0
M  V30 43 C 3.1822 -1.68303 -3.03795 0
M  V30 44 C 2.1362 -2.8283 -3.21234 0
M  V30 45 C 1.4622 -2.71189 -4.60826 0
M  V30 46 C 2.7622 -4.24211 -3.04701 0
M  V30 47 H 4.4562 -2.58341 -1.51328 0
M  V30 48 H 2.0022 -1.24325 -0.726585 0
M  V30 49 H 3.9552 -1.78693 -3.81637 0
M  V30 50 H 2.6792 -0.715635 -3.18663 0
M  V30 51 H 1.3382 -2.71983 -2.45807 0
M  V30 52 H 0.9862 -1.72435 -4.7252 0
M  V30 53 H 0.6862 -3.48035 -4.7344 0
M  V30 54 H 2.2102 -2.83537 -5.40777 0
M  V30 55 H 3.6242 -4.3593 -3.72341 0
M  V30 56 H 2.0212 -5.01998 -3.28813 0
M  V30 57 H 3.0912 -4.41184 -2.01209 0
M  V30 58 N 4.4343 0.785586 -1.36625 0
M  V30 59 C 5.6593 1.57963 -1.34397 0
M  V30 60 C 6.0843 1.87964 0.071526 0
M  V30 61 O 5.4423 1.48182 1.0446 0
M  V30 62 C 5.4903 2.87511 -2.17646 0
M  V30 63 O 4.5943 3.81281 -1.57158 0
M  V30 64 H 3.9353 0.479014 -0.459828 0
M  V30 65 H 6.4653 0.973411 -1.79961 0
M  V30 66 H 6.4753 3.36745 -2.30362 0
M  V30 67 H 5.1503 2.65002 -3.20541 0
M  V30 68 H 3.7273 3.39885 -1.53403 0
M  V30 69 N 5.9124 1.20967 1.01018 0
M  V30 70 C 7.1614 1.01796 1.74128 0
M  V30 71 C 7.4744 -0.449691 1.90361 0
M  V30 72 O 8.6804 -0.76068 2.60626 0
M  V30 73 C 7.1364 1.7727 3.13215 0
M  V30 74 C 6.7444 3.28171 3.04972 0
M  V30 75 C 8.4884 1.66489 3.90489 0
M  V30 76 C 6.3954 3.96156 4.39107 0
M  V30 77 H 5.3254 0.377276 0.652824 0
M  V30 78 H 7.9764 1.44651 1.12909 0
M  V30 79 H 6.3584 1.27205 3.75013 0
M  V30 80 H 7.5324 3.85499 2.52443 0
M  V30 81 H 5.8474 3.39437 2.41188 0
M  V30 82 H 8.4444 2.14617 4.89738 0
M  V30 83 H 8.7874 0.6222 4.11624 0
M  V30 84 H 9.3204 2.14003 3.35332 0
M  V30 85 H 6.0594 5.00604 4.23174 0
M  V30 86 H 5.5794 3.43617 4.91617 0
M  V30 87 H 7.2584 4.00774 5.07926 0
M  V30 88 N 7.3905 -1.2043 1.01659 0
M  V30 89 C 8.3205 -2.25466 0.607226 0
M  V30 90 C 9.3015 -1.65853 -0.377716 0
M  V30 91 O 10.4865 -1.92409 -0.263149 0
M  V30 92 C 7.6165 -3.47256 -0.0552949 0
M  V30 93 C 6.5705 -4.19462 0.850632 0
M  V30 94 C 5.8965 -5.34673 0.0538859 0
M  V30 95 C 7.1965 -4.75603 2.15868 0
M  V30 96 H 8.8905 -2.59962 1.48526 0
M  V30 97 H 6.4365 -1.2496 0.715605 0
M  V30 98 H 8.3895 -4.19917 -0.353233 0
M  V30 99 H 7.1135 -3.11924 -0.968045 0
M  V30 100 H 5.7725 -3.48667 1.13257 0
M  V30 101 H 5.4205 -4.95585 -0.860514 0
M  V30 102 H 5.1205 -5.83913 0.657192 0
M  V30 103 H 6.6445 -6.10138 -0.237598 0
M  V30 104 H 8.0585 -5.40083 1.92311 0
M  V30 105 H 6.4555 -5.3528 2.71284 0
M  V30 106 H 7.5255 -3.94346 2.82169 0
M  V30 107 N 8.8686 -0.792821 -1.36206 0
M  V30 108 C 10.1146 -0.36733 -1.99446 0
M  V30 109 C 10.4476 1.05917 -1.62774 0
M  V30 110 O 9.7226 1.7324 -0.88421 0
M  V30 111 C 10.0056 -0.535044 -3.56103 0
M  V30 112 C 9.8586 -2.00548 -4.02617 0
M  V30 113 C 11.1776 0.0478191 -4.40074 0
M  V30 114 H 8.2966 -0.134941 -0.724541 0
M  V30 115 H 10.9386 -0.999794 -1.61568 0
M  V30 116 H 9.0886 0.00336329 -3.885 0
M  V30 117 H 10.7606 -2.60521 -3.80692 0
M  V30 118 H 9.0036 -2.50686 -3.54032 0
M  V30 119 H 9.6746 -2.07377 -5.11565 0
M  V30 120 H 12.1506 -0.411822 -4.14057 0
M  V30 121 H 11.0266 -0.0995336 -5.4881 0
M  V30 122 H 11.2876 1.14025 -4.27142 0
M  V30 123 N 10.3467 1.47872 -0.545128 0
M  V30 124 C 11.3097 2.28337 0.198717 0
M  V30 125 C 12.3097 1.36255 0.853888 0
M  V30 126 O 13.4997 1.59003 0.711606 0
M  V30 127 C 10.6317 3.15585 1.28915 0
M  V30 128 H 11.8247 2.95567 -0.507941 0
M  V30 129 H 9.3777 1.53362 -0.301616 0
M  V30 130 H 10.1127 2.53019 2.02859 0
M  V30 131 H 9.8977 3.83337 0.824309 0
M  V30 132 H 11.3877 3.76243 1.81194 0
M  V30 133 N 11.8248 0.280983 1.55075 0
M  V30 134 C 12.7548 -0.597469 2.25727 0
M  V30 135 C 13.7358 -1.15417 1.24952 0
M  V30 136 O 14.9208 -1.18722 1.53684 0
M  V30 137 C 12.0508 -1.7789 2.98283 0
M  V30 138 C 11.0048 -1.35347 4.06036 0
M  V30 139 C 10.3308 -2.61846 4.66198 0
M  V30 140 C 11.6308 -0.499354 5.19907 0
M  V30 141 H 13.3248 -0.00824265 2.99399 0
M  V30 142 H 10.8708 -0.0025244 1.44 0
M  V30 143 H 12.8238 -2.39937 3.46422 0
M  V30 144 H 11.5478 -2.39405 2.22155 0
M  V30 145 H 10.2068 -0.756156 3.58717 0
M  V30 146 H 9.8548 -3.21632 3.86732 0
M  V30 147 H 9.5548 -2.3409 5.38958 0
M  V30 148 H 11.0788 -3.24732 5.1709 0
M  V30 149 H 12.4928 -1.02498 5.64063 0
M  V30 150 H 10.8898 -0.316424 5.99265 0
M  V30 151 H 11.9598 0.480459 4.82514 0
M  V30 152 N 13.3029 -1.57598 0.00835791 0
M  V30 153 C 14.5429 -1.92788 -0.679136 0
M  V30 154 C 14.9069 -0.883378 -1.70471 0
M  V30 155 O 16.1079 -1.12079 -2.44319 0
M  V30 156 C 14.3789 -3.32994 -1.29807 0
M  V30 157 S 15.9379 -3.90082 -2.00952 0
M  V30 158 H 12.7559 -0.67475 -0.224127 0
M  V30 159 H 15.3579 -1.95385 0.0670497 0
M  V30 160 H 14.0619 -4.06846 -0.538922 0
M  V30 161 H 13.5929 -3.33791 -2.082 0
M  V30 162 H 15.6079 -3.71834 -3.28563 0
M  V30 163 N 14.781 0.264519 -1.55364 0
M  V30 164 C 15.711 1.33121 -1.91836 0
M  V30 165 C 16.692 1.51101 -0.781192 0
M  V30 166 O 17.877 1.64003 -1.04003 0
M  V30 167 C 15.007 2.68921 -2.19769 0
M  V30 168 C 13.961 2.65661 -3.35571 0
M  V30 169 C 13.287 4.05093 -3.49004 0
M  V30 170 C 14.587 2.24187 -4.71739 0
M  V30 171 H 16.281 1.02844 -2.81182 0
M  V30 172 H 13.827 0.493286 -1.35287 0
M  V30 173 H 15.78 3.43663 -2.43872 0
M  V30 174 H 14.504 3.00799 -1.27231 0
M  V30 175 H 13.163 1.93377 -3.1145 0
M  V30 176 H 12.811 4.34206 -2.53917 0
M  V30 177 H 12.511 4.03804 -4.26868 0
M  V30 178 H 14.035 4.81561 -3.75408 0
M  V30 179 H 15.449 2.88654 -4.9533 0
M  V30 180 H 13.846 2.34044 -5.52579 0
M  V30 181 H 14.916 1.19327 -4.69988 0
M  V30 182 N 16.2591 1.48442 0.529413 0
M  V30 183 C 17.5051 1.57699 1.28463 0
M  V30 184 C 17.8601 0.247913 1.90796 0
M  V30 185 O 17.1531 -0.749279 1.76342 0
M  V30 186 C 17.3471 2.6523 2.39558 0
M  V30 187 C 17.1761 4.08464 1.88114 0
M  V30 188 C 15.9461 4.75596 1.70693 0
M  V30 189 C 18.1441 4.94613 1.40935 0
M  V30 190 N 16.1261 6.03245 1.13881 0
M  V30 191 C 17.4971 6.12511 0.960734 0
M  V30 192 C 19.5521 4.80833 1.29243 0
M  V30 193 C 18.2551 7.18149 0.406792 0
M  V30 194 C 20.2811 5.86593 0.752487 0
M  V30 195 C 19.6431 7.037 0.313946 0
M  V30 196 H 15.7421 0.631608 0.46108 0
M  V30 197 H 18.3261 1.85325 0.596886 0
M  V30 198 H 16.4971 2.39425 3.05827 0
M  V30 199 H 18.2291 2.64169 3.06589 0
M  V30 200 H 14.9841 4.31938 1.94232 0
M  V30 201 H 15.4081 6.71324 0.874831 0
M  V30 202 H 20.0501 3.90635 1.61754 0
M  V30 203 H 17.7681 8.0807 0.0693671 0
M  V30 204 H 21.3541 5.77985 0.665192 0
M  V30 205 H 20.2341 7.8414 -0.0973632 0
M  V30 206 N 17.7372 -0.778329 1.37039 0
M  V30 207 C 18.6672 -1.90546 1.34962 0
M  V30 208 C 19.6482 -1.68681 0.219274 0
M  V30 209 O 20.8332 -1.89634 0.418624 0
M  V30 210 C 17.9632 -3.27734 1.14925 0
M  V30 211 C 16.9172 -3.64147 2.24902 0
M  V30 212 C 16.2432 -4.99806 1.89996 0
M  V30 213 C 17.5432 -3.71579 3.67051 0
M  V30 214 H 19.2372 -1.92541 2.29277 0
M  V30 215 H 16.7832 -0.924948 1.10366 0
M  V30 216 H 18.7362 -4.06215 1.12104 0
M  V30 217 H 17.4602 -3.26154 0.170631 0
M  V30 218 H 16.1192 -2.8797 2.26868 0
M  V30 219 H 15.7672 -4.94759 0.906796 0
M  V30 220 H 15.4672 -5.25139 2.63634 0
M  V30 221 H 16.9912 -5.80694 1.88749 0
M  V30 222 H 18.4052 -4.40227 3.67251 0
M  V30 223 H 16.8022 -4.08405 4.39688 0
M  V30 224 H 17.8722 -2.72404 4.01154 0
M  V30 225 N 19.2153 -1.21501 -1.00376 0
M  V30 226 C 20.1653 -0.942843 -2.07592 0
M  V30 227 C 21.1493 0.102384 -1.60574 0
M  V30 228 O 22.3413 -0.10671 -1.76678 0
M  V30 229 C 19.4703 -0.510729 -3.3948 0
M  V30 230 C 18.5563 -1.59009 -3.93163 0
M  V30 231 N 18.9473 -2.81544 -4.20198 0
M  V30 232 C 17.2453 -1.45925 -4.21452 0
M  V30 233 C 17.9463 -3.51261 -4.63671 0
M  V30 234 N 16.9223 -2.78703 -4.66718 0
M  V30 235 H 20.7243 -1.87378 -2.26421 0
M  V30 236 H 18.2383 -1.11093 -1.18458 0
M  V30 237 H 20.2353 -0.297101 -4.1584 0
M  V30 238 H 18.8953 0.413436 -3.22057 0
M  V30 239 H 19.9063 -3.18075 -4.08716 0
M  V30 240 H 16.5833 -0.600467 -4.13159 0
M  V30 241 H 17.9733 -4.56183 -4.93302 0
M  V30 242 N 20.6934 1.19889 -1.02296 0
M  V30 243 C 21.6234 2.25141 -0.619174 0
M  V30 244 C 22.6044 1.66051 0.368915 0
M  V30 245 O 23.7894 1.92546 0.252941 0
M  V30 246 C 20.9194 3.4728 0.0368783 0
M  V30 247 C 19.8734 4.19005 -0.872865 0
M  V30 248 C 19.1994 5.34637 -0.0822402 0
M  V30 249 C 20.4994 4.74452 -2.18387 0
M  V30 250 H 22.1934 2.59171 -1.49903 0
M  V30 251 H 19.7394 1.24579 -0.722222 0
M  V30 252 H 21.6924 4.20098 0.330958 0
M  V30 253 H 20.4164 3.12433 0.95149 0
M  V30 254 H 19.0754 3.48061 -1.15105 0
M  V30 255 H 18.7234 4.96034 0.83422 0
M  V30 256 H 18.4234 5.83557 -0.688149 0
M  V30 257 H 19.9474 6.10255 0.205238 0
M  V30 258 H 21.3614 5.39055 -1.95172 0
M  V30 259 H 19.7584 5.33834 -2.74119 0
M  V30 260 H 20.8284 3.92844 -2.84257 0
M  V30 261 N 22.1715 0.800033 1.35784 0
M  V30 262 C 23.1345 0.211565 2.28221 0
M  V30 263 C 24.1345 -0.59728 1.49296 0
M  V30 264 O 25.3245 -0.416721 1.69142 0
M  V30 265 C 22.4565 -0.705846 3.33513 0
M  V30 266 H 23.6495 1.02677 2.81776 0
M  V30 267 H 21.2025 0.570211 1.45528 0
M  V30 268 H 21.9375 -1.54498 2.85133 0
M  V30 269 H 21.7225 -0.127655 3.91892 0
M  V30 270 H 23.2125 -1.11211 4.02519 0
M  V30 271 N 23.6496 -1.47581 0.552962 0
M  V30 272 C 24.5796 -2.32762 -0.185451 0
M  V30 273 C 25.5606 -1.43527 -0.912905 0
M  V30 274 O 26.7456 -1.72388 -0.894201 0
M  V30 275 C 23.8756 -3.25219 -1.21859 0
M  V30 276 C 22.8296 -4.23661 -0.607864 0
M  V30 277 C 22.1556 -5.05413 -1.74533 0
M  V30 278 C 23.4556 -5.20481 0.435582 0
M  V30 279 H 25.1496 -2.94749 0.525684 0
M  V30 280 H 22.6956 -1.41738 0.254251 0
M  V30 281 H 24.6486 -3.8365 -1.7433 0
M  V30 282 H 23.3726 -2.61279 -1.95961 0
M  V30 283 H 22.0316 -3.66451 -0.104489 0
M  V30 284 H 21.6796 -4.3788 -2.47529 0
M  V30 285 H 21.3796 -5.72059 -1.34249 0
M  V30 286 H 22.9036 -5.66701 -2.27338 0
M  V30 287 H 24.3176 -5.733 -0.00290157 0
M  V30 288 H 22.7146 -5.95305 0.757067 0
M  V30 289 H 23.7846 -4.66217 1.33303 0
M  V30 290 N 25.1277 -0.289203 -1.54924 0
M  V30 291 C 26.3757 0.322879 -1.99504 0
M  V30 292 C 26.6967 1.55313 -1.1791 0
M  V30 293 O 25.9667 1.94001 -0.272097 0
M  V30 294 H 24.5467 0.122291 -0.736922 0
M  V30 295 H 27.2087 -0.397802 -1.90797 0
M  V30 296 H 26.3047 0.603061 -3.06218 0
M  V30 297 N 26.6058 1.57591 -0.0167156 0
M  V30 298 C 27.8518 1.91567 0.665582 0
M  V30 299 C 28.1848 0.892298 1.72487 0
M  V30 300 O 27.4598 -0.0867127 1.94307 0
M  V30 301 C 27.7428 3.36069 1.29342 0
M  V30 302 C 27.5958 4.49135 0.244541 0
M  V30 303 C 28.9148 3.803 2.21495 0
M  V30 304 H 26.0338 0.69666 0.240488 0
M  V30 305 H 28.6758 1.89866 -0.0714356 0
M  V30 306 H 26.8258 3.3765 1.92158 0
M  V30 307 H 28.4978 4.59689 -0.385228 0
M  V30 308 H 26.7408 4.3165 -0.431379 0
M  V30 309 H 27.4118 5.47242 0.723207 0
M  V30 310 H 29.8878 3.80377 1.68678 0
M  V30 311 H 28.7638 4.82127 2.62382 0
M  V30 312 H 29.0248 3.15104 3.101 0
M  V30 313 N 28.0839 -0.256276 1.55502 0
M  V30 314 C 29.4999 -0.604325 1.47716 0
M  V30 315 C 29.6999 -1.88763 0.705039 0
M  V30 316 O 28.7559 -2.51445 0.230613 0
M  V30 317 C 30.0689 -0.715756 2.92057 0
M  V30 318 C 31.6169 -0.808706 3.02372 0
M  V30 319 C 32.0919 -0.951777 4.48001 0
M  V30 320 N 33.5829 -1.01688 4.519 0
M  V30 321 C 34.3179 -1.14668 5.61817 0
M  V30 322 N 33.8139 -1.24261 6.81565 0
M  V30 323 N 35.6069 -1.1791 5.49594 0
M  V30 324 H 27.7579 0.586291 2.04148 0
M  V30 325 H 30.0209 0.201015 0.926443 0
M  V30 326 H 29.7269 0.157027 3.51349 0
M  V30 327 H 29.6009 -1.59071 3.42018 0
M  V30 328 H 31.9879 -1.67195 2.43166 0
M  V30 329 H 32.0689 0.0912063 2.55637 0
M  V30 330 H 31.7129 -0.0931291 5.07815 0
M  V30 331 H 31.6429 -1.86659 4.92408 0
M  V30 332 H 34.1339 -0.954468 3.65648 0
M  V30 333 H 34.4469 -1.34046 7.61086 0
M  V30 334 H 32.7919 -1.21236 6.84344 0
M  V30 335 H 35.9829 -1.10057 4.54978 0
M  V30 336 H 36.1559 -1.27681 6.35296 0
M  V30 337 N 29.562 -1.4872 -0.521534 0
M  V30 338 C 30.81 -1.56857 -1.27437 0
M  V30 339 C 31.131 -0.247982 -1.93417 0
M  V30 340 O 30.401 0.731151 -1.81744 0
M  V30 341 H 28.981 -0.577885 -0.473347 0
M  V30 342 H 31.643 -1.85233 -0.606205 0
M  V30 343 H 30.739 -2.35402 -2.0492 0
M  V30 344 N 31.0401 0.771051 -1.3745 0
M  V30 345 C 32.0031 1.86598 -1.33093 0
M  V30 346 C 33.0031 1.59076 -0.234845 0
M  V30 347 O 34.1931 1.67145 -0.490732 0
M  V30 348 C 31.3251 3.23747 -1.06773 0
M  V30 349 H 32.5181 1.91873 -2.30488 0
M  V30 350 H 30.0711 0.970876 -1.2249 0
M  V30 351 H 30.8061 3.24148 -0.099129 0
M  V30 352 H 30.5911 3.45115 -1.86112 0
M  V30 353 H 32.0811 4.03824 -1.06377 0
M  V30 354 N 32.5182 1.22032 0.997298 0
M  V30 355 C 33.9292 1.0397 1.55071 0
M  V30 356 C 34.2802 -0.398192 1.92117 0
M  V30 357 O 33.4052 -1.28254 1.74298 0
M  V30 358 C 34.0002 1.88109 2.81781 0
M  V30 359 C 32.5592 1.74357 3.33581 0
M  V30 360 C 31.7062 1.84846 2.06706 0
M  V30 361 H 34.6572 1.35941 0.818883 0
M  V30 362 H 34.6782 1.39589 3.53971 0
M  V30 363 H 34.1902 2.92754 2.54787 0
M  V30 364 H 32.2912 0.72427 3.65493 0
M  V30 365 H 32.4042 2.56772 4.04481 0
M  V30 366 H 30.7682 1.28238 2.20062 0
M  V30 367 H 31.5512 2.91014 1.82114 0
M  V30 368 N 33.9963 -1.19345 1.0293 0
M  V30 369 C 35.2363 -1.90738 0.734727 0
M  V30 370 C 35.6003 -1.7785 -0.723414 0
M  V30 371 O 36.8013 -2.43844 -1.13108 0
M  V30 372 C 35.0723 -3.37569 1.17396 0
M  V30 373 S 36.6313 -4.27176 1.00329 0
M  V30 374 H 33.4493 -0.658771 0.267474 0
M  V30 375 H 36.0513 -1.4428 1.31922 0
M  V30 376 H 34.7553 -3.44475 2.23081 0
M  V30 377 H 34.2863 -3.8906 0.582772 0
M  V30 378 H 36.3013 -4.96126 -0.0859152 0
M  V30 379 N 35.4744 -0.807222 -1.35358 0
M  V30 380 C 36.3844 -0.219594 -2.3357 0
M  V30 381 C 37.4004 0.637734 -1.61892 0
M  V30 382 O 38.5764 0.549336 -1.93763 0
M  V30 383 C 35.6414 0.62158 -3.41083 0
M  V30 384 C 34.7024 -0.256315 -4.28534 0
M  V30 385 C 33.9354 0.544807 -5.30912 0
M  V30 386 O 34.1584 1.77944 -5.41934 0
M  V30 387 O 33.0924 -0.0646478 -6.01865 0
M  V30 388 H 36.9184 -1.03208 -2.85625 0
M  V30 389 H 34.5034 -0.569025 -1.38139 0
M  V30 390 H 36.3854 1.10067 -4.06772 0
M  V30 391 H 35.0604 1.41165 -2.91297 0
M  V30 392 H 33.9674 -0.782559 -3.65823 0
M  V30 393 H 35.3004 -1.01034 -4.81719 0
M  V30 394 N 36.9525 1.47285 -0.560781 0
M  V30 395 C 37.9155 2.28535 0.174488 0
M  V30 396 C 38.9155 1.37153 0.839388 0
M  V30 397 O 40.1055 1.59748 0.694702 0
M  V30 398 C 37.2375 3.16934 1.25561 0
M  V30 399 H 38.4305 2.95012 -0.539262 0
M  V30 400 H 35.9835 1.53034 -0.317865 0
M  V30 401 H 36.7185 2.55157 2.00164 0
M  V30 402 H 36.5035 3.8419 0.783604 0
M  V30 403 H 37.9935 3.78143 1.77193 0
M  V30 404 N 38.4306 0.297415 1.54768 0
M  V30 405 C 39.6766 -0.313376 2.00364 0
M  V30 406 C 40.0096 -1.53815 1.18553 0
M  V30 407 O 39.2846 -1.92739 0.261103 0
M  V30 408 C 39.5676 -0.673525 3.53745 0
M  V30 409 C 39.4206 0.560133 4.46299 0
M  V30 410 C 40.7396 -1.50143 4.13697 0
M  V30 411 H 37.8586 -0.112428 0.728374 0
M  V30 412 H 40.5006 0.4088 1.8555 0
M  V30 413 H 38.6506 -1.28881 3.665 0
M  V30 414 H 40.3226 1.19863 4.45455 0
M  V30 415 H 38.5656 1.19405 4.17043 0
M  V30 416 H 39.2366 0.26405 5.51368 0
M  V30 417 H 41.7126 -0.981588 4.04356 0
M  V30 418 H 40.5886 -1.72221 5.21182 0
M  V30 419 H 40.8496 -2.48952 3.65343 0
M  V30 420 N 39.9087 -1.5758 0.0250728 0
M  V30 421 C 41.3247 -1.56124 -0.331282 0
M  V30 422 C 41.5247 -1.03029 -1.73169 0
M  V30 423 O 40.5807 -0.675215 -2.43305 0
M  V30 424 C 41.8937 -3.00139 -0.183584 0
M  V30 425 C 43.4417 -3.11946 -0.256654 0
M  V30 426 C 43.9167 -4.57793 -0.137792 0
M  V30 427 N 45.4077 -4.6279 -0.194904 0
M  V30 428 C 46.1427 -5.7326 -0.126655 0
M  V30 429 N 45.6387 -6.928 -0.00755288 0
M  V30 430 N 47.4317 -5.61811 -0.180348 0
M  V30 431 H 39.5827 -1.90424 0.94087 0
M  V30 432 H 41.8457 -0.875761 0.362968 0
M  V30 433 H 41.5517 -3.4292 0.780927 0
M  V30 434 H 41.4257 -3.64899 -0.955448 0
M  V30 435 H 43.8127 -2.69079 -1.21162 0
M  V30 436 H 43.8937 -2.49915 0.545517 0
M  V30 437 H 43.5377 -5.01339 0.813739 0
M  V30 438 H 43.4677 -5.17798 -0.958775 0
M  V30 439 H 45.9587 -3.76807 -0.287267 0
M  V30 440 H 46.2717 -7.72791 0.0379428 0
M  V30 441 H 44.6167 -6.94995 0.0271731 0
M  V30 442 H 47.8077 -4.6731 -0.271767 0
M  V30 443 H 47.9807 -6.47882 -0.123697 0
M  V30 444 N 41.3868 0.248026 -1.55636 0
M  V30 445 C 42.6358 0.974134 -1.76617 0
M  V30 446 C 42.9488 1.86528 -0.588796 0
M  V30 447 O 44.1548 2.62805 -0.681594 0
M  V30 448 C 42.6108 1.78213 -3.12679 0
M  V30 449 C 42.2188 0.93843 -4.38061 0
M  V30 450 C 43.9628 2.50104 -3.42999 0
M  V30 451 C 41.8698 1.74225 -5.65155 0
M  V30 452 H 40.7998 0.36745 -0.658405 0
M  V30 453 H 43.4508 0.22884 -1.82067 0
M  V30 454 H 41.8328 2.56933 -3.01333 0
M  V30 455 H 43.0068 0.193635 -4.60393 0
M  V30 456 H 41.3218 0.332905 -4.15067 0
M  V30 457 H 43.9188 3.10694 -4.3517 0
M  V30 458 H 44.2618 3.21662 -2.64271 0
M  V30 459 H 44.7948 1.78395 -3.55556 0
M  V30 460 H 41.5338 1.07043 -6.46701 0
M  V30 461 H 41.0538 2.46235 -5.46926 0
M  V30 462 H 42.7328 2.30967 -6.0437 0
M  V30 463 N 42.8649 1.48995 0.513639 0
M  V30 464 C 44.2759 1.5119 1.09537 0
M  V30 465 C 44.6269 0.290906 1.94031 0
M  V30 466 O 43.7519 -0.60049 2.07902 0
M  V30 467 C 44.3469 2.73964 1.99322 0
M  V30 468 C 42.9059 2.78978 2.52682 0
M  V30 469 C 42.0529 2.44934 1.30009 0
M  V30 470 H 45.0039 1.55875 0.298125 0
M  V30 471 H 45.0249 2.53409 2.83838 0
M  V30 472 H 44.5369 3.62813 1.37799 0
M  V30 473 H 42.6379 1.94378 3.1788 0
M  V30 474 H 42.7509 3.8083 2.90698 0
M  V30 475 H 41.1149 1.9644 1.62122 0
M  V30 476 H 41.8979 3.36043 0.702131 0
M  V30 477 N 44.343 -0.763751 1.37857 0
M  V30 478 C 45.276 -1.88486 1.28639 0
M  V30 479 C 46.254 -1.61757 0.165363 0
M  V30 480 O 47.438 -1.85391 0.340948 0
M  V30 481 C 44.565 -3.23884 0.990811 0
M  V30 482 C 43.611 -3.69514 2.12983 0
M  V30 483 S 44.444 -3.82244 3.75033 0
M  V30 484 C 45.6 -5.20477 3.47641 0
M  V30 485 H 45.833 -1.96017 2.23527 0
M  V30 486 H 43.366 -0.925684 1.23574 0
M  V30 487 H 45.324 -4.02081 0.827101 0
M  V30 488 H 43.985 -3.14044 0.0592832 0
M  V30 489 H 43.178 -4.67696 1.87821 0
M  V30 490 H 42.78 -2.98441 2.25408 0
M  V30 491 H 45.072 -6.05905 3.03125 0
M  V30 492 H 46.015 -5.50655 4.4518 0
M  V30 493 H 46.423 -4.88793 2.82385 0
M  V30 494 N 45.8211 -1.22559 -0.990812 0
M  V30 495 C 47.0611 -1.06302 -1.74583 0
M  V30 496 C 47.4251 0.394737 -1.87898 0
M  V30 497 O 48.6261 0.678214 -2.60103 0
M  V30 498 C 46.8971 -1.75699 -3.11231 0
M  V30 499 S 48.4561 -1.74882 -4.02445 0
M  V30 500 H 45.2741 -0.380639 -0.600529 0
M  V30 501 H 47.8761 -1.55532 -1.18449 0
M  V30 502 H 46.5801 -2.80923 -2.99183 0
M  V30 503 H 46.1111 -1.26708 -3.72436 0
M  V30 504 H 48.1261 -0.799997 -4.89709 0
M  V30 505 N 47.2992 1.18797 -1.03562 0
M  V30 506 C 48.7152 1.40671 -0.753917 0
M  V30 507 C 48.9152 1.9043 0.658686 0
M  V30 508 O 47.9712 2.08538 1.42366 0
M  V30 509 C 49.2842 2.41192 -1.79574 0
M  V30 510 C 50.8322 2.54928 -1.81606 0
M  V30 511 C 51.3072 3.58709 -2.84766 0
M  V30 512 N 52.7982 3.66212 -2.83625 0
M  V30 513 C 53.5332 4.46225 -3.60098 0
M  V30 514 N 53.0292 5.29888 -4.46308 0
M  V30 515 N 54.8222 4.40939 -3.4861 0
M  V30 516 H 46.9732 0.848221 -1.94728 0
M  V30 517 H 49.2362 0.435081 -0.842264 0
M  V30 518 H 48.9422 2.11669 -2.80872 0
M  V30 519 H 48.8162 3.40467 -1.62365 0
M  V30 520 H 51.2032 2.83771 -0.809817 0
M  V30 521 H 51.2842 1.55784 -2.02891 0
M  V30 522 H 50.9282 3.30607 -3.85566 0
M  V30 523 H 50.8582 4.57519 -2.60737 0
M  V30 524 H 53.3492 3.06466 -2.21105 0
M  V30 525 H 53.6622 5.88078 -5.01382 0
M  V30 526 H 52.0072 5.29326 -4.50377 0
M  V30 527 H 55.1982 3.74624 -2.80668 0
M  V30 528 H 55.3712 5.03056 -4.08459 0
M  V30 529 N 48.7773 0.814389 1.34928 0
M  V30 530 C 49.7273 0.202752 2.27097 0
M  V30 531 C 50.7113 -0.62799 1.48139 0
M  V30 532 O 51.9033 -0.483969 1.70255 0
M  V30 533 C 49.0323 -0.64146 3.37254 0
M  V30 534 C 48.1183 0.19944 4.23631 0
M  V30 535 N 48.5093 1.26628 4.89693 0
M  V30 536 C 46.8073 -0.0176433 4.45997 0
M  V30 537 C 47.5083 1.78031 5.53787 0
M  V30 538 N 46.4843 1.08553 5.32651 0
M  V30 539 H 50.2863 1.01893 2.75672 0
M  V30 540 H 47.8003 0.656332 1.48546 0
M  V30 541 H 49.7973 -1.09575 4.02243 0
M  V30 542 H 48.4573 -1.4559 2.9023 0
M  V30 543 H 49.4683 1.64901 4.90946 0
M  V30 544 H 46.1453 -0.800601 4.09752 0
M  V30 545 H 47.5353 2.67236 6.16469 0
M  V30 546 N 50.2554 -1.46986 0.568584 0
M  V30 547 C 51.1884 -2.27129 -0.220779 0
M  V30 548 C 52.1664 -1.34757 -0.909905 0
M  V30 549 O 53.3504 -1.64152 -0.926622 0
M  V30 550 C 50.4774 -3.12108 -1.31553 0
M  V30 551 C 49.5234 -4.20141 -0.733748 0
M  V30 552 S 50.3564 -5.33783 0.428479 0
M  V30 553 C 51.5124 -6.22327 -0.667811 0
M  V30 554 H 51.7454 -2.93731 0.459267 0
M  V30 555 H 49.2784 -1.5026 0.355154 0
M  V30 556 H 51.2364 -3.61636 -1.94241 0
M  V30 557 H 49.8974 -2.44847 -1.96746 0
M  V30 558 H 49.0904 -4.79373 -1.5562 0
M  V30 559 H 48.6924 -3.73553 -0.182812 0
M  V30 560 H 50.9844 -6.59364 -1.55708 0
M  V30 561 H 51.9274 -7.0801 -0.11258 0
M  V30 562 H 52.3354 -5.5618 -0.965601 0
M  V30 563 N 51.7335 -0.305618 -1.54608 0
M  V30 564 C 53.1445 0.186098 -1.8577 0
M  V30 565 C 53.4955 1.53058 -1.22751 0
M  V30 566 O 52.6205 2.09888 -0.526893 0
M  V30 567 C 53.2155 0.344449 -3.37044 0
M  V30 568 C 51.7745 0.780384 -3.68221 0
M  V30 569 C 50.9215 -0.108554 -2.77087 0
M  V30 570 H 53.8725 -0.526485 -1.49712 0
M  V30 571 H 53.8935 1.17828 -3.61796 0
M  V30 572 H 53.4055 -0.634235 -3.82883 0
M  V30 573 H 51.5065 1.76945 -3.27904 0
M  V30 574 H 51.6195 0.596572 -4.75371 0
M  V30 575 H 49.9835 0.412931 -2.5133 0
M  V30 576 H 50.7665 -1.08368 -3.25747 0
M  V30 577 N 53.2116 1.57565 -0.0334293 0
M  V30 578 C 54.4576 1.93088 0.639417 0
M  V30 579 C 54.8126 0.910589 1.69488 0
M  V30 580 O 54.1056 -0.0727725 1.91462 0
M  V30 581 C 54.2996 3.33112 1.29504 0
M  V30 582 C 54.1286 4.48667 0.304604 0
M  V30 583 C 52.8986 5.05207 -0.0970777 0
M  V30 584 C 55.0966 5.1239 -0.442845 0
M  V30 585 N 53.0786 6.04286 -1.08223 0
M  V30 586 C 54.4496 6.06609 -1.28161 0
M  V30 587 C 56.5046 4.95352 -0.50308 0
M  V30 588 C 55.2076 6.85622 -2.17519 0
M  V30 589 C 57.2336 5.74978 -1.38401 0
M  V30 590 C 56.5956 6.68816 -2.21054 0
M  V30 591 H 52.6946 0.754335 0.206161 0
M  V30 592 H 55.2786 1.94435 -0.101613 0
M  V30 593 H 53.4496 3.32576 2.00618 0
M  V30 594 H 55.1816 3.55972 1.92525 0
M  V30 595 H 51.9366 4.72782 0.278255 0
M  V30 596 H 52.3606 6.58516 -1.57117 0
M  V30 597 H 57.0026 4.22625 0.121694 0
M  V30 598 H 54.7206 7.57652 -2.81049 0
M  V30 599 H 58.3066 5.63826 -1.43496 0
M  V30 600 H 57.1866 7.29355 -2.88116 0
M  V30 601 N 54.6897 -0.239769 1.55765 0
M  V30 602 C 55.6377 -1.31668 1.91745 0
M  V30 603 C 56.6317 -1.49462 0.797338 0
M  V30 604 O 57.8377 -1.50852 0.982021 0
M  V30 605 H 54.2127 -0.441048 0.609082 0
M  V30 606 H 56.1837 -0.985923 2.81642 0
M  V30 607 C 54.9327 -2.66368 2.2348 0
M  V30 608 H 54.2557 -2.53478 3.09175 0
M  V30 609 H 55.6957 -3.40578 2.52553 0
M  V30 610 C 54.1547 -3.20002 1.05359 0
M  V30 611 O 54.6847 -4.00538 0.305261 0
M  V30 612 N 52.8907 -2.78126 0.842292 0
M  V30 613 H 52.4377 -2.12742 1.45253 0
M  V30 614 H 52.3957 -3.14354 0.053652 0
M  V30 615 N 56.1678 -1.49265 -0.50573 0
M  V30 616 C 57.4168 -1.57761 -1.25675 0
M  V30 617 C 57.7298 -0.267371 -1.93764 0
M  V30 618 O 58.9358 -0.230827 -2.70517 0
M  V30 619 C 57.3918 -2.78332 -2.28165 0
M  V30 620 C 56.9998 -4.16096 -1.66037 0
M  V30 621 C 58.7438 -2.96155 -3.04125 0
M  V30 622 C 56.6508 -5.27895 -2.6661 0
M  V30 623 H 55.5808 -0.587391 -0.472745 0
M  V30 624 H 58.2318 -1.75644 -0.53118 0
M  V30 625 H 56.6138 -2.53934 -3.03865 0
M  V30 626 H 57.7878 -4.50612 -0.963622 0
M  V30 627 H 56.1028 -4.03591 -1.02484 0
M  V30 628 H 58.6998 -3.76849 -3.79327 0
M  V30 629 H 59.0428 -2.06534 -3.61455 0
M  V30 630 H 59.5758 -3.2057 -2.35541 0
M  V30 631 H 56.3148 -6.1956 -2.14068 0
M  V30 632 H 55.8348 -4.97839 -3.34539 0
M  V30 633 H 57.5138 -5.57031 -3.29129 0
M  V30 634 N 57.6459 0.756429 -1.3826 0
M  V30 635 C 58.8739 1.54565 -1.3754 0
M  V30 636 C 59.2889 1.88767 0.0355331 0
M  V30 637 O 58.6459 1.52572 1.0014 0
M  V30 638 C 58.6969 2.84654 -2.22833 0
M  V30 639 O 58.4179 2.51912 -3.5843 0
M  V30 640 C 59.9189 3.78807 -2.30261 0
M  V30 641 H 57.1389 0.478353 -0.470553 0
M  V30 642 H 59.6829 0.936381 -1.81803 0
M  V30 643 H 57.8379 3.41965 -1.8204 0
M  V30 644 H 58.2519 3.35325 -4.03308 0
M  V30 645 H 59.7259 4.67045 -2.94233 0
M  V30 646 H 60.2029 4.19038 -1.31545 0
M  V30 647 H 60.8089 3.2742 -2.71433 0
M  V30 648 N 59.124 1.23083 0.984299 0
M  V30 649 C 60.54 0.992637 1.24975 0
M  V30 650 C 60.74 -0.308618 1.99123 0
M  V30 651 O 59.796 -1.02905 2.30579 0
M  V30 652 C 61.109 2.19698 2.05312 0
M  V30 653 C 62.657 2.24147 2.18465 0
M  V30 654 C 63.132 3.44157 3.02192 0
M  V30 655 N 64.623 3.44372 3.09777 0
M  V30 656 C 65.358 4.33886 3.74874 0
M  V30 657 N 64.854 5.3363 4.41827 0
M  V30 658 N 66.647 4.21639 3.71721 0
M  V30 659 H 58.798 2.06731 0.487453 0
M  V30 660 H 61.061 0.906339 0.277944 0
M  V30 661 H 60.767 3.1411 1.58201 0
M  V30 662 H 60.641 2.20465 3.06064 0
M  V30 663 H 63.028 1.30277 2.64786 0
M  V30 664 H 63.109 2.27415 1.17115 0
M  V30 665 H 62.753 4.38332 2.56568 0
M  V30 666 H 62.683 3.3813 4.03702 0
M  V30 667 H 65.174 2.72201 2.62135 0
M  V30 668 H 65.487 5.98196 4.89266 0
M  V30 669 H 63.832 5.37534 4.40548 0
M  V30 670 H 67.023 3.42962 3.18582 0
M  V30 671 H 67.196 4.91604 4.22173 0
M  V30 672 N 60.6021 -1.18246 1.0419 0
M  V30 673 C 61.5351 -2.20746 0.578474 0
M  V30 674 C 62.5131 -1.57912 -0.387624 0
M  V30 675 O 63.6971 -1.86071 -0.301634 0
M  V30 676 C 60.8241 -3.38346 -0.154762 0
M  V30 677 C 59.8701 -4.19587 0.764782 0
M  V30 678 S 60.7031 -4.86014 2.24835 0
M  V30 679 C 61.8591 -6.07012 1.526 0
M  V30 680 H 62.0921 -2.59715 1.44691 0
M  V30 681 H 59.6251 -1.287 0.85297 0
M  V30 682 H 61.5831 -4.065 -0.571641 0
M  V30 683 H 60.2441 -2.97786 -0.999105 0
M  V30 684 H 59.4371 -5.03611 0.197976 0
M  V30 685 H 59.0391 -3.56818 1.12057 0
M  V30 686 H 61.3311 -6.72523 0.819733 0
M  V30 687 H 62.2741 -6.68202 2.34333 0
M  V30 688 H 62.6821 -5.55249 1.01779 0
M  V30 689 N 62.0802 -0.821533 -1.34494 0
M  V30 690 C 63.4912 -0.467956 -1.8074 0
M  V30 691 C 63.8422 1.01151 -1.68116 0
M  V30 692 O 62.9672 1.78707 -1.22036 0
M  V30 693 C 63.5622 -0.842627 -3.28154 0
M  V30 694 C 62.1212 -0.541439 -3.72485 0
M  V30 695 C 61.2682 -1.06028 -2.56229 0
M  V30 696 H 64.2192 -1.01183 -1.22261 0
M  V30 697 H 64.2402 -0.145876 -3.8022 0
M  V30 698 H 63.7522 -1.91945 -3.37311 0
M  V30 699 H 61.8532 0.526034 -3.68868 0
M  V30 700 H 61.9662 -1.08453 -4.66663 0
M  V30 701 H 60.3302 -0.481892 -2.501 0
M  V30 702 H 61.1132 -2.14352 -2.68157 0
M  V30 703 N 63.5583 1.46682 -0.576371 0
M  V30 704 C 64.5063 2.31953 0.17335 0
M  V30 705 C 65.5003 1.44098 0.89062 0
M  V30 706 O 66.7063 1.60759 0.809728 0
M  V30 707 H 63.0813 0.748273 0.0747727 0
M  V30 708 H 65.0523 2.93007 -0.564738 0
M  V30 709 C 63.8013 3.27142 1.17786 0
M  V30 710 H 63.1243 3.94719 0.635361 0
M  V30 711 H 64.5643 3.896 1.67296 0
M  V30 712 C 63.0233 2.52036 2.23561 0
M  V30 713 O 63.5533 2.27877 3.3081 0
M  V30 714 N 61.7593 2.12709 1.97998 0
M  V30 715 H 61.3063 2.32557 1.10792 0
M  V30 716 H 61.2643 1.62776 2.68982 0
M  V30 717 N 65.0364 0.313813 1.54444 0
M  V30 718 C 65.9864 -0.571898 2.20711 0
M  V30 719 C 66.9704 -1.08913 1.18435 0
M  V30 720 O 68.1624 -1.02777 1.44104 0
M  V30 721 C 65.2914 -1.7371 2.96108 0
M  V30 722 C 64.3774 -1.23522 4.05713 0
M  V30 723 N 64.7684 -0.452288 5.03774 0
M  V30 724 C 63.0664 -1.51482 4.19487 0
M  V30 725 C 63.7674 -0.183438 5.81411 0
M  V30 726 N 62.7434 -0.766845 5.38164 0
M  V30 727 H 66.5454 0.0336802 2.93881 0
M  V30 728 H 64.0594 0.119192 1.61962 0
M  V30 729 H 66.0564 -2.38329 3.4206 0
M  V30 730 H 64.7164 -2.34625 2.24458 0
M  V30 731 H 65.7274 -0.0960131 5.17811 0
M  V30 732 H 62.4044 -2.13053 3.59047 0
M  V30 733 H 63.7944 0.446216 6.70417 0
M  V30 734 N 66.5145 -1.57545 0.0417849 0
M  V30 735 C 67.4445 -2.14009 -0.933929 0
M  V30 736 C 68.4255 -1.05938 -1.33083 0
M  V30 737 O 69.6105 -1.33833 -1.40721 0
M  V30 738 C 66.7405 -2.67747 -2.21199 0
M  V30 739 C 65.6945 -3.80718 -1.95544 0
M  V30 740 C 65.0205 -4.20935 -3.29724 0
M  V30 741 C 66.3205 -5.06258 -1.28452 0
M  V30 742 H 68.0145 -2.95788 -0.463645 0
M  V30 743 H 65.5605 -1.42285 -0.221573 0
M  V30 744 H 67.5135 -3.05886 -2.89848 0
M  V30 745 H 66.2375 -1.83147 -2.70416 0
M  V30 746 H 64.8965 -3.43037 -1.2931 0
M  V30 747 H 64.5445 -3.33298 -3.76724 0
M  V30 748 H 64.2445 -4.9707 -3.13361 0
M  V30 749 H 65.7685 -4.61666 -3.9962 0
M  V30 750 H 67.1825 -5.41903 -1.8712 0
M  V30 751 H 65.5795 -5.87475 -1.22445 0
M  V30 752 H 66.6495 -4.84207 -0.259219 0
M  V30 753 N 67.9926 0.231505 -1.5589 0
M  V30 754 C 68.9426 1.29007 -1.87993 0
M  V30 755 C 69.9266 1.42764 -0.742102 0
M  V30 756 O 71.1186 1.45747 -1.00433 0
M  V30 757 C 68.2476 2.6425 -2.1915 0
M  V30 758 C 67.3336 2.54435 -3.39299 0
M  V30 759 N 67.7246 2.14262 -4.58176 0
M  V30 760 C 66.0226 2.85416 -3.42715 0
M  V30 761 C 66.7236 2.15455 -5.40328 0
M  V30 762 N 65.6996 2.55558 -4.79783 0
M  V30 763 H 69.5016 0.970213 -2.77424 0
M  V30 764 H 67.0156 0.440097 -1.56323 0
M  V30 765 H 69.0126 3.40665 -2.40319 0
M  V30 766 H 67.6726 2.9709 -1.31025 0
M  V30 767 H 68.6836 1.85554 -4.83518 0
M  V30 768 H 65.3606 3.22693 -2.64906 0
M  V30 769 H 66.7506 1.86605 -6.45467 0
M  V30 770 N 69.4707 1.49531 0.497807 0
M  V30 771 C 70.4207 1.62829 1.59596 0
M  V30 772 C 71.4047 0.483824 1.53453 0
M  V30 773 O 72.5967 0.736937 1.60929 0
M  V30 774 C 69.7257 1.7011 2.98191 0
M  V30 775 C 68.8117 2.90144 3.09317 0
M  V30 776 N 69.2027 4.1418 2.90324 0
M  V30 777 C 67.5007 2.88148 3.40422 0
M  V30 778 C 68.2017 4.94886 3.05717 0
M  V30 779 N 67.1777 4.28314 3.34736 0
M  V30 780 H 70.9797 2.56446 1.4357 0
M  V30 781 H 68.4937 1.46347 0.704001 0
M  V30 782 H 70.4907 1.77735 3.77115 0
M  V30 783 H 69.1507 0.776315 3.15283 0
M  V30 784 H 70.1617 4.44109 2.66436 0
M  V30 785 H 66.8387 2.05061 3.63671 0
M  V30 786 H 68.2287 6.03432 2.95499 0
M  V30 787 N 70.9488 -0.749086 1.3866 0
M  V30 788 C 72.1738 -1.54344 1.38538 0
M  V30 789 C 72.5988 -1.88088 -0.0216655 0
M  V30 790 O 71.9568 -1.50899 -1.00494 0
M  V30 791 C 72.0048 -2.8164 2.25192 0
M  V30 792 O 71.1088 -3.7698 1.67212 0
M  V30 793 H 70.4498 -0.466654 0.472367 0
M  V30 794 H 72.9798 -0.925355 1.82478 0
M  V30 795 H 72.9898 -3.30519 2.3921 0
M  V30 796 H 71.6648 -2.56411 3.27454 0
M  V30 797 H 70.2418 -3.35699 1.6236 0
M  V30 798 N 72.4269 -1.23603 -0.977757 0
M  V30 799 C 73.6549 -1.09646 -1.75458 0
M  V30 800 C 74.0699 0.351859 -1.85492 0
M  V30 801 O 73.4269 1.24327 -1.336 0
M  V30 802 C 73.4779 -1.71895 -3.18016 0
M  V30 803 O 73.1989 -3.11063 -3.08498 0
M  V30 804 C 74.6999 -1.63415 -4.12081 0
M  V30 805 H 71.9199 -0.38359 -0.550545 0
M  V30 806 H 74.4639 -1.63507 -1.22824 0
M  V30 807 H 72.6189 -1.22061 -3.67668 0
M  V30 808 H 73.0329 -3.41305 -3.9826 0
M  V30 809 H 74.5069 -2.11669 -5.09804 0
M  V30 810 H 74.9839 -0.593462 -4.35172 0
M  V30 811 H 75.5899 -2.12628 -3.68334 0
M  V30 812 N 73.905 1.17692 -1.04816 0
M  V30 813 C 74.837 2.21103 -0.603822 0
M  V30 814 C 75.85 1.59411 0.33046 0
M  V30 815 O 77.039 1.7807 0.12379 0
M  V30 816 C 74.139 3.38623 0.136898 0
M  V30 817 C 73.312 4.29888 -0.807137 0
M  V30 818 C 72.371 5.26088 -0.10836 0
M  V30 819 O 71.397 5.64353 -0.741232 0
M  V30 820 N 72.599 5.68882 1.15558 0
M  V30 821 H 75.364 2.59848 -1.49329 0
M  V30 822 H 72.925 1.32553 -0.929587 0
M  V30 823 H 74.917 4.00009 0.614401 0
M  V30 824 H 73.487 2.98508 0.927993 0
M  V30 825 H 72.707 3.65993 -1.46434 0
M  V30 826 H 73.995 4.87759 -1.44807 0
M  V30 827 H 73.393 5.39861 1.69015 0
M  V30 828 H 71.95 6.32429 1.57722 0
M  V30 829 N 75.3831 0.828654 1.34056 0
M  V30 830 C 76.2931 0.256725 2.33191 0
M  V30 831 C 77.3091 -0.611898 1.62886 0
M  V30 832 O 78.4851 -0.51844 1.94613 0
M  V30 833 C 75.5501 -0.567238 3.42028 0
M  V30 834 C 74.6111 0.324458 4.28072 0
M  V30 835 C 73.8441 -0.460274 5.31712 0
M  V30 836 O 74.0671 -1.693 5.44696 0
M  V30 837 O 73.0011 0.160391 6.01686 0
M  V30 838 H 76.8271 1.07739 2.83947 0
M  V30 839 H 74.4121 0.59093 1.37217 0
M  V30 840 H 76.2941 -1.03582 4.08471 0
M  V30 841 H 74.9691 -1.36513 2.93506 0
M  V30 842 H 73.8761 0.840659 3.64532 0
M  V30 843 H 75.2091 1.08685 4.8005 0
M  V30 844 N 76.8612 -1.46375 0.584142 0
M  V30 845 C 77.8092 -2.32042 -0.161047 0
M  V30 846 C 78.8032 -1.44569 -0.882966 0
M  V30 847 O 80.0092 -1.61186 -0.801191 0
M  V30 848 H 76.3842 -0.748659 -0.0708033 0
M  V30 849 H 78.3552 -2.92704 0.580269 0
M  V30 850 C 77.1042 -3.27762 -1.1605 0
M  V30 851 H 76.4272 -3.95051 -0.614419 0
M  V30 852 H 77.8672 -3.90481 -1.65228 0
M  V30 853 C 76.3262 -2.53218 -2.22221 0
M  V30 854 O 76.8562 -2.29628 -3.29597 0
M  V30 855 N 75.0622 -2.13756 -1.96868 0
M  V30 856 H 74.6092 -2.33142 -1.09557 0
M  V30 857 H 74.5672 -1.642 -2.68115 0
M  V30 858 N 78.3393 -0.321999 -1.54275 0
M  V30 859 C 79.3023 0.531975 -2.22941 0
M  V30 860 C 80.3023 1.04478 -1.22234 0
M  V30 861 O 81.4923 0.937452 -1.46825 0
M  V30 862 C 78.6243 1.73874 -2.93224 0
M  V30 863 H 79.8173 -0.0682612 -2.99822 0
M  V30 864 H 77.3703 -0.0730644 -1.56129 0
M  V30 865 H 78.1053 2.37825 -2.20476 0
M  V30 866 H 77.8903 1.37847 -3.6707 0
M  V30 867 H 79.3803 2.34496 -3.45545 0
M  V30 868 N 79.8174 1.5752 -0.0501392 0
M  V30 869 C 81.0664 1.91827 0.623328 0
M  V30 870 C 81.3794 0.930222 1.72065 0
M  V30 871 O 82.5854 1.1653 2.4522 0
M  V30 872 C 81.0414 3.40692 1.16003 0
M  V30 873 C 80.6494 4.479 0.0948811 0
M  V30 874 C 82.3934 3.84034 1.80881 0
M  V30 875 C 80.3004 5.87879 0.644411 0
M  V30 876 H 79.2304 0.715918 0.236596 0
M  V30 877 H 81.8814 1.83115 -0.118861 0
M  V30 878 H 80.2634 3.44405 1.9545 0
M  V30 879 H 81.4374 4.55775 -0.678675 0
M  V30 880 H 79.7524 4.13892 -0.45637 0
M  V30 881 H 82.3494 4.85984 2.22988 0
M  V30 882 H 82.6924 3.20225 2.6601 0
M  V30 883 H 83.2254 3.82833 1.0809 0
M  V30 884 H 79.9644 6.55282 -0.169229 0
M  V30 885 H 79.4844 5.83567 1.38598 0
M  V30 886 H 81.1634 6.37098 1.12763 0
M  V30 887 N 81.2955 -0.223234 1.56011 0
M  V30 888 C 82.2255 -1.27988 1.95298 0
M  V30 889 C 83.2065 -1.48976 0.820979 0
M  V30 890 O 84.3915 -1.61188 1.08315 0
M  V30 891 C 81.5215 -2.63 2.26822 0
M  V30 892 C 80.4755 -2.56671 3.42497 0
M  V30 893 C 79.8015 -3.95697 3.59622 0
M  V30 894 C 81.1015 -2.11601 4.77517 0
M  V30 895 H 82.7955 -0.953525 2.8381 0
M  V30 896 H 80.3415 -0.457244 1.36548 0
M  V30 897 H 82.2945 -3.37077 2.52898 0
M  V30 898 H 81.0185 -2.9732 1.35161 0
M  V30 899 H 79.6775 -1.85051 3.16467 0
M  V30 900 H 79.3255 -4.27322 2.6534 0
M  V30 901 H 79.0255 -3.92345 4.37424 0
M  V30 902 H 80.5495 -4.71438 3.88044 0
M  V30 903 H 81.9635 -2.7542 5.02809 0
M  V30 904 H 80.3605 -2.19311 5.5859 0
M  V30 905 H 81.4305 -1.06824 4.72987 0
M  V30 906 N 82.7736 -1.49793 -0.48987 0
M  V30 907 C 83.7366 -1.66752 -1.57246 0
M  V30 908 C 84.7366 -0.538867 -1.51502 0
M  V30 909 O 85.9266 -0.805545 -1.54456 0
M  V30 910 C 83.0586 -1.67528 -2.96896 0
M  V30 911 H 84.2516 -2.63321 -1.43534 0
M  V30 912 H 81.8046 -1.38992 -0.714914 0
M  V30 913 H 82.5396 -0.725837 -3.16073 0
M  V30 914 H 82.3246 -2.49504 -3.02473 0
M  V30 915 H 83.8146 -1.82667 -3.7553 0
M  V30 916 N 84.2517 0.741722 -1.39055 0
M  V30 917 C 85.5007 1.49656 -1.35225 0
M  V30 918 C 85.8137 1.95533 0.0512708 0
M  V30 919 O 87.0197 2.7067 0.212138 0
M  V30 920 C 85.4757 2.70389 -2.37525 0
M  V30 921 C 85.0837 2.31489 -3.83558 0
M  V30 922 C 86.8277 3.48236 -2.42759 0
M  V30 923 C 84.7347 3.48903 -4.77515 0
M  V30 924 H 83.6647 0.56197 -0.502699 0
M  V30 925 H 86.3157 0.809727 -1.64668 0
M  V30 926 H 84.6977 3.41113 -2.01142 0
M  V30 927 H 85.8717 1.68354 -4.28945 0
M  V30 928 H 84.1867 1.66749 -3.81554 0
M  V30 929 H 86.7837 4.35558 -3.1015 0
M  V30 930 H 87.1267 3.90229 -1.45008 0
M  V30 931 H 87.6597 2.84535 -2.78002 0
M  V30 932 H 84.3987 3.11966 -5.76504 0
M  V30 933 H 83.9187 4.11041 -4.36813 0
M  V30 934 H 85.5977 4.15328 -4.96096 0
M  V30 935 N 85.7298 1.2412 0.971189 0
M  V30 936 C 86.6398 1.04747 2.09917 0
M  V30 937 C 87.6558 -0.0107162 1.73997 0
M  V30 938 O 88.8318 0.186714 2.00533 0
M  V30 939 C 85.8968 0.650828 3.40537 0
M  V30 940 C 84.9578 1.7851 3.90426 0
M  V30 941 C 84.1908 1.40729 5.14812 0
M  V30 942 O 84.4138 0.29557 5.69634 0
M  V30 943 O 83.3478 2.23168 5.58999 0
M  V30 944 H 87.1738 1.99304 2.29154 0
M  V30 945 H 84.7588 1.02908 1.08307 0
M  V30 946 H 86.6408 0.440992 4.19086 0
M  V30 947 H 85.3158 -0.265649 3.22608 0
M  V30 948 H 84.2228 2.04966 3.12953 0
M  V30 949 H 85.5558 2.68023 4.12825 0
M  V30 950 N 87.2079 -1.17134 1.05439 0
M  V30 951 C 88.1399 -2.2078 0.615539 0
M  V30 952 C 89.1529 -1.59584 -0.322001 0
M  V30 953 O 90.3419 -1.78133 -0.114344 0
M  V30 954 C 87.4419 -3.38691 -0.118938 0
M  V30 955 C 86.6149 -4.29454 0.829924 0
M  V30 956 C 85.6739 -5.26024 0.136258 0
M  V30 957 O 84.6999 -5.63952 0.77115 0
M  V30 958 N 85.9019 -5.69487 -1.1254 0
M  V30 959 H 88.6669 -2.59052 1.50705 0
M  V30 960 H 86.2279 -1.32058 0.936603 0
M  V30 961 H 88.2199 -4.00329 -0.593179 0
M  V30 962 H 86.7899 -2.98996 -0.91215 0
M  V30 963 H 86.0099 -3.65211 1.48373 0
M  V30 964 H 87.2979 -4.86984 1.47392 0
M  V30 965 H 86.6959 -5.4075 -1.6615 0
M  V30 966 H 85.2529 -6.33257 -1.54366 0
M  V30 967 N 88.686 -0.835752 -1.33615 0
M  V30 968 C 89.916 -0.442701 -2.01801 0
M  V30 969 C 90.324 0.959807 -1.63047 0
M  V30 970 O 89.667 1.63468 -0.838088 0
M  V30 971 C 89.729 -0.480125 -3.56279 0
M  V30 972 C 89.393 -1.8382 -4.18401 0
M  V30 973 C 90.39 -2.80097 -4.37998 0
M  V30 974 C 88.075 -2.13019 -4.54894 0
M  V30 975 C 90.069 -4.03736 -4.9323 0
M  V30 976 C 87.756 -3.36916 -5.09834 0
M  V30 977 C 88.754 -4.32091 -5.28948 0
M  V30 978 O 88.442 -5.53797 -5.82721 0
M  V30 979 H 88.174 -0.17441 -0.653114 0
M  V30 980 H 90.728 -1.129 -1.71589 0
M  V30 981 H 88.958 0.262931 -3.85805 0
M  V30 982 H 90.647 -0.105335 -4.05763 0
M  V30 983 H 91.413 -2.58838 -4.10156 0
M  V30 984 H 87.292 -1.39733 -4.39313 0
M  V30 985 H 90.836 -4.78034 -5.08064 0
M  V30 986 H 86.733 -3.58033 -5.37106 0
M  V30 987 H 87.501 -5.55494 -6.0114 0
M  V30 988 N 90.1641 1.46063 -0.591896 0
M  V30 989 C 91.0741 2.34192 0.13831 0
M  V30 990 C 92.0901 1.50305 0.876608 0
M  V30 991 O 93.2661 1.8315 0.837728 0
M  V30 992 C 90.3311 3.27656 1.13326 0
M  V30 993 C 89.3921 4.27445 0.39863 0
M  V30 994 C 88.6251 5.16443 1.34618 0
M  V30 995 O 88.8481 5.08553 2.58321 0
M  V30 996 O 87.7821 5.95843 0.851768 0
M  V30 997 H 91.6081 2.98002 -0.58552 0
M  V30 998 H 89.1931 1.45188 -0.352239 0
M  V30 999 H 91.0751 3.85291 1.70671 0
M  V30 1000 H 89.7501 2.6643 1.83839 0
M  V30 1001 H 88.6571 3.73471 -0.216895 0
M  V30 1002 H 89.9901 4.91482 -0.265709 0
M  V30 1003 N 91.6422 0.330177 1.54103 0
M  V30 1004 C 92.5522 -0.541534 2.28264 0
M  V30 1005 C 93.5682 -1.12351 1.32866 0
M  V30 1006 O 94.7442 -1.14206 1.65888 0
M  V30 1007 C 91.8092 -1.68322 3.03098 0
M  V30 1008 C 90.8702 -1.13238 4.14096 0
M  V30 1009 C 90.1032 -2.21966 4.85352 0
M  V30 1010 O 90.3262 -3.42437 4.56172 0
M  V30 1011 O 89.2602 -1.87013 5.7211 0
M  V30 1012 H 93.0862 0.060938 3.03639 0
M  V30 1013 H 90.6712 0.09565 1.49093 0
M  V30 1014 H 92.5532 -2.34777 3.49939 0
M  V30 1015 H 91.2282 -2.27176 2.30593 0
M  V30 1016 H 90.1352 -0.432736 3.71589 0
M  V30 1017 H 91.4682 -0.588898 4.88664 0
M  V30 1018 N 93.1203 -1.57491 0.0584922 0
M  V30 1019 C 94.0503 -2.14988 -0.911178 0
M  V30 1020 C 95.0313 -1.07343 -1.31952 0
M  V30 1021 O 96.2163 -1.35318 -1.39294 0
M  V30 1022 C 93.3463 -2.70078 -2.18347 0
M  V30 1023 C 92.3003 -3.82771 -1.91495 0
M  V30 1024 C 91.6263 -4.24408 -3.25241 0
M  V30 1025 C 92.9263 -5.07592 -1.23075 0
M  V30 1026 H 94.6203 -2.96263 -0.432246 0
M  V30 1027 H 92.1663 -1.42512 -0.206469 0
M  V30 1028 H 94.1193 -3.08943 -2.86587 0
M  V30 1029 H 92.8433 -1.86005 -2.68458 0
M  V30 1030 H 91.5023 -3.44389 -1.25664 0
M  V30 1031 H 91.1503 -3.37275 -3.73168 0
M  V30 1032 H 90.8503 -5.00366 -3.08071 0
M  V30 1033 H 92.3743 -4.65879 -3.94701 0
M  V30 1034 H 93.7883 -5.43857 -1.81362 0
M  V30 1035 H 92.1853 -5.88741 -1.16207 0
M  V30 1036 H 93.2553 -4.84454 -0.207847 0
M  V30 1037 N 94.5984 0.214957 -1.56127 0
M  V30 1038 C 95.8444 0.939762 -1.79712 0
M  V30 1039 C 96.1774 1.83723 -0.629247 0
M  V30 1040 O 95.4524 1.90925 0.371197 0
M  V30 1041 C 95.7354 1.77306 -3.13424 0
M  V30 1042 C 95.5884 0.90164 -4.40671 0
M  V30 1043 C 96.9074 2.74956 -3.43638 0
M  V30 1044 H 94.0264 0.340214 -0.653776 0
M  V30 1045 H 96.6684 0.20824 -1.88855 0
M  V30 1046 H 94.8184 2.39673 -3.0576 0
M  V30 1047 H 96.4904 0.294206 -4.60361 0
M  V30 1048 H 94.7334 0.207368 -4.33304 0
M  V30 1049 H 95.4044 1.51923 -5.30682 0
M  V30 1050 H 97.8804 2.22724 -3.51473 0
M  V30 1051 H 96.7564 3.30358 -4.38355 0
M  V30 1052 H 97.0174 3.53023 -2.66134 0
M  V30 1053 N 96.0765 1.50051 0.48192 0
M  V30 1054 C 97.3535 1.51009 1.2432 0
M  V30 1055 C 97.7335 0.248587 2.09631 0
M  V30 1056 O 97.0815 -0.768409 2.15192 0
M  V30 1057 C 97.2915 2.79981 2.08355 0
M  V30 1058 C 98.6395 3.3022 2.66908 0
M  V30 1059 O 99.6635 2.81228 2.18607 0
M  V30 1060 O 98.5225 4.15595 3.54884 0
M  V30 1061 H 95.6165 0.605239 0.563573 0
M  V30 1062 H 98.1625 1.62332 0.494627 0
M  V30 1063 H 96.9345 3.63275 1.45419 0
M  V30 1064 H 96.5575 2.7161 2.90368 0
M  V30 1065 N 97.5546 -0.734337 1.39446 0
M  V30 1066 C 98.8006 -1.49613 1.36908 0
M  V30 1067 C 99.1336 -1.94169 -0.0347829 0
M  V30 1068 O 98.4086 -1.66833 -0.999847 0
M  V30 1069 C 98.6916 -2.73534 2.34203 0
M  V30 1070 C 98.5446 -2.34993 3.83534 0
M  V30 1071 C 99.8636 -3.75635 2.29317 0
M  V30 1072 H 96.9826 -0.542714 0.498629 0
M  V30 1073 H 99.6246 -0.839597 1.70443 0
M  V30 1074 H 97.7746 -3.29553 2.05736 0
M  V30 1075 H 99.4466 -1.84601 4.22753 0
M  V30 1076 H 97.6896 -1.67213 4.00278 0
M  V30 1077 H 98.3606 -3.23738 4.47099 0
M  V30 1078 H 100.837 -3.29203 2.54489 0
M  V30 1079 H 99.7126 -4.60008 2.99472 0
M  V30 1080 H 99.9736 -4.22603 1.29842 0
M  V30 1081 N 99.0327 -1.24633 -0.964593 0
M  V30 1082 C 99.9807 -1.03917 -2.08096 0
M  V30 1083 C 100.975 0.0268581 -1.69379 0
M  V30 1084 O 102.181 -0.127952 -1.79545 0
M  V30 1085 H 98.5557 -0.319044 -0.680966 0
M  V30 1086 H 100.527 -1.98581 -2.22729 0
M  V30 1087 C 99.2757 -0.663983 -3.41301 0
M  V30 1088 H 98.5987 -1.47605 -3.71555 0
M  V30 1089 H 100.039 -0.558663 -4.20303 0
M  V30 1090 C 98.4977 0.629169 -3.30973 0
M  V30 1091 O 99.0277 1.67404 -3.65156 0
M  V30 1092 N 97.2337 0.611057 -2.84103 0
M  V30 1093 H 96.7807 -0.239593 -2.56483 0
M  V30 1094 H 96.7387 1.47647 -2.77575 0
M  V30 1095 N 100.511 1.16574 -1.06058 0
M  V30 1096 C 101.751 1.88723 -0.78504 0
M  V30 1097 C 102.115 1.79706 0.676006 0
M  V30 1098 O 103.316 2.46757 1.06603 0
M  V30 1099 C 101.587 3.34338 -1.26304 0
M  V30 1100 S 103.146 4.24366 -1.1162 0
M  V30 1101 H 99.9638 0.651448 -0.284846 0
M  V30 1102 H 102.566 1.40732 -1.35701 0
M  V30 1103 H 101.27 3.38439 -2.32136 0
M  V30 1104 H 100.801 3.87378 -0.685719 0
M  V30 1105 H 102.816 4.96179 -0.0456539 0
M  V30 1106 N 101.989 0.842826 1.3317 0
M  V30 1107 C 103.214 0.453129 2.02389 0
M  V30 1108 C 103.639 -0.939105 1.6298 0
M  V30 1109 O 102.997 -1.61472 0.8244 0
M  V30 1110 C 103.045 0.586094 3.55805 0
M  V30 1111 O 102.149 -0.386029 4.10589 0
M  V30 1112 H 101.49 0.183664 0.638094 0
M  V30 1113 H 104.02 1.13875 1.69981 0
M  V30 1114 H 104.03 0.469209 4.05293 0
M  V30 1115 H 102.705 1.6014 3.83833 0
M  V30 1116 H 101.282 -0.226371 3.72212 0
M  V30 1117 N 103.467 -1.45747 0.599634 0
M  V30 1118 C 104.43 -2.28917 -0.113835 0
M  V30 1119 C 105.43 -1.3933 -0.802729 0
M  V30 1120 O 106.62 -1.61534 -0.652103 0
M  V30 1121 C 103.752 -3.20152 -1.17114 0
M  V30 1122 H 104.945 -2.93478 0.617289 0
M  V30 1123 H 102.498 -1.52137 0.358327 0
M  V30 1124 H 103.233 -2.60374 -1.93329 0
M  V30 1125 H 103.018 -3.86133 -0.681468 0
M  V30 1126 H 104.508 -3.82708 -1.67105 0
M  V30 1127 N 104.945 -0.338344 -1.53925 0
M  V30 1128 C 106.191 0.260143 -2.01125 0
M  V30 1129 C 106.524 1.50617 -1.22589 0
M  V30 1130 O 105.799 1.91979 -0.312113 0
M  V30 1131 C 106.082 0.579499 -3.55407 0
M  V30 1132 C 105.935 -0.678264 -4.44657 0
M  V30 1133 C 107.254 1.39122 -4.17532 0
M  V30 1134 H 104.373 0.0930772 -0.731099 0
M  V30 1135 H 107.015 -0.457852 -1.84401 0
M  V30 1136 H 105.165 1.19118 -3.69788 0
M  V30 1137 H 106.837 -1.31631 -4.42121 0
M  V30 1138 H 105.08 -1.3042 -4.13731 0
M  V30 1139 H 105.751 -0.410143 -5.50474 0
M  V30 1140 H 108.227 0.874035 -4.06817 0
M  V30 1141 H 107.103 1.58342 -5.25565 0
M  V30 1142 H 107.364 2.39178 -3.71815 0
M  V30 1143 N 106.423 1.57458 -0.0668435 0
M  V30 1144 C 107.353 2.15468 0.899764 0
M  V30 1145 C 108.334 1.08042 1.31381 0
M  V30 1146 O 109.519 1.36054 1.38574 0
M  V30 1147 C 106.649 2.71232 2.16911 0
M  V30 1148 C 105.603 3.83781 1.89463 0
M  V30 1149 C 104.929 4.26127 3.22986 0
M  V30 1150 C 106.229 5.08238 1.20381 0
M  V30 1151 H 107.923 2.96488 0.416529 0
M  V30 1152 H 105.469 1.4262 0.198908 0
M  V30 1153 H 107.422 3.10458 2.84945 0
M  V30 1154 H 106.146 1.87426 2.67468 0
M  V30 1155 H 104.805 3.45051 1.23836 0
M  V30 1156 H 104.453 3.39249 3.71374 0
M  V30 1157 H 104.153 5.01993 3.05413 0
M  V30 1158 H 105.677 4.67966 3.92225 0
M  V30 1159 H 107.091 5.44811 1.78475 0
M  V30 1160 H 105.488 5.89349 1.13083 0
M  V30 1161 H 106.558 4.84558 0.182153 0
M  V30 1162 N 107.901 -0.206675 1.56239 0
M  V30 1163 C 109.317 -0.557025 1.49564 0
M  V30 1164 C 109.517 -1.86424 0.764735 0
M  V30 1165 O 108.573 -2.50584 0.310491 0
M  V30 1166 C 109.886 -0.622478 2.94186 0
M  V30 1167 C 111.434 -0.712099 3.04792 0
M  V30 1168 C 111.909 -0.808767 4.50803 0
M  V30 1169 N 113.4 -0.8726 4.54907 0
M  V30 1170 C 114.135 -0.967365 5.65181 0
M  V30 1171 N 113.631 -1.02515 6.85173 0
M  V30 1172 N 115.424 -1.00366 5.53067 0
M  V30 1173 H 107.575 0.650943 2.02179 0
M  V30 1174 H 109.838 0.230387 0.919579 0
M  V30 1175 H 109.544 0.268727 3.50672 0
M  V30 1176 H 109.418 -1.4811 3.46905 0
M  V30 1177 H 111.805 -1.59374 2.48363 0
M  V30 1178 H 111.886 0.172489 2.55218 0
M  V30 1179 H 111.53 0.0684754 5.07854 0
M  V30 1180 H 111.46 -1.70899 4.98098 0
M  V30 1181 H 113.951 -0.837657 3.68499 0
M  V30 1182 H 114.264 -1.09765 7.64965 0
M  V30 1183 H 112.609 -0.994026 6.87855 0
M  V30 1184 H 115.8 -0.95527 4.58249 0
M  V30 1185 H 115.973 -1.07405 6.39037 0
M  V30 1186 N 109.379 -1.50304 -0.473955 0
M  V30 1187 C 110.626 -1.6115 -1.22625 0
M  V30 1188 C 110.954 -0.310517 -1.92005 0
M  V30 1189 O 110.209 0.703419 -1.82621 0
M  V30 1190 C 110.508 -2.73938 -2.29549 0
M  V30 1191 C 110.174 -4.14519 -1.7744 0
M  V30 1192 C 108.836 -4.5277 -1.62949 0
M  V30 1193 C 111.188 -5.02392 -1.3875 0
M  V30 1194 C 108.516 -5.76639 -1.08187 0
M  V30 1195 C 110.868 -6.26805 -0.854309 0
M  V30 1196 C 109.532 -6.63861 -0.696011 0
M  V30 1197 H 108.802 -0.589691 -0.448715 0
M  V30 1198 H 111.449 -1.84228 -0.522705 0
M  V30 1199 H 109.754 -2.44937 -3.05799 0
M  V30 1200 H 111.451 -2.79534 -2.87509 0
M  V30 1201 H 108.041 -3.8434 -1.89685 0
M  V30 1202 H 112.225 -4.73474 -1.4878 0
M  V30 1203 H 107.481 -6.04027 -0.946666 0
M  V30 1204 H 111.655 -6.94258 -0.545843 0
M  V30 1205 H 109.282 -7.59722 -0.26952 0
M  V30 1206 N 110.857 0.726932 -1.39834 0
M  V30 1207 C 112.104 1.48664 -1.37496 0
M  V30 1208 C 112.432 1.94482 0.0264678 0
M  V30 1209 O 111.687 1.67692 1.00886 0
M  V30 1210 C 111.986 2.73495 -2.30077 0
M  V30 1211 C 111.652 2.46502 -3.77555 0
M  V30 1212 C 110.314 2.3885 -4.17737 0
M  V30 1213 C 112.666 2.23604 -4.70798 0
M  V30 1214 C 109.994 2.06352 -5.49214 0
M  V30 1215 C 112.346 1.92622 -6.02561 0
M  V30 1216 C 111.01 1.83444 -6.41798 0
M  V30 1217 H 110.28 0.544001 -0.503135 0
M  V30 1218 H 112.927 0.833657 -1.72402 0
M  V30 1219 H 111.232 3.43575 -1.88317 0
M  V30 1220 H 112.929 3.31549 -2.25558 0
M  V30 1221 H 109.519 2.5334 -3.45712 0
M  V30 1222 H 113.703 2.28479 -4.40581 0
M  V30 1223 H 108.959 1.97776 -5.78528 0
M  V30 1224 H 113.133 1.73914 -6.74334 0
M  V30 1225 H 110.76 1.58029 -7.43593 0
M  V30 1226 N 112.336 1.25143 0.95797 0
M  V30 1227 C 113.266 1.07711 2.07173 0
M  V30 1228 C 114.247 -0.0128462 1.70095 0
M  V30 1229 O 115.432 0.156061 1.93572 0
M  V30 1230 C 112.562 0.691503 3.40346 0
M  V30 1231 C 111.516 1.73132 3.9142 0
M  V30 1232 C 110.842 1.20049 5.21049 0
M  V30 1233 C 112.142 3.1294 4.1817 0
M  V30 1234 H 113.836 2.00873 2.22014 0
M  V30 1235 H 111.382 0.967191 1.06684 0
M  V30 1236 H 113.335 0.556505 4.17709 0
M  V30 1237 H 112.059 -0.275819 3.25433 0
M  V30 1238 H 110.718 1.8547 3.16222 0
M  V30 1239 H 110.366 0.223499 5.02503 0
M  V30 1240 H 110.066 1.89545 5.56189 0
M  V30 1241 H 111.59 1.07782 6.01012 0
M  V30 1242 H 113.004 3.03775 4.86203 0
M  V30 1243 H 111.401 3.79875 4.64559 0
M  V30 1244 H 112.471 3.6025 3.24573 0
M  V30 1245 N 113.814 -1.1601 1.06675 0
M  V30 1246 C 115.054 -1.88304 0.795037 0
M  V30 1247 C 115.418 -1.80062 -0.666466 0
M  V30 1248 O 116.619 -2.47319 -1.05293 0
M  V30 1249 C 114.89 -3.33664 1.28076 0
M  V30 1250 S 116.449 -4.23768 1.13868 0
M  V30 1251 H 113.267 -0.649928 0.288296 0
M  V30 1252 H 115.869 -1.4001 1.36445 0
M  V30 1253 H 114.573 -3.37203 2.33927 0
M  V30 1254 H 114.104 -3.87009 0.706253 0
M  V30 1255 H 116.119 -4.96148 0.0719668 0
M  V30 1256 N 115.292 -0.849877 -1.32721 0
M  V30 1257 C 116.255 -0.296122 -2.27279 0
M  V30 1258 C 117.255 0.541458 -1.5141 0
M  V30 1259 O 118.445 0.353658 -1.70572 0
M  V30 1260 C 115.577 0.581579 -3.35902 0
M  V30 1261 H 116.77 -1.13064 -2.77771 0
M  V30 1262 H 114.323 -0.62383 -1.43311 0
M  V30 1263 H 115.058 1.43809 -2.9067 0
M  V30 1264 H 114.843 -0.0178814 -3.92096 0
M  V30 1265 H 116.333 0.961951 -4.0637 0
M  V30 1266 N 116.77 1.45427 -0.607355 0
M  V30 1267 C 117.703 2.27635 0.160482 0
M  V30 1268 C 118.681 1.37122 0.873857 0
M  V30 1269 O 119.865 1.66551 0.882775 0
M  V30 1270 C 116.992 3.15486 1.23231 0
M  V30 1271 C 116.038 4.21939 0.622097 0
M  V30 1272 S 116.871 5.32459 -0.569852 0
M  V30 1273 C 118.027 6.23879 0.502577 0
M  V30 1274 H 118.26 2.9241 -0.536983 0
M  V30 1275 H 115.793 1.49265 -0.394868 0
M  V30 1276 H 117.751 3.66659 1.84585 0
M  V30 1277 H 116.412 2.49977 1.90185 0
M  V30 1278 H 115.605 4.8333 1.42856 0
M  V30 1279 H 115.207 3.73906 0.0837063 0
M  V30 1280 H 117.499 6.63261 1.38171 0
M  V30 1281 H 118.442 7.0806 -0.0751759 0
M  V30 1282 H 118.85 5.58545 0.8178 0
M  V30 1283 N 118.248 0.346503 1.53744 0
M  V30 1284 C 119.478 -0.250047 2.05081 0
M  V30 1285 C 119.886 -1.44529 1.22098 0
M  V30 1286 O 119.229 -1.81992 0.249917 0
M  V30 1287 C 119.291 -0.725934 3.52094 0
M  V30 1288 C 118.955 0.350053 4.55657 0
M  V30 1289 C 119.952 1.19372 5.0601 0
M  V30 1290 C 117.637 0.504827 4.99757 0
M  V30 1291 C 119.631 2.17768 5.99046 0
M  V30 1292 C 117.318 1.49218 5.92602 0
M  V30 1293 C 118.316 2.32706 6.42135 0
M  V30 1294 O 118.004 3.2976 7.33153 0
M  V30 1295 H 117.736 -0.0515469 0.674032 0
M  V30 1296 H 120.29 0.497559 1.99282 0
M  V30 1297 H 118.52 -1.52483 3.55367 0
M  V30 1298 H 120.209 -1.24336 3.86388 0
M  V30 1299 H 120.975 1.08525 4.72702 0
M  V30 1300 H 116.854 -0.135178 4.60802 0
M  V30 1301 H 120.398 2.82971 6.37631 0
M  V30 1302 H 116.295 1.6012 6.25325 0
M  V30 1303 H 117.063 3.25265 7.51096 0
M  V30 1304 N 119.726 -1.57421 0.075193 0
M  V30 1305 C 120.689 -2.11791 -0.876203 0
M  V30 1306 C 121.689 -1.04268 -1.22412 0
M  V30 1307 O 122.879 -1.30242 -1.15684 0
M  V30 1308 C 120.011 -2.62207 -2.17854 0
M  V30 1309 H 121.204 -2.9716 -0.40444 0
M  V30 1310 H 118.757 -1.55333 -0.173557 0
M  V30 1311 H 119.492 -1.803 -2.6956 0
M  V30 1312 H 119.277 -3.40802 -1.93897 0
M  V30 1313 H 120.767 -3.04335 -2.85955 0
M  V30 1314 N 121.204 0.198386 -1.56346 0
M  V30 1315 C 122.615 0.763358 -1.70381 0
M  V30 1316 C 122.966 1.83995 -0.681203 0
M  V30 1317 O 122.091 2.15785 0.16305 0
M  V30 1318 C 122.686 1.39143 -3.08909 0
M  V30 1319 C 121.245 1.90352 -3.2472 0
M  V30 1320 C 120.392 0.772233 -2.6633 0
M  V30 1321 H 123.343 -0.0266377 -1.58678 0
M  V30 1322 H 123.364 2.26076 -3.06055 0
M  V30 1323 H 122.876 0.607638 -3.83314 0
M  V30 1324 H 120.977 2.71461 -2.55225 0
M  V30 1325 H 121.09 2.06757 -4.3219 0
M  V30 1326 H 119.454 1.18566 -2.2542 0
M  V30 1327 H 120.237 0.00073556 -3.433 0
M  V30 1328 N 122.682 1.50554 0.465978 0
M  V30 1329 C 123.931 1.61038 1.21448 0
M  V30 1330 C 124.244 0.31865 1.92987 0
M  V30 1331 O 125.45 0.302469 2.6981 0
M  V30 1332 C 123.906 2.84283 2.20706 0
M  V30 1333 C 123.514 4.20352 1.54946 0
M  V30 1334 C 125.258 3.04115 2.96166 0
M  V30 1335 C 123.165 5.34778 2.5252 0
M  V30 1336 H 122.095 0.599718 0.457005 0
M  V30 1337 H 124.746 1.7699 0.484424 0
M  V30 1338 H 123.128 2.61901 2.97025 0
M  V30 1339 H 124.302 4.53008 0.843811 0
M  V30 1340 H 122.617 4.06167 0.917475 0
M  V30 1341 H 125.214 3.86774 3.69202 0
M  V30 1342 H 125.557 2.16045 3.55852 0
M  V30 1343 H 126.09 3.26702 2.26959 0
M  V30 1344 H 122.829 6.25018 1.97566 0
M  V30 1345 H 122.349 5.06534 3.21222 0
M  V30 1346 H 124.028 5.65561 3.14245 0
M  V30 1347 N 124.16 -0.719506 1.40217 0
M  V30 1348 C 125.4 -1.49181 1.39729 0
M  V30 1349 C 125.764 -1.92 -0.00250614 0
M  V30 1350 O 126.965 -2.68473 -0.132479 0
M  V30 1351 C 125.236 -2.68767 2.35582 0
M  V30 1352 S 126.795 -3.58224 2.53418 0
M  V30 1353 H 123.613 -0.510091 0.495307 0
M  V30 1354 H 126.215 -0.841724 1.76452 0
M  V30 1355 H 124.919 -2.35475 3.36124 0
M  V30 1356 H 124.45 -3.38691 2.0013 0
M  V30 1357 H 126.465 -4.63033 1.78367 0
M  V30 1358 N 125.638 -1.25649 -0.95132 0
M  V30 1359 C 126.866 -1.13343 -1.73092 0
M  V30 1360 C 127.281 0.312434 -1.86197 0
M  V30 1361 O 126.638 1.21465 -1.36207 0
M  V30 1362 C 126.689 -1.78602 -3.14299 0
M  V30 1363 O 126.41 -3.17537 -3.01831 0
M  V30 1364 C 127.911 -1.72119 -4.08522 0
M  V30 1365 H 125.131 -0.395181 -0.542285 0
M  V30 1366 H 127.675 -1.66076 -1.19328 0
M  V30 1367 H 125.83 -1.29832 -3.64996 0
M  V30 1368 H 126.244 -3.49676 -3.90931 0
M  V30 1369 H 127.718 -2.22435 -5.052 0
M  V30 1370 H 128.195 -0.685635 -4.33815 0
M  V30 1371 H 128.801 -2.20393 -3.63741 0
M  V30 1372 N 127.117 1.15442 -1.07289 0
M  V30 1373 C 128.047 2.22312 -0.714107 0
M  V30 1374 C 129.028 1.67467 0.298155 0
M  V30 1375 O 130.213 1.93445 0.171048 0
M  V30 1376 C 127.343 3.47124 -0.110448 0
M  V30 1377 C 126.297 4.14926 -1.04979 0
M  V30 1378 C 125.623 5.33807 -0.308924 0
M  V30 1379 C 126.923 4.64762 -2.38314 0
M  V30 1380 H 128.617 2.5258 -1.6076 0
M  V30 1381 H 126.163 1.21404 -0.77441 0
M  V30 1382 H 128.116 4.21124 0.152482 0
M  V30 1383 H 126.84 3.16187 0.81812 0
M  V30 1384 H 125.499 3.42866 -1.29764 0
M  V30 1385 H 125.147 4.99126 0.623084 0
M  V30 1386 H 124.847 5.80113 -0.935036 0
M  V30 1387 H 126.371 6.10576 -0.0537771 0
M  V30 1388 H 127.785 5.30292 -2.1786 0
M  V30 1389 H 126.182 5.21728 -2.96514 0
M  V30 1390 H 127.252 3.80434 -3.00663 0
M  V30 1391 N 128.595 0.856903 1.32268 0
M  V30 1392 C 129.505 0.306131 2.32594 0
M  V30 1393 C 130.521 -0.577209 1.64147 0
M  V30 1394 O 131.697 -0.477043 1.95669 0
M  V30 1395 C 128.762 -0.494561 3.43154 0
M  V30 1396 C 127.823 0.415186 4.27288 0
M  V30 1397 C 127.056 -0.347387 5.32568 0
M  V30 1398 O 127.279 -1.57708 5.48165 0
M  V30 1399 O 126.213 0.287982 6.01211 0
M  V30 1400 H 130.039 1.13737 2.81598 0
M  V30 1401 H 127.624 0.619902 1.35932 0
M  V30 1402 H 129.506 -0.948944 4.10576 0
M  V30 1403 H 128.181 -1.30257 2.96336 0
M  V30 1404 H 127.088 0.917793 3.62667 0
M  V30 1405 H 128.421 1.18844 4.77637 0
M  V30 1406 N 130.073 -1.45103 0.615059 0
M  V30 1407 C 131.32 -2.02183 0.113179 0
M  V30 1408 C 131.648 -1.48249 -1.25906 0
M  V30 1409 O 130.903 -0.650265 -1.84581 0
M  V30 1410 C 131.202 -3.57386 0.0318797 0
M  V30 1411 C 130.868 -4.30505 1.34077 0
M  V30 1412 C 129.53 -4.50197 1.69929 0
M  V30 1413 C 131.882 -4.72238 2.20546 0
M  V30 1414 C 129.21 -5.08881 2.91988 0
M  V30 1415 C 131.562 -5.32272 3.41861 0
M  V30 1416 C 130.226 -5.50187 3.77956 0
M  V30 1417 H 129.496 -0.739842 0.0414151 0
M  V30 1418 H 132.143 -1.74073 0.798168 0
M  V30 1419 H 130.448 -3.84817 -0.736409 0
M  V30 1420 H 132.145 -3.99264 -0.372712 0
M  V30 1421 H 128.735 -4.15496 1.05173 0
M  V30 1422 H 132.919 -4.56751 1.94146 0
M  V30 1423 H 128.175 -5.20939 3.2005 0
M  V30 1424 H 132.349 -5.63563 4.09109 0
M  V30 1425 H 129.976 -5.95427 4.72622 0
M  V30 1426 N 131.551 -0.354651 -1.53558 0
M  V30 1427 C 132.481 0.489091 -2.2832 0
M  V30 1428 C 133.462 1.09324 -1.30316 0
M  V30 1429 O 134.647 1.11255 -1.59173 0
M  V30 1430 C 131.777 1.63456 -3.0643 0
M  V30 1431 C 130.731 1.1582 -4.12031 0
M  V30 1432 C 130.057 2.39305 -4.7816 0
M  V30 1433 C 131.357 0.250731 -5.21698 0
M  V30 1434 H 133.051 -0.134614 -2.99097 0
M  V30 1435 H 130.597 -0.0661826 -1.43848 0
M  V30 1436 H 132.55 2.23136 -3.57475 0
M  V30 1437 H 131.274 2.28533 -2.33325 0
M  V30 1438 H 129.933 0.584146 -3.61916 0
M  V30 1439 H 129.581 3.02814 -4.01637 0
M  V30 1440 H 129.281 2.08109 -5.49513 0
M  V30 1441 H 130.805 2.99691 -5.31994 0
M  V30 1442 H 132.219 0.754695 -5.68311 0
M  V30 1443 H 130.616 0.0301468 -6.00092 0
M  V30 1444 H 131.686 -0.710125 -4.79672 0
M  V30 1445 N 133.029 1.57378 -0.0835403 0
M  V30 1446 C 133.979 2.09916 0.889905 0
M  V30 1447 C 134.963 1.01151 1.25129 0
M  V30 1448 O 136.155 1.27443 1.2283 0
M  V30 1449 C 133.284 2.67379 2.15322 0
M  V30 1450 C 132.37 3.83167 1.81779 0
M  V30 1451 N 132.761 4.91665 1.18739 0
M  V30 1452 C 131.059 3.92685 2.11459 0
M  V30 1453 C 131.76 5.72409 1.0355 0
M  V30 1454 N 130.736 5.21062 1.54906 0
M  V30 1455 H 134.538 2.91188 0.398378 0
M  V30 1456 H 132.052 1.61956 0.120013 0
M  V30 1457 H 134.049 3.0334 2.8599 0
M  V30 1458 H 132.709 1.87558 2.65051 0
M  V30 1459 H 133.72 5.10784 0.855604 0
M  V30 1460 H 130.397 3.23856 2.63483 0
M  V30 1461 H 131.787 6.69699 0.543425 0
M  V30 1462 N 134.507 -0.190092 1.56449 0
M  V30 1463 C 135.784 -0.935886 1.71757 0
M  V30 1464 C 136.164 -2.01173 0.639726 0
M  V30 1465 O 135.512 -2.25827 -0.348502 0
M  V30 1466 C 135.722 -1.51775 3.1427 0
M  V30 1467 C 137.07 -1.99794 3.74656 0
M  V30 1468 O 138.094 -1.61607 3.1743 0
M  V30 1469 O 136.953 -2.70079 4.751 0
M  V30 1470 H 134.047 -0.439229 0.700719 0
M  V30 1471 H 136.593 -0.179395 1.68749 0
M  V30 1472 H 135.365 -0.742505 3.84191 0
M  V30 1473 H 134.988 -2.33894 3.21527 0
M  V30 1474 N 135.985 -1.50799 -0.457987 0
M  V30 1475 C 137.396 -1.55152 -1.0385 0
M  V30 1476 C 137.747 -0.362719 -1.92818 0
M  V30 1477 O 136.872 0.522915 -2.09987 0
M  V30 1478 C 137.467 -2.81173 -1.89017 0
M  V30 1479 C 136.026 -2.88164 -2.42154 0
M  V30 1480 C 135.173 -2.49591 -1.20829 0
M  V30 1481 H 138.124 -1.56874 -0.240068 0
M  V30 1482 H 138.145 -2.63769 -2.74238 0
M  V30 1483 H 137.657 -3.67677 -1.24238 0
M  V30 1484 H 135.758 -2.06042 -3.10447 0
M  V30 1485 H 135.871 -3.91356 -2.76364 0
M  V30 1486 H 134.235 -2.02322 -1.54719 0
M  V30 1487 H 135.018 -3.38418 -0.576927 0
M  V30 1488 N 137.463 0.71206 -1.40597 0
M  V30 1489 C 138.712 1.46754 -1.38369 0
M  V30 1490 C 139.025 1.95598 0.0097839 0
M  V30 1491 O 140.231 2.71059 0.154677 0
M  V30 1492 C 138.687 2.65289 -2.43207 0
M  V30 1493 C 138.295 2.23301 -3.88382 0
M  V30 1494 C 140.039 3.43008 -2.50091 0
M  V30 1495 C 137.946 3.38696 -4.84808 0
M  V30 1496 H 136.876 0.55118 -0.514506 0
M  V30 1497 H 139.527 0.774616 -1.66349 0
M  V30 1498 H 137.909 3.36769 -2.08332 0
M  V30 1499 H 139.083 1.59218 -4.32419 0
M  V30 1500 H 137.398 1.58618 -3.85006 0
M  V30 1501 H 139.995 4.28881 -3.1932 0
M  V30 1502 H 140.338 3.87065 -1.53253 0
M  V30 1503 H 140.871 2.78574 -2.83974 0
M  V30 1504 H 137.61 2.99668 -5.82992 0
M  V30 1505 H 137.13 4.01683 -4.45433 0
M  V30 1506 H 138.809 4.04712 -5.04794 0
M  V30 1507 N 138.941 1.26152 0.944643 0
M  V30 1508 C 139.888 1.07408 2.04285 0
M  V30 1509 C 140.858 -0.0198413 1.66088 0
M  V30 1510 O 142.043 0.139264 1.90291 0
M  V30 1511 C 139.183 0.70945 3.37729 0
M  V30 1512 C 138.296 1.87926 3.88983 0
M  V30 1513 C 137.431 1.45807 5.10797 0
M  V30 1514 C 136.47 2.5964 5.54305 0
M  V30 1515 N 135.607 2.18226 6.67324 0
M  V30 1516 H 140.447 2.01389 2.1965 0
M  V30 1517 H 137.984 1.00275 1.07626 0
M  V30 1518 H 139.942 0.478948 4.14442 0
M  V30 1519 H 138.572 -0.193389 3.2222 0
M  V30 1520 H 137.624 2.22279 3.08701 0
M  V30 1521 H 138.936 2.73377 4.17213 0
M  V30 1522 H 138.09 1.18781 5.94959 0
M  V30 1523 H 136.829 0.574414 4.84305 0
M  V30 1524 H 135.834 2.87399 4.68702 0
M  V30 1525 H 137.059 3.48599 5.828 0
M  V30 1526 H 135.005 1.3229 6.42523 0
M  V30 1527 H 134.922 2.97221 6.95123 0
M  V30 1528 H 136.19 1.94403 7.54869 0
M  V30 1529 N 140.419 -1.14872 1.07899 0
M  V30 1530 C 141.83 -1.67367 0.827363 0
M  V30 1531 C 142.181 -1.85236 -0.646693 0
M  V30 1532 O 141.306 -1.55974 -1.50004 0
M  V30 1533 C 141.901 -3.04016 1.49532 0
M  V30 1534 C 140.46 -3.53566 1.29106 0
M  V30 1535 C 139.607 -2.29161 1.56143 0
M  V30 1536 H 142.558 -0.990083 1.24028 0
M  V30 1537 H 142.579 -3.69219 0.919643 0
M  V30 1538 H 142.091 -2.90978 2.56814 0
M  V30 1539 H 140.192 -3.71835 0.238713 0
M  V30 1540 H 140.305 -4.34661 2.01511 0
M  V30 1541 H 138.669 -2.34978 0.982717 0
M  V30 1542 H 139.452 -2.18705 2.64619 0
M  V30 1543 N 141.898 -0.863906 -1.31812 0
M  V30 1544 C 143.138 -0.47825 -1.98726 0
M  V30 1545 C 143.502 0.950397 -1.66828 0
M  V30 1546 O 144.703 1.44109 -2.26905 0
M  V30 1547 C 142.974 -0.721134 -3.50049 0
M  V30 1548 S 144.533 -0.434432 -4.36644 0
M  V30 1549 H 141.351 -0.178773 -0.688158 0
M  V30 1550 H 143.953 -1.11862 -1.60334 0
M  V30 1551 H 142.657 -1.75981 -3.70755 0
M  V30 1552 H 142.188 -0.0675315 -3.93342 0
M  V30 1553 H 144.203 0.735786 -4.90714 0
M  V30 1554 N 143.376 1.44774 -0.622745 0
M  V30 1555 C 144.323 2.30635 0.0871679 0
M  V30 1556 C 145.293 1.42994 0.845097 0
M  V30 1557 O 146.478 1.71907 0.827812 0
M  V30 1558 C 143.618 3.28144 1.06844 0
M  V30 1559 C 142.731 4.30888 0.309809 0
M  V30 1560 C 141.866 5.15494 1.28215 0
M  V30 1561 C 140.905 6.09953 0.512198 0
M  V30 1562 N 140.042 6.87287 1.43458 0
M  V30 1563 H 144.882 2.90803 -0.650974 0
M  V30 1564 H 142.419 1.43286 -0.33281 0
M  V30 1565 H 144.377 3.83157 1.65066 0
M  V30 1566 H 143.007 2.69695 1.77382 0
M  V30 1567 H 142.059 3.78414 -0.388181 0
M  V30 1568 H 143.371 4.97955 -0.290254 0
M  V30 1569 H 142.525 5.74983 1.93596 0
M  V30 1570 H 141.264 4.48481 1.91614 0
M  V30 1571 H 140.269 5.49581 -0.155151 0
M  V30 1572 H 141.494 6.78999 -0.116958 0
M  V30 1573 H 139.44 6.2295 2.05594 0
M  V30 1574 H 139.357 7.50763 0.888335 0
M  V30 1575 H 140.625 7.51306 2.07749 0
M  V30 1576 N 144.854 0.36279 1.53368 0
M  V30 1577 C 146.079 -0.231226 2.06107 0
M  V30 1578 C 146.504 -1.419 1.23474 0
M  V30 1579 O 145.862 -1.79524 0.253128 0
M  V30 1580 C 145.91 -0.605523 3.5548 0
M  V30 1581 O 145.014 -1.70312 3.7559 0
M  V30 1582 H 144.355 -0.034327 0.663112 0
M  V30 1583 H 146.885 0.522584 1.97814 0
M  V30 1584 H 146.895 -0.877314 3.98456 0
M  V30 1585 H 145.57 0.263004 4.15068 0
M  V30 1586 H 144.147 -1.4271 3.44512 0
M  V30 1587 N 146.332 -1.57332 0.0918853 0
M  V30 1588 C 147.578 -1.94524 -0.573425 0
M  V30 1589 C 147.911 -0.973578 -1.68033 0
M  V30 1590 O 147.186 -0.00609226 -1.94499 0
M  V30 1591 C 147.469 -3.41858 -1.13161 0
M  V30 1592 C 147.322 -4.4979 -0.0299747 0
M  V30 1593 C 148.641 -3.90435 -2.03098 0
M  V30 1594 H 145.76 -0.70734 -0.206975 0
M  V30 1595 H 148.402 -1.89309 0.161942 0
M  V30 1596 H 146.552 -3.46433 -1.7583 0
M  V30 1597 H 148.224 -4.57327 0.604112 0
M  V30 1598 H 146.467 -4.291 0.636833 0
M  V30 1599 H 147.138 -5.50069 -0.461287 0
M  V30 1600 H 149.614 -3.87992 -1.50338 0
M  V30 1601 H 148.49 -4.94097 -2.39081 0
M  V30 1602 H 148.751 -3.29541 -2.94712 0
M  V30 1603 N 147.81 0.181792 -1.56548 0
M  V30 1604 C 149.05 0.906711 -1.83189 0
M  V30 1605 C 149.414 1.79882 -0.671312 0
M  V30 1606 O 150.615 2.56054 -0.81792 0
M  V30 1607 C 148.886 1.69023 -3.14906 0
M  V30 1608 S 150.445 2.46535 -3.62996 0
M  V30 1609 H 147.263 0.303877 -0.642791 0
M  V30 1610 H 149.865 0.169107 -1.94767 0
M  V30 1611 H 148.569 1.02571 -3.97376 0
M  V30 1612 H 148.1 2.46941 -3.06241 0
M  V30 1613 H 150.115 3.71014 -3.29489 0
M  V30 1614 N 149.288 1.51039 0.449983 0
M  V30 1615 C 150.22 1.67617 1.56324 0
M  V30 1616 C 151.233 0.557083 1.52972 0
M  V30 1617 O 152.422 0.830989 1.57977 0
M  V30 1618 C 149.522 1.66402 2.95235 0
M  V30 1619 C 148.695 2.9469 3.23229 0
M  V30 1620 C 147.754 2.85832 4.41799 0
M  V30 1621 O 146.78 3.59785 4.41071 0
M  V30 1622 N 147.982 2.00821 5.44657 0
M  V30 1623 H 150.747 2.63648 1.42512 0
M  V30 1624 H 148.308 1.48767 0.638737 0
M  V30 1625 H 150.3 1.58062 3.72557 0
M  V30 1626 H 148.87 0.780182 3.02708 0
M  V30 1627 H 148.09 3.16996 2.34323 0
M  V30 1628 H 149.378 3.79636 3.38754 0
M  V30 1629 H 148.776 1.40091 5.48079 0
M  V30 1630 H 147.333 1.98368 6.20881 0
M  V30 1631 N 150.766 -0.704594 1.40972 0
M  V30 1632 C 152.182 -1.01406 1.23244 0
M  V30 1633 C 152.382 -2.01169 0.115399 0
M  V30 1634 O 151.438 -2.47021 -0.523147 0
M  V30 1635 C 152.751 -1.54728 2.57836 0
M  V30 1636 C 154.299 -1.66658 2.64942 0
M  V30 1637 C 154.774 -2.23383 3.9983 0
M  V30 1638 N 156.265 -2.30756 4.01629 0
M  V30 1639 C 157 -2.75655 5.02794 0
M  V30 1640 N 156.496 -3.20225 6.14352 0
M  V30 1641 N 158.289 -2.75138 4.90159 0
M  V30 1642 H 150.44 -0.0435285 2.12355 0
M  V30 1643 H 152.703 -0.0818951 0.944456 0
M  V30 1644 H 152.409 -0.888832 3.40283 0
M  V30 1645 H 152.283 -2.53084 2.79693 0
M  V30 1646 H 154.67 -2.31617 1.8286 0
M  V30 1647 H 154.751 -0.668717 2.46904 0
M  V30 1648 H 154.395 -1.59043 4.82357 0
M  V30 1649 H 154.325 -3.23904 4.15203 0
M  V30 1650 H 156.816 -1.99291 3.21079 0
M  V30 1651 H 157.129 -3.53084 6.87424 0
M  V30 1652 H 155.474 -3.18156 6.17901 0
M  V30 1653 H 158.665 -2.39661 4.02095 0
M  V30 1654 H 158.838 -3.09812 5.6914 0
M  V30 1655 N 152.244 -1.26651 -0.937939 0
M  V30 1656 C 153.207 -1.08546 -2.01867 0
M  V30 1657 C 154.207 -0.0327327 -1.60767 0
M  V30 1658 O 155.397 -0.276427 -1.71993 0
M  V30 1659 C 152.529 -0.651711 -3.34613 0
M  V30 1660 H 153.722 -2.04502 -2.1936 0
M  V30 1661 H 151.275 -1.09294 -1.11734 0
M  V30 1662 H 152.01 0.309696 -3.22818 0
M  V30 1663 H 151.795 -1.41189 -3.65798 0
M  V30 1664 H 153.285 -0.546973 -4.14002 0
M  V30 1665 N 153.722 1.14298 -1.08507 0
M  V30 1666 C 155.138 1.37347 -0.812901 0
M  V30 1667 C 155.338 1.93052 0.577325 0
M  V30 1668 O 154.394 2.14389 1.33393 0
M  V30 1669 C 155.707 2.33359 -1.89642 0
M  V30 1670 C 157.255 2.46996 -1.92255 0
M  V30 1671 C 157.73 3.46309 -2.99724 0
M  V30 1672 N 159.221 3.53853 -2.98902 0
M  V30 1673 C 159.956 4.3055 -3.787 0
M  V30 1674 N 159.452 5.10482 -4.6838 0
M  V30 1675 N 161.245 4.25757 -3.66998 0
M  V30 1676 H 153.396 0.764867 -1.9815 0
M  V30 1677 H 155.659 0.398966 -0.859959 0
M  V30 1678 H 155.365 1.99565 -2.89597 0
M  V30 1679 H 155.239 3.33274 -1.76659 0
M  V30 1680 H 157.626 2.80081 -0.929445 0
M  V30 1681 H 157.707 1.47039 -2.09316 0
M  V30 1682 H 157.351 3.13957 -3.99241 0
M  V30 1683 H 157.281 4.46049 -2.79907 0
M  V30 1684 H 159.772 2.96812 -2.33904 0
M  V30 1685 H 160.085 5.66284 -5.25873 0
M  V30 1686 H 158.43 5.09747 -4.72422 0
M  V30 1687 H 161.621 3.62383 -2.96304 0
M  V30 1688 H 161.794 4.85279 -4.29427 0
M  V30 1689 N 155.201 0.870884 1.31352 0
M  V30 1690 C 156.478 0.402907 1.91405 0
M  V30 1691 C 156.858 -1.11512 1.79244 0
M  V30 1692 O 156.206 -1.94411 1.2007 0
M  V30 1693 C 156.416 0.885301 3.37585 0
M  V30 1694 C 157.764 0.911971 4.14691 0
M  V30 1695 O 158.788 0.831016 3.46371 0
M  V30 1696 O 157.647 1.02927 5.3672 0
M  V30 1697 H 154.741 0.120698 0.818145 0
M  V30 1698 H 157.287 0.958857 1.40014 0
M  V30 1699 H 156.059 1.92889 3.40455 0
M  V30 1700 H 155.682 0.307714 3.96407 0
M  V30 1701 N 156.679 -1.44442 0.630414 0
M  V30 1702 C 157.956 -1.9549 0.0655657 0
M  V30 1703 C 158.336 -1.5724 -1.40851 0
M  V30 1704 O 157.684 -0.846116 -2.12257 0
M  V30 1705 C 157.894 -3.47812 0.287691 0
M  V30 1706 C 159.242 -4.24216 0.180513 0
M  V30 1707 O 160.266 -3.55526 0.219019 0
M  V30 1708 O 159.125 -5.46434 0.0848493 0
M  V30 1709 H 156.219 -0.826688 -0.0227177 0
M  V30 1710 H 158.765 -1.54496 0.702068 0
M  V30 1711 H 157.537 -3.687 1.31056 0
M  V30 1712 H 157.16 -3.95751 -0.382984 0
M  V30 1713 N 158.157 -0.370918 -1.53173 0
M  V30 1714 C 159.397 0.217106 -2.03244 0
M  V30 1715 C 159.761 1.45558 -1.25207 0
M  V30 1716 O 160.962 2.11957 -1.65311 0
M  V30 1717 C 159.233 0.496664 -3.53932 0
M  V30 1718 S 160.792 1.0576 -4.25864 0
M  V30 1719 H 157.61 0.0627827 -0.708223 0
M  V30 1720 H 160.212 -0.515019 -1.88594 0
M  V30 1721 H 158.916 -0.412096 -4.08326 0
M  V30 1722 H 158.447 1.25772 -3.72753 0
M  V30 1723 H 160.462 2.34145 -4.37482 0
M  V30 1724 N 159.635 1.57281 -0.100228 0
M  V30 1725 C 160.545 2.17833 0.870965 0
M  V30 1726 C 161.561 1.14921 1.30649 0
M  V30 1727 O 162.737 1.47313 1.37335 0
M  V30 1728 C 159.802 2.75085 2.1102 0
M  V30 1729 C 158.863 3.9297 1.72838 0
M  V30 1730 C 158.096 4.47482 2.90854 0
M  V30 1731 O 158.319 4.00922 4.05731 0
M  V30 1732 O 157.253 5.38433 2.69023 0
M  V30 1733 H 161.079 3.0124 0.38575 0
M  V30 1734 H 158.664 1.48881 0.124397 0
M  V30 1735 H 160.546 3.11656 2.83634 0
M  V30 1736 H 159.221 1.94721 2.58584 0
M  V30 1737 H 158.128 3.61201 0.973883 0
M  V30 1738 H 159.461 4.74713 1.30033 0
M  V30 1739 N 161.113 -0.173488 1.56642 0
M  V30 1740 C 162.524 -0.736155 1.71574 0
M  V30 1741 C 162.875 -1.82888 0.710389 0
M  V30 1742 O 162 -2.16017 -0.1287 0
M  V30 1743 C 162.595 -1.34211 3.11083 0
M  V30 1744 C 161.154 -1.85162 3.27707 0
M  V30 1745 C 160.301 -0.729765 2.67525 0
M  V30 1746 H 163.252 0.0518786 1.58615 0
M  V30 1747 H 163.273 -2.21178 3.09613 0
M  V30 1748 H 162.785 -0.546579 3.84232 0
M  V30 1749 H 160.886 -2.67366 2.59512 0
M  V30 1750 H 160.999 -1.99855 4.35425 0
M  V30 1751 H 159.363 -1.14965 2.27278 0
M  V30 1752 H 160.146 0.0538806 3.43258 0
M  V30 1753 N 162.591 -1.51276 -0.441967 0
M  V30 1754 C 163.521 -1.752 -1.54361 0
M  V30 1755 C 164.502 -0.601682 -1.59103 0
M  V30 1756 O 165.687 -0.843913 -1.74905 0
M  V30 1757 C 162.817 -1.87282 -2.92477 0
M  V30 1758 C 161.771 -3.02687 -3.02596 0
M  V30 1759 C 161.097 -2.99947 -4.42647 0
M  V30 1760 C 162.397 -4.4273 -2.77106 0
M  V30 1761 H 164.091 -2.67442 -1.34592 0
M  V30 1762 H 161.637 -1.28694 -0.646048 0
M  V30 1763 H 163.59 -2.02602 -3.695 0
M  V30 1764 H 162.314 -0.916844 -3.13467 0
M  V30 1765 H 160.973 -2.87065 -2.28012 0
M  V30 1766 H 160.621 -2.02136 -4.60597 0
M  V30 1767 H 160.321 -3.77439 -4.50348 0
M  V30 1768 H 161.845 -3.17354 -5.2165 0
M  V30 1769 H 163.259 -4.58727 -3.43864 0
M  V30 1770 H 161.656 -5.21893 -2.96222 0
M  V30 1771 H 162.726 -4.53087 -1.72744 0
M  V30 1772 N 164.069 0.697108 -1.41344 0
M  V30 1773 C 165.002 1.82134 -1.37486 0
M  V30 1774 C 165.98 1.60784 -0.242351 0
M  V30 1775 O 167.164 1.83553 -0.429012 0
M  V30 1776 C 164.291 3.18788 -1.14421 0
M  V30 1777 C 163.337 3.58932 -2.3037 0
M  V30 1778 S 164.17 3.63916 -3.92843 0
M  V30 1779 C 165.326 5.03298 -3.72078 0
M  V30 1780 H 165.559 1.85129 -2.32625 0
M  V30 1781 H 163.092 0.865671 -1.2785 0
M  V30 1782 H 165.05 3.97677 -1.018 0
M  V30 1783 H 163.711 3.13404 -0.20905 0
M  V30 1784 H 162.904 4.58202 -2.09922 0
M  V30 1785 H 162.506 2.87347 -2.39391 0
M  V30 1786 H 164.798 5.90753 -3.31688 0
M  V30 1787 H 165.741 5.28788 -4.70945 0
M  V30 1788 H 166.149 4.74764 -3.05384 0
M  V30 1789 N 165.547 1.27147 0.931209 0
M  V30 1790 C 166.494 1.09568 2.03134 0
M  V30 1791 C 167.464 -0.00222433 1.661 0
M  V30 1792 O 168.649 0.159439 1.90133 0
M  V30 1793 C 165.789 0.745231 3.36957 0
M  V30 1794 C 164.902 1.92041 3.86968 0
M  V30 1795 C 164.037 1.51216 5.09222 0
M  V30 1796 C 163.076 2.65504 5.5152 0
M  V30 1797 N 162.213 2.25291 6.64972 0
M  V30 1798 H 167.053 2.03708 2.17502 0
M  V30 1799 H 164.59 1.01411 1.06556 0
M  V30 1800 H 166.548 0.522878 4.1391 0
M  V30 1801 H 165.178 -0.159202 3.22407 0
M  V30 1802 H 164.23 2.25541 3.06326 0
M  V30 1803 H 165.542 2.77787 4.1429 0
M  V30 1804 H 164.696 1.25084 5.93666 0
M  V30 1805 H 163.435 0.625749 4.83669 0
M  V30 1806 H 162.44 2.92354 4.65628 0
M  V30 1807 H 163.665 3.54761 5.7907 0
M  V30 1808 H 161.611 1.39098 6.41083 0
M  V30 1809 H 161.528 3.04577 6.91931 0
M  V30 1810 H 162.796 2.02398 7.52765 0
M  V30 1811 N 167.025 -1.13721 1.09112 0
M  V30 1812 C 167.958 -2.18094 0.67158 0
M  V30 1813 C 168.936 -1.59414 -0.320299 0
M  V30 1814 O 170.12 -1.87183 -0.222444 0
M  V30 1815 C 167.247 -3.38698 -0.0111189 0
M  V30 1816 C 166.293 -4.15966 0.942055 0
M  V30 1817 S 167.126 -4.7604 2.45246 0
M  V30 1818 C 168.282 -5.99994 1.78208 0
M  V30 1819 H 168.515 -2.53344 1.55577 0
M  V30 1820 H 166.048 -1.24967 0.906789 0
M  V30 1821 H 168.006 -4.08559 -0.398716 0
M  V30 1822 H 166.667 -3.01756 -0.871905 0
M  V30 1823 H 165.86 -5.02318 0.411396 0
M  V30 1824 H 165.462 -3.51745 1.2709 0
M  V30 1825 H 167.754 -6.68441 1.10424 0
M  V30 1826 H 168.697 -6.57662 2.62463 0
M  V30 1827 H 169.105 -5.50432 1.25238 0
M  V30 1828 N 168.503 -0.877838 -1.30888 0
M  V30 1829 C 169.733 -0.506678 -2.00291 0
M  V30 1830 C 170.141 0.907449 -1.66018 0
M  V30 1831 O 169.484 1.60719 -0.88967 0
M  V30 1832 C 169.546 -0.59323 -3.54572 0
M  V30 1833 C 169.21 -1.97038 -4.12341 0
M  V30 1834 C 170.207 -2.93889 -4.28865 0
M  V30 1835 C 167.892 -2.27383 -4.47886 0
M  V30 1836 C 169.886 -4.19224 -4.80136 0
M  V30 1837 C 167.573 -3.52965 -4.98857 0
M  V30 1838 C 168.571 -4.48701 -5.14934 0
M  V30 1839 O 168.259 -5.72056 -5.64808 0
M  V30 1840 H 167.991 -0.1951 -0.647234 0
M  V30 1841 H 170.545 -1.18301 -1.6791 0
M  V30 1842 H 168.775 0.140057 -3.86446 0
M  V30 1843 H 170.464 -0.234372 -4.05223 0
M  V30 1844 H 171.23 -2.71756 -4.01714 0
M  V30 1845 H 167.109 -1.53639 -4.34645 0
M  V30 1846 H 170.653 -4.93956 -4.92599 0
M  V30 1847 H 166.55 -3.74939 -5.25443 0
M  V30 1848 H 167.318 -5.74337 -5.83163 0
M  V30 1849 N 169.982 1.44106 -0.638065 0
M  V30 1850 C 170.93 2.3248 0.0748149 0
M  V30 1851 C 171.924 1.47746 0.828702 0
M  V30 1852 O 173.13 1.64049 0.740816 0
M  V30 1853 H 169.505 0.750771 0.0429686 0
M  V30 1854 H 171.476 2.90348 -0.688504 0
M  V30 1855 C 170.225 3.31843 1.03805 0
M  V30 1856 H 169.548 3.97059 0.467375 0
M  V30 1857 H 170.988 3.96345 1.50622 0
M  V30 1858 C 169.447 2.61291 2.1267 0
M  V30 1859 O 169.977 2.41702 3.20847 0
M  V30 1860 N 168.183 2.20915 1.88798 0
M  V30 1861 H 167.73 2.37047 1.00829 0
M  V30 1862 H 167.688 1.74038 2.61836 0
M  V30 1863 N 171.46 0.379036 1.52974 0
M  V30 1864 C 172.41 -0.477772 2.22938 0
M  V30 1865 C 173.394 -1.03792 1.22948 0
M  V30 1866 O 174.586 -0.965725 1.48333 0
M  V30 1867 C 171.715 -1.60994 3.03209 0
M  V30 1868 C 170.801 -1.06203 4.10587 0
M  V30 1869 N 171.192 -0.238214 5.05239 0
M  V30 1870 C 169.49 -1.33554 4.25534 0
M  V30 1871 C 170.191 0.0633235 5.81666 0
M  V30 1872 N 169.167 -0.537901 5.40932 0
M  V30 1873 H 172.969 0.158295 2.93473 0
M  V30 1874 H 170.483 0.187778 1.61311 0
M  V30 1875 H 172.48 -2.23607 3.5186 0
M  V30 1876 H 171.14 -2.24893 2.34207 0
M  V30 1877 H 172.151 0.123695 5.17752 0
M  V30 1878 H 168.828 -1.97632 3.6776 0
M  V30 1879 H 170.218 0.730161 6.67921 0
M  V30 1880 N 172.938 -1.57226 0.108567 0
M  V30 1881 C 174.163 -1.99604 -0.563303 0
M  V30 1882 C 174.588 -0.987563 -1.6009 0
M  V30 1883 O 173.946 0.0421687 -1.81251 0
M  V30 1884 C 173.994 -3.40902 -1.17552 0
M  V30 1885 O 173.098 -3.42896 -2.2912 0
M  V30 1886 H 172.439 -0.648704 -0.1417 0
M  V30 1887 H 174.969 -2.03679 0.193961 0
M  V30 1888 H 174.979 -3.78886 -1.51357 0
M  V30 1889 H 173.654 -4.1382 -0.415445 0
M  V30 1890 H 172.231 -3.1672 -1.96832 0
M  V30 1891 N 174.416 0.165178 -1.56732 0
M  V30 1892 C 175.662 0.877389 -1.83503 0
M  V30 1893 C 176.017 1.79602 -0.689996 0
M  V30 1894 O 175.31 1.89023 0.313205 0
M  V30 1895 C 175.504 1.70405 -3.1416 0
M  V30 1896 C 175.333 0.866961 -4.41264 0
M  V30 1897 C 174.103 0.539646 -5.0241 0
M  V30 1898 C 176.301 0.205671 -5.13889 0
M  V30 1899 N 174.283 -0.312946 -6.13102 0
M  V30 1900 C 175.654 -0.507823 -6.17917 0
M  V30 1901 C 177.709 0.124468 -4.97744 0
M  V30 1902 C 176.412 -1.29483 -7.0755 0
M  V30 1903 C 178.438 -0.649222 -5.87826 0
M  V30 1904 C 177.8 -1.35106 -6.91322 0
M  V30 1905 H 173.899 0.299477 -0.722383 0
M  V30 1906 H 176.483 0.143949 -1.94167 0
M  V30 1907 H 174.654 2.40887 -3.04677 0
M  V30 1908 H 176.386 2.35804 -3.28905 0
M  V30 1909 H 173.141 0.871176 -4.65519 0
M  V30 1910 H 173.565 -0.729731 -6.73056 0
M  V30 1911 H 178.207 0.652724 -4.17731 0
M  V30 1912 H 175.925 -1.83441 -7.87004 0
M  V30 1913 H 179.511 -0.713804 -5.77405 0
M  V30 1914 H 178.391 -1.94013 -7.59821 0
M  V30 1915 N 175.894 1.51508 0.433938 0
M  V30 1916 C 177.305 1.56784 1.01369 0
M  V30 1917 C 177.656 0.393349 1.92217 0
M  V30 1918 O 176.781 -0.489441 2.10792 0
M  V30 1919 C 177.376 2.84144 1.8452 0
M  V30 1920 C 175.935 2.9198 2.37539 0
M  V30 1921 C 175.082 2.51482 1.16843 0
M  V30 1922 H 178.033 1.57236 0.215081 0
M  V30 1923 H 178.054 2.68098 2.70007 0
M  V30 1924 H 177.566 3.69607 1.18373 0
M  V30 1925 H 175.667 2.10955 3.0713 0
M  V30 1926 H 175.78 3.95704 2.70103 0
M  V30 1927 H 174.144 2.04758 1.51481 0
M  V30 1928 H 174.927 3.39293 0.523015 0
M  V30 1929 N 177.372 -0.689602 1.41712 0
M  V30 1930 C 178.282 -1.83314 1.46401 0
M  V30 1931 C 179.298 -1.7036 0.35405 0
M  V30 1932 O 180.474 -1.92171 0.602692 0
M  V30 1933 C 177.539 -3.19344 1.34982 0
M  V30 1934 C 176.6 -3.44363 2.56344 0
M  V30 1935 C 175.833 -4.73904 2.45461 0
M  V30 1936 O 176.056 -5.508 1.48241 0
M  V30 1937 O 174.99 -4.99839 3.35328 0
M  V30 1938 H 178.816 -1.82314 2.42889 0
M  V30 1939 H 176.401 -0.843438 1.23315 0
M  V30 1940 H 178.283 -4.00547 1.3092 0
M  V30 1941 H 176.958 -3.21014 0.41612 0
M  V30 1942 H 175.865 -2.63067 2.65982 0
M  V30 1943 H 177.198 -3.47512 3.48563 0
M  V30 1944 N 178.85 -1.27639 -0.924453 0
M  V30 1945 C 180.075 -1.17101 -1.71179 0
M  V30 1946 C 180.5 0.268134 -1.86179 0
M  V30 1947 O 179.858 1.19415 -1.36418 0
M  V30 1948 C 179.906 -1.86313 -3.08739 0
M  V30 1949 O 179.01 -1.16331 -3.95652 0
M  V30 1950 H 178.351 -0.407091 -0.524569 0
M  V30 1951 H 180.881 -1.68767 -1.15666 0
M  V30 1952 H 180.891 -1.938 -3.59034 0
M  V30 1953 H 179.566 -2.91001 -2.97138 0
M  V30 1954 H 178.143 -1.16935 -3.54091 0
M  V30 1955 N 180.328 1.1314 -1.09713 0
M  V30 1956 C 181.258 2.20748 -0.761102 0
M  V30 1957 C 182.239 1.68061 0.262566 0
M  V30 1958 O 183.424 1.93765 0.129977 0
M  V30 1959 C 180.554 3.46812 -0.184054 0
M  V30 1960 C 179.508 4.12606 -1.13757 0
M  V30 1961 C 178.834 5.33031 -0.422083 0
M  V30 1962 C 180.134 4.59603 -2.48118 0
M  V30 1963 H 181.828 2.49113 -1.66082 0
M  V30 1964 H 179.374 1.19734 -0.799987 0
M  V30 1965 H 181.327 4.21353 0.0631215 0
M  V30 1966 H 180.051 3.17851 0.750868 0
M  V30 1967 H 178.71 3.40036 -1.37007 0
M  V30 1968 H 178.358 5.00335 0.517072 0
M  V30 1969 H 178.058 5.77999 -1.05788 0
M  V30 1970 H 179.582 6.10325 -0.183277 0
M  V30 1971 H 180.996 5.25552 -2.29059 0
M  V30 1972 H 179.393 5.15321 -3.07514 0
M  V30 1973 H 180.463 3.73971 -3.08665 0
M  V30 1974 N 181.806 0.884767 1.30421 0
M  V30 1975 C 182.769 0.356277 2.26414 0
M  V30 1976 C 183.769 -0.501124 1.52792 0
M  V30 1977 O 184.959 -0.30831 1.7145 0
M  V30 1978 C 182.091 -0.492316 3.37326 0
M  V30 1979 H 183.284 1.20389 2.74675 0
M  V30 1980 H 180.837 0.661607 1.41607 0
M  V30 1981 H 181.572 -1.36052 2.94381 0
M  V30 1982 H 181.357 0.121832 3.91911 0
M  V30 1983 H 182.847 -0.853871 4.08777 0
M  V30 1984 N 183.284 -1.43765 0.645699 0
M  V30 1985 C 184.524 -2.03776 0.159542 0
M  V30 1986 C 184.888 -1.49792 -1.2011 0
M  V30 1987 O 186.089 -2.01398 -1.78023 0
M  V30 1988 C 184.36 -3.57036 0.161251 0
M  V30 1989 S 185.919 -4.3804 -0.258159 0
M  V30 1990 H 182.737 -0.707717 0.0682454 0
M  V30 1991 H 185.339 -1.75941 0.852352 0
M  V30 1992 H 184.043 -3.9383 1.15439 0
M  V30 1993 H 183.574 -3.89503 -0.552339 0
M  V30 1994 H 185.589 -4.7302 -1.49889 0
M  V30 1995 N 184.763 -0.387143 -1.52771 0
M  V30 1996 C 186.04 0.253197 -1.93954 0
M  V30 1997 C 186.42 1.64545 -1.32243 0
M  V30 1998 O 185.768 2.23191 -0.489699 0
M  V30 1999 C 185.978 0.281722 -3.47861 0
M  V30 2000 C 187.326 0.511715 -4.21505 0
M  V30 2001 O 188.35 0.362023 -3.54356 0
M  V30 2002 O 187.209 0.804847 -5.40541 0
M  V30 2003 H 184.303 0.156845 -0.811991 0
M  V30 2004 H 186.849 -0.441494 -1.63856 0
M  V30 2005 H 185.621 -0.693571 -3.85104 0
M  V30 2006 H 185.244 1.02142 -3.84256 0
M  V30 2007 N 186.241 1.57166 -0.116904 0
M  V30 2008 C 187.151 2.18745 0.847812 0
M  V30 2009 C 188.167 1.163 1.29423 0
M  V30 2010 O 189.343 1.48761 1.35765 0
M  V30 2011 C 186.408 2.77307 2.0809 0
M  V30 2012 C 185.469 3.94781 1.68661 0
M  V30 2013 C 184.702 4.50541 2.86091 0
M  V30 2014 O 184.925 4.05202 4.01456 0
M  V30 2015 O 183.859 5.41256 2.63298 0
M  V30 2016 H 187.685 3.01632 0.353778 0
M  V30 2017 H 185.27 1.49005 0.108599 0
M  V30 2018 H 187.152 3.14647 2.80313 0
M  V30 2019 H 185.827 1.97452 2.56504 0
M  V30 2020 H 184.734 3.62214 0.935518 0
M  V30 2021 H 186.067 4.76065 1.24991 0
M  V30 2022 N 187.719 -0.156864 1.56817 0
M  V30 2023 C 188.649 -1.19589 2.00551 0
M  V30 2024 C 189.63 -1.4536 0.883426 0
M  V30 2025 O 190.815 -1.56449 1.15054 0
M  V30 2026 C 187.945 -2.53143 2.37773 0
M  V30 2027 C 186.899 -2.41913 3.53075 0
M  V30 2028 C 186.225 -3.80088 3.76081 0
M  V30 2029 C 187.525 -1.91157 4.86062 0
M  V30 2030 H 189.219 -0.832293 2.87599 0
M  V30 2031 H 186.765 -0.398918 1.38364 0
M  V30 2032 H 188.718 -3.26047 2.66967 0
M  V30 2033 H 187.442 -2.91319 1.4765 0
M  V30 2034 H 186.101 -1.71462 3.24031 0
M  V30 2035 H 185.749 -4.15683 2.83225 0
M  V30 2036 H 185.449 -3.73439 4.53671 0
M  V30 2037 H 186.973 -4.54556 4.0769 0
M  V30 2038 H 188.387 -2.53846 5.14038 0
M  V30 2039 H 186.784 -1.95422 5.67389 0
M  V30 2040 H 187.854 -0.866673 4.77092 0
M  V30 2041 N 189.197 -1.51736 -0.425897 0
M  V30 2042 C 190.608 -1.5732 -1.00536 0
M  V30 2043 C 190.959 -0.403537 -1.92005 0
M  V30 2044 O 190.084 0.478256 -2.11049 0
M  V30 2045 C 190.679 -2.85119 -1.8301 0
M  V30 2046 C 189.238 -2.93236 -2.35987 0
M  V30 2047 C 188.385 -2.52098 -1.15508 0
M  V30 2048 H 191.336 -1.57348 -0.206739 0
M  V30 2049 H 191.357 -2.69526 -2.68581 0
M  V30 2050 H 190.869 -3.7023 -1.16411 0
M  V30 2051 H 188.97 -2.12581 -3.06007 0
M  V30 2052 H 189.083 -3.9713 -2.68001 0
M  V30 2053 H 187.447 -2.05558 -1.50393 0
M  V30 2054 H 188.23 -3.39565 -0.505014 0
M  V30 2055 N 190.675 0.682077 -1.42076 0
M  V30 2056 C 191.921 1.44428 -1.42367 0
M  V30 2057 C 192.254 1.94164 -0.0373056 0
M  V30 2058 O 191.529 1.70429 0.937239 0
M  V30 2059 C 191.812 2.64654 -2.44194 0
M  V30 2060 C 191.665 2.20596 -3.91991 0
M  V30 2061 C 192.984 3.66865 -2.431 0
M  V30 2062 H 190.103 0.523834 -0.518428 0
M  V30 2063 H 192.745 0.77576 -1.73442 0
M  V30 2064 H 190.895 3.2169 -2.17826 0
M  V30 2065 H 192.567 1.68783 -4.29313 0
M  V30 2066 H 190.81 1.52242 -4.06208 0
M  V30 2067 H 191.481 3.06921 -4.58807 0
M  V30 2068 H 193.957 3.19531 -2.66532 0
M  V30 2069 H 192.833 4.48577 -3.16339 0
M  V30 2070 H 193.094 4.17493 -1.45437 0
M  V30 2071 N 192.153 1.28127 0.917671 0
M  V30 2072 C 193.383 1.17722 1.6978 0
M  V30 2073 C 193.791 -0.267261 1.87303 0
M  V30 2074 O 193.134 -1.19286 1.39702 0
M  V30 2075 C 193.196 1.79958 3.11216 0
M  V30 2076 C 192.86 3.29187 3.16993 0
M  V30 2077 C 193.857 4.25679 2.98485 0
M  V30 2078 C 191.542 3.70075 3.39632 0
M  V30 2079 C 193.536 5.61035 3.02521 0
M  V30 2080 C 191.223 5.05557 3.433 0
M  V30 2081 C 192.221 6.00847 3.24764 0
M  V30 2082 O 191.909 7.33859 3.28187 0
M  V30 2083 H 191.641 0.409788 0.537634 0
M  V30 2084 H 194.195 1.69694 1.15728 0
M  V30 2085 H 192.425 1.22475 3.66793 0
M  V30 2086 H 194.114 1.64125 3.71238 0
M  V30 2087 H 194.88 3.95426 2.80826 0
M  V30 2088 H 190.759 2.96373 3.53106 0
M  V30 2089 H 194.303 6.35388 2.87971 0
M  V30 2090 H 190.2 5.35462 3.60486 0
M  V30 2091 H 190.968 7.42436 3.44575 0
M  V30 2092 N 193.631 -1.12557 1.10312 0
M  V30 2093 C 194.908 -1.80363 0.756878 0
M  V30 2094 C 195.288 -1.97067 -0.756824 0
M  V30 2095 O 194.636 -1.54601 -1.68259 0
M  V30 2096 C 194.846 -3.14812 1.50647 0
M  V30 2097 C 196.194 -3.90029 1.67817 0
M  V30 2098 O 197.218 -3.24464 1.46974 0
M  V30 2099 O 196.077 -5.07652 2.02365 0
M  V30 2100 H 193.171 -0.780667 0.272926 0
M  V30 2101 H 195.717 -1.19404 1.20586 0
M  V30 2102 H 194.489 -2.97936 2.53672 0
M  V30 2103 H 194.112 -3.83478 1.05026 0
M  V30 2104 N 195.109 -0.891671 -1.2995 0
M  V30 2105 C 196.525 -0.58662 -1.48428 0
M  V30 2106 C 196.725 0.873951 -1.81561 0
M  V30 2107 O 195.781 1.65471 -1.90724 0
M  V30 2108 C 197.094 -1.50553 -2.60296 0
M  V30 2109 C 198.642 -1.50988 -2.74175 0
M  V30 2110 C 199.117 -2.41488 -3.89163 0
M  V30 2111 N 200.608 -2.39489 -3.96483 0
M  V30 2112 C 201.343 -3.06223 -4.84784 0
M  V30 2113 N 200.839 -3.82206 -5.77833 0
M  V30 2114 N 202.632 -2.95421 -4.78208 0
M  V30 2115 H 194.783 -1.83644 -1.06718 0
M  V30 2116 H 197.046 -0.786455 -0.529332 0
M  V30 2117 H 196.752 -2.54581 -2.42654 0
M  V30 2118 H 196.626 -1.22008 -3.56923 0
M  V30 2119 H 199.013 -0.47708 -2.91218 0
M  V30 2120 H 199.094 -1.83567 -1.78148 0
M  V30 2121 H 198.738 -3.44857 -3.72876 0
M  V30 2122 H 198.668 -2.06222 -4.84541 0
M  V30 2123 H 201.159 -1.84278 -3.29924 0
M  V30 2124 H 201.472 -4.302 -6.41988 0
M  V30 2125 H 199.817 -3.86313 -5.77743 0
M  V30 2126 H 203.008 -2.35581 -4.04499 0
M  V30 2127 H 203.181 -3.47704 -5.46814 0
M  V30 2128 N 196.587 1.43421 -0.653314 0
M  V30 2129 C 197.835 2.01414 -0.166415 0
M  V30 2130 C 198.156 1.51803 1.22397 0
M  V30 2131 O 197.426 0.730693 1.81763 0
M  V30 2132 H 196.006 0.744703 -0.0585319 0
M  V30 2133 H 198.668 1.75629 -0.845003 0
M  V30 2134 H 197.764 3.11734 -0.151111 0
M  V30 2135 N 198.065 0.39524 1.52563 0
M  V30 2136 C 199.311 -0.185318 2.01952 0
M  V30 2137 C 199.644 -1.45964 1.28095 0
M  V30 2138 O 198.919 -1.90689 0.38315 0
M  V30 2139 C 199.202 -0.447193 3.57312 0
M  V30 2140 C 199.055 0.842828 4.41833 0
M  V30 2141 C 200.374 -1.23529 4.22408 0
M  V30 2142 H 197.493 -0.0658788 0.73405 0
M  V30 2143 H 200.135 0.525975 1.82575 0
M  V30 2144 H 198.285 -1.05312 3.73954 0
M  V30 2145 H 199.957 1.4795 4.36931 0
M  V30 2146 H 198.2 1.45686 4.08605 0
M  V30 2147 H 198.871 0.614165 5.48573 0
M  V30 2148 H 201.347 -0.722445 4.0978 0
M  V30 2149 H 200.223 -1.38727 5.3108 0
M  V30 2150 H 200.484 -2.25213 3.80436 0
M  V30 2151 N 199.544 -1.57102 0.125237 0
M  V30 2152 C 200.784 -1.97294 -0.534259 0
M  V30 2153 C 201.148 -1.0074 -1.63449 0
M  V30 2154 O 202.349 -1.29893 -2.35332 0
M  V30 2155 C 200.62 -3.41705 -1.04748 0
M  V30 2156 S 202.179 -4.03913 -1.71463 0
M  V30 2157 H 198.997 -0.689517 -0.173458 0
M  V30 2158 H 201.599 -1.94349 0.211797 0
M  V30 2159 H 200.303 -4.09723 -0.235649 0
M  V30 2160 H 199.834 -3.48315 -1.82867 0
M  V30 2161 H 201.849 -3.95182 -3.00077 0
M  V30 2162 N 201.022 0.148545 -1.56898 0
M  V30 2163 C 202.271 0.85984 -1.82454 0
M  V30 2164 C 202.584 1.82406 -0.706229 0
M  V30 2165 O 203.79 2.57938 -0.847349 0
M  V30 2166 C 202.246 1.57967 -3.2338 0
M  V30 2167 C 201.854 0.65794 -4.43142 0
M  V30 2168 C 203.598 2.27784 -3.58211 0
M  V30 2169 C 201.505 1.3793 -5.75091 0
M  V30 2170 H 200.435 0.324834 -0.68044 0
M  V30 2171 H 203.086 0.112588 -1.83154 0
M  V30 2172 H 201.468 2.37249 -3.17063 0
M  V30 2173 H 202.642 -0.0995497 -4.60692 0
M  V30 2174 H 200.957 0.0682643 -4.16344 0
M  V30 2175 H 203.554 2.8239 -4.54048 0
M  V30 2176 H 203.897 3.04204 -2.84193 0
M  V30 2177 H 204.43 1.55421 -3.66182 0
M  V30 2178 H 201.169 0.656982 -6.52199 0
M  V30 2179 H 200.689 2.10954 -5.61479 0
M  V30 2180 H 202.368 1.92063 -6.17835 0
M  V30 2181 N 202.5 1.5196 0.417844 0
M  V30 2182 C 203.725 1.69717 1.1921 0
M  V30 2183 C 204.15 0.402148 1.83751 0
M  V30 2184 O 203.508 -0.639593 1.69643 0
M  V30 2185 C 203.556 2.82794 2.2374 0
M  V30 2186 O 202.66 2.47756 3.29683 0
M  V30 2187 H 202.001 0.565263 0.348387 0
M  V30 2188 H 204.531 1.98621 0.490985 0
M  V30 2189 H 204.541 3.07452 2.68212 0
M  V30 2190 H 203.216 3.76756 1.76146 0
M  V30 2191 H 201.793 2.33739 2.90552 0
M  V30 2192 N 203.978 -0.674533 1.42435 0
M  V30 2193 C 205.389 -1.25514 1.38214 0
M  V30 2194 C 205.74 -1.96055 0.0755464 0
M  V30 2195 O 204.865 -2.00028 -0.8257 0
M  V30 2196 C 205.46 -2.28269 2.50357 0
M  V30 2197 C 204.019 -2.81856 2.49467 0
M  V30 2198 C 203.166 -1.56182 2.29134 0
M  V30 2199 H 206.117 -0.467902 1.51646 0
M  V30 2200 H 206.138 -3.10009 2.20624 0
M  V30 2201 H 205.65 -1.769 3.45439 0
M  V30 2202 H 203.751 -3.37346 1.58204 0
M  V30 2203 H 203.864 -3.30854 3.46515 0
M  V30 2204 H 202.228 -1.82761 1.774 0
M  V30 2205 H 203.011 -1.06778 3.26272 0
M  V30 2206 N 205.456 -1.28612 -0.910864 0
M  V30 2207 C 206.366 -1.14643 -2.0468 0
M  V30 2208 C 207.382 -0.0723121 -1.7385 0
M  V30 2209 O 208.558 -0.282178 -1.99413 0
M  V30 2210 C 205.623 -0.812561 -3.37044 0
M  V30 2211 C 204.684 -1.96935 -3.81465 0
M  V30 2212 C 203.917 -1.65131 -5.07511 0
M  V30 2213 O 204.14 -0.567013 -5.67575 0
M  V30 2214 O 203.074 -2.49585 -5.47714 0
M  V30 2215 H 206.9 -2.1001 -2.19384 0
M  V30 2216 H 204.485 -1.07958 -1.03274 0
M  V30 2217 H 206.367 -0.640441 -4.16505 0
M  V30 2218 H 205.042 0.111426 -3.23508 0
M  V30 2219 H 203.949 -2.19664 -3.02818 0
M  V30 2220 H 205.282 -2.87414 -3.99567 0
M  V30 2221 N 206.934 1.1197 -1.10907 0
M  V30 2222 C 207.897 2.16031 -0.765707 0
M  V30 2223 C 208.897 1.59393 0.212235 0
M  V30 2224 O 210.087 1.74196 -0.0115441 0
M  V30 2225 C 207.219 3.40632 -0.135053 0
M  V30 2226 H 208.412 2.47919 -1.68748 0
M  V30 2227 H 205.965 1.27061 -0.910226 0
M  V30 2228 H 206.7 3.14348 0.797218 0
M  V30 2229 H 206.485 3.8302 -0.838937 0
M  V30 2230 H 207.975 4.17505 0.0892469 0
M  V30 2231 N 208.412 0.89855 1.29475 0
M  V30 2232 C 209.661 0.519863 1.94885 0
M  V30 2233 C 209.974 -0.9383 1.71625 0
M  V30 2234 O 211.18 -1.42445 2.31131 0
M  V30 2235 C 209.636 0.878836 3.49005 0
M  V30 2236 C 209.244 2.35569 3.81066 0
M  V30 2237 C 210.988 0.570004 4.20656 0
M  V30 2238 C 208.895 2.65558 5.28425 0
M  V30 2239 H 207.825 0.190692 0.729488 0
M  V30 2240 H 210.476 1.09539 1.47219 0
M  V30 2241 H 208.858 0.232253 3.95318 0
M  V30 2242 H 210.032 3.04773 3.45616 0
M  V30 2243 H 208.347 2.63343 3.22552 0
M  V30 2244 H 210.944 0.770925 5.29113 0
M  V30 2245 H 211.287 -0.491404 4.1339 0
M  V30 2246 H 211.82 1.17438 3.8007 0
M  V30 2247 H 208.559 3.70493 5.40754 0
M  V30 2248 H 208.079 2.00977 5.65127 0
M  V30 2249 H 209.758 2.51765 5.96006 0
M  V30 2250 N 209.89 -1.43072 0.660911 0
M  V30 2251 C 211.136 -2.0202 0.177708 0
M  V30 2252 C 211.469 -1.52066 -1.20787 0
M  V30 2253 O 210.744 -0.716987 -1.80802 0
M  V30 2254 C 211.027 -3.59561 0.197019 0
M  V30 2255 C 210.88 -4.19727 1.61706 0
M  V30 2256 C 212.199 -4.37664 -0.462396 0
M  V30 2257 H 209.318 -0.734034 0.0660494 0
M  V30 2258 H 211.96 -1.70272 0.843058 0
M  V30 2259 H 210.11 -3.86739 -0.369527 0
M  V30 2260 H 211.782 -4.03553 2.23479 0
M  V30 2261 H 210.025 -3.76084 2.16201 0
M  V30 2262 H 210.696 -5.28834 1.58237 0
M  V30 2263 H 213.172 -4.16095 0.0197215 0
M  V30 2264 H 212.048 -5.47305 -0.418188 0
M  V30 2265 H 212.309 -4.14493 -1.53778 0
M  V30 2266 N 211.368 -0.403325 -1.52352 0
M  V30 2267 C 212.596 0.174012 -2.06167 0
M  V30 2268 C 213.011 1.39347 -1.27388 0
M  V30 2269 O 212.368 1.79597 -0.324201 0
M  V30 2270 C 212.419 0.530223 -3.5759 0
M  V30 2271 O 212.14 -0.640806 -4.33388 0
M  V30 2272 C 213.641 1.16192 -4.27802 0
M  V30 2273 H 210.861 0.0229464 -0.670608 0
M  V30 2274 H 213.405 -0.572604 -1.9632 0
M  V30 2275 H 211.56 1.22673 -3.67464 0
M  V30 2276 H 211.974 -0.344851 -5.23365 0
M  V30 2277 H 213.448 1.36141 -5.34948 0
M  V30 2278 H 213.925 2.13335 -3.83907 0
M  V30 2279 H 214.531 0.505775 -4.22282 0
M  V30 2280 N 212.846 1.57033 -0.133567 0
M  V30 2281 C 214.123 1.87256 0.56522 0
M  V30 2282 C 214.503 1.03726 1.83859 0
M  V30 2283 O 213.851 0.120247 2.28183 0
M  V30 2284 C 214.061 3.3865 0.843636 0
M  V30 2285 C 215.409 4.07574 1.19032 0
M  V30 2286 O 216.433 3.43752 0.933429 0
M  V30 2287 O 215.292 5.20259 1.67312 0
M  V30 2288 H 212.386 0.775678 0.286796 0
M  V30 2289 H 214.932 1.68855 -0.169168 0
M  V30 2290 H 213.704 3.91257 -0.0581149 0
M  V30 2291 H 213.327 3.62532 1.63268 0
M  V30 2292 N 214.325 -0.140222 1.56975 0
M  V30 2293 C 215.255 -1.17456 2.01808 0
M  V30 2294 C 216.236 -1.44415 0.898794 0
M  V30 2295 O 217.421 -1.5522 1.16707 0
M  V30 2296 C 214.551 -2.50607 2.40444 0
M  V30 2297 C 213.505 -2.38155 3.55621 0
M  V30 2298 C 212.831 -3.76078 3.80091 0
M  V30 2299 C 214.131 -1.85991 4.88062 0
M  V30 2300 H 215.825 -0.801743 2.88466 0
M  V30 2301 H 213.371 -0.38422 1.38779 0
M  V30 2302 H 215.324 -3.23197 2.7041 0
M  V30 2303 H 214.048 -2.89737 1.50732 0
M  V30 2304 H 212.707 -1.68016 3.25832 0
M  V30 2305 H 212.355 -4.12656 2.87618 0
M  V30 2306 H 212.055 -3.68606 4.57606 0
M  V30 2307 H 213.579 -4.50206 4.12488 0
M  V30 2308 H 214.993 -2.4838 5.16701 0
M  V30 2309 H 213.39 -1.89393 5.6943 0
M  V30 2310 H 214.46 -0.816023 4.77984 0
M  V30 2311 N 215.803 -1.52179 -0.40978 0
M  V30 2312 C 217.214 -1.58377 -0.988615 0
M  V30 2313 C 217.565 -0.423879 -1.91566 0
M  V30 2314 O 216.69 0.455844 -2.11544 0
M  V30 2315 C 217.285 -2.87044 -1.79976 0
M  V30 2316 C 215.844 -2.95722 -2.32863 0
M  V30 2317 C 214.991 -2.53309 -1.12828 0
M  V30 2318 H 217.942 -1.57558 -0.190039 0
M  V30 2319 H 217.963 -2.7236 -2.65707 0
M  V30 2320 H 217.475 -3.71444 -1.12478 0
M  V30 2321 H 215.576 -2.15814 -3.03735 0
M  V30 2322 H 215.689 -3.99951 -2.63773 0
M  V30 2323 H 214.053 -2.07142 -1.48204 0
M  V30 2324 H 214.836 -3.40082 -0.46897 0
M  V30 2325 N 217.281 0.66697 -1.42791 0
M  V30 2326 C 218.191 1.80962 -1.49299 0
M  V30 2327 C 219.207 1.69775 -0.381108 0
M  V30 2328 O 220.383 1.91188 -0.633188 0
M  V30 2329 C 217.448 3.17156 -1.40045 0
M  V30 2330 C 216.509 3.40242 -2.6179 0
M  V30 2331 C 215.742 4.69939 -2.52969 0
M  V30 2332 O 215.965 5.48372 -1.56985 0
M  V30 2333 O 214.899 4.94441 -3.43237 0
M  V30 2334 H 218.725 1.78427 -2.45759 0
M  V30 2335 H 216.31 0.823713 -1.24641 0
M  V30 2336 H 218.192 3.98413 -1.37276 0
M  V30 2337 H 216.867 3.20312 -0.467138 0
M  V30 2338 H 215.774 2.58802 -2.70134 0
M  V30 2339 H 217.107 3.41923 -3.54047 0
M  V30 2340 N 218.759 1.29093 0.90403 0
M  V30 2341 C 220.036 1.075 1.63411 0
M  V30 2342 C 220.416 -0.382346 2.07609 0
M  V30 2343 O 219.764 -1.37031 1.82851 0
M  V30 2344 C 219.974 2.05858 2.81822 0
M  V30 2345 C 221.322 2.36539 3.52611 0
M  V30 2346 O 222.346 2.04019 2.91984 0
M  V30 2347 O 221.205 2.92085 4.61897 0
M  V30 2348 H 218.299 0.411547 0.717327 0
M  V30 2349 H 220.845 1.40449 0.952479 0
M  V30 2350 H 219.617 3.04037 2.46327 0
M  V30 2351 H 219.24 1.73613 3.57693 0
M  V30 2352 N 220.237 -1.11381 1.11499 0
M  V30 2353 C 221.483 -1.83403 0.865512 0
M  V30 2354 C 221.816 -1.84459 -0.607329 0
M  V30 2355 O 221.091 -1.29811 -1.44842 0
M  V30 2356 C 221.374 -3.30552 1.42855 0
M  V30 2357 C 221.227 -3.37886 2.96906 0
M  V30 2358 C 222.546 -4.26643 1.08 0
M  V30 2359 H 219.665 -0.665879 0.31587 0
M  V30 2360 H 222.307 -1.30601 1.37998 0
M  V30 2361 H 220.457 -3.75648 0.990985 0
M  V30 2362 H 222.129 -3.01343 3.49271 0
M  V30 2363 H 220.372 -2.78088 3.32941 0
M  V30 2364 H 221.043 -4.41458 3.31389 0
M  V30 2365 H 223.519 -3.89729 1.45775 0
M  V30 2366 H 222.395 -5.27986 1.50072 0
M  V30 2367 H 222.656 -4.42099 -0.00915037 0
M  V30 2368 N 221.715 -0.905404 -1.28997 0
M  V30 2369 C 222.662 -0.385892 -2.27551 0
M  V30 2370 C 223.632 0.535113 -1.57244 0
M  V30 2371 O 224.817 0.459119 -1.85194 0
M  V30 2372 C 221.957 0.375461 -3.43051 0
M  V30 2373 C 221.07 -0.577092 -4.28128 0
M  V30 2374 C 220.205 0.201879 -5.30816 0
M  V30 2375 C 219.244 -0.744829 -6.07551 0
M  V30 2376 N 218.381 9.42587e-05 -7.021 0
M  V30 2377 H 223.221 -1.23139 -2.71368 0
M  V30 2378 H 220.758 -0.618542 -1.33463 0
M  V30 2379 H 222.716 0.832992 -4.088 0
M  V30 2380 H 221.346 1.18537 -3.00248 0
M  V30 2381 H 220.398 -1.15315 -3.62501 0
M  V30 2382 H 221.71 -1.30152 -4.8152 0
M  V30 2383 H 220.864 0.720351 -6.02408 0
M  V30 2384 H 219.603 0.959413 -4.7817 0
M  V30 2385 H 218.608 -1.27475 -5.34818 0
M  V30 2386 H 219.833 -1.50178 -6.62286 0
M  V30 2387 H 217.779 0.739791 -6.51815 0
M  V30 2388 H 217.696 -0.664321 -7.53076 0
M  V30 2389 H 218.964 0.498644 -7.77903 0
M  V30 2390 N 223.193 1.4272 -0.668489 0
M  V30 2391 C 224.439 2.02443 -0.197076 0
M  V30 2392 C 224.794 1.51882 1.18109 0
M  V30 2393 O 224.087 0.708618 1.78015 0
M  V30 2394 C 224.281 3.57021 -0.164499 0
M  V30 2395 C 224.11 4.22583 -1.53797 0
M  V30 2396 C 222.88 4.58019 -2.13416 0
M  V30 2397 C 225.078 4.50588 -2.47941 0
M  V30 2398 N 223.06 5.08729 -3.4361 0
M  V30 2399 C 224.431 5.02782 -3.62782 0
M  V30 2400 C 226.486 4.32571 -2.46551 0
M  V30 2401 C 225.189 5.38852 -4.76478 0
M  V30 2402 C 227.215 4.69713 -3.59338 0
M  V30 2403 C 226.577 5.22053 -4.72906 0
M  V30 2404 H 222.676 0.773214 -0.116894 0
M  V30 2405 H 225.26 1.73673 -0.880108 0
M  V30 2406 H 223.431 3.85323 0.487925 0
M  V30 2407 H 225.163 4.03439 0.319207 0
M  V30 2408 H 221.918 4.43566 -1.65969 0
M  V30 2409 H 222.342 5.38521 -4.10273 0
M  V30 2410 H 226.984 3.91365 -1.59978 0
M  V30 2411 H 224.702 5.78993 -5.63731 0
M  V30 2412 H 228.288 4.57454 -3.59482 0
M  V30 2413 H 227.168 5.50258 -5.58736 0
M  V30 2414 N 224.671 0.411399 1.52136 0
M  V30 2415 C 225.92 -0.165009 2.01024 0
M  V30 2416 C 226.233 -1.4603 1.30133 0
M  V30 2417 O 227.439 -2.1181 1.69849 0
M  V30 2418 C 225.895 -0.344618 3.58246 0
M  V30 2419 C 225.503 0.938716 4.38055 0
M  V30 2420 C 227.247 -0.876195 4.15359 0
M  V30 2421 C 225.154 0.726172 5.86925 0
M  V30 2422 H 224.084 -0.0654407 0.751155 0
M  V30 2423 H 226.735 0.537192 1.75461 0
M  V30 2424 H 225.117 -1.10921 3.80148 0
M  V30 2425 H 226.291 1.70963 4.27912 0
M  V30 2426 H 224.606 1.39688 3.92271 0
M  V30 2427 H 227.203 -1.05128 5.24263 0
M  V30 2428 H 227.546 -1.85152 3.7286 0
M  V30 2429 H 228.079 -0.170607 3.97434 0
M  V30 2430 H 224.818 1.67312 6.33788 0
M  V30 2431 H 224.338 -0.00540283 5.998 0
M  V30 2432 H 226.017 0.369231 6.45946 0
M  V30 2433 N 226.149 -1.5696 0.141893 0
M  V30 2434 C 227.426 -1.87553 -0.555281 0
M  V30 2435 C 227.806 -1.04699 -1.83306 0
M  V30 2436 O 227.154 -0.132346 -2.28116 0
M  V30 2437 C 227.364 -3.39093 -0.825664 0
M  V30 2438 C 228.712 -4.08199 -1.16869 0
M  V30 2439 O 229.736 -3.44242 -0.915185 0
M  V30 2440 O 228.595 -5.21139 -1.6455 0
M  V30 2441 H 225.689 -0.777188 -0.282679 0
M  V30 2442 H 228.235 -1.68763 0.17812 0
M  V30 2443 H 227.007 -3.91221 0.0788633 0
M  V30 2444 H 226.63 -3.63393 -1.61343 0
M  V30 2445 N 227.627 0.131896 -1.57047 0
M  V30 2446 C 228.876 0.84044 -1.83356 0
M  V30 2447 C 229.189 1.81646 -0.725535 0
M  V30 2448 O 230.395 2.57025 -0.874659 0
M  V30 2449 C 228.851 1.54528 -3.25037 0
M  V30 2450 C 228.459 0.610902 -4.43815 0
M  V30 2451 C 230.203 2.23972 -3.60606 0
M  V30 2452 C 228.11 1.31823 -5.76521 0
M  V30 2453 H 227.04 0.317599 -0.683847 0
M  V30 2454 H 229.691 0.0931561 -1.83263 0
M  V30 2455 H 228.073 2.33873 -3.19561 0
M  V30 2456 H 229.247 -0.148407 -4.60561 0
M  V30 2457 H 227.562 0.0241016 -4.16393 0
M  V30 2458 H 230.159 2.77558 -4.57018 0
M  V30 2459 H 230.502 3.01173 -2.87403 0
M  V30 2460 H 231.035 1.51529 -3.6781 0
M  V30 2461 H 227.774 0.587771 -6.52859 0
M  V30 2462 H 227.294 2.04987 -5.63685 0
M  V30 2463 H 228.973 1.855 -6.19838 0
M  V30 2464 N 229.106 1.52395 0.401703 0
M  V30 2465 C 230.334 1.70676 1.16949 0
M  V30 2466 C 230.749 0.419503 1.8408 0
M  V30 2467 O 230.106 -0.605061 1.72178 0
M  V30 2468 C 230.157 2.84753 2.22706 0
M  V30 2469 O 229.878 4.08495 1.58314 0
M  V30 2470 C 231.379 3.14608 3.12309 0
M  V30 2471 H 228.599 0.571787 0.351142 0
M  V30 2472 H 231.143 1.98987 0.471652 0
M  V30 2473 H 229.298 2.58941 2.88147 0
M  V30 2474 H 229.712 4.72117 2.28485 0
M  V30 2475 H 231.186 3.97923 3.82572 0
M  V30 2476 H 231.663 2.28464 3.75101 0
M  V30 2477 H 232.269 3.42212 2.52529 0
M  V30 2478 N 230.584 -0.659388 1.43143 0
M  V30 2479 C 231.995 -1.24041 1.39537 0
M  V30 2480 C 232.346 -1.95963 0.0963364 0
M  V30 2481 O 231.471 -2.00892 -0.804438 0
M  V30 2482 C 232.066 -2.25601 2.52764 0
M  V30 2483 C 230.625 -2.79195 2.52443 0
M  V30 2484 C 229.772 -1.53743 2.30778 0
M  V30 2485 H 232.723 -0.451792 1.52133 0
M  V30 2486 H 232.744 -3.07651 2.23899 0
M  V30 2487 H 232.256 -1.73226 3.47296 0
M  V30 2488 H 230.357 -3.35649 1.61773 0
M  V30 2489 H 230.47 -3.2716 3.50004 0
M  V30 2490 H 228.834 -1.80869 1.79328 0
M  V30 2491 H 229.617 -1.03312 3.27386 0
M  V30 2492 N 232.062 -1.29571 -0.897171 0
M  V30 2493 C 233.339 -1.08365 -1.62839 0
M  V30 2494 C 233.719 0.371331 -2.07808 0
M  V30 2495 O 233.067 1.3606 -1.83576 0
M  V30 2496 C 233.277 -2.0735 -2.80726 0
M  V30 2497 C 234.625 -2.38406 -3.51351 0
M  V30 2498 O 235.649 -2.05564 -2.90898 0
M  V30 2499 O 234.508 -2.9453 -4.60341 0
M  V30 2500 H 231.602 -0.415345 -0.715134 0
M  V30 2501 H 234.148 -1.40952 -0.945018 0
M  V30 2502 H 232.92 -3.05339 -2.44711 0
M  V30 2503 H 232.543 -1.75507 -3.56767 0
M  V30 2504 N 233.54 1.10788 -1.12088 0
M  V30 2505 C 234.473 2.16237 -0.729168 0
M  V30 2506 C 235.451 1.60207 0.277921 0
M  V30 2507 O 236.635 1.87707 0.172737 0
M  V30 2508 C 233.762 3.38609 -0.0786848 0
M  V30 2509 C 232.808 4.13322 -1.05201 0
M  V30 2510 S 233.641 4.69371 -2.57781 0
M  V30 2511 C 234.797 5.95058 -1.94053 0
M  V30 2512 H 235.03 2.4913 -1.62239 0
M  V30 2513 H 232.563 1.22519 -0.939603 0
M  V30 2514 H 234.521 4.09473 0.290254 0
M  V30 2515 H 233.182 3.03962 0.791593 0
M  V30 2516 H 232.375 5.01051 -0.544433 0
M  V30 2517 H 231.977 3.48251 -1.36371 0
M  V30 2518 H 234.269 6.65278 -1.28107 0
M  V30 2519 H 235.212 6.50472 -2.79807 0
M  V30 2520 H 235.62 5.46918 -1.39787 0
M  V30 2521 N 235.018 0.912232 1.28515 0
M  V30 2522 C 235.951 0.343928 2.25593 0
M  V30 2523 C 236.929 -0.550994 1.5298 0
M  V30 2524 O 238.113 -0.494991 1.81885 0
M  V30 2525 C 235.24 -0.508525 3.34861 0
M  V30 2526 C 234.286 0.320808 4.25292 0
M  V30 2527 S 235.119 1.72658 5.06902 0
M  V30 2528 C 236.275 0.881394 6.19663 0
M  V30 2529 H 236.508 1.16674 2.73449 0
M  V30 2530 H 234.041 0.713384 1.36931 0
M  V30 2531 H 235.999 -0.994539 3.9827 0
M  V30 2532 H 234.66 -1.30571 2.85675 0
M  V30 2533 H 233.853 -0.330941 5.02912 0
M  V30 2534 H 233.455 0.74042 3.66598 0
M  V30 2535 H 235.747 0.110359 6.7741 0
M  V30 2536 H 236.69 1.63009 6.89082 0
M  V30 2537 H 237.098 0.430239 5.62858 0
M  V30 2538 N 236.496 -1.42363 0.676048 0
M  V30 2539 C 237.742 -2.0182 0.199125 0
M  V30 2540 C 238.075 -1.53339 -1.19168 0
M  V30 2541 O 237.35 -0.736124 -1.80032 0
M  V30 2542 C 237.633 -3.59331 0.235144 0
M  V30 2543 C 237.486 -4.17989 1.66149 0
M  V30 2544 C 238.805 -4.3813 -0.41595 0
M  V30 2545 H 235.924 -0.733293 0.0738311 0
M  V30 2546 H 238.566 -1.69368 0.86107 0
M  V30 2547 H 236.716 -3.87109 -0.328487 0
M  V30 2548 H 238.388 -4.0116 2.27747 0
M  V30 2549 H 236.631 -3.7377 2.20178 0
M  V30 2550 H 237.302 -5.27126 1.63837 0
M  V30 2551 H 239.778 -4.16051 0.0638529 0
M  V30 2552 H 238.654 -5.47717 -0.360115 0
M  V30 2553 H 238.915 -4.16101 -1.49373 0
M  V30 2554 N 237.974 -0.419461 -1.51915 0
M  V30 2555 C 238.906 0.43646 -2.25006 0
M  V30 2556 C 239.919 1.00149 -1.28351 0
M  V30 2557 O 241.108 0.898674 -1.54227 0
M  V30 2558 C 238.208 1.6206 -2.9764 0
M  V30 2559 C 237.381 1.17763 -4.21249 0
M  V30 2560 C 236.44 2.22985 -4.76617 0
M  V30 2561 O 235.466 1.83151 -5.38929 0
M  V30 2562 N 236.668 3.55271 -4.59089 0
M  V30 2563 H 239.433 -0.18989 -2.99098 0
M  V30 2564 H 236.994 -0.247386 -1.59999 0
M  V30 2565 H 238.986 2.32038 -3.31573 0
M  V30 2566 H 237.556 2.15266 -2.2667 0
M  V30 2567 H 236.776 0.305582 -3.93014 0
M  V30 2568 H 238.064 0.858781 -5.015 0
M  V30 2569 H 237.462 3.90377 -4.09417 0
M  V30 2570 H 236.019 4.21195 -4.97432 0
M  V30 2571 N 239.452 1.56882 -0.150215 0
M  V30 2572 C 240.362 2.20494 0.801222 0
M  V30 2573 C 241.378 1.19019 1.26927 0
M  V30 2574 O 242.554 1.51607 1.32579 0
M  V30 2575 C 239.619 2.81659 2.02161 0
M  V30 2576 C 238.68 3.9827 1.60249 0
M  V30 2577 C 237.913 4.56508 2.7647 0
M  V30 2578 O 238.136 4.13627 3.92771 0
M  V30 2579 O 237.07 5.46719 2.51757 0
M  V30 2580 H 240.896 3.02315 0.289717 0
M  V30 2581 H 238.481 1.49202 0.0769684 0
M  V30 2582 H 240.363 3.20522 2.73576 0
M  V30 2583 H 239.038 2.02849 2.52258 0
M  V30 2584 H 237.945 3.64117 0.858477 0
M  V30 2585 H 239.278 4.78609 1.14864 0
M  V30 2586 N 240.93 -0.123565 1.57115 0
M  V30 2587 C 242.346 -0.476961 1.52306 0
M  V30 2588 C 242.546 -1.82109 0.86248 0
M  V30 2589 O 241.602 -2.48586 0.442884 0
M  V30 2590 C 242.915 -0.465661 2.97073 0
M  V30 2591 C 244.463 -0.549534 3.08138 0
M  V30 2592 C 244.938 -0.568669 4.54456 0
M  V30 2593 N 246.429 -0.630237 4.58892 0
M  V30 2594 C 247.164 -0.666415 5.69514 0
M  V30 2595 N 246.66 -0.660514 6.89644 0
M  V30 2596 N 248.453 -0.709077 5.5761 0
M  V30 2597 H 240.604 0.757198 1.98445 0
M  V30 2598 H 242.867 0.278808 0.906074 0
M  V30 2599 H 242.573 0.454232 3.48754 0
M  V30 2600 H 242.447 -1.29513 3.54269 0
M  V30 2601 H 244.834 -1.45985 2.56461 0
M  V30 2602 H 244.915 0.307532 2.53945 0
M  V30 2603 H 244.559 0.337581 5.06777 0
M  V30 2604 H 244.489 -1.44256 5.06456 0
M  V30 2605 H 246.98 -0.641146 3.72421 0
M  V30 2606 H 247.293 -0.690616 7.69708 0
M  V30 2607 H 245.638 -0.628012 6.92157 0
M  V30 2608 H 248.829 -0.711019 4.62668 0
M  V30 2609 H 249.002 -0.733804 6.43832 0
M  V30 2610 N 242.408 -1.52605 -0.393616 0
M  V30 2611 C 243.819 -1.59417 -0.971761 0
M  V30 2612 C 244.17 -0.444173 -1.91106 0
M  V30 2613 O 243.295 0.433382 -2.12016 0
M  V30 2614 C 243.89 -2.88936 -1.76921 0
M  V30 2615 C 242.449 -2.98175 -2.29714 0
M  V30 2616 C 241.596 -2.54491 -1.10135 0
M  V30 2617 H 244.547 -1.57751 -0.173317 0
M  V30 2618 H 244.568 -2.75163 -2.62804 0
M  V30 2619 H 244.08 -3.72616 -1.08532 0
M  V30 2620 H 242.181 -2.19024 -3.01429 0
M  V30 2621 H 242.294 -4.02726 -2.59517 0
M  V30 2622 H 240.658 -2.08702 -1.45999 0
M  V30 2623 H 241.441 -3.4056 -0.432874 0
M  V30 2624 N 243.887 0.651787 -1.4349 0
M  V30 2625 C 244.817 1.77621 -1.51569 0
M  V30 2626 C 245.798 1.66022 -0.370253 0
M  V30 2627 O 246.983 1.85095 -0.587658 0
M  V30 2628 C 244.113 3.16056 -1.43966 0
M  V30 2629 C 243.067 3.4242 -2.56774 0
M  V30 2630 C 242.393 4.8067 -2.34223 0
M  V30 2631 C 243.693 3.37023 -3.99015 0
M  V30 2632 H 245.387 1.71117 -2.45681 0
M  V30 2633 H 242.933 0.821825 -1.18246 0
M  V30 2634 H 244.886 3.94472 -1.48221 0
M  V30 2635 H 243.61 3.23293 -0.463586 0
M  V30 2636 H 242.269 2.66375 -2.51873 0
M  V30 2637 H 241.917 4.84585 -1.34856 0
M  V30 2638 H 241.617 4.9927 -3.09844 0
M  V30 2639 H 243.141 5.61342 -2.40265 0
M  V30 2640 H 244.555 4.05374 -4.05395 0
M  V30 2641 H 242.952 3.67159 -4.74673 0
M  V30 2642 H 244.022 2.3518 -4.2405 0
M  V30 2643 N 245.365 1.30045 0.890287 0
M  V30 2644 C 246.642 1.09227 1.62262 0
M  V30 2645 C 247.022 -0.360305 2.08002 0
M  V30 2646 O 246.37 -1.35084 1.84295 0
M  V30 2647 C 246.58 2.08835 2.79623 0
M  V30 2648 C 247.928 2.40266 3.50082 0
M  V30 2649 O 248.952 2.07104 2.89804 0
M  V30 2650 O 247.811 2.96967 4.58773 0
M  V30 2651 H 244.905 0.419132 0.712922 0
M  V30 2652 H 247.451 1.41451 0.937529 0
M  V30 2653 H 246.223 3.06633 2.43089 0
M  V30 2654 H 245.846 1.77397 3.55832 0
M  V30 2655 N 246.843 -1.10192 1.12674 0
M  V30 2656 C 248.089 -1.82475 0.884915 0
M  V30 2657 C 248.422 -1.85093 -0.58773 0
M  V30 2658 O 247.697 -1.3134 -1.43457 0
M  V30 2659 C 247.98 -3.29018 1.46353 0
M  V30 2660 C 247.833 -3.34718 3.00473 0
M  V30 2661 C 249.152 -4.25473 1.12519 0
M  V30 2662 H 246.271 -0.662492 0.322915 0
M  V30 2663 H 248.913 -1.2913 1.39375 0
M  V30 2664 H 247.063 -3.74576 1.03077 0
M  V30 2665 H 248.735 -2.97622 3.52447 0
M  V30 2666 H 246.978 -2.74541 3.35872 0
M  V30 2667 H 247.649 -4.37918 3.36053 0
M  V30 2668 H 250.125 -3.88161 1.499 0
M  V30 2669 H 249.001 -5.26365 1.55663 0
M  V30 2670 H 249.262 -4.42084 0.0377407 0
M  V30 2671 N 248.321 -0.919034 -1.28029 0
M  V30 2672 C 249.598 -0.473668 -1.89778 0
M  V30 2673 C 249.978 1.04783 -1.83259 0
M  V30 2674 O 249.326 1.8982 -1.27202 0
M  V30 2675 C 249.536 -1.00998 -3.34066 0
M  V30 2676 C 250.884 -1.06525 -4.1102 0
M  V30 2677 O 251.908 -0.958996 -3.43048 0
M  V30 2678 O 250.767 -1.22776 -5.3253 0
M  V30 2679 H 247.861 -0.15098 -0.813101 0
M  V30 2680 H 250.407 -1.01016 -1.36359 0
M  V30 2681 H 249.179 -2.05392 -3.33061 0
M  V30 2682 H 248.802 -0.454626 -3.94992 0
M  V30 2683 N 249.799 1.42003 -0.683588 0
M  V30 2684 C 251.039 2.03282 -0.213513 0
M  V30 2685 C 251.403 1.52924 1.16097 0
M  V30 2686 O 252.604 2.06048 1.7262 0
M  V30 2687 C 250.875 3.56483 -0.255856 0
M  V30 2688 S 252.434 4.3857 0.14193 0
M  V30 2689 H 249.252 0.705659 -0.0869853 0
M  V30 2690 H 251.854 1.73619 -0.8987 0
M  V30 2691 H 250.558 3.90631 -1.25841 0
M  V30 2692 H 250.089 3.90831 0.448875 0
M  V30 2693 H 252.104 4.76828 1.37295 0
M  V30 2694 N 251.277 0.427512 1.51691 0
M  V30 2695 C 252.224 -0.388867 2.275 0
M  V30 2696 C 253.194 -1.02532 1.30677 0
M  V30 2697 O 254.379 -1.0461 1.59566 0
M  V30 2698 C 251.519 -1.48954 3.11298 0
M  V30 2699 C 250.632 -0.872194 4.23104 0
M  V30 2700 C 249.767 -1.94709 4.94228 0
M  V30 2701 C 248.806 -1.30766 5.97969 0
M  V30 2702 N 247.943 -2.32349 6.62539 0
M  V30 2703 H 252.783 0.263997 2.96828 0
M  V30 2704 H 250.32 0.142033 1.46413 0
M  V30 2705 H 252.278 -2.13887 3.58201 0
M  V30 2706 H 250.908 -2.11217 2.44105 0
M  V30 2707 H 249.96 -0.111419 3.80237 0
M  V30 2708 H 251.272 -0.365264 4.97461 0
M  V30 2709 H 250.426 -2.67327 5.44629 0
M  V30 2710 H 249.165 -2.48773 4.1948 0
M  V30 2711 H 248.17 -0.566902 5.4687 0
M  V30 2712 H 249.395 -0.774483 6.74669 0
M  V30 2713 H 247.341 -2.85511 5.90609 0
M  V30 2714 H 247.258 -1.8652 7.3263 0
M  V30 2715 H 248.526 -3.04481 7.17574 0
M  V30 2716 N 252.755 -1.56801 0.158532 0
M  V30 2717 C 254.171 -1.5837 -0.197774 0
M  V30 2718 C 254.371 -1.17334 -1.63814 0
M  V30 2719 O 253.427 -0.878988 -2.36707 0
M  V30 2720 C 254.74 -3.00615 0.0714459 0
M  V30 2721 C 256.288 -3.12999 0.00864533 0
M  V30 2722 C 256.763 -4.57313 0.250685 0
M  V30 2723 N 258.254 -4.62777 0.198014 0
M  V30 2724 C 258.989 -5.72271 0.359642 0
M  V30 2725 N 258.485 -6.90371 0.579625 0
M  V30 2726 N 260.278 -5.61318 0.296438 0
M  V30 2727 H 252.429 -1.81765 1.09887 0
M  V30 2728 H 254.692 -0.841849 0.435884 0
M  V30 2729 H 254.398 -3.35068 1.06874 0
M  V30 2730 H 254.272 -3.71683 -0.642757 0
M  V30 2731 H 256.659 -2.7838 -0.979217 0
M  V30 2732 H 256.74 -2.44393 0.755359 0
M  V30 2733 H 256.384 -4.92639 1.2357 0
M  V30 2734 H 256.314 -5.24061 -0.516489 0
M  V30 2735 H 258.805 -3.77885 0.0331115 0
M  V30 2736 H 259.118 -7.69689 0.69275 0
M  V30 2737 H 257.463 -6.92264 0.616087 0
M  V30 2738 H 260.654 -4.67932 0.125258 0
M  V30 2739 H 260.827 -6.46599 0.425831 0
M  V30 2740 N 254.233 0.115231 -1.57178 0
M  V30 2741 C 255.163 1.1423 -2.03651 0
M  V30 2742 C 256.144 1.42967 -0.921655 0
M  V30 2743 O 257.329 1.53343 -1.19162 0
M  V30 2744 C 254.459 2.4675 -2.44401 0
M  V30 2745 C 253.413 2.32467 -3.59365 0
M  V30 2746 C 252.739 3.69984 -3.86026 0
M  V30 2747 C 254.039 1.78203 -4.90959 0
M  V30 2748 H 255.733 0.755749 -2.89705 0
M  V30 2749 H 253.279 0.362093 -1.39373 0
M  V30 2750 H 255.232 3.18854 -2.75517 0
M  V30 2751 H 253.956 2.87302 -1.55322 0
M  V30 2752 H 252.615 1.62811 -3.28463 0
M  V30 2753 H 252.263 4.08028 -2.94147 0
M  V30 2754 H 251.963 3.61279 -4.63412 0
M  V30 2755 H 253.487 4.43587 -4.19599 0
M  V30 2756 H 254.901 2.40128 -5.20587 0
M  V30 2757 H 253.298 1.8031 -5.72371 0
M  V30 2758 H 254.368 0.739876 -4.79222 0
M  V30 2759 N 255.711 1.52812 0.385517 0
M  V30 2760 C 256.936 1.72207 1.15583 0
M  V30 2761 C 257.361 0.441034 1.82857 0
M  V30 2762 O 256.719 -0.603465 1.70962 0
M  V30 2763 C 256.767 2.87476 2.17692 0
M  V30 2764 O 255.871 2.54693 3.24354 0
M  V30 2765 H 255.212 0.572526 0.336319 0
M  V30 2766 H 257.742 1.99618 0.448744 0
M  V30 2767 H 257.752 3.13072 2.6163 0
M  V30 2768 H 256.427 3.80408 1.68115 0
M  V30 2769 H 255.004 2.3985 2.85529 0
M  V30 2770 N 257.189 -0.644168 1.43834 0
M  V30 2771 C 258.6 -1.22554 1.40845 0
M  V30 2772 C 258.951 -1.9585 0.117115 0
M  V30 2773 O 258.076 -2.01734 -0.783086 0
M  V30 2774 C 258.671 -2.22907 2.55143 0
M  V30 2775 C 257.23 -2.76501 2.5539 0
M  V30 2776 C 256.377 -1.51287 2.32396 0
M  V30 2777 H 259.328 -0.43563 1.52604 0
M  V30 2778 H 259.349 -3.05259 2.2715 0
M  V30 2779 H 258.861 -1.69533 3.49114 0
M  V30 2780 H 256.962 -3.33914 1.65324 0
M  V30 2781 H 257.075 -3.23429 3.53455 0
M  V30 2782 H 255.439 -1.78957 1.81236 0
M  V30 2783 H 256.222 -0.998336 3.28463 0
M  V30 2784 N 258.668 -1.30515 -0.883378 0
M  V30 2785 C 259.945 -1.10086 -1.6168 0
M  V30 2786 C 260.325 0.349269 -2.08191 0
M  V30 2787 O 259.673 1.34105 -1.85008 0
M  V30 2788 C 259.883 -2.10315 -2.78511 0
M  V30 2789 C 261.231 -2.42119 -3.48803 0
M  V30 2790 O 262.255 -2.08638 -2.88702 0
M  V30 2791 O 261.114 -2.99396 -4.57192 0
M  V30 2792 H 258.208 -0.422907 -0.710689 0
M  V30 2793 H 260.754 -1.41947 -0.930015 0
M  V30 2794 H 259.526 -3.07917 -2.41459 0
M  V30 2795 H 259.149 -1.79282 -3.54886 0
M  V30 2796 N 260.146 1.09593 -1.13257 0
M  V30 2797 C 261.562 1.33775 -0.870423 0
M  V30 2798 C 261.762 1.95327 0.494926 0
M  V30 2799 O 260.818 2.19853 1.2418 0
M  V30 2800 C 262.131 2.25106 -1.99369 0
M  V30 2801 C 263.679 2.3862 -2.02558 0
M  V30 2802 C 264.154 3.33285 -3.14142 0
M  V30 2803 N 265.645 3.40857 -3.13641 0
M  V30 2804 C 266.38 4.14101 -3.96621 0
M  V30 2805 N 265.876 4.90157 -4.8961 0
M  V30 2806 N 267.669 4.09808 -3.84726 0
M  V30 2807 H 259.82 0.680136 -2.01216 0
M  V30 2808 H 262.083 0.362133 -0.876107 0
M  V30 2809 H 261.789 1.87103 -2.97801 0
M  V30 2810 H 261.663 3.25481 -1.90635 0
M  V30 2811 H 264.05 2.75887 -1.0474 0
M  V30 2812 H 264.131 1.38028 -2.15364 0
M  V30 2813 H 263.775 2.96741 -4.12198 0
M  V30 2814 H 263.705 4.33776 -2.98574 0
M  V30 2815 H 266.196 2.86624 -2.46282 0
M  V30 2816 H 266.509 5.4347 -5.49418 0
M  V30 2817 H 264.854 4.89251 -4.93617 0
M  V30 2818 H 268.045 3.4949 -3.11408 0
M  V30 2819 H 268.218 4.66629 -4.49623 0
M  V30 2820 N 261.624 0.925811 1.2754 0
M  V30 2821 C 262.864 0.572521 1.96218 0
M  V30 2822 C 263.228 -0.869719 1.71172 0
M  V30 2823 O 264.429 -1.33119 2.33523 0
M  V30 2824 C 262.7 0.887325 3.4621 0
M  V30 2825 S 264.259 0.642266 4.34074 0
M  V30 2826 H 261.077 0.211403 0.678845 0
M  V30 2827 H 263.679 1.19384 1.54815 0
M  V30 2828 H 262.383 1.93469 3.61936 0
M  V30 2829 H 261.914 0.255123 3.92572 0
M  V30 2830 H 263.929 -0.500822 4.93666 0
M  V30 2831 N 263.102 -1.41638 0.69111 0
M  V30 2832 C 264.049 -2.30789 0.0229705 0
M  V30 2833 C 265.019 -1.46863 -0.775911 0
M  V30 2834 O 266.204 -1.75661 -0.74485 0
M  V30 2835 C 263.344 -3.32868 -0.910666 0
M  V30 2836 C 262.457 -4.31875 -0.103874 0
M  V30 2837 C 261.592 -5.21024 -1.03475 0
M  V30 2838 C 260.631 -6.11702 -0.220598 0
M  V30 2839 N 259.768 -6.93349 -1.10504 0
M  V30 2840 H 264.608 -2.87366 0.788978 0
M  V30 2841 H 262.145 -1.41535 0.400794 0
M  V30 2842 H 264.103 -3.90596 -1.46597 0
M  V30 2843 H 262.733 -2.77851 -1.64312 0
M  V30 2844 H 261.785 -3.76131 0.568285 0
M  V30 2845 H 263.097 -4.96003 0.527504 0
M  V30 2846 H 262.251 -5.83565 -1.65943 0
M  V30 2847 H 260.99 -4.57112 -1.69999 0
M  V30 2848 H 259.995 -5.48215 0.417187 0
M  V30 2849 H 261.22 -6.77668 0.440784 0
M  V30 2850 H 259.166 -6.3205 -1.75638 0
M  V30 2851 H 259.083 -7.54146 -0.529125 0
M  V30 2852 H 260.351 -7.60362 -1.71667 0
M  V30 2853 N 264.58 -0.43555 -1.51462 0
M  V30 2854 C 265.82 0.130708 -2.03982 0
M  V30 2855 C 266.184 1.40117 -1.31268 0
M  V30 2856 O 267.385 2.04755 -1.74152 0
M  V30 2857 C 265.656 0.346102 -3.5572 0
M  V30 2858 S 267.215 0.876022 -4.29967 0
M  V30 2859 H 264.033 0.0326881 -0.710248 0
M  V30 2860 H 266.635 -0.594544 -1.8624 0
M  V30 2861 H 265.339 -0.584911 -4.0621 0
M  V30 2862 H 264.87 1.09849 -3.77752 0
M  V30 2863 H 266.885 2.15379 -4.47019 0
M  V30 2864 N 266.058 1.56714 -0.166846 0
M  V30 2865 C 267.005 2.17746 0.765193 0
M  V30 2866 C 267.975 1.11614 1.23011 0
M  V30 2867 O 269.16 1.39745 1.29908 0
M  V30 2868 C 266.3 2.81882 1.9909 0
M  V30 2869 C 265.413 4.02462 1.56997 0
M  V30 2870 C 264.548 4.54537 2.749 0
M  V30 2871 C 263.587 5.67538 2.29275 0
M  V30 2872 N 262.724 6.14142 3.40255 0
M  V30 2873 H 267.564 2.97048 0.237952 0
M  V30 2874 H 265.101 1.4672 0.105725 0
M  V30 2875 H 267.059 3.17221 2.70974 0
M  V30 2876 H 265.689 2.05191 2.49192 0
M  V30 2877 H 264.741 3.72973 0.748037 0
M  V30 2878 H 266.053 4.84273 1.19503 0
M  V30 2879 H 265.207 4.92035 3.54946 0
M  V30 2880 H 263.946 3.71774 3.1565 0
M  V30 2881 H 262.951 5.29597 1.47674 0
M  V30 2882 H 264.176 6.52099 1.89588 0
M  V30 2883 H 262.122 5.3431 3.8059 0
M  V30 2884 H 262.039 6.9093 3.06841 0
M  V30 2885 H 263.307 6.56289 4.206 0
M  V30 2886 N 267.536 -0.106894 1.57237 0
M  V30 2887 C 268.483 -1.13049 2.01217 0
M  V30 2888 C 269.453 -1.40471 0.886403 0
M  V30 2889 O 270.638 -1.52133 1.15153 0
M  V30 2890 C 267.778 -2.4487 2.43172 0
M  V30 2891 C 266.891 -2.24281 3.69218 0
M  V30 2892 C 266.026 -3.49417 4.00101 0
M  V30 2893 C 265.065 -3.24038 5.19294 0
M  V30 2894 N 264.202 -4.41409 5.45988 0
M  V30 2895 H 269.042 -0.748456 2.88448 0
M  V30 2896 H 266.579 -0.358054 1.42676 0
M  V30 2897 H 268.537 -3.21786 2.65537 0
M  V30 2898 H 267.167 -2.80944 1.58967 0
M  V30 2899 H 266.219 -1.38224 3.54398 0
M  V30 2900 H 267.531 -2.01512 4.56283 0
M  V30 2901 H 266.685 -4.34746 4.2318 0
M  V30 2902 H 265.424 -3.75229 3.11535 0
M  V30 2903 H 264.429 -2.37102 4.96047 0
M  V30 2904 H 265.654 -2.99584 6.09447 0
M  V30 2905 H 263.6 -4.67319 4.60379 0
M  V30 2906 H 263.517 -4.21788 6.274 0
M  V30 2907 H 264.785 -5.27836 5.73593 0
M  V30 2908 N 269.014 -1.53014 -0.377408 0
M  V30 2909 C 270.26 -1.68872 -1.12294 0
M  V30 2910 C 270.593 -0.433224 -1.89306 0
M  V30 2911 O 269.868 0.569258 -1.85983 0
M  V30 2912 C 270.151 -2.93115 -2.09179 0
M  V30 2913 C 270.004 -4.28794 -1.35853 0
M  V30 2914 C 271.323 -3.12928 -3.09458 0
M  V30 2915 H 268.442 -0.614518 -0.406862 0
M  V30 2916 H 271.084 -1.85633 -0.40503 0
M  V30 2917 H 269.234 -2.78956 -2.70399 0
M  V30 2918 H 270.906 -4.54742 -0.775082 0
M  V30 2919 H 269.149 -4.28744 -0.660364 0
M  V30 2920 H 269.82 -5.11837 -2.06706 0
M  V30 2921 H 272.296 -3.26194 -2.58334 0
M  V30 2922 H 271.172 -4.01316 -3.74482 0
M  V30 2923 H 271.433 -2.27669 -3.78971 0
M  V30 2924 N 270.492 0.636531 -1.44174 0
M  V30 2925 C 271.439 1.74875 -1.50624 0
M  V30 2926 C 272.409 1.62275 -0.35442 0
M  V30 2927 O 273.594 1.82276 -0.563908 0
M  V30 2928 C 270.734 3.13102 -1.45125 0
M  V30 2929 C 269.847 3.36717 -2.7064 0
M  V30 2930 C 268.982 4.64885 -2.57013 0
M  V30 2931 C 268.021 4.8166 -3.77717 0
M  V30 2932 N 267.158 6.01101 -3.62798 0
M  V30 2933 H 271.998 1.68697 -2.45653 0
M  V30 2934 H 269.535 0.823004 -1.21922 0
M  V30 2935 H 271.493 3.93034 -1.39929 0
M  V30 2936 H 270.123 3.18308 -0.536671 0
M  V30 2937 H 269.175 2.50763 -2.86046 0
M  V30 2938 H 270.487 3.44993 -3.60252 0
M  V30 2939 H 269.641 5.52969 -2.49619 0
M  V30 2940 H 268.38 4.58957 -1.64953 0
M  V30 2941 H 267.385 3.92007 -3.85501 0
M  V30 2942 H 268.61 4.89406 -4.70807 0
M  V30 2943 H 266.556 5.96273 -2.73486 0
M  V30 2944 H 266.473 6.10409 -4.46023 0
M  V30 2945 H 267.741 6.91761 -3.59286 0
M  V30 2946 N 271.97 1.30982 0.876444 0
M  V30 2947 C 273.381 1.18277 1.44456 0
M  V30 2948 C 273.732 -0.213265 1.95037 0
M  V30 2949 O 272.857 -1.11057 1.85729 0
M  V30 2950 C 273.452 2.1411 2.62569 0
M  V30 2951 C 272.011 2.05358 3.15444 0
M  V30 2952 C 271.158 2.03706 1.88146 0
M  V30 2953 H 274.109 1.43127 0.685584 0
M  V30 2954 H 274.13 1.72692 3.39054 0
M  V30 2955 H 273.642 3.15706 2.25724 0
M  V30 2956 H 271.743 1.06934 3.56926 0
M  V30 2957 H 271.856 2.94156 3.78166 0
M  V30 2958 H 270.22 1.48629 2.06837 0
M  V30 2959 H 271.003 3.07047 1.53547 0
M  V30 2960 N 273.449 -1.08991 1.13837 0
M  V30 2961 C 274.677 -1.85011 0.926202 0
M  V30 2962 C 275.092 -1.8135 -0.525127 0
M  V30 2963 O 274.449 -1.21287 -1.36366 0
M  V30 2964 C 274.5 -3.32802 1.41155 0
M  V30 2965 O 274.221 -3.36444 2.80601 0
M  V30 2966 C 275.722 -4.25649 1.23847 0
M  V30 2967 H 272.942 -0.584249 0.32999 0
M  V30 2968 H 275.486 -1.37688 1.51202 0
M  V30 2969 H 273.641 -3.77536 0.868631 0
M  V30 2970 H 274.055 -4.28657 3.02248 0
M  V30 2971 H 275.529 -5.27485 1.62675 0
M  V30 2972 H 276.006 -4.38828 0.18065 0
M  V30 2973 H 276.612 -3.86735 1.76964 0
M  V30 2974 N 274.927 -0.932562 -1.27047 0
M  V30 2975 C 275.857 -0.452902 -2.29066 0
M  V30 2976 C 276.838 0.489338 -1.62909 0
M  V30 2977 O 278.023 0.393046 -1.90181 0
M  V30 2978 C 275.153 0.290698 -3.46081 0
M  V30 2979 C 274.107 -0.564168 -4.24265 0
M  V30 2980 C 273.433 0.308886 -5.33807 0
M  V30 2981 C 274.733 -1.83112 -4.89149 0
M  V30 2982 H 276.427 -1.30552 -2.69437 0
M  V30 2983 H 273.973 -0.629201 -1.29526 0
M  V30 2984 H 275.926 0.637233 -4.16554 0
M  V30 2985 H 274.65 1.17738 -3.0464 0
M  V30 2986 H 273.309 -0.893477 -3.55545 0
M  V30 2987 H 272.957 1.19467 -4.88607 0
M  V30 2988 H 272.657 -0.259633 -5.87026 0
M  V30 2989 H 274.181 0.650884 -6.07121 0
M  V30 2990 H 275.595 -1.55236 -5.51883 0
M  V30 2991 H 273.992 -2.34353 -5.52448 0
M  V30 2992 H 275.062 -2.54772 -4.12576 0
M  V30 2993 N 276.405 1.4127 -0.698611 0
M  V30 2994 C 277.368 2.29158 -0.044132 0
M  V30 2995 C 278.368 1.44529 0.704841 0
M  V30 2996 O 279.558 1.65643 0.539276 0
M  V30 2997 C 276.69 3.27459 0.947809 0
M  V30 2998 H 277.883 2.88529 -0.817994 0
M  V30 2999 H 275.436 1.49307 -0.46228 0
M  V30 3000 H 276.171 2.73073 1.74933 0
M  V30 3001 H 275.956 3.8991 0.41385 0
M  V30 3002 H 277.446 3.93311 1.40344 0
M  V30 3003 N 277.883 0.443576 1.51229 0
M  V30 3004 C 279.111 -0.11929 2.06556 0
M  V30 3005 C 279.526 -1.35921 1.31038 0
M  V30 3006 O 278.883 -1.78675 0.371704 0
M  V30 3007 C 278.934 -0.435228 3.5887 0
M  V30 3008 O 278.655 0.755486 4.31537 0
M  V30 3009 C 280.156 -1.04808 4.30732 0
M  V30 3010 H 277.376 -0.0051584 0.67098 0
M  V30 3011 H 279.92 0.624453 1.94733 0
M  V30 3012 H 278.075 -1.12887 3.70588 0
M  V30 3013 H 278.489 0.483491 5.22267 0
M  V30 3014 H 279.963 -1.2191 5.3837 0
M  V30 3015 H 280.44 -2.03081 3.89429 0
M  V30 3016 H 281.046 -0.393637 4.23474 0
M  V30 3017 N 279.361 -1.56624 0.175154 0
M  V30 3018 C 280.591 -2.01082 -0.474283 0
M  V30 3019 C 280.999 -1.05447 -1.57091 0
M  V30 3020 O 280.342 -0.0480595 -1.83637 0
M  V30 3021 C 280.404 -3.41963 -1.10911 0
M  V30 3022 C 280.068 -4.56742 -0.153666 0
M  V30 3023 C 281.065 -5.16076 0.629448 0
M  V30 3024 C 278.75 -5.02277 -0.0483776 0
M  V30 3025 C 280.744 -6.19377 1.50501 0
M  V30 3026 C 278.431 -6.05427 0.830768 0
M  V30 3027 C 279.429 -6.63849 1.60605 0
M  V30 3028 O 279.117 -7.64998 2.47049 0
M  V30 3029 H 278.849 -0.664261 -0.125432 0
M  V30 3030 H 281.403 -2.03549 0.275163 0
M  V30 3031 H 279.633 -3.36422 -1.90676 0
M  V30 3032 H 281.322 -3.70352 -1.66114 0
M  V30 3033 H 282.088 -4.81776 0.558297 0
M  V30 3034 H 277.967 -4.56513 -0.641611 0
M  V30 3035 H 281.511 -6.64906 2.1106 0
M  V30 3036 H 277.408 -6.39151 0.903107 0
M  V30 3037 H 278.176 -7.82336 2.40607 0
M  V30 3038 N 280.839 0.0985539 -1.57292 0
M  V30 3039 C 281.769 1.12064 -2.04851 0
M  V30 3040 C 282.75 1.41981 -0.936767 0
M  V30 3041 O 283.935 1.52071 -1.20781 0
M  V30 3042 C 281.065 2.44144 -2.47004 0
M  V30 3043 C 280.019 2.28643 -3.6181 0
M  V30 3044 C 279.345 3.65869 -3.89929 0
M  V30 3045 C 280.645 1.72986 -4.92822 0
M  V30 3046 H 282.339 0.724979 -2.9049 0
M  V30 3047 H 279.885 0.34729 -1.39749 0
M  V30 3048 H 281.838 3.15914 -2.78884 0
M  V30 3049 H 280.562 2.85639 -1.5836 0
M  V30 3050 H 279.221 1.59318 -3.30172 0
M  V30 3051 H 278.869 4.04885 -2.98458 0
M  V30 3052 H 278.569 3.56344 -4.67218 0
M  V30 3053 H 280.093 4.39112 -4.2428 0
M  V30 3054 H 281.507 2.34593 -5.23105 0
M  V30 3055 H 279.904 1.74229 -5.74251 0
M  V30 3056 H 280.974 0.689007 -4.7998 0
M  V30 3057 N 282.317 1.53212 0.369288 0
M  V30 3058 C 283.542 1.73423 1.1375 0
M  V30 3059 C 283.967 0.460404 1.82378 0
M  V30 3060 O 283.325 -0.585298 1.71592 0
M  V30 3061 C 283.373 2.89769 2.1463 0
M  V30 3062 O 282.477 2.58119 3.21634 0
M  V30 3063 H 281.818 0.576061 0.330227 0
M  V30 3064 H 284.348 2.00083 0.427547 0
M  V30 3065 H 284.358 3.15829 2.58294 0
M  V30 3066 H 283.033 3.8217 1.64071 0
M  V30 3067 H 281.61 2.42864 2.82969 0
M  V30 3068 N 283.795 -0.628877 1.44509 0
M  V30 3069 C 284.742 -1.74074 1.51549 0
M  V30 3070 C 285.712 -1.62084 0.363021 0
M  V30 3071 O 286.897 -1.81975 0.573567 0
M  V30 3072 C 284.037 -3.12328 1.46784 0
M  V30 3073 C 283.15 -3.35277 2.72422 0
M  V30 3074 C 282.285 -4.63515 2.59475 0
M  V30 3075 C 281.324 -4.7965 3.80266 0
M  V30 3076 N 280.461 -5.99168 3.65981 0
M  V30 3077 H 285.301 -1.67392 2.46544 0
M  V30 3078 H 282.838 -0.816527 1.22357 0
M  V30 3079 H 284.796 -3.92286 1.42012 0
M  V30 3080 H 283.426 -3.18018 0.553544 0
M  V30 3081 H 282.478 -2.49242 2.87372 0
M  V30 3082 H 283.79 -3.43078 3.62076 0
M  V30 3083 H 282.944 -5.51638 2.52548 0
M  V30 3084 H 281.683 -4.58076 1.67384 0
M  V30 3085 H 280.688 -3.89957 3.87574 0
M  V30 3086 H 281.913 -4.86902 4.73395 0
M  V30 3087 H 279.859 -5.94814 2.76644 0
M  V30 3088 H 279.776 -6.08035 4.49254 0
M  V30 3089 H 281.044 -6.89846 3.6295 0
M  V30 3090 N 285.273 -1.31445 -0.869486 0
M  V30 3091 C 286.221 -1.19067 -1.99814 0
M  V30 3092 C 287.215 -0.0988569 -1.69111 0
M  V30 3093 O 288.421 -0.260781 -1.78101 0
M  V30 3094 H 284.796 -0.368677 -0.655425 0
M  V30 3095 H 286.767 -2.14555 -2.07385 0
M  V30 3096 C 285.516 -0.915323 -3.35436 0
M  V30 3097 H 284.839 -1.74759 -3.59582 0
M  V30 3098 H 286.279 -0.868895 -4.15001 0
M  V30 3099 C 284.738 0.381928 -3.34728 0
M  V30 3100 O 285.268 1.39857 -3.76567 0
M  V30 3101 N 283.474 0.398633 -2.87853 0
M  V30 3102 H 283.021 -0.429186 -2.54 0
M  V30 3103 H 282.979 1.26651 -2.87762 0
M  V30 3104 N 286.751 1.08385 -1.14413 0
M  V30 3105 C 287.981 1.8425 -0.934644 0
M  V30 3106 C 288.389 1.81907 0.520234 0
M  V30 3107 O 287.732 1.22126 1.37226 0
M  V30 3108 C 287.794 3.32853 -1.35828 0
M  V30 3109 C 287.458 3.5893 -2.82875 0
M  V30 3110 C 288.455 3.53756 -3.80989 0
M  V30 3111 C 286.14 3.86934 -3.20293 0
M  V30 3112 C 288.134 3.76216 -5.14529 0
M  V30 3113 C 285.821 4.09047 -4.54008 0
M  V30 3114 C 286.819 4.03682 -5.50936 0
M  V30 3115 O 286.507 4.25214 -6.82238 0
M  V30 3116 H 286.239 0.588502 -0.332628 0
M  V30 3117 H 288.793 1.37792 -1.52324 0
M  V30 3118 H 287.023 3.8007 -0.713019 0
M  V30 3119 H 288.712 3.90154 -1.11957 0
M  V30 3120 H 289.478 3.32135 -3.53428 0
M  V30 3121 H 285.357 3.9023 -2.45442 0
M  V30 3122 H 288.901 3.71943 -5.90173 0
M  V30 3123 H 284.798 4.30151 -4.8129 0
M  V30 3124 H 285.566 4.42619 -6.88499 0
M  V30 3125 N 288.23 0.939286 1.26551 0
M  V30 3126 C 289.455 0.602008 1.98471 0
M  V30 3127 C 289.88 -0.815624 1.69497 0
M  V30 3128 O 289.238 -1.54912 0.941905 0
M  V30 3129 C 289.286 0.848407 3.50477 0
M  V30 3130 O 288.39 -0.0804009 4.12322 0
M  V30 3131 H 287.731 0.23049 0.622712 0
M  V30 3132 H 290.261 1.2617 1.61066 0
M  V30 3133 H 290.271 0.768553 4.00696 0
M  V30 3134 H 288.946 1.88171 3.70897 0
M  V30 3135 H 287.523 0.0503508 3.72866 0
M  V30 3136 N 289.708 -1.40897 0.706093 0
M  V30 3137 C 290.938 -2.05075 0.250523 0
M  V30 3138 C 291.346 -1.53275 -1.10921 0
M  V30 3139 O 290.689 -0.680281 -1.7064 0
M  V30 3140 C 290.751 -3.59219 0.142178 0
M  V30 3141 C 290.415 -4.33864 1.43566 0
M  V30 3142 C 291.412 -4.62448 2.37566 0
M  V30 3143 C 289.097 -4.72946 1.69195 0
M  V30 3144 C 291.091 -5.29088 3.5545 0
M  V30 3145 C 288.778 -5.3932 2.87362 0
M  V30 3146 C 289.776 -5.6732 3.80312 0
M  V30 3147 O 289.464 -6.32325 4.96408 0
M  V30 3148 H 289.196 -0.666645 0.112074 0
M  V30 3149 H 291.75 -1.81467 0.962239 0
M  V30 3150 H 289.98 -3.81609 -0.6254 0
M  V30 3151 H 291.669 -4.0495 -0.277584 0
M  V30 3152 H 292.435 -4.32727 2.19027 0
M  V30 3153 H 288.314 -4.50527 0.977042 0
M  V30 3154 H 291.858 -5.50859 4.28018 0
M  V30 3155 H 287.755 -5.68461 3.05814 0
M  V30 3156 H 288.523 -6.50821 4.9636 0
M  V30 3157 N 291.186 -0.45159 -1.50991 0
M  V30 3158 C 292.432 0.110237 -2.025 0
M  V30 3159 C 292.765 1.41109 -1.33424 0
M  V30 3160 O 292.04 1.89135 -0.453659 0
M  V30 3161 C 292.323 0.314271 -3.58726 0
M  V30 3162 C 292.176 -1.00623 -4.38401 0
M  V30 3163 C 293.495 1.07767 -4.26702 0
M  V30 3164 H 290.614 0.0385897 -0.735989 0
M  V30 3165 H 293.256 -0.593374 -1.80497 0
M  V30 3166 H 291.406 0.913601 -3.77605 0
M  V30 3167 H 293.078 -1.64064 -4.31139 0
M  V30 3168 H 291.321 -1.6075 -4.02917 0
M  V30 3169 H 291.992 -0.817341 -5.45915 0
M  V30 3170 H 294.468 0.56986 -4.12179 0
M  V30 3171 H 293.344 1.18921 -5.35863 0
M  V30 3172 H 293.605 2.10939 -3.88532 0
M  V30 3173 N 292.664 1.56529 -0.183458 0
M  V30 3174 C 293.913 1.96419 0.458511 0
M  V30 3175 C 294.226 1.0727 1.63562 0
M  V30 3176 O 295.432 1.36893 2.34462 0
M  V30 3177 C 293.888 3.49298 0.867122 0
M  V30 3178 C 293.496 4.47092 -0.285057 0
M  V30 3179 C 295.24 3.97983 1.47683 0
M  V30 3180 C 293.147 5.91225 0.143862 0
M  V30 3181 H 292.077 0.733394 0.175071 0
M  V30 3182 H 294.728 1.81448 -0.273624 0
M  V30 3183 H 293.11 3.59731 1.65559 0
M  V30 3184 H 294.284 4.48383 -1.0625 0
M  V30 3185 H 292.599 4.08535 -0.805503 0
M  V30 3186 H 295.196 5.03134 1.80999 0
M  V30 3187 H 295.539 3.41618 2.37914 0
M  V30 3188 H 296.072 3.90617 0.752562 0
M  V30 3189 H 292.811 6.5149 -0.723974 0
M  V30 3190 H 292.331 5.93214 0.886413 0
M  V30 3191 H 294.01 6.44362 0.583628 0
M  V30 3192 N 294.142 -0.090211 1.57342 0
M  V30 3193 C 295.092 -1.11557 1.98844 0
M  V30 3194 C 296.076 -1.35503 0.867624 0
M  V30 3195 O 297.268 -1.36113 1.13148 0
M  V30 3196 C 294.397 -2.43446 2.42051 0
M  V30 3197 C 293.483 -2.22853 3.60828 0
M  V30 3198 N 293.874 -1.72141 4.75606 0
M  V30 3199 C 292.172 -2.53401 3.67021 0
M  V30 3200 C 292.873 -1.65932 5.57531 0
M  V30 3201 N 291.849 -2.11323 5.00843 0
M  V30 3202 H 295.651 -0.716499 2.85032 0
M  V30 3203 H 293.165 -0.297567 1.59651 0
M  V30 3204 H 295.162 -3.17644 2.70014 0
M  V30 3205 H 293.822 -2.84087 1.57241 0
M  V30 3206 H 294.833 -1.41268 4.98261 0
M  V30 3207 H 291.51 -2.97532 2.92884 0
M  V30 3208 H 292.9 -1.27733 6.59647 0
M  V30 3209 N 295.62 -1.53406 -0.361157 0
M  V30 3210 C 296.583 -1.79479 -1.42548 0
M  V30 3211 C 297.583 -0.665327 -1.4639 0
M  V30 3212 O 298.773 -0.933549 -1.47073 0
M  V30 3213 C 295.905 -1.92087 -2.8163 0
M  V30 3214 H 297.098 -2.74538 -1.20701 0
M  V30 3215 H 294.651 -1.4455 -0.594546 0
M  V30 3216 H 295.386 -0.991099 -3.08784 0
M  V30 3217 H 295.171 -2.74241 -2.80239 0
M  V30 3218 H 296.661 -2.13836 -3.58697 0
M  V30 3219 N 297.098 0.621204 -1.44841 0
M  V30 3220 C 298.045 1.73267 -1.5247 0
M  V30 3221 C 299.015 1.6189 -0.371611 0
M  V30 3222 O 300.2 1.81668 -0.58321 0
M  V30 3223 C 297.34 3.11545 -1.48438 0
M  V30 3224 C 296.453 3.33827 -2.74196 0
M  V30 3225 C 295.588 4.62133 -2.61929 0
M  V30 3226 C 294.627 4.77627 -3.82804 0
M  V30 3227 N 293.764 5.97219 -3.69153 0
M  V30 3228 H 298.604 1.66082 -2.47428 0
M  V30 3229 H 296.141 0.810026 -1.22788 0
M  V30 3230 H 298.099 3.91528 -1.4409 0
M  V30 3231 H 296.729 3.1772 -0.570402 0
M  V30 3232 H 295.781 2.47715 -2.88689 0
M  V30 3233 H 297.093 3.41153 -3.6389 0
M  V30 3234 H 296.247 5.50291 -2.5547 0
M  V30 3235 H 294.986 4.57182 -1.69811 0
M  V30 3236 H 293.991 3.87896 -3.89637 0
M  V30 3237 H 295.216 4.84385 -4.75971 0
M  V30 3238 H 293.162 5.93339 -2.79794 0
M  V30 3239 H 293.079 6.05644 -4.52472 0
M  V30 3240 H 294.347 6.87912 -3.66603 0
M  V30 3241 N 298.576 1.31904 0.862503 0
M  V30 3242 C 299.825 1.21373 1.61094 0
M  V30 3243 C 300.138 -0.22504 1.94301 0
M  V30 3244 O 301.344 -0.452121 2.67709 0
M  V30 3245 C 299.8 2.12525 2.9045 0
M  V30 3246 C 299.408 3.61441 2.64697 0
M  V30 3247 C 301.152 2.10813 3.68454 0
M  V30 3248 C 299.059 4.44578 3.90006 0
M  V30 3249 H 297.989 0.450705 0.604468 0
M  V30 3250 H 300.64 1.56811 0.953027 0
M  V30 3251 H 299.022 1.69994 3.57656 0
M  V30 3252 H 300.196 4.12264 2.05851 0
M  V30 3253 H 298.511 3.65205 2.00036 0
M  V30 3254 H 301.108 2.70167 4.61426 0
M  V30 3255 H 301.451 1.09713 4.01583 0
M  V30 3256 H 301.984 2.51583 3.08141 0
M  V30 3257 H 298.723 5.46461 3.62023 0
M  V30 3258 H 298.243 3.98508 4.48276 0
M  V30 3259 H 299.922 4.57176 4.5782 0
M  V30 3260 N 300.054 -1.07777 1.14986 0
M  V30 3261 C 301.001 -2.14867 0.842672 0
M  V30 3262 C 301.971 -1.6486 -0.202552 0
M  V30 3263 O 303.156 -1.90668 -0.0710568 0
M  V30 3264 C 300.296 -3.43486 0.333363 0
M  V30 3265 C 299.409 -4.07306 1.43965 0
M  V30 3266 C 298.544 -5.23744 0.886914 0
M  V30 3267 C 297.583 -5.79517 1.97043 0
M  V30 3268 N 296.72 -6.87291 1.4344 0
M  V30 3269 H 301.56 -2.40485 1.75986 0
M  V30 3270 H 299.097 -1.1801 0.878179 0
M  V30 3271 H 301.055 -4.17195 0.0198163 0
M  V30 3272 H 299.685 -3.18133 -0.546916 0
M  V30 3273 H 298.737 -3.31293 1.86946 0
M  V30 3274 H 300.049 -4.44771 2.25788 0
M  V30 3275 H 299.203 -6.04419 0.525651 0
M  V30 3276 H 297.942 -4.87685 0.0377957 0
M  V30 3277 H 296.947 -4.97491 2.34057 0
M  V30 3278 H 298.172 -6.17632 2.82325 0
M  V30 3279 H 296.118 -6.5318 0.607567 0
M  V30 3280 H 296.035 -7.23617 2.18895 0
M  V30 3281 H 297.303 -7.71682 1.10124 0
M  V30 3282 N 301.532 -0.945985 -1.26051 0
M  V30 3283 C 302.495 -0.463897 -2.24456 0
M  V30 3284 C 303.495 0.427655 -1.55009 0
M  V30 3285 O 304.685 0.226157 -1.72726 0
M  V30 3286 C 301.817 0.330812 -3.39291 0
M  V30 3287 H 303.01 -1.33357 -2.68619 0
M  V30 3288 H 300.563 -0.728416 -1.38289 0
M  V30 3289 H 301.298 1.21852 -3.00537 0
M  V30 3290 H 301.083 -0.308679 -3.90883 0
M  V30 3291 H 302.573 0.657865 -4.12386 0
M  V30 3292 N 303.011 1.40521 -0.713556 0
M  V30 3293 C 304.257 2.01221 -0.252564 0
M  V30 3294 C 304.59 1.56444 1.1506 0
M  V30 3295 O 303.865 0.783597 1.78017 0
M  V30 3296 C 304.148 3.58582 -0.330332 0
M  V30 3297 C 304.001 4.13437 -1.77173 0
M  V30 3298 C 305.32 4.39079 0.299641 0
M  V30 3299 H 302.439 0.731077 -0.0932471 0
M  V30 3300 H 305.081 1.67026 -0.905673 0
M  V30 3301 H 303.231 3.87844 0.225737 0
M  V30 3302 H 304.903 3.9498 -2.38303 0
M  V30 3303 H 303.146 3.67801 -2.3001 0
M  V30 3304 H 303.817 5.22597 -1.77755 0
M  V30 3305 H 306.293 4.15735 -0.174139 0
M  V30 3306 H 305.169 5.4848 0.214771 0
M  V30 3307 H 305.43 4.19915 1.38288 0
M  V30 3308 N 304.489 0.459591 1.5075 0
M  V30 3309 C 305.421 -0.37665 2.26084 0
M  V30 3310 C 306.434 -0.967109 1.30961 0
M  V30 3311 O 307.623 -0.857468 1.56556 0
M  V30 3312 C 304.723 -1.54112 3.01832 0
M  V30 3313 C 303.896 -1.06553 4.24223 0
M  V30 3314 C 302.955 -2.1027 4.82362 0
M  V30 3315 O 301.981 -1.68798 5.43595 0
M  V30 3316 N 303.183 -3.42974 4.68347 0
M  V30 3317 H 305.948 0.269124 2.98489 0
M  V30 3318 H 303.509 0.28972 1.59287 0
M  V30 3319 H 305.501 -2.23165 3.37608 0
M  V30 3320 H 304.071 -2.0918 2.32298 0
M  V30 3321 H 303.291 -0.201274 3.93686 0
M  V30 3322 H 304.579 -0.725516 5.03601 0
M  V30 3323 H 303.977 -3.79385 4.19623 0
M  V30 3324 H 302.534 -4.07858 5.08424 0
M  V30 3325 N 305.967 -1.56429 0.191757 0
M  V30 3326 C 307.383 -1.58754 -0.164137 0
M  V30 3327 C 307.583 -1.20782 -1.61288 0
M  V30 3328 O 306.639 -0.928999 -2.34789 0
M  V30 3329 C 307.952 -3.00396 0.135195 0
M  V30 3330 C 309.5 -3.1291 0.0750351 0
M  V30 3331 C 309.975 -4.56679 0.347632 0
M  V30 3332 N 311.466 -4.62252 0.296131 0
M  V30 3333 C 312.201 -5.71379 0.480948 0
M  V30 3334 N 311.697 -6.88986 0.725933 0
M  V30 3335 N 313.49 -5.60563 0.415435 0
M  V30 3336 H 305.641 -1.79393 1.13718 0
M  V30 3337 H 307.904 -0.832414 0.453643 0
M  V30 3338 H 307.61 -3.32726 1.13958 0
M  V30 3339 H 307.484 -3.72963 -0.563773 0
M  V30 3340 H 309.871 -2.80394 -0.919948 0
M  V30 3341 H 309.952 -2.42736 0.807029 0
M  V30 3342 H 309.596 -4.89907 1.33992 0
M  V30 3343 H 309.526 -5.25039 -0.405212 0
M  V30 3344 H 312.017 -3.7773 0.113259 0
M  V30 3345 H 312.33 -7.68046 0.855857 0
M  V30 3346 H 310.675 -6.90801 0.762788 0
M  V30 3347 H 313.866 -4.67561 0.224486 0
M  V30 3348 H 314.039 -6.45551 0.562889 0
M  V30 3349 N 307.445 0.0818655 -1.57387 0
M  V30 3350 C 308.67 0.799946 -1.91352 0
M  V30 3351 C 309.095 1.70833 -0.787258 0
M  V30 3352 O 308.453 1.79419 0.26048 0
M  V30 3353 C 308.501 1.57812 -3.24234 0
M  V30 3354 O 307.605 2.68806 -3.12757 0
M  V30 3355 H 306.946 0.21891 -0.626877 0
M  V30 3356 H 309.476 0.0531256 -2.04531 0
M  V30 3357 H 309.486 1.95952 -3.57864 0
M  V30 3358 H 308.161 0.911548 -4.05788 0
M  V30 3359 H 306.738 2.33597 -2.90666 0
M  V30 3360 N 308.923 1.53595 0.353017 0
M  V30 3361 C 310.171 1.70049 1.09215 0
M  V30 3362 C 310.492 0.461406 1.89463 0
M  V30 3363 O 309.762 -0.524633 1.88744 0
M  V30 3364 H 308.342 0.626912 0.40619 0
M  V30 3365 H 311.004 1.90822 0.396585 0
M  V30 3366 H 310.1 2.56718 1.77488 0
M  V30 3367 N 310.401 -0.613514 1.45168 0
M  V30 3368 C 311.641 -1.38405 1.5041 0
M  V30 3369 C 312.005 -1.91489 0.139922 0
M  V30 3370 O 313.206 -2.68716 0.067033 0
M  V30 3371 C 311.477 -2.50552 2.5487 0
M  V30 3372 S 313.036 -3.38439 2.79292 0
M  V30 3373 H 309.854 -0.471945 0.531779 0
M  V30 3374 H 312.456 -0.708518 1.82209 0
M  V30 3375 H 311.16 -2.09894 3.52665 0
M  V30 3376 H 310.691 -3.22913 2.24701 0
M  V30 3377 H 312.706 -4.48527 2.12222 0
M  V30 3378 N 311.879 -1.3236 -0.855495 0
M  V30 3379 C 312.827 -1.2118 -1.9854 0
M  V30 3380 C 313.821 -0.116788 -1.68997 0
M  V30 3381 O 315.027 -0.279657 -1.77814 0
M  V30 3382 H 311.402 -0.375608 -0.651477 0
M  V30 3383 H 313.373 -2.16743 -2.05098 0
M  V30 3384 C 312.122 -0.950849 -3.34446 0
M  V30 3385 H 311.445 -1.78563 -3.57708 0
M  V30 3386 H 312.885 -0.912863 -4.14057 0
M  V30 3387 C 311.344 0.346404 -3.35114 0
M  V30 3388 O 311.874 1.35855 -3.7803 0
M  V30 3389 N 310.08 0.36808 -2.88259 0
M  V30 3390 H 309.627 -0.456102 -2.5353 0
M  V30 3391 H 309.585 1.23591 -2.89089 0
M  V30 3392 N 313.357 1.07166 -1.15556 0
M  V30 3393 C 314.267 2.17947 -0.868116 0
M  V30 3394 C 315.283 1.73297 0.156297 0
M  V30 3395 O 316.459 2.01392 -0.0182327 0
M  V30 3396 C 313.524 3.44789 -0.36355 0
M  V30 3397 C 312.585 4.03996 -1.45209 0
M  V30 3398 C 311.818 5.24783 -0.971508 0
M  V30 3399 O 312.041 5.70109 0.182194 0
M  V30 3400 O 310.975 5.75715 -1.75603 0
M  V30 3401 H 314.801 2.4503 -1.79427 0
M  V30 3402 H 312.386 1.16539 -0.934824 0
M  V30 3403 H 314.268 4.21307 -0.0887113 0
M  V30 3404 H 312.943 3.19253 0.534708 0
M  V30 3405 H 311.85 3.29009 -1.78056 0
M  V30 3406 H 313.183 4.33808 -2.32533 0
M  V30 3407 N 314.835 0.952656 1.25548 0
M  V30 3408 C 316.081 0.607272 1.93494 0
M  V30 3409 C 316.414 -0.853245 1.74452 0
M  V30 3410 O 315.689 -1.61194 1.08843 0
M  V30 3411 C 315.972 0.96435 3.46947 0
M  V30 3412 C 315.825 2.48045 3.75225 0
M  V30 3413 C 317.144 0.487987 4.37386 0
M  V30 3414 H 314.263 0.222096 0.702739 0
M  V30 3415 H 316.905 1.18895 1.48203 0
M  V30 3416 H 315.055 0.469361 3.85654 0
M  V30 3417 H 316.727 3.04905 3.46166 0
M  V30 3418 H 314.97 2.919 3.209 0
M  V30 3419 H 315.641 2.6808 4.82532 0
M  V30 3420 H 318.117 0.912558 4.0597 0
M  V30 3421 H 316.993 0.766547 5.43521 0
M  V30 3422 H 317.254 -0.612063 4.37843 0
M  V30 3423 N 316.313 -1.40141 0.720998 0
M  V30 3424 C 317.541 -2.05096 0.272656 0
M  V30 3425 C 317.956 -1.54334 -1.0875 0
M  V30 3426 O 317.313 -0.702211 -1.6845 0
M  V30 3427 C 317.364 -3.60636 0.249835 0
M  V30 3428 O 317.085 -4.09526 1.55629 0
M  V30 3429 C 318.586 -4.42772 -0.216396 0
M  V30 3430 H 315.806 -0.659897 0.121558 0
M  V30 3431 H 318.35 -1.79449 0.980723 0
M  V30 3432 H 316.505 -3.85232 -0.409237 0
M  V30 3433 H 316.919 -5.03758 1.4604 0
M  V30 3434 H 318.393 -5.51702 -0.181212 0
M  V30 3435 H 318.87 -4.20756 -1.25941 0
M  V30 3436 H 319.476 -4.23294 0.412596 0
M  V30 3437 N 317.792 -0.46758 -1.50504 0
M  V30 3438 C 319.02 0.0864133 -2.06719 0
M  V30 3439 C 319.435 1.33819 -1.33184 0
M  V30 3440 O 318.792 1.78061 -0.400083 0
M  V30 3441 C 318.843 0.378079 -3.59517 0
M  V30 3442 O 318.564 -0.824044 -4.3028 0
M  V30 3443 C 320.065 0.979426 -4.32345 0
M  V30 3444 H 317.285 -0.00551697 -0.670977 0
M  V30 3445 H 319.829 -0.655354 -1.93715 0
M  V30 3446 H 317.984 1.06977 -3.72337 0
M  V30 3447 H 318.398 -0.566518 -5.21432 0
M  V30 3448 H 319.872 1.1333 -5.40241 0
M  V30 3449 H 320.349 1.9686 -3.9261 0
M  V30 3450 H 320.955 0.326216 -4.24047 0
M  V30 3451 N 319.27 1.56325 -0.20005 0
M  V30 3452 C 320.516 1.98012 0.438059 0
M  V30 3453 C 320.849 1.08702 1.60927 0
M  V30 3454 O 320.124 0.140064 1.93995 0
M  V30 3455 C 320.407 3.48841 0.893419 0
M  V30 3456 C 320.26 4.48928 -0.279947 0
M  V30 3457 C 321.579 4.03498 1.75719 0
M  V30 3458 H 318.698 0.719918 0.157757 0
M  V30 3459 H 321.34 1.87743 -0.291968 0
M  V30 3460 H 319.49 3.57723 1.51547 0
M  V30 3461 H 321.162 4.52079 -0.91772 0
M  V30 3462 H 319.405 4.23694 -0.930919 0
M  V30 3463 H 320.076 5.5194 0.0812601 0
M  V30 3464 H 322.552 3.97427 1.23253 0
M  V30 3465 H 321.428 5.09393 2.04476 0
M  V30 3466 H 321.689 3.4906 2.71311 0
M  V30 3467 N 320.748 -0.0735177 1.57428 0
M  V30 3468 C 321.994 -0.774145 1.87443 0
M  V30 3469 C 322.327 -1.77311 0.792103 0
M  V30 3470 O 321.602 -1.93492 -0.197793 0
M  V30 3471 C 321.885 -1.48367 3.28115 0
M  V30 3472 C 321.738 -0.501227 4.46999 0
M  V30 3473 C 323.057 -2.429 3.66998 0
M  V30 3474 H 320.176 -0.279971 0.681752 0
M  V30 3475 H 322.818 -0.0373616 1.89963 0
M  V30 3476 H 320.968 -2.11171 3.26097 0
M  V30 3477 H 322.64 0.121468 4.6114 0
M  V30 3478 H 320.883 0.183593 4.33411 0
M  V30 3479 H 321.554 -1.03526 5.42205 0
M  V30 3480 H 324.03 -1.90175 3.70098 0
M  V30 3481 H 322.906 -2.89549 4.66318 0
M  V30 3482 H 323.167 -3.27628 2.96837 0
M  V30 3483 N 322.226 -1.5378 -0.344866 0
M  V30 3484 C 323.503 -1.61589 -1.10219 0
M  V30 3485 C 323.883 -0.436316 -2.06542 0
M  V30 3486 O 323.231 0.571543 -2.21237 0
M  V30 3487 C 323.441 -2.97602 -1.82301 0
M  V30 3488 C 324.789 -3.5291 -2.36093 0
M  V30 3489 O 325.813 -2.99768 -1.924 0
M  V30 3490 O 324.672 -4.45859 -3.16026 0
M  V30 3491 H 321.766 -0.653522 -0.506792 0
M  V30 3492 H 324.312 -1.66126 -0.346465 0
M  V30 3493 H 323.084 -3.74893 -1.12121 0
M  V30 3494 H 322.707 -2.9665 -2.64735 0
M  V30 3495 N 323.704 0.605807 -1.45491 0
M  V30 3496 C 324.95 1.36679 -1.49823 0
M  V30 3497 C 325.283 1.93693 -0.140175 0
M  V30 3498 O 324.558 1.75158 0.845581 0
M  V30 3499 C 324.841 2.51337 -2.57879 0
M  V30 3500 C 324.694 1.99508 -4.03134 0
M  V30 3501 C 326.013 3.53463 -2.62205 0
M  V30 3502 H 323.132 0.495617 -0.545466 0
M  V30 3503 H 325.774 0.682732 -1.7731 0
M  V30 3504 H 323.924 3.09691 -2.34571 0
M  V30 3505 H 325.596 1.45789 -4.37656 0
M  V30 3506 H 323.839 1.30496 -4.13707 0
M  V30 3507 H 324.51 2.82169 -4.74431 0
M  V30 3508 H 326.986 3.04953 -2.83095 0
M  V30 3509 H 325.862 4.31178 -3.39672 0
M  V30 3510 H 326.123 4.09197 -1.67363 0
M  V30 3511 N 325.182 1.32811 0.848464 0
M  V30 3512 C 326.129 1.22265 1.95755 0
M  V30 3513 C 327.099 0.103413 1.65778 0
M  V30 3514 O 328.284 0.280033 1.88734 0
M  V30 3515 C 325.424 0.958014 3.31536 0
M  V30 3516 C 324.537 2.16262 3.73971 0
M  V30 3517 C 323.672 1.83295 4.98575 0
M  V30 3518 C 322.711 3.00041 5.33518 0
M  V30 3519 N 321.848 2.67125 6.49299 0
M  V30 3520 H 326.688 2.17128 2.04107 0
M  V30 3521 H 324.225 1.07982 0.998913 0
M  V30 3522 H 326.183 0.785052 4.09747 0
M  V30 3523 H 324.813 0.046159 3.22767 0
M  V30 3524 H 323.865 2.44565 2.91362 0
M  V30 3525 H 325.177 3.03572 3.95785 0
M  V30 3526 H 324.331 1.62586 5.84509 0
M  V30 3527 H 323.07 0.932078 4.7871 0
M  V30 3528 H 322.075 3.21374 4.46093 0
M  V30 3529 H 323.3 3.90869 5.55336 0
M  V30 3530 H 321.246 1.79586 6.3094 0
M  V30 3531 H 321.163 3.47965 6.71161 0
M  V30 3532 H 322.431 2.49861 7.3837 0
M  V30 3533 N 326.66 -1.06551 1.16123 0
M  V30 3534 C 327.57 -2.17484 0.879662 0
M  V30 3535 C 328.586 -1.73377 -0.147104 0
M  V30 3536 O 329.762 -2.01379 0.0289128 0
M  V30 3537 C 326.827 -3.44591 0.381829 0
M  V30 3538 C 325.888 -4.0322 1.4735 0
M  V30 3539 C 325.121 -5.24261 0.999324 0
M  V30 3540 O 325.344 -5.70198 -0.151957 0
M  V30 3541 O 324.278 -5.74775 1.78653 0
M  V30 3542 H 328.104 -2.44075 1.80724 0
M  V30 3543 H 325.689 -1.16042 0.940992 0
M  V30 3544 H 327.571 -4.21254 0.111053 0
M  V30 3545 H 326.246 -3.19532 -0.51777 0
M  V30 3546 H 325.153 -3.2806 1.79798 0
M  V30 3547 H 326.486 -4.32568 2.34831 0
M  V30 3548 N 328.138 -0.959301 -1.25041 0
M  V30 3549 C 329.387 -0.612254 -1.92183 0
M  V30 3550 C 329.7 0.855347 -1.75907 0
M  V30 3551 O 330.906 1.31256 -2.37664 0
M  V30 3552 C 329.362 -1.04435 -3.44414 0
M  V30 3553 C 328.97 -2.53482 -3.69393 0
M  V30 3554 C 330.714 -0.770055 -4.17457 0
M  V30 3555 C 328.621 -2.90468 -5.15153 0
M  V30 3556 H 327.551 -0.225279 -0.719559 0
M  V30 3557 H 330.202 -1.16438 -1.41825 0
M  V30 3558 H 328.584 -0.4206 -3.9376 0
M  V30 3559 H 329.758 -3.20916 -3.30681 0
M  V30 3560 H 328.073 -2.78432 -3.0962 0
M  V30 3561 H 330.67 -1.02249 -5.24832 0
M  V30 3562 H 331.013 0.293611 -4.15263 0
M  V30 3563 H 331.546 -1.35437 -3.74034 0
M  V30 3564 H 328.285 -3.95871 -5.22462 0
M  V30 3565 H 327.805 -2.27711 -5.54894 0
M  V30 3566 H 329.484 -2.79914 -5.83315 0
M  V30 3567 N 329.616 1.39756 -0.72842 0
M  V30 3568 C 330.863 2.00645 -0.273487 0
M  V30 3569 C 331.191 1.57786 1.13727 0
M  V30 3570 O 330.446 0.794886 1.7883 0
M  V30 3571 C 330.745 3.56002 -0.315776 0
M  V30 3572 C 330.411 4.18489 -1.67863 0
M  V30 3573 C 329.073 4.3527 -2.05166 0
M  V30 3574 C 331.425 4.53219 -2.57375 0
M  V30 3575 C 328.753 4.84069 -3.31503 0
M  V30 3576 C 331.105 5.03423 -3.83077 0
M  V30 3577 C 329.769 5.18413 -4.20481 0
M  V30 3578 H 329.039 0.734211 -0.100076 0
M  V30 3579 H 331.686 1.6718 -0.933972 0
M  V30 3580 H 329.991 3.89452 0.428285 0
M  V30 3581 H 331.688 4.00963 0.0542575 0
M  V30 3582 H 328.278 4.05824 -1.37858 0
M  V30 3583 H 332.462 4.39878 -2.29827 0
M  V30 3584 H 327.718 4.93859 -3.60435 0
M  V30 3585 H 331.892 5.2927 -4.52599 0
M  V30 3586 H 329.519 5.55987 -5.18443 0
M  V30 3587 N 331.094 0.475555 1.50254 0
M  V30 3588 C 332.041 -0.316293 2.28622 0
M  V30 3589 C 333.011 -0.983227 1.33873 0
M  V30 3590 O 334.196 -0.994805 1.62814 0
M  V30 3591 C 331.336 -1.38975 3.1588 0
M  V30 3592 C 330.449 -0.737146 4.25664 0
M  V30 3593 C 329.584 -1.78887 5.00173 0
M  V30 3594 C 328.623 -1.11676 6.01826 0
M  V30 3595 N 327.76 -2.11154 6.69596 0
M  V30 3596 H 332.6 0.358297 2.95838 0
M  V30 3597 H 330.137 0.188541 1.45887 0
M  V30 3598 H 332.095 -2.02383 3.64825 0
M  V30 3599 H 330.725 -2.03344 2.50701 0
M  V30 3600 H 329.777 0.0096065 3.80399 0
M  V30 3601 H 331.089 -0.206816 4.98371 0
M  V30 3602 H 330.243 -2.49865 5.52859 0
M  V30 3603 H 328.982 -2.35302 4.27182 0
M  V30 3604 H 327.987 -0.392633 5.48396 0
M  V30 3605 H 329.212 -0.55945 6.76792 0
M  V30 3606 H 327.158 -2.66577 5.99394 0
M  V30 3607 H 327.075 -1.63118 7.38193 0
M  V30 3608 H 328.343 -2.81497 7.26897 0
M  V30 3609 N 332.573 -1.56217 0.208337 0
M  V30 3610 C 333.798 -2.02782 -0.435222 0
M  V30 3611 C 334.223 -1.08738 -1.53485 0
M  V30 3612 O 333.581 -0.0731855 -1.81152 0
M  V30 3613 C 333.629 -3.47687 -0.956335 0
M  V30 3614 O 332.733 -3.56773 -2.06849 0
M  V30 3615 H 332.074 -0.656403 -0.100158 0
M  V30 3616 H 334.604 -2.02033 0.3231 0
M  V30 3617 H 334.614 -3.87745 -1.26955 0
M  V30 3618 H 333.289 -4.15624 -0.15143 0
M  V30 3619 H 331.866 -3.28597 -1.76292 0
M  V30 3620 N 334.051 0.0651679 -1.57465 0
M  V30 3621 C 335.276 0.779605 -1.9219 0
M  V30 3622 C 335.701 1.69988 -0.805333 0
M  V30 3623 O 335.059 1.79685 0.241435 0
M  V30 3624 C 335.107 1.54364 -3.2589 0
M  V30 3625 O 334.211 2.65474 -3.1559 0
M  V30 3626 H 333.552 0.212249 -0.629163 0
M  V30 3627 H 336.082 0.0314294 -2.04576 0
M  V30 3628 H 336.092 1.92146 -3.59922 0
M  V30 3629 H 334.767 0.868457 -4.06732 0
M  V30 3630 H 333.344 2.30501 -2.93128 0
M  V30 3631 N 335.529 1.53961 0.336706 0
M  V30 3632 C 336.754 1.75797 1.10046 0
M  V30 3633 C 337.179 0.498985 1.81361 0
M  V30 3634 O 336.537 -0.548769 1.72795 0
M  V30 3635 C 336.585 2.94257 2.08436 0
M  V30 3636 O 335.689 2.64883 3.16087 0
M  V30 3637 H 335.03 0.582936 0.317934 0
M  V30 3638 H 337.56 2.00945 0.38501 0
M  V30 3639 H 337.57 3.21237 2.51537 0
M  V30 3640 H 336.245 3.85564 1.55927 0
M  V30 3641 H 334.822 2.48812 2.77753 0
M  V30 3642 N 337.007 -0.598083 1.45811 0
M  V30 3643 C 338.418 -1.18011 1.44673 0
M  V30 3644 C 338.769 -1.95378 0.179364 0
M  V30 3645 O 337.894 -2.04124 -0.718509 0
M  V30 3646 C 338.489 -2.14677 2.62105 0
M  V30 3647 C 337.048 -2.68236 2.64057 0
M  V30 3648 C 336.195 -1.43816 2.37091 0
M  V30 3649 H 339.146 -0.38686 1.53913 0
M  V30 3650 H 339.167 -2.97878 2.36746 0
M  V30 3651 H 338.679 -1.5834 3.5433 0
M  V30 3652 H 336.78 -3.28486 1.75864 0
M  V30 3653 H 336.893 -3.12021 3.63566 0
M  V30 3654 H 335.257 -1.731 1.86838 0
M  V30 3655 H 336.04 -0.893333 3.31473 0
M  V30 3656 N 338.485 -1.33259 -0.841409 0
M  V30 3657 C 339.734 -1.23921 -1.59143 0
M  V30 3658 C 340.047 0.1941 -1.94635 0
M  V30 3659 O 341.253 0.409474 -2.68394 0
M  V30 3660 C 339.709 -2.17119 -2.87032 0
M  V30 3661 C 339.317 -3.65606 -2.58914 0
M  V30 3662 C 341.061 -2.16648 -3.65053 0
M  V30 3663 C 338.968 -4.50726 -3.82884 0
M  V30 3664 H 337.898 -0.460264 -0.597221 0
M  V30 3665 H 340.549 -1.58307 -0.927959 0
M  V30 3666 H 338.931 -1.75663 -3.54906 0
M  V30 3667 H 340.105 -4.15487 -1.99267 0
M  V30 3668 H 338.42 -3.68341 -1.942 0
M  V30 3669 H 341.017 -2.77474 -4.57069 0
M  V30 3670 H 341.36 -1.16088 -3.99787 0
M  V30 3671 H 341.893 -2.56453 -3.041 0
M  V30 3672 H 338.632 -5.52151 -3.53283 0
M  V30 3673 H 338.152 -4.0559 -4.41879 0
M  V30 3674 H 339.831 -4.64401 -4.50489 0
M  V30 3675 N 339.963 1.05934 -1.16686 0
M  V30 3676 C 341.374 1.60263 -0.957745 0
M  V30 3677 C 341.725 1.89789 0.49745 0
M  V30 3678 O 340.85 1.67401 1.37135 0
M  V30 3679 C 341.445 2.91172 -1.73218 0
M  V30 3680 C 340.004 3.42188 -1.56794 0
M  V30 3681 C 339.151 2.16028 -1.73859 0
M  V30 3682 H 342.102 0.888392 -1.31504 0
M  V30 3683 H 342.123 3.60744 -1.21014 0
M  V30 3684 H 341.635 2.6965 -2.79124 0
M  V30 3685 H 339.736 3.68762 -0.533437 0
M  V30 3686 H 339.849 4.17273 -2.35414 0
M  V30 3687 H 338.213 2.26426 -1.16633 0
M  V30 3688 H 338.996 1.96985 -2.81161 0
M  V30 3689 N 341.441 0.965919 1.2453 0
M  V30 3690 C 342.857 0.67216 1.44756 0
M  V30 3691 C 343.057 -0.766609 1.86347 0
M  V30 3692 O 342.113 -1.5407 2.00047 0
M  V30 3693 C 343.426 1.65473 2.51076 0
M  V30 3694 C 344.974 1.66716 2.64905 0
M  V30 3695 C 345.449 2.63766 3.74421 0
M  V30 3696 N 346.94 2.62198 3.81846 0
M  V30 3697 C 347.675 3.33966 4.66106 0
M  V30 3698 N 347.171 4.15245 5.54566 0
M  V30 3699 N 348.964 3.22799 4.60171 0
M  V30 3700 H 341.115 1.89553 0.958293 0
M  V30 3701 H 343.378 0.815979 0.482579 0
M  V30 3702 H 343.084 2.68296 2.27399 0
M  V30 3703 H 342.958 1.4261 3.49202 0
M  V30 3704 H 345.345 0.646057 2.87941 0
M  V30 3705 H 345.426 1.93642 1.67142 0
M  V30 3706 H 345.07 3.6601 3.52135 0
M  V30 3707 H 345 2.34121 4.71694 0
M  V30 3708 H 347.491 2.032 3.18619 0
M  V30 3709 H 347.804 4.66898 6.15814 0
M  V30 3710 H 346.149 4.1934 5.54237 0
M  V30 3711 H 349.34 2.58764 3.90075 0
M  V30 3712 H 349.513 3.78994 5.25612 0
M  V30 3713 N 342.919 -1.39368 0.735821 0
M  V30 3714 C 344.147 -2.04795 0.294393 0
M  V30 3715 C 344.562 -1.55478 -1.07107 0
M  V30 3716 O 343.919 -0.720038 -1.67695 0
M  V30 3717 C 343.97 -3.6035 0.288071 0
M  V30 3718 O 343.691 -4.07852 1.59963 0
M  V30 3719 C 345.192 -4.42976 -0.169422 0
M  V30 3720 H 342.412 -0.658571 0.128551 0
M  V30 3721 H 344.956 -1.78399 0.999701 0
M  V30 3722 H 343.111 -3.85645 -0.368355 0
M  V30 3723 H 343.525 -5.02181 1.51375 0
M  V30 3724 H 344.999 -5.51864 -0.122687 0
M  V30 3725 H 345.476 -4.22068 -1.21472 0
M  V30 3726 H 346.082 -4.22832 0.457469 0
M  V30 3727 N 344.397 -0.483516 -1.5 0
M  V30 3728 C 345.329 0.340634 -2.26655 0
M  V30 3729 C 346.342 0.946152 -1.32483 0
M  V30 3730 O 347.531 0.832453 -1.579 0
M  V30 3731 C 344.631 1.4929 -3.04246 0
M  V30 3732 C 343.804 0.997903 -4.25865 0
M  V30 3733 C 342.863 2.02569 -4.85646 0
M  V30 3734 O 341.889 1.60128 -5.46212 0
M  V30 3735 N 343.091 3.3548 -4.73744 0
M  V30 3736 H 345.856 -0.316577 -2.98023 0
M  V30 3737 H 343.417 -0.315024 -1.58806 0
M  V30 3738 H 345.409 2.17766 -3.41116 0
M  V30 3739 H 343.979 2.05458 -2.35597 0
M  V30 3740 H 343.199 0.138617 -3.93956 0
M  V30 3741 H 344.487 0.645305 -5.04691 0
M  V30 3742 H 343.885 3.72661 -4.25605 0
M  V30 3743 H 342.442 3.99718 -5.14848 0
M  V30 3744 N 345.875 1.56104 -0.216619 0
M  V30 3745 C 347.121 1.98466 0.417033 0
M  V30 3746 C 347.454 1.10403 1.59765 0
M  V30 3747 O 346.729 0.160632 1.93836 0
M  V30 3748 C 347.012 3.49769 0.85637 0
M  V30 3749 C 346.865 4.48606 -0.327546 0
M  V30 3750 C 348.184 4.05339 1.7143 0
M  V30 3751 H 345.303 0.721551 0.150112 0
M  V30 3752 H 347.945 1.87423 -0.311864 0
M  V30 3753 H 346.095 3.5931 1.47745 0
M  V30 3754 H 347.767 4.5108 -0.965618 0
M  V30 3755 H 346.01 4.22682 -0.975805 0
M  V30 3756 H 346.681 5.51995 0.0227149 0
M  V30 3757 H 349.157 3.98712 1.19031 0
M  V30 3758 H 348.033 5.11533 1.99061 0
M  V30 3759 H 348.294 3.51918 2.67593 0
M  V30 3760 N 347.353 -0.0568162 1.57498 0
M  V30 3761 C 348.764 -0.606858 1.76562 0
M  V30 3762 C 349.115 -1.77114 0.844094 0
M  V30 3763 O 348.24 -2.16376 0.0318911 0
M  V30 3764 C 348.835 -1.10766 3.20182 0
M  V30 3765 C 347.394 -1.60344 3.40539 0
M  V30 3766 C 346.541 -0.529311 2.72201 0
M  V30 3767 H 349.492 0.169393 1.57793 0
M  V30 3768 H 349.513 -1.97602 3.25167 0
M  V30 3769 H 349.025 -0.26006 3.87228 0
M  V30 3770 H 347.126 -2.47379 2.78629 0
M  V30 3771 H 347.239 -1.67006 4.4905 0
M  V30 3772 H 345.603 -0.977893 2.35179 0
M  V30 3773 H 346.386 0.308352 3.41912 0
M  V30 3774 N 348.832 -1.54138 -0.328536 0
M  V30 3775 C 349.762 -1.86167 -1.40939 0
M  V30 3776 C 350.743 -0.718044 -1.54202 0
M  V30 3777 O 351.928 -0.971328 -1.68163 0
M  V30 3778 C 349.058 -2.08461 -2.77779 0
M  V30 3779 C 348.012 -3.24299 -2.7931 0
M  V30 3780 C 347.338 -3.31955 -4.19178 0
M  V30 3781 C 348.638 -4.62065 -2.43502 0
M  V30 3782 H 350.332 -2.76689 -1.14383 0
M  V30 3783 H 347.878 -1.33132 -0.548806 0
M  V30 3784 H 349.831 -2.29453 -3.53454 0
M  V30 3785 H 348.555 -1.14684 -3.05802 0
M  V30 3786 H 347.214 -3.03187 -2.0609 0
M  V30 3787 H 346.862 -2.35745 -4.44335 0
M  V30 3788 H 346.562 -4.09805 -4.2111 0
M  V30 3789 H 348.086 -3.55175 -4.96672 0
M  V30 3790 H 349.5 -4.8297 -3.08889 0
M  V30 3791 H 347.897 -5.42429 -2.56693 0
M  V30 3792 H 348.967 -4.64652 -1.38659 0
M  V30 3793 N 350.31 0.590341 -1.46126 0
M  V30 3794 C 351.559 1.34499 -1.50309 0
M  V30 3795 C 351.872 1.94977 -0.156021 0
M  V30 3796 O 353.078 2.71395 -0.0756037 0
M  V30 3797 C 351.534 2.43723 -2.64815 0
M  V30 3798 C 351.142 1.89582 -4.0591 0
M  V30 3799 C 352.886 3.20579 -2.78262 0
M  V30 3800 C 350.793 2.9639 -5.11769 0
M  V30 3801 H 349.723 0.505593 -0.559368 0
M  V30 3802 H 352.374 0.630848 -1.72315 0
M  V30 3803 H 350.756 3.17902 -2.36124 0
M  V30 3804 H 351.93 1.21997 -4.44357 0
M  V30 3805 H 350.245 1.25418 -3.97063 0
M  V30 3806 H 352.842 4.00276 -3.54519 0
M  V30 3807 H 353.185 3.72684 -1.85505 0
M  V30 3808 H 353.718 2.53505 -3.06562 0
M  V30 3809 H 350.457 2.49181 -6.06291 0
M  V30 3810 H 349.977 3.62487 -4.77873 0
M  V30 3811 H 351.656 3.60474 -5.37278 0
M  V30 3812 N 351.788 1.33704 0.83433 0
M  V30 3813 C 353.016 1.28467 1.62185 0
M  V30 3814 C 353.431 -0.143526 1.88254 0
M  V30 3815 O 352.788 -1.08709 1.4659 0
M  V30 3816 C 352.839 2.06174 2.96942 0
M  V30 3817 O 352.56 3.43422 2.72016 0
M  V30 3818 C 354.061 2.08201 3.91366 0
M  V30 3819 H 351.281 0.4424 0.504503 0
M  V30 3820 H 353.825 1.76145 1.03891 0
M  V30 3821 H 351.98 1.62167 3.51825 0
M  V30 3822 H 352.394 3.83453 3.57861 0
M  V30 3823 H 353.868 2.67017 4.83121 0
M  V30 3824 H 354.345 1.07343 4.2588 0
M  V30 3825 H 354.951 2.52246 3.42421 0
M  V30 3826 N 353.266 -1.05314 1.17247 0
M  V30 3827 C 354.214 -2.15137 0.884238 0
M  V30 3828 C 355.208 -1.68729 -0.15063 0
M  V30 3829 O 356.414 -1.8 -0.00366673 0
M  V30 3830 H 352.789 -0.702471 0.2684 0
M  V30 3831 H 354.76 -2.36652 1.81764 0
M  V30 3832 C 353.509 -3.45243 0.412659 0
M  V30 3833 H 352.832 -3.81352 1.20043 0
M  V30 3834 H 354.272 -4.23263 0.249858 0
M  V30 3835 C 352.731 -3.25487 -0.86948 0
M  V30 3836 O 353.261 -3.51938 -1.93655 0
M  V30 3837 N 351.467 -2.78875 -0.817147 0
M  V30 3838 H 351.014 -2.57549 0.0514211 0
M  V30 3839 H 350.972 -2.66036 -1.67547 0
M  V30 3840 N 354.744 -0.972509 -1.24016 0
M  V30 3841 C 355.969 -0.654417 -1.96805 0
M  V30 3842 C 356.394 0.770398 -1.716 0
M  V30 3843 O 355.752 1.52361 -0.982647 0
M  V30 3844 C 355.8 -0.941031 -3.48105 0
M  V30 3845 O 354.904 -0.0289472 -4.1239 0
M  V30 3846 H 354.245 -0.24692 -0.616382 0
M  V30 3847 H 356.775 -1.30396 -1.57664 0
M  V30 3848 H 356.785 -0.87452 -3.98517 0
M  V30 3849 H 355.46 -1.97939 -3.65777 0
M  V30 3850 H 354.037 -0.149192 -3.72601 0
M  V30 3851 N 356.222 1.38976 -0.743202 0
M  V30 3852 C 357.447 2.05161 -0.303936 0
M  V30 3853 C 357.872 1.55677 1.05576 0
M  V30 3854 O 357.23 0.704131 1.67068 0
M  V30 3855 C 357.278 3.59138 -0.324373 0
M  V30 3856 O 356.382 4.06668 0.685204 0
M  V30 3857 H 355.723 0.649815 -0.136518 0
M  V30 3858 H 358.253 1.77852 -1.01142 0
M  V30 3859 H 358.263 4.07639 -0.171618 0
M  V30 3860 H 356.938 3.94515 -1.31647 0
M  V30 3861 H 355.515 3.69561 0.497913 0
M  V30 3862 N 357.7 0.491464 1.49741 0
M  V30 3863 C 358.94 -0.0549118 2.04326 0
M  V30 3864 C 359.304 -1.35148 1.36378 0
M  V30 3865 O 360.505 -1.9815 1.81631 0
M  V30 3866 C 358.776 -0.213841 3.5676 0
M  V30 3867 S 360.335 -0.715839 4.32922 0
M  V30 3868 H 357.153 -0.00630513 0.710972 0
M  V30 3869 H 359.755 0.663257 1.83905 0
M  V30 3870 H 358.459 0.73527 4.0376 0
M  V30 3871 H 357.99 -0.957529 3.81569 0
M  V30 3872 H 360.005 -1.9864 4.54705 0
M  V30 3873 N 359.178 -1.55987 0.224894 0
M  V30 3874 C 360.11 -2.17722 -0.716224 0
M  V30 3875 C 361.123 -1.14723 -1.15509 0
M  V30 3876 O 362.312 -1.41688 -1.08567 0
M  V30 3877 C 359.412 -2.74873 -1.98238 0
M  V30 3878 C 358.585 -4.03074 -1.69853 0
M  V30 3879 C 357.644 -4.44757 -2.81208 0
M  V30 3880 O 356.67 -5.11587 -2.49534 0
M  V30 3881 N 357.872 -4.10716 -4.10235 0
M  V30 3882 H 360.637 -2.99109 -0.188123 0
M  V30 3883 H 358.198 -1.6184 0.0440123 0
M  V30 3884 H 360.19 -2.99727 -2.7193 0
M  V30 3885 H 358.76 -1.9777 -2.42086 0
M  V30 3886 H 357.98 -3.86041 -0.797875 0
M  V30 3887 H 359.268 -4.86701 -1.48324 0
M  V30 3888 H 358.666 -3.57019 -4.38809 0
M  V30 3889 H 357.223 -4.40455 -4.80461 0
M  V30 3890 N 360.656 0.0484629 -1.57525 0
M  V30 3891 C 361.896 0.748196 -1.90214 0
M  V30 3892 C 362.26 1.73545 -0.821347 0
M  V30 3893 O 363.461 2.48201 -1.03198 0
M  V30 3894 C 361.732 1.41727 -3.28098 0
M  V30 3895 S 363.291 2.14884 -3.82584 0
M  V30 3896 H 360.109 0.248307 -0.666232 0
M  V30 3897 H 362.711 0.00343188 -1.955 0
M  V30 3898 H 361.415 0.685244 -4.04639 0
M  V30 3899 H 360.946 2.20099 -3.26068 0
M  V30 3900 H 362.961 3.41755 -3.59747 0
M  V30 3901 N 362.134 1.5431 0.320358 0
M  V30 3902 C 363.545 1.63872 0.894594 0
M  V30 3903 C 363.896 0.534847 1.88769 0
M  V30 3904 O 363.021 -0.331732 2.13842 0
M  V30 3905 C 363.616 2.97049 1.62934 0
M  V30 3906 C 362.175 3.08796 2.15226 0
M  V30 3907 C 361.322 2.59456 0.978671 0
M  V30 3908 H 364.273 1.58398 0.0978544 0
M  V30 3909 H 364.294 2.87388 2.49376 0
M  V30 3910 H 363.806 3.7737 0.906302 0
M  V30 3911 H 361.907 2.33156 2.90636 0
M  V30 3912 H 362.02 4.14649 2.40006 0
M  V30 3913 H 360.384 2.1543 1.35875 0
M  V30 3914 H 361.167 3.42237 0.269895 0
M  V30 3915 N 363.613 -0.582584 1.46437 0
M  V30 3916 C 364.563 -1.68654 1.53426 0
M  V30 3917 C 365.547 -1.55971 0.395194 0
M  V30 3918 O 366.739 -1.64884 0.643612 0
M  V30 3919 C 363.868 -3.07439 1.52762 0
M  V30 3920 C 362.954 -3.25418 2.71963 0
M  V30 3921 N 363.345 -3.13556 3.96883 0
M  V30 3922 C 361.643 -3.56357 2.68189 0
M  V30 3923 C 362.344 -3.33543 4.76575 0
M  V30 3924 N 361.32 -3.58704 4.08451 0
M  V30 3925 H 365.122 -1.58014 2.47808 0
M  V30 3926 H 362.636 -0.786617 1.42078 0
M  V30 3927 H 364.633 -3.86671 1.55857 0
M  V30 3928 H 363.293 -3.1921 0.594573 0
M  V30 3929 H 364.304 -2.9142 4.28129 0
M  V30 3930 H 360.981 -3.74812 1.83908 0
M  V30 3931 H 362.371 -3.29555 5.85528 0
M  V30 3932 N 365.091 -1.34144 -0.827227 0
M  V30 3933 C 366.34 -1.25602 -1.5782 0
M  V30 3934 C 366.653 0.173445 -1.94829 0
M  V30 3935 O 367.859 0.380984 -2.68814 0
M  V30 3936 C 366.315 -2.20151 -2.84713 0
M  V30 3937 C 365.923 -3.68331 -2.55021 0
M  V30 3938 C 367.667 -2.20508 -3.62735 0
M  V30 3939 C 365.574 -4.54762 -3.78082 0
M  V30 3940 H 364.504 -0.466573 -0.592306 0
M  V30 3941 H 367.155 -1.59283 -0.911116 0
M  V30 3942 H 365.537 -1.79417 -3.53023 0
M  V30 3943 H 366.711 -4.17577 -1.94849 0
M  V30 3944 H 365.026 -3.7038 -1.90283 0
M  V30 3945 H 367.623 -2.82306 -4.54101 0
M  V30 3946 H 367.966 -1.20322 -3.98533 0
M  V30 3947 H 368.499 -2.59664 -3.01362 0
M  V30 3948 H 365.238 -5.55867 -3.47407 0
M  V30 3949 H 364.758 -4.10254 -4.37552 0
M  V30 3950 H 366.437 -4.69153 -4.45538 0
M  V30 3951 N 366.569 1.04691 -1.17803 0
M  V30 3952 C 367.499 2.14494 -0.92275 0
M  V30 3953 C 368.48 1.69546 0.137179 0
M  V30 3954 O 369.665 1.94195 -0.0141108 0
M  V30 3955 C 366.795 3.44491 -0.440803 0
M  V30 3956 C 365.749 4.03031 -1.4405 0
M  V30 3957 C 365.075 5.28432 -0.81631 0
M  V30 3958 C 366.375 4.39932 -2.81527 0
M  V30 3959 H 368.069 2.36107 -1.84103 0
M  V30 3960 H 365.615 1.1347 -0.886599 0
M  V30 3961 H 367.568 4.2066 -0.249602 0
M  V30 3962 H 366.292 3.22546 0.513025 0
M  V30 3963 H 364.951 3.28937 -1.61853 0
M  V30 3964 H 364.599 5.02792 0.144511 0
M  V30 3965 H 364.299 5.68559 -1.48371 0
M  V30 3966 H 365.823 6.07284 -0.635496 0
M  V30 3967 H 367.237 5.07113 -2.67412 0
M  V30 3968 H 365.634 4.9109 -3.44892 0
M  V30 3969 H 366.704 3.50045 -3.35554 0
M  V30 3970 N 368.047 0.979072 1.23499 0
M  V30 3971 C 369.458 0.684391 1.73704 0
M  V30 3972 C 369.809 -0.799448 1.79174 0
M  V30 3973 O 368.934 -1.62531 1.42873 0
M  V30 3974 C 369.529 1.23564 3.15464 0
M  V30 3975 C 368.088 0.99063 3.6313 0
M  V30 3976 C 367.235 1.36416 2.41425 0
M  V30 3977 H 370.186 1.15307 1.09041 0
M  V30 3978 H 370.207 0.607417 3.7562 0
M  V30 3979 H 369.719 2.31561 3.1145 0
M  V30 3980 H 367.82 -0.0733136 3.72528 0
M  V30 3981 H 367.933 1.64427 4.5 0
M  V30 3982 H 366.297 0.782616 2.42378 0
M  V30 3983 H 367.08 2.45387 2.40083 0
M  V30 3984 N 369.525 -1.3858 0.750561 0
M  V30 3985 C 370.475 -2.27795 0.0965949 0
M  V30 3986 C 371.459 -1.45048 -0.696411 0
M  V30 3987 O 372.651 -1.67812 -0.562863 0
M  V30 3988 C 369.78 -3.33894 -0.798085 0
M  V30 3989 C 368.866 -4.241 0.0016067 0
M  V30 3990 N 369.257 -4.95067 1.03647 0
M  V30 3991 C 367.555 -4.45429 -0.225674 0
M  V30 3992 C 368.256 -5.61489 1.52004 0
M  V30 3993 N 367.232 -5.37135 0.835874 0
M  V30 3994 H 371.034 -2.80125 0.889228 0
M  V30 3995 H 368.548 -1.51446 0.586323 0
M  V30 3996 H 370.545 -3.96693 -1.28219 0
M  V30 3997 H 369.205 -2.83123 -1.5897 0
M  V30 3998 H 370.216 -4.98104 1.41819 0
M  V30 3999 H 366.893 -4.05571 -0.990872 0
M  V30 4000 H 368.283 -6.28264 2.38188 0
M  V30 4001 N 371.003 -0.499398 -1.49478 0
M  V30 4002 C 371.935 0.316575 -2.27003 0
M  V30 4003 C 372.948 0.932047 -1.33479 0
M  V30 4004 O 374.137 0.815658 -1.58774 0
M  V30 4005 C 371.237 1.46055 -3.05812 0
M  V30 4006 C 370.41 0.952679 -4.26899 0
M  V30 4007 C 369.469 1.97407 -4.87767 0
M  V30 4008 O 368.495 1.54326 -5.4788 0
M  V30 4009 N 369.697 3.30436 -4.77276 0
M  V30 4010 H 372.462 -0.348168 -2.97671 0
M  V30 4011 H 370.023 -0.33185 -1.58463 0
M  V30 4012 H 372.015 2.14135 -3.43407 0
M  V30 4013 H 370.585 2.02948 -2.37762 0
M  V30 4014 H 369.805 0.0968248 -3.94081 0
M  V30 4015 H 371.093 0.59174 -5.05347 0
M  V30 4016 H 370.491 3.68126 -4.29534 0
M  V30 4017 H 369.048 3.94235 -5.19059 0
M  V30 4018 N 372.481 1.55866 -0.233164 0
M  V30 4019 C 373.758 1.90471 0.444988 0
M  V30 4020 C 374.138 1.15209 1.7689 0
M  V30 4021 O 373.486 0.265119 2.26957 0
M  V30 4022 C 373.696 3.4333 0.626559 0
M  V30 4023 C 375.044 4.14319 0.92871 0
M  V30 4024 O 376.068 3.48993 0.712926 0
M  V30 4025 O 374.927 5.29846 1.33887 0
M  V30 4026 H 372.021 0.792347 0.236885 0
M  V30 4027 H 374.567 1.67437 -0.276211 0
M  V30 4028 H 373.339 3.90095 -0.306822 0
M  V30 4029 H 372.962 3.72181 1.39881 0
M  V30 4030 N 373.959 -0.0401083 1.57549 0
M  V30 4031 C 375.205 -0.734211 1.89043 0
M  V30 4032 C 375.538 -1.75591 0.829535 0
M  V30 4033 O 374.813 -1.93868 -0.156706 0
M  V30 4034 C 375.096 -1.41374 3.31188 0
M  V30 4035 C 374.949 -0.406299 4.47961 0
M  V30 4036 C 376.268 -2.35061 3.72068 0
M  V30 4037 H 373.387 -0.265447 0.687537 0
M  V30 4038 H 376.029 0.00294087 1.9 0
M  V30 4039 H 374.179 -2.04206 3.30503 0
M  V30 4040 H 375.851 0.219255 4.60779 0
M  V30 4041 H 374.094 0.275485 4.32924 0
M  V30 4042 H 374.765 -0.920022 5.44279 0
M  V30 4043 H 377.241 -1.82282 3.74049 0
M  V30 4044 H 376.117 -2.79593 4.72355 0
M  V30 4045 H 376.378 -3.21258 3.0372 0
M  V30 4046 N 375.437 -1.54477 -0.31217 0
M  V30 4047 C 376.367 -1.87652 -1.38957 0
M  V30 4048 C 377.348 -0.734358 -1.53431 0
M  V30 4049 O 378.533 -0.98911 -1.67123 0
M  V30 4050 C 375.663 -2.11396 -2.75552 0
M  V30 4051 C 374.617 -3.27243 -2.75855 0
M  V30 4052 C 373.943 -3.36382 -4.15633 0
M  V30 4053 C 375.243 -4.64622 -2.38587 0
M  V30 4054 H 376.937 -2.77887 -1.11442 0
M  V30 4055 H 374.483 -1.33707 -0.534655 0
M  V30 4056 H 376.436 -2.33189 -3.51 0
M  V30 4057 H 375.16 -1.17921 -3.04569 0
M  V30 4058 H 373.819 -3.05356 -2.02863 0
M  V30 4059 H 373.467 -2.40445 -4.41809 0
M  V30 4060 H 373.167 -4.14249 -4.1674 0
M  V30 4061 H 374.691 -3.60422 -4.92877 0
M  V30 4062 H 376.105 -4.86219 -3.03749 0
M  V30 4063 H 374.502 -5.45121 -2.50925 0
M  V30 4064 H 375.572 -4.66097 -1.33723 0
M  V30 4065 N 376.915 0.57481 -1.46744 0
M  V30 4066 C 378.164 1.32898 -1.51727 0
M  V30 4067 C 378.477 1.948 -0.176692 0
M  V30 4068 O 379.683 2.71299 -0.104385 0
M  V30 4069 C 378.139 2.40901 -2.67385 0
M  V30 4070 C 377.747 1.85266 -4.07898 0
M  V30 4071 C 379.491 3.17609 -2.81646 0
M  V30 4072 C 377.398 2.90945 -5.14883 0
M  V30 4073 H 376.328 0.499631 -0.564699 0
M  V30 4074 H 378.979 0.612536 -1.72975 0
M  V30 4075 H 377.361 3.15379 -2.39483 0
M  V30 4076 H 378.535 1.17278 -4.45626 0
M  V30 4077 H 376.85 1.21199 -3.98371 0
M  V30 4078 H 379.447 3.96493 -3.58744 0
M  V30 4079 H 379.79 3.70696 -1.89448 0
M  V30 4080 H 380.323 2.50239 -3.09233 0
M  V30 4081 H 377.062 2.42736 -6.089 0
M  V30 4082 H 376.582 3.57398 -4.81691 0
M  V30 4083 H 378.261 3.54755 -5.41071 0
M  V30 4084 N 378.394 1.34581 0.820102 0
M  V30 4085 C 379.327 1.20735 1.93644 0
M  V30 4086 C 380.305 0.0983343 1.62302 0
M  V30 4087 O 381.489 0.263997 1.86642 0
M  V30 4088 C 378.616 0.856037 3.27704 0
M  V30 4089 C 377.662 1.97521 3.78005 0
M  V30 4090 S 378.495 3.58906 3.97425 0
M  V30 4091 C 379.651 3.25822 5.34407 0
M  V30 4092 H 379.884 2.15231 2.05093 0
M  V30 4093 H 377.417 1.1964 0.97599 0
M  V30 4094 H 379.375 0.660133 4.05157 0
M  V30 4095 H 378.036 -0.0706253 3.14021 0
M  V30 4096 H 377.229 1.68321 4.75062 0
M  V30 4097 H 376.831 2.12875 3.07507 0
M  V30 4098 H 379.123 2.77812 6.17922 0
M  V30 4099 H 380.066 4.22029 5.68592 0
M  V30 4100 H 380.474 2.61932 5.00052 0
M  V30 4101 N 379.872 -1.04064 1.18357 0
M  V30 4102 C 381.112 -1.78829 0.989921 0
M  V30 4103 C 381.476 -1.86106 -0.472095 0
M  V30 4104 O 382.677 -2.57076 -0.785187 0
M  V30 4105 C 380.948 -3.1823 1.6268 0
M  V30 4106 S 382.507 -4.09332 1.58091 0
M  V30 4107 H 379.325 -0.615754 0.355482 0
M  V30 4108 H 381.927 -1.24778 1.50501 0
M  V30 4109 H 380.631 -3.10543 2.68311 0
M  V30 4110 H 380.162 -3.77357 1.112 0
M  V30 4111 H 382.177 -4.92598 0.596817 0
M  V30 4112 N 381.35 -0.985608 -1.22978 0
M  V30 4113 C 382.58 -0.674603 -1.95276 0
M  V30 4114 C 382.988 0.763483 -1.73111 0
M  V30 4115 O 382.331 1.52601 -1.02268 0
M  V30 4116 C 382.393 -0.891597 -3.48268 0
M  V30 4117 C 382.057 -2.31275 -3.94158 0
M  V30 4118 C 383.054 -3.29179 -4.02415 0
M  V30 4119 C 380.739 -2.64524 -4.27004 0
M  V30 4120 C 382.733 -4.58407 -4.42879 0
M  V30 4121 C 380.42 -3.93974 -4.67149 0
M  V30 4122 C 381.418 -4.90727 -4.75053 0
M  V30 4123 O 381.106 -6.17865 -5.14294 0
M  V30 4124 H 380.838 -0.249251 -0.628371 0
M  V30 4125 H 383.392 -1.32106 -1.5728 0
M  V30 4126 H 381.622 -0.187962 -3.86243 0
M  V30 4127 H 383.311 -0.576957 -4.01779 0
M  V30 4128 H 384.077 -3.04823 -3.77237 0
M  V30 4129 H 379.956 -1.89923 -4.2006 0
M  V30 4130 H 383.5 -5.33926 -4.48964 0
M  V30 4131 H 379.397 -4.18122 -4.91777 0
M  V30 4132 H 380.165 -6.21694 -5.32389 0
M  V30 4133 N 382.828 1.3818 -0.7579 0
M  V30 4134 C 383.738 2.3421 -0.135247 0
M  V30 4135 C 384.754 1.59487 0.695683 0
M  V30 4136 O 385.93 1.91657 0.618832 0
M  V30 4137 C 382.995 3.3862 0.744139 0
M  V30 4138 C 382.056 4.2918 -0.101658 0
M  V30 4139 C 381.289 5.28603 0.735851 0
M  V30 4140 O 381.512 5.35166 1.97366 0
M  V30 4141 O 380.446 6.01707 0.152372 0
M  V30 4142 H 384.272 2.8916 -0.928436 0
M  V30 4143 H 381.857 1.40101 -0.518855 0
M  V30 4144 H 383.739 4.02539 1.2466 0
M  V30 4145 H 382.414 2.86019 1.51575 0
M  V30 4146 H 381.321 3.68407 -0.650167 0
M  V30 4147 H 382.654 4.85048 -0.836024 0
M  V30 4148 N 384.306 0.507319 1.49211 0
M  V30 4149 C 385.552 -0.0269732 2.03382 0
M  V30 4150 C 385.907 -1.34111 1.37957 0
M  V30 4151 O 385.2 -1.84733 0.508351 0
M  V30 4152 C 385.394 -0.229513 3.56662 0
M  V30 4153 C 385.223 1.06344 4.36945 0
M  V30 4154 C 383.993 1.617 4.78729 0
M  V30 4155 C 386.191 1.96833 4.75143 0
M  V30 4156 N 384.173 2.8552 5.43463 0
M  V30 4157 C 385.544 3.0523 5.39661 0
M  V30 4158 C 387.599 1.97434 4.57082 0
M  V30 4159 C 386.302 4.14265 5.88028 0
M  V30 4160 C 388.328 3.05448 5.06414 0
M  V30 4161 C 387.69 4.12564 5.70938 0
M  V30 4162 H 383.789 0.0310673 0.781383 0
M  V30 4163 H 386.373 0.683579 1.82305 0
M  V30 4164 H 384.544 -0.909127 3.7761 0
M  V30 4165 H 386.276 -0.761377 3.97473 0
M  V30 4166 H 383.031 1.16132 4.59141 0
M  V30 4167 H 383.455 3.48499 5.80412 0
M  V30 4168 H 388.097 1.15924 4.06597 0
M  V30 4169 H 385.815 4.96569 6.3753 0
M  V30 4170 H 389.401 3.06941 4.94246 0
M  V30 4171 H 388.281 4.94767 6.0842 0
M  V30 4172 N 385.784 -1.5574 0.241426 0
M  V30 4173 C 387.2 -1.59196 -0.113548 0
M  V30 4174 C 387.4 -1.25852 -1.57364 0
M  V30 4175 O 386.456 -1.00322 -2.31715 0
M  V30 4176 C 387.769 -2.99814 0.230695 0
M  V30 4177 C 389.317 -3.12513 0.174547 0
M  V30 4178 C 389.792 -4.55342 0.492744 0
M  V30 4179 N 391.283 -4.61076 0.443043 0
M  V30 4180 C 392.018 -5.6956 0.662484 0
M  V30 4181 N 391.514 -6.86328 0.944761 0
M  V30 4182 N 393.307 -5.58957 0.593564 0
M  V30 4183 H 385.458 -1.75685 1.19368 0
M  V30 4184 H 387.721 -0.81756 0.479896 0
M  V30 4185 H 387.427 -3.28932 1.24485 0
M  V30 4186 H 387.301 -3.74568 -0.444833 0
M  V30 4187 H 389.688 -2.83179 -0.830277 0
M  V30 4188 H 389.769 -2.40045 0.883845 0
M  V30 4189 H 389.413 -4.85396 1.4951 0
M  V30 4190 H 389.343 -5.26062 -0.23797 0
M  V30 4191 H 391.834 -3.77179 0.233374 0
M  V30 4192 H 392.147 -7.64935 1.09977 0
M  V30 4193 H 390.492 -6.88025 0.982175 0
M  V30 4194 H 393.683 -4.66611 0.373123 0
M  V30 4195 H 393.856 -6.43433 0.767981 0
M  V30 4196 N 387.262 0.0317525 -1.57568 0
M  V30 4197 C 388.487 0.738664 -1.938 0
M  V30 4198 C 388.912 1.68242 -0.841208 0
M  V30 4199 O 388.27 1.80157 0.203267 0
M  V30 4200 C 388.318 1.47417 -3.29091 0
M  V30 4201 O 387.422 2.5872 -3.2115 0
M  V30 4202 H 386.763 0.198856 -0.633524 0
M  V30 4203 H 389.293 -0.0119713 -2.04596 0
M  V30 4204 H 389.303 1.84468 -3.63917 0
M  V30 4205 H 387.978 0.781988 -4.08482 0
M  V30 4206 H 386.555 2.24231 -2.97951 0
M  V30 4207 N 388.74 1.54641 0.303973 0
M  V30 4208 C 390.156 1.45788 0.649463 0
M  V30 4209 C 390.356 0.64666 1.90842 0
M  V30 4210 O 389.412 0.153183 2.52035 0
M  V30 4211 C 390.725 2.89718 0.805227 0
M  V30 4212 C 392.273 2.99742 0.901305 0
M  V30 4213 C 392.748 4.44863 1.08909 0
M  V30 4214 N 394.239 4.48559 1.15536 0
M  V30 4215 C 394.974 5.58026 1.3189 0
M  V30 4216 N 394.47 6.77422 1.45161 0
M  V30 4217 N 396.263 5.45708 1.34755 0
M  V30 4218 H 388.414 2.05854 -0.523237 0
M  V30 4219 H 390.677 0.932186 -0.172431 0
M  V30 4220 H 390.383 3.51666 -0.0489108 0
M  V30 4221 H 390.257 3.36964 1.69513 0
M  V30 4222 H 392.644 2.3791 1.74593 0
M  V30 4223 H 392.725 2.55797 -0.0125531 0
M  V30 4224 H 392.369 5.07288 0.249241 0
M  V30 4225 H 392.299 4.86436 2.01713 0
M  V30 4226 H 394.79 3.6254 1.06646 0
M  V30 4227 H 395.103 7.56604 1.57387 0
M  V30 4228 H 393.448 6.80292 1.42223 0
M  V30 4229 H 396.639 4.51378 1.23996 0
M  V30 4230 H 396.812 6.3107 1.47157 0
M  V30 4231 N 390.218 -0.567019 1.47046 0
M  V30 4232 C 391.151 -1.69016 1.53326 0
M  V30 4233 C 392.129 -1.57949 0.386126 0
M  V30 4234 O 393.313 -1.78945 0.592529 0
M  V30 4235 C 390.44 -3.07191 1.42658 0
M  V30 4236 C 389.486 -3.36733 2.6175 0
M  V30 4237 S 390.319 -3.27069 4.24012 0
M  V30 4238 C 391.475 -4.67755 4.1588 0
M  V30 4239 H 391.708 -1.63434 2.48348 0
M  V30 4240 H 389.241 -0.747048 1.35124 0
M  V30 4241 H 391.199 -3.86897 1.37191 0
M  V30 4242 H 389.86 -3.10249 0.490369 0
M  V30 4243 H 389.053 -4.37441 2.50323 0
M  V30 4244 H 388.655 -2.64627 2.64289 0
M  V30 4245 H 390.947 -5.58491 3.83529 0
M  V30 4246 H 391.89 -4.84239 5.16641 0
M  V30 4247 H 392.298 -4.45341 3.46889 0
M  V30 4248 N 391.696 -1.35014 -0.812953 0
M  V30 4249 C 392.629 -1.21761 -1.93001 0
M  V30 4250 C 393.607 -0.10694 -1.62248 0
M  V30 4251 O 394.791 -0.273891 -1.865 0
M  V30 4252 C 391.918 -0.873404 -3.27245 0
M  V30 4253 C 390.964 -1.99523 -3.76952 0
M  V30 4254 S 391.797 -3.61009 -3.95516 0
M  V30 4255 C 392.953 -3.28651 -5.32672 0
M  V30 4256 H 393.186 -2.16315 -2.03948 0
M  V30 4257 H 390.719 -1.20156 -0.969631 0
M  V30 4258 H 392.677 -0.68161 -4.04802 0
M  V30 4259 H 391.338 0.053971 -3.14054 0
M  V30 4260 H 390.531 -1.70838 -4.74163 0
M  V30 4261 H 390.133 -2.14503 -3.06373 0
M  V30 4262 H 392.425 -2.81085 -6.1644 0
M  V30 4263 H 393.368 -4.25039 -5.66346 0
M  V30 4264 H 393.776 -2.6458 -4.98656 0
M  V30 4265 N 393.175 1.03435 -1.18907 0
M  V30 4266 C 394.105 2.13503 -0.945448 0
M  V30 4267 C 395.086 1.69682 0.119189 0
M  V30 4268 O 396.271 1.94169 -0.034707 0
M  V30 4269 C 393.401 3.44004 -0.477316 0
M  V30 4270 C 392.355 4.0148 -1.48316 0
M  V30 4271 C 391.681 5.27537 -0.872311 0
M  V30 4272 C 392.981 4.36921 -2.86177 0
M  V30 4273 H 394.675 2.34141 -1.86597 0
M  V30 4274 H 392.221 1.12523 -0.898584 0
M  V30 4275 H 394.174 4.20372 -0.294204 0
M  V30 4276 H 392.898 3.23072 0.478786 0
M  V30 4277 H 391.557 3.27201 -1.65332 0
M  V30 4278 H 391.205 5.02917 0.0911752 0
M  V30 4279 H 390.905 5.66954 -1.54393 0
M  V30 4280 H 392.429 6.06576 -0.699871 0
M  V30 4281 H 393.843 5.04248 -2.72776 0
M  V30 4282 H 392.24 4.87405 -3.50081 0
M  V30 4283 H 393.31 3.46466 -3.39248 0
M  V30 4284 N 394.653 0.992116 1.22453 0
M  V30 4285 C 395.583 0.561677 2.26644 0
M  V30 4286 C 396.564 -0.411055 1.65059 0
M  V30 4287 O 397.749 -0.301861 1.9184 0
M  V30 4288 C 394.879 -0.125247 3.47074 0
M  V30 4289 C 393.833 0.765948 4.21091 0
M  V30 4290 C 393.159 -0.0538484 5.34673 0
M  V30 4291 C 394.459 2.06242 4.79856 0
M  V30 4292 H 396.153 1.43259 2.62902 0
M  V30 4293 H 393.699 0.690283 1.26377 0
M  V30 4294 H 395.652 -0.437764 4.1912 0
M  V30 4295 H 394.376 -1.03069 3.0991 0
M  V30 4296 H 393.035 1.0621 3.50878 0
M  V30 4297 H 392.683 -0.960188 4.9375 0
M  V30 4298 H 392.383 0.539415 5.85119 0
M  V30 4299 H 393.907 -0.360477 6.09535 0
M  V30 4300 H 395.321 1.8139 5.43848 0
M  V30 4301 H 393.718 2.60444 5.40638 0
M  V30 4302 H 394.788 2.74167 3.99951 0
M  V30 4303 N 396.131 -1.37776 0.765217 0
M  V30 4304 C 397.041 -2.34135 0.147666 0
M  V30 4305 C 398.057 -1.59854 -0.687215 0
M  V30 4306 O 399.233 -1.91983 -0.608659 0
M  V30 4307 C 396.298 -3.3901 -0.72617 0
M  V30 4308 C 395.359 -4.2912 0.124417 0
M  V30 4309 C 394.592 -5.28986 -0.707807 0
M  V30 4310 O 394.815 -5.36205 -1.94525 0
M  V30 4311 O 393.749 -6.01779 -0.12046 0
M  V30 4312 H 397.575 -2.88664 0.943758 0
M  V30 4313 H 395.16 -1.39824 0.526277 0
M  V30 4314 H 397.042 -4.03195 -1.22524 0
M  V30 4315 H 395.717 -2.86819 -1.50056 0
M  V30 4316 H 394.624 -3.68057 0.669696 0
M  V30 4317 H 395.957 -4.84598 0.861736 0
M  V30 4318 N 397.609 -0.515225 -1.4894 0
M  V30 4319 C 398.557 0.269115 -2.31038 0
M  V30 4320 C 399.551 0.949443 -1.40292 0
M  V30 4321 O 400.757 0.87551 -1.57273 0
M  V30 4322 H 397.132 0.10565 -0.744542 0
M  V30 4323 H 399.103 -0.443096 -2.95092 0
M  V30 4324 C 397.852 1.31213 -3.21991 0
M  V30 4325 H 397.175 0.798034 -3.91754 0
M  V30 4326 H 398.615 1.83263 -3.82349 0
M  V30 4327 C 397.074 2.33791 -2.42576 0
M  V30 4328 O 397.604 3.3995 -2.14003 0
M  V30 4329 N 395.81 2.06625 -2.0434 0
M  V30 4330 H 395.357 1.20314 -2.27777 0
M  V30 4331 H 395.315 2.75483 -1.51514 0
M  V30 4332 N 399.087 1.5561 -0.249682 0
M  V30 4333 C 400.327 2.00916 0.37579 0
M  V30 4334 C 400.691 1.13409 1.54927 0
M  V30 4335 O 401.892 1.48183 2.24266 0
M  V30 4336 C 400.163 3.48949 0.772633 0
M  V30 4337 S 401.722 4.16261 1.38824 0
M  V30 4338 H 398.54 0.70112 0.118117 0
M  V30 4339 H 401.142 1.92052 -0.365567 0
M  V30 4340 H 399.846 4.103 -0.090683 0
M  V30 4341 H 399.377 3.61745 1.5461 0
M  V30 4342 H 401.392 4.17778 2.67724 0
M  V30 4343 N 400.565 -0.0233959 1.57583 0
M  V30 4344 C 401.495 -1.02162 2.09965 0
M  V30 4345 C 402.476 -1.3735 1.00344 0
M  V30 4346 O 403.661 -1.46135 1.27899 0
M  V30 4347 C 400.791 -2.32081 2.58371 0
M  V30 4348 C 399.745 -2.1112 3.72307 0
M  V30 4349 C 399.071 -3.46848 4.06941 0
M  V30 4350 C 400.371 -1.49276 5.00514 0
M  V30 4351 H 402.065 -0.585557 2.93618 0
M  V30 4352 H 399.611 -0.280218 1.41247 0
M  V30 4353 H 401.564 -3.02249 2.93639 0
M  V30 4354 H 400.288 -2.77758 1.71808 0
M  V30 4355 H 398.947 -1.43384 3.37397 0
M  V30 4356 H 398.595 -3.90184 3.17436 0
M  V30 4357 H 398.295 -3.33646 4.83688 0
M  V30 4358 H 399.819 -4.18369 4.44747 0
M  V30 4359 H 401.233 -2.09368 5.33702 0
M  V30 4360 H 399.63 -1.46632 5.8191 0
M  V30 4361 H 400.7 -0.459217 4.82721 0
M  V30 4362 N 402.043 -1.548 -0.295768 0
M  V30 4363 C 403.289 -1.74588 -1.03184 0
M  V30 4364 C 403.622 -0.532962 -1.86744 0
M  V30 4365 O 402.897 0.469872 -1.88739 0
M  V30 4366 C 403.18 -3.03791 -1.93347 0
M  V30 4367 C 403.033 -4.35392 -1.12933 0
M  V30 4368 C 404.352 -3.28892 -2.92435 0
M  V30 4369 H 401.471 -0.635221 -0.373715 0
M  V30 4370 H 404.113 -1.87519 -0.30606 0
M  V30 4371 H 402.263 -2.92898 -2.55232 0
M  V30 4372 H 403.935 -4.58211 -0.532943 0
M  V30 4373 H 402.178 -4.31642 -0.432168 0
M  V30 4374 H 402.849 -5.22074 -1.79284 0
M  V30 4375 H 405.325 -3.39429 -2.4068 0
M  V30 4376 H 404.201 -4.20603 -3.52682 0
M  V30 4377 H 404.462 -2.47437 -3.6637 0
M  V30 4378 N 403.521 0.559213 -1.47345 0
M  V30 4379 C 404.431 1.69388 -1.62311 0
M  V30 4380 C 405.447 1.6648 -0.505993 0
M  V30 4381 O 406.623 1.85964 -0.773262 0
M  V30 4382 C 403.688 3.05894 -1.63185 0
M  V30 4383 C 402.749 3.19885 -2.86307 0
M  V30 4384 C 401.982 4.49879 -2.87131 0
M  V30 4385 O 402.205 5.35217 -1.97229 0
M  V30 4386 O 401.139 4.67618 -3.78968 0
M  V30 4387 H 404.965 1.59706 -2.58317 0
M  V30 4388 H 402.55 0.728989 -1.30407 0
M  V30 4389 H 404.432 3.87133 -1.66451 0
M  V30 4390 H 403.107 3.15964 -0.70345 0
M  V30 4391 H 402.014 2.38052 -2.88587 0
M  V30 4392 H 403.347 3.14718 -3.78435 0
M  V30 4393 N 404.999 1.35443 0.805782 0
M  V30 4394 C 405.946 1.28431 1.91766 0
M  V30 4395 C 406.916 0.156102 1.65365 0
M  V30 4396 O 408.101 0.339936 1.87747 0
M  V30 4397 C 405.241 1.06301 3.2832 0
M  V30 4398 C 404.354 2.2805 3.66902 0
M  V30 4399 C 403.489 1.99064 4.92491 0
M  V30 4400 C 402.528 3.16863 5.23703 0
M  V30 4401 N 401.665 2.87647 6.40471 0
M  V30 4402 H 406.505 2.23511 1.97096 0
M  V30 4403 H 404.042 1.11105 0.964054 0
M  V30 4404 H 406 0.915012 4.07042 0
M  V30 4405 H 404.63 0.148822 3.22457 0
M  V30 4406 H 403.682 2.53711 2.83434 0
M  V30 4407 H 404.994 3.1601 3.85927 0
M  V30 4408 H 404.148 1.81099 5.7904 0
M  V30 4409 H 402.887 1.0839 4.75503 0
M  V30 4410 H 401.892 3.35404 4.35642 0
M  V30 4411 H 403.117 4.08339 5.4262 0
M  V30 4412 H 401.063 1.99568 6.24907 0
M  V30 4413 H 400.98 3.69141 6.59751 0
M  V30 4414 H 402.248 2.73226 7.30047 0
M  V30 4415 N 406.477 -1.02803 1.19454 0
M  V30 4416 C 407.723 -1.76598 1.0092 0
M  V30 4417 C 408.078 -1.86939 -0.455142 0
M  V30 4418 O 407.371 -1.37575 -1.33355 0
M  V30 4419 C 407.565 -3.18941 1.6128 0
M  V30 4420 C 407.394 -3.22476 3.13431 0
M  V30 4421 C 406.164 -3.30375 3.82336 0
M  V30 4422 C 408.362 -3.09451 4.10785 0
M  V30 4423 N 406.344 -3.23292 5.21877 0
M  V30 4424 C 407.715 -3.10012 5.36929 0
M  V30 4425 C 409.77 -2.93585 4.02135 0
M  V30 4426 C 408.473 -2.96334 6.55423 0
M  V30 4427 C 410.499 -2.81256 5.20239 0
M  V30 4428 C 409.861 -2.82472 6.45282 0
M  V30 4429 H 405.96 -0.657447 0.423424 0
M  V30 4430 H 408.544 -1.22369 1.5144 0
M  V30 4431 H 406.715 -3.71489 1.1336 0
M  V30 4432 H 408.447 -3.81102 1.36173 0
M  V30 4433 H 405.202 -3.3663 3.33132 0
M  V30 4434 H 405.626 -3.23156 5.94894 0
M  V30 4435 H 410.268 -2.91466 3.0628 0
M  V30 4436 H 407.986 -2.97203 7.51463 0
M  V30 4437 H 411.572 -2.70014 5.15348 0
M  V30 4438 H 410.452 -2.73036 7.35133 0
M  V30 4439 N 407.956 -0.998596 -1.21925 0
M  V30 4440 C 409.372 -0.710303 -1.42923 0
M  V30 4441 C 409.572 0.716933 -1.88314 0
M  V30 4442 O 408.628 1.48712 -2.04062 0
M  V30 4443 C 409.941 -1.72072 -2.466 0
M  V30 4444 C 411.489 -1.73681 -2.60392 0
M  V30 4445 C 411.964 -2.73601 -3.67296 0
M  V30 4446 N 413.455 -2.7223 -3.7476 0
M  V30 4447 C 414.19 -3.46206 -4.57087 0
M  V30 4448 N 413.686 -4.29802 -5.43362 0
M  V30 4449 N 415.479 -3.34886 -4.51451 0
M  V30 4450 H 407.63 -1.92028 -0.9077 0
M  V30 4451 H 409.893 -0.828487 -0.460775 0
M  V30 4452 H 409.599 -2.74231 -2.20206 0
M  V30 4453 H 409.473 -1.51818 -3.45299 0
M  V30 4454 H 411.86 -0.722173 -2.86127 0
M  V30 4455 H 411.941 -1.98005 -1.61949 0
M  V30 4456 H 411.585 -3.75217 -3.42307 0
M  V30 4457 H 411.515 -2.46545 -4.65321 0
M  V30 4458 H 414.006 -2.11576 -3.1312 0
M  V30 4459 H 414.319 -4.83061 -6.03218 0
M  V30 4460 H 412.664 -4.33887 -5.42925 0
M  V30 4461 H 415.855 -2.69015 -3.83078 0
M  V30 4462 H 416.028 -3.92796 -5.15379 0
M  V30 4463 N 409.434 1.37368 -0.772513 0
M  V30 4464 C 410.711 1.93839 -0.26188 0
M  V30 4465 C 411.091 1.7061 1.24319 0
M  V30 4466 O 410.439 1.05534 2.02669 0
M  V30 4467 C 410.649 3.43154 -0.636102 0
M  V30 4468 C 411.997 4.20249 -0.606324 0
M  V30 4469 O 413.021 3.5152 -0.575538 0
M  V30 4470 O 411.88 5.42809 -0.634086 0
M  V30 4471 H 408.974 0.82478 -0.0605555 0
M  V30 4472 H 411.52 1.4665 -0.853917 0
M  V30 4473 H 410.292 3.53647 -1.6748 0
M  V30 4474 H 409.915 3.97596 -0.0170516 0
M  V30 4475 N 410.912 0.523116 1.48665 0
M  V30 4476 C 411.844 -0.280421 2.27478 0
M  V30 4477 C 412.857 -0.910694 1.34945 0
M  V30 4478 O 414.046 -0.790295 1.60052 0
M  V30 4479 C 411.146 -1.41171 3.08097 0
M  V30 4480 C 410.319 -0.884642 4.28361 0
M  V30 4481 C 409.378 -1.89622 4.90846 0
M  V30 4482 O 408.404 -1.4559 5.50265 0
M  V30 4483 N 409.606 -3.22801 4.82472 0
M  V30 4484 H 412.371 0.395481 2.97079 0
M  V30 4485 H 409.932 0.357018 1.57915 0
M  V30 4486 H 411.924 -2.08645 3.4677 0
M  V30 4487 H 410.494 -1.99139 2.40961 0
M  V30 4488 H 409.714 -0.0341177 3.94185 0
M  V30 4489 H 411.002 -0.511268 5.06225 0
M  V30 4490 H 410.4 -3.61246 4.35336 0
M  V30 4491 H 408.957 -3.85927 5.25265 0
M  V30 4492 N 412.39 -1.55475 0.257931 0
M  V30 4493 C 413.32 -2.24815 -0.630912 0
M  V30 4494 C 414.301 -1.23224 -1.17259 0
M  V30 4495 O 415.486 -1.51904 -1.20991 0
M  V30 4496 C 412.616 -2.95609 -1.82298 0
M  V30 4497 C 411.57 -4.03982 -1.41359 0
M  V30 4498 C 410.896 -4.6226 -2.68738 0
M  V30 4499 C 412.196 -5.19109 -0.57648 0
M  V30 4500 H 413.89 -2.99354 -0.0526878 0
M  V30 4501 H 411.436 -1.4398 -0.023901 0
M  V30 4502 H 413.389 -3.42822 -2.45054 0
M  V30 4503 H 412.113 -2.18577 -2.42676 0
M  V30 4504 H 410.772 -3.57555 -0.809324 0
M  V30 4505 H 410.42 -3.81915 -3.27338 0
M  V30 4506 H 410.12 -5.35424 -2.42065 0
M  V30 4507 H 411.644 -5.12212 -3.32372 0
M  V30 4508 H 413.058 -5.62479 -1.10861 0
M  V30 4509 H 411.455 -5.98729 -0.405351 0
M  V30 4510 H 412.525 -4.83174 0.408776 0
M  V30 4511 N 413.868 0.0150385 -1.57593 0
M  V30 4512 C 415.093 0.718067 -1.94573 0
M  V30 4513 C 415.518 1.6734 -0.859005 0
M  V30 4514 O 414.876 1.80362 0.184147 0
M  V30 4515 C 414.924 1.43918 -3.30636 0
M  V30 4516 O 414.028 2.55299 -3.23876 0
M  V30 4517 H 413.369 0.192125 -0.635597 0
M  V30 4518 H 415.899 -0.0336708 -2.04572 0
M  V30 4519 H 415.909 1.80598 -3.65853 0
M  V30 4520 H 414.584 0.738619 -4.09289 0
M  V30 4521 H 413.161 2.21058 -3.00312 0
M  V30 4522 N 415.346 1.54954 0.287554 0
M  V30 4523 C 416.293 1.86834 1.35505 0
M  V30 4524 C 417.263 0.718452 1.49758 0
M  V30 4525 O 418.448 0.968358 1.644 0
M  V30 4526 C 415.588 2.13303 2.71286 0
M  V30 4527 C 414.701 3.40883 2.65373 0
M  V30 4528 C 413.836 3.57125 3.93236 0
M  V30 4529 C 412.875 4.78449 3.81776 0
M  V30 4530 N 412.012 4.91426 5.01443 0
M  V30 4531 H 416.852 2.77889 1.07619 0
M  V30 4532 H 414.389 1.37593 0.520241 0
M  V30 4533 H 416.347 2.26646 3.50267 0
M  V30 4534 H 414.977 1.25499 2.97405 0
M  V30 4535 H 414.029 3.36088 1.78182 0
M  V30 4536 H 415.341 4.29993 2.52799 0
M  V30 4537 H 414.495 3.70207 4.80658 0
M  V30 4538 H 413.234 2.66173 4.0866 0
M  V30 4539 H 412.239 4.65386 2.92738 0
M  V30 4540 H 413.464 5.70822 3.67884 0
M  V30 4541 H 411.41 4.03401 5.17304 0
M  V30 4542 H 411.327 5.74559 4.91343 0
M  V30 4543 H 412.595 5.08879 5.90477 0
M  V30 4544 N 416.824 -0.551391 1.4764 0
M  V30 4545 C 418.24 -0.877887 1.33287 0
M  V30 4546 C 418.44 -1.98817 0.327721 0
M  V30 4547 O 417.496 -2.51171 -0.258695 0
M  V30 4548 C 418.809 -1.26563 2.72768 0
M  V30 4549 C 420.357 -1.37673 2.81097 0
M  V30 4550 C 420.832 -1.79799 4.21232 0
M  V30 4551 N 422.323 -1.8694 4.23802 0
M  V30 4552 C 423.058 -2.20876 5.29151 0
M  V30 4553 N 422.554 -2.53386 6.448 0
M  V30 4554 N 424.347 -2.217 5.16532 0
M  V30 4555 H 416.498 0.18153 2.11623 0
M  V30 4556 H 418.761 0.0185514 0.947818 0
M  V30 4557 H 418.467 -0.523591 3.47781 0
M  V30 4558 H 418.341 -2.22052 3.04915 0
M  V30 4559 H 420.728 -2.10956 2.06353 0
M  V30 4560 H 420.809 -0.40357 2.52596 0
M  V30 4561 H 420.453 -1.07083 4.96483 0
M  V30 4562 H 420.383 -2.78128 4.4716 0
M  V30 4563 H 422.874 -1.64179 3.40373 0
M  V30 4564 H 423.187 -2.78325 7.20941 0
M  V30 4565 H 421.532 -2.50953 6.48111 0
M  V30 4566 H 424.723 -1.95745 4.25207 0
M  V30 4567 H 424.896 -2.47818 5.98741 0
M  V30 4568 N 418.302 -1.35869 -0.798587 0
M  V30 4569 C 419.527 -1.32883 -1.59238 0
M  V30 4570 C 419.952 0.0894587 -1.87887 0
M  V30 4571 O 419.31 1.05869 -1.47178 0
M  V30 4572 C 419.358 -2.14892 -2.89575 0
M  V30 4573 O 418.462 -1.53512 -3.82763 0
M  V30 4574 H 417.803 -0.455236 -0.48338 0
M  V30 4575 H 420.333 -1.79024 -0.990539 0
M  V30 4576 H 420.343 -2.27139 -3.38928 0
M  V30 4577 H 419.018 -3.17998 -2.68049 0
M  V30 4578 H 417.595 -1.50153 -3.41334 0
M  V30 4579 N 419.78 1.02168 -1.19998 0
M  V30 4580 C 421.029 1.75091 -1.0013 0
M  V30 4581 C 421.342 1.89923 0.467835 0
M  V30 4582 O 422.548 2.59888 0.785515 0
M  V30 4583 C 421.004 3.14892 -1.74273 0
M  V30 4584 C 420.612 3.0809 -3.25245 0
M  V30 4585 C 422.356 3.9206 -1.62755 0
M  V30 4586 C 420.263 4.42867 -3.91948 0
M  V30 4587 H 419.193 0.656394 -0.37103 0
M  V30 4588 H 421.844 1.14284 -1.43567 0
M  V30 4589 H 420.226 3.7621 -1.2362 0
M  V30 4590 H 421.4 2.5611 -3.83072 0
M  V30 4591 H 419.715 2.44416 -3.3712 0
M  V30 4592 H 422.312 4.91764 -2.09934 0
M  V30 4593 H 422.655 4.12199 -0.582894 0
M  V30 4594 H 423.188 3.37359 -2.10793 0
M  V30 4595 H 419.927 4.27931 -4.96543 0
M  V30 4596 H 419.447 4.94874 -3.3891 0
M  V30 4597 H 421.126 5.11728 -3.95909 0
M  V30 4598 N 421.258 1.00505 1.21394 0
M  V30 4599 C 422.19 0.52372 2.23136 0
M  V30 4600 C 423.203 -0.387714 1.58116 0
M  V30 4601 O 424.392 -0.187905 1.77508 0
M  V30 4602 C 421.492 -0.258885 3.3791 0
M  V30 4603 C 420.665 0.651634 4.32519 0
M  V30 4604 C 419.724 -0.0813705 5.26137 0
M  V30 4605 O 418.75 0.537295 5.66658 0
M  V30 4606 N 419.952 -1.35992 5.64346 0
M  V30 4607 H 422.717 1.39865 2.65062 0
M  V30 4608 H 420.278 0.881196 1.35818 0
M  V30 4609 H 422.27 -0.758208 3.97534 0
M  V30 4610 H 420.84 -1.035 2.94968 0
M  V30 4611 H 420.06 1.33145 3.71034 0
M  V30 4612 H 421.348 1.27129 4.92662 0
M  V30 4613 H 420.746 -1.88368 5.33417 0
M  V30 4614 H 419.303 -1.8042 6.26332 0
M  V30 4615 N 422.737 -1.36956 0.779787 0
M  V30 4616 C 423.983 -2.00237 0.357324 0
M  V30 4617 C 424.338 -1.60787 -1.05666 0
M  V30 4618 O 423.631 -0.847836 -1.71821 0
M  V30 4619 C 423.825 -3.54585 0.447686 0
M  V30 4620 C 423.654 -4.09025 1.86891 0
M  V30 4621 C 422.424 -4.39612 2.49138 0
M  V30 4622 C 424.622 -4.29461 2.82963 0
M  V30 4623 N 422.604 -4.79816 3.82949 0
M  V30 4624 C 423.975 -4.72363 4.01588 0
M  V30 4625 C 426.03 -4.1161 2.80145 0
M  V30 4626 C 424.733 -4.99284 5.17791 0
M  V30 4627 C 426.759 -4.39672 3.95528 0
M  V30 4628 C 426.121 -4.82822 5.12896 0
M  V30 4629 H 422.22 -0.76148 0.177968 0
M  V30 4630 H 424.804 -1.6613 1.01533 0
M  V30 4631 H 422.975 -3.87982 -0.180184 0
M  V30 4632 H 424.707 -4.047 0.0023955 0
M  V30 4633 H 421.462 -4.28975 2.00693 0
M  V30 4634 H 421.886 -5.04216 4.51769 0
M  V30 4635 H 426.528 -3.77415 1.90572 0
M  V30 4636 H 424.246 -5.32365 6.07958 0
M  V30 4637 H 427.832 -4.27441 3.94697 0
M  V30 4638 H 426.712 -5.04118 6.00695 0
M  V30 4639 N 424.215 -0.530993 -1.48385 0
M  V30 4640 C 425.125 0.23503 -2.3342 0
M  V30 4641 C 426.141 0.93801 -1.46552 0
M  V30 4642 O 427.317 0.912745 -1.7953 0
M  V30 4643 C 424.382 1.26778 -3.22689 0
M  V30 4644 C 423.443 0.575038 -4.25431 0
M  V30 4645 C 422.676 1.55858 -5.10435 0
M  V30 4646 O 422.899 2.79129 -4.97437 0
M  V30 4647 O 421.833 1.09742 -5.91811 0
M  V30 4648 H 425.659 -0.461794 -3.00169 0
M  V30 4649 H 423.244 -0.291903 -1.46521 0
M  V30 4650 H 425.126 1.86457 -3.77904 0
M  V30 4651 H 423.801 1.94699 -2.586 0
M  V30 4652 H 422.708 -0.0622782 -3.74048 0
M  V30 4653 H 424.041 -0.062253 -4.92161 0
M  V30 4654 N 425.693 1.55336 -0.266172 0
M  V30 4655 C 426.603 2.2583 0.635458 0
M  V30 4656 C 427.619 1.28106 1.17749 0
M  V30 4657 O 428.795 1.61024 1.20968 0
M  V30 4658 C 425.86 2.95879 1.80712 0
M  V30 4659 C 424.921 4.09059 1.30265 0
M  V30 4660 C 424.154 4.75759 2.41846 0
M  V30 4661 O 424.377 4.41622 3.61007 0
M  V30 4662 O 423.311 5.63888 2.1051 0
M  V30 4663 H 427.137 3.03631 0.0646693 0
M  V30 4664 H 424.722 1.49361 -0.0339177 0
M  V30 4665 H 426.604 3.39932 2.49047 0
M  V30 4666 H 425.279 2.21002 2.36516 0
M  V30 4667 H 424.186 3.69482 0.586019 0
M  V30 4668 H 425.519 4.85811 0.790458 0
M  V30 4669 N 427.171 -0.0066808 1.57599 0
M  V30 4670 C 428.587 -0.36267 1.55425 0
M  V30 4671 C 428.787 -1.75209 0.995187 0
M  V30 4672 O 427.843 -2.44616 0.626058 0
M  V30 4673 C 429.156 -0.244017 2.99708 0
M  V30 4674 C 430.704 -0.319451 3.11366 0
M  V30 4675 C 431.179 -0.229998 4.57422 0
M  V30 4676 N 432.67 -0.288105 4.62303 0
M  V30 4677 C 433.405 -0.242127 5.72889 0
M  V30 4678 N 432.901 -0.147133 6.92644 0
M  V30 4679 N 434.694 -0.293502 5.61333 0
M  V30 4680 H 426.845 0.902314 1.92281 0
M  V30 4681 H 429.108 0.34525 0.882896 0
M  V30 4682 H 428.814 0.711678 3.44424 0
M  V30 4683 H 428.688 -1.02877 3.629 0
M  V30 4684 H 431.075 -1.26559 2.66584 0
M  V30 4685 H 431.156 0.495055 2.50964 0
M  V30 4686 H 430.8 0.712566 5.02877 0
M  V30 4687 H 430.73 -1.0629 5.15761 0
M  V30 4688 H 433.221 -0.363126 3.76151 0
M  V30 4689 H 433.534 -0.117763 7.7271 0
M  V30 4690 H 431.879 -0.112857 6.94908 0
M  V30 4691 H 435.07 -0.365864 4.66668 0
M  V30 4692 H 435.243 -0.254204 6.47501 0
M  V30 4693 N 428.649 -1.55105 -0.279332 0
M  V30 4694 C 429.579 -1.90557 -1.34945 0
M  V30 4695 C 430.56 -0.766738 -1.51839 0
M  V30 4696 O 431.745 -1.02434 -1.64988 0
M  V30 4697 C 428.875 -2.17193 -2.71006 0
M  V30 4698 C 427.829 -3.33021 -2.68851 0
M  V30 4699 C 427.155 -3.45123 -4.08405 0
M  V30 4700 C 428.455 -4.69578 -2.28678 0
M  V30 4701 H 430.149 -2.80188 -1.05522 0
M  V30 4702 H 427.695 -1.34811 -0.506173 0
M  V30 4703 H 429.648 -2.40581 -3.45975 0
M  V30 4704 H 428.372 -1.24355 -3.01999 0
M  V30 4705 H 427.031 -3.0959 -1.9634 0
M  V30 4706 H 426.679 -2.49762 -4.3661 0
M  V30 4707 H 426.379 -4.22995 -4.07859 0
M  V30 4708 H 427.903 -3.70796 -4.85121 0
M  V30 4709 H 429.317 -4.92553 -2.93368 0
M  V30 4710 H 427.714 -5.5032 -2.39306 0
M  V30 4711 H 428.784 -4.68828 -1.23807 0
M  V30 4712 N 430.127 0.543554 -1.4793 0
M  V30 4713 C 431.059 1.665 -1.57513 0
M  V30 4714 C 432.072 1.56156 -0.460333 0
M  V30 4715 O 433.261 1.62865 -0.730573 0
M  V30 4716 C 430.361 3.05063 -1.47614 0
M  V30 4717 C 429.534 3.41024 -2.739 0
M  V30 4718 C 428.593 4.58809 -2.57645 0
M  V30 4719 O 427.619 4.62707 -3.31498 0
M  V30 4720 N 428.821 5.56149 -1.66368 0
M  V30 4721 H 431.586 1.5872 -2.5422 0
M  V30 4722 H 429.147 0.730517 -1.44482 0
M  V30 4723 H 431.139 3.81712 -1.34455 0
M  V30 4724 H 429.709 3.06994 -0.589359 0
M  V30 4725 H 428.929 2.53687 -3.01723 0
M  V30 4726 H 430.217 3.61831 -3.57709 0
M  V30 4727 H 429.615 5.55767 -1.05543 0
M  V30 4728 H 428.172 6.32071 -1.59154 0
M  V30 4729 N 431.605 1.3629 0.791371 0
M  V30 4730 C 432.515 1.32606 1.93527 0
M  V30 4731 C 433.531 0.228541 1.72493 0
M  V30 4732 O 434.707 0.460571 1.96063 0
M  V30 4733 C 431.772 1.11271 3.28359 0
M  V30 4734 C 430.833 2.3048 3.62185 0
M  V30 4735 C 430.066 2.10154 4.90583 0
M  V30 4736 O 430.289 1.07572 5.60165 0
M  V30 4737 O 429.223 2.97884 5.23019 0
M  V30 4738 H 433.049 2.28909 1.99585 0
M  V30 4739 H 430.634 1.16818 0.931344 0
M  V30 4740 H 432.516 1.01283 4.09047 0
M  V30 4741 H 431.191 0.180292 3.23198 0
M  V30 4742 H 430.098 2.46036 2.81811 0
M  V30 4743 H 431.431 3.22221 3.72068 0
M  V30 4744 N 433.083 -1.0153 1.20538 0
M  V30 4745 C 434.015 -2.10224 0.913155 0
M  V30 4746 C 435.028 -1.62495 -0.0995998 0
M  V30 4747 O 436.217 -1.78014 0.131582 0
M  V30 4748 C 433.317 -3.37111 0.347717 0
M  V30 4749 C 432.49 -4.13971 1.41233 0
M  V30 4750 C 431.549 -5.19158 0.857976 0
M  V30 4751 O 430.575 -5.48 1.53897 0
M  V30 4752 N 431.777 -5.7955 -0.331966 0
M  V30 4753 H 434.542 -2.35879 1.84881 0
M  V30 4754 H 432.103 -1.17931 1.10923 0
M  V30 4755 H 434.095 -4.04683 -0.0373026 0
M  V30 4756 H 432.665 -3.08696 -0.492527 0
M  V30 4757 H 431.885 -3.41351 1.97163 0
M  V30 4758 H 433.173 -4.62103 2.12928 0
M  V30 4759 H 432.571 -5.58455 -0.902478 0
M  V30 4760 H 431.128 -6.48464 -0.65861 0
M  V30 4761 N 434.561 -1.01147 -1.20859 0
M  V30 4762 C 435.977 -0.725422 -1.42161 0
M  V30 4763 C 436.177 0.696919 -1.89064 0
M  V30 4764 O 435.233 1.46539 -2.05627 0
M  V30 4765 C 436.546 -1.74678 -2.44761 0
M  V30 4766 C 438.094 -1.76433 -2.58535 0
M  V30 4767 C 438.569 -2.77481 -3.64374 0
M  V30 4768 N 440.06 -2.76189 -3.71852 0
M  V30 4769 C 440.795 -3.51035 -4.53389 0
M  V30 4770 N 440.291 -4.35541 -5.38773 0
M  V30 4771 N 442.084 -3.39655 -4.47873 0
M  V30 4772 H 434.235 -1.92979 -0.887282 0
M  V30 4773 H 436.498 -0.833327 -0.451962 0
M  V30 4774 H 436.204 -2.76551 -2.17285 0
M  V30 4775 H 436.078 -1.55472 -3.43669 0
M  V30 4776 H 438.465 -0.75248 -2.85345 0
M  V30 4777 H 438.546 -1.99712 -1.5984 0
M  V30 4778 H 438.19 -3.78827 -3.38308 0
M  V30 4779 H 438.12 -2.51466 -4.6268 0
M  V30 4780 H 440.611 -2.14885 -3.10858 0
M  V30 4781 H 440.924 -4.89432 -5.98061 0
M  V30 4782 H 439.269 -4.39621 -5.38292 0
M  V30 4783 H 442.46 -2.73063 -3.80203 0
M  V30 4784 H 442.633 -3.9824 -5.11184 0
M  V30 4785 N 436.039 1.36541 -0.78704 0
M  V30 4786 C 437.455 1.52571 -0.46844 0
M  V30 4787 C 437.655 1.7415 1.01361 0
M  V30 4788 O 436.711 1.77163 1.79915 0
M  V30 4789 C 438.024 2.71299 -1.29682 0
M  V30 4790 C 439.572 2.85169 -1.29027 0
M  V30 4791 C 440.047 4.06898 -2.10233 0
M  V30 4792 N 441.538 4.1404 -2.07666 0
M  V30 4793 C 442.273 5.07301 -2.67271 0
M  V30 4794 N 441.769 6.06021 -3.35724 0
M  V30 4795 N 443.562 4.99898 -2.57018 0
M  V30 4796 H 435.713 1.20788 -1.74711 0
M  V30 4797 H 437.976 0.589364 -0.742532 0
M  V30 4798 H 437.682 2.61868 -2.34773 0
M  V30 4799 H 437.556 3.6539 -0.936479 0
M  V30 4800 H 439.943 2.94062 -0.247284 0
M  V30 4801 H 440.024 1.91992 -1.69035 0
M  V30 4802 H 439.668 3.98766 -3.1456 0
M  V30 4803 H 439.598 4.99218 -1.67597 0
M  V30 4804 H 442.089 3.43357 -1.57843 0
M  V30 4805 H 442.402 6.73741 -3.78541 0
M  V30 4806 H 440.747 6.06253 -3.39826 0
M  V30 4807 H 443.938 4.21724 -2.03142 0
M  V30 4808 H 444.111 5.72392 -3.03761 0
M  V30 4809 N 437.518 0.538854 1.48102 0
M  V30 4810 C 438.746 0.0123136 2.06896 0
M  V30 4811 C 439.161 -1.27312 1.39417 0
M  V30 4812 O 438.518 -1.75949 0.484582 0
M  V30 4813 C 438.569 -0.206118 3.60912 0
M  V30 4814 O 438.29 1.0284 4.25859 0
M  V30 4815 C 439.791 -0.772033 4.36526 0
M  V30 4816 H 437.011 0.0375239 0.66995 0
M  V30 4817 H 439.555 0.747032 1.90367 0
M  V30 4818 H 437.71 -0.89091 3.77017 0
M  V30 4819 H 438.124 0.814654 5.18135 0
M  V30 4820 H 439.598 -0.874251 5.45033 0
M  V30 4821 H 440.075 -1.77904 4.01555 0
M  V30 4822 H 440.681 -0.123526 4.25121 0
M  V30 4823 N 438.996 -1.55193 0.274407 0
M  V30 4824 C 440.242 -1.99877 -0.343086 0
M  V30 4825 C 440.575 -1.16256 -1.55558 0
M  V30 4826 O 439.85 -0.232462 -1.93106 0
M  V30 4827 C 440.133 -3.52706 -0.725965 0
M  V30 4828 C 439.986 -4.47081 0.493818 0
M  V30 4829 C 441.305 -4.11422 -1.56268 0
M  V30 4830 H 438.424 -0.726625 -0.123229 0
M  V30 4831 H 441.066 -1.86136 0.38121 0
M  V30 4832 H 439.216 -3.64546 -1.34307 0
M  V30 4833 H 440.888 -4.47186 1.13237 0
M  V30 4834 H 439.131 -4.1877 1.13201 0
M  V30 4835 H 439.802 -5.51699 0.18217 0
M  V30 4836 H 442.278 -4.02855 -1.04151 0
M  V30 4837 H 441.154 -5.18568 -1.79939 0
M  V30 4838 H 441.415 -3.61607 -2.54348 0
M  V30 4839 N 440.474 -0.00167713 -1.576 0
M  V30 4840 C 441.406 1.0174 -2.05382 0
M  V30 4841 C 442.419 1.30595 -0.972052 0
M  V30 4842 O 443.608 1.27542 -1.24882 0
M  V30 4843 C 440.708 2.35174 -2.44022 0
M  V30 4844 C 439.881 2.25234 -3.74951 0
M  V30 4845 C 438.94 3.4137 -4.00441 0
M  V30 4846 O 437.966 3.19483 -4.71083 0
M  V30 4847 N 439.168 4.64275 -3.48467 0
M  V30 4848 H 441.933 0.609902 -2.93428 0
M  V30 4849 H 439.494 0.185672 -1.60832 0
M  V30 4850 H 441.486 3.11643 -2.58187 0
M  V30 4851 H 440.056 2.67659 -1.61485 0
M  V30 4852 H 439.276 1.33664 -3.70847 0
M  V30 4853 H 440.564 2.15767 -4.60784 0
M  V30 4854 H 439.962 4.84955 -2.91264 0
M  V30 4855 H 438.519 5.38005 -3.67959 0
M  V30 4856 N 441.952 1.55251 0.271103 0
M  V30 4857 C 443.229 1.66664 1.02384 0
M  V30 4858 C 443.609 0.534363 2.04225 0
M  V30 4859 O 442.957 -0.465337 2.23712 0
M  V30 4860 C 443.167 3.05961 1.67895 0
M  V30 4861 C 444.515 3.63772 2.18986 0
M  V30 4862 O 445.539 3.08606 1.77878 0
M  V30 4863 O 444.398 4.60429 2.94393 0
M  V30 4864 H 441.492 0.676957 0.475035 0
M  V30 4865 H 444.038 1.67589 0.26681 0
M  V30 4866 H 442.81 3.79815 0.941071 0
M  V30 4867 H 442.433 3.08943 2.5028 0
M  V30 4868 N 443.43 -0.535701 1.48216 0
M  V30 4869 C 444.377 -1.64083 1.62312 0
M  V30 4870 C 445.347 -1.59448 0.465365 0
M  V30 4871 O 446.532 -1.77959 0.688135 0
M  V30 4872 C 443.672 -3.0236 1.66349 0
M  V30 4873 C 442.785 -3.17273 2.93193 0
M  V30 4874 C 441.92 -4.46075 2.88427 0
M  V30 4875 C 440.959 -4.54496 4.1 0
M  V30 4876 N 440.096 -5.7468 4.03345 0
M  V30 4877 H 444.936 -1.51374 2.5669 0
M  V30 4878 H 442.473 -0.737059 1.27302 0
M  V30 4879 H 444.431 -3.82461 1.66672 0
M  V30 4880 H 443.061 -3.13854 0.754672 0
M  V30 4881 H 442.113 -2.30462 3.02641 0
M  V30 4882 H 443.425 -3.19357 3.83162 0
M  V30 4883 H 442.579 -5.3446 2.87119 0
M  V30 4884 H 441.318 -4.46504 1.96177 0
M  V30 4885 H 440.323 -3.64519 4.11589 0
M  V30 4886 H 441.548 -4.5581 5.03402 0
M  V30 4887 H 439.494 -5.76017 3.13912 0
M  V30 4888 H 439.411 -5.78234 4.87013 0
M  V30 4889 H 440.679 -6.65367 4.06087 0
M  V30 4890 N 444.908 -1.36708 -0.784132 0
M  V30 4891 C 445.855 -1.31466 -1.89698 0
M  V30 4892 C 446.825 -0.18239 -1.65096 0
M  V30 4893 O 448.01 -0.369762 -1.87183 0
M  V30 4894 C 445.15 -1.1151 -3.26588 0
M  V30 4895 C 444.263 -2.33859 -3.63227 0
M  V30 4896 C 443.398 -2.06873 -4.89262 0
M  V30 4897 C 442.437 -3.25154 -5.18595 0
M  V30 4898 N 441.574 -2.978 -6.35814 0
M  V30 4899 H 446.414 -2.26619 -1.93515 0
M  V30 4900 H 443.951 -1.12625 -0.946256 0
M  V30 4901 H 445.909 -0.979653 -4.05535 0
M  V30 4902 H 444.539 -0.200103 -3.22179 0
M  V30 4903 H 443.591 -2.58188 -2.79362 0
M  V30 4904 H 444.903 -3.22109 -3.8085 0
M  V30 4905 H 444.057 -1.90289 -5.76086 0
M  V30 4906 H 442.796 -1.15942 -4.73718 0
M  V30 4907 H 441.801 -3.42292 -4.30251 0
M  V30 4908 H 443.026 -4.1692 -5.36055 0
M  V30 4909 H 440.972 -2.09485 -6.21653 0
M  V30 4910 H 440.889 -3.7959 -6.53794 0
M  V30 4911 H 442.157 -2.84805 -7.25607 0
M  V30 4912 N 446.386 1.0089 -1.21074 0
M  V30 4913 C 447.333 2.09588 -0.966512 0
M  V30 4914 C 448.303 1.65761 0.106089 0
M  V30 4915 O 449.488 1.90758 -0.0402287 0
M  V30 4916 C 446.628 3.40958 -0.533058 0
M  V30 4917 C 445.741 3.9822 -1.67467 0
M  V30 4918 C 444.876 5.17682 -1.19076 0
M  V30 4919 C 443.915 5.67043 -2.30496 0
M  V30 4920 N 443.052 6.77759 -1.83267 0
M  V30 4921 H 447.892 2.29815 -1.89708 0
M  V30 4922 H 445.429 1.12689 -0.945489 0
M  V30 4923 H 447.387 4.1637 -0.263019 0
M  V30 4924 H 446.017 3.20781 0.360505 0
M  V30 4925 H 445.069 3.1983 -2.05944 0
M  V30 4926 H 446.381 4.3085 -2.51336 0
M  V30 4927 H 445.535 6.00326 -0.877151 0
M  V30 4928 H 444.274 4.86635 -0.322066 0
M  V30 4929 H 443.279 4.82999 -2.62664 0
M  V30 4930 H 444.504 6.00121 -3.17855 0
M  V30 4931 H 442.45 6.48527 -0.987356 0
M  V30 4932 H 442.367 7.09624 -2.60711 0
M  V30 4933 H 443.635 7.63949 -1.54928 0
M  V30 4934 N 447.864 1.01787 1.20321 0
M  V30 4935 C 449.092 0.727194 1.937 0
M  V30 4936 C 449.507 -0.712305 1.74848 0
M  V30 4937 O 448.864 -1.48327 1.06327 0
M  V30 4938 C 448.915 1.05497 3.45764 0
M  V30 4939 O 448.636 2.43794 3.64 0
M  V30 4940 C 450.137 0.785534 4.36285 0
M  V30 4941 H 447.357 0.266939 0.615617 0
M  V30 4942 H 449.901 1.35939 1.52777 0
M  V30 4943 H 448.056 0.468158 3.84561 0
M  V30 4944 H 448.47 2.55656 4.57974 0
M  V30 4945 H 449.944 1.06495 5.4163 0
M  V30 4946 H 450.421 -0.280273 4.38305 0
M  V30 4947 H 451.027 1.35456 4.03152 0
M  V30 4948 N 449.342 -1.36122 0.79427 0
M  V30 4949 C 450.305 -2.28309 0.201889 0
M  V30 4950 C 451.305 -1.49041 -0.603603 0
M  V30 4951 O 452.495 -1.68964 -0.423888 0
M  V30 4952 C 449.627 -3.3321 -0.719978 0
M  V30 4953 H 450.82 -2.82208 1.01481 0
M  V30 4954 H 448.373 -1.45768 0.564037 0
M  V30 4955 H 449.108 -2.84475 -1.55706 0
M  V30 4956 H 448.893 -3.91835 -0.144266 0
M  V30 4957 H 450.383 -4.02044 -1.12916 0
M  V30 4958 N 450.82 -0.546701 -1.47814 0
M  V30 4959 C 452.068 -0.0187037 -2.02091 0
M  V30 4960 C 452.389 1.33168 -1.42447 0
M  V30 4961 O 451.659 1.86619 -0.595839 0
M  V30 4962 H 450.239 -0.00392531 -0.74699 0
M  V30 4963 H 452.901 -0.714327 -1.81338 0
M  V30 4964 H 451.997 0.0772219 -3.12004 0
M  V30 4965 N 452.299 1.55045 -0.282633 0
M  V30 4966 C 453.715 1.59441 0.0712997 0
M  V30 4967 C 453.915 1.2998 1.53972 0
M  V30 4968 O 452.971 1.06431 2.28973 0
M  V30 4969 C 454.284 2.99097 -0.310104 0
M  V30 4970 C 455.832 3.1194 -0.257343 0
M  V30 4971 C 456.307 4.53875 -0.613297 0
M  V30 4972 N 457.798 4.5974 -0.565134 0
M  V30 4973 C 458.533 5.67603 -0.81326 0
M  V30 4974 N 458.029 6.83582 -1.1264 0
M  V30 4975 N 459.822 5.57187 -0.741553 0
M  V30 4976 H 451.973 1.72458 -1.23984 0
M  V30 4977 H 454.236 0.804549 -0.501403 0
M  V30 4978 H 453.942 3.25516 -1.33163 0
M  V30 4979 H 453.816 3.75616 0.345366 0
M  V30 4980 H 456.203 2.85281 0.754905 0
M  V30 4981 H 456.284 2.37618 -0.947178 0
M  V30 4982 H 455.928 4.81261 -1.62327 0
M  V30 4983 H 455.858 5.26508 0.09841 0
M  V30 4984 H 458.349 3.76427 -0.333294 0
M  V30 4985 H 458.662 7.6175 -1.30219 0
M  V30 4986 H 457.007 6.85179 -1.16425 0
M  V30 4987 H 460.198 4.65457 -0.496705 0
M  V30 4988 H 460.371 6.41171 -0.938306 0
M  V30 4989 N 453.777 0.010035 1.57597 0
M  V30 4990 C 455.005 -0.683413 1.95287 0
M  V30 4991 C 455.42 -1.66747 0.885481 0
M  V30 4992 O 454.777 -1.82003 -0.134629 0
M  V30 4993 C 454.828 -1.40652 3.33015 0
M  V30 4994 O 454.549 -0.461916 4.35658 0
M  V30 4995 C 456.05 -2.19356 3.85225 0
M  V30 4996 H 453.27 -0.189708 0.643624 0
M  V30 4997 H 455.814 0.0641359 2.04399 0
M  V30 4998 H 453.969 -2.10562 3.2518 0
M  V30 4999 H 454.383 -0.973215 5.15392 0
M  V30 5000 H 455.857 -2.65433 4.83993 0
M  V30 5001 H 456.334 -3.02457 3.18459 0
M  V30 5002 H 456.94 -1.54442 3.96267 0
M  V30 5003 N 455.255 -1.55392 -0.262866 0
M  V30 5004 C 456.48 -1.80847 -1.01533 0
M  V30 5005 C 456.905 -0.584946 -1.78774 0
M  V30 5006 O 456.263 0.465701 -1.75217 0
M  V30 5007 C 456.311 -3.03866 -1.94159 0
M  V30 5008 O 455.415 -2.79662 -3.03089 0
M  V30 5009 H 454.756 -0.597441 -0.289759 0
M  V30 5010 H 457.286 -2.02553 -0.288698 0
M  V30 5011 H 457.296 -3.32872 -2.35924 0
M  V30 5012 H 455.971 -3.92564 -1.37354 0
M  V30 5013 H 454.548 -2.61781 -2.65566 0
M  V30 5014 N 456.733 0.527833 -1.48498 0
M  V30 5015 C 458.149 0.856571 -1.34666 0
M  V30 5016 C 458.349 1.98271 -0.35931 0
M  V30 5017 O 457.405 2.51551 0.218703 0
M  V30 5018 C 458.718 1.22207 -2.74747 0
M  V30 5019 C 460.266 1.33183 -2.83251 0
M  V30 5020 C 460.741 1.73075 -4.24039 0
M  V30 5021 N 462.232 1.80174 -4.26722 0
M  V30 5022 C 462.967 2.1243 -5.32598 0
M  V30 5023 N 462.463 2.43096 -6.4875 0
M  V30 5024 N 464.256 2.13454 -5.19994 0
M  V30 5025 H 456.407 -0.215174 -2.11307 0
M  V30 5026 H 458.67 -0.0336281 -0.947403 0
M  V30 5027 H 458.376 0.468195 -3.4857 0
M  V30 5028 H 458.25 2.17173 -3.08409 0
M  V30 5029 H 460.637 2.07647 -2.09683 0
M  V30 5030 H 460.718 0.363333 -2.53206 0
M  V30 5031 H 460.362 0.991712 -4.98124 0
M  V30 5032 H 460.292 2.70979 -4.51529 0
M  V30 5033 H 462.783 1.58744 -3.42942 0
M  V30 5034 H 463.096 2.6682 -7.25277 0
M  V30 5035 H 461.441 2.40611 -6.52021 0
M  V30 5036 H 464.632 1.88956 -4.28268 0
M  V30 5037 H 464.805 2.38261 -6.02608 0
M  V30 5038 N 458.211 1.37122 0.776871 0
M  V30 5039 C 459.436 1.354 1.57104 0
M  V30 5040 C 459.861 -0.0595562 1.88006 0
M  V30 5041 O 459.219 -1.03514 1.48844 0
M  V30 5042 C 459.267 2.19472 2.8612 0
M  V30 5043 O 458.371 1.59582 3.80273 0
M  V30 5044 H 457.712 0.462869 0.476076 0
M  V30 5045 H 460.242 1.80577 0.961932 0
M  V30 5046 H 460.252 2.32502 3.35271 0
M  V30 5047 H 458.927 3.22222 2.62956 0
M  V30 5048 H 457.504 1.55564 3.38902 0
M  V30 5049 N 459.689 -1.00246 1.21608 0
M  V30 5050 C 460.637 -2.11193 0.97469 0
M  V30 5051 C 461.631 -1.69216 -0.0789303 0
M  V30 5052 O 462.837 -1.79853 0.0726806 0
M  V30 5053 H 459.212 -0.690455 0.297953 0
M  V30 5054 H 461.183 -2.2873 1.91638 0
M  V30 5055 C 459.932 -3.43182 0.558717 0
M  V30 5056 H 459.255 -3.75918 1.3611 0
M  V30 5057 H 460.695 -4.21823 0.429154 0
M  V30 5058 C 459.154 -3.28882 -0.730648 0
M  V30 5059 O 459.684 -3.59835 -1.78554 0
M  V30 5060 N 457.89 -2.8209 -0.698131 0
M  V30 5061 H 457.437 -2.57099 0.16061 0
M  V30 5062 H 457.395 -2.72903 -1.56113 0
M  V30 5063 N 461.167 -1.02423 -1.1978 0
M  V30 5064 C 462.578 -0.748389 -1.71044 0
M  V30 5065 C 462.929 0.732398 -1.82017 0
M  V30 5066 O 462.054 1.57116 -1.48807 0
M  V30 5067 C 462.649 -1.35187 -3.1066 0
M  V30 5068 C 461.208 -1.12472 -3.59203 0
M  V30 5069 C 460.355 -1.45283 -2.36195 0
M  V30 5070 H 463.306 -1.19275 -1.04686 0
M  V30 5071 H 463.327 -0.746408 -3.73107 0
M  V30 5072 H 462.839 -2.4296 -3.02642 0
M  V30 5073 H 460.94 -0.0649983 -3.72543 0
M  V30 5074 H 461.053 -1.81016 -4.43588 0
M  V30 5075 H 459.417 -0.872034 -2.39307 0
M  V30 5076 H 460.2 -2.54129 -2.30811 0
M  V30 5077 N 462.645 1.35699 -0.801477 0
M  V30 5078 C 464.056 1.81415 -0.441073 0
M  V30 5079 C 464.407 1.66595 1.03636 0
M  V30 5080 O 463.532 1.19369 1.80499 0
M  V30 5081 C 464.127 3.29369 -0.793819 0
M  V30 5082 C 462.686 3.73248 -0.486083 0
M  V30 5083 C 461.833 2.57775 -1.02213 0
M  V30 5084 H 464.784 1.23749 -0.993572 0
M  V30 5085 H 464.805 3.80395 -0.0894158 0
M  V30 5086 H 464.317 3.40123 -1.86917 0
M  V30 5087 H 462.418 3.68046 0.580735 0
M  V30 5088 H 462.531 4.68222 -1.01513 0
M  V30 5089 H 460.895 2.50788 -0.444712 0
M  V30 5090 H 461.678 2.71309 -2.10348 0
M  V30 5091 N 464.123 0.554532 1.47522 0
M  V30 5092 C 465.07 -0.19466 2.29978 0
M  V30 5093 C 466.04 -0.910882 1.38896 0
M  V30 5094 O 467.225 -0.907102 1.67858 0
M  V30 5095 C 464.365 -1.22035 3.22802 0
M  V30 5096 C 463.478 -0.510474 4.28973 0
M  V30 5097 C 462.613 -1.52123 5.08952 0
M  V30 5098 C 461.652 -0.796173 6.069 0
M  V30 5099 N 460.789 -1.75363 6.79847 0
M  V30 5100 H 465.629 0.51461 2.93523 0
M  V30 5101 H 463.166 0.265607 1.44682 0
M  V30 5102 H 465.124 -1.8276 3.7504 0
M  V30 5103 H 463.754 -1.89769 2.61127 0
M  V30 5104 H 462.806 0.211234 3.79813 0
M  V30 5105 H 464.118 0.0576503 4.98767 0
M  V30 5106 H 463.272 -2.20207 5.65326 0
M  V30 5107 H 462.011 -2.12327 4.39054 0
M  V30 5108 H 461.016 -0.101388 5.49707 0
M  V30 5109 H 462.241 -0.199911 6.78806 0
M  V30 5110 H 460.187 -2.3443 6.12682 0
M  V30 5111 H 460.104 -1.23759 7.45801 0
M  V30 5112 H 461.372 -2.4257 7.40797 0
M  V30 5113 N 465.601 -1.54893 0.290851 0
M  V30 5114 C 467.012 -1.85584 -0.203816 0
M  V30 5115 C 467.363 -1.21285 -1.54222 0
M  V30 5116 O 466.488 -0.506841 -2.10381 0
M  V30 5117 C 467.083 -3.367 -0.376595 0
M  V30 5118 C 465.642 -3.6746 -0.815485 0
M  V30 5119 C 464.789 -2.77178 0.0821087 0
M  V30 5120 H 467.74 -1.50208 0.512175 0
M  V30 5121 H 467.761 -3.60656 -1.21275 0
M  V30 5122 H 467.273 -3.8347 0.59767 0
M  V30 5123 H 465.374 -3.26201 -1.80066 0
M  V30 5124 H 465.487 -4.7478 -0.641905 0
M  V30 5125 H 463.851 -2.50925 -0.436895 0
M  V30 5126 H 464.634 -3.26767 1.05254 0
M  V30 5127 N 467.08 -0.0183926 -1.57589 0
M  V30 5128 C 468.027 0.967022 -2.09565 0
M  V30 5129 C 468.997 1.32983 -0.995225 0
M  V30 5130 O 470.182 1.42501 -1.26878 0
M  V30 5131 C 467.322 2.24772 -2.61861 0
M  V30 5132 C 466.435 1.94232 -3.85873 0
M  V30 5133 C 465.57 3.16518 -4.26603 0
M  V30 5134 C 464.609 2.81748 -5.43401 0
M  V30 5135 N 463.746 3.96626 -5.79338 0
M  V30 5136 H 468.586 0.516874 -2.93483 0
M  V30 5137 H 466.123 0.243544 -1.4507 0
M  V30 5138 H 468.081 2.99667 -2.90268 0
M  V30 5139 H 466.711 2.67423 -1.8079 0
M  V30 5140 H 465.763 1.09625 -3.64262 0
M  V30 5141 H 467.075 1.64616 -4.70853 0
M  V30 5142 H 466.229 3.99743 -4.56389 0
M  V30 5143 H 464.968 3.49286 -3.40368 0
M  V30 5144 H 463.973 1.96933 -5.1332 0
M  V30 5145 H 465.198 2.50207 -6.31327 0
M  V30 5146 H 463.144 4.29257 -4.96059 0
M  V30 5147 H 463.061 3.70598 -6.58933 0
M  V30 5148 H 464.329 4.80586 -6.13724 0
M  V30 5149 N 468.558 1.5553 0.254621 0
M  V30 5150 C 469.806 1.7665 0.981793 0
M  V30 5151 C 470.127 0.580963 1.86145 0
M  V30 5152 O 469.397 -0.403537 1.91699 0
M  V30 5153 H 467.977 0.651475 0.365498 0
M  V30 5154 H 470.639 1.92958 0.274426 0
M  V30 5155 H 469.735 2.67486 1.60802 0
M  V30 5156 N 470.036 -0.519951 1.48776 0
M  V30 5157 C 470.983 -1.62352 1.64044 0
M  V30 5158 C 471.953 -1.58945 0.482251 0
M  V30 5159 O 473.138 -1.77219 0.706971 0
M  V30 5160 C 470.278 -3.00579 1.69547 0
M  V30 5161 C 469.391 -3.14145 2.96541 0
M  V30 5162 C 468.526 -4.42991 2.93142 0
M  V30 5163 C 467.565 -4.50122 4.14797 0
M  V30 5164 N 466.702 -5.7037 4.09418 0
M  V30 5165 H 471.542 -1.48643 2.58281 0
M  V30 5166 H 469.079 -0.723516 1.28077 0
M  V30 5167 H 471.037 -3.80671 1.70719 0
M  V30 5168 H 469.667 -3.13036 0.787918 0
M  V30 5169 H 468.719 -2.27239 3.05068 0
M  V30 5170 H 470.031 -3.15275 3.86527 0
M  V30 5171 H 469.185 -5.31385 2.92772 0
M  V30 5172 H 467.924 -4.44398 2.00902 0
M  V30 5173 H 466.929 -3.60133 4.15433 0
M  V30 5174 H 468.154 -4.50445 5.08208 0
M  V30 5175 H 466.1 -5.72655 3.20004 0
M  V30 5176 H 466.017 -5.73036 4.93119 0
M  V30 5177 H 467.285 -6.61023 4.13121 0
M  V30 5178 N 471.514 -1.37532 -0.769588 0
M  V30 5179 C 472.925 -1.29382 -1.346 0
M  V30 5180 C 473.276 0.0576039 -1.96115 0
M  V30 5181 O 472.401 0.95947 -1.93967 0
M  V30 5182 C 472.996 -2.34298 -2.44724 0
M  V30 5183 C 471.555 -2.29776 -2.98128 0
M  V30 5184 C 470.702 -2.18013 -1.71364 0
M  V30 5185 H 473.653 -1.48123 -0.56968 0
M  V30 5186 H 473.674 -1.99089 -3.24259 0
M  V30 5187 H 473.186 -3.32645 -1.99922 0
M  V30 5188 H 471.287 -1.34959 -3.47299 0
M  V30 5189 H 471.4 -3.23276 -3.53595 0
M  V30 5190 H 469.764 -1.64595 -1.94372 0
M  V30 5191 H 470.547 -3.18278 -1.28662 0
M  V30 5192 N 472.992 0.995999 -1.22138 0
M  V30 5193 C 474.403 1.54961 -1.04135 0
M  V30 5194 C 474.754 1.92159 0.396147 0
M  V30 5195 O 473.879 1.74435 1.28069 0
M  V30 5196 C 474.474 2.81581 -1.88408 0
M  V30 5197 C 473.033 3.33396 -1.74712 0
M  V30 5198 C 472.18 2.06509 -1.85066 0
M  V30 5199 H 475.131 0.817436 -1.36028 0
M  V30 5200 H 475.152 3.53822 -1.39966 0
M  V30 5201 H 474.664 2.54476 -2.93025 0
M  V30 5202 H 472.765 3.65416 -0.728159 0
M  V30 5203 H 472.878 4.04208 -2.57202 0
M  V30 5204 H 471.242 2.19925 -1.28472 0
M  V30 5205 H 472.025 1.81804 -2.91208 0
M  V30 5206 N 474.47 1.03057 1.19235 0
M  V30 5207 C 475.433 0.617418 2.20727 0
M  V30 5208 C 476.433 -0.319856 1.57587 0
M  V30 5209 O 477.623 -0.106633 1.73873 0
M  V30 5210 C 474.755 -0.096296 3.40764 0
M  V30 5211 H 475.948 1.51544 2.58794 0
M  V30 5212 H 473.501 0.821949 1.32942 0
M  V30 5213 H 474.236 -1.00859 3.08217 0
M  V30 5214 H 474.021 0.577217 3.87828 0
M  V30 5215 H 475.511 -0.372219 4.15938 0
M  V30 5216 N 475.948 -1.35272 0.808662 0
M  V30 5217 C 477.359 -1.81179 0.450688 0
M  V30 5218 C 477.71 -1.67143 -1.02751 0
M  V30 5219 O 476.835 -1.20325 -1.79864 0
M  V30 5220 C 477.43 -3.28943 0.811275 0
M  V30 5221 C 475.989 -3.72985 0.505871 0
M  V30 5222 C 475.136 -2.57229 1.03578 0
M  V30 5223 H 478.087 -1.2322 1.00012 0
M  V30 5224 H 478.108 -3.80342 0.109588 0
M  V30 5225 H 477.62 -3.39127 1.88718 0
M  V30 5226 H 475.721 -3.68349 -0.561209 0
M  V30 5227 H 475.834 -4.67677 1.03995 0
M  V30 5228 H 474.198 -2.50548 0.458005 0
M  V30 5229 H 474.981 -2.7019 2.11784 0
M  V30 5230 N 477.426 -0.562348 -1.47226 0
M  V30 5231 C 478.373 0.182461 -2.30078 0
M  V30 5232 C 479.343 0.903503 -1.39377 0
M  V30 5233 O 480.528 0.898188 -1.68337 0
M  V30 5234 C 477.668 1.20322 -3.23445 0
M  V30 5235 C 476.781 0.487717 -4.29238 0
M  V30 5236 C 475.916 1.49422 -5.09752 0
M  V30 5237 C 474.955 0.763976 -6.07314 0
M  V30 5238 N 474.092 1.71755 -6.80768 0
M  V30 5239 H 478.932 -0.530169 -2.93246 0
M  V30 5240 H 476.469 -0.273276 -1.44539 0
M  V30 5241 H 478.427 1.80768 -3.76004 0
M  V30 5242 H 477.057 1.88382 -2.6213 0
M  V30 5243 H 476.109 -0.231374 -3.79696 0
M  V30 5244 H 477.421 -0.0841003 -4.98729 0
M  V30 5245 H 476.575 2.17206 -5.66486 0
M  V30 5246 H 475.314 2.09995 -4.40174 0
M  V30 5247 H 474.319 0.0722344 -5.49753 0
M  V30 5248 H 475.544 0.16391 -6.78902 0
M  V30 5249 H 473.49 2.31177 -6.13916 0
M  V30 5250 H 473.407 1.19802 -7.46447 0
M  V30 5251 H 474.675 2.38638 -7.42073 0
M  V30 5252 N 478.904 1.54736 -0.299062 0
M  V30 5253 C 480.315 1.8569 0.193971 0
M  V30 5254 C 480.666 1.22101 1.53577 0
M  V30 5255 O 479.791 0.51799 2.10109 0
M  V30 5256 C 480.386 3.36895 0.358733 0
M  V30 5257 C 478.945 3.67887 0.795986 0
M  V30 5258 C 478.092 2.77131 -0.096807 0
M  V30 5259 H 481.043 1.49934 -0.520134 0
M  V30 5260 H 481.064 3.61294 1.19361 0
M  V30 5261 H 480.576 3.83148 -0.617998 0
M  V30 5262 H 478.677 3.27151 1.78334 0
M  V30 5263 H 478.79 4.75114 0.616718 0
M  V30 5264 H 477.154 2.51153 0.423581 0
M  V30 5265 H 477.937 3.26204 -1.06986 0
M  V30 5266 N 480.382 0.0267497 1.57577 0
M  V30 5267 C 481.345 -0.940916 2.08996 0
M  V30 5268 C 482.345 -1.25561 1.00455 0
M  V30 5269 O 483.535 -1.19634 1.26623 0
M  V30 5270 C 480.667 -2.25814 2.55384 0
M  V30 5271 H 481.86 -0.495628 2.95776 0
M  V30 5272 H 479.413 -0.221241 1.54726 0
M  V30 5273 H 480.148 -2.74976 1.71926 0
M  V30 5274 H 479.933 -2.04285 3.34679 0
M  V30 5275 H 481.423 -2.95178 2.95398 0
M  V30 5276 N 481.861 -1.55662 -0.24637 0
M  V30 5277 C 483.086 -1.81914 -0.996093 0
M  V30 5278 C 483.511 -0.603875 -1.78143 0
M  V30 5279 O 482.869 0.447091 -1.75701 0
M  V30 5280 C 482.917 -3.05908 -1.90925 0
M  V30 5281 O 482.021 -2.82861 -3.00105 0
M  V30 5282 H 481.362 -0.600481 -0.283406 0
M  V30 5283 H 483.892 -2.02848 -0.267199 0
M  V30 5284 H 483.902 -3.35356 -2.3238 0
M  V30 5285 H 482.577 -3.93999 -1.33183 0
M  V30 5286 H 481.154 -2.64583 -2.62775 0
M  V30 5287 N 483.339 0.512053 -1.4905 0
M  V30 5288 C 484.75 1.09376 -1.51307 0
M  V30 5289 C 485.101 1.94 -0.292971 0
M  V30 5290 O 484.226 2.07965 0.598277 0
M  V30 5291 C 484.821 1.99031 -2.74176 0
M  V30 5292 C 483.38 2.52385 -2.79247 0
M  V30 5293 C 482.527 1.29749 -2.45073 0
M  V30 5294 H 485.478 0.296467 -1.55906 0
M  V30 5295 H 485.499 2.83569 -2.53711 0
M  V30 5296 H 485.011 1.37412 -3.62959 0
M  V30 5297 H 483.112 3.17673 -1.94716 0
M  V30 5298 H 483.225 2.90293 -3.81139 0
M  V30 5299 H 481.589 1.61912 -1.96612 0
M  V30 5300 H 482.372 0.698555 -3.36118 0
M  V30 5301 N 484.817 1.37938 0.762283 0
M  V30 5302 C 485.764 1.34467 1.87583 0
M  V30 5303 C 486.734 0.208633 1.64785 0
M  V30 5304 O 487.919 0.399494 1.86571 0
M  V30 5305 C 485.059 1.16692 3.24772 0
M  V30 5306 C 484.172 2.39608 3.59461 0
M  V30 5307 C 483.307 2.14631 4.85908 0
M  V30 5308 C 482.346 3.33364 5.13357 0
M  V30 5309 N 481.483 3.07877 6.30996 0
M  V30 5310 H 486.323 2.29669 1.89885 0
M  V30 5311 H 483.86 1.14116 0.928219 0
M  V30 5312 H 485.818 1.04405 4.03925 0
M  V30 5313 H 484.448 0.251333 3.2182 0
M  V30 5314 H 483.5 2.626 2.75219 0
M  V30 5315 H 484.812 3.28128 3.75678 0
M  V30 5316 H 483.966 1.99429 5.72986 0
M  V30 5317 H 482.705 1.23463 4.71814 0
M  V30 5318 H 481.71 3.49094 4.24751 0
M  V30 5319 H 482.935 4.25395 5.29354 0
M  V30 5320 H 480.881 2.19348 6.18241 0
M  V30 5321 H 480.798 3.89944 6.47673 0
M  V30 5322 H 482.066 2.96313 7.20985 0
M  V30 5323 N 486.295 -0.989507 1.22664 0
M  V30 5324 C 487.242 -2.08024 0.999733 0
M  V30 5325 C 488.212 -1.65909 -0.0797047 0
M  V30 5326 O 489.397 -1.90669 0.0705715 0
M  V30 5327 C 486.537 -3.40067 0.587234 0
M  V30 5328 C 485.65 -3.95505 1.73781 0
M  V30 5329 C 484.785 -5.15722 1.27297 0
M  V30 5330 C 483.824 -5.63305 2.39488 0
M  V30 5331 N 482.961 -6.74758 1.94026 0
M  V30 5332 H 487.801 -2.26768 1.9334 0
M  V30 5333 H 485.338 -1.11171 0.963297 0
M  V30 5334 H 487.296 -4.15899 0.329227 0
M  V30 5335 H 485.926 -3.21314 -0.309426 0
M  V30 5336 H 484.978 -3.16513 2.11006 0
M  V30 5337 H 486.29 -4.26797 2.58158 0
M  V30 5338 H 485.444 -5.98854 0.972546 0
M  V30 5339 H 484.183 -4.86061 0.399445 0
M  V30 5340 H 483.188 -4.78759 2.70315 0
M  V30 5341 H 484.413 -5.94988 3.27362 0
M  V30 5342 H 482.359 -6.46874 1.09041 0
M  V30 5343 H 482.276 -7.05386 2.71968 0
M  V30 5344 H 483.544 -7.61387 1.67062 0
M  V30 5345 N 487.773 -1.03688 -1.18687 0
M  V30 5346 C 488.721 -0.618292 -2.24232 0
M  V30 5347 C 489.715 0.353045 -1.6568 0
M  V30 5348 O 490.921 0.220749 -1.78641 0
M  V30 5349 H 487.296 -0.181711 -0.729716 0
M  V30 5350 H 489.267 -1.51893 -2.56848 0
M  V30 5351 C 488.016 0.00677342 -3.47699 0
M  V30 5352 H 487.339 -0.731692 -3.93047 0
M  V30 5353 H 488.779 0.262492 -4.23187 0
M  V30 5354 C 487.238 1.25572 -3.12623 0
M  V30 5355 O 487.768 2.34691 -3.26011 0
M  V30 5356 N 485.974 1.14755 -2.66982 0
M  V30 5357 H 485.521 0.259601 -2.56289 0
M  V30 5358 H 485.479 1.98412 -2.43885 0
M  V30 5359 N 489.251 1.34841 -0.815825 0
M  V30 5360 C 490.5 1.97755 -0.396976 0
M  V30 5361 C 490.813 1.65422 1.04379 0
M  V30 5362 O 492.019 2.21771 1.5662 0
M  V30 5363 C 490.475 3.53818 -0.658869 0
M  V30 5364 C 490.083 3.95051 -2.11278 0
M  V30 5365 C 491.827 4.23397 -0.305834 0
M  V30 5366 C 489.734 5.43997 -2.31994 0
M  V30 5367 H 488.664 0.739985 -0.1447 0
M  V30 5368 H 491.315 1.53781 -1.00118 0
M  V30 5369 H 489.697 3.95997 0.0154112 0
M  V30 5370 H 490.871 3.63998 -2.82564 0
M  V30 5371 H 489.186 3.38388 -2.42657 0
M  V30 5372 H 491.783 5.32899 -0.43854 0
M  V30 5373 H 492.126 4.09508 0.748952 0
M  V30 5374 H 492.659 3.8667 -0.934403 0
M  V30 5375 H 489.398 5.62865 -3.35952 0
M  V30 5376 H 488.918 5.76589 -1.65244 0
M  V30 5377 H 490.597 6.10584 -2.14001 0
M  V30 5378 N 490.729 0.570148 1.46925 0
M  V30 5379 C 491.676 -0.170257 2.30171 0
M  V30 5380 C 492.646 -0.896099 1.39855 0
M  V30 5381 O 493.831 -0.889248 1.68811 0
M  V30 5382 C 490.971 -1.18605 3.24079 0
M  V30 5383 C 490.084 -0.464947 4.29491 0
M  V30 5384 C 489.219 -1.46716 5.10537 0
M  V30 5385 C 488.258 -0.731758 6.0771 0
M  V30 5386 N 487.395 -1.68142 6.81669 0
M  V30 5387 H 492.235 0.545713 2.92961 0
M  V30 5388 H 489.772 0.280938 1.44392 0
M  V30 5389 H 491.73 -1.78771 3.76957 0
M  V30 5390 H 490.36 -1.86989 2.63125 0
M  V30 5391 H 489.412 0.251506 3.79568 0
M  V30 5392 H 490.724 0.110548 4.98677 0
M  V30 5393 H 489.878 -2.14199 5.6763 0
M  V30 5394 H 488.617 -2.07658 4.41282 0
M  V30 5395 H 487.622 -0.0430787 5.49783 0
M  V30 5396 H 488.847 -0.127904 6.7898 0
M  V30 5397 H 486.793 -2.27918 6.15134 0
M  V30 5398 H 486.71 -1.15841 7.47072 0
M  V30 5399 H 487.978 -2.347 7.43328 0
M  V30 5400 N 492.207 -1.54576 0.307264 0
M  V30 5401 C 493.435 -2.04675 -0.302597 0
M  V30 5402 C 493.85 -1.18425 -1.47041 0
M  V30 5403 O 493.207 -0.211257 -1.81273 0
M  V30 5404 C 493.258 -3.53575 -0.752801 0
M  V30 5405 O 492.979 -4.36547 0.368536 0
M  V30 5406 C 494.48 -4.19699 -1.42717 0
M  V30 5407 H 491.7 -0.66786 -0.0648374 0
M  V30 5408 H 494.244 -1.99516 0.448716 0
M  V30 5409 H 492.399 -3.59074 -1.45412 0
M  V30 5410 H 492.813 -5.24497 0.0168937 0
M  V30 5411 H 494.287 -5.25388 -1.69327 0
M  V30 5412 H 494.764 -3.69815 -2.36925 0
M  V30 5413 H 495.37 -4.18293 -0.768856 0
M  V30 5414 N 493.685 -0.035106 -1.57561 0
M  V30 5415 C 495.101 0.321334 -1.56332 0
M  V30 5416 C 495.301 1.72509 -1.04129 0
M  V30 5417 O 494.357 2.4287 -0.690694 0
M  V30 5418 C 495.67 0.164469 -3.0025 0
M  V30 5419 C 497.218 0.236786 -3.12103 0
M  V30 5420 C 497.693 0.10864 -4.57871 0
M  V30 5421 N 499.184 0.165433 -4.62904 0
M  V30 5422 C 499.919 0.0901506 -5.73329 0
M  V30 5423 N 499.415 -0.0365606 -6.9279 0
M  V30 5424 N 501.208 0.144572 -5.61914 0
M  V30 5425 H 493.359 -0.952976 -1.89821 0
M  V30 5426 H 495.622 -0.368537 -0.873432 0
M  V30 5427 H 495.328 -0.802746 -3.42416 0
M  V30 5428 H 495.202 0.932194 -3.655 0
M  V30 5429 H 497.589 1.19446 -2.69845 0
M  V30 5430 H 497.67 -0.561419 -2.49563 0
M  V30 5431 H 497.314 -0.845644 -5.00811 0
M  V30 5432 H 497.244 0.925786 -5.18398 0
M  V30 5433 H 499.735 0.263269 -3.76982 0
M  V30 5434 H 500.048 -0.0871487 -7.72751 0
M  V30 5435 H 498.393 -0.0714256 -6.94963 0
M  V30 5436 H 501.584 0.242006 -4.67474 0
M  V30 5437 H 501.757 0.0824413 -6.47948 0
M  V30 5438 N 495.163 1.55791 0.238111 0
M  V30 5439 C 496.388 1.8244 0.986432 0
M  V30 5440 C 496.813 0.613314 1.7782 0
M  V30 5441 O 496.171 -0.437767 1.75935 0
M  V30 5442 C 496.219 3.06917 1.893 0
M  V30 5443 O 495.323 2.84449 2.98601 0
M  V30 5444 H 494.664 0.601975 0.280218 0
M  V30 5445 H 497.194 2.02987 0.256437 0
M  V30 5446 H 497.204 3.36583 2.30598 0
M  V30 5447 H 495.879 3.947 1.31091 0
M  V30 5448 H 494.456 2.65972 2.61368 0
M  V30 5449 N 496.642 -0.504142 1.49319 0
M  V30 5450 C 497.605 -1.5883 1.65244 0
M  V30 5451 C 498.605 -1.52009 0.524386 0
M  V30 5452 O 499.795 -1.55218 0.79077 0
M  V30 5453 C 496.927 -2.98481 1.64687 0
M  V30 5454 H 498.12 -1.4604 2.61939 0
M  V30 5455 H 495.673 -0.728144 1.38303 0
M  V30 5456 H 496.408 -3.16751 0.695644 0
M  V30 5457 H 496.193 -3.0484 2.46607 0
M  V30 5458 H 497.683 -3.77256 1.79075 0
M  V30 5459 N 498.12 -1.38341 -0.754957 0
M  V30 5460 C 499.052 -1.31347 -1.87831 0
M  V30 5461 C 500.065 -0.225955 -1.61224 0
M  V30 5462 O 501.254 -0.48341 -1.7183 0
M  V30 5463 C 498.354 -1.01201 -3.23437 0
M  V30 5464 C 497.527 -2.20834 -3.77559 0
M  V30 5465 C 496.586 -1.87454 -4.91678 0
M  V30 5466 O 495.612 -2.59934 -5.06382 0
M  V30 5467 N 496.814 -0.828682 -5.74555 0
M  V30 5468 H 499.579 -2.28147 -1.94342 0
M  V30 5469 H 497.14 -1.32184 -0.934828 0
M  V30 5470 H 499.132 -0.769249 -3.97322 0
M  V30 5471 H 497.702 -0.132011 -3.12321 0
M  V30 5472 H 496.922 -2.61184 -2.95256 0
M  V30 5473 H 498.21 -3.00678 -4.10451 0
M  V30 5474 H 497.608 -0.227591 -5.65242 0
M  V30 5475 H 496.165 -0.645802 -6.48593 0
M  V30 5476 N 499.598 0.982988 -1.23187 0
M  V30 5477 C 500.545 2.07491 -1.01075 0
M  V30 5478 C 501.515 1.65949 0.070905 0
M  V30 5479 O 502.7 1.90629 -0.0806822 0
M  V30 5480 C 499.84 3.39751 -0.605261 0
M  V30 5481 C 498.953 3.94578 -1.75876 0
M  V30 5482 C 498.088 5.15039 -1.3003 0
M  V30 5483 C 497.127 5.62027 -2.42472 0
M  V30 5484 N 496.264 6.73719 -1.97602 0
M  V30 5485 H 501.104 2.25739 -1.9454 0
M  V30 5486 H 498.641 1.10659 -0.969179 0
M  V30 5487 H 500.599 4.15719 -0.351279 0
M  V30 5488 H 499.229 3.21473 0.292382 0
M  V30 5489 H 498.281 3.1539 -2.12681 0
M  V30 5490 H 499.593 4.25422 -2.60418 0
M  V30 5491 H 498.747 5.9833 -1.00429 0
M  V30 5492 H 497.486 4.85843 -0.425216 0
M  V30 5493 H 496.491 4.77318 -2.7285 0
M  V30 5494 H 497.716 5.93244 -3.30512 0
M  V30 5495 H 495.662 6.46287 -1.1247 0
M  V30 5496 H 495.579 7.03934 -2.75705 0
M  V30 5497 H 496.847 7.6049 -1.71098 0
M  V30 5498 N 501.076 1.04316 1.18135 0
M  V30 5499 C 502.492 0.762858 1.40188 0
M  V30 5500 C 502.692 -0.646547 1.90846 0
M  V30 5501 O 501.748 -1.41036 2.0944 0
M  V30 5502 C 503.061 1.81106 2.40044 0
M  V30 5503 C 504.609 1.83226 2.53766 0
M  V30 5504 C 505.084 2.87044 3.56889 0
M  V30 5505 N 506.575 2.85951 3.64398 0
M  V30 5506 C 507.31 3.62932 4.43923 0
M  V30 5507 N 506.806 4.49672 5.27036 0
M  V30 5508 N 508.599 3.51411 4.38711 0
M  V30 5509 H 500.75 1.95264 0.835805 0
M  V30 5510 H 503.013 0.845017 0.429709 0
M  V30 5511 H 502.719 2.82214 2.09876 0
M  V30 5512 H 502.593 1.64529 3.39426 0
M  V30 5513 H 504.98 0.827869 2.8325 0
M  V30 5514 H 505.061 2.03879 1.54489 0
M  V30 5515 H 504.705 3.87663 3.28145 0
M  V30 5516 H 504.635 2.63645 4.5585 0
M  V30 5517 H 507.126 2.23051 3.05052 0
M  V30 5518 H 507.439 5.05116 5.84874 0
M  V30 5519 H 505.784 4.53738 5.26447 0
M  V30 5520 H 508.975 2.83047 3.72829 0
M  V30 5521 H 509.148 4.11654 5.00445 0
M  V30 5522 N 502.554 -1.34406 0.822964 0
M  V30 5523 C 503.782 -2.02508 0.424039 0
M  V30 5524 C 504.197 -1.61975 -0.970022 0
M  V30 5525 O 503.554 -0.825228 -1.62777 0
M  V30 5526 C 503.605 -3.57789 0.516657 0
M  V30 5527 O 503.326 -3.96853 1.85577 0
M  V30 5528 C 504.827 -4.43157 0.112637 0
M  V30 5529 H 502.047 -0.649063 0.170173 0
M  V30 5530 H 504.591 -1.7168 1.11113 0
M  V30 5531 H 502.746 -3.87207 -0.122353 0
M  V30 5532 H 503.16 -4.91538 1.83005 0
M  V30 5533 H 504.634 -5.51527 0.228526 0
M  V30 5534 H 505.111 -4.28939 -0.943837 0
M  V30 5535 H 505.717 -4.19067 0.725449 0
M  V30 5536 N 504.032 -0.577932 -1.46621 0
M  V30 5537 C 504.98 0.170882 -2.31971 0
M  V30 5538 C 505.974 0.889086 -1.44193 0
M  V30 5539 O 507.18 0.808017 -1.60845 0
M  V30 5540 H 503.555 0.0739763 -0.748353 0
M  V30 5541 H 505.526 -0.567856 -2.92947 0
M  V30 5542 C 504.275 1.17438 -3.27267 0
M  V30 5543 H 503.598 0.63116 -3.94787 0
M  V30 5544 H 505.038 1.66882 -3.89778 0
M  V30 5545 C 503.497 2.23292 -2.52274 0
M  V30 5546 O 504.027 3.30567 -2.28229 0
M  V30 5547 N 502.233 1.97772 -2.12919 0
M  V30 5548 H 501.78 1.10545 -2.32675 0
M  V30 5549 H 501.738 2.68809 -1.63062 0
M  V30 5550 N 505.51 1.54411 -0.315457 0
M  V30 5551 C 506.921 1.85885 0.174265 0
M  V30 5552 C 507.272 1.23723 1.52273 0
M  V30 5553 O 506.397 0.540246 2.09548 0
M  V30 5554 C 506.992 3.37257 0.322981 0
M  V30 5555 C 505.551 3.68711 0.756922 0
M  V30 5556 C 504.698 2.77013 -0.126195 0
M  V30 5557 H 507.649 1.49374 -0.536007 0
M  V30 5558 H 507.67 3.62539 1.15522 0
M  V30 5559 H 507.182 3.82471 -0.658602 0
M  V30 5560 H 505.283 3.29024 1.74854 0
M  V30 5561 H 505.396 4.75741 0.566291 0
M  V30 5562 H 503.76 2.51588 0.39692 0
M  V30 5563 H 504.543 3.25051 -1.1044 0
M  V30 5564 N 506.988 0.0434614 1.5754 0
M  V30 5565 C 507.935 -0.93356 2.11077 0
M  V30 5566 C 508.905 -1.31383 1.01626 0
M  V30 5567 O 510.09 -1.40465 1.29129 0
M  V30 5568 C 507.23 -2.20578 2.65404 0
M  V30 5569 C 506.343 -1.88068 3.88914 0
M  V30 5570 C 505.478 -3.09691 4.31584 0
M  V30 5571 C 504.517 -2.73067 5.47815 0
M  V30 5572 N 503.654 -3.87359 5.85574 0
M  V30 5573 H 508.494 -0.470118 2.94268 0
M  V30 5574 H 506.031 -0.220434 1.45439 0
M  V30 5575 H 507.989 -2.95011 2.94999 0
M  V30 5576 H 506.619 -2.64513 1.85021 0
M  V30 5577 H 505.671 -1.03816 3.6596 0
M  V30 5578 H 506.983 -1.57104 4.73413 0
M  V30 5579 H 506.137 -3.92431 4.62691 0
M  V30 5580 H 504.876 -3.43827 3.45882 0
M  V30 5581 H 503.881 -1.88742 5.16388 0
M  V30 5582 H 505.106 -2.40131 6.35227 0
M  V30 5583 H 503.052 -4.21311 5.02825 0
M  V30 5584 H 502.969 -3.60068 6.64746 0
M  V30 5585 H 504.237 -4.70761 6.21292 0
M  V30 5586 N 508.466 -1.55915 -0.229846 0
M  V30 5587 C 509.882 -1.48721 -0.579166 0
M  V30 5588 C 510.082 -0.736976 -1.87539 0
M  V30 5589 O 509.138 -0.273258 -2.51017 0
M  V30 5590 C 510.451 -2.9323 -0.666082 0
M  V30 5591 C 511.999 -3.03701 -0.757267 0
M  V30 5592 C 512.474 -4.49552 -0.8756 0
M  V30 5593 N 513.965 -4.53561 -0.940035 0
M  V30 5594 C 514.7 -5.63683 -1.05116 0
M  V30 5595 N 514.196 -6.83576 -1.12675 0
M  V30 5596 N 515.989 -5.51516 -1.08565 0
M  V30 5597 H 508.14 -2.03123 0.620857 0
M  V30 5598 H 510.403 -0.922898 0.21671 0
M  V30 5599 H 510.109 -3.51032 0.21664 0
M  V30 5600 H 509.983 -3.44668 -1.53243 0
M  V30 5601 H 512.37 -2.45969 -1.63043 0
M  V30 5602 H 512.451 -2.55446 0.134583 0
M  V30 5603 H 512.095 -5.079 -0.00692351 0
M  V30 5604 H 512.025 -4.95506 -1.78274 0
M  V30 5605 H 514.516 -3.67215 -0.892269 0
M  V30 5606 H 514.829 -7.63251 -1.21109 0
M  V30 5607 H 513.174 -6.86303 -1.09603 0
M  V30 5608 H 516.365 -4.5678 -1.02319 0
M  V30 5609 H 516.538 -6.37372 -1.1688 0
M  V30 5610 N 509.944 0.496216 -1.49584 0
M  V30 5611 C 511.19 1.25189 -1.59548 0
M  V30 5612 C 511.523 1.9212 -0.283466 0
M  V30 5613 O 510.798 1.80947 0.713324 0
M  V30 5614 C 511.081 2.31516 -2.75812 0
M  V30 5615 C 510.934 1.69054 -4.16822 0
M  V30 5616 C 512.253 3.3304 -2.87702 0
M  V30 5617 H 509.372 0.45379 -0.580727 0
M  V30 5618 H 512.014 0.549327 -1.81886 0
M  V30 5619 H 510.164 2.91438 -2.56897 0
M  V30 5620 H 511.836 1.12923 -4.47265 0
M  V30 5621 H 510.079 0.994485 -4.22247 0
M  V30 5622 H 510.75 2.462 -4.94054 0
M  V30 5623 H 513.226 2.83114 -3.04936 0
M  V30 5624 H 512.102 4.04794 -3.7072 0
M  V30 5625 H 512.363 3.95655 -1.97255 0
M  V30 5626 O 511.461 1.48211 0.641547 0
M  V30 5627 H 512.152 1.44016 1.29535 0
M  V30 END ATOM
M  V30 BEGIN BOND
M  V30 END BOND
M  V30 END CTAB
M  END
$$$$
