drugbank_target|P17117 Oxygen-insensitive NADPH nitroreductase (DB00698; DB03247)
 OpenBabel12092119353D

  0  0  0     0  0            999 V3000
M  V30 BEGIN CTAB
M  V30 COUNTS 3779 3818 0 0 0
M  V30 BEGIN ATOM
M  V30 1 H -0.908 1.98254 -0.117106 0
M  V30 2 N 0 1.576 0 0
M  V30 3 C 0.933 2.03868 1.02534 0
M  V30 4 C 1.911 0.928543 1.3348 0
M  V30 5 O 3.095 1.19667 1.45644 0
M  V30 6 C 0.222 2.43627 2.35294 0
M  V30 7 C -0.732 3.65373 2.2001 0
M  V30 8 S 0.101 5.13292 1.52614 0
M  V30 9 C 1.257 5.56322 2.86805 0
M  V30 10 H 1.49 2.90518 0.631377 0
M  V30 11 H -0.977 1.52953 0.210867 0
M  V30 12 H 0.981 2.67203 3.11629 0
M  V30 13 H -0.358 1.57376 2.7183 0
M  V30 14 H -1.165 3.90944 3.18086 0
M  V30 15 H -1.563 3.418 1.51819 0
M  V30 16 H 0.729 5.58782 3.83104 0
M  V30 17 H 1.672 6.56266 2.65933 0
M  V30 18 H 2.08 4.83886 2.90714 0
M  V30 19 N 1.4781 -0.272755 1.55222 0
M  V30 20 C 2.7061 -1.02255 1.79865 0
M  V30 21 C 3.1211 -1.79924 0.572088 0
M  V30 22 O 2.4781 -1.76638 -0.458842 0
M  V30 23 C 2.5291 -1.98094 3.02392 0
M  V30 24 O 2.2501 -1.23572 4.20311 0
M  V30 25 C 3.7511 -2.84884 3.39641 0
M  V30 26 H 0.9711 -0.302057 0.599168 0
M  V30 27 H 3.5151 -0.303465 2.02236 0
M  V30 28 H 1.6701 -2.65465 2.82147 0
M  V30 29 H 2.0841 -1.88172 4.89583 0
M  V30 30 H 3.5581 -3.47927 4.28545 0
M  V30 31 H 4.0351 -3.54665 2.59055 0
M  V30 32 H 4.6411 -2.23003 3.62146 0
M  V30 33 N 2.9562 -1.48159 -0.537278 0
M  V30 34 C 4.3672 -1.49429 -1.11928 0
M  V30 35 C 4.7182 -0.26 -1.9447 0
M  V30 36 O 3.8432 0.633489 -2.0692 0
M  V30 37 C 4.4382 -2.70758 -2.03656 0
M  V30 38 C 2.9972 -2.74923 -2.57088 0
M  V30 39 C 2.1442 -2.42835 -1.3389 0
M  V30 40 H 5.0952 -1.55381 -0.322886 0
M  V30 41 H 5.1162 -2.48861 -2.87834 0
M  V30 42 H 4.6282 -3.60575 -1.43553 0
M  V30 43 H 2.7292 -1.89296 -3.20933 0
M  V30 44 H 2.8422 -3.76157 -2.9672 0
M  V30 45 H 1.2062 -1.93836 -1.65226 0
M  V30 46 H 1.9892 -3.34884 -0.755504 0
M  V30 47 N 4.4343 0.785586 -1.36625 0
M  V30 48 C 5.6623 1.57448 -1.3423 0
M  V30 49 C 6.0773 1.88649 0.0755653 0
M  V30 50 O 5.4343 1.50414 1.03354 0
M  V30 51 C 5.4853 2.89316 -2.16745 0
M  V30 52 O 5.2063 2.59459 -3.53005 0
M  V30 53 C 6.7073 3.83606 -2.22174 0
M  V30 54 H 3.9273 0.488226 -0.4603 0
M  V30 55 H 6.4713 0.974733 -1.79775 0
M  V30 56 H 4.6263 3.4575 -1.74745 0
M  V30 57 H 5.0403 3.43804 -3.96105 0
M  V30 58 H 6.5143 4.73181 -2.8426 0
M  V30 59 H 6.9913 4.21734 -1.22627 0
M  V30 60 H 7.5973 3.33104 -2.64427 0
M  V30 61 N 5.9124 1.20967 1.01018 0
M  V30 62 C 7.1614 1.01796 1.74128 0
M  V30 63 C 7.4744 -0.449691 1.90361 0
M  V30 64 O 8.6804 -0.76068 2.60626 0
M  V30 65 C 7.1364 1.7727 3.13215 0
M  V30 66 C 6.7444 3.28171 3.04972 0
M  V30 67 C 8.4884 1.66489 3.90489 0
M  V30 68 C 6.3954 3.96156 4.39107 0
M  V30 69 H 5.3254 0.377276 0.652824 0
M  V30 70 H 7.9764 1.44651 1.12909 0
M  V30 71 H 6.3584 1.27205 3.75013 0
M  V30 72 H 7.5324 3.85499 2.52443 0
M  V30 73 H 5.8474 3.39437 2.41188 0
M  V30 74 H 8.4444 2.14617 4.89738 0
M  V30 75 H 8.7874 0.6222 4.11624 0
M  V30 76 H 9.3204 2.14003 3.35332 0
M  V30 77 H 6.0594 5.00604 4.23174 0
M  V30 78 H 5.5794 3.43617 4.91617 0
M  V30 79 H 7.2584 4.00774 5.07926 0
M  V30 80 N 7.3905 -1.2043 1.01659 0
M  V30 81 C 8.3005 -2.2689 0.596484 0
M  V30 82 C 9.3165 -1.70107 -0.36599 0
M  V30 83 O 10.4925 -2.00117 -0.226942 0
M  V30 84 C 7.5575 -3.4665 -0.0586659 0
M  V30 85 C 6.6185 -4.18662 0.949751 0
M  V30 86 C 5.8515 -5.32705 0.32577 0
M  V30 87 O 6.0745 -5.63656 -0.874509 0
M  V30 88 O 5.0085 -5.92803 1.04249 0
M  V30 89 H 8.8345 -2.65041 1.4828 0
M  V30 90 H 6.4195 -1.27048 0.786082 0
M  V30 91 H 8.3015 -4.19256 -0.424564 0
M  V30 92 H 6.9765 -3.10375 -0.91918 0
M  V30 93 H 5.8835 -3.48229 1.36702 0
M  V30 94 H 7.2165 -4.58878 1.78023 0
M  V30 95 N 8.8686 -0.792821 -1.36206 0
M  V30 96 C 9.7986 -0.207853 -2.32573 0
M  V30 97 C 10.7796 0.659055 -1.56813 0
M  V30 98 O 11.9646 0.592176 -1.84951 0
M  V30 99 C 9.0946 0.655449 -3.41059 0
M  V30 100 C 8.0486 -0.111842 -4.27854 0
M  V30 101 C 7.3746 0.872274 -5.27537 0
M  V30 102 C 8.6746 -1.30299 -5.05786 0
M  V30 103 H 10.3686 -1.01294 -2.81744 0
M  V30 104 H 7.9146 -0.48854 -1.3546 0
M  V30 105 H 9.8676 1.07464 -4.07467 0
M  V30 106 H 8.5916 1.49328 -2.90463 0
M  V30 107 H 7.2506 -0.512053 -3.63006 0
M  V30 108 H 6.8986 1.70523 -4.73214 0
M  V30 109 H 6.5986 0.363291 -5.86476 0
M  V30 110 H 8.1226 1.28996 -5.96818 0
M  V30 111 H 9.5366 -0.959379 -5.65216 0
M  V30 112 H 7.9336 -1.7455 -5.74154 0
M  V30 113 H 9.0036 -2.09663 -4.37229 0
M  V30 114 N 10.3467 1.47872 -0.545128 0
M  V30 115 C 11.5957 2.01695 -0.0145033 0
M  V30 116 C 11.9087 1.42609 1.33873 0
M  V30 117 O 13.1147 1.88021 1.95858 0
M  V30 118 C 11.5707 3.59892 0.0245068 0
M  V30 119 C 11.1787 4.27966 -1.32475 0
M  V30 120 C 12.9227 4.21507 0.50316 0
M  V30 121 C 10.8297 5.78136 -1.2455 0
M  V30 122 H 9.7597 0.753998 -0.00165172 0
M  V30 123 H 12.4107 1.69985 -0.691175 0
M  V30 124 H 10.7927 3.88509 0.766575 0
M  V30 125 H 11.9667 4.11003 -2.08357 0
M  V30 126 H 10.2817 3.78286 -1.74036 0
M  V30 127 H 12.8787 5.31538 0.580656 0
M  V30 128 H 13.2217 3.87855 1.51243 0
M  V30 129 H 13.7547 3.97376 -0.183681 0
M  V30 130 H 10.4937 6.16388 -2.23039 0
M  V30 131 H 10.0137 5.97469 -0.528282 0
M  V30 132 H 11.6927 6.40099 -0.942488 0
M  V30 133 N 11.8248 0.280983 1.55075 0
M  V30 134 C 13.0648 -0.335234 2.01632 0
M  V30 135 C 13.4288 -1.5261 1.16508 0
M  V30 136 O 14.6298 -2.21235 1.52672 0
M  V30 137 C 12.9008 -0.702172 3.50434 0
M  V30 138 S 14.4598 -1.30409 4.18974 0
M  V30 139 H 11.2778 -0.103967 0.703358 0
M  V30 140 H 13.8798 0.404187 1.91276 0
M  V30 141 H 12.5838 0.17333 4.10034 0
M  V30 142 H 12.1148 -1.4729 3.64786 0
M  V30 143 H 14.1298 -2.59253 4.23087 0
M  V30 144 N 13.3029 -1.57598 0.00835791 0
M  V30 145 C 14.5509 -1.90551 -0.6734 0
M  V30 146 C 14.8719 -0.883301 -1.73847 0
M  V30 147 O 14.1419 0.0781442 -1.95744 0
M  V30 148 H 12.7219 -0.703312 -0.251717 0
M  V30 149 H 15.3839 -1.94833 0.0512592 0
M  V30 150 H 14.4799 -2.9056 -1.13935 0
M  V30 151 N 14.781 0.264519 -1.55364 0
M  V30 152 C 15.731 1.32966 -1.85214 0
M  V30 153 C 16.715 1.44306 -0.711653 0
M  V30 154 O 17.907 1.47844 -0.973192 0
M  V30 155 C 15.036 2.68839 -2.13495 0
M  V30 156 C 14.122 2.61575 -3.33825 0
M  V30 157 N 14.513 2.23933 -4.53528 0
M  V30 158 C 12.811 2.92621 -3.36584 0
M  V30 159 C 13.512 2.26868 -5.35636 0
M  V30 160 N 12.488 2.65677 -4.74254 0
M  V30 161 H 16.29 1.02884 -2.75304 0
M  V30 162 H 13.804 0.473157 -1.55354 0
M  V30 163 H 15.801 3.45685 -2.33039 0
M  V30 164 H 14.461 2.99802 -1.24694 0
M  V30 165 H 15.472 1.95769 -4.79474 0
M  V30 166 H 12.149 3.2824 -2.58002 0
M  V30 167 H 13.539 2.00254 -6.41364 0
M  V30 168 N 16.2591 1.48442 0.529413 0
M  V30 169 C 17.6751 1.34575 0.858004 0
M  V30 170 C 17.8751 0.3572 1.98309 0
M  V30 171 O 16.9311 -0.221379 2.51528 0
M  V30 172 C 18.2441 2.74617 1.22499 0
M  V30 173 C 19.7921 2.83109 1.33484 0
M  V30 174 C 20.2671 4.23854 1.73526 0
M  V30 175 N 21.7581 4.2653 1.80628 0
M  V30 176 C 22.4931 5.32372 2.12997 0
M  V30 177 N 21.9891 6.48491 2.43786 0
M  V30 178 N 23.7821 5.19766 2.14008 0
M  V30 179 H 15.9331 2.1133 -0.212925 0
M  V30 180 H 18.1961 0.947439 -0.0326199 0
M  V30 181 H 17.9021 3.4852 0.471905 0
M  V30 182 H 17.7761 3.08177 2.17501 0
M  V30 183 H 20.1631 2.09462 2.0787 0
M  V30 184 H 20.2441 2.53168 0.366027 0
M  V30 185 H 19.8881 4.98018 0.997013 0
M  V30 186 H 19.8181 4.5124 2.71459 0
M  V30 187 H 22.3091 3.42772 1.59108 0
M  V30 188 H 22.6221 7.24993 2.67592 0
M  V30 189 H 20.9671 6.51765 2.41304 0
M  V30 190 H 24.1581 4.28066 1.89412 0
M  V30 191 H 24.3311 6.02354 2.38902 0
M  V30 192 N 17.7372 -0.778329 1.37039 0
M  V30 193 C 18.9622 -1.57248 1.35233 0
M  V30 194 C 19.3872 -1.87999 -0.0615568 0
M  V30 195 O 18.7452 -1.48734 -1.03672 0
M  V30 196 C 18.7932 -2.86353 2.19167 0
M  V30 197 O 17.8972 -3.80442 1.59178 0
M  V30 198 H 17.2382 -0.476569 0.462362 0
M  V30 199 H 19.7682 -0.963853 1.80474 0
M  V30 200 H 19.7782 -3.35519 2.32145 0
M  V30 201 H 18.4532 -2.63299 3.21942 0
M  V30 202 H 17.0302 -3.39067 1.55203 0
M  V30 203 N 19.2153 -1.21501 -1.00376 0
M  V30 204 C 20.4643 -1.02718 -1.73586 0
M  V30 205 C 20.7773 0.439589 -1.90596 0
M  V30 206 O 21.9833 0.746848 -2.61026 0
M  V30 207 C 20.4393 -1.78929 -3.1227 0
M  V30 208 C 20.0473 -3.29783 -3.03228 0
M  V30 209 C 21.7913 -1.68557 -3.89601 0
M  V30 210 C 19.6983 -3.98479 -4.36999 0
M  V30 211 H 18.6283 -0.380733 -0.650814 0
M  V30 212 H 21.2793 -1.45248 -1.1214 0
M  V30 213 H 19.6613 -1.29192 -3.74333 0
M  V30 214 H 20.8353 -3.86832 -2.50395 0
M  V30 215 H 19.1503 -3.40711 -2.39385 0
M  V30 216 H 21.7473 -2.17211 -4.88593 0
M  V30 217 H 22.0903 -0.644021 -4.11288 0
M  V30 218 H 22.6233 -2.15778 -3.34193 0
M  V30 219 H 19.3623 -5.02841 -4.20513 0
M  V30 220 H 18.8823 -3.46219 -4.89788 0
M  V30 221 H 20.5613 -4.03462 -5.05794 0
M  V30 222 N 20.6934 1.19889 -1.02296 0
M  V30 223 C 22.1094 1.41462 -0.738954 0
M  V30 224 C 22.3094 1.89721 0.678846 0
M  V30 225 O 21.3654 2.07016 1.4457 0
M  V30 226 C 22.6784 2.43083 -1.77005 0
M  V30 227 C 24.2264 2.5684 -1.78892 0
M  V30 228 C 24.7014 3.61709 -2.80945 0
M  V30 229 N 26.1924 3.69199 -2.79725 0
M  V30 230 C 26.9274 4.50019 -3.55345 0
M  V30 231 N 26.4234 5.34592 -4.40662 0
M  V30 232 N 28.2164 4.44612 -3.43914 0
M  V30 233 H 20.3674 0.868827 -1.93817 0
M  V30 234 H 22.6304 0.44399 -0.837602 0
M  V30 235 H 22.3364 2.14636 -2.78612 0
M  V30 236 H 22.2104 3.4217 -1.58744 0
M  V30 237 H 24.5974 2.84614 -0.779674 0
M  V30 238 H 24.6784 1.57927 -2.01228 0
M  V30 239 H 24.3224 3.34678 -3.82038 0
M  V30 240 H 24.2524 4.60259 -2.5587 0
M  V30 241 H 26.7434 3.08794 -2.17842 0
M  V30 242 H 27.0564 5.93363 -4.95116 0
M  V30 243 H 25.4014 5.34073 -4.44737 0
M  V30 244 H 28.5924 3.7758 -2.76679 0
M  V30 245 H 28.7654 5.0736 -4.031 0
M  V30 246 N 22.1715 0.800033 1.35784 0
M  V30 247 C 23.1215 0.178654 2.27299 0
M  V30 248 C 24.1055 -0.643667 1.47464 0
M  V30 249 O 25.2975 -0.502 1.69732 0
M  V30 250 C 22.4265 -0.677194 3.36555 0
M  V30 251 C 21.5125 0.154497 4.23818 0
M  V30 252 N 21.9035 1.21427 4.91008 0
M  V30 253 C 20.2015 -0.0649462 4.45953 0
M  V30 254 C 20.9025 1.72147 5.55644 0
M  V30 255 N 19.8785 1.02897 5.33773 0
M  V30 256 H 23.6805 0.989637 2.76737 0
M  V30 257 H 21.1945 0.64054 1.49234 0
M  V30 258 H 23.1915 -1.13835 4.01058 0
M  V30 259 H 21.8515 -1.4866 2.8867 0
M  V30 260 H 22.8625 1.59684 4.92668 0
M  V30 261 H 19.5395 -0.844016 4.0888 0
M  V30 262 H 20.9295 2.60683 6.19269 0
M  V30 263 N 23.6496 -1.47581 0.552962 0
M  V30 264 C 24.8966 -2.02482 0.0273243 0
M  V30 265 C 25.2246 -1.42776 -1.32081 0
M  V30 266 O 24.4796 -0.571393 -1.87173 0
M  V30 267 C 24.7786 -3.57199 -0.119728 0
M  V30 268 C 24.4446 -4.35804 1.15697 0
M  V30 269 C 23.1066 -4.57 1.50681 0
M  V30 270 C 25.4586 -4.81167 2.00319 0
M  V30 271 C 22.7866 -5.20807 2.70142 0
M  V30 272 C 25.1386 -5.46293 3.18978 0
M  V30 273 C 23.8026 -5.65722 3.54281 0
M  V30 274 H 23.0726 -0.740933 0.00999866 0
M  V30 275 H 25.7196 -1.77302 0.72362 0
M  V30 276 H 24.0246 -3.81348 -0.89896 0
M  V30 277 H 25.7216 -3.97324 -0.541718 0
M  V30 278 H 22.3116 -4.19582 0.874561 0
M  V30 279 H 26.4956 -4.64574 1.74599 0
M  V30 280 H 21.7516 -5.34045 2.97668 0
M  V30 281 H 25.9256 -5.80407 3.84838 0
M  V30 282 H 23.5526 -6.14936 4.46942 0
M  V30 283 N 25.1277 -0.289203 -1.54924 0
M  V30 284 C 26.3557 0.326463 -2.04308 0
M  V30 285 C 26.7707 1.48413 -1.16701 0
M  V30 286 O 26.1277 1.81507 -0.190087 0
M  V30 287 C 26.1787 0.794014 -3.52672 0
M  V30 288 O 25.8997 -0.317564 -4.36948 0
M  V30 289 C 27.4007 1.47605 -4.18004 0
M  V30 290 H 24.6207 0.0726272 -0.667058 0
M  V30 291 H 27.1647 -0.425401 -2.00026 0
M  V30 292 H 25.3197 1.49593 -3.57352 0
M  V30 293 H 25.7337 0.0443186 -5.24481 0
M  V30 294 H 27.2077 1.75447 -5.23376 0
M  V30 295 H 27.6847 2.41224 -3.67025 0
M  V30 296 H 28.2907 0.81762 -4.17367 0
M  V30 297 N 26.6058 1.57591 -0.0167156 0
M  V30 298 C 27.8828 1.82547 0.702564 0
M  V30 299 C 28.2628 0.898018 1.91047 0
M  V30 300 O 27.6108 -0.0493456 2.28447 0
M  V30 301 C 27.8208 3.31459 1.09251 0
M  V30 302 C 29.1688 3.97622 1.48937 0
M  V30 303 O 30.1928 3.35881 1.18584 0
M  V30 304 O 29.0518 5.06415 2.05442 0
M  V30 305 H 26.1458 0.752268 0.343544 0
M  V30 306 H 28.6918 1.69644 -0.0434495 0
M  V30 307 H 27.4638 3.9061 0.23227 0
M  V30 308 H 27.0868 3.49422 1.89709 0
M  V30 309 N 28.0839 -0.256276 1.55502 0
M  V30 310 C 28.9939 -1.33882 1.92647 0
M  V30 311 C 30.0099 -1.53159 0.825727 0
M  V30 312 O 31.1859 -1.66963 1.12629 0
M  V30 313 C 28.2509 -2.6751 2.20543 0
M  V30 314 C 27.3119 -2.56836 3.43997 0
M  V30 315 C 26.5449 -3.84092 3.70553 0
M  V30 316 O 26.7679 -4.85545 2.99336 0
M  V30 317 O 25.7019 -3.83288 4.64084 0
M  V30 318 H 29.5279 -1.05374 2.84833 0
M  V30 319 H 27.1129 -0.456237 1.42263 0
M  V30 320 H 28.9949 -3.46492 2.39835 0
M  V30 321 H 27.6699 -2.9577 1.31536 0
M  V30 322 H 26.5769 -1.76172 3.30021 0
M  V30 323 H 27.9099 -2.33523 4.33275 0
M  V30 324 N 29.562 -1.4872 -0.521534 0
M  V30 325 C 30.973 -1.50607 -1.10337 0
M  V30 326 C 31.324 -0.280612 -1.94183 0
M  V30 327 O 30.449 0.611507 -2.0758 0
M  V30 328 C 31.044 -2.72903 -2.00772 0
M  V30 329 C 29.603 -2.77634 -2.54158 0
M  V30 330 C 28.75 -2.44241 -1.31307 0
M  V30 331 H 31.701 -1.55714 -0.306388 0
M  V30 332 H 31.722 -2.519 -2.85178 0
M  V30 333 H 31.234 -3.62077 -1.39721 0
M  V30 334 H 29.335 -1.92689 -3.18907 0
M  V30 335 H 29.448 -3.79283 -2.92714 0
M  V30 336 H 27.812 -1.95577 -1.63161 0
M  V30 337 H 28.595 -3.35666 -0.719943 0
M  V30 338 N 31.0401 0.771051 -1.3745 0
M  V30 339 C 32.2891 1.52491 -1.3202 0
M  V30 340 C 32.6021 1.9538 0.0927347 0
M  V30 341 O 33.8081 2.70159 0.269503 0
M  V30 342 C 32.2641 2.75366 -2.31736 0
M  V30 343 C 31.8721 2.39573 -3.78562 0
M  V30 344 C 33.6161 3.53307 -2.35318 0
M  V30 345 C 31.5231 3.58954 -4.70007 0
M  V30 346 H 30.4531 0.572506 -0.490666 0
M  V30 347 H 33.1041 0.844474 -1.62914 0
M  V30 348 H 31.4861 3.45303 -1.93861 0
M  V30 349 H 32.6601 1.77415 -4.25277 0
M  V30 350 H 30.9751 1.74805 -3.77932 0
M  V30 351 H 33.5721 4.42039 -3.00842 0
M  V30 352 H 33.9151 3.93217 -1.36698 0
M  V30 353 H 34.4481 2.90367 -2.71904 0
M  V30 354 H 31.1871 3.24125 -5.69757 0
M  V30 355 H 30.7071 4.20214 -4.27996 0
M  V30 356 H 32.3861 4.25758 -4.87175 0
M  V30 357 N 32.5182 1.22032 0.997298 0
M  V30 358 C 33.7432 1.06921 1.77715 0
M  V30 359 C 34.1682 -0.376226 1.84299 0
M  V30 360 O 33.5262 -1.27165 1.29223 0
M  V30 361 C 33.5742 1.67996 3.19076 0
M  V30 362 O 32.6782 0.930653 4.01762 0
M  V30 363 H 32.0192 0.375814 0.547412 0
M  V30 364 H 34.5492 1.61737 1.25309 0
M  V30 365 H 34.5592 1.72538 3.69723 0
M  V30 366 H 33.2342 2.73182 3.13599 0
M  V30 367 H 31.8112 0.960917 3.60307 0
M  V30 368 N 33.9963 -1.19345 1.0293 0
M  V30 369 C 34.9063 -2.26245 0.620515 0
M  V30 370 C 35.9223 -1.70486 -0.347928 0
M  V30 371 O 37.0983 -2.00347 -0.205704 0
M  V30 372 C 34.1633 -3.46693 -0.0218957 0
M  V30 373 C 33.2243 -4.17632 0.994102 0
M  V30 374 C 32.4573 -5.32329 0.382253 0
M  V30 375 O 32.6803 -5.64552 -0.814676 0
M  V30 376 O 31.6143 -5.91664 1.10531 0
M  V30 377 H 35.4403 -2.63453 1.51083 0
M  V30 378 H 33.0253 -1.26207 0.799513 0
M  V30 379 H 34.9073 -4.19683 -0.380072 0
M  V30 380 H 33.5823 -3.11333 -0.886209 0
M  V30 381 H 32.4893 -3.4676 1.40387 0
M  V30 382 H 33.8223 -4.56964 1.8288 0
M  V30 383 N 35.4744 -0.807222 -1.35358 0
M  V30 384 C 36.4374 -0.223665 -2.28106 0
M  V30 385 C 37.4374 0.589354 -1.4961 0
M  V30 386 O 38.6274 0.407745 -1.69361 0
M  V30 387 C 35.7594 0.688149 -3.33882 0
M  V30 388 H 36.9524 -1.04169 -2.81227 0
M  V30 389 H 34.5054 -0.577921 -1.45223 0
M  V30 390 H 35.2404 1.52984 -2.85948 0
M  V30 391 H 35.0254 0.10687 -3.91954 0
M  V30 392 H 36.5154 1.09075 -4.03104 0
M  V30 393 N 36.9525 1.47285 -0.560781 0
M  V30 394 C 37.8845 2.28118 0.222438 0
M  V30 395 C 38.8975 1.37219 0.876056 0
M  V30 396 O 40.0865 1.62011 0.749307 0
M  V30 397 C 37.1865 3.1159 1.33285 0
M  V30 398 C 36.3595 4.30473 0.77534 0
M  V30 399 C 35.4185 4.95513 1.77069 0
M  V30 400 O 34.4445 5.53792 1.31539 0
M  V30 401 N 35.6465 4.90531 3.10418 0
M  V30 402 H 38.4115 2.95976 -0.470958 0
M  V30 403 H 35.9725 1.56955 -0.39709 0
M  V30 404 H 37.9645 3.51967 1.99752 0
M  V30 405 H 36.5345 2.45951 1.92943 0
M  V30 406 H 35.7545 3.94144 -0.0662113 0
M  V30 407 H 37.0425 5.07362 0.382272 0
M  V30 408 H 36.4405 4.44389 3.5005 0
M  V30 409 H 34.9975 5.34917 3.72434 0
M  V30 410 N 38.4306 0.297415 1.54768 0
M  V30 411 C 39.8466 -0.0560823 1.59501 0
M  V30 412 C 40.0466 -1.52725 1.31444 0
M  V30 413 O 39.1026 -2.27947 1.08611 0
M  V30 414 C 40.4156 0.338631 2.98787 0
M  V30 415 C 41.9636 0.287097 3.11681 0
M  V30 416 C 42.4386 0.656579 4.53269 0
M  V30 417 N 43.9296 0.608977 4.59179 0
M  V30 418 C 44.6646 0.867385 5.66802 0
M  V30 419 N 44.1606 1.19157 6.82476 0
M  V30 420 N 45.9536 0.794687 5.56454 0
M  V30 421 H 38.1046 1.25624 1.71267 0
M  V30 422 H 40.3676 0.509057 0.799728 0
M  V30 423 H 40.0736 1.36263 3.2423 0
M  V30 424 H 39.9476 -0.309508 3.75928 0
M  V30 425 H 42.3346 -0.727649 2.85988 0
M  V30 426 H 42.4156 0.969809 2.36703 0
M  V30 427 H 42.0596 1.66912 4.7969 0
M  V30 428 H 41.9896 -0.0481649 5.26578 0
M  V30 429 H 44.4806 0.369198 3.76092 0
M  V30 430 H 44.7936 1.37482 7.60473 0
M  V30 431 H 43.1386 1.22958 6.84037 0
M  V30 432 H 46.3296 0.541098 4.64962 0
M  V30 433 H 46.5026 0.999445 6.40246 0
M  V30 434 N 39.9087 -1.5758 0.0250728 0
M  V30 435 C 40.8187 -2.1343 -0.973905 0
M  V30 436 C 41.8347 -1.08556 -1.35984 0
M  V30 437 O 43.0107 -1.40592 -1.44207 0
M  V30 438 C 40.0757 -2.64703 -2.23904 0
M  V30 439 C 39.1367 -3.84276 -1.91391 0
M  V30 440 C 38.3697 -4.33095 -3.11873 0
M  V30 441 O 38.5927 -3.81107 -4.24398 0
M  V30 442 O 37.5267 -5.24984 -2.94406 0
M  V30 443 H 41.3527 -2.99057 -0.529036 0
M  V30 444 H 38.9377 -1.48118 -0.195288 0
M  V30 445 H 40.8197 -2.97769 -2.98181 0
M  V30 446 H 39.4947 -1.82161 -2.6758 0
M  V30 447 H 38.4017 -3.56143 -1.14511 0
M  V30 448 H 39.7347 -4.67968 -1.52534 0
M  V30 449 N 41.3868 0.248026 -1.55636 0
M  V30 450 C 42.3498 1.29044 -1.89421 0
M  V30 451 C 43.3498 1.41134 -0.770581 0
M  V30 452 O 44.5398 1.39854 -1.03858 0
M  V30 453 C 41.6718 2.66831 -2.12165 0
M  V30 454 H 42.8648 1.00305 -2.82629 0
M  V30 455 H 40.4178 0.487265 -1.48511 0
M  V30 456 H 41.1528 3.00711 -1.21422 0
M  V30 457 H 40.9378 2.59438 -2.93997 0
M  V30 458 H 42.4278 3.42103 -2.3949 0
M  V30 459 N 42.8649 1.48995 0.513639 0
M  V30 460 C 44.1139 1.57093 1.2651 0
M  V30 461 C 44.4269 0.257091 1.93903 0
M  V30 462 O 45.6329 0.216478 2.70636 0
M  V30 463 C 44.0889 2.77118 2.29638 0
M  V30 464 C 43.6969 4.15209 1.68241 0
M  V30 465 C 45.4409 2.94538 3.05692 0
M  V30 466 C 43.3479 5.26474 2.69406 0
M  V30 467 H 42.2779 0.584876 0.475854 0
M  V30 468 H 44.9289 1.7536 0.540487 0
M  V30 469 H 43.3109 2.52319 3.05207 0
M  V30 470 H 44.4849 4.50094 0.987505 0
M  V30 471 H 42.7999 4.03042 1.04623 0
M  V30 472 H 45.3969 3.74832 3.8132 0
M  V30 473 H 45.7399 2.04614 3.62545 0
M  V30 474 H 46.2729 3.19316 2.37238 0
M  V30 475 H 43.0119 6.18417 2.17351 0
M  V30 476 H 42.5319 4.96058 3.37175 0
M  V30 477 H 44.2109 5.55277 3.32078 0
M  V30 478 N 44.343 -0.763751 1.37857 0
M  V30 479 C 45.592 -1.51789 1.32827 0
M  V30 480 C 45.905 -1.95426 -0.0823719 0
M  V30 481 O 47.111 -2.70298 -0.255172 0
M  V30 482 C 45.567 -2.74133 2.33193 0
M  V30 483 C 45.175 -2.37562 3.79827 0
M  V30 484 C 46.919 -3.52054 2.37188 0
M  V30 485 C 44.826 -3.56456 4.71904 0
M  V30 486 H 43.756 -0.569896 0.493695 0
M  V30 487 H 46.407 -0.835822 1.63359 0
M  V30 488 H 44.789 -3.4427 1.9569 0
M  V30 489 H 45.963 -1.75157 4.26212 0
M  V30 490 H 44.278 -1.72798 3.78853 0
M  V30 491 H 46.875 -4.40437 3.03182 0
M  V30 492 H 47.218 -3.92486 1.38782 0
M  V30 493 H 47.751 -2.88921 2.7344 0
M  V30 494 H 44.49 -3.21099 5.71468 0
M  V30 495 H 44.01 -4.17938 4.30218 0
M  V30 496 H 45.689 -4.23168 4.89426 0
M  V30 497 N 45.8211 -1.22559 -0.990812 0
M  V30 498 C 46.7691 -0.994798 -2.10253 0
M  V30 499 C 47.7631 0.0627798 -1.69284 0
M  V30 500 O 48.9691 -0.0898392 -1.79776 0
M  V30 501 H 45.3441 -0.304527 -0.687581 0
M  V30 502 H 47.3151 -1.93812 -2.26891 0
M  V30 503 C 46.0641 -0.591439 -3.42633 0
M  V30 504 H 45.3871 -1.3969 -3.74602 0
M  V30 505 H 46.8271 -0.469385 -4.21394 0
M  V30 506 C 45.2861 0.699232 -3.29564 0
M  V30 507 O 45.8161 1.75112 -3.61523 0
M  V30 508 N 44.0221 0.671182 -2.82743 0
M  V30 509 H 43.5691 -0.185136 -2.56934 0
M  V30 510 H 43.5271 1.53502 -2.7438 0
M  V30 511 N 47.2992 1.18797 -1.03562 0
M  V30 512 C 48.5242 1.9314 -0.755764 0
M  V30 513 C 48.9492 1.7537 0.68022 0
M  V30 514 O 48.3072 1.06046 1.47051 0
M  V30 515 C 48.3552 3.42747 -1.12058 0
M  V30 516 O 47.4592 4.11683 -0.243124 0
M  V30 517 H 46.8002 0.602724 -0.278604 0
M  V30 518 H 49.3302 1.50678 -1.3841 0
M  V30 519 H 49.3402 3.93437 -1.08035 0
M  V30 520 H 48.0152 3.55002 -2.16672 0
M  V30 521 H 46.5922 3.71323 -0.342539 0
M  V30 522 N 48.7773 0.814389 1.34928 0
M  V30 523 C 49.7403 0.235759 2.27984 0
M  V30 524 C 50.7403 -0.581412 1.49921 0
M  V30 525 O 51.9303 -0.398758 1.69575 0
M  V30 526 C 49.0623 -0.670433 3.34242 0
M  V30 527 H 50.2553 1.05659 2.80671 0
M  V30 528 H 47.8083 0.585614 1.44915 0
M  V30 529 H 48.5433 -1.51466 2.86755 0
M  V30 530 H 48.3283 -0.0860822 3.92005 0
M  V30 531 H 49.8183 -1.06935 4.03676 0
M  V30 532 N 50.2554 -1.46986 0.568584 0
M  V30 533 C 51.6714 -1.57946 0.229189 0
M  V30 534 C 51.8714 -1.56567 -1.26843 0
M  V30 535 O 50.9274 -1.47511 -2.04931 0
M  V30 536 C 52.2404 -2.87963 0.865909 0
M  V30 537 C 53.7884 -3.01568 0.838188 0
M  V30 538 C 54.2634 -4.34301 1.45419 0
M  V30 539 N 55.7544 -4.40965 1.41788 0
M  V30 540 C 56.4894 -5.42256 1.86403 0
M  V30 541 N 55.9854 -6.50297 2.38926 0
M  V30 542 N 57.7784 -5.3337 1.77405 0
M  V30 543 H 49.9294 -1.46126 1.54146 0
M  V30 544 H 52.1924 -0.696156 0.643484 0
M  V30 545 H 51.8984 -2.94742 1.91886 0
M  V30 546 H 51.7724 -3.75423 0.365687 0
M  V30 547 H 54.1594 -2.94379 -0.206106 0
M  V30 548 H 54.2404 -2.1562 1.37629 0
M  V30 549 H 53.8844 -4.42247 2.49761 0
M  V30 550 H 53.8144 -5.19 0.891435 0
M  V30 551 H 56.3054 -3.63484 1.03381 0
M  V30 552 H 56.6184 -7.23777 2.70863 0
M  V30 553 H 54.9634 -6.51155 2.42944 0
M  V30 554 H 58.1544 -4.47865 1.3614 0
M  V30 555 H 58.3274 -6.12169 2.12492 0
M  V30 556 N 51.7335 -0.305618 -1.54608 0
M  V30 557 C 52.6965 0.555591 -2.22364 0
M  V30 558 C 53.6965 1.05768 -1.21119 0
M  V30 559 O 54.8865 0.952972 -1.45822 0
M  V30 560 C 52.0185 1.76974 -2.91364 0
M  V30 561 H 53.2115 -0.0364572 -2.99878 0
M  V30 562 H 50.7645 -0.0565007 -1.56198 0
M  V30 563 H 51.4995 2.40151 -2.17941 0
M  V30 564 H 51.2845 1.41732 -3.65588 0
M  V30 565 H 52.7745 2.38148 -3.43038 0
M  V30 566 N 53.2116 1.57565 -0.0334293 0
M  V30 567 C 54.4396 1.9628 0.654347 0
M  V30 568 C 54.8546 0.910138 1.65414 0
M  V30 569 O 54.2116 -0.107595 1.82183 0
M  V30 570 C 54.2626 3.35067 1.35693 0
M  V30 571 O 53.9836 4.36296 0.397191 0
M  V30 572 C 55.4846 3.88439 2.13613 0
M  V30 573 H 52.7046 0.646369 0.180132 0
M  V30 574 H 55.2486 2.04282 -0.0944721 0
M  V30 575 H 53.4036 3.2827 2.05712 0
M  V30 576 H 53.8176 5.1678 0.896597 0
M  V30 577 H 55.2916 4.8788 2.58219 0
M  V30 578 H 55.7686 3.22914 2.97696 0
M  V30 579 H 56.3746 3.98516 1.48543 0
M  V30 580 N 54.6897 -0.239769 1.55765 0
M  V30 581 C 55.9147 -0.988373 1.82335 0
M  V30 582 C 56.3397 -1.77886 0.611421 0
M  V30 583 O 55.6977 -1.75889 -0.439639 0
M  V30 584 C 55.7457 -1.89627 3.06715 0
M  V30 585 O 54.8497 -2.98904 2.84131 0
M  V30 586 H 54.1907 -0.280858 0.601677 0
M  V30 587 H 56.7207 -0.258597 2.02959 0
M  V30 588 H 56.7307 -2.30957 3.36338 0
M  V30 589 H 55.4057 -1.31511 3.9456 0
M  V30 590 H 53.9827 -2.61651 2.65694 0
M  V30 591 N 56.1678 -1.49265 -0.50573 0
M  V30 592 C 57.3928 -1.62478 -1.28902 0
M  V30 593 C 57.8178 -0.294332 -1.85783 0
M  V30 594 O 57.1758 0.737412 -1.65626 0
M  V30 595 C 57.2238 -2.69268 -2.39848 0
M  V30 596 O 56.3278 -2.28113 -3.43567 0
M  V30 597 H 55.6688 -0.54399 -0.380751 0
M  V30 598 H 58.1988 -1.95421 -0.605952 0
M  V30 599 H 58.2088 -2.91291 -2.85681 0
M  V30 600 H 56.8838 -3.65846 -1.97812 0
M  V30 601 H 55.4608 -2.16401 -3.03685 0
M  V30 602 N 57.6459 0.756429 -1.3826 0
M  V30 603 C 58.8709 1.55077 -1.37717 0
M  V30 604 C 59.2959 1.88073 0.03164 0
M  V30 605 O 58.6539 1.50364 1.01293 0
M  V30 606 C 58.7019 2.8283 -2.23695 0
M  V30 607 O 57.8059 3.77862 -1.6521 0
M  V30 608 H 57.1469 0.469152 -0.469885 0
M  V30 609 H 59.6769 0.935019 -1.81985 0
M  V30 610 H 59.6869 3.31783 -2.37453 0
M  V30 611 H 58.3619 2.58144 -3.2609 0
M  V30 612 H 56.9389 3.36555 -1.60578 0
M  V30 613 N 59.124 1.23083 0.984299 0
M  V30 614 C 60.349 1.088 1.76571 0
M  V30 615 C 60.774 -0.356657 1.84688 0
M  V30 616 O 60.132 -1.25788 1.30565 0
M  V30 617 C 60.18 1.71371 3.17277 0
M  V30 618 O 59.284 0.973213 4.00752 0
M  V30 619 H 58.625 0.381599 0.543395 0
M  V30 620 H 61.155 1.63057 1.23587 0
M  V30 621 H 61.165 1.76449 3.67872 0
M  V30 622 H 59.84 2.76493 3.10684 0
M  V30 623 H 58.417 0.999078 3.59267 0
M  V30 624 N 60.6021 -1.18246 1.0419 0
M  V30 625 C 61.8491 -1.88257 0.746017 0
M  V30 626 C 62.1771 -1.80429 -0.726331 0
M  V30 627 O 61.4321 -1.2 -1.54591 0
M  V30 628 C 61.7311 -3.38082 1.15911 0
M  V30 629 C 61.3971 -3.66114 2.63195 0
M  V30 630 C 60.0591 -3.73474 3.03432 0
M  V30 631 C 62.4111 -3.78398 3.5842 0
M  V30 632 C 59.7391 -3.90599 4.37778 0
M  V30 633 C 62.0911 -3.97039 4.92487 0
M  V30 634 C 60.7551 -4.02635 5.32392 0
M  V30 635 H 60.0251 -0.688883 0.272987 0
M  V30 636 H 62.6721 -1.3995 1.30715 0
M  V30 637 H 60.9771 -3.88377 0.516806 0
M  V30 638 H 62.6741 -3.90596 0.907516 0
M  V30 639 H 59.2641 -3.61003 2.3103 0
M  V30 640 H 63.4481 -3.72042 3.28479 0
M  V30 641 H 58.7041 -3.93175 4.68213 0
M  V30 642 H 62.8781 -4.05486 5.66175 0
M  V30 643 H 60.5051 -4.15657 6.36501 0
M  V30 644 N 62.0802 -0.821533 -1.34494 0
M  V30 645 C 63.0102 -0.257138 -2.3208 0
M  V30 646 C 63.9912 0.625645 -1.58176 0
M  V30 647 O 65.1762 0.552811 -1.86166 0
M  V30 648 C 62.3062 0.582958 -3.42372 0
M  V30 649 C 61.2602 -0.202571 -4.2752 0
M  V30 650 C 60.5862 0.760179 -5.29269 0
M  V30 651 C 61.8862 -1.40998 -5.02908 0
M  V30 652 H 63.5802 -1.07247 -2.79532 0
M  V30 653 H 61.1262 -0.517163 -1.34393 0
M  V30 654 H 63.0792 0.987972 -4.09655 0
M  V30 655 H 61.8032 1.43133 -2.93565 0
M  V30 656 H 60.4622 -0.588936 -3.61838 0
M  V30 657 H 60.1102 1.60447 -4.76724 0
M  V30 658 H 59.8102 0.238809 -5.87115 0
M  V30 659 H 61.3342 1.16308 -5.9942 0
M  V30 660 H 62.7482 -1.07905 -5.63054 0
M  V30 661 H 61.1452 -1.86689 -5.70322 0
M  V30 662 H 62.2152 -2.1889 -4.32684 0
M  V30 663 N 63.5583 1.46682 -0.576371 0
M  V30 664 C 64.4903 2.28341 0.198231 0
M  V30 665 C 65.5033 1.38141 0.861453 0
M  V30 666 O 66.6923 1.62797 0.732082 0
M  V30 667 C 63.7923 3.12986 1.29972 0
M  V30 668 C 62.9653 4.31271 0.729639 0
M  V30 669 C 62.0243 4.97363 1.71803 0
M  V30 670 O 61.0503 5.55156 1.25658 0
M  V30 671 N 62.2523 4.93796 3.05198 0
M  V30 672 H 65.0173 2.9546 -0.502324 0
M  V30 673 H 62.5783 1.56525 -0.413715 0
M  V30 674 H 64.5703 3.54066 1.96008 0
M  V30 675 H 63.1403 2.47984 1.90323 0
M  V30 676 H 62.3603 3.94052 -0.108012 0
M  V30 677 H 63.6483 5.07739 0.328438 0
M  V30 678 H 63.0463 4.48077 3.45317 0
M  V30 679 H 61.6033 5.38837 3.6674 0
M  V30 680 N 65.0364 0.313813 1.54444 0
M  V30 681 C 66.2764 -0.292389 2.02298 0
M  V30 682 C 66.6404 -1.50105 1.19719 0
M  V30 683 O 67.8414 -2.17947 1.5733 0
M  V30 684 C 66.1124 -0.627682 3.51845 0
M  V30 685 S 67.6714 -1.21493 4.21646 0
M  V30 686 H 64.4894 -0.0890247 0.705405 0
M  V30 687 H 67.0914 0.444668 1.90376 0
M  V30 688 H 65.7954 0.260265 4.09574 0
M  V30 689 H 65.3264 -1.39519 3.67829 0
M  V30 690 H 67.3414 -2.5022 4.28491 0
M  V30 691 N 66.5145 -1.57545 0.0417849 0
M  V30 692 C 67.7395 -1.97035 -0.647455 0
M  V30 693 C 68.1645 -0.918775 -1.64135 0
M  V30 694 O 67.5225 0.119006 -1.80909 0
M  V30 695 C 67.5705 -3.35609 -1.31905 0
M  V30 696 O 66.6745 -3.3287 -2.43457 0
M  V30 697 H 66.0155 -0.64211 -0.169086 0
M  V30 698 H 68.5455 -2.04318 0.107399 0
M  V30 699 H 68.5555 -3.72126 -1.67291 0
M  V30 700 H 67.2305 -4.11685 -0.590586 0
M  V30 701 H 65.8075 -3.08087 -2.10088 0
M  V30 702 N 67.9926 0.231505 -1.5589 0
M  V30 703 C 69.2176 0.978689 -1.82856 0
M  V30 704 C 69.6426 1.77559 -0.620846 0
M  V30 705 O 69.0006 1.76119 0.430305 0
M  V30 706 C 69.0486 1.87997 -3.07716 0
M  V30 707 O 68.1526 2.97393 -2.85712 0
M  V30 708 H 67.4936 0.277663 -0.603158 0
M  V30 709 H 70.0236 0.24783 -2.03093 0
M  V30 710 H 70.0336 2.2917 -3.37558 0
M  V30 711 H 68.7086 1.29417 -3.95252 0
M  V30 712 H 67.2856 2.60238 -2.67078 0
M  V30 713 N 69.4707 1.49531 0.497807 0
M  V30 714 C 70.7197 1.58426 1.24837 0
M  V30 715 C 71.0327 0.277643 1.93619 0
M  V30 716 O 72.2387 0.24517 2.70391 0
M  V30 717 C 70.6947 2.79538 2.26686 0
M  V30 718 C 70.3027 4.16971 1.63828 0
M  V30 719 C 72.0467 2.97764 3.0255 0
M  V30 720 C 69.9537 5.29301 2.63807 0
M  V30 721 H 68.8837 0.58989 0.469623 0
M  V30 722 H 71.5347 1.75923 0.521857 0
M  V30 723 H 69.9167 2.55542 3.02514 0
M  V30 724 H 71.0907 4.51116 0.939711 0
M  V30 725 H 69.4057 4.04129 1.00342 0
M  V30 726 H 72.0027 3.78856 3.77323 0
M  V30 727 H 72.3457 2.08448 3.60354 0
M  V30 728 H 72.8787 3.21815 2.33838 0
M  V30 729 H 69.6177 6.20687 2.10779 0
M  V30 730 H 69.1377 4.99606 3.31894 0
M  V30 731 H 70.8167 5.58768 3.2617 0
M  V30 732 N 70.9488 -0.749086 1.3866 0
M  V30 733 C 72.1978 -1.50371 1.3443 0
M  V30 734 C 72.5108 -1.95503 -0.0616397 0
M  V30 735 O 73.7168 -2.70554 -0.226489 0
M  V30 736 C 72.1728 -2.71644 2.36088 0
M  V30 737 C 71.7808 -2.3352 3.82325 0
M  V30 738 C 73.5248 -3.49518 2.40909 0
M  V30 739 C 71.4318 -3.51431 4.75658 0
M  V30 740 H 70.3618 -0.564628 0.499712 0
M  V30 741 H 73.0128 -0.818449 1.64237 0
M  V30 742 H 71.3948 -3.42175 1.9933 0
M  V30 743 H 72.5688 -1.70627 4.28046 0
M  V30 744 H 70.8838 -1.6877 3.80665 0
M  V30 745 H 73.4808 -4.37197 3.07836 0
M  V30 746 H 73.8238 -3.90992 1.42937 0
M  V30 747 H 74.3568 -2.86005 2.76489 0
M  V30 748 H 71.0958 -3.15019 5.74842 0
M  V30 749 H 70.6158 -4.13352 4.34627 0
M  V30 750 H 72.2948 -4.17953 4.93887 0
M  V30 751 N 72.4269 -1.23603 -0.977757 0
M  V30 752 C 73.8429 -0.999251 -1.24447 0
M  V30 753 C 74.0429 0.298053 -1.99283 0
M  V30 754 O 73.0989 1.01681 -2.31122 0
M  V30 755 C 74.4119 -2.20784 -2.04144 0
M  V30 756 C 75.9599 -2.25303 -2.17273 0
M  V30 757 C 76.4349 -3.45755 -3.00362 0
M  V30 758 N 77.9259 -3.4601 -3.07947 0
M  V30 759 C 78.6609 -4.35868 -3.72568 0
M  V30 760 N 78.1569 -5.35966 -4.38991 0
M  V30 761 N 79.9499 -4.23605 -3.6948 0
M  V30 762 H 72.1009 -2.06986 -0.476483 0
M  V30 763 H 74.3639 -0.907801 -0.273134 0
M  V30 764 H 74.0699 -3.14945 -1.56533 0
M  V30 765 H 73.9439 -2.22085 -3.04891 0
M  V30 766 H 76.3309 -1.3168 -2.64092 0
M  V30 767 H 76.4119 -2.28033 -1.15907 0
M  V30 768 H 76.0559 -4.39687 -2.5424 0
M  V30 769 H 75.9859 -3.40266 -4.01904 0
M  V30 770 H 78.4769 -2.73588 -2.60688 0
M  V30 771 H 78.7899 -6.00783 -4.86086 0
M  V30 772 H 77.1349 -5.39863 -4.37691 0
M  V30 773 H 80.3259 -3.44647 -3.16759 0
M  V30 774 H 80.4989 -4.93836 -4.1956 0
M  V30 775 N 73.905 1.17692 -1.04816 0
M  V30 776 C 75.154 1.87192 -0.751132 0
M  V30 777 C 75.467 1.8169 0.724441 0
M  V30 778 O 76.673 2.46625 1.13527 0
M  V30 779 C 75.129 3.35857 -1.29338 0
M  V30 780 C 74.737 3.4987 -2.79812 0
M  V30 781 C 76.481 4.10709 -1.07322 0
M  V30 782 C 74.388 4.92536 -3.27356 0
M  V30 783 H 73.318 0.701162 -0.277288 0
M  V30 784 H 75.969 1.32932 -1.26496 0
M  V30 785 H 74.351 3.89631 -0.707376 0
M  V30 786 H 75.525 3.06332 -3.44235 0
M  V30 787 H 73.84 2.88433 -3.00325 0
M  V30 788 H 76.437 5.15952 -1.4035 0
M  V30 789 H 76.78 4.16299 -0.0108001 0
M  V30 790 H 77.313 3.6313 -1.62423 0
M  V30 791 H 74.052 4.92119 -4.33012 0
M  V30 792 H 73.572 5.3676 -2.67673 0
M  V30 793 H 75.251 5.61288 -3.21815 0
M  V30 794 N 75.3831 0.828654 1.34056 0
M  V30 795 C 76.6111 0.43262 2.02326 0
M  V30 796 C 77.0261 -0.963147 1.62385 0
M  V30 797 O 76.3831 -1.62425 0.832121 0
M  V30 798 C 76.4341 0.53182 3.57567 0
M  V30 799 O 76.1551 1.87258 3.96063 0
M  V30 800 C 77.6561 0.131422 4.43105 0
M  V30 801 H 74.8761 0.172923 0.648335 0
M  V30 802 H 77.4201 1.1184 1.71208 0
M  V30 803 H 75.5751 -0.105938 3.87255 0
M  V30 804 H 75.9891 1.85087 4.90758 0
M  V30 805 H 77.4631 0.251904 5.51425 0
M  V30 806 H 77.9401 -0.925645 4.29335 0
M  V30 807 H 78.5461 0.743207 4.18756 0
M  V30 808 N 76.8612 -1.46375 0.584142 0
M  V30 809 C 78.1382 -1.956 0.0033388 0
M  V30 810 C 78.5182 -1.52679 -1.45782 0
M  V30 811 O 77.8662 -0.77816 -2.14842 0
M  V30 812 C 78.0762 -3.48551 0.176891 0
M  V30 813 C 79.4242 -4.24576 0.0454609 0
M  V30 814 O 80.4482 -3.56043 0.105801 0
M  V30 815 O 79.3072 -5.46427 -0.0890376 0
M  V30 816 H 76.4012 -0.825547 -0.0490066 0
M  V30 817 H 78.9472 -1.56652 0.65256 0
M  V30 818 H 77.7192 -3.72683 1.1926 0
M  V30 819 H 77.3422 -3.94332 -0.508695 0
M  V30 820 N 78.3393 -0.321999 -1.54275 0
M  V30 821 C 79.2863 0.544664 -2.24281 0
M  V30 822 C 80.2563 1.1129 -1.23303 0
M  V30 823 O 81.4413 1.15354 -1.51981 0
M  V30 824 C 78.5813 1.70045 -3.00298 0
M  V30 825 C 77.6943 1.16159 -4.1609 0
M  V30 826 C 76.8293 2.28293 -4.79641 0
M  V30 827 C 75.8683 1.71648 -5.8754 0
M  V30 828 N 75.0053 2.77438 -6.44959 0
M  V30 829 H 79.8453 -0.0588907 -2.97942 0
M  V30 830 H 77.3823 -0.0408345 -1.47043 0
M  V30 831 H 79.3403 2.38054 -3.42616 0
M  V30 832 H 77.9703 2.27531 -2.28975 0
M  V30 833 H 77.0223 0.373092 -3.78566 0
M  V30 834 H 78.3343 0.707087 -4.93763 0
M  V30 835 H 77.4883 3.0421 -5.2492 0
M  V30 836 H 76.2273 2.77079 -4.01346 0
M  V30 837 H 75.2323 0.942282 -5.41665 0
M  V30 838 H 76.4573 1.23741 -6.67731 0
M  V30 839 H 74.4033 3.25519 -5.69538 0
M  V30 840 H 74.3203 2.36547 -7.1804 0
M  V30 841 H 75.5883 3.53189 -6.94894 0
M  V30 842 N 79.8174 1.5752 -0.0501392 0
M  V30 843 C 80.7804 2.1037 0.909786 0
M  V30 844 C 81.7804 1.02308 1.24056 0
M  V30 845 O 82.9704 1.28385 1.17741 0
M  V30 846 C 80.1024 2.58708 2.21998 0
M  V30 847 H 81.2954 2.96479 0.451665 0
M  V30 848 H 78.8484 1.55038 0.198248 0
M  V30 849 H 79.5834 1.75989 2.72394 0
M  V30 850 H 79.3684 3.37675 1.99295 0
M  V30 851 H 80.8584 2.99747 2.9076 0
M  V30 852 N 81.2955 -0.223234 1.56011 0
M  V30 853 C 82.2255 -1.27988 1.95298 0
M  V30 854 C 83.2065 -1.48976 0.820979 0
M  V30 855 O 84.3915 -1.61188 1.08315 0
M  V30 856 C 81.5215 -2.63 2.26822 0
M  V30 857 C 80.4755 -2.56671 3.42497 0
M  V30 858 C 79.8015 -3.95697 3.59622 0
M  V30 859 C 81.1015 -2.11601 4.77517 0
M  V30 860 H 82.7955 -0.953525 2.8381 0
M  V30 861 H 80.3415 -0.457244 1.36548 0
M  V30 862 H 82.2945 -3.37077 2.52898 0
M  V30 863 H 81.0185 -2.9732 1.35161 0
M  V30 864 H 79.6775 -1.85051 3.16467 0
M  V30 865 H 79.3255 -4.27322 2.6534 0
M  V30 866 H 79.0255 -3.92345 4.37424 0
M  V30 867 H 80.5495 -4.71438 3.88044 0
M  V30 868 H 81.9635 -2.7542 5.02809 0
M  V30 869 H 80.3605 -2.19311 5.5859 0
M  V30 870 H 81.4305 -1.06824 4.72987 0
M  V30 871 N 82.7736 -1.49793 -0.48987 0
M  V30 872 C 84.1896 -1.36803 -0.822022 0
M  V30 873 C 84.3896 -0.409652 -1.97292 0
M  V30 874 O 83.4456 0.154614 -2.52026 0
M  V30 875 C 84.7586 -2.77768 -1.15175 0
M  V30 876 C 86.3066 -2.86549 -1.25931 0
M  V30 877 C 86.7816 -4.28306 -1.62228 0
M  V30 878 N 88.2726 -4.31169 -1.69256 0
M  V30 879 C 89.0076 -5.37832 -1.98807 0
M  V30 880 N 88.5036 -6.54726 -2.26507 0
M  V30 881 N 90.2966 -5.25258 -2.00152 0
M  V30 882 H 82.4476 -2.10691 0.268881 0
M  V30 883 H 84.7106 -0.946241 0.057728 0
M  V30 884 H 84.4166 -3.49648 -0.379335 0
M  V30 885 H 84.2906 -3.13836 -2.09253 0
M  V30 886 H 86.6776 -2.14899 -2.02243 0
M  V30 887 H 86.7586 -2.54049 -0.298776 0
M  V30 888 H 86.4026 -5.00486 -0.864622 0
M  V30 889 H 86.3326 -4.58279 -2.594 0
M  V30 890 H 88.8236 -3.4687 -1.49965 0
M  V30 891 H 89.1366 -7.31833 -2.48276 0
M  V30 892 H 87.4816 -6.57933 -2.23939 0
M  V30 893 H 90.6726 -4.32938 -1.77996 0
M  V30 894 H 90.8456 -6.08476 -2.22848 0
M  V30 895 N 84.2517 0.741722 -1.39055 0
M  V30 896 C 85.1617 1.88621 -1.39496 0
M  V30 897 C 86.1777 1.71557 -0.290578 0
M  V30 898 O 87.3537 1.94275 -0.530954 0
M  V30 899 C 84.4187 3.24134 -1.23037 0
M  V30 900 C 83.4797 3.5364 -2.43387 0
M  V30 901 C 82.7127 4.82687 -2.27703 0
M  V30 902 O 82.9357 5.55922 -1.27696 0
M  V30 903 O 81.8697 5.1194 -3.16545 0
M  V30 904 H 85.6957 1.91203 -2.35956 0
M  V30 905 H 83.2807 0.888625 -1.20099 0
M  V30 906 H 85.1627 4.0513 -1.15964 0
M  V30 907 H 83.8377 3.22337 -0.296691 0
M  V30 908 H 82.7447 2.72758 -2.56035 0
M  V30 909 H 84.0777 3.60209 -3.35425 0
M  V30 910 N 85.7298 1.2412 0.971189 0
M  V30 911 C 86.6398 1.04747 2.09917 0
M  V30 912 C 87.6558 -0.0107162 1.73997 0
M  V30 913 O 88.8318 0.186714 2.00533 0
M  V30 914 C 85.8968 0.650828 3.40537 0
M  V30 915 C 84.9578 1.7851 3.90426 0
M  V30 916 C 84.1908 1.40729 5.14812 0
M  V30 917 O 84.4138 0.29557 5.69634 0
M  V30 918 O 83.3478 2.23168 5.58999 0
M  V30 919 H 87.1738 1.99304 2.29154 0
M  V30 920 H 84.7588 1.02908 1.08307 0
M  V30 921 H 86.6408 0.440992 4.19086 0
M  V30 922 H 85.3158 -0.265649 3.22608 0
M  V30 923 H 84.2228 2.04966 3.12953 0
M  V30 924 H 85.5558 2.68023 4.12825 0
M  V30 925 N 87.2079 -1.17134 1.05439 0
M  V30 926 C 88.1379 -2.2342 0.678649 0
M  V30 927 C 89.1189 -1.66971 -0.32476 0
M  V30 928 O 90.3039 -1.93149 -0.201802 0
M  V30 929 C 87.4339 -3.47256 0.0552099 0
M  V30 930 C 86.3879 -4.16543 0.98365 0
M  V30 931 C 85.7139 -5.34231 0.223961 0
M  V30 932 C 87.0139 -4.68495 2.3089 0
M  V30 933 H 88.7079 -2.55105 1.56722 0
M  V30 934 H 86.2539 -1.2262 0.754998 0
M  V30 935 H 88.2069 -4.20828 -0.21946 0
M  V30 936 H 86.9309 -3.14846 -0.868319 0
M  V30 937 H 85.5899 -3.44887 1.24293 0
M  V30 938 H 85.2379 -4.98071 -0.702412 0
M  V30 939 H 84.9379 -5.81527 0.842627 0
M  V30 940 H 86.4619 -6.10585 -0.0433671 0
M  V30 941 H 87.8759 -5.33691 2.09396 0
M  V30 942 H 86.2729 -5.26379 2.88176 0
M  V30 943 H 87.3429 -3.85169 2.94572 0
M  V30 944 N 88.686 -0.835752 -1.33615 0
M  V30 945 C 89.932 -0.430596 -1.98176 0
M  V30 946 C 90.265 1.00684 -1.66061 0
M  V30 947 O 89.54 1.70339 -0.938877 0
M  V30 948 C 89.823 -0.648065 -3.5422 0
M  V30 949 C 89.676 -2.13255 -3.96033 0
M  V30 950 C 90.995 -0.0922113 -4.40003 0
M  V30 951 H 88.114 -0.157924 -0.719881 0
M  V30 952 H 90.756 -1.05069 -1.58305 0
M  V30 953 H 88.906 -0.120237 -3.88314 0
M  V30 954 H 90.578 -2.725 -3.72211 0
M  V30 955 H 88.821 -2.61823 -3.45878 0
M  V30 956 H 89.492 -2.23547 -5.04708 0
M  V30 957 H 91.968 -0.543343 -4.12537 0
M  V30 958 H 90.844 -0.274083 -5.48215 0
M  V30 959 H 91.105 1.00378 -4.30554 0
M  V30 960 N 90.1641 1.46063 -0.591896 0
M  V30 961 C 91.3921 2.06717 -0.0868936 0
M  V30 962 C 91.8071 1.43916 1.22203 0
M  V30 963 O 91.1641 0.547698 1.74088 0
M  V30 964 C 91.2151 3.6142 0.0758725 0
M  V30 965 O 90.9361 4.21874 -1.18126 0
M  V30 966 C 92.4371 4.39025 0.61416 0
M  V30 967 H 89.6571 0.668162 -0.0616518 0
M  V30 968 H 92.2011 1.8755 -0.815175 0
M  V30 969 H 90.3561 3.79983 0.754413 0
M  V30 970 H 90.7701 5.14861 -1.00092 0
M  V30 971 H 92.2441 5.4783 0.677193 0
M  V30 972 H 92.7211 4.07708 1.63312 0
M  V30 973 H 93.3271 4.2529 -0.0298142 0
M  V30 974 N 91.6422 0.330177 1.54103 0
M  V30 975 C 92.5722 -0.525353 2.27513 0
M  V30 976 C 93.5532 -1.11383 1.2856 0
M  V30 977 O 94.7382 -1.13773 1.57383 0
M  V30 978 C 91.8682 -1.6831 3.03791 0
M  V30 979 C 90.8222 -1.2236 4.10137 0
M  V30 980 C 90.1482 -2.46882 4.74293 0
M  V30 981 C 91.4482 -0.333697 5.21233 0
M  V30 982 H 93.1422 0.087013 2.99274 0
M  V30 983 H 90.6882 0.0432893 1.43935 0
M  V30 984 H 92.6412 -2.28795 3.5388 0
M  V30 985 H 91.3652 -2.32216 2.29659 0
M  V30 986 H 90.0242 -0.64165 3.60941 0
M  V30 987 H 89.6722 -3.09165 3.96769 0
M  V30 988 H 89.3722 -2.16825 5.46133 0
M  V30 989 H 90.8962 -3.08117 5.27159 0
M  V30 990 H 92.3102 -0.845013 5.67038 0
M  V30 991 H 90.7072 -0.125612 5.99969 0
M  V30 992 H 91.7772 0.633724 4.80741 0
M  V30 993 N 93.1203 -1.57491 0.0584922 0
M  V30 994 C 94.3483 -1.97296 -0.623037 0
M  V30 995 C 94.7633 -0.936338 -1.63946 0
M  V30 996 O 94.1203 0.0785981 -1.82331 0
M  V30 997 C 94.1713 -3.37183 -1.30345 0
M  V30 998 O 93.8923 -4.36872 -0.32773 0
M  V30 999 C 95.3933 -3.91788 -2.07406 0
M  V30 1000 H 92.6133 -0.649153 -0.169826 0
M  V30 1001 H 95.1573 -2.04106 0.12696 0
M  V30 1002 H 93.3123 -3.31502 -2.00463 0
M  V30 1003 H 93.7263 -5.18141 -0.814269 0
M  V30 1004 H 95.2003 -4.91926 -2.50425 0
M  V30 1005 H 95.6773 -3.27609 -2.92521 0
M  V30 1006 H 96.2833 -4.00829 -1.42184 0
M  V30 1007 N 94.5984 0.214957 -1.56127 0
M  V30 1008 C 95.8464 0.936518 -1.79091 0
M  V30 1009 C 96.1674 1.84606 -0.628148 0
M  V30 1010 O 95.4374 1.92664 0.35462 0
M  V30 1011 H 94.0174 0.3488 -0.660566 0
M  V30 1012 H 96.6794 0.22523 -1.93594 0
M  V30 1013 H 95.7754 1.53943 -2.71492 0
M  V30 1014 N 96.0765 1.50051 0.48192 0
M  V30 1015 C 97.3245 1.60181 1.23234 0
M  V30 1016 C 97.6455 0.299176 1.92691 0
M  V30 1017 O 96.9155 -0.682708 1.83619 0
M  V30 1018 H 95.4955 0.590232 0.457859 0
M  V30 1019 H 98.1575 1.86775 0.556881 0
M  V30 1020 H 97.2535 2.40753 1.98607 0
M  V30 1021 N 97.5546 -0.734337 1.39446 0
M  V30 1022 C 98.4866 -1.85861 1.34121 0
M  V30 1023 C 99.4996 -1.60871 0.249864 0
M  V30 1024 O 100.689 -1.71093 0.508865 0
M  V30 1025 C 97.7886 -3.21899 1.05991 0
M  V30 1026 C 96.9616 -3.74239 2.26415 0
M  V30 1027 C 96.0206 -4.88841 1.94733 0
M  V30 1028 O 95.0466 -5.02468 2.67422 0
M  V30 1029 N 96.2486 -5.73261 0.913884 0
M  V30 1030 H 99.0136 -1.90934 2.31007 0
M  V30 1031 H 96.5746 -0.915102 1.33557 0
M  V30 1032 H 98.5666 -3.96136 0.828147 0
M  V30 1033 H 97.1366 -3.12091 0.178361 0
M  V30 1034 H 96.3566 -2.91347 2.65539 0
M  V30 1035 H 97.6446 -4.05942 3.06738 0
M  V30 1036 H 97.0426 -5.64842 0.311476 0
M  V30 1037 H 95.5996 -6.47563 0.742015 0
M  V30 1038 N 99.0327 -1.24633 -0.964593 0
M  V30 1039 C 99.9797 -1.04144 -2.05968 0
M  V30 1040 C 100.95 0.046262 -1.66036 0
M  V30 1041 O 102.135 -0.108972 -1.90489 0
M  V30 1042 C 99.2747 -0.65563 -3.38815 0
M  V30 1043 C 98.3877 -1.81714 -3.91923 0
M  V30 1044 C 97.5227 -1.37662 -5.13052 0
M  V30 1045 C 96.5617 -2.50788 -5.58365 0
M  V30 1046 N 95.6987 -2.07582 -6.70712 0
M  V30 1047 H 100.539 -1.9787 -2.22827 0
M  V30 1048 H 98.0757 -0.9855 -1.09208 0
M  V30 1049 H 100.034 -0.412954 -4.15151 0
M  V30 1050 H 98.6637 0.244627 -3.21872 0
M  V30 1051 H 97.7157 -2.1734 -3.12198 0
M  V30 1052 H 99.0277 -2.66705 -4.21509 0
M  V30 1053 H 98.1817 -1.093 -5.96773 0
M  V30 1054 H 96.9207 -0.497293 -4.85158 0
M  V30 1055 H 95.9257 -2.79906 -4.73215 0
M  V30 1056 H 97.1507 -3.39283 -5.88272 0
M  V30 1057 H 95.0967 -1.22051 -6.44546 0
M  V30 1058 H 95.0137 -2.86125 -6.99763 0
M  V30 1059 H 96.2817 -1.82369 -7.57867 0
M  V30 1060 N 100.511 1.16574 -1.06058 0
M  V30 1061 C 101.461 2.18854 -0.63929 0
M  V30 1062 C 102.445 1.57505 0.328798 0
M  V30 1063 O 103.637 1.76408 0.144623 0
M  V30 1064 C 100.766 3.43291 -0.0247203 0
M  V30 1065 C 99.8518 4.11722 -1.01716 0
M  V30 1066 N 100.243 4.55841 -2.19186 0
M  V30 1067 C 98.5408 4.37872 -0.847569 0
M  V30 1068 C 99.2418 5.08751 -2.82042 0
M  V30 1069 N 98.2178 5.01489 -2.09784 0
M  V30 1070 H 102.02 2.5068 -1.53417 0
M  V30 1071 H 99.5338 1.32999 -0.931935 0
M  V30 1072 H 101.531 4.15856 0.294915 0
M  V30 1073 H 100.191 3.12954 0.865448 0
M  V30 1074 H 101.202 4.49649 -2.56975 0
M  V30 1075 H 97.8788 4.17499 -0.00918848 0
M  V30 1076 H 99.2688 5.52944 -3.81709 0
M  V30 1077 N 101.989 0.842826 1.3317 0
M  V30 1078 C 103.235 0.441099 1.97945 0
M  V30 1079 C 103.568 -0.998024 1.66593 0
M  V30 1080 O 102.843 -1.69839 0.947898 0
M  V30 1081 C 103.126 0.666841 3.53872 0
M  V30 1082 C 102.979 2.15352 3.94897 0
M  V30 1083 C 104.298 0.115544 4.39948 0
M  V30 1084 H 101.417 0.161739 0.719034 0
M  V30 1085 H 104.059 1.05907 1.57746 0
M  V30 1086 H 102.209 0.140828 3.88245 0
M  V30 1087 H 103.881 2.7447 3.70761 0
M  V30 1088 H 102.124 2.63653 3.44484 0
M  V30 1089 H 102.795 2.26221 5.03516 0
M  V30 1090 H 105.271 0.565213 4.12243 0
M  V30 1091 H 104.147 0.303152 5.48062 0
M  V30 1092 H 104.408 -0.980935 4.3108 0
M  V30 1093 N 103.467 -1.45747 0.599634 0
M  V30 1094 C 104.43 -2.28917 -0.113835 0
M  V30 1095 C 105.43 -1.3933 -0.802729 0
M  V30 1096 O 106.62 -1.61534 -0.652103 0
M  V30 1097 C 103.752 -3.20152 -1.17114 0
M  V30 1098 H 104.945 -2.93478 0.617289 0
M  V30 1099 H 102.498 -1.52137 0.358327 0
M  V30 1100 H 103.233 -2.60374 -1.93329 0
M  V30 1101 H 103.018 -3.86133 -0.681468 0
M  V30 1102 H 104.508 -3.82708 -1.67105 0
M  V30 1103 N 104.945 -0.338344 -1.53925 0
M  V30 1104 C 105.877 0.555117 -2.22376 0
M  V30 1105 C 106.89 1.06812 -1.22862 0
M  V30 1106 O 108.079 0.979163 -1.49247 0
M  V30 1107 C 105.179 1.77609 -2.88631 0
M  V30 1108 C 104.352 1.39927 -4.14414 0
M  V30 1109 C 103.411 2.47936 -4.64127 0
M  V30 1110 O 102.437 2.11461 -5.28463 0
M  V30 1111 N 103.639 3.79107 -4.39612 0
M  V30 1112 H 106.404 -0.0310778 -2.99684 0
M  V30 1113 H 103.965 -0.162226 -1.61085 0
M  V30 1114 H 105.957 2.49287 -3.18807 0
M  V30 1115 H 104.527 2.26978 -2.14941 0
M  V30 1116 H 103.747 0.513481 -3.90841 0
M  V30 1117 H 105.035 1.12341 -4.96243 0
M  V30 1118 H 104.433 4.11531 -3.88148 0
M  V30 1119 H 102.99 4.4697 -4.74406 0
M  V30 1120 N 106.423 1.57458 -0.0668435 0
M  V30 1121 C 107.386 2.11323 0.887422 0
M  V30 1122 C 108.386 1.03618 1.22964 0
M  V30 1123 O 109.576 1.29626 1.16373 0
M  V30 1124 C 106.708 2.61048 2.19242 0
M  V30 1125 H 107.901 2.96942 0.420194 0
M  V30 1126 H 105.454 1.55239 0.181793 0
M  V30 1127 H 106.189 1.78868 2.70512 0
M  V30 1128 H 105.974 3.39769 1.95702 0
M  V30 1129 H 107.464 3.02814 2.87565 0
M  V30 1130 N 107.901 -0.206675 1.56239 0
M  V30 1131 C 108.864 -1.23976 1.92776 0
M  V30 1132 C 109.864 -1.39041 0.807729 0
M  V30 1133 O 111.054 -1.37051 1.0753 0
M  V30 1134 C 108.186 -2.61112 2.19165 0
M  V30 1135 H 109.379 -0.927764 2.85189 0
M  V30 1136 H 106.932 -0.447718 1.4975 0
M  V30 1137 H 107.667 -2.97386 1.29352 0
M  V30 1138 H 107.452 -2.51552 3.00772 0
M  V30 1139 H 108.942 -3.35633 2.48476 0
M  V30 1140 N 109.379 -1.50304 -0.473955 0
M  V30 1141 C 110.289 -1.7174 -1.5982 0
M  V30 1142 C 111.305 -0.600457 -1.63311 0
M  V30 1143 O 112.481 -0.878441 -1.81233 0
M  V30 1144 C 109.546 -1.80427 -2.96052 0
M  V30 1145 C 108.607 -3.04148 -3.02972 0
M  V30 1146 C 107.84 -3.12411 -4.32706 0
M  V30 1147 O 108.063 -2.27542 -5.23049 0
M  V30 1148 O 106.997 -4.05113 -4.45159 0
M  V30 1149 H 110.823 -2.67035 -1.44657 0
M  V30 1150 H 108.408 -1.34366 -0.653148 0
M  V30 1151 H 110.29 -1.88338 -3.7697 0
M  V30 1152 H 108.965 -0.883156 -3.11419 0
M  V30 1153 H 107.872 -3.0174 -2.21142 0
M  V30 1154 H 109.205 -3.95829 -2.92541 0
M  V30 1155 N 110.857 0.726932 -1.39834 0
M  V30 1156 C 112.104 1.48664 -1.37496 0
M  V30 1157 C 112.432 1.94482 0.0264678 0
M  V30 1158 O 111.687 1.67692 1.00886 0
M  V30 1159 C 111.986 2.73495 -2.30077 0
M  V30 1160 C 111.652 2.46502 -3.77555 0
M  V30 1161 C 110.314 2.3885 -4.17737 0
M  V30 1162 C 112.666 2.23604 -4.70798 0
M  V30 1163 C 109.994 2.06352 -5.49214 0
M  V30 1164 C 112.346 1.92622 -6.02561 0
M  V30 1165 C 111.01 1.83444 -6.41798 0
M  V30 1166 H 110.28 0.544001 -0.503135 0
M  V30 1167 H 112.927 0.833657 -1.72402 0
M  V30 1168 H 111.232 3.43575 -1.88317 0
M  V30 1169 H 112.929 3.31549 -2.25558 0
M  V30 1170 H 109.519 2.5334 -3.45712 0
M  V30 1171 H 113.703 2.28479 -4.40581 0
M  V30 1172 H 108.959 1.97776 -5.78528 0
M  V30 1173 H 113.133 1.73914 -6.74334 0
M  V30 1174 H 110.76 1.58029 -7.43593 0
M  V30 1175 N 112.336 1.25143 0.95797 0
M  V30 1176 C 113.582 1.10863 1.70531 0
M  V30 1177 C 113.937 -0.347391 1.89238 0
M  V30 1178 O 113.23 -1.25262 1.44983 0
M  V30 1179 C 113.424 1.79272 3.09187 0
M  V30 1180 C 113.253 3.31376 3.04006 0
M  V30 1181 C 112.023 4.0062 3.07948 0
M  V30 1182 C 114.221 4.27825 2.8543 0
M  V30 1183 N 112.203 5.39526 2.9289 0
M  V30 1184 C 113.574 5.53794 2.78769 0
M  V30 1185 C 115.629 4.1828 2.70085 0
M  V30 1186 C 114.332 6.7131 2.58331 0
M  V30 1187 C 116.358 5.35485 2.51017 0
M  V30 1188 C 115.72 6.60393 2.45073 0
M  V30 1189 H 111.819 0.460362 0.632132 0
M  V30 1190 H 114.403 1.58196 1.13499 0
M  V30 1191 H 112.574 1.34439 3.64391 0
M  V30 1192 H 114.306 1.57764 3.72683 0
M  V30 1193 H 111.061 3.51855 3.17009 0
M  V30 1194 H 111.485 6.12416 2.88574 0
M  V30 1195 H 116.127 3.22461 2.73457 0
M  V30 1196 H 113.845 7.67243 2.53701 0
M  V30 1197 H 117.431 5.29959 2.40073 0
M  V30 1198 H 116.311 7.49557 2.30509 0
M  V30 1199 N 113.814 -1.1601 1.06675 0
M  V30 1200 C 115.06 -1.86909 0.786945 0
M  V30 1201 C 115.393 -1.81717 -0.685018 0
M  V30 1202 O 114.668 -1.23551 -1.50218 0
M  V30 1203 C 114.951 -3.36313 1.28707 0
M  V30 1204 C 114.804 -3.50175 2.82308 0
M  V30 1205 C 116.123 -4.3084 0.898071 0
M  V30 1206 H 113.242 -0.678677 0.287343 0
M  V30 1207 H 115.884 -1.36336 1.32334 0
M  V30 1208 H 114.034 -3.79513 0.830768 0
M  V30 1209 H 115.706 -3.15886 3.36175 0
M  V30 1210 H 113.949 -2.91959 3.20847 0
M  V30 1211 H 114.62 -4.55116 3.12368 0
M  V30 1212 H 117.096 -3.95561 1.29114 0
M  V30 1213 H 115.972 -5.33876 1.27543 0
M  V30 1214 H 116.233 -4.41662 -0.196651 0
M  V30 1215 N 115.292 -0.849877 -1.32721 0
M  V30 1216 C 116.539 -0.450923 -1.97416 0
M  V30 1217 C 116.867 0.992376 -1.67279 0
M  V30 1218 O 116.122 1.71048 -0.950845 0
M  V30 1219 C 116.421 -0.631272 -3.51781 0
M  V30 1220 C 116.087 -2.04432 -4.01894 0
M  V30 1221 C 114.749 -2.4308 -4.1529 0
M  V30 1222 C 117.101 -2.96679 -4.28522 0
M  V30 1223 C 114.429 -3.73257 -4.52654 0
M  V30 1224 C 116.781 -4.26349 -4.67343 0
M  V30 1225 C 115.445 -4.64939 -4.78945 0
M  V30 1226 H 114.715 -0.165004 -0.722395 0
M  V30 1227 H 117.362 -1.07901 -1.58207 0
M  V30 1228 H 115.667 0.0800767 -3.91718 0
M  V30 1229 H 117.364 -0.302709 -3.99856 0
M  V30 1230 H 113.954 -1.73419 -3.91949 0
M  V30 1231 H 118.138 -2.68054 -4.17685 0
M  V30 1232 H 113.394 -4.02946 -4.59831 0
M  V30 1233 H 117.568 -4.97895 -4.86902 0
M  V30 1234 H 115.195 -5.65855 -5.07654 0
M  V30 1235 N 116.77 1.45427 -0.607355 0
M  V30 1236 C 118.01 2.04128 -0.105458 0
M  V30 1237 C 118.374 1.46555 1.24039 0
M  V30 1238 O 119.575 1.96608 1.833 0
M  V30 1239 C 117.846 3.57338 -0.0665324 0
M  V30 1240 S 119.405 4.37201 0.374207 0
M  V30 1241 H 116.223 0.709278 -0.0494575 0
M  V30 1242 H 118.825 1.78139 -0.805404 0
M  V30 1243 H 117.529 3.96752 -1.04957 0
M  V30 1244 H 117.06 3.87902 0.655415 0
M  V30 1245 H 119.075 4.6888 1.62377 0
M  V30 1246 N 118.248 0.346503 1.53744 0
M  V30 1247 C 119.211 -0.496439 2.23759 0
M  V30 1248 C 120.211 -1.0252 1.2388 0
M  V30 1249 O 121.401 -0.913974 1.48297 0
M  V30 1250 C 118.533 -1.69187 2.95954 0
M  V30 1251 H 119.726 0.115952 2.99676 0
M  V30 1252 H 117.279 0.0978939 1.55993 0
M  V30 1253 H 118.014 -2.34288 2.24231 0
M  V30 1254 H 117.799 -1.31989 3.69217 0
M  V30 1255 H 119.289 -2.28969 3.49232 0
M  V30 1256 N 119.726 -1.57421 0.075193 0
M  V30 1257 C 121.003 -1.85029 -0.634329 0
M  V30 1258 C 121.383 -0.968305 -1.87582 0
M  V30 1259 O 120.731 -0.0354749 -2.28472 0
M  V30 1260 C 120.941 -3.35286 -0.968742 0
M  V30 1261 C 122.289 -4.02875 -1.34077 0
M  V30 1262 O 123.313 -3.40051 -1.06037 0
M  V30 1263 O 122.172 -5.13691 -1.86506 0
M  V30 1264 H 119.266 -0.7645 -0.315387 0
M  V30 1265 H 121.812 -1.69366 0.106382 0
M  V30 1266 H 120.584 -3.91203 -0.0871376 0
M  V30 1267 H 120.207 -3.56223 -1.7661 0
M  V30 1268 N 121.204 0.198386 -1.56346 0
M  V30 1269 C 122.451 0.919286 -1.80431 0
M  V30 1270 C 122.779 1.83393 -0.647866 0
M  V30 1271 O 122.034 1.92236 0.366556 0
M  V30 1272 C 122.333 1.77031 -3.10475 0
M  V30 1273 C 121.999 1.00693 -4.39513 0
M  V30 1274 C 120.661 0.796145 -4.74568 0
M  V30 1275 C 123.013 0.469559 -5.19081 0
M  V30 1276 C 120.341 0.0364588 -5.86689 0
M  V30 1277 C 122.693 -0.2769 -6.31994 0
M  V30 1278 C 121.357 -0.49873 -6.65634 0
M  V30 1279 H 120.627 0.336391 -0.660244 0
M  V30 1280 H 123.274 0.185872 -1.90596 0
M  V30 1281 H 121.579 2.5723 -2.95533 0
M  V30 1282 H 123.276 2.33065 -3.26315 0
M  V30 1283 H 119.866 1.18122 -4.12001 0
M  V30 1284 H 124.05 0.619816 -4.92414 0
M  V30 1285 H 119.306 -0.145412 -6.11227 0
M  V30 1286 H 123.48 -0.700684 -6.92866 0
M  V30 1287 H 121.107 -1.0893 -7.52355 0
M  V30 1288 N 122.682 1.50554 0.465978 0
M  V30 1289 C 123.63 1.70324 1.58406 0
M  V30 1290 C 124.624 0.569139 1.59553 0
M  V30 1291 O 125.83 0.749776 1.63641 0
M  V30 1292 H 122.205 0.537688 0.525734 0
M  V30 1293 H 124.176 2.64104 1.38894 0
M  V30 1294 C 122.925 1.81928 2.96307 0
M  V30 1295 H 122.248 2.68586 2.96144 0
M  V30 1296 H 123.688 1.99784 3.73982 0
M  V30 1297 C 122.147 0.572095 3.32007 0
M  V30 1298 O 122.677 -0.286416 4.00678 0
M  V30 1299 N 120.883 0.424606 2.87481 0
M  V30 1300 H 120.43 1.12427 2.31771 0
M  V30 1301 H 120.388 -0.408697 3.11732 0
M  V30 1302 N 124.16 -0.719506 1.40217 0
M  V30 1303 C 125.576 -1.02707 1.22161 0
M  V30 1304 C 125.776 -2.0128 0.0940557 0
M  V30 1305 O 124.832 -2.46452 -0.549318 0
M  V30 1306 C 126.145 -1.57454 2.56181 0
M  V30 1307 C 127.693 -1.69458 2.63159 0
M  V30 1308 C 128.168 -2.27611 3.97438 0
M  V30 1309 N 129.659 -2.35002 3.99159 0
M  V30 1310 C 130.394 -2.80972 4.99842 0
M  V30 1311 N 129.89 -3.26723 6.10921 0
M  V30 1312 N 131.683 -2.80321 4.87213 0
M  V30 1313 H 123.834 -0.0660492 2.12297 0
M  V30 1314 H 126.097 -0.0919077 0.943534 0
M  V30 1315 H 125.803 -0.924873 3.39321 0
M  V30 1316 H 125.677 -2.56036 2.76993 0
M  V30 1317 H 128.064 -2.33543 1.80393 0
M  V30 1318 H 128.145 -0.694867 2.46181 0
M  V30 1319 H 127.789 -1.6415 4.80643 0
M  V30 1320 H 127.719 -3.2829 4.11744 0
M  V30 1321 H 130.21 -2.02685 3.18947 0
M  V30 1322 H 130.523 -3.60355 6.8364 0
M  V30 1323 H 128.868 -3.24692 6.14492 0
M  V30 1324 H 132.059 -2.43912 3.9953 0
M  V30 1325 H 132.232 -3.15831 5.65822 0
M  V30 1326 N 125.638 -1.25649 -0.95132 0
M  V30 1327 C 126.588 -1.03004 -2.03406 0
M  V30 1328 C 127.572 0.034187 -1.60864 0
M  V30 1329 O 128.764 -0.181549 -1.76066 0
M  V30 1330 C 125.893 -0.654255 -3.37008 0
M  V30 1331 C 124.979 -1.75542 -3.86065 0
M  V30 1332 N 125.37 -2.99113 -4.07879 0
M  V30 1333 C 123.668 -1.63669 -4.14884 0
M  V30 1334 C 124.369 -3.70611 -4.48356 0
M  V30 1335 N 123.345 -2.98247 -4.54477 0
M  V30 1336 H 127.147 -1.96813 -2.1827 0
M  V30 1337 H 124.661 -1.16017 -1.13639 0
M  V30 1338 H 126.658 -0.473206 -4.14206 0
M  V30 1339 H 125.318 0.276468 -3.23521 0
M  V30 1340 H 126.329 -3.35124 -3.94857 0
M  V30 1341 H 123.006 -0.775161 -4.10241 0
M  V30 1342 H 124.396 -4.76695 -4.73509 0
M  V30 1343 N 127.117 1.15442 -1.07289 0
M  V30 1344 C 128.047 2.22312 -0.714107 0
M  V30 1345 C 129.028 1.67467 0.298155 0
M  V30 1346 O 130.213 1.93445 0.171048 0
M  V30 1347 C 127.343 3.47124 -0.110448 0
M  V30 1348 C 126.297 4.14926 -1.04979 0
M  V30 1349 C 125.623 5.33807 -0.308924 0
M  V30 1350 C 126.923 4.64762 -2.38314 0
M  V30 1351 H 128.617 2.5258 -1.6076 0
M  V30 1352 H 126.163 1.21404 -0.77441 0
M  V30 1353 H 128.116 4.21124 0.152482 0
M  V30 1354 H 126.84 3.16187 0.81812 0
M  V30 1355 H 125.499 3.42866 -1.29764 0
M  V30 1356 H 125.147 4.99126 0.623084 0
M  V30 1357 H 124.847 5.80113 -0.935036 0
M  V30 1358 H 126.371 6.10576 -0.0537771 0
M  V30 1359 H 127.785 5.30292 -2.1786 0
M  V30 1360 H 126.182 5.21728 -2.96514 0
M  V30 1361 H 127.252 3.80434 -3.00663 0
M  V30 1362 N 128.595 0.856903 1.32268 0
M  V30 1363 C 129.527 0.260412 2.27716 0
M  V30 1364 C 130.54 -0.569137 1.52528 0
M  V30 1365 O 131.729 -0.39326 1.74114 0
M  V30 1366 C 128.829 -0.650477 3.32599 0
M  V30 1367 C 128.002 0.14372 4.37164 0
M  V30 1368 C 127.061 -0.69328 5.21613 0
M  V30 1369 O 126.087 -0.12599 5.69061 0
M  V30 1370 N 127.289 -2.00761 5.44679 0
M  V30 1371 H 130.054 1.08059 2.79541 0
M  V30 1372 H 127.615 0.717103 1.45152 0
M  V30 1373 H 129.607 -1.21581 3.86005 0
M  V30 1374 H 128.177 -1.37133 2.80915 0
M  V30 1375 H 127.397 0.890486 3.8401 0
M  V30 1376 H 128.685 0.68915 5.04111 0
M  V30 1377 H 128.083 -2.49181 5.07863 0
M  V30 1378 H 126.64 -2.52103 6.01072 0
M  V30 1379 N 130.073 -1.45103 0.615059 0
M  V30 1380 C 131.322 -2.01396 0.110718 0
M  V30 1381 C 131.635 -1.48834 -1.26916 0
M  V30 1382 O 132.841 -1.97152 -1.86664 0
M  V30 1383 C 131.297 -3.59599 0.14723 0
M  V30 1384 C 130.905 -4.21158 1.52743 0
M  V30 1385 C 132.649 -4.23428 -0.30148 0
M  V30 1386 C 130.556 -5.71535 1.51992 0
M  V30 1387 H 129.486 -0.753061 0.0376241 0
M  V30 1388 H 132.137 -1.66494 0.77149 0
M  V30 1389 H 130.519 -3.91724 -0.580339 0
M  V30 1390 H 131.693 -4.00594 2.2773 0
M  V30 1391 H 130.008 -3.69552 1.91886 0
M  V30 1392 H 132.605 -5.33703 -0.326392 0
M  V30 1393 H 132.948 -3.94629 -1.32565 0
M  V30 1394 H 133.481 -3.96047 0.373065 0
M  V30 1395 H 130.22 -6.05044 2.52193 0
M  V30 1396 H 129.74 -5.94268 0.81274 0
M  V30 1397 H 131.419 -6.34873 1.24681 0
M  V30 1398 N 131.551 -0.354651 -1.53558 0
M  V30 1399 C 132.791 0.238651 -2.03002 0
M  V30 1400 C 133.155 1.46878 -1.23656 0
M  V30 1401 O 134.356 2.13699 -1.63053 0
M  V30 1402 C 132.627 0.534175 -3.53386 0
M  V30 1403 S 134.186 1.10271 -4.24719 0
M  V30 1404 H 131.004 0.0702908 -0.707517 0
M  V30 1405 H 133.606 -0.494987 -1.8913 0
M  V30 1406 H 132.31 -0.368765 -4.0874 0
M  V30 1407 H 131.841 1.29718 -3.71398 0
M  V30 1408 H 133.856 2.38772 -4.34974 0
M  V30 1409 N 133.029 1.57378 -0.0835403 0
M  V30 1410 C 134.44 1.81261 0.447358 0
M  V30 1411 C 134.791 0.998331 1.68902 0
M  V30 1412 O 133.916 0.224282 2.15235 0
M  V30 1413 C 134.511 3.28767 0.818386 0
M  V30 1414 C 133.07 3.53455 1.29409 0
M  V30 1415 C 132.217 2.75831 0.285024 0
M  V30 1416 H 135.168 1.5566 -0.309115 0
M  V30 1417 H 135.189 3.41459 1.67887 0
M  V30 1418 H 134.701 3.88006 -0.0855019 0
M  V30 1419 H 132.802 2.99534 2.21608 0
M  V30 1420 H 132.915 4.62128 1.2639 0
M  V30 1421 H 131.279 2.42947 0.764767 0
M  V30 1422 H 132.062 3.37813 -0.611341 0
M  V30 1423 N 134.507 -0.190092 1.56449 0
M  V30 1424 C 135.784 -0.935886 1.71757 0
M  V30 1425 C 136.164 -2.01173 0.639726 0
M  V30 1426 O 135.512 -2.25827 -0.348502 0
M  V30 1427 C 135.722 -1.51775 3.1427 0
M  V30 1428 C 137.07 -1.99794 3.74656 0
M  V30 1429 O 138.094 -1.61607 3.1743 0
M  V30 1430 O 136.953 -2.70079 4.751 0
M  V30 1431 H 134.047 -0.439229 0.700719 0
M  V30 1432 H 136.593 -0.179395 1.68749 0
M  V30 1433 H 135.365 -0.742505 3.84191 0
M  V30 1434 H 134.988 -2.33894 3.21527 0
M  V30 1435 N 135.985 -1.50799 -0.457987 0
M  V30 1436 C 136.948 -1.7005 -1.53674 0
M  V30 1437 C 137.948 -0.570881 -1.50325 0
M  V30 1438 O 139.138 -0.838126 -1.52712 0
M  V30 1439 C 136.27 -1.73788 -2.93276 0
M  V30 1440 H 137.463 -2.66306 -1.37917 0
M  V30 1441 H 135.016 -1.40477 -0.685271 0
M  V30 1442 H 135.751 -0.792717 -3.14462 0
M  V30 1443 H 135.536 -2.55864 -2.97113 0
M  V30 1444 H 137.026 -1.90591 -3.71571 0
M  V30 1445 N 137.463 0.71206 -1.40597 0
M  V30 1446 C 138.395 1.83704 -1.37061 0
M  V30 1447 C 139.408 1.60453 -0.275426 0
M  V30 1448 O 140.597 1.70262 -0.53602 0
M  V30 1449 C 137.697 3.20172 -1.11099 0
M  V30 1450 C 136.87 3.7059 -2.3234 0
M  V30 1451 C 135.929 4.85681 -2.02485 0
M  V30 1452 O 134.955 4.9815 -2.75382 0
M  V30 1453 N 136.157 5.71735 -1.00497 0
M  V30 1454 H 138.922 1.87235 -2.34016 0
M  V30 1455 H 136.483 0.893739 -1.34996 0
M  V30 1456 H 138.475 3.94768 -0.891064 0
M  V30 1457 H 137.045 3.11767 -0.227989 0
M  V30 1458 H 136.265 2.87085 -2.7014 0
M  V30 1459 H 137.553 4.01011 -3.13157 0
M  V30 1460 H 136.951 5.64275 -0.401298 0
M  V30 1461 H 135.508 6.463 -0.844942 0
M  V30 1462 N 138.941 1.26152 0.944643 0
M  V30 1463 C 139.871 1.09902 2.06019 0
M  V30 1464 C 140.852 0.00519538 1.70099 0
M  V30 1465 O 142.037 0.176583 1.93396 0
M  V30 1466 C 139.167 0.727562 3.39594 0
M  V30 1467 C 138.121 1.77274 3.89561 0
M  V30 1468 C 137.447 1.25569 5.19747 0
M  V30 1469 C 138.747 3.17357 4.14827 0
M  V30 1470 H 140.441 2.03217 2.19871 0
M  V30 1471 H 137.987 0.978452 1.05652 0
M  V30 1472 H 139.94 0.600777 4.17095 0
M  V30 1473 H 138.664 -0.241287 3.25707 0
M  V30 1474 H 137.323 1.88814 3.14237 0
M  V30 1475 H 136.971 0.276783 5.02238 0
M  V30 1476 H 136.671 1.95433 5.54148 0
M  V30 1477 H 138.195 1.1415 5.99835 0
M  V30 1478 H 139.609 3.08914 4.82954 0
M  V30 1479 H 138.006 3.84781 4.60504 0
M  V30 1480 H 139.076 3.63673 3.20734 0
M  V30 1481 N 140.419 -1.14872 1.07899 0
M  V30 1482 C 141.667 -1.85422 0.803941 0
M  V30 1483 C 141.988 -1.83051 -0.67211 0
M  V30 1484 O 141.258 -1.27532 -1.48703 0
M  V30 1485 H 139.838 -0.686537 0.294408 0
M  V30 1486 H 142.5 -1.39226 1.3639 0
M  V30 1487 H 141.596 -2.90399 1.14346 0
M  V30 1488 N 141.898 -0.863906 -1.31812 0
M  V30 1489 C 142.828 -0.330843 -2.31144 0
M  V30 1490 C 143.809 0.575005 -1.60087 0
M  V30 1491 O 144.994 0.493304 -1.8783 0
M  V30 1492 C 142.124 0.47374 -3.44054 0
M  V30 1493 C 141.078 -0.338481 -4.26659 0
M  V30 1494 C 140.404 0.591412 -5.31419 0
M  V30 1495 C 141.704 -1.56926 -4.98168 0
M  V30 1496 H 143.398 -1.16086 -2.75979 0
M  V30 1497 H 140.944 -0.559657 -1.32679 0
M  V30 1498 H 142.897 0.857143 -4.12591 0
M  V30 1499 H 141.621 1.33721 -2.9797 0
M  V30 1500 H 140.28 -0.703754 -3.59782 0
M  V30 1501 H 139.928 1.45199 -4.81587 0
M  V30 1502 H 139.628 0.0519022 -5.87577 0
M  V30 1503 H 141.152 0.97179 -6.02817 0
M  V30 1504 H 142.566 -1.25764 -5.59336 0
M  V30 1505 H 140.963 -2.04739 -5.64094 0
M  V30 1506 H 142.033 -2.32544 -4.25501 0
M  V30 1507 N 143.376 1.44774 -0.622745 0
M  V30 1508 C 144.339 2.29069 0.0774015 0
M  V30 1509 C 145.339 1.4059 0.780461 0
M  V30 1510 O 146.529 1.62551 0.626322 0
M  V30 1511 C 143.661 3.21974 1.12006 0
M  V30 1512 H 144.854 2.92459 -0.663901 0
M  V30 1513 H 142.407 1.51548 -0.382486 0
M  V30 1514 H 143.142 2.63417 1.89162 0
M  V30 1515 H 142.927 3.87168 0.619951 0
M  V30 1516 H 144.417 3.85318 1.60995 0
M  V30 1517 N 144.854 0.36279 1.53368 0
M  V30 1518 C 145.764 -0.492994 2.29362 0
M  V30 1519 C 146.78 -1.09507 1.35219 0
M  V30 1520 O 147.956 -1.10662 1.68273 0
M  V30 1521 C 145.021 -1.61855 3.066 0
M  V30 1522 C 144.082 -1.04429 4.16405 0
M  V30 1523 C 143.315 -2.11621 4.89951 0
M  V30 1524 O 143.538 -3.32684 4.63333 0
M  V30 1525 O 142.472 -1.74835 5.75948 0
M  V30 1526 H 146.298 0.125331 3.03441 0
M  V30 1527 H 143.883 0.127253 1.48857 0
M  V30 1528 H 145.765 -2.27302 3.54841 0
M  V30 1529 H 144.44 -2.22233 2.3536 0
M  V30 1530 H 143.347 -0.353819 3.72423 0
M  V30 1531 H 144.68 -0.485113 4.89804 0
M  V30 1532 N 146.332 -1.57332 0.0918853 0
M  V30 1533 C 147.264 -2.10869 -0.898168 0
M  V30 1534 C 148.277 -1.04521 -1.24817 0
M  V30 1535 O 149.466 -1.31977 -1.20184 0
M  V30 1536 C 146.566 -2.57083 -2.2082 0
M  V30 1537 C 145.739 -3.87229 -2.03402 0
M  V30 1538 C 144.798 -4.19324 -3.17889 0
M  V30 1539 O 143.824 -4.88598 -2.91994 0
M  V30 1540 N 145.026 -3.74471 -4.43567 0
M  V30 1541 H 147.791 -2.96439 -0.440943 0
M  V30 1542 H 145.352 -1.61631 -0.0933064 0
M  V30 1543 H 147.344 -2.75602 -2.96354 0
M  V30 1544 H 145.914 -1.76541 -2.57977 0
M  V30 1545 H 145.134 -3.7789 -1.12218 0
M  V30 1546 H 146.422 -4.72379 -1.89038 0
M  V30 1547 H 145.82 -3.18546 -4.67488 0
M  V30 1548 H 144.377 -3.98151 -5.16061 0
M  V30 1549 N 147.81 0.181792 -1.56548 0
M  V30 1550 C 148.74 1.22765 -1.98623 0
M  V30 1551 C 149.721 1.46747 -0.860189 0
M  V30 1552 O 150.906 1.58259 -1.12551 0
M  V30 1553 C 148.036 2.56894 -2.33715 0
M  V30 1554 C 146.99 2.475 -3.49182 0
M  V30 1555 C 146.316 3.86023 -3.69986 0
M  V30 1556 C 147.616 1.98866 -4.82959 0
M  V30 1557 H 149.31 0.877942 -2.86239 0
M  V30 1558 H 146.856 0.42088 -1.37712 0
M  V30 1559 H 148.809 3.30253 -2.61746 0
M  V30 1560 H 147.533 2.93632 -1.42997 0
M  V30 1561 H 146.192 1.76596 -3.21262 0
M  V30 1562 H 145.84 4.20136 -2.76576 0
M  V30 1563 H 145.54 3.80609 -4.47672 0
M  V30 1564 H 147.064 4.60984 -4.00407 0
M  V30 1565 H 148.478 2.61992 -5.09934 0
M  V30 1566 H 146.875 2.04424 -5.64208 0
M  V30 1567 H 147.945 0.942465 -4.75653 0
M  V30 1568 N 149.288 1.51039 0.449983 0
M  V30 1569 C 150.218 1.74379 1.55288 0
M  V30 1570 C 151.199 0.593236 1.5942 0
M  V30 1571 O 152.384 0.834625 1.7535 0
M  V30 1572 C 149.514 1.85728 2.93466 0
M  V30 1573 C 148.468 3.01078 3.04197 0
M  V30 1574 C 147.794 2.97595 4.44231 0
M  V30 1575 C 149.094 4.41254 2.7945 0
M  V30 1576 H 150.788 2.66725 1.36008 0
M  V30 1577 H 148.334 1.2835 0.652864 0
M  V30 1578 H 150.287 2.0064 3.70569 0
M  V30 1579 H 149.011 0.900207 3.13949 0
M  V30 1580 H 147.67 2.85851 2.29531 0
M  V30 1581 H 147.318 1.99691 4.61663 0
M  V30 1582 H 147.018 3.75046 4.52343 0
M  V30 1583 H 148.542 3.14583 5.23326 0
M  V30 1584 H 149.956 4.56897 3.46292 0
M  V30 1585 H 148.353 5.20315 2.98985 0
M  V30 1586 H 149.423 4.52164 1.75144 0
M  V30 1587 N 150.766 -0.704594 1.40972 0
M  V30 1588 C 151.696 -1.83124 1.44872 0
M  V30 1589 C 152.677 -1.67281 0.30838 0
M  V30 1590 O 153.862 -1.87149 0.518556 0
M  V30 1591 C 150.992 -3.21181 1.32136 0
M  V30 1592 C 149.946 -3.51714 2.43888 0
M  V30 1593 C 149.272 -4.89032 2.16222 0
M  V30 1594 C 150.572 -3.516 3.86232 0
M  V30 1595 H 152.266 -1.80117 2.39161 0
M  V30 1596 H 149.812 -0.865145 1.15114 0
M  V30 1597 H 151.765 -3.99702 1.33479 0
M  V30 1598 H 150.489 -3.24791 0.343279 0
M  V30 1599 H 149.148 -2.75539 2.41813 0
M  V30 1600 H 148.796 -4.89256 1.16778 0
M  V30 1601 H 148.496 -5.10426 2.911 0
M  V30 1602 H 150.02 -5.69873 2.19265 0
M  V30 1603 H 151.434 -4.2014 3.9007 0
M  V30 1604 H 149.831 -3.84523 4.60719 0
M  V30 1605 H 150.901 -2.50757 4.15029 0
M  V30 1606 N 152.244 -1.26651 -0.937939 0
M  V30 1607 C 153.492 -1.12165 -1.68118 0
M  V30 1608 C 153.813 0.334983 -1.92101 0
M  V30 1609 O 153.083 1.23583 -1.52 0
M  V30 1610 H 151.663 -0.412093 -0.623048 0
M  V30 1611 H 154.325 -1.59027 -1.12678 0
M  V30 1612 H 153.421 -1.64289 -2.6536 0
M  V30 1613 N 153.722 1.14298 -1.08507 0
M  V30 1614 C 154.968 1.85633 -0.816581 0
M  V30 1615 C 155.301 1.82784 0.656021 0
M  V30 1616 O 154.576 1.25926 1.48233 0
M  V30 1617 C 154.859 3.34223 -1.34041 0
M  V30 1618 C 154.712 3.45639 -2.87843 0
M  V30 1619 C 156.031 4.29356 -0.9665 0
M  V30 1620 H 153.15 0.67402 -0.298104 0
M  V30 1621 H 155.792 1.34214 -1.34487 0
M  V30 1622 H 153.942 3.78144 -0.89104 0
M  V30 1623 H 155.614 3.10498 -3.41158 0
M  V30 1624 H 153.857 2.86817 -3.25451 0
M  V30 1625 H 154.528 4.50089 -3.19569 0
M  V30 1626 H 157.004 3.93457 -1.35391 0
M  V30 1627 H 155.88 5.3178 -1.3602 0
M  V30 1628 H 156.141 4.41919 0.126362 0
M  V30 1629 N 155.201 0.870884 1.31352 0
M  V30 1630 C 156.447 0.482987 1.96965 0
M  V30 1631 C 156.78 -0.962462 1.68672 0
M  V30 1632 O 156.055 -1.6779 0.98371 0
M  V30 1633 C 156.338 0.741752 3.52378 0
M  V30 1634 C 156.191 2.2368 3.9024 0
M  V30 1635 C 157.51 0.208838 4.39604 0
M  V30 1636 H 154.629 0.176955 0.715441 0
M  V30 1637 H 157.271 1.09229 1.55464 0
M  V30 1638 H 155.421 0.223149 3.87859 0
M  V30 1639 H 157.093 2.82273 3.64856 0
M  V30 1640 H 155.336 2.70901 3.38814 0
M  V30 1641 H 156.007 2.3685 4.98604 0
M  V30 1642 H 158.483 0.652529 4.10952 0
M  V30 1643 H 157.359 0.419336 5.47296 0
M  V30 1644 H 157.62 -0.889275 4.33064 0
M  V30 1645 N 156.679 -1.44442 0.630414 0
M  V30 1646 C 157.956 -1.9549 0.0655657 0
M  V30 1647 C 158.336 -1.5724 -1.40851 0
M  V30 1648 O 157.684 -0.846116 -2.12257 0
M  V30 1649 C 157.894 -3.47812 0.287691 0
M  V30 1650 C 159.242 -4.24216 0.180513 0
M  V30 1651 O 160.266 -3.55526 0.219019 0
M  V30 1652 O 159.125 -5.46434 0.0848493 0
M  V30 1653 H 156.219 -0.826688 -0.0227177 0
M  V30 1654 H 158.765 -1.54496 0.702068 0
M  V30 1655 H 157.537 -3.687 1.31056 0
M  V30 1656 H 157.16 -3.95751 -0.382984 0
M  V30 1657 N 158.157 -0.370918 -1.53173 0
M  V30 1658 C 159.385 0.217704 -2.05751 0
M  V30 1659 C 159.8 1.42018 -1.24404 0
M  V30 1660 O 159.157 1.80245 -0.286033 0
M  V30 1661 C 159.208 0.605954 -3.56385 0
M  V30 1662 O 158.929 -0.548734 -4.3465 0
M  V30 1663 C 160.43 1.2524 -4.25241 0
M  V30 1664 H 157.65 0.0371659 -0.66997 0
M  V30 1665 H 160.194 -0.530832 -1.9749 0
M  V30 1666 H 158.349 1.3044 -3.6478 0
M  V30 1667 H 158.763 -0.23376 -5.23979 0
M  V30 1668 H 160.237 1.47458 -5.3194 0
M  V30 1669 H 160.714 2.2143 -3.79296 0
M  V30 1670 H 161.32 0.595233 -4.21114 0
M  V30 1671 N 159.635 1.57281 -0.100228 0
M  V30 1672 C 160.598 2.13158 0.842398 0
M  V30 1673 C 161.598 1.06202 1.20738 0
M  V30 1674 O 162.788 1.32066 1.13597 0
M  V30 1675 C 159.92 2.65639 2.13655 0
M  V30 1676 H 161.113 2.97766 0.357114 0
M  V30 1677 H 158.666 1.5559 0.148823 0
M  V30 1678 H 159.401 1.84566 2.66657 0
M  V30 1679 H 159.186 3.43844 1.88451 0
M  V30 1680 H 160.676 3.08846 2.81077 0
M  V30 1681 N 161.113 -0.173488 1.56642 0
M  V30 1682 C 162.046 -1.24353 1.91342 0
M  V30 1683 C 163.024 -1.4289 0.775965 0
M  V30 1684 O 164.208 -1.57932 1.02907 0
M  V30 1685 C 161.335 -2.60683 2.16245 0
M  V30 1686 C 160.381 -2.58894 3.38934 0
M  V30 1687 S 161.214 -2.0819 4.93373 0
M  V30 1688 C 162.37 -3.46302 5.21369 0
M  V30 1689 H 162.603 -0.947345 2.81803 0
M  V30 1690 H 160.136 -0.377958 1.49703 0
M  V30 1691 H 162.094 -3.39149 2.31275 0
M  V30 1692 H 160.755 -2.87502 1.26496 0
M  V30 1693 H 159.948 -3.59188 3.53553 0
M  V30 1694 H 159.55 -1.88522 3.2301 0
M  V30 1695 H 161.842 -4.42287 5.13214 0
M  V30 1696 H 162.785 -3.3656 6.23003 0
M  V30 1697 H 163.193 -3.42214 4.48943 0
M  V30 1698 N 162.591 -1.51276 -0.441967 0
M  V30 1699 C 163.524 -1.66933 -1.55591 0
M  V30 1700 C 164.502 -0.516958 -1.54163 0
M  V30 1701 O 165.686 -0.740209 -1.73358 0
M  V30 1702 C 162.813 -1.67866 -2.94174 0
M  V30 1703 C 161.859 -2.89013 -3.13646 0
M  V30 1704 S 162.692 -4.49897 -2.90436 0
M  V30 1705 C 163.848 -4.53568 -4.31308 0
M  V30 1706 H 164.081 -2.61155 -1.42076 0
M  V30 1707 H 161.614 -1.40902 -0.631341 0
M  V30 1708 H 163.572 -1.69089 -3.74058 0
M  V30 1709 H 162.233 -0.748296 -3.05056 0
M  V30 1710 H 161.426 -2.86054 -4.14957 0
M  V30 1711 H 161.028 -2.85509 -2.4158 0
M  V30 1712 H 163.32 -4.28924 -5.24434 0
M  V30 1713 H 164.263 -5.55355 -4.39303 0
M  V30 1714 H 164.671 -3.82943 -4.14747 0
M  V30 1715 N 164.069 0.697108 -1.41344 0
M  V30 1716 C 165.032 1.79281 -1.42797 0
M  V30 1717 C 166.032 1.57607 -0.318837 0
M  V30 1718 O 167.222 1.64309 -0.578642 0
M  V30 1719 C 164.354 3.17632 -1.23785 0
M  V30 1720 H 165.547 1.79385 -2.40335 0
M  V30 1721 H 163.1 0.904582 -1.27464 0
M  V30 1722 H 163.835 3.23167 -0.270814 0
M  V30 1723 H 163.62 3.34765 -2.04144 0
M  V30 1724 H 165.11 3.97617 -1.27633 0
M  V30 1725 N 165.547 1.27147 0.931209 0
M  V30 1726 C 166.479 1.05364 2.03546 0
M  V30 1727 C 167.492 0.0108438 1.62796 0
M  V30 1728 O 168.681 0.25202 1.76712 0
M  V30 1729 C 165.781 0.575566 3.33977 0
M  V30 1730 C 164.954 1.68985 4.03439 0
M  V30 1731 C 164.013 1.20813 5.12143 0
M  V30 1732 O 163.039 1.90712 5.363 0
M  V30 1733 N 164.241 0.0618851 5.80467 0
M  V30 1734 H 167.006 2.00454 2.22796 0
M  V30 1735 H 164.567 1.18666 1.10136 0
M  V30 1736 H 166.559 0.237264 4.04004 0
M  V30 1737 H 165.129 -0.282016 3.11325 0
M  V30 1738 H 164.349 2.19861 3.27192 0
M  V30 1739 H 165.637 2.4378 4.46597 0
M  V30 1740 H 165.035 -0.521621 5.6329 0
M  V30 1741 H 163.592 -0.217264 6.51438 0
M  V30 1742 N 167.025 -1.13721 1.09112 0
M  V30 1743 C 167.973 -2.21103 0.722219 0
M  V30 1744 C 168.967 -1.67147 -0.275374 0
M  V30 1745 O 170.173 -1.79477 -0.137176 0
M  V30 1746 H 166.548 -0.720445 0.215553 0
M  V30 1747 H 168.519 -2.49483 1.63709 0
M  V30 1748 C 167.268 -3.47352 0.15543 0
M  V30 1749 H 166.591 -3.89206 0.914246 0
M  V30 1750 H 168.031 -4.2395 -0.0647967 0
M  V30 1751 C 166.49 -3.1814 -1.10852 0
M  V30 1752 O 167.02 -3.36604 -2.19227 0
M  V30 1753 N 165.226 -2.72045 -1.02176 0
M  V30 1754 H 164.773 -2.57221 -0.139764 0
M  V30 1755 H 164.731 -2.52875 -1.8682 0
M  V30 1756 N 168.503 -0.877838 -1.30888 0
M  V30 1757 C 169.466 -0.344265 -2.266 0
M  V30 1758 C 170.466 0.50922 -1.52524 0
M  V30 1759 O 171.656 0.317398 -1.71284 0
M  V30 1760 C 168.788 0.510198 -3.37061 0
M  V30 1761 H 169.981 -1.1893 -2.7531 0
M  V30 1762 H 167.534 -0.654088 -1.41956 0
M  V30 1763 H 168.269 1.37612 -2.93655 0
M  V30 1764 H 168.054 -0.101047 -3.9197 0
M  V30 1765 H 169.544 0.875537 -4.08319 0
M  V30 1766 N 169.982 1.44106 -0.638065 0
M  V30 1767 C 170.912 2.33448 0.0494287 0
M  V30 1768 C 171.893 1.48606 0.827672 0
M  V30 1769 O 173.078 1.77308 0.792173 0
M  V30 1770 C 170.208 3.31771 1.02691 0
M  V30 1771 C 169.162 4.26485 0.359823 0
M  V30 1772 C 168.488 5.14729 1.44769 0
M  V30 1773 C 169.788 5.17056 -0.738296 0
M  V30 1774 H 171.482 2.91183 -0.696636 0
M  V30 1775 H 169.028 1.40014 -0.336456 0
M  V30 1776 H 170.981 3.93161 1.51666 0
M  V30 1777 H 169.705 2.7226 1.80395 0
M  V30 1778 H 168.364 3.66437 -0.10934 0
M  V30 1779 H 168.012 4.51566 2.21578 0
M  V30 1780 H 167.712 5.78913 1.00668 0
M  V30 1781 H 169.236 5.78991 1.93911 0
M  V30 1782 H 170.65 5.72342 -0.331354 0
M  V30 1783 H 169.047 5.89879 -1.10286 0
M  V30 1784 H 170.117 4.57652 -1.60258 0
M  V30 1785 N 171.46 0.379036 1.52974 0
M  V30 1786 C 172.709 -0.207612 2.00629 0
M  V30 1787 C 173.022 -1.48758 1.27006 0
M  V30 1788 O 174.228 -2.15365 1.65318 0
M  V30 1789 C 172.684 -0.42053 3.57435 0
M  V30 1790 C 172.292 0.845587 4.39948 0
M  V30 1791 C 174.036 -0.964102 4.13407 0
M  V30 1792 C 171.943 0.601513 5.88333 0
M  V30 1793 H 170.873 -0.0813591 0.749598 0
M  V30 1794 H 173.524 0.499853 1.76561 0
M  V30 1795 H 171.906 -1.18959 3.7771 0
M  V30 1796 H 173.08 1.61848 4.31442 0
M  V30 1797 H 171.395 1.31336 3.95145 0
M  V30 1798 H 173.992 -1.16225 5.21916 0
M  V30 1799 H 174.335 -1.93019 3.68849 0
M  V30 1800 H 174.868 -0.25487 3.96983 0
M  V30 1801 H 171.607 1.53831 6.37194 0
M  V30 1802 H 171.127 -0.132628 5.99653 0
M  V30 1803 H 172.806 0.232134 6.46583 0
M  V30 1804 N 172.938 -1.57226 0.108567 0
M  V30 1805 C 173.901 -2.13602 -0.831082 0
M  V30 1806 C 174.901 -1.06841 -1.20173 0
M  V30 1807 O 176.091 -1.32666 -1.12895 0
M  V30 1808 C 173.223 -2.66769 -2.12243 0
M  V30 1809 H 174.416 -2.97951 -0.341317 0
M  V30 1810 H 171.969 -1.55667 -0.14057 0
M  V30 1811 H 172.704 -1.85977 -2.65675 0
M  V30 1812 H 172.489 -3.44839 -1.86625 0
M  V30 1813 H 173.979 -3.10332 -2.79435 0
M  V30 1814 N 174.416 0.165178 -1.56732 0
M  V30 1815 C 175.379 1.18822 -1.95995 0
M  V30 1816 C 176.379 1.3685 -0.84431 0
M  V30 1817 O 177.569 1.34152 -1.11126 0
M  V30 1818 C 174.701 2.5521 -2.26011 0
M  V30 1819 H 175.894 0.851825 -2.87548 0
M  V30 1820 H 173.447 0.407857 -1.50885 0
M  V30 1821 H 174.182 2.93852 -1.37191 0
M  V30 1822 H 173.967 2.43489 -3.07336 0
M  V30 1823 H 175.457 3.28927 -2.57288 0
M  V30 1824 N 175.894 1.51508 0.433938 0
M  V30 1825 C 176.804 1.75917 1.5521 0
M  V30 1826 C 177.82 0.643545 1.61662 0
M  V30 1827 O 178.996 0.926183 1.7884 0
M  V30 1828 C 176.061 1.88213 2.91164 0
M  V30 1829 C 175.122 3.12074 2.94802 0
M  V30 1830 C 174.355 3.23774 4.24271 0
M  V30 1831 O 174.578 2.4133 5.16833 0
M  V30 1832 O 173.512 4.16774 4.34262 0
M  V30 1833 H 177.338 2.70777 1.37527 0
M  V30 1834 H 174.923 1.36051 0.617293 0
M  V30 1835 H 176.805 1.98267 3.71845 0
M  V30 1836 H 175.48 0.965413 3.08968 0
M  V30 1837 H 174.387 3.07497 2.13065 0
M  V30 1838 H 175.72 4.03446 2.81943 0
M  V30 1839 N 177.372 -0.689602 1.41712 0
M  V30 1840 C 178.597 -1.48329 1.44959 0
M  V30 1841 C 179.022 -1.8801 0.0581283 0
M  V30 1842 O 178.38 -1.55026 -0.940035 0
M  V30 1843 C 178.428 -2.71835 2.36935 0
M  V30 1844 O 177.532 -3.69549 1.8305 0
M  V30 1845 H 176.873 -0.446199 0.491734 0
M  V30 1846 H 179.403 -0.847127 1.86239 0
M  V30 1847 H 179.413 -3.20076 2.53013 0
M  V30 1848 H 178.088 -2.42291 3.38035 0
M  V30 1849 H 176.665 -3.2851 1.76452 0
M  V30 1850 N 178.85 -1.27639 -0.924453 0
M  V30 1851 C 179.78 -1.13166 -2.04244 0
M  V30 1852 C 180.761 -0.032256 -1.70069 0
M  V30 1853 O 181.946 -0.207328 -1.9309 0
M  V30 1854 C 179.076 -0.781496 -3.38393 0
M  V30 1855 C 178.03 -1.83449 -3.86692 0
M  V30 1856 C 177.356 -1.33822 -5.17683 0
M  V30 1857 C 178.656 -3.23917 -4.09726 0
M  V30 1858 H 180.35 -2.06689 -2.1661 0
M  V30 1859 H 177.896 -0.995136 -1.04082 0
M  V30 1860 H 179.849 -0.667057 -4.16087 0
M  V30 1861 H 178.573 0.189439 -3.2605 0
M  V30 1862 H 177.232 -1.93789 -3.11193 0
M  V30 1863 H 176.88 -0.35665 -5.01734 0
M  V30 1864 H 176.58 -2.04224 -5.50968 0
M  V30 1865 H 178.104 -1.23679 -5.97943 0
M  V30 1866 H 179.518 -3.16559 -4.77978 0
M  V30 1867 H 177.915 -3.92059 -4.54324 0
M  V30 1868 H 178.985 -3.68729 -3.14908 0
M  V30 1869 N 180.328 1.1314 -1.09713 0
M  V30 1870 C 181.576 1.84119 -0.833338 0
M  V30 1871 C 181.897 1.84097 0.642904 0
M  V30 1872 O 181.167 1.29881 1.46655 0
M  V30 1873 H 179.747 0.681766 -0.305293 0
M  V30 1874 H 182.409 1.37038 -1.38588 0
M  V30 1875 H 181.505 2.88543 -1.18951 0
M  V30 1876 N 181.806 0.884767 1.30421 0
M  V30 1877 C 182.736 0.367574 2.30589 0
M  V30 1878 C 183.717 -0.549464 1.60981 0
M  V30 1879 O 184.902 -0.46336 1.88591 0
M  V30 1880 C 182.032 -0.418944 3.44764 0
M  V30 1881 C 180.986 0.406316 4.26067 0
M  V30 1882 C 180.312 -0.506793 5.32293 0
M  V30 1883 C 181.612 1.64832 4.95608 0
M  V30 1884 H 183.306 1.20462 2.74097 0
M  V30 1885 H 180.852 0.580695 1.31772 0
M  V30 1886 H 182.805 -0.791395 4.13902 0
M  V30 1887 H 181.529 -1.28964 3.0006 0
M  V30 1888 H 180.188 0.760903 3.58617 0
M  V30 1889 H 179.836 -1.37519 4.83836 0
M  V30 1890 H 179.536 0.0415828 5.87585 0
M  V30 1891 H 181.06 -0.875764 6.04287 0
M  V30 1892 H 182.474 1.34646 5.57264 0
M  V30 1893 H 180.871 2.13688 5.60765 0
M  V30 1894 H 181.941 2.39284 4.21748 0
M  V30 1895 N 183.284 -1.43765 0.645699 0
M  V30 1896 C 184.532 -2.01499 0.155731 0
M  V30 1897 C 184.853 -1.51151 -1.232 0
M  V30 1898 O 184.123 -0.721044 -1.82148 0
M  V30 1899 H 182.703 -0.745003 0.0545817 0
M  V30 1900 H 185.365 -1.76075 0.835677 0
M  V30 1901 H 184.461 -3.1181 0.134577 0
M  V30 1902 N 184.763 -0.387143 -1.52771 0
M  V30 1903 C 186.011 0.195349 -2.01154 0
M  V30 1904 C 186.332 1.475 -1.27549 0
M  V30 1905 O 185.602 1.91878 -0.394924 0
M  V30 1906 H 184.182 0.075178 -0.743207 0
M  V30 1907 H 186.844 -0.518337 -1.87881 0
M  V30 1908 H 185.94 0.407096 -3.09434 0
M  V30 1909 N 186.241 1.57166 -0.116904 0
M  V30 1910 C 187.487 1.95412 0.542405 0
M  V30 1911 C 187.82 1.00019 1.66463 0
M  V30 1912 O 187.095 0.0370346 1.94465 0
M  V30 1913 C 187.378 3.43615 1.07708 0
M  V30 1914 C 187.231 4.49781 -0.0415868 0
M  V30 1915 C 188.55 3.93616 1.96861 0
M  V30 1916 H 185.669 0.710543 0.195696 0
M  V30 1917 H 188.311 1.89027 -0.192038 0
M  V30 1918 H 186.461 3.49187 1.70296 0
M  V30 1919 H 188.133 4.56308 -0.676793 0
M  V30 1920 H 186.376 4.28033 -0.705019 0
M  V30 1921 H 187.047 5.50733 0.373717 0
M  V30 1922 H 189.523 3.90335 1.44146 0
M  V30 1923 H 188.399 4.97838 2.3119 0
M  V30 1924 H 188.66 3.34188 2.89432 0
M  V30 1925 N 187.719 -0.156864 1.56817 0
M  V30 1926 C 188.949 -0.885031 1.86684 0
M  V30 1927 C 189.357 -1.75696 0.701954 0
M  V30 1928 O 188.7 -1.80569 -0.337732 0
M  V30 1929 C 188.762 -1.80092 3.11138 0
M  V30 1930 C 188.426 -1.10714 4.43386 0
M  V30 1931 C 189.423 -0.465714 5.1781 0
M  V30 1932 C 187.108 -1.09959 4.90117 0
M  V30 1933 C 189.102 0.174002 6.37162 0
M  V30 1934 C 186.789 -0.456055 6.09396 0
M  V30 1935 C 187.787 0.179622 6.82764 0
M  V30 1936 O 187.475 0.812975 7.99779 0
M  V30 1937 H 187.207 -0.261813 0.623242 0
M  V30 1938 H 189.761 -0.157383 2.04796 0
M  V30 1939 H 187.991 -2.56926 2.89009 0
M  V30 1940 H 189.68 -2.40018 3.27332 0
M  V30 1941 H 190.446 -0.463427 4.82781 0
M  V30 1942 H 186.325 -1.58378 4.3294 0
M  V30 1943 H 189.869 0.670765 6.94368 0
M  V30 1944 H 185.766 -0.455975 6.43888 0
M  V30 1945 H 186.534 0.71366 8.15383 0
M  V30 1946 N 189.197 -1.51736 -0.425897 0
M  V30 1947 C 190.446 -1.64201 -1.17136 0
M  V30 1948 C 190.759 -0.369705 -1.92074 0
M  V30 1949 O 191.965 -0.373898 -2.68913 0
M  V30 1950 C 190.421 -2.90035 -2.13091 0
M  V30 1951 C 190.029 -4.24312 -1.43747 0
M  V30 1952 C 191.773 -3.1186 -2.87999 0
M  V30 1953 C 189.68 -5.41285 -2.38253 0
M  V30 1954 H 188.61 -0.611624 -0.440944 0
M  V30 1955 H 191.261 -1.78212 -0.437328 0
M  V30 1956 H 189.643 -2.69684 -2.89977 0
M  V30 1957 H 190.817 -4.55086 -0.723408 0
M  V30 1958 H 189.132 -4.08456 -0.809465 0
M  V30 1959 H 191.729 -3.96427 -3.58817 0
M  V30 1960 H 192.072 -2.25403 -3.49999 0
M  V30 1961 H 192.605 -3.32605 -2.18217 0
M  V30 1962 H 189.344 -6.30037 -1.80925 0
M  V30 1963 H 188.864 -5.14872 -3.0768 0
M  V30 1964 H 190.543 -5.73694 -2.99139 0
M  V30 1965 N 190.675 0.682077 -1.42076 0
M  V30 1966 C 191.923 1.4393 -1.41876 0
M  V30 1967 C 192.244 1.94971 -0.0335599 0
M  V30 1968 O 191.514 1.72591 0.926773 0
M  V30 1969 H 190.094 0.534085 -0.522267 0
M  V30 1970 H 192.756 0.806427 -1.77434 0
M  V30 1971 H 191.852 2.29588 -2.11414 0
M  V30 1972 N 192.153 1.28127 0.917671 0
M  V30 1973 C 193.401 1.14825 1.66312 0
M  V30 1974 C 193.722 -0.304379 1.9261 0
M  V30 1975 O 192.992 -1.21149 1.53947 0
M  V30 1976 H 191.572 0.421953 0.616413 0
M  V30 1977 H 194.234 1.608 1.10134 0
M  V30 1978 H 193.33 1.68489 2.62712 0
M  V30 1979 N 193.631 -1.12557 1.10312 0
M  V30 1980 C 194.561 -2.20341 0.772798 0
M  V30 1981 C 195.542 -1.68198 -0.25365 0
M  V30 1982 O 196.727 -1.93831 -0.119699 0
M  V30 1983 C 193.857 -3.46709 0.202443 0
M  V30 1984 C 192.811 -4.11996 1.15943 0
M  V30 1985 C 192.137 -5.328 0.450345 0
M  V30 1986 C 193.437 -4.5828 2.50552 0
M  V30 1987 H 195.131 -2.48229 1.674 0
M  V30 1988 H 192.677 -1.19308 0.806326 0
M  V30 1989 H 194.63 -4.2138 -0.0407752 0
M  V30 1990 H 193.354 -3.18245 -0.734001 0
M  V30 1991 H 192.013 -3.39305 1.38808 0
M  V30 1992 H 191.661 -5.00602 -0.490531 0
M  V30 1993 H 191.361 -5.7743 1.08851 0
M  V30 1994 H 192.885 -6.10219 0.215642 0
M  V30 1995 H 194.299 -5.2433 2.31843 0
M  V30 1996 H 192.696 -5.13683 3.10242 0
M  V30 1997 H 193.766 -3.72329 3.10643 0
M  V30 1998 N 195.109 -0.891671 -1.2995 0
M  V30 1999 C 196.525 -0.58662 -1.48428 0
M  V30 2000 C 196.725 0.873951 -1.81561 0
M  V30 2001 O 195.781 1.65471 -1.90724 0
M  V30 2002 C 197.094 -1.50553 -2.60296 0
M  V30 2003 C 198.642 -1.50988 -2.74175 0
M  V30 2004 C 199.117 -2.41488 -3.89163 0
M  V30 2005 N 200.608 -2.39489 -3.96483 0
M  V30 2006 C 201.343 -3.06223 -4.84784 0
M  V30 2007 N 200.839 -3.82206 -5.77833 0
M  V30 2008 N 202.632 -2.95421 -4.78208 0
M  V30 2009 H 194.783 -1.83644 -1.06718 0
M  V30 2010 H 197.046 -0.786455 -0.529332 0
M  V30 2011 H 196.752 -2.54581 -2.42654 0
M  V30 2012 H 196.626 -1.22008 -3.56923 0
M  V30 2013 H 199.013 -0.47708 -2.91218 0
M  V30 2014 H 199.094 -1.83567 -1.78148 0
M  V30 2015 H 198.738 -3.44857 -3.72876 0
M  V30 2016 H 198.668 -2.06222 -4.84541 0
M  V30 2017 H 201.159 -1.84278 -3.29924 0
M  V30 2018 H 201.472 -4.302 -6.41988 0
M  V30 2019 H 199.817 -3.86313 -5.77743 0
M  V30 2020 H 203.008 -2.35581 -4.04499 0
M  V30 2021 H 203.181 -3.47704 -5.46814 0
M  V30 2022 N 196.587 1.43421 -0.653314 0
M  V30 2023 C 197.535 2.32546 0.0501531 0
M  V30 2024 C 198.529 1.48617 0.812985 0
M  V30 2025 O 199.735 1.64825 0.723375 0
M  V30 2026 H 196.11 0.751185 0.0350032 0
M  V30 2027 H 198.081 2.89602 -0.719261 0
M  V30 2028 C 196.83 3.32925 1.00279 0
M  V30 2029 H 196.153 3.97532 0.425236 0
M  V30 2030 H 197.593 3.9792 1.46409 0
M  V30 2031 C 196.052 2.63532 2.09886 0
M  V30 2032 O 196.582 2.45092 3.18265 0
M  V30 2033 N 194.788 2.22905 1.86445 0
M  V30 2034 H 194.335 2.38103 0.98309 0
M  V30 2035 H 194.293 1.76805 2.59976 0
M  V30 2036 N 198.065 0.39524 1.52563 0
M  V30 2037 C 199.013 -0.451859 2.28169 0
M  V30 2038 C 200.007 -1.05792 1.32304 0
M  V30 2039 O 201.213 -0.997718 1.49818 0
M  V30 2040 H 197.588 -0.164481 0.733792 0
M  V30 2041 H 199.559 0.207199 2.9768 0
M  V30 2042 C 198.308 -1.56385 3.10546 0
M  V30 2043 H 197.631 -1.10682 3.84174 0
M  V30 2044 H 199.071 -2.13067 3.66577 0
M  V30 2045 C 197.53 -2.52328 2.23231 0
M  V30 2046 O 198.06 -3.5588 1.86312 0
M  V30 2047 N 196.266 -2.22209 1.87274 0
M  V30 2048 H 195.813 -1.38033 2.17496 0
M  V30 2049 H 195.771 -2.86652 1.29143 0
M  V30 2050 N 199.544 -1.57102 0.125237 0
M  V30 2051 C 200.793 -1.94582 -0.531095 0
M  V30 2052 C 201.106 -1.01126 -1.6743 0
M  V30 2053 O 202.312 -1.28097 -2.39381 0
M  V30 2054 C 200.768 -3.45839 -0.996164 0
M  V30 2055 C 200.376 -4.47842 0.118926 0
M  V30 2056 C 202.12 -3.92227 -1.62352 0
M  V30 2057 C 200.027 -5.90284 -0.363192 0
M  V30 2058 H 198.957 -0.726391 -0.20217 0
M  V30 2059 H 201.608 -1.82339 0.206092 0
M  V30 2060 H 199.99 -3.53338 -1.78796 0
M  V30 2061 H 201.164 -4.52018 0.895358 0
M  V30 2062 H 199.479 -4.11243 0.653324 0
M  V30 2063 H 202.076 -4.96069 -1.99548 0
M  V30 2064 H 202.419 -3.32552 -2.50429 0
M  V30 2065 H 202.952 -3.87554 -0.897019 0
M  V30 2066 H 199.691 -6.53728 0.481679 0
M  V30 2067 H 199.211 -5.89515 -1.10597 0
M  V30 2068 H 200.89 -6.41752 -0.822377 0
M  V30 2069 N 201.022 0.148545 -1.56898 0
M  V30 2070 C 201.932 1.20293 -2.01412 0
M  V30 2071 C 202.948 1.47107 -0.929273 0
M  V30 2072 O 204.124 1.58807 -1.23863 0
M  V30 2073 C 201.189 2.51682 -2.38447 0
M  V30 2074 C 200.25 2.32529 -3.60872 0
M  V30 2075 C 199.483 3.57653 -3.96132 0
M  V30 2076 O 199.706 4.63771 -3.32073 0
M  V30 2077 O 198.64 3.50408 -4.89385 0
M  V30 2078 H 202.466 0.855025 -2.91416 0
M  V30 2079 H 200.051 0.357151 -1.45068 0
M  V30 2080 H 201.933 3.29147 -2.63135 0
M  V30 2081 H 200.608 2.86006 -1.51599 0
M  V30 2082 H 199.515 1.53019 -3.41373 0
M  V30 2083 H 200.848 2.03121 -4.48333 0
M  V30 2084 N 202.5 1.5196 0.417844 0
M  V30 2085 C 203.463 1.74065 1.49111 0
M  V30 2086 C 204.463 0.610537 1.48758 0
M  V30 2087 O 205.653 0.87832 1.50437 0
M  V30 2088 C 202.785 1.81502 2.88565 0
M  V30 2089 H 203.978 2.69869 1.30807 0
M  V30 2090 H 201.531 1.42244 0.647785 0
M  V30 2091 H 202.266 0.875813 3.1225 0
M  V30 2092 H 202.051 2.63651 2.90225 0
M  V30 2093 H 203.541 2.00376 3.66387 0
M  V30 2094 N 203.978 -0.674533 1.42435 0
M  V30 2095 C 205.224 -1.43671 1.43131 0
M  V30 2096 C 205.557 -1.94142 0.0476021 0
M  V30 2097 O 204.832 -1.70924 -0.928188 0
M  V30 2098 C 205.115 -2.63355 2.45594 0
M  V30 2099 C 204.968 -2.18514 3.93156 0
M  V30 2100 C 206.287 -3.65571 2.45043 0
M  V30 2101 H 203.406 -0.521077 0.521198 0
M  V30 2102 H 206.048 -0.766551 1.7385 0
M  V30 2103 H 204.198 -3.2053 2.19528 0
M  V30 2104 H 205.87 -1.66504 4.30202 0
M  V30 2105 H 204.113 -1.50086 4.07009 0
M  V30 2106 H 204.784 -3.04484 4.60428 0
M  V30 2107 H 207.26 -3.18113 2.68223 0
M  V30 2108 H 206.136 -4.46893 3.18713 0
M  V30 2109 H 206.397 -4.16716 1.47649 0
M  V30 2110 N 205.456 -1.28612 -0.910864 0
M  V30 2111 C 206.684 -1.18792 -1.69399 0
M  V30 2112 C 207.099 0.253039 -1.87097 0
M  V30 2113 O 206.456 1.17071 -1.40003 0
M  V30 2114 C 206.507 -1.88511 -3.08457 0
M  V30 2115 O 206.228 -3.26979 -2.91576 0
M  V30 2116 C 207.729 -1.85029 -4.02839 0
M  V30 2117 H 204.949 -0.412233 -0.529438 0
M  V30 2118 H 207.493 -1.69788 -1.13984 0
M  V30 2119 H 205.648 -1.41379 -3.60681 0
M  V30 2120 H 206.062 -3.61936 -3.79608 0
M  V30 2121 H 207.536 -2.38395 -4.97867 0
M  V30 2122 H 208.013 -0.823303 -4.31414 0
M  V30 2123 H 208.619 -2.31853 -3.56545 0
M  V30 2124 N 206.934 1.1197 -1.10907 0
M  V30 2125 C 207.881 2.17846 -0.762345 0
M  V30 2126 C 208.851 1.63995 0.263599 0
M  V30 2127 O 210.036 1.90273 0.141773 0
M  V30 2128 C 207.176 3.44487 -0.205651 0
M  V30 2129 C 206.289 4.12369 -1.28748 0
M  V30 2130 C 205.424 5.26674 -0.691919 0
M  V30 2131 C 204.463 5.86431 -1.75399 0
M  V30 2132 N 203.6 6.92142 -1.17833 0
M  V30 2133 H 208.44 2.46851 -1.6694 0
M  V30 2134 H 205.977 1.21188 -0.833776 0
M  V30 2135 H 207.935 4.16981 0.135037 0
M  V30 2136 H 206.565 3.15884 0.664613 0
M  V30 2137 H 205.617 3.38003 -1.74522 0
M  V30 2138 H 206.929 4.52844 -2.09125 0
M  V30 2139 H 206.083 6.05953 -0.300963 0
M  V30 2140 H 204.822 4.8749 0.143232 0
M  V30 2141 H 203.827 5.05835 -2.15432 0
M  V30 2142 H 205.052 6.27685 -2.59208 0
M  V30 2143 H 202.998 6.54985 -0.364725 0
M  V30 2144 H 202.915 7.31242 -1.91887 0
M  V30 2145 H 204.183 7.75237 -0.81408 0
M  V30 2146 N 208.412 0.89855 1.29475 0
M  V30 2147 C 209.342 0.39201 2.30186 0
M  V30 2148 C 210.323 -0.532359 1.61555 0
M  V30 2149 O 211.508 -0.443331 1.89072 0
M  V30 2150 C 208.638 -0.382353 3.45189 0
M  V30 2151 C 207.592 0.451483 4.25612 0
M  V30 2152 C 206.918 -0.450307 5.328 0
M  V30 2153 C 208.218 1.70079 4.93832 0
M  V30 2154 H 209.912 1.23362 2.72804 0
M  V30 2155 H 207.458 0.594638 1.31149 0
M  V30 2156 H 209.411 -0.747451 4.14718 0
M  V30 2157 H 208.135 -1.25774 3.01411 0
M  V30 2158 H 206.794 0.798897 3.57789 0
M  V30 2159 H 206.442 -1.32379 4.85268 0
M  V30 2160 H 206.142 0.103902 5.87508 0
M  V30 2161 H 207.666 -0.811623 6.05182 0
M  V30 2162 H 209.08 1.40549 5.55805 0
M  V30 2163 H 207.477 2.19623 5.58467 0
M  V30 2164 H 208.547 2.43744 4.19186 0
M  V30 2165 N 209.89 -1.43072 0.660911 0
M  V30 2166 C 210.82 -2.33497 -0.0122829 0
M  V30 2167 C 211.801 -1.49903 -0.803925 0
M  V30 2168 O 212.986 -1.78546 -0.763864 0
M  V30 2169 C 210.116 -3.33363 -0.973994 0
M  V30 2170 C 209.07 -4.27003 -0.291928 0
M  V30 2171 C 208.396 -5.16967 -1.36562 0
M  V30 2172 C 209.696 -5.15816 0.820462 0
M  V30 2173 H 211.39 -2.90038 0.742873 0
M  V30 2174 H 208.936 -1.39461 0.358688 0
M  V30 2175 H 210.889 -3.95524 -1.45392 0
M  V30 2176 H 209.613 -2.75095 -1.7604 0
M  V30 2177 H 208.272 -3.66217 0.167623 0
M  V30 2178 H 207.92 -4.55034 -2.14366 0
M  V30 2179 H 207.62 -5.80441 -0.914454 0
M  V30 2180 H 209.144 -5.82003 -1.84675 0
M  V30 2181 H 210.558 -5.71742 0.422366 0
M  V30 2182 H 208.955 -5.8805 1.19656 0
M  V30 2183 H 210.025 -4.55045 1.67518 0
M  V30 2184 N 211.368 -0.403325 -1.52352 0
M  V30 2185 C 212.315 0.425011 -2.26853 0
M  V30 2186 C 213.285 1.04598 -1.29029 0
M  V30 2187 O 214.47 1.07135 -1.57882 0
M  V30 2188 C 211.61 1.53888 -3.08889 0
M  V30 2189 C 210.723 0.939396 -4.21663 0
M  V30 2190 C 209.858 2.02547 -4.91068 0
M  V30 2191 C 208.897 1.40263 -5.95813 0
M  V30 2192 N 208.034 2.4286 -6.58759 0
M  V30 2193 H 212.874 -0.21674 -2.97211 0
M  V30 2194 H 210.411 -0.118722 -1.4662 0
M  V30 2195 H 212.369 2.19558 -3.54753 0
M  V30 2196 H 210.999 2.15074 -2.40714 0
M  V30 2197 H 210.051 0.171898 -3.80011 0
M  V30 2198 H 211.363 0.44436 -4.96817 0
M  V30 2199 H 210.517 2.75958 -5.40308 0
M  V30 2200 H 209.256 2.55415 -4.15469 0
M  V30 2201 H 208.261 0.653833 -5.45898 0
M  V30 2202 H 209.486 0.881719 -6.73352 0
M  V30 2203 H 207.432 2.94871 -5.85992 0
M  V30 2204 H 207.349 1.98152 -7.2957 0
M  V30 2205 H 208.617 3.15858 -7.12639 0
M  V30 2206 N 212.846 1.57033 -0.133567 0
M  V30 2207 C 213.776 2.1909 0.807567 0
M  V30 2208 C 214.757 1.13517 1.26681 0
M  V30 2209 O 215.942 1.41809 1.32679 0
M  V30 2210 C 213.072 2.80188 2.05212 0
M  V30 2211 C 212.026 3.91471 1.73015 0
M  V30 2212 C 211.352 4.39443 3.04622 0
M  V30 2213 C 212.652 5.12886 0.987168 0
M  V30 2214 H 214.346 2.97988 0.290403 0
M  V30 2215 H 211.892 1.43335 0.138239 0
M  V30 2216 H 213.845 3.22264 2.71521 0
M  V30 2217 H 212.569 1.98601 2.59278 0
M  V30 2218 H 211.228 3.49993 1.0909 0
M  V30 2219 H 210.876 3.54695 3.56651 0
M  V30 2220 H 210.576 5.14495 2.83847 0
M  V30 2221 H 212.1 4.8418 3.72024 0
M  V30 2222 H 213.514 5.51891 1.55208 0
M  V30 2223 H 211.911 5.93615 0.87985 0
M  V30 2224 H 212.981 4.84894 -0.0235286 0
M  V30 2225 N 214.325 -0.140222 1.56975 0
M  V30 2226 C 215.736 -0.699596 1.73097 0
M  V30 2227 C 216.087 -1.8134 0.749022 0
M  V30 2228 O 215.212 -2.16241 -0.0828503 0
M  V30 2229 C 215.807 -1.27582 3.1386 0
M  V30 2230 C 214.366 -1.78169 3.31561 0
M  V30 2231 C 213.513 -0.672855 2.69013 0
M  V30 2232 H 216.464 0.0855115 1.58469 0
M  V30 2233 H 216.485 -2.14561 3.14235 0
M  V30 2234 H 215.997 -0.464955 3.85305 0
M  V30 2235 H 214.098 -2.61801 2.65124 0
M  V30 2236 H 214.211 -1.90574 4.39566 0
M  V30 2237 H 212.575 -1.10118 2.29665 0
M  V30 2238 H 213.358 0.126679 3.43066 0
M  V30 2239 N 215.803 -1.52179 -0.40978 0
M  V30 2240 C 216.735 -1.71703 -1.51825 0
M  V30 2241 C 217.748 -0.597445 -1.51441 0
M  V30 2242 O 218.937 -0.872582 -1.55719 0
M  V30 2243 C 216.037 -1.74171 -2.90719 0
M  V30 2244 C 215.21 -3.03156 -3.15302 0
M  V30 2245 C 214.269 -2.97445 -4.34065 0
M  V30 2246 O 213.295 -3.71352 -4.31377 0
M  V30 2247 N 214.497 -2.15191 -5.39141 0
M  V30 2248 H 217.262 -2.67334 -1.35472 0
M  V30 2249 H 214.823 -1.50409 -0.599069 0
M  V30 2250 H 216.815 -1.67884 -3.68235 0
M  V30 2251 H 215.385 -0.860166 -3.00533 0
M  V30 2252 H 214.605 -3.23097 -2.25836 0
M  V30 2253 H 215.893 -3.88484 -3.28569 0
M  V30 2254 H 215.291 -1.54573 -5.44173 0
M  V30 2255 H 213.848 -2.1476 -6.15403 0
M  V30 2256 N 217.281 0.66697 -1.42791 0
M  V30 2257 C 218.231 1.77313 -1.43332 0
M  V30 2258 C 219.215 1.5801 -0.303586 0
M  V30 2259 O 220.407 1.68356 -0.546385 0
M  V30 2260 C 217.536 3.15822 -1.34578 0
M  V30 2261 C 216.622 3.40721 -2.52528 0
M  V30 2262 N 217.013 3.36162 -3.77927 0
M  V30 2263 C 215.311 3.71387 -2.46956 0
M  V30 2264 C 216.012 3.60762 -4.56318 0
M  V30 2265 N 214.988 3.81908 -3.86843 0
M  V30 2266 H 218.79 1.72193 -2.38174 0
M  V30 2267 H 216.304 0.868114 -1.3725 0
M  V30 2268 H 218.301 3.951 -1.33048 0
M  V30 2269 H 216.961 3.22133 -0.407453 0
M  V30 2270 H 217.972 3.15885 -4.10411 0
M  V30 2271 H 214.649 3.84897 -1.61743 0
M  V30 2272 H 216.039 3.63132 -5.65318 0
M  V30 2273 N 218.759 1.29093 0.90403 0
M  V30 2274 C 220.005 1.16986 1.65656 0
M  V30 2275 C 220.338 -0.278925 1.92186 0
M  V30 2276 O 219.613 -1.2019 1.5292 0
M  V30 2277 C 219.896 1.97908 3.0084 0
M  V30 2278 C 219.749 3.50903 2.81403 0
M  V30 2279 C 221.068 1.80208 4.01513 0
M  V30 2280 H 218.187 0.426346 0.601164 0
M  V30 2281 H 220.829 1.58518 1.04747 0
M  V30 2282 H 218.979 1.62616 3.52829 0
M  V30 2283 H 220.651 3.96153 2.36348 0
M  V30 2284 H 218.894 3.76045 2.1627 0
M  V30 2285 H 219.565 4.02791 3.77443 0
M  V30 2286 H 222.041 2.11025 3.58619 0
M  V30 2287 H 220.917 2.39184 4.94047 0
M  V30 2288 H 221.178 0.756119 4.35586 0
M  V30 2289 N 220.237 -1.11381 1.11499 0
M  V30 2290 C 221.167 -2.19509 0.796125 0
M  V30 2291 C 222.148 -1.68458 -0.235796 0
M  V30 2292 O 223.333 -1.93947 -0.0991344 0
M  V30 2293 C 220.463 -3.46475 0.239205 0
M  V30 2294 C 219.417 -4.10744 1.20307 0
M  V30 2295 C 218.743 -5.32293 0.50683 0
M  V30 2296 C 220.043 -4.55597 2.55399 0
M  V30 2297 H 221.737 -2.46439 1.70024 0
M  V30 2298 H 219.283 -1.18446 0.818935 0
M  V30 2299 H 221.236 -4.214 0.00392006 0
M  V30 2300 H 219.96 -3.19006 -0.700206 0
M  V30 2301 H 218.619 -3.37813 1.42399 0
M  V30 2302 H 218.267 -5.01095 -0.437408 0
M  V30 2303 H 217.967 -5.76243 1.1497 0
M  V30 2304 H 219.491 -6.09956 0.280351 0
M  V30 2305 H 220.905 -5.21841 2.37391 0
M  V30 2306 H 219.302 -5.10363 3.15673 0
M  V30 2307 H 220.372 -3.69013 3.14575 0
M  V30 2308 N 221.715 -0.905404 -1.28997 0
M  V30 2309 C 223.126 -0.581953 -1.77398 0
M  V30 2310 C 223.477 0.902552 -1.74208 0
M  V30 2311 O 222.602 1.70584 -1.33154 0
M  V30 2312 C 223.197 -1.04961 -3.22131 0
M  V30 2313 C 221.756 -0.777229 -3.68288 0
M  V30 2314 C 220.903 -1.22109 -2.48967 0
M  V30 2315 H 223.854 -1.08754 -1.15578 0
M  V30 2316 H 223.875 -0.387387 -3.78523 0
M  V30 2317 H 223.387 -2.13008 -3.24421 0
M  V30 2318 H 221.488 0.290383 -3.71467 0
M  V30 2319 H 221.601 -1.37911 -4.58822 0
M  V30 2320 H 219.965 -0.639971 -2.46529 0
M  V30 2321 H 220.748 -2.30972 -2.53982 0
M  V30 2322 N 223.193 1.4272 -0.668489 0
M  V30 2323 C 224.123 2.335 -0.000100175 0
M  V30 2324 C 225.104 1.50328 0.795964 0
M  V30 2325 O 226.289 1.78949 0.754385 0
M  V30 2326 C 223.419 3.33874 0.956302 0
M  V30 2327 C 222.373 4.27152 0.269278 0
M  V30 2328 C 221.699 5.17684 1.33818 0
M  V30 2329 C 222.999 5.15373 -0.847805 0
M  V30 2330 H 224.693 2.89639 -0.758244 0
M  V30 2331 H 222.239 1.39269 -0.366079 0
M  V30 2332 H 224.192 3.9629 1.43292 0
M  V30 2333 H 222.916 2.76025 1.74579 0
M  V30 2334 H 221.575 3.66123 -0.187042 0
M  V30 2335 H 221.223 4.56165 2.1195 0
M  V30 2336 H 220.923 5.80918 0.883659 0
M  V30 2337 H 222.447 5.82974 1.81586 0
M  V30 2338 H 223.861 5.7151 -0.452681 0
M  V30 2339 H 222.258 5.87407 -1.22773 0
M  V30 2340 H 223.328 4.5415 -1.69929 0
M  V30 2341 N 224.671 0.411399 1.52136 0
M  V30 2342 C 225.918 -0.163645 2.01838 0
M  V30 2343 C 226.246 -1.4495 1.29691 0
M  V30 2344 O 225.501 -1.91725 0.392431 0
M  V30 2345 C 225.8 -0.455872 3.54481 0
M  V30 2346 C 225.466 0.741055 4.44769 0
M  V30 2347 C 224.128 1.06936 4.69167 0
M  V30 2348 C 226.48 1.54075 4.97906 0
M  V30 2349 C 223.808 2.19851 5.43951 0
M  V30 2350 C 226.16 2.66067 5.73926 0
M  V30 2351 C 224.824 2.99381 5.96596 0
M  V30 2352 H 224.094 -0.0598821 0.738576 0
M  V30 2353 H 226.741 0.553283 1.83333 0
M  V30 2354 H 225.046 -1.2544 3.71177 0
M  V30 2355 H 226.743 -0.913802 3.90449 0
M  V30 2356 H 223.333 0.475192 4.25958 0
M  V30 2357 H 227.517 1.30033 4.78963 0
M  V30 2358 H 222.773 2.46006 5.59724 0
M  V30 2359 H 226.947 3.28419 6.14096 0
M  V30 2360 H 224.574 3.86992 6.54325 0
M  V30 2361 N 226.149 -1.5696 0.141893 0
M  V30 2362 C 227.397 -1.95573 -0.509484 0
M  V30 2363 C 227.718 -1.02746 -1.65736 0
M  V30 2364 O 226.988 -0.0880311 -1.95702 0
M  V30 2365 H 225.568 -0.722115 -0.191205 0
M  V30 2366 H 228.23 -1.93697 0.216196 0
M  V30 2367 H 227.326 -2.99171 -0.889 0
M  V30 2368 N 227.627 0.131896 -1.57047 0
M  V30 2369 C 228.557 1.16384 -2.02428 0
M  V30 2370 C 229.538 1.43936 -0.90644 0
M  V30 2371 O 230.723 1.54599 -1.17528 0
M  V30 2372 C 227.853 2.49328 -2.4177 0
M  V30 2373 C 226.807 2.36266 -3.56879 0
M  V30 2374 C 226.133 3.74057 -3.8208 0
M  V30 2375 C 227.433 1.834 -4.89042 0
M  V30 2376 H 229.127 0.786433 -2.88887 0
M  V30 2377 H 226.673 0.376855 -1.38981 0
M  V30 2378 H 228.626 3.21759 -2.7212 0
M  V30 2379 H 227.35 2.88934 -1.52266 0
M  V30 2380 H 226.009 1.66286 -3.26718 0
M  V30 2381 H 225.657 4.11125 -2.89803 0
M  V30 2382 H 225.357 3.66174 -4.59554 0
M  V30 2383 H 226.881 4.48012 -4.1487 0
M  V30 2384 H 228.295 2.45636 -5.18011 0
M  V30 2385 H 226.692 1.8637 -5.70426 0
M  V30 2386 H 227.762 0.790662 -4.7841 0
M  V30 2387 N 229.106 1.52395 0.401703 0
M  V30 2388 C 230.346 1.68498 1.15705 0
M  V30 2389 C 230.71 0.409748 1.87577 0
M  V30 2390 O 231.911 0.446983 2.65058 0
M  V30 2391 C 230.182 2.87789 2.11924 0
M  V30 2392 S 231.741 3.24415 2.95466 0
M  V30 2393 H 228.559 0.593267 0.391862 0
M  V30 2394 H 231.161 1.90408 0.443282 0
M  V30 2395 H 229.865 3.7884 1.57824 0
M  V30 2396 H 229.396 2.68175 2.87829 0
M  V30 2397 H 231.411 2.73614 4.13944 0
M  V30 2398 N 230.584 -0.659388 1.43143 0
M  V30 2399 C 231.514 -1.78422 1.50625 0
M  V30 2400 C 232.495 -1.66216 0.361443 0
M  V30 2401 O 233.68 -1.85404 0.577834 0
M  V30 2402 C 230.81 -3.16815 1.42287 0
M  V30 2403 C 229.764 -3.43777 2.54954 0
M  V30 2404 C 229.09 -4.81905 2.31671 0
M  V30 2405 C 230.39 -3.39134 3.97222 0
M  V30 2406 H 232.084 -1.72417 2.44771 0
M  V30 2407 H 229.63 -0.828084 1.17808 0
M  V30 2408 H 231.583 -3.95253 1.46127 0
M  V30 2409 H 230.307 -3.23534 0.446435 0
M  V30 2410 H 228.966 -2.67707 2.50457 0
M  V30 2411 H 228.614 -4.85294 1.32284 0
M  V30 2412 H 228.314 -5.00906 3.07192 0
M  V30 2413 H 229.838 -5.62609 2.37284 0
M  V30 2414 H 231.252 -4.07518 4.03239 0
M  V30 2415 H 229.649 -3.69671 4.72719 0
M  V30 2416 H 230.719 -2.37426 4.22797 0
M  V30 2417 N 232.062 -1.29571 -0.897171 0
M  V30 2418 C 233.31 -1.17456 -1.64464 0
M  V30 2419 C 233.631 0.273698 -1.9307 0
M  V30 2420 O 232.901 1.18684 -1.55855 0
M  V30 2421 H 231.481 -0.431706 -0.609622 0
M  V30 2422 H 234.143 -1.62531 -1.07562 0
M  V30 2423 H 233.239 -1.72648 -2.59998 0
M  V30 2424 N 233.54 1.10788 -1.12088 0
M  V30 2425 C 234.786 1.8313 -0.885148 0
M  V30 2426 C 235.141 1.8336 0.582839 0
M  V30 2427 O 234.434 1.28062 1.42516 0
M  V30 2428 C 234.628 3.29294 -1.38926 0
M  V30 2429 C 234.457 3.43302 -2.90472 0
M  V30 2430 C 233.227 3.55928 -3.58669 0
M  V30 2431 C 235.425 3.37014 -3.88492 0
M  V30 2432 N 233.407 3.58475 -4.98366 0
M  V30 2433 C 234.778 3.46263 -5.14298 0
M  V30 2434 C 236.833 3.20589 -3.80955 0
M  V30 2435 C 235.536 3.4078 -6.33452 0
M  V30 2436 C 237.562 3.16427 -4.99628 0
M  V30 2437 C 236.924 3.26253 -6.2429 0
M  V30 2438 H 233.023 0.685054 -0.377128 0
M  V30 2439 H 235.607 1.3251 -1.4265 0
M  V30 2440 H 233.778 3.78416 -0.874999 0
M  V30 2441 H 235.51 3.89578 -1.09596 0
M  V30 2442 H 232.265 3.58779 -3.09151 0
M  V30 2443 H 232.689 3.6337 -5.71219 0
M  V30 2444 H 237.331 3.11873 -2.85474 0
M  V30 2445 H 235.049 3.48263 -7.29204 0
M  V30 2446 H 238.635 3.04874 -4.95523 0
M  V30 2447 H 237.515 3.2303 -7.14578 0
M  V30 2448 N 235.018 0.912232 1.28515 0
M  V30 2449 C 236.429 0.591352 1.77087 0
M  V30 2450 C 236.78 -0.8933 1.74684 0
M  V30 2451 O 235.905 -1.69876 1.34056 0
M  V30 2452 C 236.5 1.06668 3.2157 0
M  V30 2453 C 235.059 0.79675 3.67871 0
M  V30 2454 C 234.206 1.23427 2.48316 0
M  V30 2455 H 237.157 1.09365 1.15 0
M  V30 2456 H 237.178 0.407455 3.78312 0
M  V30 2457 H 236.69 2.14726 3.23287 0
M  V30 2458 H 234.791 -0.270679 3.71616 0
M  V30 2459 H 234.904 1.40343 4.58084 0
M  V30 2460 H 233.268 0.653036 2.46186 0
M  V30 2461 H 234.051 2.32316 2.52753 0
M  V30 2462 N 236.496 -1.42363 0.676048 0
M  V30 2463 C 237.459 -2.29199 0.00766941 0
M  V30 2464 C 238.459 -1.43389 -0.727745 0
M  V30 2465 O 239.649 -1.64764 -0.56556 0
M  V30 2466 C 236.781 -3.2591 -0.999785 0
M  V30 2467 H 237.974 -2.89794 0.771988 0
M  V30 2468 H 235.527 -1.50024 0.438468 0
M  V30 2469 H 236.262 -2.70256 -1.79255 0
M  V30 2470 H 236.047 -3.89202 -0.475829 0
M  V30 2471 H 237.537 -3.91028 -1.46583 0
M  V30 2472 N 237.974 -0.419461 -1.51915 0
M  V30 2473 C 239.251 0.211999 -1.94448 0
M  V30 2474 C 239.631 1.61703 -1.35703 0
M  V30 2475 O 238.979 2.22102 -0.536931 0
M  V30 2476 C 239.189 0.207872 -3.4838 0
M  V30 2477 C 240.537 0.422192 -4.22496 0
M  V30 2478 O 241.561 0.286778 -3.55044 0
M  V30 2479 O 240.42 0.690009 -5.42126 0
M  V30 2480 H 237.514 0.139586 -0.815135 0
M  V30 2481 H 240.06 -0.476151 -1.62883 0
M  V30 2482 H 238.832 -0.775102 -3.83546 0
M  V30 2483 H 238.455 0.939688 -3.86336 0
M  V30 2484 N 239.452 1.56882 -0.150215 0
M  V30 2485 C 240.4 2.18214 0.805313 0
M  V30 2486 C 241.394 1.14006 1.25296 0
M  V30 2487 O 242.6 1.3225 1.22107 0
M  V30 2488 H 238.975 0.698762 0.277913 0
M  V30 2489 H 240.946 2.97231 0.263862 0
M  V30 2490 C 239.695 2.82065 2.03309 0
M  V30 2491 H 239.018 3.61968 1.69763 0
M  V30 2492 H 240.458 3.28477 2.68103 0
M  V30 2493 C 238.917 1.80739 2.84315 0
M  V30 2494 O 239.447 1.27983 3.80767 0
M  V30 2495 N 237.653 1.4997 2.48913 0
M  V30 2496 H 237.2 1.93062 1.70542 0
M  V30 2497 H 237.158 0.824217 3.03404 0
M  V30 2498 N 240.93 -0.123565 1.57115 0
M  V30 2499 C 242.341 -0.681198 1.73829 0
M  V30 2500 C 242.692 -1.80535 0.768214 0
M  V30 2501 O 241.817 -2.16317 -0.0599103 0
M  V30 2502 C 242.412 -1.24246 3.15196 0
M  V30 2503 C 240.971 -1.74643 3.33432 0
M  V30 2504 C 240.118 -0.644284 2.69711 0
M  V30 2505 H 243.069 0.102315 1.5837 0
M  V30 2506 H 243.09 -2.11216 3.16493 0
M  V30 2507 H 242.602 -0.424062 3.85776 0
M  V30 2508 H 240.703 -2.58974 2.67886 0
M  V30 2509 H 240.816 -1.85902 4.41562 0
M  V30 2510 H 239.18 -1.07676 2.3082 0
M  V30 2511 H 239.963 0.163058 3.42913 0
M  V30 2512 N 242.408 -1.52605 -0.393616 0
M  V30 2513 C 243.685 -1.58001 -1.15304 0
M  V30 2514 C 244.065 -0.370385 -2.07825 0
M  V30 2515 O 243.413 0.641638 -2.19306 0
M  V30 2516 C 243.623 -2.91652 -1.91677 0
M  V30 2517 C 244.971 -3.4522 -2.47201 0
M  V30 2518 O 245.995 -2.93495 -2.01839 0
M  V30 2519 O 244.854 -4.35579 -3.3005 0
M  V30 2520 H 241.948 -0.637068 -0.527327 0
M  V30 2521 H 244.494 -1.64939 -0.399141 0
M  V30 2522 H 243.266 -3.71136 -1.23992 0
M  V30 2523 H 242.889 -2.88077 -2.74039 0
M  V30 2524 N 243.887 0.651787 -1.4349 0
M  V30 2525 C 244.817 1.77621 -1.51569 0
M  V30 2526 C 245.798 1.66022 -0.370253 0
M  V30 2527 O 246.983 1.85095 -0.587658 0
M  V30 2528 C 244.113 3.16056 -1.43966 0
M  V30 2529 C 243.067 3.4242 -2.56774 0
M  V30 2530 C 242.393 4.8067 -2.34223 0
M  V30 2531 C 243.693 3.37023 -3.99015 0
M  V30 2532 H 245.387 1.71117 -2.45681 0
M  V30 2533 H 242.933 0.821825 -1.18246 0
M  V30 2534 H 244.886 3.94472 -1.48221 0
M  V30 2535 H 243.61 3.23293 -0.463586 0
M  V30 2536 H 242.269 2.66375 -2.51873 0
M  V30 2537 H 241.917 4.84585 -1.34856 0
M  V30 2538 H 241.617 4.9927 -3.09844 0
M  V30 2539 H 243.141 5.61342 -2.40265 0
M  V30 2540 H 244.555 4.05374 -4.05395 0
M  V30 2541 H 242.952 3.67159 -4.74673 0
M  V30 2542 H 244.022 2.3518 -4.2405 0
M  V30 2543 N 245.365 1.30045 0.890287 0
M  V30 2544 C 246.312 1.15976 1.99545 0
M  V30 2545 C 247.282 0.0506202 1.66023 0
M  V30 2546 O 248.467 0.219847 1.89529 0
M  V30 2547 C 245.607 0.852054 3.34416 0
M  V30 2548 C 244.72 2.04255 3.80662 0
M  V30 2549 C 243.855 1.6734 5.04154 0
M  V30 2550 C 242.894 2.82916 5.42794 0
M  V30 2551 N 242.031 2.46333 6.57468 0
M  V30 2552 H 246.871 2.10524 2.10911 0
M  V30 2553 H 244.408 1.04749 1.03276 0
M  V30 2554 H 246.366 0.654296 4.12037 0
M  V30 2555 H 244.996 -0.0565502 3.2275 0
M  V30 2556 H 244.048 2.35172 2.98995 0
M  V30 2557 H 245.36 2.90826 4.05242 0
M  V30 2558 H 244.514 1.43908 5.89386 0
M  V30 2559 H 243.253 0.779308 4.81433 0
M  V30 2560 H 242.258 3.0702 4.56091 0
M  V30 2561 H 243.483 3.73004 5.6749 0
M  V30 2562 H 241.429 1.59423 6.36334 0
M  V30 2563 H 241.346 3.26436 6.81891 0
M  V30 2564 H 242.614 2.26244 7.45945 0
M  V30 2565 N 246.843 -1.10192 1.12674 0
M  V30 2566 C 248.254 -1.63707 0.897604 0
M  V30 2567 C 248.605 -1.87812 -0.567546 0
M  V30 2568 O 247.73 -1.62196 -1.43253 0
M  V30 2569 C 248.325 -2.974 1.62292 0
M  V30 2570 C 246.884 -3.47772 1.43986 0
M  V30 2571 C 246.031 -2.22332 1.65722 0
M  V30 2572 H 248.982 -0.936587 1.28116 0
M  V30 2573 H 249.003 -3.64986 1.07541 0
M  V30 2574 H 248.515 -2.79824 2.68924 0
M  V30 2575 H 246.616 -3.70487 0.396206 0
M  V30 2576 H 246.729 -4.25723 2.19765 0
M  V30 2577 H 245.093 -2.30599 1.08149 0
M  V30 2578 H 245.876 -2.07285 2.73657 0
M  V30 2579 N 248.321 -0.919034 -1.28029 0
M  V30 2580 C 249.737 -0.617972 -1.4715 0
M  V30 2581 C 249.937 0.835242 -1.83374 0
M  V30 2582 O 248.993 1.61388 -1.94191 0
M  V30 2583 C 250.306 -1.56041 -2.57044 0
M  V30 2584 C 251.854 -1.56769 -2.7091 0
M  V30 2585 C 252.329 -2.49688 -3.83953 0
M  V30 2586 N 253.82 -2.47845 -3.91314 0
M  V30 2587 C 254.555 -3.16437 -4.78179 0
M  V30 2588 N 254.051 -3.94376 -5.69596 0
M  V30 2589 N 255.844 -3.05498 -4.71834 0
M  V30 2590 H 247.995 -1.85866 -1.02798 0
M  V30 2591 H 250.258 -0.797506 -0.512531 0
M  V30 2592 H 249.964 -2.59671 -2.372 0
M  V30 2593 H 249.838 -1.29551 -3.54255 0
M  V30 2594 H 252.225 -0.538745 -2.90141 0
M  V30 2595 H 252.306 -1.87305 -1.74214 0
M  V30 2596 H 251.95 -3.52688 -3.65477 0
M  V30 2597 H 251.88 -2.16453 -4.80058 0
M  V30 2598 H 254.371 -1.91234 -3.25941 0
M  V30 2599 H 254.684 -4.43721 -6.32718 0
M  V30 2600 H 253.029 -3.98481 -5.69419 0
M  V30 2601 H 256.22 -2.44108 -3.99411 0
M  V30 2602 H 256.393 -3.59225 -5.39316 0
M  V30 2603 N 249.799 1.42003 -0.683588 0
M  V30 2604 C 250.729 2.33487 -0.024866 0
M  V30 2605 C 251.71 1.51163 0.779975 0
M  V30 2606 O 252.895 1.79739 0.735362 0
M  V30 2607 C 250.025 3.3487 0.920836 0
M  V30 2608 C 248.979 4.27414 0.223958 0
M  V30 2609 C 248.305 5.19074 1.2832 0
M  V30 2610 C 249.605 5.14445 -0.90242 0
M  V30 2611 H 251.299 2.88819 -0.788921 0
M  V30 2612 H 248.845 1.38873 -0.38083 0
M  V30 2613 H 250.798 3.97787 1.39081 0
M  V30 2614 H 249.522 2.77861 1.71642 0
M  V30 2615 H 248.181 3.65904 -0.225864 0
M  V30 2616 H 247.829 4.58387 2.071 0
M  V30 2617 H 247.529 5.81822 0.821995 0
M  V30 2618 H 249.053 5.84867 1.75392 0
M  V30 2619 H 250.467 5.70998 -0.513272 0
M  V30 2620 H 248.864 5.86072 -1.28997 0
M  V30 2621 H 249.934 4.52322 -1.74737 0
M  V30 2622 N 251.277 0.427512 1.51691 0
M  V30 2623 C 252.688 -0.0378867 1.86662 0
M  V30 2624 C 253.039 -1.42819 1.34525 0
M  V30 2625 O 252.164 -2.05037 0.692014 0
M  V30 2626 C 252.759 -0.0755266 3.38716 0
M  V30 2627 C 251.318 -0.485309 3.73258 0
M  V30 2628 C 250.465 0.328399 2.75349 0
M  V30 2629 H 253.416 0.64379 1.45055 0
M  V30 2630 H 253.437 -0.887056 3.70016 0
M  V30 2631 H 252.949 0.936487 3.76632 0
M  V30 2632 H 251.05 -1.50329 3.40928 0
M  V30 2633 H 251.163 -0.21693 4.78609 0
M  V30 2634 H 249.527 -0.211905 2.53817 0
M  V30 2635 H 250.31 1.3391 3.16106 0
M  V30 2636 N 252.755 -1.56801 0.158532 0
M  V30 2637 C 253.718 -2.16138 -0.762705 0
M  V30 2638 C 254.718 -1.1061 -1.16713 0
M  V30 2639 O 255.908 -1.36191 -1.08617 0
M  V30 2640 C 253.04 -2.73386 -2.03649 0
M  V30 2641 H 254.233 -2.98886 -0.246354 0
M  V30 2642 H 251.786 -1.56035 -0.0909744 0
M  V30 2643 H 252.521 -1.94335 -2.59623 0
M  V30 2644 H 252.306 -3.50601 -1.75559 0
M  V30 2645 H 253.796 -3.19065 -2.6942 0
M  V30 2646 N 254.233 0.115231 -1.57178 0
M  V30 2647 C 255.458 0.840354 -1.89612 0
M  V30 2648 C 255.883 1.72464 -0.750845 0
M  V30 2649 O 255.241 1.78826 0.298478 0
M  V30 2650 C 255.289 1.64654 -3.20814 0
M  V30 2651 O 254.393 2.7538 -3.06985 0
M  V30 2652 H 253.734 0.232158 -0.622092 0
M  V30 2653 H 256.264 0.0964977 -2.04372 0
M  V30 2654 H 256.274 2.03499 -3.53627 0
M  V30 2655 H 254.949 0.997416 -4.03763 0
M  V30 2656 H 253.526 2.3971 -2.85646 0
M  V30 2657 N 255.711 1.52812 0.385517 0
M  V30 2658 C 256.96 1.67249 1.12741 0
M  V30 2659 C 257.273 0.4205 1.91027 0
M  V30 2660 O 258.479 0.445064 2.67827 0
M  V30 2661 C 256.935 2.95583 2.05326 0
M  V30 2662 C 256.543 4.27974 1.32447 0
M  V30 2663 C 258.287 3.19386 2.7963 0
M  V30 2664 C 256.194 5.47412 2.23818 0
M  V30 2665 H 255.124 0.6231 0.424573 0
M  V30 2666 H 257.775 1.79309 0.389924 0
M  V30 2667 H 256.157 2.77277 2.82725 0
M  V30 2668 H 257.331 4.56844 0.602495 0
M  V30 2669 H 255.646 4.10459 0.700885 0
M  V30 2670 H 258.243 4.05801 3.48181 0
M  V30 2671 H 258.586 2.34604 3.43899 0
M  V30 2672 H 259.119 3.38274 2.09322 0
M  V30 2673 H 255.858 6.34612 1.64157 0
M  V30 2674 H 255.378 5.22849 2.93921 0
M  V30 2675 H 257.057 5.81423 2.83824 0
M  V30 2676 N 257.189 -0.644168 1.43834 0
M  V30 2677 C 258.119 -1.76814 1.52509 0
M  V30 2678 C 259.1 -1.65823 0.379052 0
M  V30 2679 O 260.285 -1.84781 0.597466 0
M  V30 2680 C 257.415 -3.15288 1.4564 0
M  V30 2681 C 256.369 -3.41053 2.58586 0
M  V30 2682 C 255.695 -4.79421 2.36769 0
M  V30 2683 C 256.995 -3.34902 4.00797 0
M  V30 2684 H 258.689 -1.69812 2.46586 0
M  V30 2685 H 256.235 -0.815542 1.1868 0
M  V30 2686 H 258.188 -3.93681 1.50311 0
M  V30 2687 H 256.912 -3.23043 0.480725 0
M  V30 2688 H 255.571 -2.65035 2.53282 0
M  V30 2689 H 255.219 -4.83863 1.37424 0
M  V30 2690 H 254.919 -4.9762 3.12487 0
M  V30 2691 H 256.443 -5.6006 2.43238 0
M  V30 2692 H 257.857 -4.03218 4.07539 0
M  V30 2693 H 256.254 -3.64637 4.76613 0
M  V30 2694 H 257.324 -2.32928 4.25291 0
M  V30 2695 N 258.668 -1.30515 -0.883378 0
M  V30 2696 C 259.914 -1.19607 -1.63774 0
M  V30 2697 C 260.247 0.248314 -1.92606 0
M  V30 2698 O 259.522 1.17742 -1.54813 0
M  V30 2699 C 259.805 -2.02669 -2.97653 0
M  V30 2700 C 259.658 -3.55335 -2.75784 0
M  V30 2701 C 260.977 -1.86573 -3.98596 0
M  V30 2702 H 258.096 -0.435856 -0.594305 0
M  V30 2703 H 260.738 -1.60165 -1.02212 0
M  V30 2704 H 258.888 -1.68208 -3.50197 0
M  V30 2705 H 260.56 -3.99863 -2.30016 0
M  V30 2706 H 258.803 -3.79438 -2.1026 0
M  V30 2707 H 259.474 -4.08745 -3.70988 0
M  V30 2708 H 261.95 -2.16703 -3.55217 0
M  V30 2709 H 260.826 -2.47014 -4.90179 0
M  V30 2710 H 261.087 -0.825321 -4.34328 0
M  V30 2711 N 260.146 1.09593 -1.13257 0
M  V30 2712 C 261.096 2.14345 -0.777179 0
M  V30 2713 C 262.08 1.59277 0.227966 0
M  V30 2714 O 263.272 1.76971 0.0321413 0
M  V30 2715 C 260.401 3.42439 -0.242991 0
M  V30 2716 C 259.487 4.04419 -1.27694 0
M  V30 2717 N 259.878 4.40979 -2.47732 0
M  V30 2718 C 258.176 4.31596 -1.12432 0
M  V30 2719 C 258.877 4.89784 -3.13826 0
M  V30 2720 N 257.853 4.87133 -2.41252 0
M  V30 2721 H 261.655 2.40415 -1.69049 0
M  V30 2722 H 259.169 1.26803 -1.01463 0
M  V30 2723 H 261.166 4.16889 0.0298496 0
M  V30 2724 H 259.826 3.17824 0.66467 0
M  V30 2725 H 260.837 4.32396 -2.85051 0
M  V30 2726 H 257.514 4.16595 -0.274684 0
M  V30 2727 H 258.904 5.2755 -4.16102 0
M  V30 2728 N 261.624 0.925811 1.2754 0
M  V30 2729 C 262.534 0.428993 2.30644 0
M  V30 2730 C 263.55 -0.489387 1.66976 0
M  V30 2731 O 264.726 -0.372653 1.97922 0
M  V30 2732 C 261.791 -0.311967 3.45294 0
M  V30 2733 C 260.852 0.641098 4.24486 0
M  V30 2734 C 260.085 -0.0645955 5.33661 0
M  V30 2735 O 260.308 -1.28429 5.55754 0
M  V30 2736 O 259.242 0.606265 5.98839 0
M  V30 2737 H 263.068 1.28504 2.75173 0
M  V30 2738 H 260.653 0.691086 1.32455 0
M  V30 2739 H 262.535 -0.729972 4.15029 0
M  V30 2740 H 261.21 -1.14365 3.02824 0
M  V30 2741 H 260.117 1.10874 3.57292 0
M  V30 2742 H 261.45 1.43995 4.70666 0
M  V30 2743 N 263.102 -1.41638 0.69111 0
M  V30 2744 C 264.05 -2.32597 0.0115199 0
M  V30 2745 C 265.044 -1.5072 -0.773296 0
M  V30 2746 O 266.25 -1.66685 -0.67942 0
M  V30 2747 H 262.625 -0.751849 -0.0150746 0
M  V30 2748 H 264.596 -2.87593 0.795791 0
M  V30 2749 C 263.345 -3.35467 -0.914172 0
M  V30 2750 H 262.668 -3.9852 -0.319687 0
M  V30 2751 H 264.108 -4.01662 -1.35808 0
M  V30 2752 C 262.567 -2.69004 -2.02826 0
M  V30 2753 O 263.097 -2.53444 -3.11655 0
M  V30 2754 N 261.303 -2.2777 -1.80469 0
M  V30 2755 H 260.85 -2.40626 -0.919615 0
M  V30 2756 H 260.808 -1.83635 -2.55197 0
M  V30 2757 N 264.58 -0.43555 -1.51462 0
M  V30 2758 C 265.805 0.132627 -2.06976 0
M  V30 2759 C 266.23 1.35848 -1.30104 0
M  V30 2760 O 265.588 1.78112 -0.338493 0
M  V30 2761 C 265.636 0.43523 -3.57964 0
M  V30 2762 O 264.74 1.52198 -3.83288 0
M  V30 2763 H 264.081 0.00265 -0.663995 0
M  V30 2764 H 266.611 -0.616369 -1.95095 0
M  V30 2765 H 266.621 0.686206 -4.02188 0
M  V30 2766 H 265.296 -0.460739 -4.1334 0
M  V30 2767 H 263.873 1.2611 -3.50928 0
M  V30 2768 N 266.058 1.56714 -0.166846 0
M  V30 2769 C 267.288 2.00828 0.48494 0
M  V30 2770 C 267.696 1.04612 1.57648 0
M  V30 2771 O 267.039 0.0383201 1.8366 0
M  V30 2772 C 267.101 3.4137 1.12723 0
M  V30 2773 C 266.765 4.56654 0.177886 0
M  V30 2774 C 267.762 5.16402 -0.60207 0
M  V30 2775 C 265.447 5.02244 0.0750139 0
M  V30 2776 C 267.441 6.20167 -1.47215 0
M  V30 2777 C 265.128 6.05859 -0.798649 0
M  V30 2778 C 266.126 6.64691 -1.57082 0
M  V30 2779 O 265.814 7.66297 -2.42989 0
M  V30 2780 H 265.546 0.663587 0.128953 0
M  V30 2781 H 268.1 2.03692 -0.264365 0
M  V30 2782 H 266.33 3.35406 1.92457 0
M  V30 2783 H 268.019 3.69466 1.68076 0
M  V30 2784 H 268.785 4.82065 -0.53274 0
M  V30 2785 H 264.664 4.56167 0.665812 0
M  V30 2786 H 268.208 6.66016 -2.07531 0
M  V30 2787 H 264.105 6.39621 -0.869199 0
M  V30 2788 H 264.873 7.83601 -2.36455 0
M  V30 2789 N 267.536 -0.106894 1.57237 0
M  V30 2790 C 268.468 -1.15646 1.97885 0
M  V30 2791 C 269.481 -1.36981 0.879779 0
M  V30 2792 O 270.67 -1.35841 1.15799 0
M  V30 2793 C 267.77 -2.51425 2.27241 0
M  V30 2794 C 266.943 -2.50529 3.58545 0
M  V30 2795 C 266.002 -3.68145 3.75973 0
M  V30 2796 O 265.028 -3.51176 4.47956 0
M  V30 2797 N 266.23 -4.87177 3.15656 0
M  V30 2798 H 268.995 -0.81059 2.8853 0
M  V30 2799 H 266.556 -0.296024 1.59171 0
M  V30 2800 H 268.548 -3.28689 2.36105 0
M  V30 2801 H 267.118 -2.78147 1.42663 0
M  V30 2802 H 266.338 -1.58894 3.60758 0
M  V30 2803 H 267.626 -2.46997 4.44826 0
M  V30 2804 H 267.024 -5.03868 2.57165 0
M  V30 2805 H 265.581 -5.62075 3.30023 0
M  V30 2806 N 269.014 -1.53014 -0.377408 0
M  V30 2807 C 270.425 -1.60438 -0.954798 0
M  V30 2808 C 270.776 -0.464418 -1.90624 0
M  V30 2809 O 269.901 0.41087 -2.12464 0
M  V30 2810 C 270.496 -2.90797 -1.73847 0
M  V30 2811 C 269.055 -3.00595 -2.26538 0
M  V30 2812 C 268.202 -2.55645 -1.07429 0
M  V30 2813 H 271.153 -1.57926 -0.156575 0
M  V30 2814 H 271.174 -2.77935 -2.5987 0
M  V30 2815 H 270.686 -3.73746 -1.04574 0
M  V30 2816 H 268.787 -2.22208 -2.99089 0
M  V30 2817 H 268.9 -4.05456 -2.5523 0
M  V30 2818 H 267.264 -2.10239 -1.43777 0
M  V30 2819 H 268.047 -3.41 -0.396728 0
M  V30 2820 N 270.492 0.636531 -1.44174 0
M  V30 2821 C 271.422 1.76003 -1.53444 0
M  V30 2822 C 272.403 1.65619 -0.387841 0
M  V30 2823 O 273.588 1.84461 -0.607257 0
M  V30 2824 C 270.718 3.14511 -1.4731 0
M  V30 2825 C 269.672 3.39677 -2.60391 0
M  V30 2826 C 268.998 4.78159 -2.39308 0
M  V30 2827 C 270.298 3.32772 -4.02567 0
M  V30 2828 H 271.992 1.68501 -2.47483 0
M  V30 2829 H 269.538 0.809237 -1.19111 0
M  V30 2830 H 271.491 3.92878 -1.52397 0
M  V30 2831 H 270.215 3.22783 -0.49785 0
M  V30 2832 H 268.874 2.63688 -2.54684 0
M  V30 2833 H 268.522 4.83128 -1.39988 0
M  V30 2834 H 268.222 4.95956 -3.15122 0
M  V30 2835 H 269.746 5.58762 -2.46205 0
M  V30 2836 H 271.16 4.01051 -4.09672 0
M  V30 2837 H 269.557 3.62104 -4.7854 0
M  V30 2838 H 270.627 2.30669 -4.2652 0
M  V30 2839 N 271.97 1.30982 0.876444 0
M  V30 2840 C 273.247 1.10942 1.61094 0
M  V30 2841 C 273.627 -0.338223 2.08373 0
M  V30 2842 O 272.975 -1.33122 1.85717 0
M  V30 2843 C 273.185 2.11789 2.77392 0
M  V30 2844 C 274.533 2.43965 3.47514 0
M  V30 2845 O 275.557 2.10166 2.87591 0
M  V30 2846 O 274.416 3.01817 4.55597 0
M  V30 2847 H 271.51 0.42667 0.708436 0
M  V30 2848 H 274.056 1.42438 0.922474 0
M  V30 2849 H 272.828 3.09194 2.39823 0
M  V30 2850 H 272.451 1.81161 3.5393 0
M  V30 2851 N 273.449 -1.08991 1.13837 0
M  V30 2852 C 274.396 -2.15748 0.819835 0
M  V30 2853 C 275.366 -1.64636 -0.220026 0
M  V30 2854 O 276.551 -1.90582 -0.0912757 0
M  V30 2855 C 273.691 -3.4382 0.296913 0
M  V30 2856 C 272.804 -4.0881 1.39636 0
M  V30 2857 C 271.939 -5.24655 0.831314 0
M  V30 2858 C 270.978 -5.81575 1.90886 0
M  V30 2859 N 270.115 -6.88774 1.36142 0
M  V30 2860 H 274.955 -2.42338 1.73426 0
M  V30 2861 H 272.492 -1.18935 0.865613 0
M  V30 2862 H 274.45 -4.17193 -0.0244339 0
M  V30 2863 H 273.08 -3.17535 -0.580628 0
M  V30 2864 H 272.132 -3.33258 1.83422 0
M  V30 2865 H 273.444 -4.47141 2.21058 0
M  V30 2866 H 272.598 -6.04942 0.461515 0
M  V30 2867 H 271.337 -4.87698 -0.013932 0
M  V30 2868 H 270.342 -4.99946 2.28767 0
M  V30 2869 H 271.567 -6.20592 2.75758 0
M  V30 2870 H 269.513 -6.53788 0.538254 0
M  V30 2871 H 269.43 -7.25898 2.11208 0
M  V30 2872 H 270.698 -7.72806 1.01933 0
M  V30 2873 N 274.927 -0.932562 -1.27047 0
M  V30 2874 C 276.175 -0.574422 -1.93765 0
M  V30 2875 C 276.496 0.887993 -1.73608 0
M  V30 2876 O 275.766 1.62999 -1.08665 0
M  V30 2877 H 274.346 -0.209451 -0.717035 0
M  V30 2878 H 277.008 -1.18601 -1.5466 0
M  V30 2879 H 276.104 -0.784841 -3.02071 0
M  V30 2880 N 276.405 1.4127 -0.698611 0
M  V30 2881 C 277.368 2.29158 -0.044132 0
M  V30 2882 C 278.368 1.44529 0.704841 0
M  V30 2883 O 279.558 1.65643 0.539276 0
M  V30 2884 C 276.69 3.27459 0.947809 0
M  V30 2885 H 277.883 2.88529 -0.817994 0
M  V30 2886 H 275.436 1.49307 -0.46228 0
M  V30 2887 H 276.171 2.73073 1.74933 0
M  V30 2888 H 275.956 3.8991 0.41385 0
M  V30 2889 H 277.446 3.93311 1.40344 0
M  V30 2890 N 277.883 0.443576 1.51229 0
M  V30 2891 C 278.813 -0.355142 2.30783 0
M  V30 2892 C 279.794 -1.0154 1.36468 0
M  V30 2893 O 280.979 -1.01785 1.65389 0
M  V30 2894 C 278.109 -1.45312 3.15439 0
M  V30 2895 C 277.063 -0.916002 4.18083 0
M  V30 2896 C 276.389 -2.1102 4.91299 0
M  V30 2897 C 277.689 0.0538602 5.22272 0
M  V30 2898 H 279.383 0.308767 2.97804 0
M  V30 2899 H 276.929 0.149937 1.43217 0
M  V30 2900 H 278.882 -2.01914 3.69876 0
M  V30 2901 H 277.606 -2.14541 2.46252 0
M  V30 2902 H 276.265 -0.372145 3.64706 0
M  V30 2903 H 275.913 -2.78882 4.18609 0
M  V30 2904 H 275.613 -1.75717 5.60712 0
M  V30 2905 H 277.137 -2.68164 5.48562 0
M  V30 2906 H 278.551 -0.422069 5.71744 0
M  V30 2907 H 276.948 0.319776 5.99247 0
M  V30 2908 H 278.018 0.98858 4.74716 0
M  V30 2909 N 279.361 -1.56624 0.175154 0
M  V30 2910 C 280.324 -2.16934 -0.739738 0
M  V30 2911 C 281.324 -1.11842 -1.15533 0
M  V30 2912 O 282.514 -1.37335 -1.07167 0
M  V30 2913 C 279.646 -2.75531 -2.00738 0
M  V30 2914 H 280.839 -2.99131 -0.214639 0
M  V30 2915 H 278.392 -1.56123 -0.0744197 0
M  V30 2916 H 279.127 -1.97078 -2.57548 0
M  V30 2917 H 278.912 -3.52444 -1.71831 0
M  V30 2918 H 280.402 -3.21904 -2.66021 0
M  V30 2919 N 280.839 0.0985539 -1.57292 0
M  V30 2920 C 281.771 1.14595 -1.98496 0
M  V30 2921 C 282.784 1.36512 -0.887031 0
M  V30 2922 O 283.973 1.35225 -1.16518 0
M  V30 2923 C 281.073 2.50216 -2.28572 0
M  V30 2924 C 280.246 2.48624 -3.59868 0
M  V30 2925 C 279.305 3.66146 -3.7792 0
M  V30 2926 O 278.331 3.48795 -4.49812 0
M  V30 2927 N 279.533 4.85496 -3.18235 0
M  V30 2928 H 282.298 0.795277 -2.88956 0
M  V30 2929 H 279.859 0.287579 -1.59325 0
M  V30 2930 H 281.851 3.27432 -2.37845 0
M  V30 2931 H 280.421 2.77387 -1.44136 0
M  V30 2932 H 279.641 1.56978 -3.61596 0
M  V30 2933 H 280.929 2.44635 -4.46129 0
M  V30 2934 H 280.327 5.02497 -2.59833 0
M  V30 2935 H 278.884 5.60317 -3.32999 0
M  V30 2936 N 282.317 1.53212 0.369288 0
M  V30 2937 C 283.547 1.72868 1.13139 0
M  V30 2938 C 283.955 0.455754 1.83629 0
M  V30 2939 O 283.298 -0.580861 1.74275 0
M  V30 2940 C 283.36 2.83667 2.20847 0
M  V30 2941 C 283.024 4.24142 1.70155 0
M  V30 2942 C 284.021 5.06619 1.16763 0
M  V30 2943 C 281.706 4.70539 1.7578 0
M  V30 2944 C 283.7 6.33581 0.696678 0
M  V30 2945 C 281.387 5.97481 1.28297 0
M  V30 2946 C 282.385 6.78833 0.753307 0
M  V30 2947 O 282.073 8.03393 0.285475 0
M  V30 2948 H 281.805 0.581707 0.344373 0
M  V30 2949 H 284.359 2.00736 0.435243 0
M  V30 2950 H 282.589 2.51265 2.93944 0
M  V30 2951 H 284.278 2.91536 2.82421 0
M  V30 2952 H 285.044 4.71948 1.11758 0
M  V30 2953 H 280.923 4.07293 2.15949 0
M  V30 2954 H 284.467 6.97027 0.282581 0
M  V30 2955 H 280.364 6.31651 1.32994 0
M  V30 2956 H 281.132 8.17497 0.405145 0
M  V30 2957 N 283.795 -0.628877 1.44509 0
M  V30 2958 C 285.072 -1.38733 1.37886 0
M  V30 2959 C 285.452 -2.11065 0.0387008 0
M  V30 2960 O 284.8 -2.06476 -0.97878 0
M  V30 2961 C 285.01 -2.35188 2.57852 0
M  V30 2962 C 286.358 -2.9845 3.02014 0
M  V30 2963 O 287.382 -2.45513 2.58073 0
M  V30 2964 O 286.241 -3.94487 3.78209 0
M  V30 2965 H 283.335 -0.621015 0.54614 0
M  V30 2966 H 285.881 -0.653744 1.56602 0
M  V30 2967 H 284.653 -1.80855 3.46998 0
M  V30 2968 H 284.276 -3.1596 2.4136 0
M  V30 2969 N 285.273 -1.31445 -0.869486 0
M  V30 2970 C 286.183 -1.21097 -2.0093 0
M  V30 2971 C 287.199 -0.127584 -1.73532 0
M  V30 2972 O 288.375 -0.345477 -1.98415 0
M  V30 2973 C 285.44 -0.919378 -3.34288 0
M  V30 2974 C 284.501 -2.08971 -3.75006 0
M  V30 2975 C 283.734 -1.81194 -5.02001 0
M  V30 2976 O 283.957 -0.747296 -5.65484 0
M  V30 2977 O 282.891 -2.66883 -5.39497 0
M  V30 2978 H 286.717 -2.16883 -2.12592 0
M  V30 2979 H 284.302 -1.11189 -0.997868 0
M  V30 2980 H 286.184 -0.772625 -4.14257 0
M  V30 2981 H 284.859 0.00844772 -3.23699 0
M  V30 2982 H 283.766 -2.29187 -2.95676 0
M  V30 2983 H 285.099 -2.9998 -3.90221 0
M  V30 2984 N 286.751 1.08385 -1.14413 0
M  V30 2985 C 287.683 2.1519 -0.789036 0
M  V30 2986 C 288.696 1.61638 0.19417 0
M  V30 2987 O 289.885 1.78479 -0.0275711 0
M  V30 2988 C 286.985 3.38565 -0.15058 0
M  V30 2989 C 286.158 4.21501 -1.16857 0
M  V30 2990 C 285.217 5.23277 -0.553832 0
M  V30 2991 O 284.243 5.56041 -1.21686 0
M  V30 2992 N 285.445 5.76629 0.669296 0
M  V30 2993 H 288.21 2.46257 -1.70814 0
M  V30 2994 H 285.771 1.24198 -1.03858 0
M  V30 2995 H 287.763 4.03777 0.273181 0
M  V30 2996 H 286.333 3.05299 0.671667 0
M  V30 2997 H 285.553 3.52265 -1.76926 0
M  V30 2998 H 286.841 4.73731 -1.85624 0
M  V30 2999 H 286.239 5.52243 1.22654 0
M  V30 3000 H 284.796 6.43521 1.03556 0
M  V30 3001 N 288.23 0.939286 1.26551 0
M  V30 3002 C 289.16 0.465044 2.28822 0
M  V30 3003 C 290.141 -0.480692 1.63167 0
M  V30 3004 O 291.326 -0.382955 1.90387 0
M  V30 3005 C 288.456 -0.27234 3.46231 0
M  V30 3006 C 287.41 0.58666 4.2396 0
M  V30 3007 C 286.736 -0.280573 5.33963 0
M  V30 3008 C 288.036 1.85704 4.88171 0
M  V30 3009 H 289.73 1.31979 2.68741 0
M  V30 3010 H 287.276 0.636061 1.29191 0
M  V30 3011 H 289.229 -0.615133 4.16886 0
M  V30 3012 H 287.953 -1.16121 3.0526 0
M  V30 3013 H 286.612 0.91232 3.55067 0
M  V30 3014 H 286.26 -1.16874 4.89234 0
M  V30 3015 H 285.96 0.29076 5.8688 0
M  V30 3016 H 287.484 -0.618678 6.07458 0
M  V30 3017 H 288.898 1.58161 5.51052 0
M  V30 3018 H 287.295 2.37279 5.51197 0
M  V30 3019 H 288.365 2.56957 4.11219 0
M  V30 3020 N 289.708 -1.40897 0.706093 0
M  V30 3021 C 290.671 -2.29131 0.0562841 0
M  V30 3022 C 291.671 -1.44901 -0.697166 0
M  V30 3023 O 292.861 -1.65926 -0.530484 0
M  V30 3024 C 289.993 -3.27957 -0.93043 0
M  V30 3025 H 291.186 -2.88091 0.833284 0
M  V30 3026 H 288.739 -1.4906 0.470192 0
M  V30 3027 H 289.474 -2.73997 -1.73482 0
M  V30 3028 H 289.259 -3.90124 -0.393166 0
M  V30 3029 H 290.749 -3.94049 -1.38256 0
M  V30 3030 N 291.186 -0.45159 -1.50991 0
M  V30 3031 C 292.096 0.358431 -2.31846 0
M  V30 3032 C 293.112 1.01438 -1.41373 0
M  V30 3033 O 294.288 1.00663 -1.74439 0
M  V30 3034 C 291.353 1.43704 -3.15515 0
M  V30 3035 C 290.414 0.799742 -4.21785 0
M  V30 3036 C 289.647 1.82696 -5.01456 0
M  V30 3037 O 289.87 3.05105 -4.81941 0
M  V30 3038 O 288.804 1.40958 -5.85162 0
M  V30 3039 H 292.63 -0.302032 -3.02194 0
M  V30 3040 H 290.215 -0.213825 -1.47862 0
M  V30 3041 H 292.097 2.06227 -3.67489 0
M  V30 3042 H 290.772 2.08133 -2.47916 0
M  V30 3043 H 289.679 0.136084 -3.73852 0
M  V30 3044 H 291.012 0.198718 -4.91799 0
M  V30 3045 N 292.664 1.56529 -0.183458 0
M  V30 3046 C 293.894 2.01331 0.463612 0
M  V30 3047 C 294.302 1.06278 1.5653 0
M  V30 3048 O 293.645 0.0577976 1.83609 0
M  V30 3049 C 293.707 3.42547 1.09096 0
M  V30 3050 C 293.371 4.56817 0.129442 0
M  V30 3051 C 294.368 5.15734 -0.656807 0
M  V30 3052 C 292.053 5.02295 0.02174 0
M  V30 3053 C 294.047 6.1857 -1.53784 0
M  V30 3054 C 291.734 6.04978 -0.862864 0
M  V30 3055 C 292.732 6.62988 -1.64123 0
M  V30 3056 O 292.42 7.63677 -2.51103 0
M  V30 3057 H 292.152 0.664917 0.121907 0
M  V30 3058 H 294.706 2.034 -0.285954 0
M  V30 3059 H 292.936 3.37428 1.88889 0
M  V30 3060 H 294.625 3.71228 1.64148 0
M  V30 3061 H 295.391 4.81473 -0.583839 0
M  V30 3062 H 291.27 4.56847 0.617392 0
M  V30 3063 H 294.814 6.63777 -2.14583 0
M  V30 3064 H 290.711 6.38663 -0.93699 0
M  V30 3065 H 291.479 7.81049 -2.44753 0
M  V30 3066 N 294.142 -0.090211 1.57342 0
M  V30 3067 C 295.372 -0.805055 1.90269 0
M  V30 3068 C 295.78 -1.72561 0.775842 0
M  V30 3069 O 295.123 -1.81839 -0.260843 0
M  V30 3070 C 295.185 -1.66734 3.18497 0
M  V30 3071 C 294.849 -0.918092 4.47683 0
M  V30 3072 C 295.846 -0.245674 5.19319 0
M  V30 3073 C 293.531 -0.890724 4.94339 0
M  V30 3074 C 295.525 0.444088 6.35851 0
M  V30 3075 C 293.212 -0.197179 6.10782 0
M  V30 3076 C 294.21 0.469044 6.81388 0
M  V30 3077 O 293.898 1.15146 7.95611 0
M  V30 3078 H 293.63 -0.235143 0.633785 0
M  V30 3079 H 296.184 -0.0703805 2.05279 0
M  V30 3080 H 294.414 -2.44437 2.99646 0
M  V30 3081 H 296.103 -2.25919 3.37217 0
M  V30 3082 H 296.869 -0.258246 4.84312 0
M  V30 3083 H 292.748 -1.39873 4.39268 0
M  V30 3084 H 296.292 0.964667 6.90898 0
M  V30 3085 H 292.189 -0.18247 6.45242 0
M  V30 3086 H 292.957 1.05885 8.11622 0
M  V30 3087 N 295.62 -1.53406 -0.361157 0
M  V30 3088 C 296.55 -1.83136 -1.44857 0
M  V30 3089 C 297.531 -0.685174 -1.5569 0
M  V30 3090 O 298.716 -0.93544 -1.70186 0
M  V30 3091 C 295.846 -2.02522 -2.82138 0
M  V30 3092 C 294.8 -3.18302 -2.86126 0
M  V30 3093 C 294.126 -3.22989 -4.26125 0
M  V30 3094 C 295.426 -4.56796 -2.53248 0
M  V30 3095 H 297.12 -2.74201 -1.20226 0
M  V30 3096 H 294.666 -1.31938 -0.576922 0
M  V30 3097 H 296.619 -2.21904 -3.58241 0
M  V30 3098 H 295.343 -1.08172 -3.08166 0
M  V30 3099 H 294.002 -2.98747 -2.12475 0
M  V30 3100 H 293.65 -2.26267 -4.49235 0
M  V30 3101 H 293.35 -4.00781 -4.29708 0
M  V30 3102 H 294.874 -3.44559 -5.04094 0
M  V30 3103 H 296.288 -4.7631 -3.19064 0
M  V30 3104 H 294.685 -5.36862 -2.68141 0
M  V30 3105 H 295.755 -4.61606 -1.48484 0
M  V30 3106 N 297.098 0.621204 -1.44841 0
M  V30 3107 C 298.326 1.40752 -1.51646 0
M  V30 3108 C 298.741 1.88246 -0.144549 0
M  V30 3109 O 298.098 1.61422 0.851416 0
M  V30 3110 C 298.149 2.62119 -2.4895 0
M  V30 3111 O 297.87 2.16602 -3.80808 0
M  V30 3112 C 299.371 3.55135 -2.65319 0
M  V30 3113 H 296.591 0.431325 -0.514004 0
M  V30 3114 H 299.135 0.758835 -1.899 0
M  V30 3115 H 297.29 3.23058 -2.13805 0
M  V30 3116 H 297.704 2.95358 -4.33433 0
M  V30 3117 H 299.178 4.36874 -3.37409 0
M  V30 3118 H 299.655 4.04592 -1.70886 0
M  V30 3119 H 300.261 3.00058 -3.01405 0
M  V30 3120 N 298.576 1.31904 0.862503 0
M  V30 3121 C 299.992 1.10724 1.14945 0
M  V30 3122 C 300.192 -0.117421 2.01158 0
M  V30 3123 O 299.248 -0.804595 2.39338 0
M  V30 3124 C 300.561 2.38267 1.83437 0
M  V30 3125 C 302.109 2.43949 1.96106 0
M  V30 3126 C 302.584 3.71394 2.68013 0
M  V30 3127 N 304.075 3.72331 2.75543 0
M  V30 3128 C 304.81 4.67641 3.31812 0
M  V30 3129 N 304.306 5.73313 3.88953 0
M  V30 3130 N 306.099 4.5515 3.29841 0
M  V30 3131 H 298.25 2.10436 0.288191 0
M  V30 3132 H 300.513 0.928705 0.190292 0
M  V30 3133 H 300.219 3.27759 1.27542 0
M  V30 3134 H 300.093 2.48633 2.83657 0
M  V30 3135 H 302.48 1.54922 2.51164 0
M  V30 3136 H 302.561 2.37543 0.949059 0
M  V30 3137 H 302.205 4.60791 2.13621 0
M  V30 3138 H 302.135 3.75069 3.69636 0
M  V30 3139 H 304.626 2.95947 2.34997 0
M  V30 3140 H 304.939 6.42107 4.30022 0
M  V30 3141 H 303.284 5.77077 3.87308 0
M  V30 3142 H 306.475 3.71766 2.84443 0
M  V30 3143 H 306.648 5.29604 3.73394 0
M  V30 3144 N 300.054 -1.07777 1.14986 0
M  V30 3145 C 301.302 -1.79934 0.920235 0
M  V30 3146 C 301.623 -1.86955 -0.554336 0
M  V30 3147 O 300.893 -1.36731 -1.40291 0
M  V30 3148 H 299.473 -0.666424 0.337473 0
M  V30 3149 H 302.135 -1.3027 1.44968 0
M  V30 3150 H 301.231 -2.82539 1.32583 0
M  V30 3151 N 301.532 -0.945985 -1.26051 0
M  V30 3152 C 302.757 -0.612525 -1.98149 0
M  V30 3153 C 303.182 0.806623 -1.69927 0
M  V30 3154 O 302.54 1.54411 -0.950108 0
M  V30 3155 C 302.588 -0.866981 -3.50023 0
M  V30 3156 O 301.692 0.0585333 -4.12358 0
M  V30 3157 H 301.033 -0.23379 -0.621481 0
M  V30 3158 H 303.563 -1.27023 -1.60395 0
M  V30 3159 H 303.573 -0.789792 -4.00283 0
M  V30 3160 H 302.248 -1.90135 -3.69894 0
M  V30 3161 H 300.825 -0.0701241 -3.72834 0
M  V30 3162 N 303.011 1.40521 -0.713556 0
M  V30 3163 C 303.959 2.32549 -0.0485227 0
M  V30 3164 C 304.953 1.51931 0.74922 0
M  V30 3165 O 306.159 1.67745 0.652816 0
M  V30 3166 H 302.534 0.751994 0.00311138 0
M  V30 3167 H 304.505 2.86291 -0.841443 0
M  V30 3168 C 303.254 3.36879 0.860687 0
M  V30 3169 H 302.577 3.98978 0.256246 0
M  V30 3170 H 304.017 4.03772 1.294 0
M  V30 3171 C 302.476 2.72197 1.9852 0
M  V30 3172 O 303.006 2.5837 3.07584 0
M  V30 3173 N 301.212 2.30612 1.76823 0
M  V30 3174 H 300.759 2.42059 0.881217 0
M  V30 3175 H 300.717 1.87672 2.52243 0
M  V30 3176 N 304.489 0.459591 1.5075 0
M  V30 3177 C 305.437 -0.354678 2.2988 0
M  V30 3178 C 306.431 -1.00086 1.36672 0
M  V30 3179 O 307.637 -0.933277 1.53915 0
M  V30 3180 H 304.012 -0.13321 0.740107 0
M  V30 3181 H 305.983 0.333269 2.96533 0
M  V30 3182 C 304.732 -1.43073 3.169 0
M  V30 3183 H 304.055 -0.942882 3.88523 0
M  V30 3184 H 305.495 -1.97328 3.75284 0
M  V30 3185 C 303.954 -2.42633 2.33732 0
M  V30 3186 O 304.484 -3.47658 2.01238 0
M  V30 3187 N 302.69 -2.14066 1.9653 0
M  V30 3188 H 302.237 -1.28685 2.23155 0
M  V30 3189 H 302.195 -2.80917 1.41185 0
M  V30 3190 N 305.967 -1.56429 0.191757 0
M  V30 3191 C 307.383 -1.58754 -0.164137 0
M  V30 3192 C 307.583 -1.20782 -1.61288 0
M  V30 3193 O 306.639 -0.928999 -2.34789 0
M  V30 3194 C 307.952 -3.00396 0.135195 0
M  V30 3195 C 309.5 -3.1291 0.0750351 0
M  V30 3196 C 309.975 -4.56679 0.347632 0
M  V30 3197 N 311.466 -4.62252 0.296131 0
M  V30 3198 C 312.201 -5.71379 0.480948 0
M  V30 3199 N 311.697 -6.88986 0.725933 0
M  V30 3200 N 313.49 -5.60563 0.415435 0
M  V30 3201 H 305.641 -1.79393 1.13718 0
M  V30 3202 H 307.904 -0.832414 0.453643 0
M  V30 3203 H 307.61 -3.32726 1.13958 0
M  V30 3204 H 307.484 -3.72963 -0.563773 0
M  V30 3205 H 309.871 -2.80394 -0.919948 0
M  V30 3206 H 309.952 -2.42736 0.807029 0
M  V30 3207 H 309.596 -4.89907 1.33992 0
M  V30 3208 H 309.526 -5.25039 -0.405212 0
M  V30 3209 H 312.017 -3.7773 0.113259 0
M  V30 3210 H 312.33 -7.68046 0.855857 0
M  V30 3211 H 310.675 -6.90801 0.762788 0
M  V30 3212 H 313.866 -4.67561 0.224486 0
M  V30 3213 H 314.039 -6.45551 0.562889 0
M  V30 3214 N 307.445 0.0818655 -1.57387 0
M  V30 3215 C 308.861 0.436412 -1.53517 0
M  V30 3216 C 309.061 1.79758 -0.910459 0
M  V30 3217 O 308.117 2.47324 -0.508636 0
M  V30 3218 C 309.43 0.386734 -2.98203 0
M  V30 3219 C 310.978 0.467644 -3.09487 0
M  V30 3220 C 311.453 0.447978 -4.55804 0
M  V30 3221 N 312.944 0.508348 -4.60402 0
M  V30 3222 C 313.679 0.515184 -5.71081 0
M  V30 3223 N 313.175 0.477435 -6.91153 0
M  V30 3224 N 314.968 0.560988 -5.59294 0
M  V30 3225 H 307.119 -0.809546 -1.96367 0
M  V30 3226 H 309.382 -0.302733 -0.898363 0
M  V30 3227 H 309.088 -0.546539 -3.47427 0
M  V30 3228 H 308.962 1.20075 -3.57578 0
M  V30 3229 H 311.349 1.39134 -2.60242 0
M  V30 3230 H 311.43 -0.374753 -2.5304 0
M  V30 3231 H 311.074 -0.471826 -5.05704 0
M  V30 3232 H 311.004 1.30777 -5.10103 0
M  V30 3233 H 313.495 0.54218 -3.7399 0
M  V30 3234 H 313.808 0.486299 -7.71268 0
M  V30 3235 H 312.153 0.444278 -6.93579 0
M  V30 3236 H 315.344 0.5881 -4.64391 0
M  V30 3237 H 315.517 0.562846 -6.45551 0
M  V30 3238 N 308.923 1.53595 0.353017 0
M  V30 3239 C 310.2 1.61002 1.11075 0
M  V30 3240 C 310.58 0.425356 2.0677 0
M  V30 3241 O 309.928 -0.583267 2.2093 0
M  V30 3242 C 310.138 2.96631 1.83877 0
M  V30 3243 C 311.486 3.51653 2.37961 0
M  V30 3244 O 312.51 2.98743 1.93987 0
M  V30 3245 O 311.369 4.44177 3.18386 0
M  V30 3246 H 308.463 0.650825 0.510251 0
M  V30 3247 H 311.009 1.6594 0.35527 0
M  V30 3248 H 309.781 3.74293 1.14108 0
M  V30 3249 H 309.404 2.95242 2.66304 0
M  V30 3250 N 310.401 -0.613514 1.45168 0
M  V30 3251 C 311.629 -1.39946 1.5239 0
M  V30 3252 C 312.044 -1.88167 0.154531 0
M  V30 3253 O 311.401 -1.61872 -0.842843 0
M  V30 3254 C 311.452 -2.60795 2.50337 0
M  V30 3255 O 311.173 -2.1458 3.81952 0
M  V30 3256 C 312.674 -3.53723 2.67198 0
M  V30 3257 H 309.894 -0.428593 0.516284 0
M  V30 3258 H 312.438 -0.748753 1.903 0
M  V30 3259 H 310.593 -3.21919 2.15515 0
M  V30 3260 H 311.007 -2.93055 4.34993 0
M  V30 3261 H 312.481 -4.35079 3.39721 0
M  V30 3262 H 312.958 -4.0368 1.73029 0
M  V30 3263 H 313.564 -2.98456 3.02992 0
M  V30 3264 N 311.879 -1.3236 -0.855495 0
M  V30 3265 C 313.125 -1.24064 -1.61182 0
M  V30 3266 C 313.48 0.195914 -1.914 0
M  V30 3267 O 312.773 1.13345 -1.54478 0
M  V30 3268 C 312.967 -2.03275 -2.93963 0
M  V30 3269 C 312.796 -3.54486 -2.76712 0
M  V30 3270 C 311.566 -4.23824 -2.75139 0
M  V30 3271 C 313.764 -4.49154 -2.50531 0
M  V30 3272 N 311.746 -5.61095 -2.4909 0
M  V30 3273 C 313.117 -5.74195 -2.3388 0
M  V30 3274 C 315.172 -4.3842 -2.35992 0
M  V30 3275 C 313.875 -6.89716 -2.04168 0
M  V30 3276 C 315.901 -5.53739 -2.0767 0
M  V30 3277 C 315.263 -6.77779 -1.9182 0
M  V30 3278 H 311.362 -0.509139 -0.59355 0
M  V30 3279 H 313.946 -1.66715 -1.00569 0
M  V30 3280 H 312.117 -1.6297 -3.52555 0
M  V30 3281 H 313.849 -1.86881 -3.58967 0
M  V30 3282 H 310.604 -3.75934 -2.88047 0
M  V30 3283 H 311.028 -6.33411 -2.38996 0
M  V30 3284 H 315.67 -3.43172 -2.46967 0
M  V30 3285 H 313.388 -7.84977 -1.9193 0
M  V30 3286 H 316.974 -5.4736 -1.97201 0
M  V30 3287 H 315.854 -7.65504 -1.70217 0
M  V30 3288 N 313.357 1.07166 -1.15556 0
M  V30 3289 C 314.582 1.84053 -0.955988 0
M  V30 3290 C 315.007 1.81586 0.490739 0
M  V30 3291 O 314.365 1.21018 1.34997 0
M  V30 3292 C 314.413 3.28957 -1.47714 0
M  V30 3293 O 313.517 4.06795 -0.677593 0
M  V30 3294 H 312.858 0.569842 -0.340847 0
M  V30 3295 H 315.388 1.35178 -1.53584 0
M  V30 3296 H 315.398 3.79788 -1.4908 0
M  V30 3297 H 314.073 3.30068 -2.53037 0
M  V30 3298 H 312.65 3.6561 -0.733721 0
M  V30 3299 N 314.835 0.952656 1.25548 0
M  V30 3300 C 316.112 0.523818 1.88456 0
M  V30 3301 C 316.492 -0.998871 1.85973 0
M  V30 3302 O 315.84 -1.86381 1.3219 0
M  V30 3303 C 316.05 1.0982 3.31271 0
M  V30 3304 C 317.398 1.17385 4.08051 0
M  V30 3305 O 318.422 1.04961 3.40384 0
M  V30 3306 O 317.281 1.36852 5.29088 0
M  V30 3307 H 314.375 0.172485 0.808813 0
M  V30 3308 H 316.921 1.04596 1.33633 0
M  V30 3309 H 315.693 2.1415 3.27499 0
M  V30 3310 H 315.316 0.559191 3.93648 0
M  V30 3311 N 316.313 -1.40141 0.720998 0
M  V30 3312 C 317.263 -2.27949 0.0482544 0
M  V30 3313 C 318.247 -1.43538 -0.727021 0
M  V30 3314 O 319.439 -1.6658 -0.598332 0
M  V30 3315 C 316.568 -3.32126 -0.868729 0
M  V30 3316 C 315.654 -4.24008 -0.0883515 0
M  V30 3317 N 316.045 -4.97154 0.931226 0
M  V30 3318 C 314.343 -4.4485 -0.320105 0
M  V30 3319 C 315.044 -5.64587 1.4006 0
M  V30 3320 N 314.02 -5.38787 0.721752 0
M  V30 3321 H 317.822 -2.81948 0.829609 0
M  V30 3322 H 315.336 -1.52656 0.554067 0
M  V30 3323 H 317.333 -3.93884 -1.36605 0
M  V30 3324 H 315.993 -2.79687 -1.6494 0
M  V30 3325 H 317.004 -5.01 1.31222 0
M  V30 3326 H 313.681 -4.03378 -1.07668 0
M  V30 3327 H 315.071 -6.33175 2.24808 0
M  V30 3328 N 317.792 -0.46758 -1.50504 0
M  V30 3329 C 319.041 0.0902868 -2.01498 0
M  V30 3330 C 319.354 1.411 -1.35463 0
M  V30 3331 O 320.56 2.0536 -1.77594 0
M  V30 3332 C 319.016 0.21142 -3.59278 0
M  V30 3333 C 318.624 -1.10065 -4.34269 0
M  V30 3334 C 320.368 0.721433 -4.18325 0
M  V30 3335 C 318.275 -0.943505 -5.83825 0
M  V30 3336 H 317.205 0.037517 -0.753066 0
M  V30 3337 H 319.856 -0.601943 -1.73346 0
M  V30 3338 H 318.238 0.967352 -3.84003 0
M  V30 3339 H 319.412 -1.86726 -4.21272 0
M  V30 3340 H 317.727 -1.5415 -3.86816 0
M  V30 3341 H 320.324 0.85598 -5.27804 0
M  V30 3342 H 320.667 1.71186 -3.79475 0
M  V30 3343 H 321.2 0.0229843 -3.97793 0
M  V30 3344 H 317.939 -1.90719 -6.27141 0
M  V30 3345 H 317.459 -0.217213 -5.99407 0
M  V30 3346 H 319.138 -0.608715 -6.4413 0
M  V30 3347 N 319.27 1.56325 -0.20005 0
M  V30 3348 C 320.686 1.58839 0.155716 0
M  V30 3349 C 320.886 1.21636 1.60645 0
M  V30 3350 O 319.942 0.941437 2.34293 0
M  V30 3351 C 321.255 3.0032 -0.151124 0
M  V30 3352 C 322.803 3.12866 -0.0916284 0
M  V30 3353 C 323.278 4.56488 -0.371845 0
M  V30 3354 N 324.769 4.62089 -0.320641 0
M  V30 3355 C 325.504 5.71116 -0.511243 0
M  V30 3356 N 325 6.88592 -0.762461 0
M  V30 3357 N 326.793 5.60335 -0.445157 0
M  V30 3358 H 318.944 1.78788 -1.14668 0
M  V30 3359 H 321.207 0.829996 -0.458051 0
M  V30 3360 H 320.913 3.32117 -1.15721 0
M  V30 3361 H 320.787 3.73257 0.543986 0
M  V30 3362 H 323.174 2.80878 0.905065 0
M  V30 3363 H 323.255 2.42304 -0.81989 0
M  V30 3364 H 322.899 4.89189 -1.36588 0
M  V30 3365 H 322.829 5.25246 0.377362 0
M  V30 3366 H 325.32 3.77665 -0.13329 0
M  V30 3367 H 325.633 7.67581 -0.896576 0
M  V30 3368 H 323.978 6.90387 -0.799412 0
M  V30 3369 H 327.169 4.67436 -0.249278 0
M  V30 3370 H 327.342 6.45243 -0.597116 0
M  V30 3371 N 320.748 -0.0735177 1.57428 0
M  V30 3372 C 322.164 -0.428264 1.53747 0
M  V30 3373 C 322.364 -1.79272 0.91998 0
M  V30 3374 O 321.42 -2.47051 0.521745 0
M  V30 3375 C 322.733 -0.370914 2.98404 0
M  V30 3376 C 324.281 -0.451224 3.0973 0
M  V30 3377 C 324.756 -0.4238 4.56035 0
M  V30 3378 N 326.247 -0.483925 4.60665 0
M  V30 3379 C 326.982 -0.484891 5.71346 0
M  V30 3380 N 326.478 -0.440775 6.91396 0
M  V30 3381 N 328.271 -0.531319 5.59583 0
M  V30 3382 H 320.422 0.819949 1.95935 0
M  V30 3383 H 322.685 0.307493 0.896745 0
M  V30 3384 H 322.391 0.564956 3.47133 0
M  V30 3385 H 322.265 -1.18176 3.5821 0
M  V30 3386 H 324.652 -1.37752 2.60976 0
M  V30 3387 H 324.733 0.388167 2.52838 0
M  V30 3388 H 324.377 0.498638 5.05446 0
M  V30 3389 H 324.307 -1.2807 5.10789 0
M  V30 3390 H 326.798 -0.522338 3.74273 0
M  V30 3391 H 327.111 -0.44539 7.71515 0
M  V30 3392 H 325.456 -0.40749 6.93804 0
M  V30 3393 H 328.647 -0.563464 4.64696 0
M  V30 3394 H 328.82 -0.528603 6.4584 0
M  V30 3395 N 322.226 -1.5378 -0.344866 0
M  V30 3396 C 323.454 -1.74899 -1.10534 0
M  V30 3397 C 323.869 -0.487534 -1.82397 0
M  V30 3398 O 323.226 0.540741 -1.74305 0
M  V30 3399 C 323.277 -2.92822 -2.11984 0
M  V30 3400 O 322.998 -4.14089 -1.43044 0
M  V30 3401 C 324.499 -3.25982 -3.00417 0
M  V30 3402 H 321.719 -0.584426 -0.329678 0
M  V30 3403 H 324.263 -2.006 -0.397474 0
M  V30 3404 H 322.418 -2.69457 -2.78338 0
M  V30 3405 H 322.832 -4.80272 -2.10805 0
M  V30 3406 H 324.306 -4.11848 -3.67539 0
M  V30 3407 H 324.783 -2.42228 -3.66363 0
M  V30 3408 H 325.389 -3.51349 -2.39654 0
M  V30 3409 N 323.704 0.605807 -1.45491 0
M  V30 3410 C 324.953 1.36086 -1.48874 0
M  V30 3411 C 325.266 1.95131 -0.135333 0
M  V30 3412 O 326.472 2.7146 -0.0468144 0
M  V30 3413 C 324.928 2.46518 -2.62215 0
M  V30 3414 C 324.536 1.93877 -4.03876 0
M  V30 3415 C 326.28 3.23512 -2.74846 0
M  V30 3416 C 324.187 3.01801 -5.08596 0
M  V30 3417 H 323.117 0.511497 -0.553974 0
M  V30 3418 H 325.768 0.649089 -1.71636 0
M  V30 3419 H 324.15 3.20388 -2.32739 0
M  V30 3420 H 325.324 1.26704 -4.43038 0
M  V30 3421 H 323.639 1.29622 -3.95711 0
M  V30 3422 H 326.236 4.04013 -3.50253 0
M  V30 3423 H 326.579 3.74631 -1.81542 0
M  V30 3424 H 327.112 2.56742 -3.03856 0
M  V30 3425 H 323.851 2.55597 -6.03614 0
M  V30 3426 H 323.371 3.67535 -4.74002 0
M  V30 3427 H 325.05 3.66152 -5.33424 0
M  V30 3428 N 325.182 1.32811 0.848464 0
M  V30 3429 C 326.431 1.23075 1.59798 0
M  V30 3430 C 326.744 -0.204419 1.94529 0
M  V30 3431 O 327.95 -0.423701 2.68173 0
M  V30 3432 C 326.406 2.15594 2.88179 0
M  V30 3433 C 326.014 3.64228 2.60849 0
M  V30 3434 C 327.758 2.14709 3.66197 0
M  V30 3435 C 325.665 4.48689 3.85269 0
M  V30 3436 H 324.595 0.457091 0.599653 0
M  V30 3437 H 327.246 1.57813 0.936342 0
M  V30 3438 H 325.628 1.73778 3.55833 0
M  V30 3439 H 326.802 4.14424 2.01467 0
M  V30 3440 H 325.117 3.67306 1.96151 0
M  V30 3441 H 327.714 2.75046 4.58534 0
M  V30 3442 H 328.057 1.13966 4.00397 0
M  V30 3443 H 328.59 2.54837 3.05455 0
M  V30 3444 H 325.329 5.5027 3.56207 0
M  V30 3445 H 324.849 4.03241 4.44024 0
M  V30 3446 H 326.528 4.62006 4.52946 0
M  V30 3447 N 326.66 -1.06551 1.16123 0
M  V30 3448 C 327.607 -2.13961 0.865414 0
M  V30 3449 C 328.577 -1.65066 -0.185055 0
M  V30 3450 O 329.762 -1.90732 -0.05083 0
M  V30 3451 C 326.902 -3.43113 0.369776 0
M  V30 3452 C 326.015 -4.05756 1.48276 0
M  V30 3453 C 325.15 -5.22773 0.942414 0
M  V30 3454 C 324.189 -5.77395 2.03179 0
M  V30 3455 N 323.326 -6.85731 1.50721 0
M  V30 3456 H 328.166 -2.38605 1.78527 0
M  V30 3457 H 325.703 -1.17072 0.890646 0
M  V30 3458 H 327.661 -4.17151 0.0640643 0
M  V30 3459 H 326.291 -3.18695 -0.513143 0
M  V30 3460 H 325.343 -3.29292 1.9045 0
M  V30 3461 H 326.655 -4.42351 2.30493 0
M  V30 3462 H 325.809 -6.03827 0.589729 0
M  V30 3463 H 324.548 -4.87618 0.0895191 0
M  V30 3464 H 323.553 -4.94981 2.3932 0
M  V30 3465 H 324.778 -6.14603 2.8886 0
M  V30 3466 H 322.724 -6.52499 0.676811 0
M  V30 3467 H 322.641 -7.21254 2.26557 0
M  V30 3468 H 323.909 -7.7047 1.18303 0
M  V30 3469 N 328.138 -0.959301 -1.25041 0
M  V30 3470 C 329.048 -0.489994 -2.29426 0
M  V30 3471 C 330.064 0.444944 -1.68215 0
M  V30 3472 O 331.24 0.320046 -1.98841 0
M  V30 3473 C 328.305 0.220309 -3.45999 0
M  V30 3474 C 327.366 -0.753418 -4.22637 0
M  V30 3475 C 326.599 -0.076918 -5.33645 0
M  V30 3476 O 326.822 1.13649 -5.58963 0
M  V30 3477 O 325.756 -0.764824 -5.97021 0
M  V30 3478 H 329.582 -1.35755 -2.71669 0
M  V30 3479 H 327.167 -0.725961 -1.30576 0
M  V30 3480 H 329.049 0.619677 -4.16819 0
M  V30 3481 H 327.724 1.06296 -3.0575 0
M  V30 3482 H 326.631 -1.20308 -3.54227 0
M  V30 3483 H 327.964 -1.56423 -4.66683 0
M  V30 3484 N 329.616 1.39756 -0.72842 0
M  V30 3485 C 330.841 2.05472 -0.282159 0
M  V30 3486 C 331.266 1.54549 1.07221 0
M  V30 3487 O 330.624 0.686372 1.67805 0
M  V30 3488 C 330.672 3.59462 -0.286264 0
M  V30 3489 O 329.776 4.05918 0.728298 0
M  V30 3490 H 329.117 0.651226 -0.129618 0
M  V30 3491 H 331.647 1.78915 -0.992499 0
M  V30 3492 H 331.657 4.07798 -0.128373 0
M  V30 3493 H 330.332 3.95889 -1.27456 0
M  V30 3494 H 328.909 3.69012 0.537081 0
M  V30 3495 N 331.094 0.475555 1.50254 0
M  V30 3496 C 332.51 0.12997 1.5907 0
M  V30 3497 C 332.71 -1.36385 1.48328 0
M  V30 3498 O 331.766 -2.13754 1.34407 0
M  V30 3499 C 333.079 0.684139 2.92814 0
M  V30 3500 C 334.627 0.647965 3.0622 0
M  V30 3501 C 335.102 1.17975 4.42545 0
M  V30 3502 N 336.593 1.13936 4.48969 0
M  V30 3503 C 337.328 1.52129 5.52851 0
M  V30 3504 N 336.824 1.97793 6.63965 0
M  V30 3505 N 338.617 1.43704 5.4342 0
M  V30 3506 H 330.768 1.44706 1.55479 0
M  V30 3507 H 333.031 0.598691 0.735033 0
M  V30 3508 H 332.737 1.73079 3.06164 0
M  V30 3509 H 332.611 0.130204 3.76975 0
M  V30 3510 H 334.998 -0.38979 2.92514 0
M  V30 3511 H 335.079 1.23876 2.23805 0
M  V30 3512 H 334.723 2.21616 4.57 0
M  V30 3513 H 334.653 0.565138 5.23559 0
M  V30 3514 H 337.144 0.804488 3.69238 0
M  V30 3515 H 337.457 2.25072 7.39299 0
M  V30 3516 H 335.802 2.01749 6.65073 0
M  V30 3517 H 338.993 1.07867 4.55502 0
M  V30 3518 H 339.166 1.73794 6.24259 0
M  V30 3519 N 332.573 -1.56217 0.208337 0
M  V30 3520 C 333.984 -1.84243 -0.301904 0
M  V30 3521 C 334.335 -1.12939 -1.60434 0
M  V30 3522 O 333.46 -0.39461 -2.12772 0
M  V30 3523 C 334.055 -3.34231 -0.554543 0
M  V30 3524 C 332.614 -3.62621 -1.00912 0
M  V30 3525 C 331.761 -2.77224 -0.064933 0
M  V30 3526 H 334.712 -1.52712 0.431833 0
M  V30 3527 H 334.733 -3.5372 -1.40223 0
M  V30 3528 H 334.245 -3.86099 0.393561 0
M  V30 3529 H 332.346 -3.16197 -1.97104 0
M  V30 3530 H 332.459 -4.7071 -0.892674 0
M  V30 3531 H 330.823 -2.48256 -0.56929 0
M  V30 3532 H 331.606 -3.31887 0.877851 0
M  V30 3533 N 334.051 0.0651679 -1.57465 0
M  V30 3534 C 335.298 0.763063 -1.87573 0
M  V30 3535 C 335.626 1.77242 -0.800961 0
M  V30 3536 O 334.881 1.94651 0.202316 0
M  V30 3537 C 335.18 1.50081 -3.24362 0
M  V30 3538 C 334.846 0.630816 -4.46466 0
M  V30 3539 C 333.508 0.391082 -4.79608 0
M  V30 3540 C 335.86 0.0279465 -5.21193 0
M  V30 3541 C 333.188 -0.460894 -5.84887 0
M  V30 3542 C 335.54 -0.811522 -6.27373 0
M  V30 3543 C 334.204 -1.06106 -6.59013 0
M  V30 3544 H 333.474 0.279224 -0.686378 0
M  V30 3545 H 336.121 0.0236726 -1.91485 0
M  V30 3546 H 334.426 2.31258 -3.16271 0
M  V30 3547 H 336.123 2.04571 -3.44894 0
M  V30 3548 H 332.713 0.8278 -4.2053 0
M  V30 3549 H 336.897 0.200262 -4.95896 0
M  V30 3550 H 332.153 -0.662907 -6.07796 0
M  V30 3551 H 336.327 -1.28537 -6.84435 0
M  V30 3552 H 333.954 -1.723 -7.40417 0
M  V30 3553 N 335.529 1.53961 0.336706 0
M  V30 3554 C 336.778 1.70751 1.07363 0
M  V30 3555 C 337.091 0.481061 1.89592 0
M  V30 3556 O 338.297 0.530046 2.66276 0
M  V30 3557 C 336.753 3.01965 1.95818 0
M  V30 3558 C 336.361 4.31971 1.18764 0
M  V30 3559 C 338.105 3.28121 2.69327 0
M  V30 3560 C 336.012 5.54255 2.06289 0
M  V30 3561 H 334.942 0.636292 0.404535 0
M  V30 3562 H 337.593 1.80459 0.332681 0
M  V30 3563 H 335.975 2.86132 2.7376 0
M  V30 3564 H 337.149 4.5853 0.456849 0
M  V30 3565 H 335.464 4.12481 0.569946 0
M  V30 3566 H 338.061 4.16673 3.35094 0
M  V30 3567 H 338.404 2.45426 3.36261 0
M  V30 3568 H 338.937 3.44762 1.98454 0
M  V30 3569 H 335.676 6.39513 1.43885 0
M  V30 3570 H 335.196 5.31935 2.77138 0
M  V30 3571 H 336.875 5.90159 2.65182 0
M  V30 3572 N 337.007 -0.598083 1.45811 0
M  V30 3573 C 337.937 -1.71873 1.58057 0
M  V30 3574 C 338.918 -1.64533 0.431615 0
M  V30 3575 O 340.103 -1.82787 0.65595 0
M  V30 3576 C 337.233 -3.10495 1.55597 0
M  V30 3577 C 336.187 -3.32654 2.69305 0
M  V30 3578 C 335.513 -4.71646 2.51902 0
M  V30 3579 C 336.813 -3.21981 4.11248 0
M  V30 3580 H 338.507 -1.61881 2.51863 0
M  V30 3581 H 336.053 -0.777372 1.21214 0
M  V30 3582 H 338.006 -3.88699 1.6276 0
M  V30 3583 H 336.73 -3.2135 0.583255 0
M  V30 3584 H 335.389 -2.56843 2.61586 0
M  V30 3585 H 335.037 -4.79246 1.52748 0
M  V30 3586 H 334.737 -4.87426 3.2816 0
M  V30 3587 H 336.261 -5.52038 2.60933 0
M  V30 3588 H 337.675 -3.90049 4.20161 0
M  V30 3589 H 336.072 -3.49289 4.87972 0
M  V30 3590 H 337.142 -2.1928 4.32486 0
M  V30 3591 N 338.485 -1.33259 -0.841409 0
M  V30 3592 C 339.762 -1.15174 -1.58096 0
M  V30 3593 C 340.142 0.282858 -2.09196 0
M  V30 3594 O 339.49 1.28151 -1.89181 0
M  V30 3595 C 339.7 -2.1907 -2.71679 0
M  V30 3596 C 341.048 -2.53093 -3.40924 0
M  V30 3597 O 342.072 -2.17717 -2.81918 0
M  V30 3598 O 340.931 -3.1379 -4.47435 0
M  V30 3599 H 338.025 -0.445303 -0.696875 0
M  V30 3600 H 340.571 -1.44833 -0.884385 0
M  V30 3601 H 339.343 -3.15443 -2.31541 0
M  V30 3602 H 338.966 -1.90481 -3.49002 0
M  V30 3603 N 339.963 1.05934 -1.16686 0
M  V30 3604 C 341.193 1.82226 -0.973515 0
M  V30 3605 C 341.601 1.8297 0.481532 0
M  V30 3606 O 340.944 1.25009 1.34604 0
M  V30 3607 C 341.006 3.29897 -1.42858 0
M  V30 3608 C 340.67 3.52849 -2.90425 0
M  V30 3609 C 341.667 3.45595 -3.88407 0
M  V30 3610 C 339.352 3.80053 -3.28428 0
M  V30 3611 C 341.346 3.65217 -5.22394 0
M  V30 3612 C 339.033 3.99325 -4.62583 0
M  V30 3613 C 340.031 3.91905 -5.59374 0
M  V30 3614 O 339.719 4.10647 -6.91104 0
M  V30 3615 H 339.451 0.581314 -0.345036 0
M  V30 3616 H 342.005 1.3453 -1.55212 0
M  V30 3617 H 340.235 3.78472 -0.793477 0
M  V30 3618 H 341.924 3.87692 -1.20207 0
M  V30 3619 H 342.69 3.24564 -3.60393 0
M  V30 3620 H 338.569 3.84936 -2.53664 0
M  V30 3621 H 342.113 3.59341 -5.9793 0
M  V30 3622 H 338.01 4.19846 -4.90306 0
M  V30 3623 H 338.778 4.27915 -6.97733 0
M  V30 3624 N 341.441 0.965919 1.2453 0
M  V30 3625 C 342.371 0.513476 2.27784 0
M  V30 3626 C 343.352 -0.445974 1.6415 0
M  V30 3627 O 344.537 -0.342485 1.91156 0
M  V30 3628 C 341.667 -0.198839 3.4673 0
M  V30 3629 C 340.621 0.676456 4.2262 0
M  V30 3630 C 339.947 -0.167248 5.34438 0
M  V30 3631 C 341.247 1.96017 4.84123 0
M  V30 3632 H 342.941 1.3765 2.65881 0
M  V30 3633 H 340.487 0.663321 1.27813 0
M  V30 3634 H 342.44 -0.526567 4.18097 0
M  V30 3635 H 341.164 -1.0962 3.07654 0
M  V30 3636 H 339.823 0.98743 3.53052 0
M  V30 3637 H 339.471 -1.0647 4.91603 0
M  V30 3638 H 339.171 0.415181 5.86131 0
M  V30 3639 H 340.695 -0.489688 6.08633 0
M  V30 3640 H 342.109 1.69814 5.47573 0
M  V30 3641 H 340.506 2.48918 5.4604 0
M  V30 3642 H 341.576 2.65622 4.05676 0
M  V30 3643 N 342.919 -1.39368 0.735821 0
M  V30 3644 C 343.869 -2.27885 0.0724287 0
M  V30 3645 C 344.853 -1.44301 -0.711756 0
M  V30 3646 O 346.045 -1.67206 -0.58063 0
M  V30 3647 C 343.174 -3.33029 -0.833454 0
M  V30 3648 C 342.26 -4.24078 -0.0433749 0
M  V30 3649 N 342.651 -4.96138 0.983903 0
M  V30 3650 C 340.949 -4.45164 -0.272905 0
M  V30 3651 C 341.65 -5.63069 1.4604 0
M  V30 3652 N 340.626 -5.37991 0.778857 0
M  V30 3653 H 344.428 -2.81052 0.859467 0
M  V30 3654 H 341.942 -1.5206 0.570227 0
M  V30 3655 H 343.939 -3.95311 -1.32419 0
M  V30 3656 H 342.599 -2.81421 -1.61964 0
M  V30 3657 H 343.61 -4.9958 1.36528 0
M  V30 3658 H 340.287 -4.04497 -1.03383 0
M  V30 3659 H 341.677 -6.30755 2.31511 0
M  V30 3660 N 344.397 -0.483516 -1.5 0
M  V30 3661 C 345.344 0.304164 -2.28787 0
M  V30 3662 C 346.314 0.976114 -1.34392 0
M  V30 3663 O 347.499 0.986156 -1.63339 0
M  V30 3664 C 344.639 1.37298 -3.16612 0
M  V30 3665 C 343.752 0.714561 -4.26049 0
M  V30 3666 C 342.887 1.76232 -5.01114 0
M  V30 3667 C 341.926 1.08483 -6.0241 0
M  V30 3668 N 341.063 2.076 -6.70706 0
M  V30 3669 H 345.903 -0.373981 -2.95644 0
M  V30 3670 H 343.44 -0.196275 -1.45785 0
M  V30 3671 H 345.398 2.00445 -3.65893 0
M  V30 3672 H 344.028 2.02012 -2.51776 0
M  V30 3673 H 343.08 -0.0297798 -3.80388 0
M  V30 3674 H 344.392 0.180383 -4.98474 0
M  V30 3675 H 343.546 2.46929 -5.54176 0
M  V30 3676 H 342.285 2.33033 -4.28424 0
M  V30 3677 H 341.29 0.363545 -5.48597 0
M  V30 3678 H 342.515 0.523551 -6.77079 0
M  V30 3679 H 340.461 2.63394 -6.00799 0
M  V30 3680 H 340.378 1.59201 -7.39047 0
M  V30 3681 H 341.646 2.77639 -7.2838 0
M  V30 3682 N 345.875 1.56104 -0.216619 0
M  V30 3683 C 346.807 2.17339 0.72776 0
M  V30 3684 C 347.82 1.14109 1.16116 0
M  V30 3685 O 349.009 1.4111 1.09317 0
M  V30 3686 C 346.109 2.73818 1.99693 0
M  V30 3687 C 345.282 4.02168 1.71988 0
M  V30 3688 C 344.341 4.43259 2.83562 0
M  V30 3689 O 343.367 5.10257 2.52244 0
M  V30 3690 N 344.569 4.08535 4.12407 0
M  V30 3691 H 347.334 2.99005 0.203983 0
M  V30 3692 H 344.895 1.61861 -0.0354289 0
M  V30 3693 H 346.887 2.9828 2.73516 0
M  V30 3694 H 345.457 1.96483 2.43132 0
M  V30 3695 H 344.677 3.85612 0.818337 0
M  V30 3696 H 345.965 4.85907 1.50903 0
M  V30 3697 H 345.363 3.54687 4.40696 0
M  V30 3698 H 343.92 4.37901 4.8279 0
M  V30 3699 N 347.353 -0.0568162 1.57498 0
M  V30 3700 C 348.601 -0.751617 1.87604 0
M  V30 3701 C 348.922 -1.77351 0.81066 0
M  V30 3702 O 348.192 -1.95254 -0.159018 0
M  V30 3703 H 346.772 -0.280583 0.692302 0
M  V30 3704 H 349.434 -0.0293483 1.94878 0
M  V30 3705 H 348.53 -1.25852 2.856 0
M  V30 3706 N 348.832 -1.54138 -0.328536 0
M  V30 3707 C 350.078 -1.73297 -1.06488 0
M  V30 3708 C 350.433 -0.497958 -1.85844 0
M  V30 3709 O 349.726 0.509591 -1.84699 0
M  V30 3710 C 349.92 -2.9457 -2.02393 0
M  V30 3711 C 349.749 -4.29747 -1.32467 0
M  V30 3712 C 348.519 -4.93987 -1.06324 0
M  V30 3713 C 350.717 -5.08903 -0.743137 0
M  V30 3714 N 348.699 -6.13005 -0.331359 0
M  V30 3715 C 350.07 -6.19836 -0.142602 0
M  V30 3716 C 352.125 -4.93699 -0.64546 0
M  V30 3717 C 350.828 -7.17224 0.546125 0
M  V30 3718 C 352.854 -5.91393 0.0295558 0
M  V30 3719 C 352.216 -7.01674 0.619056 0
M  V30 3720 H 348.315 -0.687017 -0.373539 0
M  V30 3721 H 350.899 -1.91589 -0.346659 0
M  V30 3722 H 349.07 -2.77752 -2.71493 0
M  V30 3723 H 350.802 -3.0238 -2.68977 0
M  V30 3724 H 347.557 -4.53824 -1.35428 0
M  V30 3725 H 347.981 -6.76997 0.0202939 0
M  V30 3726 H 352.623 -4.08589 -1.08695 0
M  V30 3727 H 350.341 -8.01896 0.999459 0
M  V30 3728 H 353.927 -5.81706 0.104705 0
M  V30 3729 H 352.807 -7.75971 1.13309 0
M  V30 3730 N 350.31 0.590341 -1.46126 0
M  V30 3731 C 351.273 1.68194 -1.55703 0
M  V30 3732 C 352.273 1.54808 -0.434868 0
M  V30 3733 O 353.463 1.59564 -0.698928 0
M  V30 3734 C 350.595 3.07575 -1.47005 0
M  V30 3735 H 351.788 1.61064 -2.52979 0
M  V30 3736 H 349.341 0.807541 -1.33823 0
M  V30 3737 H 350.076 3.20268 -0.509785 0
M  V30 3738 H 349.861 3.187 -2.28414 0
M  V30 3739 H 351.351 3.87055 -1.56776 0
M  V30 3740 N 351.788 1.33704 0.83433 0
M  V30 3741 C 353.016 1.28467 1.62185 0
M  V30 3742 C 353.431 -0.143526 1.88254 0
M  V30 3743 O 352.788 -1.08709 1.4659 0
M  V30 3744 C 352.839 2.06174 2.96942 0
M  V30 3745 O 352.56 3.43422 2.72016 0
M  V30 3746 C 354.061 2.08201 3.91366 0
M  V30 3747 H 351.281 0.4424 0.504503 0
M  V30 3748 H 353.825 1.76145 1.03891 0
M  V30 3749 H 351.98 1.62167 3.51825 0
M  V30 3750 H 352.394 3.83453 3.57861 0
M  V30 3751 H 353.868 2.67017 4.83121 0
M  V30 3752 H 354.345 1.07343 4.2588 0
M  V30 3753 H 354.951 2.52246 3.42421 0
M  V30 3754 N 353.266 -1.05314 1.17247 0
M  V30 3755 C 354.682 -1.30452 0.919473 0
M  V30 3756 C 354.882 -1.9703 -0.42209 0
M  V30 3757 O 353.938 -2.24311 -1.15935 0
M  V30 3758 C 355.251 -2.17551 2.07586 0
M  V30 3759 C 356.799 -2.30937 2.11275 0
M  V30 3760 C 357.274 -3.21396 3.26296 0
M  V30 3761 N 358.765 -3.28981 3.26076 0
M  V30 3762 C 359.5 -3.99095 4.11716 0
M  V30 3763 N 358.996 -4.71648 5.07465 0
M  V30 3764 N 360.789 -3.95247 3.9967 0
M  V30 3765 H 352.94 -0.604988 2.03602 0
M  V30 3766 H 355.203 -0.329368 0.888944 0
M  V30 3767 H 354.909 -1.75921 3.0454 0
M  V30 3768 H 354.783 -3.18182 2.02584 0
M  V30 3769 H 357.17 -2.71809 1.14907 0
M  V30 3770 H 357.251 -1.2994 2.20339 0
M  V30 3771 H 356.895 -2.81238 4.22927 0
M  V30 3772 H 356.825 -4.22395 3.14467 0
M  V30 3773 H 359.316 -2.77286 2.5675 0
M  V30 3774 H 359.629 -5.22705 5.6921 0
M  V30 3775 H 357.974 -4.70594 5.11435 0
M  V30 3776 H 361.165 -3.37691 3.24164 0
M  V30 3777 H 361.338 -4.4962 4.66632 0
M  V30 3778 O 354.783 -1.10174 -1.18084 0
M  V30 3779 H 355.474 -0.801769 -1.76327 0
M  V30 END ATOM
M  V30 BEGIN BOND
M  V30 END BOND
M  V30 END CTAB
M  END
$$$$
