drugbank_target|P11439 Exotoxin A (DB02701; DB08348)
 OpenBabel12092120013D

  0  0  0     0  0            999 V3000
M  V30 BEGIN CTAB
M  V30 COUNTS 9668 9781 0 0 0
M  V30 BEGIN ATOM
M  V30 1 H -0.908 1.98254 -0.117106 0
M  V30 2 N 0 1.576 0 0
M  V30 3 C 0.933 2.03868 1.02534 0
M  V30 4 C 1.911 0.928543 1.3348 0
M  V30 5 O 3.095 1.19667 1.45644 0
M  V30 6 C 0.222 2.43627 2.35294 0
M  V30 7 C -0.732 3.65373 2.2001 0
M  V30 8 S 0.101 5.13292 1.52614 0
M  V30 9 C 1.257 5.56322 2.86805 0
M  V30 10 H 1.49 2.90518 0.631377 0
M  V30 11 H -0.977 1.52953 0.210867 0
M  V30 12 H 0.981 2.67203 3.11629 0
M  V30 13 H -0.358 1.57376 2.7183 0
M  V30 14 H -1.165 3.90944 3.18086 0
M  V30 15 H -1.563 3.418 1.51819 0
M  V30 16 H 0.729 5.58782 3.83104 0
M  V30 17 H 1.672 6.56266 2.65933 0
M  V30 18 H 2.08 4.83886 2.90714 0
M  V30 19 N 1.4781 -0.272755 1.55222 0
M  V30 20 C 2.4281 -1.33946 1.84506 0
M  V30 21 C 3.4121 -1.44682 0.70399 0
M  V30 22 O 4.6041 -1.48358 0.965338 0
M  V30 23 C 1.7331 -2.69968 2.12067 0
M  V30 24 C 0.8191 -2.63341 3.32434 0
M  V30 25 N 1.2101 -2.26335 4.52334 0
M  V30 26 C -0.4919 -2.94402 3.35028 0
M  V30 27 C 0.2091 -2.29705 5.34425 0
M  V30 28 N -0.8149 -2.68188 4.72838 0
M  V30 29 H 2.9871 -1.04343 2.74754 0
M  V30 30 H 0.5011 -0.481389 1.55101 0
M  V30 31 H 2.4981 -3.46916 2.31202 0
M  V30 32 H 1.1581 -3.00459 1.23103 0
M  V30 33 H 2.1691 -1.98309 4.78429 0
M  V30 34 H -1.1539 -3.29603 2.56257 0
M  V30 35 H 0.2361 -2.03653 6.40293 0
M  V30 36 N 2.9562 -1.48159 -0.537278 0
M  V30 37 C 3.8862 -1.65029 -1.6519 0
M  V30 38 C 4.8672 -0.499281 -1.62607 0
M  V30 39 O 6.0522 -0.730972 -1.79918 0
M  V30 40 C 3.1822 -1.68303 -3.03795 0
M  V30 41 C 2.1362 -2.8283 -3.21234 0
M  V30 42 C 1.4622 -2.71189 -4.60826 0
M  V30 43 C 2.7622 -4.24211 -3.04701 0
M  V30 44 H 4.4562 -2.58341 -1.51328 0
M  V30 45 H 2.0022 -1.24325 -0.726585 0
M  V30 46 H 3.9552 -1.78693 -3.81637 0
M  V30 47 H 2.6792 -0.715635 -3.18663 0
M  V30 48 H 1.3382 -2.71983 -2.45807 0
M  V30 49 H 0.9862 -1.72435 -4.7252 0
M  V30 50 H 0.6862 -3.48035 -4.7344 0
M  V30 51 H 2.2102 -2.83537 -5.40777 0
M  V30 52 H 3.6242 -4.3593 -3.72341 0
M  V30 53 H 2.0212 -5.01998 -3.28813 0
M  V30 54 H 3.0912 -4.41184 -2.01209 0
M  V30 55 N 4.4343 0.785586 -1.36625 0
M  V30 56 C 5.6623 1.57448 -1.3423 0
M  V30 57 C 6.0773 1.88649 0.0755653 0
M  V30 58 O 5.4343 1.50414 1.03354 0
M  V30 59 C 5.4853 2.89316 -2.16745 0
M  V30 60 O 5.2063 2.59459 -3.53005 0
M  V30 61 C 6.7073 3.83606 -2.22174 0
M  V30 62 H 3.9273 0.488226 -0.4603 0
M  V30 63 H 6.4713 0.974733 -1.79775 0
M  V30 64 H 4.6263 3.4575 -1.74745 0
M  V30 65 H 5.0403 3.43804 -3.96105 0
M  V30 66 H 6.5143 4.73181 -2.8426 0
M  V30 67 H 6.9913 4.21734 -1.22627 0
M  V30 68 H 7.5973 3.33104 -2.64427 0
M  V30 69 N 5.9124 1.20967 1.01018 0
M  V30 70 C 7.3234 1.02319 1.56165 0
M  V30 71 C 7.6744 -0.418546 1.91684 0
M  V30 72 O 6.7994 -1.30096 1.72928 0
M  V30 73 C 7.3944 1.85109 2.8376 0
M  V30 74 C 5.9534 1.70809 3.35412 0
M  V30 75 C 5.1004 1.82643 2.08655 0
M  V30 76 H 8.0514 1.35065 0.833255 0
M  V30 77 H 8.0724 1.35827 3.55431 0
M  V30 78 H 7.5844 2.90035 2.57878 0
M  V30 79 H 5.6854 0.685464 3.66241 0
M  V30 80 H 5.7984 2.52467 4.07182 0
M  V30 81 H 4.1624 1.25896 2.21409 0
M  V30 82 H 4.9454 2.89066 1.85191 0
M  V30 83 N 7.3905 -1.2043 1.01659 0
M  V30 84 C 8.3405 -2.21076 0.557623 0
M  V30 85 C 9.3245 -1.56176 -0.387029 0
M  V30 86 O 10.5165 -1.7575 -0.209996 0
M  V30 87 C 7.6455 -3.43146 -0.102707 0
M  V30 88 C 6.7315 -4.15213 0.863652 0
M  V30 89 N 7.1225 -4.63662 2.02117 0
M  V30 90 C 5.4205 -4.40716 0.684472 0
M  V30 91 C 6.1215 -5.18868 2.62966 0
M  V30 92 N 5.0975 -5.0893 1.91027 0
M  V30 93 H 8.8995 -2.56201 1.44008 0
M  V30 94 H 6.4135 -1.36366 0.881931 0
M  V30 95 H 8.4105 -4.14475 -0.449054 0
M  V30 96 H 7.0705 -3.09526 -0.981003 0
M  V30 97 H 8.0815 -4.58877 2.40109 0
M  V30 98 H 4.7585 -4.17245 -0.14577 0
M  V30 99 H 6.1485 -5.6673 3.60924 0
M  V30 100 N 8.8686 -0.792821 -1.36206 0
M  V30 101 C 10.1146 -0.376415 -1.99887 0
M  V30 102 C 10.4696 1.04127 -1.61788 0
M  V30 103 O 9.7626 1.71004 -0.864193 0
M  V30 104 C 9.9566 -0.481501 -3.54142 0
M  V30 105 C 9.7856 -1.90786 -4.07223 0
M  V30 106 C 8.5556 -2.53322 -4.37214 0
M  V30 107 C 10.7536 -2.87048 -4.26741 0
M  V30 108 N 8.7356 -3.8751 -4.7614 0
M  V30 109 C 10.1066 -4.06077 -4.6851 0
M  V30 110 C 12.1616 -2.8406 -4.08918 0
M  V30 111 C 10.8646 -5.22532 -4.94321 0
M  V30 112 C 12.8906 -3.99705 -4.35878 0
M  V30 113 C 12.2526 -5.1748 -4.77906 0
M  V30 114 H 8.3516 -0.185226 -0.759747 0
M  V30 115 H 10.9356 -1.03114 -1.65153 0
M  V30 116 H 9.1066 0.143154 -3.88136 0
M  V30 117 H 10.8386 -0.0410128 -4.04679 0
M  V30 118 H 7.5936 -2.04777 -4.2704 0
M  V30 119 H 8.0176 -4.5656 -4.99882 0
M  V30 120 H 12.6596 -1.94165 -3.75579 0
M  V30 121 H 10.3776 -6.1301 -5.2654 0
M  V30 122 H 13.9636 -3.98758 -4.23655 0
M  V30 123 H 12.8436 -6.05478 -4.98363 0
M  V30 124 N 10.3467 1.47872 -0.545128 0
M  V30 125 C 11.5957 2.01695 -0.0145033 0
M  V30 126 C 11.9087 1.42609 1.33873 0
M  V30 127 O 13.1147 1.88021 1.95858 0
M  V30 128 C 11.5707 3.59892 0.0245068 0
M  V30 129 C 11.1787 4.27966 -1.32475 0
M  V30 130 C 12.9227 4.21507 0.50316 0
M  V30 131 C 10.8297 5.78136 -1.2455 0
M  V30 132 H 9.7597 0.753998 -0.00165172 0
M  V30 133 H 12.4107 1.69985 -0.691175 0
M  V30 134 H 10.7927 3.88509 0.766575 0
M  V30 135 H 11.9667 4.11003 -2.08357 0
M  V30 136 H 10.2817 3.78286 -1.74036 0
M  V30 137 H 12.8787 5.31538 0.580656 0
M  V30 138 H 13.2217 3.87855 1.51243 0
M  V30 139 H 13.7547 3.97376 -0.183681 0
M  V30 140 H 10.4937 6.16388 -2.23039 0
M  V30 141 H 10.0137 5.97469 -0.528282 0
M  V30 142 H 11.6927 6.40099 -0.942488 0
M  V30 143 N 11.8248 0.280983 1.55075 0
M  V30 144 C 13.2358 -0.215629 1.85451 0
M  V30 145 C 13.5868 -1.54991 1.203 0
M  V30 146 O 12.7118 -2.10699 0.493435 0
M  V30 147 C 13.3068 -0.398026 3.36454 0
M  V30 148 C 11.8658 -0.838866 3.66933 0
M  V30 149 C 11.0128 0.064458 2.77225 0
M  V30 150 H 13.9638 0.502601 1.50531 0
M  V30 151 H 13.9848 -1.23569 3.59876 0
M  V30 152 H 13.4968 0.573241 3.83843 0
M  V30 153 H 11.5978 -1.8214 3.25048 0
M  V30 154 H 11.7108 -0.672123 4.74362 0
M  V30 155 H 10.0748 -0.452863 2.50642 0
M  V30 156 H 10.8578 1.03172 3.2743 0
M  V30 157 N 13.3029 -1.57598 0.00835791 0
M  V30 158 C 14.2329 -2.1198 -0.979113 0
M  V30 159 C 15.2139 -1.03091 -1.35301 0
M  V30 160 O 16.3989 -1.30818 -1.43528 0
M  V30 161 C 13.5289 -2.62995 -2.26828 0
M  V30 162 C 12.4829 -3.76485 -2.03576 0
M  V30 163 C 11.8089 -4.13846 -3.38579 0
M  V30 164 C 13.1089 -5.0342 -1.39161 0
M  V30 165 H 14.8029 -2.94738 -0.526281 0
M  V30 166 H 12.3489 -1.41783 -0.251704 0
M  V30 167 H 14.3019 -2.99669 -2.96271 0
M  V30 168 H 13.0259 -1.7737 -2.7424 0
M  V30 169 H 11.6849 -3.40217 -1.36557 0
M  V30 170 H 11.3329 -3.25232 -3.83709 0
M  V30 171 H 11.0329 -4.90312 -3.23834 0
M  V30 172 H 12.5569 -4.53086 -4.09323 0
M  V30 173 H 13.9709 -5.37812 -1.98573 0
M  V30 174 H 12.3679 -5.84746 -1.34878 0
M  V30 175 H 13.4379 -4.83548 -0.361868 0
M  V30 176 N 14.781 0.264519 -1.55364 0
M  V30 177 C 16.027 0.99646 -1.76631 0
M  V30 178 C 16.36 1.85632 -0.570478 0
M  V30 179 O 15.635 1.89647 0.43175 0
M  V30 180 C 15.918 1.87187 -3.07625 0
M  V30 181 C 15.771 1.04138 -4.37579 0
M  V30 182 C 17.09 2.85749 -3.34717 0
M  V30 183 H 14.209 0.360841 -0.642622 0
M  V30 184 H 16.851 0.268218 -1.88097 0
M  V30 185 H 15.001 2.49279 -2.9798 0
M  V30 186 H 16.673 0.440517 -4.59192 0
M  V30 187 H 14.916 0.345115 -4.32425 0
M  V30 188 H 15.587 1.68729 -5.2558 0
M  V30 189 H 18.063 2.33793 -3.4421 0
M  V30 190 H 16.939 3.44136 -4.27623 0
M  V30 191 H 17.2 3.61311 -2.54768 0
M  V30 192 N 16.2591 1.48442 0.529413 0
M  V30 193 C 17.2221 1.62524 1.61612 0
M  V30 194 C 18.2221 0.498509 1.52877 0
M  V30 195 O 19.4121 0.76431 1.56537 0
M  V30 196 C 16.5441 1.59597 3.01233 0
M  V30 197 H 17.7371 2.59423 1.50465 0
M  V30 198 H 15.2901 1.37047 0.751514 0
M  V30 199 H 16.0251 0.641781 3.17886 0
M  V30 200 H 15.8101 2.41397 3.08982 0
M  V30 201 H 17.3001 1.72646 3.80241 0
M  V30 202 N 17.7372 -0.778329 1.37039 0
M  V30 203 C 18.9622 -1.57248 1.35233 0
M  V30 204 C 19.3872 -1.87999 -0.0615568 0
M  V30 205 O 18.7452 -1.48734 -1.03672 0
M  V30 206 C 18.7932 -2.86353 2.19167 0
M  V30 207 O 17.8972 -3.80442 1.59178 0
M  V30 208 H 17.2382 -0.476569 0.462362 0
M  V30 209 H 19.7682 -0.963853 1.80474 0
M  V30 210 H 19.7782 -3.35519 2.32145 0
M  V30 211 H 18.4532 -2.63299 3.21942 0
M  V30 212 H 17.0302 -3.39067 1.55203 0
M  V30 213 N 19.2153 -1.21501 -1.00376 0
M  V30 214 C 20.1453 -0.999478 -2.11028 0
M  V30 215 C 21.1263 0.0759671 -1.6993 0
M  V30 216 O 22.3113 -0.0841106 -1.94018 0
M  V30 217 C 19.4413 -0.564709 -3.42678 0
M  V30 218 C 18.3953 -1.58486 -3.97576 0
M  V30 219 C 17.7213 -1.00628 -5.25146 0
M  V30 220 C 19.0213 -2.97204 -4.29496 0
M  V30 221 H 20.7153 -1.92495 -2.29317 0
M  V30 222 H 18.2613 -0.92693 -1.102 0
M  V30 223 H 20.2143 -0.401091 -4.19487 0
M  V30 224 H 18.9383 0.396411 -3.24185 0
M  V30 225 H 17.5973 -1.73606 -3.22888 0
M  V30 226 H 17.2453 -0.0368439 -5.02987 0
M  V30 227 H 16.9453 -1.68771 -5.62841 0
M  V30 228 H 18.4693 -0.854015 -6.04598 0
M  V30 229 H 19.8833 -2.8552 -4.97143 0
M  V30 230 H 18.2803 -3.62372 -4.78338 0
M  V30 231 H 19.3503 -3.47956 -3.3772 0
M  V30 232 N 20.6934 1.19889 -1.02296 0
M  V30 233 C 21.9414 1.89046 -0.714558 0
M  V30 234 C 22.2624 1.79636 0.758681 0
M  V30 235 O 21.5324 1.20292 1.54618 0
M  V30 236 H 20.1124 0.699802 -0.261317 0
M  V30 237 H 22.7744 1.45574 -1.29592 0
M  V30 238 H 21.8704 2.95524 -1.0036 0
M  V30 239 N 22.1715 0.800033 1.35784 0
M  V30 240 C 23.1015 0.220184 2.3246 0
M  V30 241 C 24.0825 -0.65073 1.57161 0
M  V30 242 O 25.2675 -0.582359 1.85263 0
M  V30 243 C 22.3975 -0.637353 3.41402 0
M  V30 244 C 21.3515 0.134531 4.27789 0
M  V30 245 C 20.6775 -0.844285 5.27992 0
M  V30 246 C 21.9775 1.32979 5.05088 0
M  V30 247 H 23.6715 1.02787 2.81203 0
M  V30 248 H 21.2175 0.495717 1.35199 0
M  V30 249 H 23.1705 -1.05302 4.08031 0
M  V30 250 H 21.8945 -1.47785 2.91251 0
M  V30 251 H 20.5535 0.531296 3.6273 0
M  V30 252 H 20.2015 -1.68011 4.74111 0
M  V30 253 H 19.9015 -0.332184 5.8666 0
M  V30 254 H 21.4255 -1.2583 5.97494 0
M  V30 255 H 22.8395 0.98934 5.64699 0
M  V30 256 H 21.2365 1.77593 5.7322 0
M  V30 257 H 22.3065 2.11978 4.36111 0
M  V30 258 N 23.6496 -1.47581 0.552962 0
M  V30 259 C 24.5796 -2.32762 -0.185451 0
M  V30 260 C 25.5606 -1.43527 -0.912905 0
M  V30 261 O 26.7456 -1.72388 -0.894201 0
M  V30 262 C 23.8756 -3.25219 -1.21859 0
M  V30 263 C 22.8296 -4.23661 -0.607864 0
M  V30 264 C 22.1556 -5.05413 -1.74533 0
M  V30 265 C 23.4556 -5.20481 0.435582 0
M  V30 266 H 25.1496 -2.94749 0.525684 0
M  V30 267 H 22.6956 -1.41738 0.254251 0
M  V30 268 H 24.6486 -3.8365 -1.7433 0
M  V30 269 H 23.3726 -2.61279 -1.95961 0
M  V30 270 H 22.0316 -3.66451 -0.104489 0
M  V30 271 H 21.6796 -4.3788 -2.47529 0
M  V30 272 H 21.3796 -5.72059 -1.34249 0
M  V30 273 H 22.9036 -5.66701 -2.27338 0
M  V30 274 H 24.3176 -5.733 -0.00290157 0
M  V30 275 H 22.7146 -5.95305 0.757067 0
M  V30 276 H 23.7846 -4.66217 1.33303 0
M  V30 277 N 25.1277 -0.289203 -1.54924 0
M  V30 278 C 26.0907 0.579144 -2.21762 0
M  V30 279 C 27.0907 1.07047 -1.1999 0
M  V30 280 O 28.2807 0.968384 -1.44803 0
M  V30 281 C 25.4127 1.80055 -2.8947 0
M  V30 282 H 26.6057 -0.00464908 -2.999 0
M  V30 283 H 24.1587 -0.0399306 -1.56249 0
M  V30 284 H 24.8937 2.42449 -2.15381 0
M  V30 285 H 24.6787 1.45602 -3.64064 0
M  V30 286 H 26.1687 2.41773 -3.40493 0
M  V30 287 N 26.6058 1.57591 -0.0167156 0
M  V30 288 C 27.8538 1.90906 0.663285 0
M  V30 289 C 28.1748 0.892509 1.73376 0
M  V30 290 O 27.4448 -0.0677623 1.95783 0
M  V30 291 H 26.0248 0.704637 0.247983 0
M  V30 292 H 28.6868 1.94803 -0.0615909 0
M  V30 293 H 27.7828 2.9116 1.12393 0
M  V30 294 N 28.0839 -0.256276 1.55502 0
M  V30 295 C 29.3319 -0.983672 1.76545 0
M  V30 296 C 29.6529 -1.86206 0.578982 0
M  V30 297 O 28.9229 -1.91656 -0.405577 0
M  V30 298 H 27.5029 -0.366191 0.651086 0
M  V30 299 H 30.1649 -0.276479 1.92929 0
M  V30 300 H 29.2609 -1.61087 2.67315 0
M  V30 301 N 29.562 -1.4872 -0.521534 0
M  V30 302 C 30.787 -1.61101 -1.30618 0
M  V30 303 C 31.212 -0.274611 -1.86085 0
M  V30 304 O 30.57 0.754937 -1.64834 0
M  V30 305 C 30.618 -2.66709 -2.4269 0
M  V30 306 O 29.722 -2.24456 -3.45967 0
M  V30 307 H 29.063 -0.539921 -0.386499 0
M  V30 308 H 31.593 -1.94767 -0.626645 0
M  V30 309 H 31.603 -2.88245 -2.88754 0
M  V30 310 H 30.278 -3.63727 -2.01682 0
M  V30 311 H 28.855 -2.13168 -3.05964 0
M  V30 312 N 31.0401 0.771051 -1.3745 0
M  V30 313 C 32.2871 1.52963 -1.32697 0
M  V30 314 C 32.6151 1.94299 0.0883274 0
M  V30 315 O 31.8701 1.64397 1.0617 0
M  V30 316 C 32.1691 2.80676 -2.2126 0
M  V30 317 C 31.8351 2.58389 -3.69521 0
M  V30 318 C 30.4971 2.52019 -4.09927 0
M  V30 319 C 32.8491 2.38469 -4.63446 0
M  V30 320 C 30.1771 2.23721 -5.42371 0
M  V30 321 C 32.5291 2.11694 -5.96128 0
M  V30 322 C 31.1931 2.03769 -6.35637 0
M  V30 323 H 30.4631 0.559732 -0.485573 0
M  V30 324 H 33.1101 0.888083 -1.69662 0
M  V30 325 H 31.4151 3.49392 -1.77291 0
M  V30 326 H 33.1121 3.38557 -2.14895 0
M  V30 327 H 29.7021 2.6421 -3.37478 0
M  V30 328 H 33.8861 2.4238 -4.33089 0
M  V30 329 H 29.1421 2.16081 -5.71943 0
M  V30 330 H 33.3161 1.9528 -6.6846 0
M  V30 331 H 30.9431 1.81606 -7.38189 0
M  V30 332 N 32.5182 1.22032 0.997298 0
M  V30 333 C 33.4812 0.987909 2.06816 0
M  V30 334 C 34.4812 -0.0440084 1.6074 0
M  V30 335 O 35.6712 0.194053 1.73116 0
M  V30 336 C 32.8032 0.49132 3.37341 0
M  V30 337 H 33.9962 1.93803 2.28868 0
M  V30 338 H 31.5492 1.03838 1.16822 0
M  V30 339 H 32.2842 -0.463364 3.20973 0
M  V30 340 H 32.0692 1.23575 3.72118 0
M  V30 341 H 33.5592 0.348824 4.16141 0
M  V30 342 N 33.9963 -1.19345 1.0293 0
M  V30 343 C 35.2213 -1.93538 0.745511 0
M  V30 344 C 35.6463 -1.75007 -0.689511 0
M  V30 345 O 35.0043 -1.05265 -1.47611 0
M  V30 346 C 35.0523 -3.43336 1.10239 0
M  V30 347 O 34.1563 -4.11806 0.221289 0
M  V30 348 H 33.4973 -0.604193 0.275404 0
M  V30 349 H 36.0273 -1.5141 1.37609 0
M  V30 350 H 36.0373 -3.94004 1.05947 0
M  V30 351 H 34.7123 -3.56146 2.14786 0
M  V30 352 H 33.2893 -3.715 0.322842 0
M  V30 353 N 35.4744 -0.807222 -1.35358 0
M  V30 354 C 36.4374 -0.223665 -2.28106 0
M  V30 355 C 37.4374 0.589354 -1.4961 0
M  V30 356 O 38.6274 0.407745 -1.69361 0
M  V30 357 C 35.7594 0.688149 -3.33882 0
M  V30 358 H 36.9524 -1.04169 -2.81227 0
M  V30 359 H 34.5054 -0.577921 -1.45223 0
M  V30 360 H 35.2404 1.52984 -2.85948 0
M  V30 361 H 35.0254 0.10687 -3.91954 0
M  V30 362 H 36.5154 1.09075 -4.03104 0
M  V30 363 N 36.9525 1.47285 -0.560781 0
M  V30 364 C 37.9155 2.28535 0.174488 0
M  V30 365 C 38.9155 1.37153 0.839388 0
M  V30 366 O 40.1055 1.59748 0.694702 0
M  V30 367 C 37.2375 3.16934 1.25561 0
M  V30 368 H 38.4305 2.95012 -0.539262 0
M  V30 369 H 35.9835 1.53034 -0.317865 0
M  V30 370 H 36.7185 2.55157 2.00164 0
M  V30 371 H 36.5035 3.8419 0.783604 0
M  V30 372 H 37.9935 3.78143 1.77193 0
M  V30 373 N 38.4306 0.297415 1.54768 0
M  V30 374 C 39.3406 -0.58983 2.27064 0
M  V30 375 C 40.3566 -1.15144 1.30453 0
M  V30 376 O 41.5326 -1.17699 1.63428 0
M  V30 377 C 38.5976 -1.74714 2.9946 0
M  V30 378 C 37.6586 -1.21997 4.11601 0
M  V30 379 C 36.8916 -2.32212 4.80535 0
M  V30 380 O 37.1146 -3.52036 4.48806 0
M  V30 381 O 36.0486 -1.99106 5.68014 0
M  V30 382 H 39.8746 -0.00348199 3.037 0
M  V30 383 H 37.4596 0.0640035 1.49263 0
M  V30 384 H 39.3416 -2.42147 3.44881 0
M  V30 385 H 38.0166 -2.32016 2.25722 0
M  V30 386 H 36.9236 -0.511458 3.70587 0
M  V30 387 H 38.2566 -0.692419 4.87305 0
M  V30 388 N 39.9087 -1.5758 0.0250728 0
M  V30 389 C 40.8187 -2.1343 -0.973905 0
M  V30 390 C 41.8347 -1.08556 -1.35984 0
M  V30 391 O 43.0107 -1.40592 -1.44207 0
M  V30 392 C 40.0757 -2.64703 -2.23904 0
M  V30 393 C 39.1367 -3.84276 -1.91391 0
M  V30 394 C 38.3697 -4.33095 -3.11873 0
M  V30 395 O 38.5927 -3.81107 -4.24398 0
M  V30 396 O 37.5267 -5.24984 -2.94406 0
M  V30 397 H 41.3527 -2.99057 -0.529036 0
M  V30 398 H 38.9377 -1.48118 -0.195288 0
M  V30 399 H 40.8197 -2.97769 -2.98181 0
M  V30 400 H 39.4947 -1.82161 -2.6758 0
M  V30 401 H 38.4017 -3.56143 -1.14511 0
M  V30 402 H 39.7347 -4.67968 -1.52534 0
M  V30 403 N 41.3868 0.248026 -1.55636 0
M  V30 404 C 42.3498 1.29044 -1.89421 0
M  V30 405 C 43.3498 1.41134 -0.770581 0
M  V30 406 O 44.5398 1.39854 -1.03858 0
M  V30 407 C 41.6718 2.66831 -2.12165 0
M  V30 408 H 42.8648 1.00305 -2.82629 0
M  V30 409 H 40.4178 0.487265 -1.48511 0
M  V30 410 H 41.1528 3.00711 -1.21422 0
M  V30 411 H 40.9378 2.59438 -2.93997 0
M  V30 412 H 42.4278 3.42103 -2.3949 0
M  V30 413 N 42.8649 1.48995 0.513639 0
M  V30 414 C 44.1119 1.57843 1.26854 0
M  V30 415 C 44.4399 0.259501 1.92761 0
M  V30 416 O 43.6949 -0.75159 1.80692 0
M  V30 417 C 43.9939 2.67756 2.36731 0
M  V30 418 C 43.6599 4.09669 1.88368 0
M  V30 419 C 42.3219 4.48291 1.74896 0
M  V30 420 C 44.6739 4.98537 1.52021 0
M  V30 421 C 42.0019 5.73568 1.23438 0
M  V30 422 C 44.3539 6.24319 1.0202 0
M  V30 423 C 43.0179 6.61783 0.871778 0
M  V30 424 H 42.2879 0.577587 0.464192 0
M  V30 425 H 44.9349 1.82778 0.571366 0
M  V30 426 H 43.2399 2.36743 3.12185 0
M  V30 427 H 44.9369 2.71813 2.9482 0
M  V30 428 H 41.5269 3.79176 1.99808 0
M  V30 429 H 45.7109 4.69363 1.61281 0
M  V30 430 H 40.9669 6.01304 1.10648 0
M  V30 431 H 45.1409 6.92566 0.729722 0
M  V30 432 H 42.7679 7.5874 0.470852 0
M  V30 433 N 44.343 -0.763751 1.37857 0
M  V30 434 C 45.62 -1.51244 1.24035 0
M  V30 435 C 46 -2.10472 -0.162649 0
M  V30 436 O 45.348 -1.96206 -1.17112 0
M  V30 437 C 45.558 -2.58694 2.34261 0
M  V30 438 C 46.906 -3.25878 2.72193 0
M  V30 439 O 47.93 -2.68993 2.33497 0
M  V30 440 O 46.789 -4.2874 3.38887 0
M  V30 441 H 43.883 -0.670243 0.484462 0
M  V30 442 H 46.429 -0.800031 1.49658 0
M  V30 443 H 45.201 -2.13105 3.2818 0
M  V30 444 H 44.824 -3.37527 2.10146 0
M  V30 445 N 45.8211 -1.22559 -0.990812 0
M  V30 446 C 46.7511 -1.0218 -2.09956 0
M  V30 447 C 47.7321 0.0579394 -1.70001 0
M  V30 448 O 48.9171 -0.104684 -1.93918 0
M  V30 449 C 46.0471 -0.601023 -3.4206 0
M  V30 450 C 45.0011 -1.62694 -3.95872 0
M  V30 451 C 44.3271 -1.06193 -5.24049 0
M  V30 452 C 45.6271 -3.01743 -4.2632 0
M  V30 453 H 47.3211 -1.94916 -2.27262 0
M  V30 454 H 44.8671 -0.938566 -1.09211 0
M  V30 455 H 46.8201 -0.445561 -4.19038 0
M  V30 456 H 45.5441 0.362005 -3.24588 0
M  V30 457 H 44.2031 -1.77021 -3.21028 0
M  V30 458 H 43.8511 -0.0901903 -5.02919 0
M  V30 459 H 43.5511 -1.74732 -5.61019 0
M  V30 460 H 45.0751 -0.918092 -6.03658 0
M  V30 461 H 46.4891 -2.90777 -4.94087 0
M  V30 462 H 44.8861 -3.67425 -4.74467 0
M  V30 463 H 45.9561 -3.51518 -3.34011 0
M  V30 464 N 47.2992 1.18797 -1.03562 0
M  V30 465 C 48.5452 1.89192 -0.746867 0
M  V30 466 C 48.9002 1.78531 0.717245 0
M  V30 467 O 48.1932 1.17137 1.51622 0
M  V30 468 C 48.3872 3.38692 -1.14117 0
M  V30 469 C 48.2162 3.63902 -2.64207 0
M  V30 470 C 46.9862 3.81553 -3.31279 0
M  V30 471 C 49.1842 3.64903 -3.62423 0
M  V30 472 N 47.1662 3.94455 -4.70402 0
M  V30 473 C 48.5372 3.83458 -4.87196 0
M  V30 474 C 50.5922 3.47965 -3.56125 0
M  V30 475 C 49.2952 3.86829 -6.06429 0
M  V30 476 C 51.3212 3.52616 -4.7478 0
M  V30 477 C 50.6832 3.71663 -5.9837 0
M  V30 478 H 46.7822 0.711141 -0.325273 0
M  V30 479 H 49.3662 1.42727 -1.32428 0
M  V30 480 H 47.5372 3.83864 -0.591889 0
M  V30 481 H 49.2692 3.96634 -0.803966 0
M  V30 482 H 46.0242 3.80723 -2.81686 0
M  V30 483 H 46.4482 4.0474 -5.42692 0
M  V30 484 H 51.0902 3.32189 -2.61553 0
M  V30 485 H 48.8082 4.01395 -7.01362 0
M  V30 486 H 52.3942 3.40791 -4.71543 0
M  V30 487 H 51.2742 3.75145 -6.88648 0
M  V30 488 N 48.7773 0.814389 1.34928 0
M  V30 489 C 49.7253 0.218424 2.31572 0
M  V30 490 C 50.7193 -0.636128 1.57002 0
M  V30 491 O 51.9253 -0.52842 1.72069 0
M  V30 492 H 48.3003 0.0518799 0.750208 0
M  V30 493 H 50.2713 1.04852 2.79372 0
M  V30 494 C 49.0203 -0.61207 3.4227 0
M  V30 495 H 48.3433 0.0361578 3.99784 0
M  V30 496 H 49.7833 -0.995317 4.12152 0
M  V30 497 C 48.2423 -1.78087 2.85984 0
M  V30 498 O 48.7723 -2.8787 2.80168 0
M  V30 499 N 46.9783 -1.59488 2.42924 0
M  V30 500 H 46.5253 -0.701874 2.47854 0
M  V30 501 H 46.4833 -2.37846 2.05613 0
M  V30 502 N 50.2554 -1.46986 0.568584 0
M  V30 503 C 51.1654 -2.33942 -0.17555 0
M  V30 504 C 52.1814 -1.48891 -0.90041 0
M  V30 505 O 53.3574 -1.81794 -0.86676 0
M  V30 506 C 50.4224 -3.25811 -1.18524 0
M  V30 507 C 49.4834 -4.26757 -0.466582 0
M  V30 508 C 48.7164 -5.14236 -1.42817 0
M  V30 509 O 48.9394 -5.04379 -2.66379 0
M  V30 510 O 47.8734 -5.94412 -0.946453 0
M  V30 511 H 51.6994 -2.98896 0.538036 0
M  V30 512 H 49.2844 -1.4573 0.329097 0
M  V30 513 H 51.1664 -3.82527 -1.76779 0
M  V30 514 H 49.8414 -2.63471 -1.88055 0
M  V30 515 H 48.7484 -3.73769 0.157451 0
M  V30 516 H 50.0814 -4.91843 0.187485 0
M  V30 517 N 51.7335 -0.305618 -1.54608 0
M  V30 518 C 52.9735 0.303114 -2.0214 0
M  V30 519 C 53.3375 1.50737 -1.18921 0
M  V30 520 O 54.5385 2.18778 -1.56172 0
M  V30 521 C 52.8095 0.646332 -3.51507 0
M  V30 522 S 54.3685 1.23727 -4.20995 0
M  V30 523 H 51.1865 0.0927643 -0.704923 0
M  V30 524 H 53.7885 -0.434566 -1.90609 0
M  V30 525 H 52.4925 -0.238541 -4.09706 0
M  V30 526 H 52.0235 1.41468 -3.67084 0
M  V30 527 H 54.0385 2.52489 -4.27158 0
M  V30 528 N 53.2116 1.57565 -0.0334293 0
M  V30 529 C 54.1746 2.09393 0.932048 0
M  V30 530 C 55.1746 1.00986 1.25134 0
M  V30 531 O 56.3646 1.27129 1.19096 0
M  V30 532 C 53.4966 2.56338 2.2473 0
M  V30 533 H 54.6896 2.95984 0.483085 0
M  V30 534 H 52.2426 1.54819 0.21468 0
M  V30 535 H 52.9776 1.7309 2.74245 0
M  V30 536 H 52.7626 3.35542 2.02865 0
M  V30 537 H 54.2526 2.96646 2.93923 0
M  V30 538 N 54.6897 -0.239769 1.55765 0
M  V30 539 C 55.6367 -1.29696 1.90913 0
M  V30 540 C 56.6067 -1.47478 0.764164 0
M  V30 541 O 57.7917 -1.61345 1.01845 0
M  V30 542 C 54.9317 -2.64598 2.21544 0
M  V30 543 C 54.0447 -2.54765 3.48882 0
M  V30 544 C 53.1797 -3.82069 3.69049 0
M  V30 545 C 52.2187 -3.66883 4.89963 0
M  V30 546 N 51.3557 -4.86094 5.06614 0
M  V30 547 H 56.1957 -0.990224 2.81067 0
M  V30 548 H 53.7327 -0.477684 1.39128 0
M  V30 549 H 55.6907 -3.43132 2.3731 0
M  V30 550 H 54.3207 -2.93405 1.34585 0
M  V30 551 H 53.3727 -1.67763 3.41409 0
M  V30 552 H 54.6847 -2.39457 4.37563 0
M  V30 553 H 53.8387 -4.69046 3.84812 0
M  V30 554 H 52.5777 -4.00282 2.78614 0
M  V30 555 H 51.5827 -2.78289 4.74168 0
M  V30 556 H 52.8077 -3.50157 5.81865 0
M  V30 557 H 50.7537 -5.04655 4.19117 0
M  V30 558 H 50.6707 -4.73443 5.89396 0
M  V30 559 H 51.9387 -5.74549 5.26795 0
M  V30 560 N 56.1678 -1.49265 -0.50573 0
M  V30 561 C 57.1308 -1.65075 -1.59006 0
M  V30 562 C 58.1308 -0.522768 -1.52065 0
M  V30 563 O 59.3208 -0.789117 -1.55302 0
M  V30 564 C 56.4528 -1.64369 -2.98656 0
M  V30 565 H 57.6458 -2.61784 -1.46319 0
M  V30 566 H 55.1988 -1.38226 -0.729616 0
M  V30 567 H 55.9338 -0.692272 -3.16825 0
M  V30 568 H 55.7188 -2.46282 -3.05103 0
M  V30 569 H 57.2088 -1.78674 -3.77446 0
M  V30 570 N 57.6459 0.756429 -1.3826 0
M  V30 571 C 58.8859 1.52833 -1.35725 0
M  V30 572 C 59.2499 1.91926 0.0534106 0
M  V30 573 O 60.4509 2.68028 0.203613 0
M  V30 574 C 58.7219 2.74919 -2.28373 0
M  V30 575 S 60.2809 3.64817 -2.43832 0
M  V30 576 H 57.0989 0.523043 -0.481608 0
M  V30 577 H 59.7009 0.888212 -1.74158 0
M  V30 578 H 58.4049 2.44304 -3.29763 0
M  V30 579 H 57.9359 3.43878 -1.91079 0
M  V30 580 H 59.9509 4.676 -1.66027 0
M  V30 581 N 59.124 1.23083 0.984299 0
M  V30 582 C 60.37 1.06214 1.72761 0
M  V30 583 C 60.703 -0.400584 1.90024 0
M  V30 584 O 59.978 -1.29672 1.44967 0
M  V30 585 C 60.261 1.78375 3.12817 0
M  V30 586 C 60.114 3.32296 3.03149 0
M  V30 587 C 61.433 1.54309 4.12161 0
M  V30 588 H 58.552 0.387251 0.627061 0
M  V30 589 H 61.194 1.51536 1.14616 0
M  V30 590 H 59.344 1.39848 3.62457 0
M  V30 591 H 61.016 3.8032 2.61064 0
M  V30 592 H 59.259 3.6153 2.39747 0
M  V30 593 H 59.93 3.77972 4.02295 0
M  V30 594 H 62.406 1.87791 3.71314 0
M  V30 595 H 61.282 2.07281 5.08258 0
M  V30 596 H 61.543 0.477572 4.39513 0
M  V30 597 N 60.6021 -1.18246 1.0419 0
M  V30 598 C 61.5321 -2.24127 0.654914 0
M  V30 599 C 62.5131 -1.66617 -0.342451 0
M  V30 600 O 63.6981 -1.92924 -0.222277 0
M  V30 601 C 60.8281 -3.47295 0.0183757 0
M  V30 602 C 59.7821 -4.17563 0.939414 0
M  V30 603 C 59.1081 -5.34438 0.167286 0
M  V30 604 C 60.4081 -4.70917 2.25908 0
M  V30 605 H 62.1021 -2.56753 1.54007 0
M  V30 606 H 59.6481 -1.23414 0.74195 0
M  V30 607 H 61.6011 -4.20572 -0.264082 0
M  V30 608 H 60.3251 -3.13907 -0.901664 0
M  V30 609 H 58.9841 -3.46186 1.20628 0
M  V30 610 H 58.6321 -4.97298 -0.7552 0
M  V30 611 H 58.3321 -5.82388 0.780901 0
M  V30 612 H 59.8561 -6.10504 -0.108125 0
M  V30 613 H 61.2701 -5.35882 2.03724 0
M  V30 614 H 59.6671 -5.29406 2.82577 0
M  V30 615 H 60.7371 -3.88272 2.9047 0
M  V30 616 N 62.0802 -0.821533 -1.34494 0
M  V30 617 C 63.3572 -0.33159 -1.92769 0
M  V30 618 C 63.7372 1.18088 -1.74981 0
M  V30 619 O 63.0852 1.98733 -1.12772 0
M  V30 620 C 63.2952 -0.759398 -3.40638 0
M  V30 621 C 64.6432 -0.757433 -4.1779 0
M  V30 622 O 65.6672 -0.70189 -3.49216 0
M  V30 623 O 64.5262 -0.829361 -5.4017 0
M  V30 624 H 61.6202 -0.0902502 -0.822061 0
M  V30 625 H 64.1662 -0.906231 -1.43477 0
M  V30 626 H 62.9382 -1.8012 -3.47379 0
M  V30 627 H 62.5612 -0.160378 -3.97276 0
M  V30 628 N 63.5583 1.46682 -0.576371 0
M  V30 629 C 64.4883 2.33028 0.148397 0
M  V30 630 C 65.4693 1.44961 0.889956 0
M  V30 631 O 66.6543 1.73789 0.866662 0
M  V30 632 C 63.7843 3.27117 1.1667 0
M  V30 633 C 62.7383 4.24575 0.540386 0
M  V30 634 C 62.0643 5.08126 1.6647 0
M  V30 635 C 63.3643 5.19722 -0.518331 0
M  V30 636 H 65.0583 2.93875 -0.572509 0
M  V30 637 H 62.6043 1.41315 -0.276768 0
M  V30 638 H 64.5573 3.86374 1.68204 0
M  V30 639 H 63.2813 2.64364 1.9178 0
M  V30 640 H 61.9403 3.66571 0.0461769 0
M  V30 641 H 61.5883 4.41762 2.40531 0
M  V30 642 H 61.2883 5.74122 1.25131 0
M  V30 643 H 62.8123 5.70246 2.18293 0
M  V30 644 H 64.2263 5.73232 -0.0883058 0
M  V30 645 H 62.6233 5.94026 -0.851679 0
M  V30 646 H 63.6933 4.64037 -1.40703 0
M  V30 647 N 65.0364 0.313813 1.54444 0
M  V30 648 C 65.9834 -0.55655 2.23989 0
M  V30 649 C 66.9534 -1.11943 1.22711 0
M  V30 650 O 68.1384 -1.16158 1.51367 0
M  V30 651 C 65.2784 -1.71635 2.99392 0
M  V30 652 C 64.3914 -1.18364 4.15468 0
M  V30 653 C 63.5264 -2.30834 4.78424 0
M  V30 654 C 62.5654 -1.74762 5.86622 0
M  V30 655 N 61.7024 -2.80855 6.43479 0
M  V30 656 H 66.5424 0.0430893 2.97969 0
M  V30 657 H 64.0794 0.0330359 1.47063 0
M  V30 658 H 66.0374 -2.39868 3.41349 0
M  V30 659 H 64.6674 -2.28742 2.27765 0
M  V30 660 H 63.7194 -0.393163 3.78363 0
M  V30 661 H 65.0314 -0.733262 4.93381 0
M  V30 662 H 64.1854 -3.0699 5.23299 0
M  V30 663 H 62.9244 -2.79204 3.99871 0
M  V30 664 H 61.9294 -0.970995 5.41158 0
M  V30 665 H 63.1544 -1.2728 6.67066 0
M  V30 666 H 61.1004 -3.28535 5.67804 0
M  V30 667 H 61.0174 -2.40351 7.16776 0
M  V30 668 H 62.2854 -3.5687 6.93011 0
M  V30 669 N 66.5145 -1.57545 0.0417849 0
M  V30 670 C 67.7915 -1.83642 -0.673433 0
M  V30 671 C 68.1715 -0.928298 -1.89594 0
M  V30 672 O 67.5195 0.0129955 -2.28496 0
M  V30 673 C 67.7295 -3.33155 -1.03964 0
M  V30 674 C 69.0775 -3.99941 -1.42592 0
M  V30 675 O 70.1015 -3.37725 -1.13226 0
M  V30 676 O 68.9605 -5.09619 -1.9736 0
M  V30 677 H 66.0545 -0.757638 -0.331533 0
M  V30 678 H 68.6005 -1.69554 0.070433 0
M  V30 679 H 67.3725 -3.9093 -0.170098 0
M  V30 680 H 66.9955 -3.52396 -1.84126 0
M  V30 681 N 67.9926 0.231505 -1.5589 0
M  V30 682 C 69.2406 0.955461 -1.78088 0
M  V30 683 C 69.5616 1.85262 -0.608533 0
M  V30 684 O 68.8316 1.92277 0.375035 0
M  V30 685 H 67.4116 0.355787 -0.656829 0
M  V30 686 H 70.0736 0.245751 -1.93344 0
M  V30 687 H 69.1696 1.56814 -2.69844 0
M  V30 688 N 69.4707 1.49531 0.497807 0
M  V30 689 C 70.7167 1.59415 1.25358 0
M  V30 690 C 71.0497 0.281422 1.9215 0
M  V30 691 O 70.3247 -0.715249 1.80871 0
M  V30 692 C 70.6077 2.75566 2.3181 0
M  V30 693 C 70.4607 4.16642 1.69498 0
M  V30 694 C 71.7797 2.87347 3.33346 0
M  V30 695 H 68.8987 0.580244 0.454408 0
M  V30 696 H 71.5407 1.81827 0.551262 0
M  V30 697 H 69.6907 2.56587 2.91711 0
M  V30 698 H 71.3627 4.47145 1.13399 0
M  V30 699 H 69.6057 4.22141 0.998978 0
M  V30 700 H 70.2767 4.93792 2.46725 0
M  V30 701 H 72.7527 3.04634 2.83438 0
M  V30 702 H 71.6287 3.70289 4.05188 0
M  V30 703 H 71.8897 1.96834 3.95865 0
M  V30 704 N 70.9488 -0.749086 1.3866 0
M  V30 705 C 72.3648 -1.05276 1.19955 0
M  V30 706 C 72.5648 -2.01435 0.05134 0
M  V30 707 O 71.6208 -2.45232 -0.60147 0
M  V30 708 C 72.9338 -1.62853 2.52783 0
M  V30 709 C 74.4818 -1.75002 2.59506 0
M  V30 710 C 74.9568 -2.35991 3.92521 0
M  V30 711 N 76.4478 -2.43416 3.94085 0
M  V30 712 C 77.1828 -2.91511 4.9377 0
M  V30 713 N 76.6788 -3.39608 6.03853 0
M  V30 714 N 78.4718 -2.90592 4.81157 0
M  V30 715 H 70.6228 -0.111066 2.12109 0
M  V30 716 H 72.8858 -0.111901 0.941373 0
M  V30 717 H 72.5918 -0.99664 3.37283 0
M  V30 718 H 72.4658 -2.61854 2.715 0
M  V30 719 H 74.8528 -2.37317 1.75398 0
M  V30 720 H 74.9338 -0.74693 2.44652 0
M  V30 721 H 74.5778 -1.74308 4.77053 0
M  V30 722 H 74.5078 -3.3695 4.04688 0
M  V30 723 H 76.9988 -2.09405 3.14576 0
M  V30 724 H 77.3118 -3.74775 6.75843 0
M  V30 725 H 75.6568 -3.37653 6.07466 0
M  V30 726 H 78.8478 -2.52332 3.94267 0
M  V30 727 H 79.0208 -3.27762 5.58996 0
M  V30 728 N 72.4269 -1.23603 -0.977757 0
M  V30 729 C 73.6519 -1.09735 -1.75991 0
M  V30 730 C 74.0769 0.346858 -1.84874 0
M  V30 731 O 73.4349 1.25093 -1.3123 0
M  V30 732 C 73.4829 -1.73051 -3.16363 0
M  V30 733 O 72.5869 -0.994452 -4.0023 0
M  V30 734 H 71.9279 -0.384476 -0.541364 0
M  V30 735 H 74.4579 -1.6371 -1.2272 0
M  V30 736 H 74.4679 -1.78398 -3.66931 0
M  V30 737 H 73.1429 -2.78137 -3.09213 0
M  V30 738 H 71.7199 -1.01812 -3.58732 0
M  V30 739 N 73.905 1.17692 -1.04816 0
M  V30 740 C 75.13 1.92327 -0.776207 0
M  V30 741 C 75.555 1.76082 0.661581 0
M  V30 742 O 74.913 1.076 1.45917 0
M  V30 743 C 74.961 3.41539 -1.15687 0
M  V30 744 O 74.065 4.11402 -0.286775 0
M  V30 745 H 73.406 0.599735 -0.284981 0
M  V30 746 H 75.936 1.49201 -1.4 0
M  V30 747 H 75.946 3.92269 -1.12202 0
M  V30 748 H 74.621 3.52684 -2.20425 0
M  V30 749 H 73.198 3.70939 -0.381903 0
M  V30 750 N 75.3831 0.828654 1.34056 0
M  V30 751 C 76.7991 0.515135 1.51058 0
M  V30 752 C 76.9991 -0.959581 1.77184 0
M  V30 753 O 76.0551 -1.74382 1.82612 0
M  V30 754 C 77.3681 1.37963 2.67183 0
M  V30 755 C 78.9161 1.37735 2.81066 0
M  V30 756 C 79.3911 2.22645 4.00241 0
M  V30 757 N 80.8821 2.203 4.07458 0
M  V30 758 C 81.6171 2.82744 4.98842 0
M  V30 759 N 81.1131 3.54201 5.9541 0
M  V30 760 N 82.9061 2.72268 4.91759 0
M  V30 761 H 75.0571 1.78343 1.15358 0
M  V30 762 H 77.3201 0.760304 0.566252 0
M  V30 763 H 77.0261 2.42714 2.54525 0
M  V30 764 H 76.9001 1.0484 3.62338 0
M  V30 765 H 79.2871 0.337593 2.93163 0
M  V30 766 H 79.3681 1.74859 1.86703 0
M  V30 767 H 79.0121 3.26674 3.88905 0
M  V30 768 H 78.9421 1.82869 4.93829 0
M  V30 769 H 81.4331 1.68327 3.38341 0
M  V30 770 H 81.7461 3.9908 6.61782 0
M  V30 771 H 80.0911 3.58308 5.95517 0
M  V30 772 H 83.2821 2.16014 4.15278 0
M  V30 773 H 83.4551 3.21219 5.62781 0
M  V30 774 N 76.8612 -1.46375 0.584142 0
M  V30 775 C 77.7942 -2.27351 -0.196676 0
M  V30 776 C 78.7722 -1.35715 -0.895561 0
M  V30 777 O 79.9562 -1.65126 -0.90916 0
M  V30 778 C 77.0832 -3.13486 -1.28235 0
M  V30 779 C 76.1292 -4.20896 -0.689145 0
M  V30 780 S 76.9622 -5.33299 0.48507 0
M  V30 781 C 78.1182 -6.23 -0.601767 0
M  V30 782 H 78.3512 -2.93228 0.490395 0
M  V30 783 H 75.8842 -1.49875 0.371071 0
M  V30 784 H 77.8422 -3.63676 -1.90395 0
M  V30 785 H 76.5032 -2.4692 -1.94138 0
M  V30 786 H 75.6962 -4.80997 -1.50527 0
M  V30 787 H 75.2982 -3.73726 -0.143181 0
M  V30 788 H 77.5902 -6.60979 -1.48705 0
M  V30 789 H 78.5332 -7.0809 -0.0374799 0
M  V30 790 H 78.9412 -5.57173 -0.906557 0
M  V30 791 N 78.3393 -0.321999 -1.54275 0
M  V30 792 C 79.5643 0.285791 -2.05422 0
M  V30 793 C 79.9893 1.45124 -1.19669 0
M  V30 794 O 79.3473 1.80132 -0.205441 0
M  V30 795 C 79.3953 0.69956 -3.53749 0
M  V30 796 O 78.4993 1.8021 -3.70942 0
M  V30 797 H 77.8403 0.0518962 -0.661969 0
M  V30 798 H 80.3703 -0.469954 -1.9913 0
M  V30 799 H 80.3803 0.982649 -3.9599 0
M  V30 800 H 79.0553 -0.152864 -4.15619 0
M  V30 801 H 77.6323 1.51794 -3.40607 0
M  V30 802 N 79.8174 1.5752 -0.0501392 0
M  V30 803 C 81.0634 1.92936 0.624798 0
M  V30 804 C 81.3964 0.928685 1.70555 0
M  V30 805 O 80.6714 -0.0454779 1.94447 0
M  V30 806 C 80.9544 3.38737 1.22185 0
M  V30 807 C 80.8074 4.49552 0.149218 0
M  V30 808 C 82.1264 3.84913 2.13378 0
M  V30 809 H 79.2454 0.701604 0.225657 0
M  V30 810 H 81.8874 1.89671 -0.111693 0
M  V30 811 H 80.0374 3.4165 1.84953 0
M  V30 812 H 81.7094 4.58768 -0.482648 0
M  V30 813 H 79.9524 4.30638 -0.522841 0
M  V30 814 H 80.6234 5.48653 0.606966 0
M  V30 815 H 83.0994 3.8387 1.60572 0
M  V30 816 H 81.9754 4.87584 2.52097 0
M  V30 817 H 82.2364 3.21611 3.03346 0
M  V30 818 N 81.2955 -0.223234 1.56011 0
M  V30 819 C 82.5725 -0.972108 1.69733 0
M  V30 820 C 82.9525 -2.02485 0.59691 0
M  V30 821 O 82.3005 -2.25037 -0.396324 0
M  V30 822 C 82.5105 -1.58407 3.10979 0
M  V30 823 C 83.8585 -2.07696 3.70334 0
M  V30 824 O 84.8825 -1.68304 3.1393 0
M  V30 825 O 83.7415 -2.80096 4.69264 0
M  V30 826 H 80.8355 -0.453993 0.691245 0
M  V30 827 H 83.3815 -0.215149 1.68331 0
M  V30 828 H 82.1535 -0.823831 3.82529 0
M  V30 829 H 81.7765 -2.40661 3.16493 0
M  V30 830 N 82.7736 -1.49793 -0.48987 0
M  V30 831 C 84.1846 -1.52914 -1.07118 0
M  V30 832 C 84.5356 -0.321738 -1.93544 0
M  V30 833 O 83.6606 0.567338 -2.08831 0
M  V30 834 C 84.2556 -2.771 -1.94938 0
M  V30 835 C 82.8146 -2.82963 -2.48212 0
M  V30 836 C 81.9616 -2.46972 -1.26096 0
M  V30 837 H 84.9126 -1.56329 -0.273289 0
M  V30 838 H 84.9336 -2.57892 -2.79771 0
M  V30 839 H 84.4456 -3.64959 -1.32009 0
M  V30 840 H 82.5466 -1.99411 -3.14748 0
M  V30 841 H 82.6596 -3.85406 -2.84603 0
M  V30 842 H 81.0236 -1.98994 -1.58976 0
M  V30 843 H 81.8066 -3.37118 -0.648581 0
M  V30 844 N 84.2517 0.741722 -1.39055 0
M  V30 845 C 85.2147 1.83733 -1.37021 0
M  V30 846 C 86.2147 1.58542 -0.268534 0
M  V30 847 O 87.4047 1.66067 -0.526076 0
M  V30 848 C 84.5367 3.2141 -1.13617 0
M  V30 849 H 85.7297 1.86941 -2.34506 0
M  V30 850 H 83.2827 0.944676 -1.24521 0
M  V30 851 H 84.0177 3.23865 -0.167863 0
M  V30 852 H 83.8027 3.4109 -1.93391 0
M  V30 853 H 85.2927 4.01477 -1.14918 0
M  V30 854 N 85.7298 1.2412 0.971189 0
M  V30 855 C 86.9788 1.07284 1.70801 0
M  V30 856 C 87.2918 -0.388902 1.91695 0
M  V30 857 O 88.4978 -0.677379 2.62914 0
M  V30 858 C 86.9538 1.87145 3.07416 0
M  V30 859 C 86.5618 3.37707 2.94377 0
M  V30 860 C 88.3058 1.78828 3.84995 0
M  V30 861 C 86.2128 4.09925 4.26281 0
M  V30 862 H 85.1428 0.397854 0.64049 0
M  V30 863 H 87.7938 1.4817 1.0825 0
M  V30 864 H 86.1758 1.39071 3.70777 0
M  V30 865 H 87.3498 3.93335 2.4005 0
M  V30 866 H 85.6648 3.46938 2.30267 0
M  V30 867 H 88.2618 2.30089 4.82662 0
M  V30 868 H 88.6048 0.75284 4.09436 0
M  V30 869 H 89.1378 2.24563 3.28354 0
M  V30 870 H 85.8768 5.13813 4.07033 0
M  V30 871 H 85.3968 3.59083 4.80437 0
M  V30 872 H 87.0758 4.1673 4.94919 0
M  V30 873 N 87.2079 -1.17134 1.05439 0
M  V30 874 C 88.1709 -2.19439 0.661764 0
M  V30 875 C 89.1709 -1.58199 -0.288042 0
M  V30 876 O 90.3609 -1.74053 -0.0715803 0
M  V30 877 C 87.4929 -3.40889 -0.0276209 0
M  V30 878 H 88.6859 -2.55688 1.56728 0
M  V30 879 H 86.2389 -1.31259 0.848567 0
M  V30 880 H 86.9739 -3.10187 -0.94629 0
M  V30 881 H 86.7589 -3.86586 0.655238 0
M  V30 882 H 88.2489 -4.16603 -0.288342 0
M  V30 883 N 88.686 -0.835752 -1.33615 0
M  V30 884 C 89.963 -0.352017 -1.92406 0
M  V30 885 C 90.343 1.16225 -1.76224 0
M  V30 886 O 89.691 1.97526 -1.14873 0
M  V30 887 C 89.901 -0.795485 -3.39813 0
M  V30 888 C 91.249 -0.801703 -4.16963 0
M  V30 889 O 92.273 -0.738889 -3.48452 0
M  V30 890 O 91.132 -0.886607 -5.3926 0
M  V30 891 H 88.226 -0.0989641 -0.821057 0
M  V30 892 H 90.772 -0.921397 -1.42507 0
M  V30 893 H 89.544 -1.83795 -3.45449 0
M  V30 894 H 89.167 -0.202505 -3.97084 0
M  V30 895 N 90.1641 1.46063 -0.591896 0
M  V30 896 C 91.3921 2.06717 -0.0868936 0
M  V30 897 C 91.8071 1.43916 1.22203 0
M  V30 898 O 91.1641 0.547698 1.74088 0
M  V30 899 C 91.2151 3.6142 0.0758725 0
M  V30 900 O 90.9361 4.21874 -1.18126 0
M  V30 901 C 92.4371 4.39025 0.61416 0
M  V30 902 H 89.6571 0.668162 -0.0616518 0
M  V30 903 H 92.2011 1.8755 -0.815175 0
M  V30 904 H 90.3561 3.79983 0.754413 0
M  V30 905 H 90.7701 5.14861 -1.00092 0
M  V30 906 H 92.2441 5.4783 0.677193 0
M  V30 907 H 92.7211 4.07708 1.63312 0
M  V30 908 H 93.3271 4.2529 -0.0298142 0
M  V30 909 N 91.6422 0.330177 1.54103 0
M  V30 910 C 92.5902 -0.548226 2.26047 0
M  V30 911 C 93.5842 -1.11309 1.27698 0
M  V30 912 O 94.7902 -1.06036 1.45452 0
M  V30 913 H 91.1652 -0.195456 0.726155 0
M  V30 914 H 93.1362 0.0807567 2.98291 0
M  V30 915 C 91.8852 -1.69415 3.03634 0
M  V30 916 H 91.2082 -1.26876 3.79134 0
M  V30 917 H 92.6482 -2.28423 3.5721 0
M  V30 918 C 91.1072 -2.61569 2.12328 0
M  V30 919 O 91.6372 -3.63462 1.7105 0
M  V30 920 N 89.8432 -2.29952 1.77681 0
M  V30 921 H 89.3902 -1.47134 2.11446 0
M  V30 922 H 89.3482 -2.91871 1.16869 0
M  V30 923 N 93.1203 -1.57491 0.0584922 0
M  V30 924 C 94.3683 -1.92597 -0.612436 0
M  V30 925 C 94.6893 -0.938162 -1.70949 0
M  V30 926 O 93.9593 0.0158301 -1.95894 0
M  V30 927 H 92.5393 -0.710964 -0.229214 0
M  V30 928 H 95.2013 -1.94571 0.113218 0
M  V30 929 H 94.2973 -2.94038 -1.04633 0
M  V30 930 N 94.5984 0.214957 -1.56127 0
M  V30 931 C 95.5304 1.29004 -1.89448 0
M  V30 932 C 96.5434 1.42716 -0.783326 0
M  V30 933 O 97.7324 1.43496 -1.06166 0
M  V30 934 C 94.8324 2.66482 -2.09381 0
M  V30 935 C 94.0054 2.74633 -3.40434 0
M  V30 936 C 93.0644 3.9317 -3.49719 0
M  V30 937 O 92.0904 3.812 -4.227 0
M  V30 938 N 93.2924 5.07765 -2.81346 0
M  V30 939 H 96.0574 1.00743 -2.82261 0
M  V30 940 H 93.6184 0.40497 -1.56753 0
M  V30 941 H 95.6104 3.44173 -2.12901 0
M  V30 942 H 94.1804 2.87314 -1.23163 0
M  V30 943 H 93.4004 1.83368 -3.48955 0
M  V30 944 H 94.6884 2.77054 -4.26754 0
M  V30 945 H 94.0864 5.20386 -2.21843 0
M  V30 946 H 92.6434 5.83474 -2.90519 0
M  V30 947 N 96.0765 1.50051 0.48192 0
M  V30 948 C 97.3245 1.60181 1.23234 0
M  V30 949 C 97.6455 0.299176 1.92691 0
M  V30 950 O 96.9155 -0.682708 1.83619 0
M  V30 951 H 95.4955 0.590232 0.457859 0
M  V30 952 H 98.1575 1.86775 0.556881 0
M  V30 953 H 97.2535 2.40753 1.98607 0
M  V30 954 N 97.5546 -0.734337 1.39446 0
M  V30 955 C 98.8006 -1.49613 1.36908 0
M  V30 956 C 99.1336 -1.94169 -0.0347829 0
M  V30 957 O 98.4086 -1.66833 -0.999847 0
M  V30 958 C 98.6916 -2.73534 2.34203 0
M  V30 959 C 98.5446 -2.34993 3.83534 0
M  V30 960 C 99.8636 -3.75635 2.29317 0
M  V30 961 H 96.9826 -0.542714 0.498629 0
M  V30 962 H 99.6246 -0.839597 1.70443 0
M  V30 963 H 97.7746 -3.29553 2.05736 0
M  V30 964 H 99.4466 -1.84601 4.22753 0
M  V30 965 H 97.6896 -1.67213 4.00278 0
M  V30 966 H 98.3606 -3.23738 4.47099 0
M  V30 967 H 100.837 -3.29203 2.54489 0
M  V30 968 H 99.7126 -4.60008 2.99472 0
M  V30 969 H 99.9736 -4.22603 1.29842 0
M  V30 970 N 99.0327 -1.24633 -0.964593 0
M  V30 971 C 99.9627 -1.06611 -2.07741 0
M  V30 972 C 100.944 0.0218666 -1.70086 0
M  V30 973 O 102.129 -0.145793 -1.93652 0
M  V30 974 C 99.2587 -0.673444 -3.40708 0
M  V30 975 C 98.2127 -1.71054 -3.92332 0
M  V30 976 C 97.5387 -1.17285 -5.21678 0
M  V30 977 C 98.8387 -3.10718 -4.19824 0
M  V30 978 H 100.533 -1.99693 -2.23076 0
M  V30 979 H 98.0787 -0.96152 -1.07195 0
M  V30 980 H 100.032 -0.534345 -4.17998 0
M  V30 981 H 98.7557 0.293073 -3.25282 0
M  V30 982 H 97.4147 -1.83791 -3.17201 0
M  V30 983 H 97.0627 -0.196847 -5.02615 0
M  V30 984 H 96.7627 -1.86592 -5.57187 0
M  V30 985 H 98.2867 -1.04593 -6.01575 0
M  V30 986 H 99.7007 -3.01192 -4.87808 0
M  V30 987 H 98.0977 -3.77406 -4.66567 0
M  V30 988 H 99.1677 -3.58524 -3.26479 0
M  V30 989 N 100.511 1.16574 -1.06058 0
M  V30 990 C 101.461 2.18854 -0.63929 0
M  V30 991 C 102.445 1.57505 0.328798 0
M  V30 992 O 103.637 1.76408 0.144623 0
M  V30 993 C 100.766 3.43291 -0.0247203 0
M  V30 994 C 99.8518 4.11722 -1.01716 0
M  V30 995 N 100.243 4.55841 -2.19186 0
M  V30 996 C 98.5408 4.37872 -0.847569 0
M  V30 997 C 99.2418 5.08751 -2.82042 0
M  V30 998 N 98.2178 5.01489 -2.09784 0
M  V30 999 H 102.02 2.5068 -1.53417 0
M  V30 1000 H 99.5338 1.32999 -0.931935 0
M  V30 1001 H 101.531 4.15856 0.294915 0
M  V30 1002 H 100.191 3.12954 0.865448 0
M  V30 1003 H 101.202 4.49649 -2.56975 0
M  V30 1004 H 97.8788 4.17499 -0.00918848 0
M  V30 1005 H 99.2688 5.52944 -3.81709 0
M  V30 1006 N 101.989 0.842826 1.3317 0
M  V30 1007 C 103.219 0.453397 2.01564 0
M  V30 1008 C 103.627 -0.951147 1.63554 0
M  V30 1009 O 102.97 -1.63021 0.846746 0
M  V30 1010 C 103.032 0.499013 3.5602 0
M  V30 1011 C 102.696 1.86037 4.1742 0
M  V30 1012 C 103.693 2.82416 4.36506 0
M  V30 1013 C 101.378 2.15428 4.53757 0
M  V30 1014 C 103.372 4.06346 4.91082 0
M  V30 1015 C 101.059 3.39615 5.0804 0
M  V30 1016 C 102.057 4.3489 5.26649 0
M  V30 1017 O 101.745 5.5688 5.79776 0
M  V30 1018 H 101.477 0.177871 0.652179 0
M  V30 1019 H 104.031 1.13808 1.70988 0
M  V30 1020 H 102.261 -0.242467 3.85939 0
M  V30 1021 H 103.95 0.126852 4.05702 0
M  V30 1022 H 104.716 2.6101 4.08777 0
M  V30 1023 H 100.595 1.42061 4.38565 0
M  V30 1024 H 104.139 4.80722 5.05522 0
M  V30 1025 H 100.036 3.60876 5.352 0
M  V30 1026 H 100.804 5.58674 5.98185 0
M  V30 1027 N 103.467 -1.45747 0.599634 0
M  V30 1028 C 104.692 -2.07178 0.0960198 0
M  V30 1029 C 105.117 -1.44268 -1.207 0
M  V30 1030 O 104.475 -0.532503 -1.73303 0
M  V30 1031 C 104.523 -3.60579 -0.0385348 0
M  V30 1032 O 103.627 -3.97713 -1.0908 0
M  V30 1033 H 102.968 -0.660251 0.0704593 0
M  V30 1034 H 105.498 -1.87124 0.827385 0
M  V30 1035 H 105.508 -4.07298 -0.239304 0
M  V30 1036 H 104.183 -4.05756 0.912947 0
M  V30 1037 H 102.76 -3.62678 -0.867135 0
M  V30 1038 N 104.945 -0.338344 -1.53925 0
M  V30 1039 C 105.878 0.563758 -2.21127 0
M  V30 1040 C 106.856 1.10433 -1.19345 0
M  V30 1041 O 108.04 1.16557 -1.48144 0
M  V30 1042 C 105.167 1.77505 -2.88461 0
M  V30 1043 C 104.213 1.3644 -4.04087 0
M  V30 1044 S 105.046 0.388593 -5.34088 0
M  V30 1045 C 106.202 1.60683 -6.04923 0
M  V30 1046 H 106.435 -0.00704546 -2.97299 0
M  V30 1047 H 103.968 -0.122418 -1.53914 0
M  V30 1048 H 105.926 2.46999 -3.27875 0
M  V30 1049 H 104.587 2.31706 -2.12064 0
M  V30 1050 H 103.78 2.26739 -4.50117 0
M  V30 1051 H 103.382 0.748998 -3.66423 0
M  V30 1052 H 105.674 2.54209 -6.28 0
M  V30 1053 H 106.617 1.18842 -6.98056 0
M  V30 1054 H 107.025 1.80052 -5.35015 0
M  V30 1055 N 106.423 1.57458 -0.0668435 0
M  V30 1056 C 107.669 1.93587 0.6043 0
M  V30 1057 C 108.002 0.946722 1.69561 0
M  V30 1058 O 107.277 -0.0248516 1.94484 0
M  V30 1059 C 107.56 3.40014 1.18585 0
M  V30 1060 C 107.413 4.49685 0.101529 0
M  V30 1061 C 108.732 3.87154 2.09284 0
M  V30 1062 H 105.851 0.703958 0.218202 0
M  V30 1063 H 108.493 1.89542 -0.131804 0
M  V30 1064 H 106.643 3.43592 1.81319 0
M  V30 1065 H 108.315 4.5823 -0.531279 0
M  V30 1066 H 106.558 4.30059 -0.568487 0
M  V30 1067 H 107.229 5.49266 0.54874 0
M  V30 1068 H 109.705 3.85551 1.56491 0
M  V30 1069 H 108.581 4.90231 2.46911 0
M  V30 1070 H 108.842 3.2481 2.99918 0
M  V30 1071 N 107.901 -0.206675 1.56239 0
M  V30 1072 C 108.831 -1.25909 1.96645 0
M  V30 1073 C 109.812 -1.48097 0.836734 0
M  V30 1074 O 110.997 -1.6003 1.10019 0
M  V30 1075 C 108.127 -2.6058 2.29599 0
M  V30 1076 C 107.081 -2.53024 3.452 0
M  V30 1077 C 106.407 -3.91861 3.63798 0
M  V30 1078 C 107.707 -2.06524 4.79734 0
M  V30 1079 H 109.401 -0.923369 2.84806 0
M  V30 1080 H 106.947 -0.442735 1.37025 0
M  V30 1081 H 108.9 -3.34375 2.56459 0
M  V30 1082 H 107.624 -2.95869 1.38307 0
M  V30 1083 H 106.283 -1.81684 3.18412 0
M  V30 1084 H 105.931 -4.24483 2.69857 0
M  V30 1085 H 105.631 -3.87683 4.4156 0
M  V30 1086 H 107.155 -4.67296 3.93022 0
M  V30 1087 H 108.569 -2.70072 5.05702 0
M  V30 1088 H 106.966 -2.13374 5.60885 0
M  V30 1089 H 108.036 -1.01802 4.74093 0
M  V30 1090 N 109.379 -1.50304 -0.473955 0
M  V30 1091 C 110.289 -1.7174 -1.5982 0
M  V30 1092 C 111.305 -0.600457 -1.63311 0
M  V30 1093 O 112.481 -0.878441 -1.81233 0
M  V30 1094 C 109.546 -1.80427 -2.96052 0
M  V30 1095 C 108.607 -3.04148 -3.02972 0
M  V30 1096 C 107.84 -3.12411 -4.32706 0
M  V30 1097 O 108.063 -2.27542 -5.23049 0
M  V30 1098 O 106.997 -4.05113 -4.45159 0
M  V30 1099 H 110.823 -2.67035 -1.44657 0
M  V30 1100 H 108.408 -1.34366 -0.653148 0
M  V30 1101 H 110.29 -1.88338 -3.7697 0
M  V30 1102 H 108.965 -0.883156 -3.11419 0
M  V30 1103 H 107.872 -3.0174 -2.21142 0
M  V30 1104 H 109.205 -3.95829 -2.92541 0
M  V30 1105 N 110.857 0.726932 -1.39834 0
M  V30 1106 C 112.105 1.4837 -1.37225 0
M  V30 1107 C 112.426 1.94979 0.0284857 0
M  V30 1108 O 111.696 1.69555 0.981213 0
M  V30 1109 H 110.276 0.55043 -0.505011 0
M  V30 1110 H 112.938 0.862468 -1.74778 0
M  V30 1111 H 112.034 2.36198 -2.04003 0
M  V30 1112 N 112.336 1.25143 0.95797 0
M  V30 1113 C 113.584 1.09476 1.69881 0
M  V30 1114 C 113.905 -0.365502 1.91544 0
M  V30 1115 O 113.175 -1.25985 1.50015 0
M  V30 1116 H 111.755 0.402128 0.629525 0
M  V30 1117 H 114.417 1.57214 1.15194 0
M  V30 1118 H 113.513 1.60046 2.6794 0
M  V30 1119 N 113.814 -1.1601 1.06675 0
M  V30 1120 C 114.762 -2.22586 0.675157 0
M  V30 1121 C 115.756 -1.66525 -0.310766 0
M  V30 1122 O 116.962 -1.79145 -0.175215 0
M  V30 1123 H 113.337 -0.724855 0.200223 0
M  V30 1124 H 115.308 -2.52899 1.58381 0
M  V30 1125 C 114.057 -3.47604 0.0817162 0
M  V30 1126 H 113.38 -3.91058 0.831484 0
M  V30 1127 H 114.82 -4.23718 -0.154708 0
M  V30 1128 C 113.279 -3.15718 -1.17576 0
M  V30 1129 O 113.809 -3.31878 -2.26318 0
M  V30 1130 N 112.015 -2.69816 -1.07923 0
M  V30 1131 H 111.562 -2.56866 -0.194293 0
M  V30 1132 H 111.52 -2.48855 -1.92141 0
M  V30 1133 N 115.292 -0.849877 -1.32721 0
M  V30 1134 C 116.569 -0.372405 -1.92022 0
M  V30 1135 C 116.949 1.1435 -1.77447 0
M  V30 1136 O 116.297 1.96296 -1.16962 0
M  V30 1137 C 116.507 -0.831482 -3.3895 0
M  V30 1138 C 117.855 -0.845882 -4.16089 0
M  V30 1139 O 118.879 -0.775806 -3.47649 0
M  V30 1140 O 117.738 -0.943753 -5.38289 0
M  V30 1141 H 114.832 -0.107667 -0.819961 0
M  V30 1142 H 117.378 -0.93646 -1.41522 0
M  V30 1143 H 116.15 -1.87448 -3.4348 0
M  V30 1144 H 115.773 -0.24461 -3.96847 0
M  V30 1145 N 116.77 1.45427 -0.607355 0
M  V30 1146 C 117.733 2.28974 0.101693 0
M  V30 1147 C 118.733 1.39754 0.795329 0
M  V30 1148 O 119.923 1.61878 0.643527 0
M  V30 1149 C 117.055 3.20768 1.15414 0
M  V30 1150 H 118.248 2.93147 -0.632844 0
M  V30 1151 H 115.801 1.51945 -0.366391 0
M  V30 1152 H 116.536 2.61395 1.91945 0
M  V30 1153 H 116.321 3.86489 0.66098 0
M  V30 1154 H 117.811 3.83589 1.65073 0
M  V30 1155 N 118.248 0.346503 1.53744 0
M  V30 1156 C 119.178 -0.501193 2.28058 0
M  V30 1157 C 120.159 -1.10014 1.29734 0
M  V30 1158 O 121.344 -1.12097 1.58581 0
M  V30 1159 C 118.474 -1.65078 3.05559 0
M  V30 1160 C 117.428 -1.18003 4.11411 0
M  V30 1161 C 116.754 -2.41837 4.76884 0
M  V30 1162 C 118.054 -0.278394 5.21558 0
M  V30 1163 H 119.748 0.11875 2.99164 0
M  V30 1164 H 117.294 0.0585531 1.43881 0
M  V30 1165 H 119.247 -2.25028 3.56287 0
M  V30 1166 H 117.971 -2.29767 2.32109 0
M  V30 1167 H 116.63 -0.603331 3.61601 0
M  V30 1168 H 116.278 -3.0494 4.00026 0
M  V30 1169 H 115.978 -2.1102 5.48402 0
M  V30 1170 H 117.502 -3.02508 5.30397 0
M  V30 1171 H 118.916 -0.784823 5.67903 0
M  V30 1172 H 117.313 -0.0619707 6.00068 0
M  V30 1173 H 118.383 0.684677 4.80042 0
M  V30 1174 N 119.726 -1.57421 0.075193 0
M  V30 1175 C 120.673 -2.12915 -0.890843 0
M  V30 1176 C 121.643 -1.04252 -1.29309 0
M  V30 1177 O 122.828 -1.31933 -1.37834 0
M  V30 1178 C 119.968 -2.69795 -2.15186 0
M  V30 1179 C 119.081 -3.92624 -1.80194 0
M  V30 1180 C 118.216 -4.37736 -3.00933 0
M  V30 1181 C 117.255 -5.53205 -2.61974 0
M  V30 1182 N 116.392 -5.9326 -3.75483 0
M  V30 1183 H 121.232 -2.95156 -0.410735 0
M  V30 1184 H 118.769 -1.45854 -0.191086 0
M  V30 1185 H 120.727 -3.00883 -2.89008 0
M  V30 1186 H 119.357 -1.90313 -2.60731 0
M  V30 1187 H 118.409 -3.67977 -0.964218 0
M  V30 1188 H 119.721 -4.76482 -1.47534 0
M  V30 1189 H 118.875 -4.70503 -3.8303 0
M  V30 1190 H 117.614 -3.52739 -3.36789 0
M  V30 1191 H 116.619 -5.20086 -1.783 0
M  V30 1192 H 117.844 -6.39936 -2.27284 0
M  V30 1193 H 115.79 -5.11212 -4.11094 0
M  V30 1194 H 115.707 -6.71865 -3.46602 0
M  V30 1195 H 116.975 -6.30651 -4.58148 0
M  V30 1196 N 121.204 0.198386 -1.56346 0
M  V30 1197 C 122.134 1.24865 -1.9731 0
M  V30 1198 C 123.115 1.47651 -0.844576 0
M  V30 1199 O 124.3 1.59444 -1.10866 0
M  V30 1200 C 121.43 2.59358 -2.30977 0
M  V30 1201 C 120.384 2.5119 -3.46537 0
M  V30 1202 C 119.71 3.89926 -3.65871 0
M  V30 1203 C 121.01 2.03977 -4.80823 0
M  V30 1204 H 122.704 0.908252 -2.85291 0
M  V30 1205 H 120.25 0.435462 -1.37258 0
M  V30 1206 H 122.203 3.33011 -2.58228 0
M  V30 1207 H 120.927 2.95132 -1.39874 0
M  V30 1208 H 119.586 1.79993 -3.19371 0
M  V30 1209 H 119.234 4.23046 -2.72105 0
M  V30 1210 H 118.934 3.85336 -4.4361 0
M  V30 1211 H 120.458 4.65205 -3.95495 0
M  V30 1212 H 121.872 2.67386 -5.07127 0
M  V30 1213 H 120.269 2.10397 -5.62008 0
M  V30 1214 H 121.339 0.992861 -4.74626 0
M  V30 1215 N 122.682 1.50554 0.465978 0
M  V30 1216 C 123.645 1.69233 1.54574 0
M  V30 1217 C 124.645 0.562901 1.50626 0
M  V30 1218 O 125.835 0.830016 1.53155 0
M  V30 1219 C 122.967 1.7223 2.94193 0
M  V30 1220 H 124.16 2.65571 1.39327 0
M  V30 1221 H 121.713 1.40111 0.692711 0
M  V30 1222 H 122.448 0.77603 3.14878 0
M  V30 1223 H 122.233 2.54285 2.98466 0
M  V30 1224 H 123.723 1.88618 3.72576 0
M  V30 1225 N 124.16 -0.719506 1.40217 0
M  V30 1226 C 125.409 -1.47486 1.37589 0
M  V30 1227 C 125.722 -1.9559 -0.0201568 0
M  V30 1228 O 126.928 -2.70973 -0.169049 0
M  V30 1229 C 125.384 -2.66575 2.41796 0
M  V30 1230 C 124.992 -2.25358 3.87192 0
M  V30 1231 C 126.736 -3.4433 2.48269 0
M  V30 1232 C 124.643 -3.41262 4.83005 0
M  V30 1233 H 123.573 -0.553901 0.511576 0
M  V30 1234 H 126.224 -0.783427 1.65936 0
M  V30 1235 H 124.606 -3.3787 2.06543 0
M  V30 1236 H 125.78 -1.61509 4.31569 0
M  V30 1237 H 124.095 -1.60657 3.84159 0
M  V30 1238 H 126.692 -4.30569 3.17041 0
M  V30 1239 H 127.035 -3.87872 1.51198 0
M  V30 1240 H 127.568 -2.80076 2.82493 0
M  V30 1241 H 124.307 -3.02755 5.81394 0
M  V30 1242 H 123.827 -4.0404 4.43297 0
M  V30 1243 H 125.506 -4.07383 5.02641 0
M  V30 1244 N 125.638 -1.25649 -0.95132 0
M  V30 1245 C 126.915 -1.01361 -1.67288 0
M  V30 1246 C 127.295 0.459135 -2.06046 0
M  V30 1247 O 126.643 1.43723 -1.7764 0
M  V30 1248 C 126.853 -1.95256 -2.89268 0
M  V30 1249 C 128.201 -2.23289 -3.61147 0
M  V30 1250 O 129.225 -1.93041 -2.99355 0
M  V30 1251 O 128.084 -2.74741 -4.72419 0
M  V30 1252 H 125.178 -0.38464 -0.732107 0
M  V30 1253 H 127.724 -1.36817 -1.00395 0
M  V30 1254 H 126.496 -2.94685 -2.57442 0
M  V30 1255 H 126.119 -1.60218 -3.6389 0
M  V30 1256 N 127.117 1.15442 -1.07289 0
M  V30 1257 C 128.065 2.22225 -0.686952 0
M  V30 1258 C 129.059 1.66688 0.30193 0
M  V30 1259 O 130.265 1.79236 0.165712 0
M  V30 1260 H 126.64 0.723783 -0.204064 0
M  V30 1261 H 128.611 2.52056 -1.5972 0
M  V30 1262 C 127.36 3.47556 -0.100149 0
M  V30 1263 H 126.683 3.90612 -0.852211 0
M  V30 1264 H 128.123 4.23794 0.132235 0
M  V30 1265 C 126.582 3.16337 1.159 0
M  V30 1266 O 127.112 3.33074 2.24555 0
M  V30 1267 N 125.318 2.70385 1.06491 0
M  V30 1268 H 124.865 2.56966 0.180668 0
M  V30 1269 H 124.823 2.49871 1.90819 0
M  V30 1270 N 128.595 0.856903 1.32268 0
M  V30 1271 C 129.558 0.308171 2.27119 0
M  V30 1272 C 130.558 -0.533421 1.51695 0
M  V30 1273 O 131.748 -0.344607 1.70757 0
M  V30 1274 C 128.88 -0.563757 3.36206 0
M  V30 1275 H 130.073 1.14535 2.77167 0
M  V30 1276 H 127.626 0.631421 1.42978 0
M  V30 1277 H 128.361 -1.42266 2.91429 0
M  V30 1278 H 128.146 0.0386749 3.92081 0
M  V30 1279 H 129.636 -0.940386 4.06874 0
M  V30 1280 N 130.073 -1.45103 0.615059 0
M  V30 1281 C 131.003 -2.33339 -0.0865619 0
M  V30 1282 C 131.984 -1.4727 -0.851209 0
M  V30 1283 O 133.169 -1.76026 -0.820281 0
M  V30 1284 C 130.299 -3.30095 -1.07956 0
M  V30 1285 C 129.253 -4.25858 -0.427628 0
M  V30 1286 C 128.579 -5.12361 -1.5294 0
M  V30 1287 C 129.879 -5.18165 0.655944 0
M  V30 1288 H 131.573 -2.92254 0.650224 0
M  V30 1289 H 129.119 -1.40532 0.314138 0
M  V30 1290 H 131.072 -3.90698 -1.57901 0
M  V30 1291 H 129.796 -2.69355 -1.84703 0
M  V30 1292 H 128.455 -3.66564 0.0510292 0
M  V30 1293 H 128.103 -4.47984 -2.28734 0
M  V30 1294 H 127.803 -5.77238 -1.09865 0
M  V30 1295 H 129.327 -5.75833 -2.03098 0
M  V30 1296 H 130.741 -5.72796 0.240257 0
M  V30 1297 H 129.138 -5.91559 1.00888 0
M  V30 1298 H 130.208 -4.60144 1.52957 0
M  V30 1299 N 131.551 -0.354651 -1.53558 0
M  V30 1300 C 132.776 0.242153 -2.05981 0
M  V30 1301 C 133.201 1.42553 -1.2272 0
M  V30 1302 O 132.559 1.79656 -0.243604 0
M  V30 1303 C 132.607 0.624367 -3.55154 0
M  V30 1304 O 131.711 1.72301 -3.74681 0
M  V30 1305 H 131.052 0.0378432 -0.662921 0
M  V30 1306 H 133.582 -0.512087 -1.98088 0
M  V30 1307 H 133.592 0.898433 -3.97985 0
M  V30 1308 H 132.267 -0.240989 -4.15201 0
M  V30 1309 H 130.844 1.44535 -3.4375 0
M  V30 1310 N 133.029 1.57378 -0.0835403 0
M  V30 1311 C 134.278 1.93106 0.582498 0
M  V30 1312 C 134.591 0.96651 1.70053 0
M  V30 1313 O 135.797 1.21705 2.42693 0
M  V30 1314 C 134.253 3.43076 1.08751 0
M  V30 1315 C 133.861 4.48 -0.000146404 0
M  V30 1316 C 135.605 3.87785 1.72694 0
M  V30 1317 C 133.512 5.89113 0.519568 0
M  V30 1318 H 132.442 0.720775 0.221358 0
M  V30 1319 H 135.093 1.82821 -0.157675 0
M  V30 1320 H 133.475 3.48474 1.88101 0
M  V30 1321 H 134.649 4.54233 -0.775199 0
M  V30 1322 H 132.964 4.1283 -0.54406 0
M  V30 1323 H 135.561 4.90604 2.1263 0
M  V30 1324 H 135.904 3.25796 2.59158 0
M  V30 1325 H 136.437 3.8504 0.999457 0
M  V30 1326 H 133.176 6.54775 -0.308186 0
M  V30 1327 H 132.696 5.86376 1.26188 0
M  V30 1328 H 134.375 6.39346 0.992237 0
M  V30 1329 N 134.507 -0.190092 1.56449 0
M  V30 1330 C 135.735 -0.925772 1.85033 0
M  V30 1331 C 136.15 -1.76638 0.666658 0
M  V30 1332 O 135.507 -1.78822 -0.364565 0
M  V30 1333 C 135.558 -1.81786 3.12468 0
M  V30 1334 O 135.279 -1.01118 4.26271 0
M  V30 1335 C 136.78 -2.6648 3.54265 0
M  V30 1336 H 134 -0.269872 0.614337 0
M  V30 1337 H 136.544 -0.195837 2.0356 0
M  V30 1338 H 134.699 -2.50136 2.95822 0
M  V30 1339 H 135.113 -1.61956 4.98869 0
M  V30 1340 H 136.587 -3.24722 4.46385 0
M  V30 1341 H 137.064 -3.40434 2.77491 0
M  V30 1342 H 137.67 -2.03493 3.73458 0
M  V30 1343 N 135.985 -1.50799 -0.457987 0
M  V30 1344 C 137.21 -1.66496 -1.23668 0
M  V30 1345 C 137.635 -0.353288 -1.84752 0
M  V30 1346 O 136.993 0.684346 -1.67888 0
M  V30 1347 C 137.041 -2.76763 -2.3116 0
M  V30 1348 O 136.145 -2.38928 -3.36136 0
M  V30 1349 H 135.486 -0.555828 -0.363252 0
M  V30 1350 H 138.016 -1.9725 -0.543474 0
M  V30 1351 H 138.026 -3.00232 -2.76269 0
M  V30 1352 H 136.701 -3.71954 -1.86073 0
M  V30 1353 H 135.278 -2.25953 -2.96647 0
M  V30 1354 N 137.463 0.71206 -1.40597 0
M  V30 1355 C 138.74 1.46536 -1.29563 0
M  V30 1356 C 139.12 2.10931 0.0844217 0
M  V30 1357 O 138.468 2.00418 1.0975 0
M  V30 1358 C 138.678 2.49821 -2.43701 0
M  V30 1359 C 140.026 3.15551 -2.841 0
M  V30 1360 O 141.05 2.60142 -2.4332 0
M  V30 1361 O 139.909 4.15867 -3.54566 0
M  V30 1362 H 137.003 0.651801 -0.509004 0
M  V30 1363 H 139.549 0.743935 -1.52524 0
M  V30 1364 H 138.321 2.00778 -3.35863 0
M  V30 1365 H 137.944 3.29495 -2.22528 0
M  V30 1366 N 138.941 1.26152 0.944643 0
M  V30 1367 C 140.189 1.11271 1.6871 0
M  V30 1368 C 140.51 -0.345166 1.91921 0
M  V30 1369 O 139.78 -1.24387 1.51343 0
M  V30 1370 H 138.36 0.408783 0.625224 0
M  V30 1371 H 141.022 1.58427 1.1352 0
M  V30 1372 H 140.118 1.62879 2.66227 0
M  V30 1373 N 140.419 -1.14872 1.07899 0
M  V30 1374 C 141.349 -2.2193 0.725887 0
M  V30 1375 C 142.33 -1.67622 -0.28927 0
M  V30 1376 O 143.515 -1.93533 -0.160787 0
M  V30 1377 C 140.645 -3.47061 0.128856 0
M  V30 1378 C 139.599 -4.14363 1.07178 0
M  V30 1379 C 138.925 -5.33636 0.337229 0
M  V30 1380 C 140.225 -4.63492 2.40775 0
M  V30 1381 H 141.919 -2.51724 1.62097 0
M  V30 1382 H 139.465 -1.20991 0.780838 0
M  V30 1383 H 141.418 -4.21199 -0.130147 0
M  V30 1384 H 140.142 -3.16617 -0.80134 0
M  V30 1385 H 138.801 -3.42173 1.3158 0
M  V30 1386 H 138.449 -4.99449 -0.596606 0
M  V30 1387 H 138.149 -5.79609 0.965788 0
M  V30 1388 H 139.673 -6.10539 0.0861567 0
M  V30 1389 H 141.087 -5.2913 2.20669 0
M  V30 1390 H 139.484 -5.20148 2.99276 0
M  V30 1391 H 140.554 -3.78834 3.02676 0
M  V30 1392 N 141.898 -0.863906 -1.31812 0
M  V30 1393 C 143.126 -0.486111 -2.01108 0
M  V30 1394 C 143.541 0.919755 -1.64882 0
M  V30 1395 O 142.898 1.60162 -0.874893 0
M  V30 1396 C 142.949 -0.626435 -3.56031 0
M  V30 1397 O 142.67 -1.97693 -3.90959 0
M  V30 1398 C 144.171 -0.248857 -4.42601 0
M  V30 1399 H 141.391 -0.190052 -0.643523 0
M  V30 1400 H 143.935 -1.1634 -1.68182 0
M  V30 1401 H 142.09 0.00322717 -3.874 0
M  V30 1402 H 142.504 -1.98034 -4.85678 0
M  V30 1403 H 143.978 -0.398016 -5.50563 0
M  V30 1404 H 144.455 0.811489 -4.31638 0
M  V30 1405 H 145.061 -0.853971 -4.16638 0
M  V30 1406 N 143.376 1.44774 -0.622745 0
M  V30 1407 C 144.625 2.01334 -0.121397 0
M  V30 1408 C 144.938 1.49505 1.26125 0
M  V30 1409 O 146.144 1.98139 1.85616 0
M  V30 1410 C 144.6 3.59516 -0.166298 0
M  V30 1411 C 144.208 4.20342 -1.54974 0
M  V30 1412 C 145.952 4.23582 0.279021 0
M  V30 1413 C 143.859 5.70721 -1.55021 0
M  V30 1414 H 142.789 0.752851 -0.0416172 0
M  V30 1415 H 145.44 1.66083 -0.780309 0
M  V30 1416 H 143.822 3.92027 0.559557 0
M  V30 1417 H 144.996 3.99381 -2.29851 0
M  V30 1418 H 143.311 3.68529 -1.93843 0
M  V30 1419 H 145.908 5.33868 0.298083 0
M  V30 1420 H 146.251 3.95327 1.30471 0
M  V30 1421 H 146.784 3.95843 -0.394063 0
M  V30 1422 H 143.523 6.03698 -2.55399 0
M  V30 1423 H 143.043 5.93829 -0.844245 0
M  V30 1424 H 144.722 6.34203 -1.28047 0
M  V30 1425 N 144.854 0.36279 1.53368 0
M  V30 1426 C 146.27 0.0116182 1.59596 0
M  V30 1427 C 146.47 -1.47012 1.37803 0
M  V30 1428 O 145.526 -2.23136 1.18181 0
M  V30 1429 C 146.839 0.465052 2.97082 0
M  V30 1430 C 148.387 0.419033 3.10182 0
M  V30 1431 C 148.862 0.848235 4.50077 0
M  V30 1432 N 150.353 0.803183 4.56183 0
M  V30 1433 C 151.088 1.107 5.62613 0
M  V30 1434 N 150.584 1.47996 6.76808 0
M  V30 1435 N 152.377 1.02998 5.52583 0
M  V30 1436 H 144.528 1.32775 1.65785 0
M  V30 1437 H 146.791 0.542518 0.777417 0
M  V30 1438 H 146.497 1.49892 3.18159 0
M  V30 1439 H 146.371 -0.149786 3.76902 0
M  V30 1440 H 148.758 -0.605696 2.88817 0
M  V30 1441 H 148.839 1.06933 2.32377 0
M  V30 1442 H 148.483 1.87107 4.7218 0
M  V30 1443 H 148.413 0.175218 5.26308 0
M  V30 1444 H 150.904 0.52838 3.74188 0
M  V30 1445 H 151.217 1.69613 7.53957 0
M  V30 1446 H 149.562 1.51859 6.78206 0
M  V30 1447 H 152.753 0.737817 4.62249 0
M  V30 1448 H 152.926 1.2701 6.35431 0
M  V30 1449 N 146.332 -1.57332 0.0918853 0
M  V30 1450 C 147.262 -2.16872 -0.865371 0
M  V30 1451 C 148.243 -1.10118 -1.29646 0
M  V30 1452 O 149.428 -1.38242 -1.36392 0
M  V30 1453 C 146.558 -2.74649 -2.12569 0
M  V30 1454 C 145.512 -3.86747 -1.83333 0
M  V30 1455 C 144.838 -4.31212 -3.16166 0
M  V30 1456 C 146.138 -5.10089 -1.1228 0
M  V30 1457 H 147.832 -2.97114 -0.369307 0
M  V30 1458 H 145.378 -1.42918 -0.176194 0
M  V30 1459 H 147.331 -3.14952 -2.7997 0
M  V30 1460 H 146.055 -1.91657 -2.64452 0
M  V30 1461 H 144.714 -3.46978 -1.18331 0
M  V30 1462 H 144.362 -3.45115 -3.6593 0
M  V30 1463 H 144.062 -5.06788 -2.97388 0
M  V30 1464 H 145.586 -4.74146 -3.84731 0
M  V30 1465 H 147 -5.47582 -1.69785 0
M  V30 1466 H 145.397 -5.91073 -1.03693 0
M  V30 1467 H 146.467 -4.84786 -0.105041 0
M  V30 1468 N 147.81 0.181792 -1.56548 0
M  V30 1469 C 148.72 1.24538 -1.98815 0
M  V30 1470 C 149.736 1.49045 -0.897861 0
M  V30 1471 O 150.912 1.61399 -1.20467 0
M  V30 1472 C 147.977 2.56683 -2.33055 0
M  V30 1473 C 147.038 2.40131 -3.55859 0
M  V30 1474 C 146.271 3.65975 -3.88456 0
M  V30 1475 O 146.494 4.70711 -3.22161 0
M  V30 1476 O 145.428 3.6071 -4.81842 0
M  V30 1477 H 149.254 0.916647 -2.89536 0
M  V30 1478 H 146.839 0.387842 -1.44278 0
M  V30 1479 H 148.721 3.34655 -2.56094 0
M  V30 1480 H 147.396 2.89157 -1.45498 0
M  V30 1481 H 146.303 1.60226 -3.38051 0
M  V30 1482 H 147.636 2.12585 -4.43924 0
M  V30 1483 N 149.288 1.51039 0.449983 0
M  V30 1484 C 150.536 1.62759 1.19808 0
M  V30 1485 C 150.857 0.339981 1.92013 0
M  V30 1486 O 150.127 -0.643606 1.85026 0
M  V30 1487 H 148.707 0.599811 0.445237 0
M  V30 1488 H 151.369 1.87914 0.517138 0
M  V30 1489 H 150.465 2.44911 1.93455 0
M  V30 1490 N 150.766 -0.704594 1.40972 0
M  V30 1491 C 152.014 -1.46169 1.39568 0
M  V30 1492 C 152.335 -1.95 0.00253745 0
M  V30 1493 O 151.605 -1.71095 -0.954114 0
M  V30 1494 H 150.185 -0.542326 0.513704 0
M  V30 1495 H 152.847 -0.834553 1.76128 0
M  V30 1496 H 151.943 -2.32922 2.07735 0
M  V30 1497 N 152.244 -1.26651 -0.937939 0
M  V30 1498 C 153.49 -1.12553 -1.687 0
M  V30 1499 C 153.823 0.329782 -1.91379 0
M  V30 1500 O 153.098 1.24202 -1.4968 0
M  V30 1501 C 153.381 -1.89862 -3.05981 0
M  V30 1502 C 153.234 -3.43318 -2.90607 0
M  V30 1503 C 154.553 -1.69499 -4.0615 0
M  V30 1504 H 151.672 -0.410257 -0.612257 0
M  V30 1505 H 154.314 -1.55685 -1.08913 0
M  V30 1506 H 152.464 -1.53204 -3.57017 0
M  V30 1507 H 154.136 -3.89747 -2.46769 0
M  V30 1508 H 152.379 -3.70179 -2.26164 0
M  V30 1509 H 153.05 -3.92642 -3.8799 0
M  V30 1510 H 155.526 -2.01442 -3.64088 0
M  V30 1511 H 154.402 -2.26002 -5.00214 0
M  V30 1512 H 154.663 -0.640365 -4.37438 0
M  V30 1513 N 153.722 1.14298 -1.08507 0
M  V30 1514 C 154.632 2.23027 -0.727753 0
M  V30 1515 C 155.648 1.71952 0.26619 0
M  V30 1516 O 156.824 2.011 0.109882 0
M  V30 1517 C 153.889 3.46403 -0.143541 0
M  V30 1518 C 152.95 4.12413 -1.19223 0
M  V30 1519 C 152.183 5.29899 -0.635798 0
M  V30 1520 O 152.406 5.67796 0.544393 0
M  V30 1521 O 151.34 5.85717 -1.38634 0
M  V30 1522 H 155.166 2.55945 -1.63481 0
M  V30 1523 H 152.751 1.22248 -0.858817 0
M  V30 1524 H 154.633 4.21018 0.179404 0
M  V30 1525 H 153.308 3.15206 0.736659 0
M  V30 1526 H 152.215 3.39667 -1.56772 0
M  V30 1527 H 153.548 4.47718 -2.04474 0
M  V30 1528 N 155.201 0.870884 1.31352 0
M  V30 1529 C 156.612 0.534714 1.78879 0
M  V30 1530 C 156.963 -0.948423 1.71754 0
M  V30 1531 O 156.088 -1.74055 1.28584 0
M  V30 1532 C 156.683 0.963839 3.24801 0
M  V30 1533 C 155.242 0.679311 3.70219 0
M  V30 1534 C 154.389 1.15465 2.52117 0
M  V30 1535 H 157.34 1.05651 1.18421 0
M  V30 1536 H 157.361 0.286892 3.79417 0
M  V30 1537 H 156.873 2.04332 3.29955 0
M  V30 1538 H 154.974 -0.388769 3.70566 0
M  V30 1539 H 155.087 1.25698 4.62317 0
M  V30 1540 H 153.451 0.574383 2.48139 0
M  V30 1541 H 154.234 2.24157 2.60016 0
M  V30 1542 N 156.679 -1.44442 0.630414 0
M  V30 1543 C 157.627 -2.32437 -0.0871428 0
M  V30 1544 C 158.621 -1.47304 -0.836525 0
M  V30 1545 O 159.827 -1.63653 -0.749506 0
M  V30 1546 H 156.202 -0.750533 -0.0469495 0
M  V30 1547 H 158.173 -2.90709 0.673096 0
M  V30 1548 C 156.922 -3.31288 -1.05563 0
M  V30 1549 H 156.245 -3.96805 -0.488426 0
M  V30 1550 H 157.685 -3.9554 -1.52721 0
M  V30 1551 C 156.144 -2.6016 -2.14052 0
M  V30 1552 O 156.674 -2.39997 -3.22124 0
M  V30 1553 N 154.88 -2.19911 -1.89967 0
M  V30 1554 H 154.427 -2.36509 -1.02085 0
M  V30 1555 H 154.385 -1.72646 -2.62756 0
M  V30 1556 N 158.157 -0.370918 -1.53173 0
M  V30 1557 C 159.104 0.473035 -2.259 0
M  V30 1558 C 160.074 1.07311 -1.26781 0
M  V30 1559 O 161.259 1.1046 -1.55574 0
M  V30 1560 C 158.399 1.60405 -3.05556 0
M  V30 1561 C 157.512 1.02863 -4.19575 0
M  V30 1562 C 156.647 2.12918 -4.86661 0
M  V30 1563 C 155.686 1.52869 -5.92704 0
M  V30 1564 N 154.823 2.56779 -6.53459 0
M  V30 1565 H 159.663 -0.153649 -2.97604 0
M  V30 1566 H 157.2 -0.0875946 -1.46839 0
M  V30 1567 H 159.158 2.27034 -3.50016 0
M  V30 1568 H 157.788 2.20131 -2.36097 0
M  V30 1569 H 156.84 0.252465 -3.79561 0
M  V30 1570 H 158.152 0.549642 -4.95762 0
M  V30 1571 H 157.306 2.87356 -5.34333 0
M  V30 1572 H 156.045 2.6417 -4.09958 0
M  V30 1573 H 155.05 0.769479 -5.44389 0
M  V30 1574 H 156.275 1.02435 -6.7133 0
M  V30 1575 H 154.221 3.07235 -5.79606 0
M  V30 1576 H 154.138 2.13583 -7.25202 0
M  V30 1577 H 155.406 3.30903 -7.05779 0
M  V30 1578 N 159.635 1.57281 -0.100228 0
M  V30 1579 C 161.046 1.81725 0.428107 0
M  V30 1580 C 161.397 1.01619 1.67833 0
M  V30 1581 O 160.522 0.247098 2.14985 0
M  V30 1582 C 161.117 3.29617 0.78347 0
M  V30 1583 C 159.676 3.54808 1.25653 0
M  V30 1584 C 158.823 2.76118 0.255752 0
M  V30 1585 H 161.774 1.55324 -0.325608 0
M  V30 1586 H 161.795 3.4322 1.64256 0
M  V30 1587 H 161.307 3.87893 -0.12665 0
M  V30 1588 H 159.408 3.01868 2.18418 0
M  V30 1589 H 159.521 4.63443 1.21482 0
M  V30 1590 H 157.885 2.43745 0.738956 0
M  V30 1591 H 158.668 3.37145 -0.647136 0
M  V30 1592 N 161.113 -0.173488 1.56642 0
M  V30 1593 C 162.359 -0.891784 1.8214 0
M  V30 1594 C 162.692 -1.8199 0.677736 0
M  V30 1595 O 161.967 -1.91842 -0.320446 0
M  V30 1596 C 162.25 -1.68933 3.18015 0
M  V30 1597 C 162.103 -0.784487 4.42906 0
M  V30 1598 C 163.422 -2.65748 3.50808 0
M  V30 1599 H 160.541 -0.322761 0.662567 0
M  V30 1600 H 163.183 -0.158095 1.89341 0
M  V30 1601 H 161.333 -2.31482 3.12007 0
M  V30 1602 H 163.005 -0.172046 4.60979 0
M  V30 1603 H 161.248 -0.0924117 4.33702 0
M  V30 1604 H 161.919 -1.37799 5.34524 0
M  V30 1605 H 164.395 -2.13327 3.57255 0
M  V30 1606 H 163.271 -3.18619 4.4696 0
M  V30 1607 H 163.532 -3.45842 2.75401 0
M  V30 1608 N 162.591 -1.51276 -0.441967 0
M  V30 1609 C 164.007 -1.39349 -0.778083 0
M  V30 1610 C 164.207 -0.472212 -1.95889 0
M  V30 1611 O 163.263 0.0743551 -2.5239 0
M  V30 1612 C 164.576 -2.81292 -1.0628 0
M  V30 1613 C 166.124 -2.9041 -1.16751 0
M  V30 1614 C 166.599 -4.33251 -1.48519 0
M  V30 1615 N 168.09 -4.36336 -1.55453 0
M  V30 1616 C 168.825 -5.43885 -1.81596 0
M  V30 1617 N 168.321 -6.61601 -2.05562 0
M  V30 1618 N 170.114 -5.3136 -1.8334 0
M  V30 1619 H 162.265 -2.09729 0.335774 0
M  V30 1620 H 164.528 -0.943925 0.0878028 0
M  V30 1621 H 164.234 -3.50678 -0.267905 0
M  V30 1622 H 164.108 -3.20334 -1.99163 0
M  V30 1623 H 166.495 -2.21225 -1.95304 0
M  V30 1624 H 166.576 -2.54871 -0.217801 0
M  V30 1625 H 166.22 -5.02984 -0.704958 0
M  V30 1626 H 166.15 -4.66299 -2.44689 0
M  V30 1627 H 168.641 -3.51466 -1.38853 0
M  V30 1628 H 168.954 -7.39361 -2.24867 0
M  V30 1629 H 167.299 -6.64725 -2.02894 0
M  V30 1630 H 170.49 -4.38382 -1.64132 0
M  V30 1631 H 170.663 -6.15258 -2.03377 0
M  V30 1632 N 164.069 0.697108 -1.41344 0
M  V30 1633 C 165.299 1.48377 -1.43763 0
M  V30 1634 C 165.707 1.89156 -0.0408726 0
M  V30 1635 O 165.05 1.57239 0.949812 0
M  V30 1636 C 165.112 2.7781 -2.2817 0
M  V30 1637 C 164.776 2.59244 -3.76353 0
M  V30 1638 C 165.773 2.25292 -4.68551 0
M  V30 1639 C 163.458 2.74933 -4.20378 0
M  V30 1640 C 165.452 2.07264 -6.02761 0
M  V30 1641 C 163.139 2.56521 -5.54653 0
M  V30 1642 C 164.137 2.22737 -6.4566 0
M  V30 1643 O 163.825 2.04485 -7.77458 0
M  V30 1644 H 163.557 0.463842 -0.491759 0
M  V30 1645 H 166.111 0.865934 -1.86255 0
M  V30 1646 H 164.341 3.41995 -1.8049 0
M  V30 1647 H 166.03 3.39608 -2.22309 0
M  V30 1648 H 166.796 2.12787 -4.35829 0
M  V30 1649 H 162.675 3.00213 -3.49848 0
M  V30 1650 H 166.219 1.80817 -6.73759 0
M  V30 1651 H 162.116 2.68616 -5.86955 0
M  V30 1652 H 162.884 2.1926 -7.88586 0
M  V30 1653 N 165.547 1.27147 0.931209 0
M  V30 1654 C 166.772 1.16191 1.71797 0
M  V30 1655 C 167.197 -0.278004 1.86034 0
M  V30 1656 O 166.555 -1.20137 1.35782 0
M  V30 1657 C 166.603 1.84673 3.09723 0
M  V30 1658 O 165.707 1.14231 3.96264 0
M  V30 1659 H 165.048 0.404303 0.526721 0
M  V30 1660 H 167.578 1.68152 1.1656 0
M  V30 1661 H 167.588 1.91893 3.60057 0
M  V30 1662 H 166.263 2.89421 2.98677 0
M  V30 1663 H 164.84 1.15056 3.54706 0
M  V30 1664 N 167.025 -1.13721 1.09112 0
M  V30 1665 C 168.255 -1.88499 0.845671 0
M  V30 1666 C 168.663 -1.79218 -0.606432 0
M  V30 1667 O 168.006 -1.1544 -1.42896 0
M  V30 1668 C 168.068 -3.38954 1.19793 0
M  V30 1669 C 167.732 -3.72018 2.65428 0
M  V30 1670 C 168.729 -3.7153 3.63677 0
M  V30 1671 C 166.414 -4.01775 3.01467 0
M  V30 1672 C 168.408 -4.00336 4.95994 0
M  V30 1673 C 166.095 -4.30243 4.33975 0
M  V30 1674 C 167.093 -4.29508 5.31048 0
M  V30 1675 O 166.781 -4.5728 6.61173 0
M  V30 1676 H 166.513 -0.603702 0.304171 0
M  V30 1677 H 169.067 -1.44903 1.45576 0
M  V30 1678 H 167.297 -3.83039 0.530871 0
M  V30 1679 H 168.986 -3.95052 0.932146 0
M  V30 1680 H 169.752 -3.4862 3.37179 0
M  V30 1681 H 165.631 -4.01496 2.26544 0
M  V30 1682 H 169.175 -3.99678 5.71755 0
M  V30 1683 H 165.072 -4.52625 4.60219 0
M  V30 1684 H 165.84 -4.74964 6.66597 0
M  V30 1685 N 168.503 -0.877838 -1.30888 0
M  V30 1686 C 169.731 -0.507414 -2.00581 0
M  V30 1687 C 170.146 0.902216 -1.65848 0
M  V30 1688 O 169.503 1.59225 -0.891831 0
M  V30 1689 C 169.554 -0.664162 -3.55347 0
M  V30 1690 O 169.275 -2.01829 -3.8884 0
M  V30 1691 C 170.776 -0.295787 -4.42312 0
M  V30 1692 H 167.996 -0.196866 -0.641471 0
M  V30 1693 H 170.54 -1.18117 -1.66939 0
M  V30 1694 H 168.695 -0.0378619 -3.87381 0
M  V30 1695 H 169.109 -2.03174 -4.8355 0
M  V30 1696 H 170.583 -0.456388 -5.5011 0
M  V30 1697 H 171.06 0.765663 -4.32475 0
M  V30 1698 H 171.666 -0.898113 -4.15709 0
M  V30 1699 N 169.982 1.44106 -0.638065 0
M  V30 1700 C 171.398 1.56672 -0.304286 0
M  V30 1701 C 171.598 1.6244 1.19228 0
M  V30 1702 O 170.654 1.57121 1.9766 0
M  V30 1703 C 171.967 2.83503 -1.00231 0
M  V30 1704 C 173.515 2.97226 -0.981116 0
M  V30 1705 C 173.99 4.26868 -1.65974 0
M  V30 1706 N 175.481 4.33698 -1.62666 0
M  V30 1707 C 176.216 5.32745 -2.12063 0
M  V30 1708 N 175.712 6.38157 -2.6968 0
M  V30 1709 N 177.505 5.24299 -2.02651 0
M  V30 1710 H 169.656 1.38605 -1.60942 0
M  V30 1711 H 171.919 0.664661 -0.675965 0
M  V30 1712 H 171.625 2.85251 -2.0573 0
M  V30 1713 H 171.499 3.73251 -0.54439 0
M  V30 1714 H 173.886 2.95027 0.0654188 0
M  V30 1715 H 173.967 2.08808 -1.47759 0
M  V30 1716 H 173.611 4.29826 -2.70576 0
M  V30 1717 H 173.541 5.14156 -1.13804 0
M  V30 1718 H 176.032 3.58138 -1.20606 0
M  V30 1719 H 176.345 7.10029 -3.05087 0
M  V30 1720 H 174.69 6.38823 -2.73734 0
M  V30 1721 H 177.881 4.4086 -1.57353 0
M  V30 1722 H 178.054 6.01334 -2.41457 0
M  V30 1723 N 171.46 0.379036 1.52974 0
M  V30 1724 C 172.392 -0.495963 2.2377 0
M  V30 1725 C 173.405 -1.03517 1.25651 0
M  V30 1726 O 174.594 -0.939249 1.51791 0
M  V30 1727 C 171.694 -1.69894 2.93239 0
M  V30 1728 C 170.867 -1.2889 4.17979 0
M  V30 1729 C 169.926 -2.35543 4.70538 0
M  V30 1730 O 168.952 -1.97375 5.33883 0
M  V30 1731 N 170.154 -3.67318 4.49508 0
M  V30 1732 H 172.919 0.110523 2.99496 0
M  V30 1733 H 170.48 0.204878 1.60598 0
M  V30 1734 H 172.472 -2.40747 3.25304 0
M  V30 1735 H 171.042 -2.212 2.20883 0
M  V30 1736 H 170.262 -0.409676 3.92065 0
M  V30 1737 H 171.55 -0.991443 4.99047 0
M  V30 1738 H 170.948 -4.01095 3.98923 0
M  V30 1739 H 169.505 -4.34235 4.8609 0
M  V30 1740 N 172.938 -1.57226 0.108567 0
M  V30 1741 C 173.901 -2.13602 -0.831082 0
M  V30 1742 C 174.901 -1.06841 -1.20173 0
M  V30 1743 O 176.091 -1.32666 -1.12895 0
M  V30 1744 C 173.223 -2.66769 -2.12243 0
M  V30 1745 H 174.416 -2.97951 -0.341317 0
M  V30 1746 H 171.969 -1.55667 -0.14057 0
M  V30 1747 H 172.704 -1.85977 -2.65675 0
M  V30 1748 H 172.489 -3.44839 -1.86625 0
M  V30 1749 H 173.979 -3.10332 -2.79435 0
M  V30 1750 N 174.416 0.165178 -1.56732 0
M  V30 1751 C 175.832 0.517174 -1.50988 0
M  V30 1752 C 176.032 1.84331 -0.813894 0
M  V30 1753 O 175.088 2.49672 -0.37682 0
M  V30 1754 C 176.401 0.544261 -2.95733 0
M  V30 1755 C 177.949 0.631039 -3.06573 0
M  V30 1756 C 178.424 0.68896 -4.52788 0
M  V30 1757 N 179.915 0.751683 -4.5706 0
M  V30 1758 C 180.65 0.817177 -5.67547 0
M  V30 1759 N 180.146 0.843129 -6.8765 0
M  V30 1760 N 181.939 0.856668 -5.55534 0
M  V30 1761 H 174.09 -0.704318 -2.00382 0
M  V30 1762 H 176.353 -0.254687 -0.913148 0
M  V30 1763 H 176.059 -0.361607 -3.49836 0
M  V30 1764 H 175.933 1.3886 -3.5071 0
M  V30 1765 H 178.32 1.52733 -2.52501 0
M  V30 1766 H 178.401 -0.240095 -2.54671 0
M  V30 1767 H 178.045 -0.2031 -5.07494 0
M  V30 1768 H 177.975 1.57633 -5.02454 0
M  V30 1769 H 180.466 0.739661 -3.70591 0
M  V30 1770 H 180.779 0.894448 -7.67606 0
M  V30 1771 H 179.124 0.811304 -6.90248 0
M  V30 1772 H 182.315 0.833437 -4.60621 0
M  V30 1773 H 182.488 0.904247 -6.4166 0
M  V30 1774 N 175.894 1.51508 0.433938 0
M  V30 1775 C 177.142 1.6402 1.18075 0
M  V30 1776 C 177.463 0.360328 1.91642 0
M  V30 1777 O 176.733 -0.623945 1.85698 0
M  V30 1778 H 175.313 0.6045 0.43885 0
M  V30 1779 H 177.975 1.88452 0.497178 0
M  V30 1780 H 177.071 2.46949 1.90847 0
M  V30 1781 N 177.372 -0.689602 1.41712 0
M  V30 1782 C 178.597 -1.48329 1.44959 0
M  V30 1783 C 179.022 -1.8801 0.0581283 0
M  V30 1784 O 178.38 -1.55026 -0.940035 0
M  V30 1785 C 178.428 -2.71835 2.36935 0
M  V30 1786 O 177.532 -3.69549 1.8305 0
M  V30 1787 H 176.873 -0.446199 0.491734 0
M  V30 1788 H 179.403 -0.847127 1.86239 0
M  V30 1789 H 179.413 -3.20076 2.53013 0
M  V30 1790 H 178.088 -2.42291 3.38035 0
M  V30 1791 H 176.665 -3.2851 1.76452 0
M  V30 1792 N 178.85 -1.27639 -0.924453 0
M  V30 1793 C 180.096 -1.15345 -1.67532 0
M  V30 1794 C 180.451 0.297096 -1.90092 0
M  V30 1795 O 179.744 1.21374 -1.48253 0
M  V30 1796 C 179.938 -1.87407 -3.04325 0
M  V30 1797 C 179.767 -3.3932 -2.95114 0
M  V30 1798 C 178.537 -4.08644 -2.97218 0
M  V30 1799 C 180.735 -4.35242 -2.73987 0
M  V30 1800 N 178.717 -5.47102 -2.78482 0
M  V30 1801 C 180.088 -5.6099 -2.63988 0
M  V30 1802 C 182.143 -4.25294 -2.589 0
M  V30 1803 C 180.846 -6.77924 -2.40442 0
M  V30 1804 C 182.872 -5.41952 -2.36731 0
M  V30 1805 C 182.234 -6.66658 -2.27478 0
M  V30 1806 H 178.333 -0.47696 -0.619704 0
M  V30 1807 H 180.917 -1.6115 -1.09265 0
M  V30 1808 H 179.088 -1.44053 -3.60699 0
M  V30 1809 H 180.82 -1.6759 -3.68369 0
M  V30 1810 H 177.575 -3.60136 -3.07569 0
M  V30 1811 H 177.999 -6.19852 -2.72236 0
M  V30 1812 H 182.641 -3.29598 -2.64811 0
M  V30 1813 H 180.359 -7.73699 -2.3327 0
M  V30 1814 H 183.945 -5.36137 -2.25938 0
M  V30 1815 H 182.825 -7.55405 -2.10555 0
M  V30 1816 N 180.328 1.1314 -1.09713 0
M  V30 1817 C 181.553 1.88862 -0.857081 0
M  V30 1818 C 181.978 1.78729 0.586304 0
M  V30 1819 O 181.336 1.13692 1.41222 0
M  V30 1820 C 181.384 3.36325 -1.30069 0
M  V30 1821 O 180.488 4.09815 -0.461007 0
M  V30 1822 H 179.829 0.587108 -0.310162 0
M  V30 1823 H 182.359 1.43129 -1.46203 0
M  V30 1824 H 182.369 3.87157 -1.28738 0
M  V30 1825 H 181.044 3.43017 -2.35185 0
M  V30 1826 H 179.621 3.68986 -0.538888 0
M  V30 1827 N 181.806 0.884767 1.30421 0
M  V30 1828 C 182.736 0.367574 2.30589 0
M  V30 1829 C 183.717 -0.549464 1.60981 0
M  V30 1830 O 184.902 -0.46336 1.88591 0
M  V30 1831 C 182.032 -0.418944 3.44764 0
M  V30 1832 C 180.986 0.406316 4.26067 0
M  V30 1833 C 180.312 -0.506793 5.32293 0
M  V30 1834 C 181.612 1.64832 4.95608 0
M  V30 1835 H 183.306 1.20462 2.74097 0
M  V30 1836 H 180.852 0.580695 1.31772 0
M  V30 1837 H 182.805 -0.791395 4.13902 0
M  V30 1838 H 181.529 -1.28964 3.0006 0
M  V30 1839 H 180.188 0.760903 3.58617 0
M  V30 1840 H 179.836 -1.37519 4.83836 0
M  V30 1841 H 179.536 0.0415828 5.87585 0
M  V30 1842 H 181.06 -0.875764 6.04287 0
M  V30 1843 H 182.474 1.34646 5.57264 0
M  V30 1844 H 180.871 2.13688 5.60765 0
M  V30 1845 H 181.941 2.39284 4.21748 0
M  V30 1846 N 183.284 -1.43765 0.645699 0
M  V30 1847 C 184.232 -2.32516 -0.0624849 0
M  V30 1848 C 185.226 -1.48183 -0.820855 0
M  V30 1849 O 186.432 -1.64439 -0.732106 0
M  V30 1850 H 182.807 -0.750989 -0.0389864 0
M  V30 1851 H 184.778 -2.89979 0.703892 0
M  V30 1852 C 183.527 -3.32389 -1.02044 0
M  V30 1853 H 182.85 -3.97301 -0.446312 0
M  V30 1854 H 184.29 -3.97138 -1.48517 0
M  V30 1855 C 182.749 -2.62416 -2.11281 0
M  V30 1856 O 183.279 -2.434 -3.19561 0
M  V30 1857 N 181.485 -2.21913 -1.87624 0
M  V30 1858 H 181.032 -2.37578 -0.995703 0
M  V30 1859 H 180.99 -1.75424 -2.6091 0
M  V30 1860 N 184.763 -0.387143 -1.52771 0
M  V30 1861 C 186.009 0.188506 -2.02525 0
M  V30 1862 C 186.364 1.44649 -1.26864 0
M  V30 1863 O 185.657 1.88189 -0.359945 0
M  V30 1864 C 185.851 0.512209 -3.53711 0
M  V30 1865 C 185.68 -0.712855 -4.44014 0
M  V30 1866 C 184.45 -1.23147 -4.90064 0
M  V30 1867 C 186.648 -1.58453 -4.89282 0
M  V30 1868 N 184.63 -2.41431 -5.64433 0
M  V30 1869 C 186.001 -2.61381 -5.6221 0
M  V30 1870 C 188.056 -1.60488 -4.71326 0
M  V30 1871 C 186.759 -3.66227 -6.19088 0
M  V30 1872 C 188.785 -2.6424 -5.29085 0
M  V30 1873 C 188.147 -3.6589 -6.01917 0
M  V30 1874 H 184.246 0.0311236 -0.78138 0
M  V30 1875 H 186.83 -0.536548 -1.87161 0
M  V30 1876 H 185.001 1.20632 -3.69192 0
M  V30 1877 H 186.733 1.07482 -3.90166 0
M  V30 1878 H 183.488 -0.792795 -4.66917 0
M  V30 1879 H 183.912 -3.01274 -6.0627 0
M  V30 1880 H 188.554 -0.83247 -4.14524 0
M  V30 1881 H 186.272 -4.44337 -6.74974 0
M  V30 1882 H 189.858 -2.66695 -5.17074 0
M  V30 1883 H 188.738 -4.44855 -6.45813 0
M  V30 1884 N 186.241 1.57166 -0.116904 0
M  V30 1885 C 187.171 2.18222 0.830759 0
M  V30 1886 C 188.152 1.12167 1.27877 0
M  V30 1887 O 189.337 1.40394 1.34176 0
M  V30 1888 C 186.467 2.77996 2.08172 0
M  V30 1889 C 185.421 3.89614 1.77157 0
M  V30 1890 C 184.747 4.36187 3.09265 0
M  V30 1891 C 186.047 5.1181 1.04151 0
M  V30 1892 H 187.741 2.97664 0.321992 0
M  V30 1893 H 185.287 1.4318 0.153434 0
M  V30 1894 H 187.24 3.19366 2.74924 0
M  V30 1895 H 185.964 1.9584 2.6137 0
M  V30 1896 H 184.623 3.48816 1.12796 0
M  V30 1897 H 184.271 3.50893 3.60393 0
M  V30 1898 H 183.971 5.11455 2.89288 0
M  V30 1899 H 185.495 4.80207 3.77139 0
M  V30 1900 H 186.909 5.50214 1.61052 0
M  V30 1901 H 185.306 5.92648 0.942762 0
M  V30 1902 H 186.376 4.84892 0.0279022 0
M  V30 1903 N 187.719 -0.156864 1.56817 0
M  V30 1904 C 188.965 -0.872416 1.83076 0
M  V30 1905 C 189.298 -1.81261 0.697001 0
M  V30 1906 O 188.573 -1.92171 -0.30008 0
M  V30 1907 C 188.856 -1.65551 3.19789 0
M  V30 1908 C 188.709 -0.737467 4.43713 0
M  V30 1909 C 190.028 -2.62012 3.53606 0
M  V30 1910 H 187.147 -0.315715 0.665953 0
M  V30 1911 H 189.789 -0.138004 1.89498 0
M  V30 1912 H 187.939 -2.28159 3.14445 0
M  V30 1913 H 189.611 -0.123143 4.61136 0
M  V30 1914 H 187.854 -0.0464067 4.33775 0
M  V30 1915 H 188.525 -1.32122 5.35955 0
M  V30 1916 H 191.001 -2.09525 3.59497 0
M  V30 1917 H 189.877 -3.13861 4.50314 0
M  V30 1918 H 190.138 -3.42902 2.79053 0
M  V30 1919 N 189.197 -1.51736 -0.425897 0
M  V30 1920 C 190.608 -1.5732 -1.00536 0
M  V30 1921 C 190.959 -0.403537 -1.92005 0
M  V30 1922 O 190.084 0.478256 -2.11049 0
M  V30 1923 C 190.679 -2.85119 -1.8301 0
M  V30 1924 C 189.238 -2.93236 -2.35987 0
M  V30 1925 C 188.385 -2.52098 -1.15508 0
M  V30 1926 H 191.336 -1.57348 -0.206739 0
M  V30 1927 H 191.357 -2.69526 -2.68581 0
M  V30 1928 H 190.869 -3.7023 -1.16411 0
M  V30 1929 H 188.97 -2.12581 -3.06007 0
M  V30 1930 H 189.083 -3.9713 -2.68001 0
M  V30 1931 H 187.447 -2.05558 -1.50393 0
M  V30 1932 H 188.23 -3.39565 -0.505014 0
M  V30 1933 N 190.675 0.682077 -1.42076 0
M  V30 1934 C 191.924 1.43786 -1.41451 0
M  V30 1935 C 192.237 1.95574 -0.0317074 0
M  V30 1936 O 193.443 2.71326 0.0971462 0
M  V30 1937 C 191.899 2.60071 -2.48779 0
M  V30 1938 C 191.507 2.15013 -3.93031 0
M  V30 1939 C 193.251 3.37626 -2.57311 0
M  V30 1940 C 191.158 3.28336 -4.91883 0
M  V30 1941 H 190.088 0.540143 -0.526082 0
M  V30 1942 H 192.739 0.739157 -1.67955 0
M  V30 1943 H 191.121 3.32275 -2.15429 0
M  V30 1944 H 192.295 1.5001 -4.35699 0
M  V30 1945 H 190.61 1.50416 -3.88284 0
M  V30 1946 H 193.207 4.22012 -3.28345 0
M  V30 1947 H 193.55 3.83727 -1.61429 0
M  V30 1948 H 194.083 2.72488 -2.89819 0
M  V30 1949 H 190.822 2.87234 -5.89217 0
M  V30 1950 H 190.342 3.92145 -4.53853 0
M  V30 1951 H 192.021 3.93913 -5.13265 0
M  V30 1952 N 192.153 1.28127 0.917671 0
M  V30 1953 C 193.401 1.14825 1.66312 0
M  V30 1954 C 193.722 -0.304379 1.9261 0
M  V30 1955 O 192.992 -1.21149 1.53947 0
M  V30 1956 H 191.572 0.421953 0.616413 0
M  V30 1957 H 194.234 1.608 1.10134 0
M  V30 1958 H 193.33 1.68489 2.62712 0
M  V30 1959 N 193.631 -1.12557 1.10312 0
M  V30 1960 C 194.581 -2.16331 0.720076 0
M  V30 1961 C 195.565 -1.58616 -0.270115 0
M  V30 1962 O 196.757 -1.76823 -0.0790507 0
M  V30 1963 C 193.886 -3.42963 0.152113 0
M  V30 1964 C 192.972 -4.07663 1.16927 0
M  V30 1965 N 193.363 -4.47392 2.35953 0
M  V30 1966 C 191.661 -4.34425 1.0095 0
M  V30 1967 C 192.362 -4.97932 3.0073 0
M  V30 1968 N 191.338 -4.93358 2.28252 0
M  V30 1969 H 195.14 -2.44813 1.62616 0
M  V30 1970 H 192.654 -1.29449 0.980654 0
M  V30 1971 H 194.651 -4.16664 -0.14037 0
M  V30 1972 H 193.311 -3.1595 -0.748701 0
M  V30 1973 H 194.322 -4.39802 2.73486 0
M  V30 1974 H 190.999 -4.17177 0.164134 0
M  V30 1975 H 192.389 -5.38397 4.01969 0
M  V30 1976 N 195.109 -0.891671 -1.2995 0
M  V30 1977 C 196.019 -0.367691 -2.31701 0
M  V30 1978 C 197.035 0.533486 -1.6562 0
M  V30 1979 O 198.211 0.424997 -1.96865 0
M  V30 1980 C 195.276 0.403406 -3.44345 0
M  V30 1981 C 194.337 -0.528328 -4.26037 0
M  V30 1982 C 193.57 0.206063 -5.33302 0
M  V30 1983 O 193.793 1.43119 -5.52153 0
M  V30 1984 O 192.727 -0.447281 -6.00236 0
M  V30 1985 H 196.553 -1.21163 -2.78484 0
M  V30 1986 H 194.138 -0.655725 -1.34241 0
M  V30 1987 H 196.02 0.839753 -4.12948 0
M  V30 1988 H 194.695 1.22354 -2.99685 0
M  V30 1989 H 193.602 -1.01362 -3.60106 0
M  V30 1990 H 194.935 -1.31465 -4.74318 0
M  V30 1991 N 196.587 1.43421 -0.653314 0
M  V30 1992 C 197.534 2.30768 0.0382271 0
M  V30 1993 C 198.504 1.44755 0.814576 0
M  V30 1994 O 199.689 1.73624 0.791162 0
M  V30 1995 C 196.829 3.30336 0.998599 0
M  V30 1996 C 195.942 4.31448 0.218342 0
M  V30 1997 C 195.077 5.18098 1.17252 0
M  V30 1998 C 194.116 6.10902 0.382702 0
M  V30 1999 N 193.253 6.90176 1.28848 0
M  V30 2000 H 198.093 2.89357 -0.712511 0
M  V30 2001 H 195.63 1.42548 -0.363128 0
M  V30 2002 H 197.588 3.86572 1.56901 0
M  V30 2003 H 196.218 2.73397 1.71621 0
M  V30 2004 H 195.27 3.77506 -0.46836 0
M  V30 2005 H 196.582 4.97227 -0.395812 0
M  V30 2006 H 195.736 5.7896 1.81356 0
M  V30 2007 H 194.475 4.52444 1.82058 0
M  V30 2008 H 193.48 5.49128 -0.27169 0
M  V30 2009 H 194.705 6.78598 -0.260957 0
M  V30 2010 H 192.651 6.27171 1.92334 0
M  V30 2011 H 192.568 7.52478 0.728887 0
M  V30 2012 H 193.836 7.55543 1.91766 0
M  V30 2013 N 198.065 0.39524 1.52563 0
M  V30 2014 C 199.476 -0.0774719 1.86539 0
M  V30 2015 C 199.827 -1.45641 1.31466 0
M  V30 2016 O 198.952 -2.06459 0.648367 0
M  V30 2017 C 199.547 -0.147356 3.38479 0
M  V30 2018 C 198.106 -0.564373 3.72145 0
M  V30 2019 C 197.253 0.269919 2.75983 0
M  V30 2020 H 200.204 0.612876 1.46388 0
M  V30 2021 H 200.225 -0.965343 3.68051 0
M  V30 2022 H 199.737 0.856387 3.78534 0
M  V30 2023 H 197.838 -1.57527 3.37663 0
M  V30 2024 H 197.951 -0.318402 4.78041 0
M  V30 2025 H 196.315 -0.265696 2.5331 0
M  V30 2026 H 197.098 1.27175 3.18875 0
M  V30 2027 N 199.544 -1.57102 0.125237 0
M  V30 2028 C 200.769 -2.0019 -0.542101 0
M  V30 2029 C 201.194 -1.00449 -1.59034 0
M  V30 2030 O 200.552 0.0229423 -1.81285 0
M  V30 2031 C 200.6 -3.42129 -1.13929 0
M  V30 2032 O 199.704 -3.45307 -2.2547 0
M  V30 2033 H 199.045 -0.650171 -0.134812 0
M  V30 2034 H 201.575 -2.03461 0.215553 0
M  V30 2035 H 201.585 -3.80471 -1.4733 0
M  V30 2036 H 200.26 -4.14237 -0.371531 0
M  V30 2037 H 198.837 -3.1879 -1.93462 0
M  V30 2038 N 201.022 0.148545 -1.56898 0
M  V30 2039 C 201.97 1.20265 -1.99096 0
M  V30 2040 C 202.964 1.44559 -0.883123 0
M  V30 2041 O 204.17 1.4487 -1.0683 0
M  V30 2042 H 200.545 0.404786 -0.63376 0
M  V30 2043 H 202.516 0.82004 -2.86911 0
M  V30 2044 C 201.265 2.52886 -2.3863 0
M  V30 2045 H 200.588 2.35021 -3.23427 0
M  V30 2046 H 202.028 3.25274 -2.7198 0
M  V30 2047 C 200.487 3.13315 -1.23837 0
M  V30 2048 O 201.017 3.98077 -0.538268 0
M  V30 2049 N 199.223 2.72742 -1.00301 0
M  V30 2050 H 198.77 2.03912 -1.5741 0
M  V30 2051 H 198.728 3.13507 -0.236838 0
M  V30 2052 N 202.5 1.5196 0.417844 0
M  V30 2053 C 203.749 1.6482 1.16264 0
M  V30 2054 C 204.062 0.379886 1.91876 0
M  V30 2055 O 205.268 0.388154 2.68711 0
M  V30 2056 C 203.724 2.91161 2.1155 0
M  V30 2057 C 203.332 4.25068 1.41495 0
M  V30 2058 C 205.076 3.13383 2.86341 0
M  V30 2059 C 202.983 5.42541 2.35379 0
M  V30 2060 H 201.913 0.613954 0.437694 0
M  V30 2061 H 204.564 1.78442 0.427871 0
M  V30 2062 H 202.946 2.71218 2.88543 0
M  V30 2063 H 204.12 4.55463 0.699263 0
M  V30 2064 H 202.435 4.0888 0.787792 0
M  V30 2065 H 205.032 3.98324 3.5671 0
M  V30 2066 H 205.375 2.27256 3.48798 0
M  V30 2067 H 205.908 3.33757 2.1645 0
M  V30 2068 H 202.647 6.30987 1.77582 0
M  V30 2069 H 202.167 5.16497 3.04945 0
M  V30 2070 H 203.846 5.75272 2.96093 0
M  V30 2071 N 203.978 -0.674533 1.42435 0
M  V30 2072 C 204.925 -1.78807 1.45934 0
M  V30 2073 C 205.895 -1.63157 0.311271 0
M  V30 2074 O 207.08 -1.83707 0.515383 0
M  V30 2075 C 204.22 -3.16839 1.36773 0
M  V30 2076 C 203.333 -3.43774 2.61617 0
M  V30 2077 C 202.468 -4.71536 2.44597 0
M  V30 2078 C 201.507 -4.91505 3.64814 0
M  V30 2079 N 200.644 -6.10508 3.46734 0
M  V30 2080 H 205.484 -1.75151 2.41093 0
M  V30 2081 H 203.021 -0.85504 1.19697 0
M  V30 2082 H 204.979 -3.96606 1.29459 0
M  V30 2083 H 203.609 -3.19619 0.452089 0
M  V30 2084 H 202.661 -2.58259 2.79297 0
M  V30 2085 H 203.973 -3.54423 3.50978 0
M  V30 2086 H 203.127 -5.59393 2.3487 0
M  V30 2087 H 201.866 -4.6317 1.52726 0
M  V30 2088 H 200.871 -4.0209 3.74972 0
M  V30 2089 H 202.096 -5.01716 4.57665 0
M  V30 2090 H 200.042 -6.03315 2.5758 0
M  V30 2091 H 199.959 -6.2202 4.29682 0
M  V30 2092 H 201.227 -7.01044 3.40819 0
M  V30 2093 N 205.456 -1.28612 -0.910864 0
M  V30 2094 C 206.702 -1.16106 -1.66274 0
M  V30 2095 C 207.035 0.289113 -1.92036 0
M  V30 2096 O 206.31 1.21 -1.52281 0
M  V30 2097 C 206.593 -1.96309 -3.01885 0
M  V30 2098 C 206.446 -3.49405 -2.8326 0
M  V30 2099 C 207.765 -1.78076 -4.02463 0
M  V30 2100 H 204.884 -0.423152 -0.603417 0
M  V30 2101 H 207.526 -1.57961 -1.05586 0
M  V30 2102 H 205.676 -1.60742 -3.53687 0
M  V30 2103 H 207.348 -3.94894 -2.38446 0
M  V30 2104 H 205.591 -3.74893 -2.18261 0
M  V30 2105 H 206.262 -4.00784 -3.79574 0
M  V30 2106 H 208.738 -2.0912 -3.59733 0
M  V30 2107 H 207.614 -2.36561 -4.95308 0
M  V30 2108 H 207.875 -0.733008 -4.35981 0
M  V30 2109 N 206.934 1.1197 -1.10907 0
M  V30 2110 C 208.181 1.83588 -0.854507 0
M  V30 2111 C 208.509 1.84357 0.6199 0
M  V30 2112 O 207.764 1.28809 1.47332 0
M  V30 2113 C 208.063 3.30749 -1.35425 0
M  V30 2114 C 207.729 3.50146 -2.84093 0
M  V30 2115 C 206.391 3.55148 -3.2469 0
M  V30 2116 C 208.743 3.56857 -3.79872 0
M  V30 2117 C 206.071 3.6441 -4.59806 0
M  V30 2118 C 208.423 3.6765 -5.14797 0
M  V30 2119 C 207.087 3.7091 -5.54961 0
M  V30 2120 H 206.357 0.671795 -0.312686 0
M  V30 2121 H 209.004 1.32091 -1.38652 0
M  V30 2122 H 207.309 3.84703 -0.742361 0
M  V30 2123 H 209.006 3.8464 -1.1337 0
M  V30 2124 H 205.596 3.46919 -2.51685 0
M  V30 2125 H 209.78 3.52258 -3.49611 0
M  V30 2126 H 205.036 3.65208 -4.9034 0
M  V30 2127 H 209.21 3.71786 -5.88853 0
M  V30 2128 H 206.837 3.7784 -6.59652 0
M  V30 2129 N 208.412 0.89855 1.29475 0
M  V30 2130 C 209.661 0.519863 1.94885 0
M  V30 2131 C 209.974 -0.9383 1.71625 0
M  V30 2132 O 211.18 -1.42445 2.31131 0
M  V30 2133 C 209.636 0.878836 3.49005 0
M  V30 2134 C 209.244 2.35569 3.81066 0
M  V30 2135 C 210.988 0.570004 4.20656 0
M  V30 2136 C 208.895 2.65558 5.28425 0
M  V30 2137 H 207.825 0.190692 0.729488 0
M  V30 2138 H 210.476 1.09539 1.47219 0
M  V30 2139 H 208.858 0.232253 3.95318 0
M  V30 2140 H 210.032 3.04773 3.45616 0
M  V30 2141 H 208.347 2.63343 3.22552 0
M  V30 2142 H 210.944 0.770925 5.29113 0
M  V30 2143 H 211.287 -0.491404 4.1339 0
M  V30 2144 H 211.82 1.17438 3.8007 0
M  V30 2145 H 208.559 3.70493 5.40754 0
M  V30 2146 H 208.079 2.00977 5.65127 0
M  V30 2147 H 209.758 2.51765 5.96006 0
M  V30 2148 N 209.89 -1.43072 0.660911 0
M  V30 2149 C 210.84 -2.27948 -0.04847 0
M  V30 2150 C 211.824 -1.40325 -0.787246 0
M  V30 2151 O 213.016 -1.63893 -0.668446 0
M  V30 2152 C 210.145 -3.28143 -1.00881 0
M  V30 2153 C 209.231 -4.23252 -0.268108 0
M  V30 2154 N 209.622 -5.00656 0.719528 0
M  V30 2155 C 207.92 -4.43092 -0.508493 0
M  V30 2156 C 208.621 -5.70019 1.15988 0
M  V30 2157 N 207.597 -5.41364 0.492584 0
M  V30 2158 H 211.399 -2.85213 0.709279 0
M  V30 2159 H 208.913 -1.54869 0.488822 0
M  V30 2160 H 210.91 -3.87736 -1.53188 0
M  V30 2161 H 209.57 -2.7244 -1.76654 0
M  V30 2162 H 210.581 -5.06115 1.09855 0
M  V30 2163 H 207.258 -3.98449 -1.24679 0
M  V30 2164 H 208.648 -6.4214 1.97751 0
M  V30 2165 N 211.368 -0.403325 -1.52352 0
M  V30 2166 C 212.278 0.432009 -2.30588 0
M  V30 2167 C 213.294 1.05884 -1.38075 0
M  V30 2168 O 214.47 1.06161 -1.71148 0
M  V30 2169 C 211.535 1.53669 -3.10784 0
M  V30 2170 C 210.596 0.933525 -4.19027 0
M  V30 2171 C 209.829 1.98557 -4.9539 0
M  V30 2172 O 210.052 3.20283 -4.71991 0
M  V30 2173 O 208.986 1.59504 -5.80381 0
M  V30 2174 H 212.812 -0.205739 -3.03002 0
M  V30 2175 H 210.397 -0.166675 -1.48467 0
M  V30 2176 H 212.279 2.17814 -3.60742 0
M  V30 2177 H 210.954 2.15915 -2.41169 0
M  V30 2178 H 209.861 0.254954 -3.7323 0
M  V30 2179 H 211.194 0.35508 -4.90918 0
M  V30 2180 N 212.846 1.57033 -0.133567 0
M  V30 2181 C 213.776 2.1909 0.807567 0
M  V30 2182 C 214.757 1.13517 1.26681 0
M  V30 2183 O 215.942 1.41809 1.32679 0
M  V30 2184 C 213.072 2.80188 2.05212 0
M  V30 2185 C 212.026 3.91471 1.73015 0
M  V30 2186 C 211.352 4.39443 3.04622 0
M  V30 2187 C 212.652 5.12886 0.987168 0
M  V30 2188 H 214.346 2.97988 0.290403 0
M  V30 2189 H 211.892 1.43335 0.138239 0
M  V30 2190 H 213.845 3.22264 2.71521 0
M  V30 2191 H 212.569 1.98601 2.59278 0
M  V30 2192 H 211.228 3.49993 1.0909 0
M  V30 2193 H 210.876 3.54695 3.56651 0
M  V30 2194 H 210.576 5.14495 2.83847 0
M  V30 2195 H 212.1 4.8418 3.72024 0
M  V30 2196 H 213.514 5.51891 1.55208 0
M  V30 2197 H 211.911 5.93615 0.87985 0
M  V30 2198 H 212.981 4.84894 -0.0235286 0
M  V30 2199 N 214.325 -0.140222 1.56975 0
M  V30 2200 C 215.273 -1.19207 1.99731 0
M  V30 2201 C 216.267 -1.44089 0.890777 0
M  V30 2202 O 217.473 -1.44301 1.07597 0
M  V30 2203 H 213.848 -0.40142 0.635898 0
M  V30 2204 H 215.819 -0.804813 2.87342 0
M  V30 2205 C 214.568 -2.51617 2.39967 0
M  V30 2206 H 213.891 -2.33303 3.24669 0
M  V30 2207 H 215.331 -3.23827 2.73701 0
M  V30 2208 C 213.79 -3.12654 1.25496 0
M  V30 2209 O 214.32 -3.97786 0.559371 0
M  V30 2210 N 212.526 -2.72206 1.01746 0
M  V30 2211 H 212.073 -2.03074 1.58489 0
M  V30 2212 H 212.031 -3.13377 0.253461 0
M  V30 2213 N 215.803 -1.52179 -0.40978 0
M  V30 2214 C 216.766 -1.74853 -1.48186 0
M  V30 2215 C 217.766 -0.618417 -1.48433 0
M  V30 2216 O 218.956 -0.886286 -1.49969 0
M  V30 2217 C 216.088 -1.8303 -2.87598 0
M  V30 2218 H 217.281 -2.70559 -1.29374 0
M  V30 2219 H 214.834 -1.42586 -0.640233 0
M  V30 2220 H 215.569 -0.89236 -3.11781 0
M  V30 2221 H 215.354 -2.65187 -2.88822 0
M  V30 2222 H 216.844 -2.02316 -3.65319 0
M  V30 2223 N 217.281 0.66697 -1.42791 0
M  V30 2224 C 218.529 1.42417 -1.43394 0
M  V30 2225 C 218.85 1.94925 -0.0542373 0
M  V30 2226 O 218.12 1.73564 0.908415 0
M  V30 2227 H 216.7 0.528515 -0.527902 0
M  V30 2228 H 219.362 0.787562 -1.78279 0
M  V30 2229 H 218.458 2.27333 -2.13837 0
M  V30 2230 N 218.759 1.29093 0.90403 0
M  V30 2231 C 219.707 1.13727 2.02901 0
M  V30 2232 C 220.701 0.0539853 1.69314 0
M  V30 2233 O 221.907 0.213469 1.7873 0
M  V30 2234 H 218.282 0.35117 0.664969 0
M  V30 2235 H 220.253 2.08982 2.13001 0
M  V30 2236 C 219.002 0.826066 3.37745 0
M  V30 2237 H 218.325 1.65164 3.64089 0
M  V30 2238 H 219.765 0.758559 4.17159 0
M  V30 2239 C 218.224 -0.470541 3.33598 0
M  V30 2240 O 218.754 -1.49792 3.72727 0
M  V30 2241 N 216.96 -0.474812 2.86695 0
M  V30 2242 H 216.507 0.361692 2.55048 0
M  V30 2243 H 216.465 -1.34236 2.84303 0
M  V30 2244 N 220.237 -1.11381 1.11499 0
M  V30 2245 C 221.169 -2.17207 0.731704 0
M  V30 2246 C 222.182 -1.61066 -0.236957 0
M  V30 2247 O 223.371 -1.78489 -0.0197591 0
M  V30 2248 C 220.471 -3.38846 0.0607624 0
M  V30 2249 C 219.644 -4.24451 1.0564 0
M  V30 2250 C 218.703 -5.24562 0.4149 0
M  V30 2251 O 217.729 -5.59071 1.069 0
M  V30 2252 N 218.931 -5.74651 -0.821943 0
M  V30 2253 H 221.696 -2.50699 1.64225 0
M  V30 2254 H 219.257 -1.26908 1.00529 0
M  V30 2255 H 221.249 -4.02911 -0.380139 0
M  V30 2256 H 219.819 -3.03411 -0.752376 0
M  V30 2257 H 219.039 -3.56833 1.67524 0
M  V30 2258 H 220.327 -4.78486 1.72998 0
M  V30 2259 H 219.725 -5.48797 -1.37252 0
M  V30 2260 H 218.282 -6.40549 -1.20582 0
M  V30 2261 N 221.715 -0.905404 -1.28997 0
M  V30 2262 C 222.645 -0.404212 -2.29975 0
M  V30 2263 C 223.626 0.523784 -1.61835 0
M  V30 2264 O 224.811 0.433298 -1.89304 0
M  V30 2265 C 221.941 0.364042 -3.45387 0
M  V30 2266 C 220.895 -0.474048 -4.25367 0
M  V30 2267 C 220.221 0.422045 -5.33032 0
M  V30 2268 C 221.521 -1.72696 -4.92923 0
M  V30 2269 H 223.215 -1.24807 -2.72146 0
M  V30 2270 H 220.761 -0.601585 -1.30832 0
M  V30 2271 H 222.714 0.725447 -4.15109 0
M  V30 2272 H 221.438 1.24174 -3.02074 0
M  V30 2273 H 220.097 -0.81786 -3.57361 0
M  V30 2274 H 219.745 1.29804 -4.85963 0
M  V30 2275 H 219.445 -0.135057 -5.87445 0
M  V30 2276 H 220.969 0.779517 -6.05604 0
M  V30 2277 H 222.383 -1.43495 -5.55051 0
M  V30 2278 H 220.78 -2.22582 -5.57295 0
M  V30 2279 H 221.85 -2.45964 -4.17887 0
M  V30 2280 N 223.193 1.4272 -0.668489 0
M  V30 2281 C 224.418 2.06484 -0.194758 0
M  V30 2282 C 224.843 1.49862 1.13679 0
M  V30 2283 O 224.201 0.614582 1.70565 0
M  V30 2284 C 224.249 3.60353 -0.133546 0
M  V30 2285 O 223.353 4.02464 0.899806 0
M  V30 2286 H 222.694 0.656137 -0.10188 0
M  V30 2287 H 225.224 1.82964 -0.915722 0
M  V30 2288 H 225.234 4.07976 0.0447041 0
M  V30 2289 H 223.909 4.00938 -1.1055 0
M  V30 2290 H 222.486 3.66402 0.693109 0
M  V30 2291 N 224.671 0.411399 1.52136 0
M  V30 2292 C 225.621 -0.430376 2.23901 0
M  V30 2293 C 226.605 -1.0116 1.25121 0
M  V30 2294 O 227.797 -0.934044 1.50348 0
M  V30 2295 C 224.926 -1.54527 3.06556 0
M  V30 2296 C 224.012 -0.9747 4.12747 0
M  V30 2297 N 224.403 -0.130991 5.0563 0
M  V30 2298 C 222.701 -1.24497 4.28271 0
M  V30 2299 C 223.402 0.186689 5.814 0
M  V30 2300 N 222.378 -0.42304 5.41951 0
M  V30 2301 H 226.18 0.220509 2.93072 0
M  V30 2302 H 223.694 0.221952 1.60876 0
M  V30 2303 H 225.691 -2.16093 3.56524 0
M  V30 2304 H 224.351 -2.19875 2.38925 0
M  V30 2305 H 225.362 0.23349 5.17373 0
M  V30 2306 H 222.039 -1.89787 3.7187 0
M  V30 2307 H 223.429 0.871673 6.66222 0
M  V30 2308 N 226.149 -1.5696 0.141893 0
M  V30 2309 C 227.082 -2.12271 -0.837627 0
M  V30 2310 C 228.06 -1.04495 -1.24578 0
M  V30 2311 O 229.244 -1.32293 -1.34278 0
M  V30 2312 C 226.371 -2.63822 -2.12404 0
M  V30 2313 C 225.417 -3.83698 -1.86221 0
M  V30 2314 S 226.25 -5.24948 -1.05781 0
M  V30 2315 C 227.406 -5.79884 -2.35552 0
M  V30 2316 H 227.639 -2.95023 -0.367249 0
M  V30 2317 H 225.172 -1.54231 -0.0723014 0
M  V30 2318 H 227.13 -2.94175 -2.86307 0
M  V30 2319 H 225.791 -1.8121 -2.56557 0
M  V30 2320 H 224.984 -4.17995 -2.81596 0
M  V30 2321 H 224.586 -3.5408 -1.20429 0
M  V30 2322 H 226.878 -5.91005 -3.31239 0
M  V30 2323 H 227.821 -6.77544 -2.05767 0
M  V30 2324 H 228.229 -5.08095 -2.45967 0
M  V30 2325 N 227.627 0.131896 -1.57047 0
M  V30 2326 C 228.852 0.860418 -1.8871 0
M  V30 2327 C 229.277 1.73251 -0.73251 0
M  V30 2328 O 228.635 1.785 0.317429 0
M  V30 2329 C 228.683 1.68047 -3.19049 0
M  V30 2330 O 227.787 2.7862 -3.04047 0
M  V30 2331 H 227.128 0.238743 -0.619595 0
M  V30 2332 H 229.658 0.118169 -2.04258 0
M  V30 2333 H 229.668 2.07238 -3.51449 0
M  V30 2334 H 228.343 1.04018 -4.02682 0
M  V30 2335 H 226.92 2.42726 -2.83088 0
M  V30 2336 N 229.106 1.52395 0.401703 0
M  V30 2337 C 230.517 1.58899 0.980202 0
M  V30 2338 C 230.868 0.434032 1.91339 0
M  V30 2339 O 229.993 -0.444619 2.11783 0
M  V30 2340 C 230.588 2.87994 1.78451 0
M  V30 2341 C 229.147 2.96953 2.31292 0
M  V30 2342 C 228.294 2.53903 1.11483 0
M  V30 2343 H 231.245 1.57657 0.18168 0
M  V30 2344 H 231.266 2.73765 2.64259 0
M  V30 2345 H 230.778 3.72035 1.10506 0
M  V30 2346 H 228.879 2.17422 3.02586 0
M  V30 2347 H 228.992 4.01344 2.61649 0
M  V30 2348 H 227.356 2.07925 1.47104 0
M  V30 2349 H 228.139 3.40326 0.450928 0
M  V30 2350 N 230.584 -0.659388 1.43143 0
M  V30 2351 C 231.833 -1.41518 1.43721 0
M  V30 2352 C 232.146 -1.95499 0.0628176 0
M  V30 2353 O 233.352 -2.71446 -0.0539683 0
M  V30 2354 C 231.808 -2.5608 2.52885 0
M  V30 2355 C 231.416 -2.08733 3.96402 0
M  V30 2356 C 233.16 -3.3349 2.62649 0
M  V30 2357 C 231.067 -3.20469 4.97045 0
M  V30 2358 H 229.997 -0.531705 0.534608 0
M  V30 2359 H 232.648 -0.712343 1.69109 0
M  V30 2360 H 231.03 -3.28805 2.20688 0
M  V30 2361 H 232.204 -1.43059 4.3803 0
M  V30 2362 H 230.519 -1.44219 3.90627 0
M  V30 2363 H 233.116 -4.16734 3.35017 0
M  V30 2364 H 233.459 -3.8111 1.67513 0
M  V30 2365 H 233.992 -2.67842 2.94118 0
M  V30 2366 H 230.731 -2.77824 5.93712 0
M  V30 2367 H 230.251 -3.84874 4.60034 0
M  V30 2368 H 231.93 -3.85698 5.19467 0
M  V30 2369 N 232.062 -1.29571 -0.897171 0
M  V30 2370 C 233.292 -1.20408 -1.67886 0
M  V30 2371 C 233.7 0.237429 -1.87704 0
M  V30 2372 O 233.043 1.17048 -1.41582 0
M  V30 2373 C 233.105 -1.84887 -3.08314 0
M  V30 2374 C 232.769 -3.34189 -3.11716 0
M  V30 2375 C 233.766 -4.30374 -2.91675 0
M  V30 2376 C 231.451 -3.75431 -3.33701 0
M  V30 2377 C 233.445 -5.65776 -2.93557 0
M  V30 2378 C 231.132 -5.10955 -3.35214 0
M  V30 2379 C 232.13 -6.05938 -3.15164 0
M  V30 2380 O 231.818 -7.38987 -3.1647 0
M  V30 2381 H 231.55 -0.418289 -0.531046 0
M  V30 2382 H 234.104 -1.71514 -1.13014 0
M  V30 2383 H 232.334 -1.28295 -3.64798 0
M  V30 2384 H 234.023 -1.70011 -3.6858 0
M  V30 2385 H 234.789 -3.99844 -2.74499 0
M  V30 2386 H 230.668 -3.01953 -3.48347 0
M  V30 2387 H 234.212 -6.39889 -2.77826 0
M  V30 2388 H 230.109 -5.4113 -3.51922 0
M  V30 2389 H 230.877 -7.47823 -3.3272 0
M  V30 2390 N 233.54 1.10788 -1.12088 0
M  V30 2391 C 234.768 1.86461 -0.896651 0
M  V30 2392 C 235.183 1.80492 0.553912 0
M  V30 2393 O 234.54 1.19102 1.38278 0
M  V30 2394 C 234.591 3.35006 -1.35843 0
M  V30 2395 O 234.312 3.40866 -2.75213 0
M  V30 2396 C 235.813 4.27565 -1.1706 0
M  V30 2397 H 233.033 0.589425 -0.320654 0
M  V30 2398 H 235.577 1.40076 -1.48993 0
M  V30 2399 H 233.732 3.7887 -0.808458 0
M  V30 2400 H 234.146 4.33411 -2.9539 0
M  V30 2401 H 235.62 5.30007 -1.54263 0
M  V30 2402 H 236.097 4.3906 -0.110814 0
M  V30 2403 H 236.703 3.89501 -1.70789 0
M  V30 2404 N 235.018 0.912232 1.28515 0
M  V30 2405 C 236.267 0.540504 1.94323 0
M  V30 2406 C 236.58 -0.920044 1.72611 0
M  V30 2407 O 237.786 -1.39986 2.32629 0
M  V30 2408 C 236.242 0.915803 3.48053 0
M  V30 2409 C 235.85 2.39598 3.78546 0
M  V30 2410 C 237.594 0.614588 4.20027 0
M  V30 2411 C 235.501 2.71148 5.25578 0
M  V30 2412 H 234.431 0.198418 0.727424 0
M  V30 2413 H 237.082 1.11094 1.46049 0
M  V30 2414 H 235.464 0.274168 3.9505 0
M  V30 2415 H 236.638 3.08422 3.42364 0
M  V30 2416 H 234.953 2.66749 3.1974 0
M  V30 2417 H 237.55 0.827002 5.28266 0
M  V30 2418 H 237.893 -0.447531 4.13887 0
M  V30 2419 H 238.426 1.21462 3.78803 0
M  V30 2420 H 235.165 3.76207 5.36794 0
M  V30 2421 H 234.685 2.0696 5.62963 0
M  V30 2422 H 236.364 2.58072 5.93302 0
M  V30 2423 N 236.496 -1.42363 0.676048 0
M  V30 2424 C 237.406 -2.346 -0.00153389 0
M  V30 2425 C 238.422 -1.5516 -0.787485 0
M  V30 2426 O 239.598 -1.87723 -0.729521 0
M  V30 2427 C 236.663 -3.33705 -0.940298 0
M  V30 2428 C 235.724 -4.29042 -0.148739 0
M  V30 2429 C 234.957 -5.23413 -1.04279 0
M  V30 2430 O 235.18 -5.22749 -2.28232 0
M  V30 2431 O 234.114 -5.99795 -0.502925 0
M  V30 2432 H 237.94 -2.94082 0.758268 0
M  V30 2433 H 235.525 -1.42888 0.436289 0
M  V30 2434 H 237.407 -3.94586 -1.47917 0
M  V30 2435 H 236.082 -2.76695 -1.67993 0
M  V30 2436 H 234.989 -3.71571 0.43427 0
M  V30 2437 H 236.322 -4.89097 0.551805 0
M  V30 2438 N 237.974 -0.419461 -1.51915 0
M  V30 2439 C 238.907 0.445751 -2.23804 0
M  V30 2440 C 239.885 1.03951 -1.25031 0
M  V30 2441 O 241.069 1.08541 -1.54114 0
M  V30 2442 C 238.196 1.61964 -2.97465 0
M  V30 2443 C 237.242 1.14828 -4.10751 0
M  V30 2444 S 238.075 0.104938 -5.35397 0
M  V30 2445 C 239.231 1.28391 -6.1259 0
M  V30 2446 H 239.464 -0.164627 -2.96844 0
M  V30 2447 H 236.997 -0.203833 -1.53049 0
M  V30 2448 H 238.955 2.29271 -3.40507 0
M  V30 2449 H 237.616 2.20139 -2.24048 0
M  V30 2450 H 236.809 2.02561 -4.61503 0
M  V30 2451 H 236.411 0.553712 -3.69878 0
M  V30 2452 H 238.703 2.20563 -6.40592 0
M  V30 2453 H 239.646 0.816724 -7.03374 0
M  V30 2454 H 240.054 1.51439 -5.43807 0
M  V30 2455 N 239.452 1.56882 -0.150215 0
M  V30 2456 C 240.7 1.9584 0.499105 0
M  V30 2457 C 241.021 1.03623 1.65188 0
M  V30 2458 O 240.291 0.0984084 1.95653 0
M  V30 2459 H 238.871 0.723119 0.187373 0
M  V30 2460 H 241.533 1.9358 -0.226466 0
M  V30 2461 H 240.629 2.99638 0.873122 0
M  V30 2462 N 240.93 -0.123565 1.57115 0
M  V30 2463 C 242.207 -0.862196 1.75572 0
M  V30 2464 C 242.587 -1.98279 0.724475 0
M  V30 2465 O 241.935 -2.27102 -0.252407 0
M  V30 2466 C 242.145 -1.38309 3.20424 0
M  V30 2467 C 243.493 -1.83724 3.82793 0
M  V30 2468 O 244.517 -1.47999 3.23998 0
M  V30 2469 O 243.376 -2.49685 4.86127 0
M  V30 2470 H 240.47 -0.409113 0.718718 0
M  V30 2471 H 243.016 -0.107661 1.69358 0
M  V30 2472 H 241.788 -0.578889 3.86994 0
M  V30 2473 H 241.411 -2.20046 3.31158 0
M  V30 2474 N 242.408 -1.52605 -0.393616 0
M  V30 2475 C 243.318 -1.79971 -1.50492 0
M  V30 2476 C 244.334 -0.686181 -1.59899 0
M  V30 2477 O 245.51 -0.973274 -1.76322 0
M  V30 2478 C 242.575 -1.95867 -2.86072 0
M  V30 2479 C 241.636 -3.19781 -2.86424 0
M  V30 2480 C 240.869 -3.34909 -4.15538 0
M  V30 2481 O 241.092 -2.54948 -5.10253 0
M  V30 2482 O 240.026 -4.28141 -4.23059 0
M  V30 2483 H 243.852 -2.74328 -1.30299 0
M  V30 2484 H 241.437 -1.3764 -0.581005 0
M  V30 2485 H 243.319 -2.08056 -3.66457 0
M  V30 2486 H 241.994 -1.04699 -3.063 0
M  V30 2487 H 240.901 -3.13038 -2.04837 0
M  V30 2488 H 242.234 -4.1078 -2.71147 0
M  V30 2489 N 243.887 0.651787 -1.4349 0
M  V30 2490 C 244.817 1.77621 -1.51569 0
M  V30 2491 C 245.798 1.66022 -0.370253 0
M  V30 2492 O 246.983 1.85095 -0.587658 0
M  V30 2493 C 244.113 3.16056 -1.43966 0
M  V30 2494 C 243.067 3.4242 -2.56774 0
M  V30 2495 C 242.393 4.8067 -2.34223 0
M  V30 2496 C 243.693 3.37023 -3.99015 0
M  V30 2497 H 245.387 1.71117 -2.45681 0
M  V30 2498 H 242.933 0.821825 -1.18246 0
M  V30 2499 H 244.886 3.94472 -1.48221 0
M  V30 2500 H 243.61 3.23293 -0.463586 0
M  V30 2501 H 242.269 2.66375 -2.51873 0
M  V30 2502 H 241.917 4.84585 -1.34856 0
M  V30 2503 H 241.617 4.9927 -3.09844 0
M  V30 2504 H 243.141 5.61342 -2.40265 0
M  V30 2505 H 244.555 4.05374 -4.05395 0
M  V30 2506 H 242.952 3.67159 -4.74673 0
M  V30 2507 H 244.022 2.3518 -4.2405 0
M  V30 2508 N 245.365 1.30045 0.890287 0
M  V30 2509 C 246.295 1.18541 2.01172 0
M  V30 2510 C 247.276 0.0773356 1.69924 0
M  V30 2511 O 248.461 0.25845 1.92473 0
M  V30 2512 C 245.591 0.870941 3.36202 0
M  V30 2513 C 244.545 1.93637 3.81692 0
M  V30 2514 C 243.871 1.475 5.13953 0
M  V30 2515 C 245.171 3.34666 4.00994 0
M  V30 2516 H 246.865 2.12359 2.11054 0
M  V30 2517 H 244.411 1.02238 1.01407 0
M  V30 2518 H 246.364 0.777141 4.14172 0
M  V30 2519 H 245.088 -0.102926 3.26438 0
M  V30 2520 H 243.747 2.01972 3.05946 0
M  V30 2521 H 243.395 0.489551 5.00612 0
M  V30 2522 H 243.095 2.1876 5.4536 0
M  V30 2523 H 244.619 1.39489 5.94454 0
M  V30 2524 H 246.033 3.2912 4.69417 0
M  V30 2525 H 244.43 4.03966 4.43769 0
M  V30 2526 H 245.5 3.76949 3.05021 0
M  V30 2527 N 246.843 -1.10192 1.12674 0
M  V30 2528 C 247.806 -2.14786 0.799979 0
M  V30 2529 C 248.806 -1.59711 -0.18685 0
M  V30 2530 O 249.996 -1.74156 0.0392558 0
M  V30 2531 C 247.128 -3.40374 0.189228 0
M  V30 2532 H 248.321 -2.45203 1.72671 0
M  V30 2533 H 245.874 -1.25597 0.930326 0
M  V30 2534 H 246.609 -3.15577 -0.747107 0
M  V30 2535 H 246.394 -3.81637 0.899766 0
M  V30 2536 H 247.884 -4.17594 -0.0228143 0
M  V30 2537 N 248.321 -0.919034 -1.28029 0
M  V30 2538 C 249.268 -0.410005 -2.27129 0
M  V30 2539 C 250.238 0.518405 -1.57803 0
M  V30 2540 O 251.423 0.439451 -1.8567 0
M  V30 2541 C 248.563 0.339054 -3.4343 0
M  V30 2542 C 247.676 -0.622468 -4.27492 0
M  V30 2543 C 246.811 0.145567 -5.31001 0
M  V30 2544 C 245.85 -0.809226 -6.06727 0
M  V30 2545 N 244.987 -0.0743728 -7.02061 0
M  V30 2546 H 249.827 -1.26011 -2.70047 0
M  V30 2547 H 247.364 -0.632663 -1.328 0
M  V30 2548 H 249.322 0.789586 -4.0966 0
M  V30 2549 H 247.952 1.15346 -3.01488 0
M  V30 2550 H 247.004 -1.19153 -3.61257 0
M  V30 2551 H 248.316 -1.35252 -4.80113 0
M  V30 2552 H 247.47 0.656417 -6.03139 0
M  V30 2553 H 246.209 0.908643 -4.79161 0
M  V30 2554 H 245.214 -1.3314 -5.33436 0
M  V30 2555 H 246.439 -1.57194 -6.60656 0
M  V30 2556 H 244.385 0.670616 -6.52563 0
M  V30 2557 H 244.302 -0.744157 -7.52329 0
M  V30 2558 H 245.57 0.416109 -7.78389 0
M  V30 2559 N 249.799 1.42003 -0.683588 0
M  V30 2560 C 250.729 2.33487 -0.024866 0
M  V30 2561 C 251.71 1.51163 0.779975 0
M  V30 2562 O 252.895 1.79739 0.735362 0
M  V30 2563 C 250.025 3.3487 0.920836 0
M  V30 2564 C 248.979 4.27414 0.223958 0
M  V30 2565 C 248.305 5.19074 1.2832 0
M  V30 2566 C 249.605 5.14445 -0.90242 0
M  V30 2567 H 251.299 2.88819 -0.788921 0
M  V30 2568 H 248.845 1.38873 -0.38083 0
M  V30 2569 H 250.798 3.97787 1.39081 0
M  V30 2570 H 249.522 2.77861 1.71642 0
M  V30 2571 H 248.181 3.65904 -0.225864 0
M  V30 2572 H 247.829 4.58387 2.071 0
M  V30 2573 H 247.529 5.81822 0.821995 0
M  V30 2574 H 249.053 5.84867 1.75392 0
M  V30 2575 H 250.467 5.70998 -0.513272 0
M  V30 2576 H 248.864 5.86072 -1.28997 0
M  V30 2577 H 249.934 4.52322 -1.74737 0
M  V30 2578 N 251.277 0.427512 1.51691 0
M  V30 2579 C 252.24 -0.377132 2.26076 0
M  V30 2580 C 253.24 -0.958089 1.29141 0
M  V30 2581 O 254.43 -0.83408 1.52934 0
M  V30 2582 C 251.562 -1.53262 3.04506 0
M  V30 2583 H 252.755 0.27464 2.9864 0
M  V30 2584 H 250.308 0.180445 1.55255 0
M  V30 2585 H 251.043 -2.22072 2.36335 0
M  V30 2586 H 250.828 -1.12232 3.75694 0
M  V30 2587 H 252.318 -2.10135 3.60878 0
M  V30 2588 N 252.755 -1.56801 0.158532 0
M  V30 2589 C 254.171 -1.5837 -0.197774 0
M  V30 2590 C 254.371 -1.17334 -1.63814 0
M  V30 2591 O 253.427 -0.878988 -2.36707 0
M  V30 2592 C 254.74 -3.00615 0.0714459 0
M  V30 2593 C 256.288 -3.12999 0.00864533 0
M  V30 2594 C 256.763 -4.57313 0.250685 0
M  V30 2595 N 258.254 -4.62777 0.198014 0
M  V30 2596 C 258.989 -5.72271 0.359642 0
M  V30 2597 N 258.485 -6.90371 0.579625 0
M  V30 2598 N 260.278 -5.61318 0.296438 0
M  V30 2599 H 252.429 -1.81765 1.09887 0
M  V30 2600 H 254.692 -0.841849 0.435884 0
M  V30 2601 H 254.398 -3.35068 1.06874 0
M  V30 2602 H 254.272 -3.71683 -0.642757 0
M  V30 2603 H 256.659 -2.7838 -0.979217 0
M  V30 2604 H 256.74 -2.44393 0.755359 0
M  V30 2605 H 256.384 -4.92639 1.2357 0
M  V30 2606 H 256.314 -5.24061 -0.516489 0
M  V30 2607 H 258.805 -3.77885 0.0331115 0
M  V30 2608 H 259.118 -7.69689 0.69275 0
M  V30 2609 H 257.463 -6.92264 0.616087 0
M  V30 2610 H 260.654 -4.67932 0.125258 0
M  V30 2611 H 260.827 -6.46599 0.425831 0
M  V30 2612 N 254.233 0.115231 -1.57178 0
M  V30 2613 C 255.51 0.852873 -1.76027 0
M  V30 2614 C 255.89 1.97892 -0.73498 0
M  V30 2615 O 255.238 2.27232 0.24036 0
M  V30 2616 C 255.448 1.36608 -3.21153 0
M  V30 2617 C 256.796 1.81692 -3.83762 0
M  V30 2618 O 257.82 1.46278 -3.24779 0
M  V30 2619 O 256.679 2.47104 -4.87444 0
M  V30 2620 H 253.773 0.405296 -0.720877 0
M  V30 2621 H 256.319 0.0986785 -1.69413 0
M  V30 2622 H 255.091 0.558357 -3.87296 0
M  V30 2623 H 254.714 2.18287 -3.3232 0
M  V30 2624 N 255.711 1.52812 0.385517 0
M  V30 2625 C 256.674 1.77188 1.45386 0
M  V30 2626 C 257.674 0.641953 1.4743 0
M  V30 2627 O 258.864 0.910033 1.4854 0
M  V30 2628 C 255.996 1.87582 2.8465 0
M  V30 2629 H 257.189 2.72583 1.25054 0
M  V30 2630 H 254.742 1.43586 0.617467 0
M  V30 2631 H 255.477 0.941849 3.10322 0
M  V30 2632 H 255.262 2.69748 2.84567 0
M  V30 2633 H 256.752 2.08102 3.62054 0
M  V30 2634 N 257.189 -0.644168 1.43834 0
M  V30 2635 C 258.417 -1.43147 1.49387 0
M  V30 2636 C 258.832 -1.88452 0.114583 0
M  V30 2637 O 258.189 -1.60047 -0.876989 0
M  V30 2638 C 258.24 -2.66046 2.44748 0
M  V30 2639 O 257.961 -2.22633 3.77314 0
M  V30 2640 C 259.462 -3.59311 2.59635 0
M  V30 2641 H 256.682 -0.439447 0.507077 0
M  V30 2642 H 259.226 -0.78895 1.88669 0
M  V30 2643 H 257.381 -3.26418 2.08638 0
M  V30 2644 H 257.795 -3.02216 4.28679 0
M  V30 2645 H 259.269 -4.42187 3.30416 0
M  V30 2646 H 259.746 -4.07259 1.64427 0
M  V30 2647 H 260.352 -3.04816 2.96593 0
M  V30 2648 N 258.668 -1.30515 -0.883378 0
M  V30 2649 C 259.915 -1.1943 -1.63532 0
M  V30 2650 C 260.243 0.250627 -1.92878 0
M  V30 2651 O 259.498 1.19556 -1.54935 0
M  V30 2652 C 259.797 -1.96994 -2.98209 0
M  V30 2653 C 259.463 -3.466 -2.88408 0
M  V30 2654 C 258.125 -3.87397 -2.85442 0
M  V30 2655 C 260.477 -4.41863 -2.76418 0
M  V30 2656 C 257.805 -5.21745 -2.68327 0
M  V30 2657 C 260.157 -5.7632 -2.60841 0
M  V30 2658 C 258.821 -6.16354 -2.56251 0
M  V30 2659 H 258.091 -0.437025 -0.598406 0
M  V30 2660 H 260.738 -1.61635 -1.02696 0
M  V30 2661 H 259.043 -1.47429 -3.63004 0
M  V30 2662 H 260.74 -1.85808 -3.55354 0
M  V30 2663 H 257.33 -3.14182 -2.91527 0
M  V30 2664 H 261.514 -4.11285 -2.77775 0
M  V30 2665 H 256.77 -5.51853 -2.63189 0
M  V30 2666 H 260.944 -6.49772 -2.50538 0
M  V30 2667 H 258.571 -7.20401 -2.42748 0
M  V30 2668 N 260.146 1.09593 -1.13257 0
M  V30 2669 C 261.393 1.81734 -0.893257 0
M  V30 2670 C 261.721 1.8563 0.580656 0
M  V30 2671 O 260.976 1.31906 1.44566 0
M  V30 2672 C 261.275 3.27802 -1.42411 0
M  V30 2673 C 260.941 3.44041 -2.91456 0
M  V30 2674 C 259.603 3.48181 -3.3215 0
M  V30 2675 C 261.955 3.48719 -3.87356 0
M  V30 2676 C 259.283 3.54575 -4.67433 0
M  V30 2677 C 261.635 3.56648 -5.2248 0
M  V30 2678 C 260.299 3.59055 -5.62704 0
M  V30 2679 H 259.569 0.665011 -0.326866 0
M  V30 2680 H 262.216 1.2912 -1.41422 0
M  V30 2681 H 260.521 3.83042 -0.823795 0
M  V30 2682 H 262.218 3.82149 -1.21503 0
M  V30 2683 H 258.808 3.41502 -2.58987 0
M  V30 2684 H 262.992 3.44763 -3.57004 0
M  V30 2685 H 258.248 3.54725 -4.97976 0
M  V30 2686 H 262.422 3.59212 -5.96607 0
M  V30 2687 H 260.049 3.63763 -6.67518 0
M  V30 2688 N 261.624 0.925811 1.2754 0
M  V30 2689 C 262.87 0.566092 1.94739 0
M  V30 2690 C 263.203 -0.890057 1.72603 0
M  V30 2691 O 262.478 -1.63467 1.05399 0
M  V30 2692 C 262.761 0.89054 3.48915 0
M  V30 2693 C 262.614 2.4003 3.80402 0
M  V30 2694 C 263.933 0.395101 4.38323 0
M  V30 2695 H 261.052 0.20714 0.707292 0
M  V30 2696 H 263.694 1.15725 1.50691 0
M  V30 2697 H 261.844 0.387452 3.86563 0
M  V30 2698 H 263.516 2.97494 3.52555 0
M  V30 2699 H 261.759 2.85028 3.2702 0
M  V30 2700 H 262.43 2.57785 4.8811 0
M  V30 2701 H 264.906 0.826241 4.07814 0
M  V30 2702 H 263.782 0.651086 5.45025 0
M  V30 2703 H 264.043 -0.704798 4.36446 0
M  V30 2704 N 263.102 -1.41638 0.69111 0
M  V30 2705 C 264.518 -1.55435 0.362224 0
M  V30 2706 C 264.718 -1.66754 -1.13117 0
M  V30 2707 O 263.774 -1.64348 -1.91692 0
M  V30 2708 C 265.087 -2.79588 1.10684 0
M  V30 2709 C 266.635 -2.9338 1.09075 0
M  V30 2710 C 267.11 -4.20414 1.81703 0
M  V30 2711 N 268.601 -4.27362 1.7865 0
M  V30 2712 C 269.336 -5.24507 2.31689 0
M  V30 2713 N 268.832 -6.27708 2.93179 0
M  V30 2714 N 270.625 -5.16416 2.2197 0
M  V30 2715 H 262.776 -1.32536 1.65976 0
M  V30 2716 H 265.039 -0.639115 0.700168 0
M  V30 2717 H 264.745 -2.77419 2.16175 0
M  V30 2718 H 264.619 -3.70973 0.682545 0
M  V30 2719 H 267.006 -2.95067 0.0441238 0
M  V30 2720 H 267.087 -2.0318 1.55407 0
M  V30 2721 H 266.731 -4.19488 2.86343 0
M  V30 2722 H 266.661 -5.09578 1.32808 0
M  V30 2723 H 269.152 -3.53415 1.33815 0
M  V30 2724 H 269.465 -6.98217 3.31229 0
M  V30 2725 H 267.81 -6.28223 2.97255 0
M  V30 2726 H 271.001 -4.34716 1.73607 0
M  V30 2727 H 271.174 -5.91958 2.63609 0
M  V30 2728 N 264.58 -0.43555 -1.51462 0
M  V30 2729 C 265.543 0.365137 -2.26273 0
M  V30 2730 C 266.543 0.951227 -1.29647 0
M  V30 2731 O 267.733 0.825958 -1.53374 0
M  V30 2732 C 264.865 1.51645 -3.05314 0
M  V30 2733 H 266.058 -0.290474 -2.9849 0
M  V30 2734 H 263.611 -0.188676 -1.55157 0
M  V30 2735 H 264.346 2.20816 -2.3751 0
M  V30 2736 H 264.131 1.10238 -3.76284 0
M  V30 2737 H 265.621 2.08218 -3.61987 0
M  V30 2738 N 266.058 1.56714 -0.166846 0
M  V30 2739 C 267.008 2.14338 0.777382 0
M  V30 2740 C 267.992 1.07642 1.19591 0
M  V30 2741 O 269.184 1.33775 1.15902 0
M  V30 2742 C 266.313 2.78417 2.00846 0
M  V30 2743 C 265.399 3.92264 1.61212 0
M  V30 2744 N 265.79 4.97268 0.925104 0
M  V30 2745 C 264.088 4.03342 1.90346 0
M  V30 2746 C 264.789 5.77093 0.730627 0
M  V30 2747 N 263.765 5.2854 1.27067 0
M  V30 2748 H 267.567 2.9289 0.243466 0
M  V30 2749 H 265.081 1.62364 0.0339954 0
M  V30 2750 H 267.078 3.18073 2.69509 0
M  V30 2751 H 265.738 2.01344 2.54736 0
M  V30 2752 H 266.749 5.14601 0.583646 0
M  V30 2753 H 263.426 3.37368 2.45946 0
M  V30 2754 H 264.816 6.71638 0.187668 0
M  V30 2755 N 267.536 -0.106894 1.57237 0
M  V30 2756 C 268.446 -1.14911 2.0453 0
M  V30 2757 C 269.462 -1.44592 0.96795 0
M  V30 2758 O 270.638 -1.55468 1.2803 0
M  V30 2759 C 267.703 -2.45272 2.45036 0
M  V30 2760 C 266.764 -2.22879 3.66911 0
M  V30 2761 C 265.997 -3.47024 4.05475 0
M  V30 2762 O 266.22 -4.54804 3.44252 0
M  V30 2763 O 265.154 -3.3731 4.98504 0
M  V30 2764 H 268.98 -0.777461 2.9358 0
M  V30 2765 H 266.565 -0.318563 1.45964 0
M  V30 2766 H 268.447 -3.22055 2.71769 0
M  V30 2767 H 267.122 -2.81886 1.59129 0
M  V30 2768 H 266.029 -1.43915 3.45311 0
M  V30 2769 H 267.362 -1.91163 4.53561 0
M  V30 2770 N 269.014 -1.53014 -0.377408 0
M  V30 2771 C 270.239 -1.72818 -1.14668 0
M  V30 2772 C 270.664 -0.450725 -1.8262 0
M  V30 2773 O 270.022 0.59439 -1.7128 0
M  V30 2774 C 270.07 -2.88627 -2.16164 0
M  V30 2775 O 269.174 -2.56409 -3.22998 0
M  V30 2776 H 268.515 -0.574301 -0.333278 0
M  V30 2777 H 271.045 -1.99853 -0.438152 0
M  V30 2778 H 271.055 -3.14455 -2.59966 0
M  V30 2779 H 269.73 -3.81294 -1.66095 0
M  V30 2780 H 268.307 -2.4136 -2.84253 0
M  V30 2781 N 270.492 0.636531 -1.44174 0
M  V30 2782 C 271.44 1.76995 -1.50915 0
M  V30 2783 C 272.434 1.65053 -0.381295 0
M  V30 2784 O 273.64 1.71197 -0.55601 0
M  V30 2785 H 270.015 0.584247 -0.473455 0
M  V30 2786 H 271.986 1.68432 -2.4632 0
M  V30 2787 C 270.735 3.15314 -1.46534 0
M  V30 2788 H 270.058 3.25149 -2.32633 0
M  V30 2789 H 271.498 3.9453 -1.55312 0
M  V30 2790 C 269.957 3.3639 -0.185305 0
M  V30 2791 O 270.487 3.94699 0.746688 0
M  V30 2792 N 268.693 2.9046 -0.0901606 0
M  V30 2793 H 268.24 2.43193 -0.849416 0
M  V30 2794 H 268.198 3.04937 0.765553 0
M  V30 2795 N 271.97 1.30982 0.876444 0
M  V30 2796 C 272.88 1.2003 2.01569 0
M  V30 2797 C 273.896 0.11838 1.73597 0
M  V30 2798 O 275.072 0.33495 1.98595 0
M  V30 2799 C 272.137 0.901637 3.34771 0
M  V30 2800 C 271.198 2.06979 3.76109 0
M  V30 2801 C 270.431 1.78529 5.02954 0
M  V30 2802 O 270.654 0.717296 5.65872 0
M  V30 2803 O 269.588 2.64019 5.40905 0
M  V30 2804 H 273.414 2.15753 2.13739 0
M  V30 2805 H 270.999 1.10658 1.00375 0
M  V30 2806 H 272.881 0.750645 4.1466 0
M  V30 2807 H 271.556 -0.0256141 3.2369 0
M  V30 2808 H 270.463 2.27616 2.96887 0
M  V30 2809 H 271.796 2.97907 3.91807 0
M  V30 2810 N 273.449 -1.08991 1.13837 0
M  V30 2811 C 274.382 -2.15049 0.763477 0
M  V30 2812 C 275.36 -1.60629 -0.252398 0
M  V30 2813 O 276.544 -1.87958 -0.142853 0
M  V30 2814 C 273.671 -3.38441 0.132545 0
M  V30 2815 C 272.717 -4.11596 1.11763 0
M  V30 2816 S 273.55 -4.6521 2.65216 0
M  V30 2817 C 274.706 -5.91896 2.03495 0
M  V30 2818 H 274.939 -2.46518 1.66182 0
M  V30 2819 H 272.472 -1.21008 0.958976 0
M  V30 2820 H 274.43 -4.09883 -0.225074 0
M  V30 2821 H 273.091 -3.05182 -0.743135 0
M  V30 2822 H 272.284 -5.00121 0.624076 0
M  V30 2823 H 271.886 -3.46038 1.41894 0
M  V30 2824 H 274.178 -6.63156 1.38675 0
M  V30 2825 H 275.121 -6.45938 2.9012 0
M  V30 2826 H 275.529 -5.44625 1.48471 0
M  V30 2827 N 274.927 -0.932562 -1.27047 0
M  V30 2828 C 275.859 -0.392734 -2.2581 0
M  V30 2829 C 276.872 0.479241 -1.55586 0
M  V30 2830 O 278.061 0.291078 -1.76111 0
M  V30 2831 C 275.161 0.455456 -3.35826 0
M  V30 2832 C 274.334 -0.398355 -4.35582 0
M  V30 2833 C 273.393 0.387985 -5.24768 0
M  V30 2834 O 272.419 -0.206003 -5.68827 0
M  V30 2835 N 273.621 1.68664 -5.55457 0
M  V30 2836 H 276.386 -1.24173 -2.72766 0
M  V30 2837 H 273.947 -0.800511 -1.40725 0
M  V30 2838 H 275.939 0.988692 -3.92437 0
M  V30 2839 H 274.509 1.20522 -2.88432 0
M  V30 2840 H 273.729 -1.11286 -3.78165 0
M  V30 2841 H 275.017 -0.981889 -4.99236 0
M  V30 2842 H 274.415 2.19147 -5.21528 0
M  V30 2843 H 272.972 2.1663 -6.14748 0
M  V30 2844 N 276.405 1.4127 -0.698611 0
M  V30 2845 C 277.816 1.84187 -0.305289 0
M  V30 2846 C 278.167 1.58449 1.15708 0
M  V30 2847 O 277.292 1.05651 1.88856 0
M  V30 2848 C 277.887 3.3435 -0.547314 0
M  V30 2849 C 276.446 3.75826 -0.207878 0
M  V30 2850 C 275.593 2.64647 -0.828099 0
M  V30 2851 H 278.544 1.30778 -0.89904 0
M  V30 2852 H 278.565 3.8001 0.192998 0
M  V30 2853 H 278.077 3.53051 -1.61172 0
M  V30 2854 H 276.178 3.62725 0.852143 0
M  V30 2855 H 276.291 4.74462 -0.665021 0
M  V30 2856 H 274.655 2.53395 -0.257458 0
M  V30 2857 H 275.438 2.86165 -1.89643 0
M  V30 2858 N 277.883 0.443576 1.51229 0
M  V30 2859 C 279.111 -0.11929 2.06556 0
M  V30 2860 C 279.526 -1.35921 1.31038 0
M  V30 2861 O 278.883 -1.78675 0.371704 0
M  V30 2862 C 278.934 -0.435228 3.5887 0
M  V30 2863 O 278.655 0.755486 4.31537 0
M  V30 2864 C 280.156 -1.04808 4.30732 0
M  V30 2865 H 277.376 -0.0051584 0.67098 0
M  V30 2866 H 279.92 0.624453 1.94733 0
M  V30 2867 H 278.075 -1.12887 3.70588 0
M  V30 2868 H 278.489 0.483491 5.22267 0
M  V30 2869 H 279.963 -1.2191 5.3837 0
M  V30 2870 H 280.44 -2.03081 3.89429 0
M  V30 2871 H 281.046 -0.393637 4.23474 0
M  V30 2872 N 279.361 -1.56624 0.175154 0
M  V30 2873 C 280.291 -2.21155 -0.749195 0
M  V30 2874 C 281.272 -1.16836 -1.23626 0
M  V30 2875 O 282.457 -1.45277 -1.28873 0
M  V30 2876 C 279.587 -2.8553 -1.97711 0
M  V30 2877 C 278.541 -3.95921 -1.62575 0
M  V30 2878 C 277.867 -4.47365 -2.92864 0
M  V30 2879 C 279.167 -5.15323 -0.850838 0
M  V30 2880 H 280.861 -2.98653 -0.211295 0
M  V30 2881 H 278.407 -1.43651 -0.100188 0
M  V30 2882 H 280.36 -3.2935 -2.62881 0
M  V30 2883 H 279.084 -2.05406 -2.53921 0
M  V30 2884 H 277.743 -3.52762 -0.997719 0
M  V30 2885 H 277.391 -3.64027 -3.47122 0
M  V30 2886 H 277.091 -5.21839 -2.70106 0
M  V30 2887 H 278.615 -4.93873 -3.59056 0
M  V30 2888 H 280.029 -5.55812 -1.40521 0
M  V30 2889 H 278.426 -5.95739 -0.722154 0
M  V30 2890 H 279.496 -4.84661 0.152082 0
M  V30 2891 N 280.839 0.0985539 -1.57292 0
M  V30 2892 C 281.802 1.10402 -2.00858 0
M  V30 2893 C 282.802 1.33146 -0.901593 0
M  V30 2894 O 283.992 1.29318 -1.16716 0
M  V30 2895 C 281.124 2.45394 -2.36632 0
M  V30 2896 H 282.317 0.729099 -2.90902 0
M  V30 2897 H 279.87 0.343495 -1.52479 0
M  V30 2898 H 280.605 2.87769 -1.49531 0
M  V30 2899 H 280.39 2.30235 -3.17387 0
M  V30 2900 H 281.88 3.17718 -2.71007 0
M  V30 2901 N 282.317 1.53212 0.369288 0
M  V30 2902 C 283.566 1.68436 1.10961 0
M  V30 2903 C 283.879 0.440738 1.9057 0
M  V30 2904 O 285.085 0.473446 2.6734 0
M  V30 2905 C 283.541 2.97744 2.0218 0
M  V30 2906 C 283.149 4.29355 1.279 0
M  V30 2907 C 284.893 3.22334 2.76226 0
M  V30 2908 C 282.8 5.49755 2.17999 0
M  V30 2909 H 281.73 0.627568 0.41794 0
M  V30 2910 H 284.381 1.79713 0.370884 0
M  V30 2911 H 282.763 2.8026 2.79768 0
M  V30 2912 H 283.937 4.57458 0.554007 0
M  V30 2913 H 282.252 4.11179 0.657311 0
M  V30 2914 H 284.849 4.09471 3.43857 0
M  V30 2915 H 285.192 2.38238 3.41392 0
M  V30 2916 H 285.725 3.40475 2.05723 0
M  V30 2917 H 282.464 6.36318 1.57417 0
M  V30 2918 H 281.984 5.25937 2.88359 0
M  V30 2919 H 283.663 5.84401 2.77641 0
M  V30 2920 N 283.795 -0.628877 1.44509 0
M  V30 2921 C 285.02 -1.42048 1.5112 0
M  V30 2922 C 285.445 -1.87594 0.137818 0
M  V30 2923 O 284.803 -1.58873 -0.873437 0
M  V30 2924 C 284.851 -2.61541 2.48251 0
M  V30 2925 O 283.955 -3.61453 1.98559 0
M  V30 2926 H 283.296 -0.424942 0.510216 0
M  V30 2927 H 285.826 -0.767374 1.89664 0
M  V30 2928 H 285.836 -3.09057 2.66361 0
M  V30 2929 H 284.511 -2.27736 3.48007 0
M  V30 2930 H 283.088 -3.20731 1.90227 0
M  V30 2931 N 285.273 -1.31445 -0.869486 0
M  V30 2932 C 286.223 -1.15731 -1.96444 0
M  V30 2933 C 287.207 -0.0681855 -1.60755 0
M  V30 2934 O 288.399 -0.293154 -1.74555 0
M  V30 2935 C 285.528 -0.867255 -3.32165 0
M  V30 2936 C 284.614 -1.99738 -3.74119 0
M  V30 2937 N 285.005 -3.24447 -3.88031 0
M  V30 2938 C 283.303 -1.89723 -4.03635 0
M  V30 2939 C 284.004 -3.98374 -4.23879 0
M  V30 2940 N 282.98 -3.26547 -4.3459 0
M  V30 2941 H 286.782 -2.10296 -2.05312 0
M  V30 2942 H 284.296 -1.23009 -1.06031 0
M  V30 2943 H 286.293 -0.735668 -4.10358 0
M  V30 2944 H 284.953 0.0701614 -3.24624 0
M  V30 2945 H 285.964 -3.59557 -3.72746 0
M  V30 2946 H 282.641 -1.03449 -4.04481 0
M  V30 2947 H 284.031 -5.05844 -4.42235 0
M  V30 2948 N 286.751 1.08385 -1.14413 0
M  V30 2949 C 287.714 2.13486 -0.834048 0
M  V30 2950 C 288.714 1.59988 0.161418 0
M  V30 2951 O 289.904 1.74071 -0.0669575 0
M  V30 2952 C 287.036 3.4003 -0.243354 0
M  V30 2953 H 288.229 2.42425 -1.7655 0
M  V30 2954 H 285.782 1.24101 -0.950189 0
M  V30 2955 H 286.517 3.16726 0.696807 0
M  V30 2956 H 286.302 3.80157 -0.960367 0
M  V30 2957 H 287.792 4.17577 -0.0436242 0
M  V30 2958 N 288.23 0.939286 1.26551 0
M  V30 2959 C 289.478 0.58469 1.93457 0
M  V30 2960 C 289.799 -0.878774 1.74076 0
M  V30 2961 O 289.069 -1.62421 1.09528 0
M  V30 2962 H 287.649 0.21325 0.715914 0
M  V30 2963 H 290.311 1.1942 1.54029 0
M  V30 2964 H 289.407 0.800849 3.0165 0
M  V30 2965 N 289.708 -1.40897 0.706093 0
M  V30 2966 C 290.954 -2.01352 0.241889 0
M  V30 2967 C 291.287 -1.55832 -1.15888 0
M  V30 2968 O 290.562 -0.774145 -1.7843 0
M  V30 2969 C 290.845 -3.58752 0.311311 0
M  V30 2970 C 290.698 -4.1437 1.74978 0
M  V30 2971 C 292.017 -4.38914 -0.322922 0
M  V30 2972 H 289.136 -0.731562 0.0893687 0
M  V30 2973 H 291.778 -1.67504 0.896802 0
M  V30 2974 H 289.928 -3.87718 -0.246302 0
M  V30 2975 H 291.6 -3.96239 2.36205 0
M  V30 2976 H 289.843 -3.69016 2.28057 0
M  V30 2977 H 290.514 -5.23532 1.74981 0
M  V30 2978 H 292.99 -4.15822 0.152089 0
M  V30 2979 H 291.866 -5.48358 -0.243855 0
M  V30 2980 H 292.127 -4.19176 -1.40513 0
M  V30 2981 N 291.186 -0.45159 -1.50991 0
M  V30 2982 C 292.411 0.110667 -2.07105 0
M  V30 2983 C 292.836 1.3446 -1.31538 0
M  V30 2984 O 292.194 1.77743 -0.357365 0
M  V30 2985 C 292.242 0.397238 -3.58405 0
M  V30 2986 O 291.346 1.48124 -3.84881 0
M  V30 2987 H 290.687 -0.00439271 -0.663985 0
M  V30 2988 H 293.217 -0.637026 -1.9443 0
M  V30 2989 H 293.227 0.64351 -4.02893 0
M  V30 2990 H 291.902 -0.504553 -4.12828 0
M  V30 2991 H 290.479 1.22381 -3.52246 0
M  V30 2992 N 292.664 1.56529 -0.183458 0
M  V30 2993 C 293.91 1.97537 0.459036 0
M  V30 2994 C 294.243 1.06989 1.62071 0
M  V30 2995 O 293.518 0.11948 1.94133 0
M  V30 2996 C 293.801 3.47874 0.930368 0
M  V30 2997 C 293.654 4.492 -0.232317 0
M  V30 2998 C 294.973 4.01612 1.79989 0
M  V30 2999 H 292.092 0.718204 0.165383 0
M  V30 3000 H 294.734 1.88042 -0.272038 0
M  V30 3001 H 292.884 3.56095 1.55333 0
M  V30 3002 H 294.556 4.53027 -0.86972 0
M  V30 3003 H 292.799 4.24657 -0.885928 0
M  V30 3004 H 293.47 5.51823 0.139796 0
M  V30 3005 H 295.946 3.96097 1.27461 0
M  V30 3006 H 294.822 5.07195 2.09867 0
M  V30 3007 H 295.083 3.46163 2.74998 0
M  V30 3008 N 294.142 -0.090211 1.57342 0
M  V30 3009 C 295.388 -0.793982 1.86611 0
M  V30 3010 C 295.721 -1.78142 0.773252 0
M  V30 3011 O 294.996 -1.93271 -0.218304 0
M  V30 3012 C 295.279 -1.51839 3.26523 0
M  V30 3013 C 295.132 -0.548609 4.46442 0
M  V30 3014 C 296.451 -2.46779 3.64401 0
M  V30 3015 H 293.57 -0.287186 0.678744 0
M  V30 3016 H 296.212 -0.0575076 1.89913 0
M  V30 3017 H 294.362 -2.14617 3.23839 0
M  V30 3018 H 296.034 0.0725513 4.61243 0
M  V30 3019 H 294.277 0.137614 4.33582 0
M  V30 3020 H 294.948 -1.09271 5.41076 0
M  V30 3021 H 297.424 -1.94089 3.68061 0
M  V30 3022 H 296.3 -2.94479 4.63221 0
M  V30 3023 H 296.561 -3.30758 2.93346 0
M  V30 3024 N 295.62 -1.53406 -0.361157 0
M  V30 3025 C 296.553 -1.74946 -1.46524 0
M  V30 3026 C 297.531 -0.59795 -1.51206 0
M  V30 3027 O 298.715 -0.831062 -1.69191 0
M  V30 3028 C 295.842 -1.83224 -2.84863 0
M  V30 3029 C 294.888 -3.05233 -2.97885 0
M  V30 3030 S 295.721 -4.6466 -2.66179 0
M  V30 3031 C 296.877 -4.75793 -4.06659 0
M  V30 3032 H 297.11 -2.68319 -1.28033 0
M  V30 3033 H 294.643 -1.44051 -0.555764 0
M  V30 3034 H 296.601 -1.88679 -3.64569 0
M  V30 3035 H 295.262 -0.908948 -3.00661 0
M  V30 3036 H 294.455 -3.07648 -3.9921 0
M  V30 3037 H 294.057 -2.97913 -2.26106 0
M  V30 3038 H 296.349 -4.5612 -5.0096 0
M  V30 3039 H 297.292 -5.7786 -4.09247 0
M  V30 3040 H 297.7 -4.04389 -3.93865 0
M  V30 3041 N 297.098 0.621204 -1.44841 0
M  V30 3042 C 298.061 1.71459 -1.521 0
M  V30 3043 C 299.061 1.55696 -0.401933 0
M  V30 3044 O 300.251 1.61011 -0.664925 0
M  V30 3045 C 297.383 3.10624 -1.40447 0
M  V30 3046 H 298.576 1.66394 -2.49506 0
M  V30 3047 H 296.129 0.835745 -1.3208 0
M  V30 3048 H 296.864 3.21277 -0.441737 0
M  V30 3049 H 296.649 3.23473 -2.21602 0
M  V30 3050 H 298.139 3.90293 -1.4853 0
M  V30 3051 N 298.576 1.31904 0.862503 0
M  V30 3052 C 299.508 1.16005 1.97675 0
M  V30 3053 C 300.521 0.0971234 1.6251 0
M  V30 3054 O 301.71 0.345337 1.75128 0
M  V30 3055 C 298.81 0.751791 3.30456 0
M  V30 3056 C 297.983 1.90133 3.93914 0
M  V30 3057 C 297.042 1.4779 5.05019 0
M  V30 3058 O 296.068 2.18872 5.25437 0
M  V30 3059 N 297.27 0.369491 5.79323 0
M  V30 3060 H 300.035 2.11982 2.11857 0
M  V30 3061 H 297.596 1.24337 1.03691 0
M  V30 3062 H 299.588 0.451084 4.02178 0
M  V30 3063 H 298.158 -0.116593 3.12382 0
M  V30 3064 H 297.378 2.36896 3.15078 0
M  V30 3065 H 298.666 2.67111 4.33047 0
M  V30 3066 H 298.064 -0.222299 5.65263 0
M  V30 3067 H 296.621 0.128354 6.51674 0
M  V30 3068 N 300.054 -1.07777 1.14986 0
M  V30 3069 C 301.017 -2.13041 0.845358 0
M  V30 3070 C 302.017 -1.60071 -0.152931 0
M  V30 3071 O 303.207 -1.74033 0.0761879 0
M  V30 3072 C 300.339 -3.39896 0.261383 0
M  V30 3073 H 301.532 -2.41485 1.77834 0
M  V30 3074 H 299.085 -1.23595 0.956757 0
M  V30 3075 H 299.82 -3.17091 -0.68 0
M  V30 3076 H 299.605 -3.79642 0.980514 0
M  V30 3077 H 301.095 -4.17548 0.0657687 0
M  V30 3078 N 301.532 -0.945985 -1.26051 0
M  V30 3079 C 302.464 -0.416662 -2.25381 0
M  V30 3080 C 303.477 0.462712 -1.56086 0
M  V30 3081 O 304.666 0.272383 -1.7641 0
M  V30 3082 C 301.766 0.419812 -3.3629 0
M  V30 3083 C 300.939 -0.444531 -4.35135 0
M  V30 3084 C 299.998 0.332305 -5.2515 0
M  V30 3085 O 299.024 -0.266324 -5.68577 0
M  V30 3086 N 300.226 1.62763 -5.57215 0
M  V30 3087 H 302.991 -1.27059 -2.71433 0
M  V30 3088 H 300.552 -0.815392 -1.39868 0
M  V30 3089 H 302.544 0.947013 -3.93464 0
M  V30 3090 H 301.114 1.17456 -2.89694 0
M  V30 3091 H 300.334 -1.15291 -3.76964 0
M  V30 3092 H 301.622 -1.03478 -4.98166 0
M  V30 3093 H 301.02 2.13603 -5.23823 0
M  V30 3094 H 299.577 2.10097 -6.17011 0
M  V30 3095 N 303.011 1.40521 -0.713556 0
M  V30 3096 C 304.422 1.83853 -0.324807 0
M  V30 3097 C 304.773 1.59667 1.14021 0
M  V30 3098 O 303.898 1.07649 1.87725 0
M  V30 3099 C 304.493 3.33751 -0.582746 0
M  V30 3100 C 303.052 3.75584 -0.247727 0
M  V30 3101 C 302.199 2.63753 -0.856121 0
M  V30 3102 H 305.15 1.29817 -0.91286 0
M  V30 3103 H 305.171 3.80194 0.152682 0
M  V30 3104 H 304.683 3.51322 -1.64908 0
M  V30 3105 H 302.784 3.63608 0.813624 0
M  V30 3106 H 302.897 4.7373 -0.715307 0
M  V30 3107 H 301.261 2.53108 -0.28432 0
M  V30 3108 H 302.044 2.84137 -1.92668 0
M  V30 3109 N 304.489 0.459591 1.5075 0
M  V30 3110 C 305.905 0.113092 1.59199 0
M  V30 3111 C 306.105 -1.37951 1.46874 0
M  V30 3112 O 305.161 -2.15168 1.32132 0
M  V30 3113 C 306.474 0.653043 2.93523 0
M  V30 3114 C 308.022 0.615449 3.0689 0
M  V30 3115 C 308.497 1.13275 4.43771 0
M  V30 3116 N 309.988 1.09167 4.50152 0
M  V30 3117 C 310.723 1.46256 5.54434 0
M  V30 3118 N 310.219 1.90739 6.66026 0
M  V30 3119 N 312.012 1.37932 5.44914 0
M  V30 3120 H 304.163 1.43049 1.57005 0
M  V30 3121 H 306.426 0.590861 0.741341 0
M  V30 3122 H 306.132 1.69822 3.07983 0
M  V30 3123 H 306.006 0.0902132 3.77092 0
M  V30 3124 H 308.393 -0.420793 2.92084 0
M  V30 3125 H 308.474 1.21495 2.25106 0
M  V30 3126 H 308.118 2.16757 4.59324 0
M  V30 3127 H 308.048 0.509576 5.24129 0
M  V30 3128 H 310.539 0.76528 3.7007 0
M  V30 3129 H 310.852 2.17218 7.41644 0
M  V30 3130 H 309.197 1.94683 6.67176 0
M  V30 3131 H 312.388 1.0303 4.56621 0
M  V30 3132 H 312.561 1.67164 6.26067 0
M  V30 3133 N 305.967 -1.56429 0.191757 0
M  V30 3134 C 307.383 -1.58754 -0.164137 0
M  V30 3135 C 307.583 -1.20782 -1.61288 0
M  V30 3136 O 306.639 -0.928999 -2.34789 0
M  V30 3137 C 307.952 -3.00396 0.135195 0
M  V30 3138 C 309.5 -3.1291 0.0750351 0
M  V30 3139 C 309.975 -4.56679 0.347632 0
M  V30 3140 N 311.466 -4.62252 0.296131 0
M  V30 3141 C 312.201 -5.71379 0.480948 0
M  V30 3142 N 311.697 -6.88986 0.725933 0
M  V30 3143 N 313.49 -5.60563 0.415435 0
M  V30 3144 H 305.641 -1.79393 1.13718 0
M  V30 3145 H 307.904 -0.832414 0.453643 0
M  V30 3146 H 307.61 -3.32726 1.13958 0
M  V30 3147 H 307.484 -3.72963 -0.563773 0
M  V30 3148 H 309.871 -2.80394 -0.919948 0
M  V30 3149 H 309.952 -2.42736 0.807029 0
M  V30 3150 H 309.596 -4.89907 1.33992 0
M  V30 3151 H 309.526 -5.25039 -0.405212 0
M  V30 3152 H 312.017 -3.7773 0.113259 0
M  V30 3153 H 312.33 -7.68046 0.855857 0
M  V30 3154 H 310.675 -6.90801 0.762788 0
M  V30 3155 H 313.866 -4.67561 0.224486 0
M  V30 3156 H 314.039 -6.45551 0.562889 0
M  V30 3157 N 307.445 0.0818655 -1.57387 0
M  V30 3158 C 308.355 1.11642 -2.06333 0
M  V30 3159 C 309.371 1.43033 -0.99083 0
M  V30 3160 O 310.547 1.53411 -1.30488 0
M  V30 3161 C 307.612 2.41342 -2.48907 0
M  V30 3162 C 306.673 2.17014 -3.7041 0
M  V30 3163 C 305.906 3.4053 -4.10944 0
M  V30 3164 O 306.129 4.4927 -3.51444 0
M  V30 3165 O 305.063 3.29336 -5.03807 0
M  V30 3166 H 308.889 0.730657 -2.9478 0
M  V30 3167 H 306.474 0.295301 -1.46452 0
M  V30 3168 H 308.356 3.17691 -2.76858 0
M  V30 3169 H 307.031 2.79319 -1.63593 0
M  V30 3170 H 305.938 1.38403 -3.47556 0
M  V30 3171 H 307.271 1.83923 -4.56545 0
M  V30 3172 N 308.923 1.53595 0.353017 0
M  V30 3173 C 309.87 1.80919 1.43308 0
M  V30 3174 C 310.84 0.654288 1.5267 0
M  V30 3175 O 312.025 0.897759 1.6836 0
M  V30 3176 C 309.165 2.01605 2.80089 0
M  V30 3177 C 308.278 3.29321 2.79593 0
M  V30 3178 C 307.413 3.40125 4.0803 0
M  V30 3179 C 306.452 4.61826 4.01725 0
M  V30 3180 N 305.589 4.69716 5.21834 0
M  V30 3181 H 310.429 2.73074 1.19308 0
M  V30 3182 H 307.966 1.35263 0.578131 0
M  V30 3183 H 309.924 2.11586 3.59565 0
M  V30 3184 H 308.554 1.12772 3.0246 0
M  V30 3185 H 307.606 3.28229 1.92276 0
M  V30 3186 H 308.918 4.18884 2.70809 0
M  V30 3187 H 308.072 3.49488 4.95927 0
M  V30 3188 H 306.811 2.48601 4.19582 0
M  V30 3189 H 305.816 4.52552 3.12213 0
M  V30 3190 H 307.041 5.54705 3.91764 0
M  V30 3191 H 304.987 3.81097 5.33948 0
M  V30 3192 H 304.904 5.53202 5.1527 0
M  V30 3193 H 306.172 4.83376 6.11529 0
M  V30 3194 N 310.401 -0.613514 1.45168 0
M  V30 3195 C 311.817 -0.933629 1.29443 0
M  V30 3196 C 312.017 -2.00028 0.243101 0
M  V30 3197 O 311.073 -2.49848 -0.364992 0
M  V30 3198 C 312.386 -1.38018 2.67155 0
M  V30 3199 C 313.934 -1.49471 2.75004 0
M  V30 3200 C 314.409 -1.97503 4.13227 0
M  V30 3201 N 315.9 -2.04746 4.15491 0
M  V30 3202 C 316.635 -2.43121 5.19307 0
M  V30 3203 N 316.131 -2.80506 6.33473 0
M  V30 3204 N 317.924 -2.43408 5.06664 0
M  V30 3205 H 310.075 0.0916097 2.12202 0
M  V30 3206 H 312.338 -0.0216655 0.947752 0
M  V30 3207 H 312.044 -0.670625 3.45247 0
M  V30 3208 H 311.918 -2.34784 2.95222 0
M  V30 3209 H 314.305 -2.19519 1.9722 0
M  V30 3210 H 314.386 -0.510342 2.50657 0
M  V30 3211 H 314.03 -1.28045 4.91495 0
M  V30 3212 H 313.96 -2.96843 4.34962 0
M  V30 3213 H 316.451 -1.78468 3.33103 0
M  V30 3214 H 316.764 -3.08652 7.08487 0
M  V30 3215 H 315.109 -2.78216 6.36884 0
M  V30 3216 H 318.3 -2.13604 4.16523 0
M  V30 3217 H 318.473 -2.72989 5.87691 0
M  V30 3218 N 311.879 -1.3236 -0.855495 0
M  V30 3219 C 313.125 -1.24064 -1.61182 0
M  V30 3220 C 313.48 0.195914 -1.914 0
M  V30 3221 O 312.773 1.13345 -1.54478 0
M  V30 3222 C 312.967 -2.03275 -2.93963 0
M  V30 3223 C 312.796 -3.54486 -2.76712 0
M  V30 3224 C 311.566 -4.23824 -2.75139 0
M  V30 3225 C 313.764 -4.49154 -2.50531 0
M  V30 3226 N 311.746 -5.61095 -2.4909 0
M  V30 3227 C 313.117 -5.74195 -2.3388 0
M  V30 3228 C 315.172 -4.3842 -2.35992 0
M  V30 3229 C 313.875 -6.89716 -2.04168 0
M  V30 3230 C 315.901 -5.53739 -2.0767 0
M  V30 3231 C 315.263 -6.77779 -1.9182 0
M  V30 3232 H 311.362 -0.509139 -0.59355 0
M  V30 3233 H 313.946 -1.66715 -1.00569 0
M  V30 3234 H 312.117 -1.6297 -3.52555 0
M  V30 3235 H 313.849 -1.86881 -3.58967 0
M  V30 3236 H 310.604 -3.75934 -2.88047 0
M  V30 3237 H 311.028 -6.33411 -2.38996 0
M  V30 3238 H 315.67 -3.43172 -2.46967 0
M  V30 3239 H 313.388 -7.84977 -1.9193 0
M  V30 3240 H 316.974 -5.4736 -1.97201 0
M  V30 3241 H 315.854 -7.65504 -1.70217 0
M  V30 3242 N 313.357 1.07166 -1.15556 0
M  V30 3243 C 314.582 1.84053 -0.955988 0
M  V30 3244 C 315.007 1.81586 0.490739 0
M  V30 3245 O 314.365 1.21018 1.34997 0
M  V30 3246 C 314.413 3.28957 -1.47714 0
M  V30 3247 O 313.517 4.06795 -0.677593 0
M  V30 3248 H 312.858 0.569842 -0.340847 0
M  V30 3249 H 315.388 1.35178 -1.53584 0
M  V30 3250 H 315.398 3.79788 -1.4908 0
M  V30 3251 H 314.073 3.30068 -2.53037 0
M  V30 3252 H 312.65 3.6561 -0.733721 0
M  V30 3253 N 314.835 0.952656 1.25548 0
M  V30 3254 C 315.745 0.47782 2.29682 0
M  V30 3255 C 316.761 -0.453859 1.67977 0
M  V30 3256 O 317.937 -0.330587 1.98668 0
M  V30 3257 C 315.002 -0.238655 3.45878 0
M  V30 3258 C 314.063 0.730994 4.23031 0
M  V30 3259 C 313.296 0.0486165 5.33678 0
M  V30 3260 O 313.519 -1.16612 5.58353 0
M  V30 3261 O 312.453 0.733152 5.97418 0
M  V30 3262 H 316.279 1.34312 2.72386 0
M  V30 3263 H 313.864 0.719026 1.30959 0
M  V30 3264 H 315.746 -0.641774 4.16484 0
M  V30 3265 H 314.421 -1.07916 3.05181 0
M  V30 3266 H 313.328 1.18428 3.5486 0
M  V30 3267 H 314.661 1.53946 4.67506 0
M  V30 3268 N 316.313 -1.40141 0.720998 0
M  V30 3269 C 317.559 -2.01572 0.272075 0
M  V30 3270 C 317.914 -1.5616 -1.12391 0
M  V30 3271 O 317.207 -0.774198 -1.75262 0
M  V30 3272 C 317.401 -3.56165 0.296892 0
M  V30 3273 C 317.23 -4.16584 1.69375 0
M  V30 3274 C 316 -4.49783 2.30269 0
M  V30 3275 C 318.198 -4.41076 2.64493 0
M  V30 3276 N 316.18 -4.95626 3.62254 0
M  V30 3277 C 317.551 -4.88971 3.81192 0
M  V30 3278 C 319.606 -4.23122 2.62435 0
M  V30 3279 C 318.309 -5.20796 4.96149 0
M  V30 3280 C 320.335 -4.56052 3.76524 0
M  V30 3281 C 319.697 -5.04141 4.91956 0
M  V30 3282 H 315.796 -0.768343 0.145511 0
M  V30 3283 H 318.38 -1.70287 0.943959 0
M  V30 3284 H 316.551 -3.86868 -0.344578 0
M  V30 3285 H 318.283 -4.04346 -0.169254 0
M  V30 3286 H 315.038 -4.37101 1.82318 0
M  V30 3287 H 315.462 -5.22923 4.29977 0
M  V30 3288 H 320.104 -3.85158 1.74393 0
M  V30 3289 H 317.822 -5.57672 5.84831 0
M  V30 3290 H 321.408 -4.43796 3.76213 0
M  V30 3291 H 320.288 -5.29142 5.78774 0
M  V30 3292 N 317.792 -0.46758 -1.50504 0
M  V30 3293 C 318.755 0.317059 -2.26996 0
M  V30 3294 C 319.755 0.923513 -1.31635 0
M  V30 3295 O 320.945 0.793239 -1.55091 0
M  V30 3296 C 318.077 1.45134 -3.08462 0
M  V30 3297 H 319.27 -0.353723 -2.97807 0
M  V30 3298 H 316.823 -0.221545 -1.54722 0
M  V30 3299 H 317.558 2.15728 -2.4214 0
M  V30 3300 H 317.343 1.02232 -3.78538 0
M  V30 3301 H 318.833 2.00493 -3.66323 0
M  V30 3302 N 319.27 1.56325 -0.20005 0
M  V30 3303 C 320.495 2.02548 0.44597 0
M  V30 3304 C 320.92 1.07922 1.5406 0
M  V30 3305 O 320.278 0.0635775 1.81188 0
M  V30 3306 C 320.326 3.47175 0.974761 0
M  V30 3307 O 319.43 3.55671 2.08739 0
M  V30 3308 H 318.771 0.655862 0.103638 0
M  V30 3309 H 321.301 2.02201 -0.312381 0
M  V30 3310 H 321.311 3.87067 1.2901 0
M  V30 3311 H 319.986 4.15538 0.17347 0
M  V30 3312 H 318.563 3.27657 1.78032 0
M  V30 3313 N 320.748 -0.0735177 1.57428 0
M  V30 3314 C 321.996 -0.771472 1.86796 0
M  V30 3315 C 322.317 -1.78201 0.791804 0
M  V30 3316 O 321.587 -1.95074 -0.179718 0
M  V30 3317 H 320.167 -0.28791 0.689287 0
M  V30 3318 H 322.829 -0.0500161 1.94836 0
M  V30 3319 H 321.925 -1.28874 2.8425 0
M  V30 3320 N 322.226 -1.5378 -0.344866 0
M  V30 3321 C 323.173 -1.81676 -1.42346 0
M  V30 3322 C 324.143 -0.662376 -1.52321 0
M  V30 3323 O 325.328 -0.906675 -1.67881 0
M  V30 3324 C 322.468 -2.03087 -2.79015 0
M  V30 3325 C 321.581 -3.30799 -2.77842 0
M  V30 3326 C 320.716 -3.42285 -4.0622 0
M  V30 3327 C 319.755 -4.6395 -3.9927 0
M  V30 3328 N 318.892 -4.72477 -5.19336 0
M  V30 3329 H 323.732 -2.73703 -1.17858 0
M  V30 3330 H 321.269 -1.35568 -0.570949 0
M  V30 3331 H 323.227 -2.1349 -3.58438 0
M  V30 3332 H 321.857 -1.14375 -3.01858 0
M  V30 3333 H 320.909 -3.29244 -1.90533 0
M  V30 3334 H 322.221 -4.20314 -2.68584 0
M  V30 3335 H 321.375 -3.52113 -4.94066 0
M  V30 3336 H 320.114 -2.50823 -4.18258 0
M  V30 3337 H 319.119 -4.54201 -3.09809 0
M  V30 3338 H 320.344 -5.56775 -3.88817 0
M  V30 3339 H 318.29 -3.83924 -5.3192 0
M  V30 3340 H 318.207 -5.55927 -5.12329 0
M  V30 3341 H 319.475 -4.86613 -6.08957 0
M  V30 3342 N 323.704 0.605807 -1.45491 0
M  V30 3343 C 324.95 1.36679 -1.49823 0
M  V30 3344 C 325.283 1.93693 -0.140175 0
M  V30 3345 O 324.558 1.75158 0.845581 0
M  V30 3346 C 324.841 2.51337 -2.57879 0
M  V30 3347 C 324.694 1.99508 -4.03134 0
M  V30 3348 C 326.013 3.53463 -2.62205 0
M  V30 3349 H 323.132 0.495617 -0.545466 0
M  V30 3350 H 325.774 0.682732 -1.7731 0
M  V30 3351 H 323.924 3.09691 -2.34571 0
M  V30 3352 H 325.596 1.45789 -4.37656 0
M  V30 3353 H 323.839 1.30496 -4.13707 0
M  V30 3354 H 324.51 2.82169 -4.74431 0
M  V30 3355 H 326.986 3.04953 -2.83095 0
M  V30 3356 H 325.862 4.31178 -3.39672 0
M  V30 3357 H 326.123 4.09197 -1.67363 0
M  V30 3358 N 325.182 1.32811 0.848464 0
M  V30 3359 C 326.112 1.24882 1.97299 0
M  V30 3360 C 327.093 0.131357 1.69592 0
M  V30 3361 O 328.278 0.319553 1.91553 0
M  V30 3362 C 325.408 0.97746 3.33261 0
M  V30 3363 C 324.362 2.05682 3.75338 0
M  V30 3364 C 323.688 1.63777 5.09 0
M  V30 3365 C 324.988 3.47254 3.90144 0
M  V30 3366 H 326.682 2.18966 2.04191 0
M  V30 3367 H 324.228 1.05413 0.981029 0
M  V30 3368 H 326.181 0.908513 4.1149 0
M  V30 3369 H 324.905 0.000980011 3.266 0
M  V30 3370 H 323.564 2.11603 2.99366 0
M  V30 3371 H 323.212 0.648569 4.98801 0
M  V30 3372 H 322.912 2.36 5.38124 0
M  V30 3373 H 324.436 1.5833 5.89715 0
M  V30 3374 H 325.85 3.43888 4.58709 0
M  V30 3375 H 324.247 4.1788 4.30693 0
M  V30 3376 H 325.317 3.86462 2.92874 0
M  V30 3377 N 326.66 -1.06551 1.16123 0
M  V30 3378 C 327.9 -1.80889 0.951766 0
M  V30 3379 C 328.264 -1.85062 -0.511465 0
M  V30 3380 O 329.465 -2.55353 -0.83954 0
M  V30 3381 C 327.736 -3.21609 1.55893 0
M  V30 3382 S 329.295 -4.12593 1.49373 0
M  V30 3383 H 326.113 -0.623156 0.342341 0
M  V30 3384 H 328.715 -1.27943 1.47821 0
M  V30 3385 H 327.419 -3.16165 2.61664 0
M  V30 3386 H 326.95 -3.79631 1.0317 0
M  V30 3387 H 328.965 -4.93753 0.492196 0
M  V30 3388 N 328.138 -0.959301 -1.25041 0
M  V30 3389 C 329.068 -0.501388 -2.28053 0
M  V30 3390 C 330.049 0.454673 -1.63911 0
M  V30 3391 O 331.234 0.352618 -1.90972 0
M  V30 3392 C 328.364 0.217224 -3.4662 0
M  V30 3393 C 327.318 -0.654034 -4.22973 0
M  V30 3394 C 326.644 0.195589 -5.34342 0
M  V30 3395 C 327.944 -1.93447 -4.85155 0
M  V30 3396 H 329.638 -1.36238 -2.66608 0
M  V30 3397 H 327.184 -0.656534 -1.28163 0
M  V30 3398 H 329.137 0.548732 -4.17812 0
M  V30 3399 H 327.861 1.1125 -3.07068 0
M  V30 3400 H 326.52 -0.968693 -3.5357 0
M  V30 3401 H 326.168 1.09076 -4.91031 0
M  V30 3402 H 325.868 -0.384091 -5.86343 0
M  V30 3403 H 327.392 0.521958 -6.08365 0
M  V30 3404 H 328.806 -1.66908 -5.48466 0
M  V30 3405 H 327.203 -2.46018 -5.47353 0
M  V30 3406 H 328.273 -2.63466 -4.07079 0
M  V30 3407 N 329.616 1.39756 -0.72842 0
M  V30 3408 C 330.546 2.33289 -0.0991354 0
M  V30 3409 C 331.527 1.53568 0.731489 0
M  V30 3410 O 332.712 1.81987 0.677807 0
M  V30 3411 C 329.842 3.3763 0.813834 0
M  V30 3412 C 328.796 4.2791 0.0878663 0
M  V30 3413 C 328.122 5.22894 1.11741 0
M  V30 3414 C 329.422 5.11314 -1.06563 0
M  V30 3415 H 331.116 2.86163 -0.880408 0
M  V30 3416 H 328.662 1.37591 -0.424819 0
M  V30 3417 H 330.615 4.0201 1.26355 0
M  V30 3418 H 329.339 2.83181 1.62715 0
M  V30 3419 H 327.998 3.65 -0.342159 0
M  V30 3420 H 327.646 4.64744 1.92412 0
M  V30 3421 H 327.346 5.84143 0.636477 0
M  V30 3422 H 328.87 5.90151 1.56697 0
M  V30 3423 H 330.284 5.69076 -0.694671 0
M  V30 3424 H 328.681 5.81671 -1.47577 0
M  V30 3425 H 329.751 4.46534 -1.89038 0
M  V30 3426 N 331.094 0.475555 1.50254 0
M  V30 3427 C 332.371 -0.139685 1.95101 0
M  V30 3428 C 332.751 -1.56555 1.41611 0
M  V30 3429 O 332.099 -2.19956 0.618993 0
M  V30 3430 C 332.309 -0.0784298 3.48912 0
M  V30 3431 C 333.657 -0.265095 4.23772 0
M  V30 3432 O 334.681 -0.154808 3.55863 0
M  V30 3433 O 333.54 -0.488327 5.44314 0
M  V30 3434 H 330.634 -0.109236 0.819754 0
M  V30 3435 H 333.18 0.536276 1.61004 0
M  V30 3436 H 331.952 0.916918 3.80405 0
M  V30 3437 H 331.575 -0.795655 3.89558 0
M  V30 3438 N 332.573 -1.56217 0.208337 0
M  V30 3439 C 333.984 -1.84243 -0.301904 0
M  V30 3440 C 334.335 -1.12939 -1.60434 0
M  V30 3441 O 333.46 -0.39461 -2.12772 0
M  V30 3442 C 334.055 -3.34231 -0.554543 0
M  V30 3443 C 332.614 -3.62621 -1.00912 0
M  V30 3444 C 331.761 -2.77224 -0.064933 0
M  V30 3445 H 334.712 -1.52712 0.431833 0
M  V30 3446 H 334.733 -3.5372 -1.40223 0
M  V30 3447 H 334.245 -3.86099 0.393561 0
M  V30 3448 H 332.346 -3.16197 -1.97104 0
M  V30 3449 H 332.459 -4.7071 -0.892674 0
M  V30 3450 H 330.823 -2.48256 -0.56929 0
M  V30 3451 H 331.606 -3.31887 0.877851 0
M  V30 3452 N 334.051 0.0651679 -1.57465 0
M  V30 3453 C 334.981 1.07693 -2.07182 0
M  V30 3454 C 335.962 1.39962 -0.966673 0
M  V30 3455 O 337.147 1.49475 -1.2398 0
M  V30 3456 C 334.277 2.3885 -2.52127 0
M  V30 3457 C 333.231 2.20917 -3.66579 0
M  V30 3458 C 332.557 3.57515 -3.97601 0
M  V30 3459 C 333.857 1.62493 -4.9638 0
M  V30 3460 H 335.551 0.663199 -2.91962 0
M  V30 3461 H 333.097 0.317569 -1.40455 0
M  V30 3462 H 335.05 3.09928 -2.85522 0
M  V30 3463 H 333.774 2.82215 -1.64384 0
M  V30 3464 H 332.433 1.52279 -3.33477 0
M  V30 3465 H 332.081 3.98463 -3.06979 0
M  V30 3466 H 331.781 3.46353 -4.74672 0
M  V30 3467 H 333.305 4.30013 -4.33499 0
M  V30 3468 H 334.719 2.23445 -5.27963 0
M  V30 3469 H 333.116 1.62009 -5.77818 0
M  V30 3470 H 334.186 0.587041 -4.81333 0
M  V30 3471 N 335.529 1.53961 0.336706 0
M  V30 3472 C 336.806 1.62171 1.09361 0
M  V30 3473 C 337.186 0.447263 2.06307 0
M  V30 3474 O 336.534 -0.559802 2.21537 0
M  V30 3475 C 336.744 2.98565 1.80721 0
M  V30 3476 C 338.092 3.54157 2.34218 0
M  V30 3477 O 339.116 3.00784 1.90807 0
M  V30 3478 O 337.975 4.47528 3.13657 0
M  V30 3479 H 335.069 0.6562 0.503319 0
M  V30 3480 H 337.615 1.66307 0.33765 0
M  V30 3481 H 336.387 3.75482 1.10132 0
M  V30 3482 H 336.01 2.9805 2.63158 0
M  V30 3483 N 337.007 -0.598083 1.45811 0
M  V30 3484 C 338.255 -1.35413 1.50026 0
M  V30 3485 C 338.576 -1.94444 0.147177 0
M  V30 3486 O 337.846 -1.77701 -0.824571 0
M  V30 3487 H 336.426 -0.502727 0.552517 0
M  V30 3488 H 339.088 -0.701606 1.81834 0
M  V30 3489 H 338.184 -2.16871 2.2444 0
M  V30 3490 N 338.485 -1.33259 -0.841409 0
M  V30 3491 C 339.731 -1.24757 -1.59886 0
M  V30 3492 C 340.064 0.186913 -1.93298 0
M  V30 3493 O 339.339 1.12757 -1.5848 0
M  V30 3494 C 339.622 -2.12036 -2.91055 0
M  V30 3495 C 339.475 -3.63929 -2.6434 0
M  V30 3496 C 340.794 -1.9916 -3.92458 0
M  V30 3497 H 337.913 -0.454542 -0.580138 0
M  V30 3498 H 340.555 -1.63335 -0.970647 0
M  V30 3499 H 338.705 -1.79265 -3.44669 0
M  V30 3500 H 340.377 -4.06978 -2.17178 0
M  V30 3501 H 338.62 -3.85935 -1.98082 0
M  V30 3502 H 339.291 -4.20341 -3.57796 0
M  V30 3503 H 341.767 -2.27895 -3.48143 0
M  V30 3504 H 340.643 -2.62484 -4.82072 0
M  V30 3505 H 340.904 -0.963082 -4.31482 0
M  V30 3506 N 339.963 1.05934 -1.16686 0
M  V30 3507 C 341.193 1.82226 -0.973515 0
M  V30 3508 C 341.601 1.8297 0.481532 0
M  V30 3509 O 340.944 1.25009 1.34604 0
M  V30 3510 C 341.006 3.29897 -1.42858 0
M  V30 3511 C 340.67 3.52849 -2.90425 0
M  V30 3512 C 341.667 3.45595 -3.88407 0
M  V30 3513 C 339.352 3.80053 -3.28428 0
M  V30 3514 C 341.346 3.65217 -5.22394 0
M  V30 3515 C 339.033 3.99325 -4.62583 0
M  V30 3516 C 340.031 3.91905 -5.59374 0
M  V30 3517 O 339.719 4.10647 -6.91104 0
M  V30 3518 H 339.451 0.581314 -0.345036 0
M  V30 3519 H 342.005 1.3453 -1.55212 0
M  V30 3520 H 340.235 3.78472 -0.793477 0
M  V30 3521 H 341.924 3.87692 -1.20207 0
M  V30 3522 H 342.69 3.24564 -3.60393 0
M  V30 3523 H 338.569 3.84936 -2.53664 0
M  V30 3524 H 342.113 3.59341 -5.9793 0
M  V30 3525 H 338.01 4.19846 -4.90306 0
M  V30 3526 H 338.778 4.27915 -6.97733 0
M  V30 3527 N 341.441 0.965919 1.2453 0
M  V30 3528 C 342.389 0.486506 2.27455 0
M  V30 3529 C 343.383 -0.449041 1.6334 0
M  V30 3530 O 344.589 -0.324527 1.7705 0
M  V30 3531 H 340.964 0.138857 0.739069 0
M  V30 3532 H 342.935 1.3666 2.65267 0
M  V30 3533 C 341.684 -0.209481 3.47068 0
M  V30 3534 H 341.007 0.50129 3.96645 0
M  V30 3535 H 342.447 -0.508775 4.20936 0
M  V30 3536 C 340.906 -1.43586 3.0477 0
M  V30 3537 O 341.436 -2.53299 3.11773 0
M  V30 3538 N 339.642 -1.30126 2.59838 0
M  V30 3539 H 339.189 -0.408583 2.54339 0
M  V30 3540 H 339.147 -2.12294 2.31902 0
M  V30 3541 N 342.919 -1.39368 0.735821 0
M  V30 3542 C 344.149 -2.04498 0.293967 0
M  V30 3543 C 344.557 -1.55593 -1.07645 0
M  V30 3544 O 343.9 -0.716324 -1.69158 0
M  V30 3545 C 343.962 -3.58836 0.218342 0
M  V30 3546 C 343.626 -4.30721 1.52736 0
M  V30 3547 C 344.623 -4.57305 2.47322 0
M  V30 3548 C 342.308 -4.69251 1.79189 0
M  V30 3549 C 344.302 -5.21429 3.66593 0
M  V30 3550 C 341.989 -5.33104 2.98737 0
M  V30 3551 C 342.987 -5.59125 3.9226 0
M  V30 3552 O 342.675 -6.21653 5.09708 0
M  V30 3553 H 342.407 -0.664118 0.126189 0
M  V30 3554 H 344.961 -1.79385 1.00051 0
M  V30 3555 H 343.191 -3.8285 -0.544314 0
M  V30 3556 H 344.88 -4.05447 -0.191626 0
M  V30 3557 H 345.646 -4.27983 2.28156 0
M  V30 3558 H 341.525 -4.48354 1.07239 0
M  V30 3559 H 345.069 -5.41656 4.39607 0
M  V30 3560 H 340.966 -5.61846 3.17803 0
M  V30 3561 H 341.734 -6.40146 5.10054 0
M  V30 3562 N 344.397 -0.483516 -1.5 0
M  V30 3563 C 345.327 0.293829 -2.31644 0
M  V30 3564 C 346.308 0.978864 -1.39112 0
M  V30 3565 O 347.493 0.973644 -1.68029 0
M  V30 3566 C 344.623 1.36897 -3.19181 0
M  V30 3567 C 343.577 0.804833 -4.20365 0
M  V30 3568 C 342.903 1.9792 -4.96721 0
M  V30 3569 C 344.203 -0.192313 -5.21946 0
M  V30 3570 H 345.897 -0.387616 -2.9688 0
M  V30 3571 H 343.443 -0.187856 -1.42769 0
M  V30 3572 H 345.396 1.92037 -3.751 0
M  V30 3573 H 344.12 2.07936 -2.51853 0
M  V30 3574 H 342.779 0.275319 -3.65565 0
M  V30 3575 H 342.427 2.67686 -4.25856 0
M  V30 3576 H 342.127 1.60789 -5.65173 0
M  V30 3577 H 343.651 2.53526 -5.55479 0
M  V30 3578 H 345.065 0.270333 -5.72662 0
M  V30 3579 H 343.462 -0.478543 -5.98189 0
M  V30 3580 H 344.532 -1.11409 -4.71928 0
M  V30 3581 N 345.875 1.56104 -0.216619 0
M  V30 3582 C 346.838 2.18819 0.681962 0
M  V30 3583 C 347.838 1.14866 1.12528 0
M  V30 3584 O 349.028 1.40128 1.03488 0
M  V30 3585 C 346.16 2.80756 1.93362 0
M  V30 3586 H 347.353 2.99595 0.135254 0
M  V30 3587 H 344.906 1.56265 0.0330003 0
M  V30 3588 H 345.641 2.03837 2.52232 0
M  V30 3589 H 345.426 3.56876 1.62426 0
M  V30 3590 H 346.916 3.28844 2.57393 0
M  V30 3591 N 347.353 -0.0568162 1.57498 0
M  V30 3592 C 348.285 -1.09292 2.01464 0
M  V30 3593 C 349.298 -1.34112 0.922913 0
M  V30 3594 O 350.487 -1.32089 1.20062 0
M  V30 3595 C 347.587 -2.44068 2.35125 0
M  V30 3596 C 346.76 -2.38995 3.66333 0
M  V30 3597 C 345.819 -3.55997 3.87495 0
M  V30 3598 O 344.845 -3.36746 4.58901 0
M  V30 3599 N 346.047 -4.76888 3.30996 0
M  V30 3600 H 348.812 -0.718386 2.90963 0
M  V30 3601 H 346.373 -0.245235 1.60032 0
M  V30 3602 H 348.365 -3.21011 2.46443 0
M  V30 3603 H 346.935 -2.73468 1.5144 0
M  V30 3604 H 346.155 -1.47336 3.65631 0
M  V30 3605 H 347.443 -2.3272 4.52458 0
M  V30 3606 H 346.841 -4.95431 2.73065 0
M  V30 3607 H 345.398 -5.51291 3.47738 0
M  V30 3608 N 348.832 -1.54138 -0.328536 0
M  V30 3609 C 349.764 -1.79509 -1.4251 0
M  V30 3610 C 350.777 -0.67688 -1.48061 0
M  V30 3611 O 351.966 -0.953898 -1.50874 0
M  V30 3612 C 349.066 -1.89337 -2.81078 0
M  V30 3613 C 348.239 -3.19443 -2.98789 0
M  V30 3614 C 347.298 -3.20036 -4.17688 0
M  V30 3615 O 346.324 -3.93697 -4.11086 0
M  V30 3616 N 347.526 -2.43467 -5.26976 0
M  V30 3617 H 350.291 -2.74139 -1.21111 0
M  V30 3618 H 347.852 -1.53373 -0.518499 0
M  V30 3619 H 349.844 -1.87167 -3.58818 0
M  V30 3620 H 348.414 -1.01826 -2.95551 0
M  V30 3621 H 347.634 -3.34614 -2.08391 0
M  V30 3622 H 348.922 -4.05354 -3.07515 0
M  V30 3623 H 348.32 -1.83201 -5.35214 0
M  V30 3624 H 346.877 -2.4708 -6.03154 0
M  V30 3625 N 350.31 0.590341 -1.46126 0
M  V30 3626 C 351.726 0.912917 -1.30912 0
M  V30 3627 C 351.926 1.99616 -0.274893 0
M  V30 3628 O 350.982 2.50397 0.325197 0
M  V30 3629 C 352.295 1.3375 -2.69317 0
M  V30 3630 C 353.843 1.45077 -2.77348 0
M  V30 3631 C 354.318 1.90904 -4.16317 0
M  V30 3632 N 355.809 1.9811 -4.18696 0
M  V30 3633 C 356.544 2.34828 -5.23109 0
M  V30 3634 N 356.04 2.70393 -6.37856 0
M  V30 3635 N 357.833 2.35317 -5.10473 0
M  V30 3636 H 349.984 -0.125358 -2.1203 0
M  V30 3637 H 352.247 0.00658481 -0.947977 0
M  V30 3638 H 351.953 0.615614 -3.4627 0
M  V30 3639 H 351.827 2.30058 -2.9892 0
M  V30 3640 H 354.214 2.16353 -2.00687 0
M  V30 3641 H 354.295 0.4704 -2.51438 0
M  V30 3642 H 353.939 1.20209 -4.9347 0
M  V30 3643 H 353.869 2.89886 -4.39629 0
M  V30 3644 H 356.36 1.73146 -3.359 0
M  V30 3645 H 356.673 2.97341 -7.13308 0
M  V30 3646 H 355.018 2.68048 -6.41229 0
M  V30 3647 H 358.209 2.0695 -4.19868 0
M  V30 3648 H 358.382 2.63605 -5.9196 0
M  V30 3649 N 351.788 1.33704 0.83433 0
M  V30 3650 C 353.028 1.26754 1.60352 0
M  V30 3651 C 353.392 -0.163182 1.91305 0
M  V30 3652 O 354.593 -0.3567 2.66423 0
M  V30 3653 C 352.864 2.12262 2.8754 0
M  V30 3654 S 354.423 2.22549 3.78176 0
M  V30 3655 H 351.241 0.450879 0.549753 0
M  V30 3656 H 353.843 1.68788 0.986444 0
M  V30 3657 H 352.547 3.15238 2.62779 0
M  V30 3658 H 352.078 1.71082 3.54252 0
M  V30 3659 H 354.093 1.3899 4.76336 0
M  V30 3660 N 353.266 -1.05314 1.17247 0
M  V30 3661 C 354.214 -2.15137 0.884238 0
M  V30 3662 C 355.208 -1.68729 -0.15063 0
M  V30 3663 O 356.414 -1.8 -0.00366673 0
M  V30 3664 H 352.789 -0.702471 0.2684 0
M  V30 3665 H 354.76 -2.36652 1.81764 0
M  V30 3666 C 353.509 -3.45243 0.412659 0
M  V30 3667 H 352.832 -3.81352 1.20043 0
M  V30 3668 H 354.272 -4.23263 0.249858 0
M  V30 3669 C 352.731 -3.25487 -0.86948 0
M  V30 3670 O 353.261 -3.51938 -1.93655 0
M  V30 3671 N 351.467 -2.78875 -0.817147 0
M  V30 3672 H 351.014 -2.57549 0.0514211 0
M  V30 3673 H 350.972 -2.66036 -1.67547 0
M  V30 3674 N 354.744 -0.972509 -1.24016 0
M  V30 3675 C 355.674 -0.525548 -2.27509 0
M  V30 3676 C 356.655 0.437262 -1.64384 0
M  V30 3677 O 357.84 0.332343 -1.91335 0
M  V30 3678 C 354.97 0.180448 -3.46831 0
M  V30 3679 C 353.924 -0.698859 -4.22256 0
M  V30 3680 C 353.25 0.138903 -5.3452 0
M  V30 3681 C 354.55 -1.98582 -4.83076 0
M  V30 3682 H 356.244 -1.39058 -2.65148 0
M  V30 3683 H 353.79 -0.67009 -1.27459 0
M  V30 3684 H 355.743 0.504387 -4.18371 0
M  V30 3685 H 354.467 1.07987 -3.08231 0
M  V30 3686 H 353.126 -1.00614 -3.52523 0
M  V30 3687 H 352.774 1.03862 -4.9216 0
M  V30 3688 H 352.474 -0.446259 -5.85903 0
M  V30 3689 H 353.998 0.457404 -6.08884 0
M  V30 3690 H 355.412 -1.72715 -5.46665 0
M  V30 3691 H 353.809 -2.5181 -5.44713 0
M  V30 3692 H 354.879 -2.67769 -4.04262 0
M  V30 3693 N 356.222 1.38976 -0.743202 0
M  V30 3694 C 357.499 1.94351 -0.220705 0
M  V30 3695 C 357.879 1.67935 1.2791 0
M  V30 3696 O 357.227 1.01211 2.04862 0
M  V30 3697 C 357.437 3.44426 -0.563171 0
M  V30 3698 C 358.785 4.2144 -0.517046 0
M  V30 3699 O 359.809 3.52661 -0.500846 0
M  V30 3700 O 358.668 5.44032 -0.518806 0
M  V30 3701 H 355.762 0.825879 -0.043047 0
M  V30 3702 H 358.308 1.48429 -0.822618 0
M  V30 3703 H 357.08 3.5712 -1.59941 0
M  V30 3704 H 356.703 3.97543 0.0672883 0
M  V30 3705 N 357.7 0.491464 1.49741 0
M  V30 3706 C 358.977 -0.118984 1.95238 0
M  V30 3707 C 359.357 -1.55044 1.43264 0
M  V30 3708 O 358.705 -2.19287 0.642287 0
M  V30 3709 C 358.915 -0.0414187 3.48975 0
M  V30 3710 C 360.263 -0.220133 4.24029 0
M  V30 3711 O 361.287 -0.117055 3.56008 0
M  V30 3712 O 360.146 -0.430567 5.44801 0
M  V30 3713 H 357.24 -0.100536 0.820866 0
M  V30 3714 H 359.786 0.553322 1.60426 0
M  V30 3715 H 358.558 0.957214 3.79412 0
M  V30 3716 H 358.181 -0.754292 3.9038 0
M  V30 3717 N 359.178 -1.55987 0.224894 0
M  V30 3718 C 360.406 -2.02784 -0.410665 0
M  V30 3719 C 360.821 -1.10464 -1.53112 0
M  V30 3720 O 360.178 -0.114871 -1.82138 0
M  V30 3721 C 360.229 -3.49087 -0.939165 0
M  V30 3722 O 359.95 -4.37887 0.136614 0
M  V30 3723 C 361.451 -4.11543 -1.64763 0
M  V30 3724 H 358.671 -0.663484 -0.100148 0
M  V30 3725 H 361.215 -2.01614 0.342326 0
M  V30 3726 H 359.37 -3.50861 -1.64242 0
M  V30 3727 H 359.784 -5.23849 -0.261155 0
M  V30 3728 H 361.258 -5.15673 -1.96939 0
M  V30 3729 H 361.735 -3.56736 -2.56195 0
M  V30 3730 H 362.341 -4.13629 -0.989503 0
M  V30 3731 N 360.656 0.0484629 -1.57525 0
M  V30 3732 C 361.902 0.738854 -1.89506 0
M  V30 3733 C 362.257 1.73989 -0.821319 0
M  V30 3734 O 361.55 1.90825 0.172129 0
M  V30 3735 C 361.744 1.46632 -3.25935 0
M  V30 3736 C 361.573 0.537254 -4.46479 0
M  V30 3737 C 360.343 0.165484 -5.05029 0
M  V30 3738 C 362.541 -0.176085 -5.13998 0
M  V30 3739 N 360.523 -0.766868 -6.09091 0
M  V30 3740 C 361.894 -0.96478 -6.12448 0
M  V30 3741 C 363.949 -0.24509 -4.97296 0
M  V30 3742 C 362.652 -1.8161 -6.95996 0
M  V30 3743 C 364.678 -1.08347 -5.81391 0
M  V30 3744 C 364.04 -1.86014 -6.79395 0
M  V30 3745 H 360.139 0.245067 -0.742608 0
M  V30 3746 H 362.723 -0.000476161 -1.947 0
M  V30 3747 H 360.894 2.17623 -3.21706 0
M  V30 3748 H 362.626 2.10757 -3.45491 0
M  V30 3749 H 359.381 0.523466 -4.70698 0
M  V30 3750 H 359.805 -1.22698 -6.65788 0
M  V30 3751 H 364.447 0.341063 -4.21422 0
M  V30 3752 H 362.165 -2.41313 -7.71229 0
M  V30 3753 H 365.751 -1.14014 -5.70519 0
M  V30 3754 H 364.631 -2.4984 -7.43337 0
M  V30 3755 N 362.134 1.5431 0.320358 0
M  V30 3756 C 363.044 1.86946 1.41734 0
M  V30 3757 C 364.06 0.761689 1.56443 0
M  V30 3758 O 365.236 1.05629 1.71477 0
M  V30 3759 C 362.301 2.09293 2.76401 0
M  V30 3760 C 361.362 3.33082 2.70841 0
M  V30 3761 C 360.595 3.54353 3.99086 0
M  V30 3762 O 360.818 2.79002 4.97508 0
M  V30 3763 O 359.752 4.47838 4.0215 0
M  V30 3764 H 363.578 2.80232 1.17062 0
M  V30 3765 H 361.163 1.40255 0.514673 0
M  V30 3766 H 363.045 2.25303 3.56113 0
M  V30 3767 H 361.72 1.19194 3.00956 0
M  V30 3768 H 360.627 3.22454 1.89668 0
M  V30 3769 H 361.96 4.23249 2.5124 0
M  V30 3770 N 363.613 -0.582584 1.46437 0
M  V30 3771 C 364.861 -1.33814 1.51453 0
M  V30 3772 C 365.182 -1.94277 0.167792 0
M  V30 3773 O 364.452 -1.78566 -0.805677 0
M  V30 3774 H 363.032 -0.496838 0.557818 0
M  V30 3775 H 365.694 -0.682281 1.82568 0
M  V30 3776 H 364.79 -2.14479 2.26728 0
M  V30 3777 N 365.091 -1.34144 -0.827227 0
M  V30 3778 C 366.038 -1.25364 -1.93785 0
M  V30 3779 C 367.008 -0.129774 -1.65592 0
M  V30 3780 O 368.193 -0.310024 -1.88264 0
M  V30 3781 C 365.333 -1.01064 -3.2997 0
M  V30 3782 C 364.446 -2.22185 -3.70484 0
M  V30 3783 C 363.581 -1.91203 -4.95595 0
M  V30 3784 C 362.62 -3.08491 -5.28677 0
M  V30 3785 N 361.757 -2.77421 -6.44967 0
M  V30 3786 H 366.597 -2.20347 -2.00627 0
M  V30 3787 H 364.134 -1.09558 -0.981608 0
M  V30 3788 H 366.092 -0.850139 -4.08446 0
M  V30 3789 H 364.722 -0.0975026 -3.22653 0
M  V30 3790 H 363.774 -2.4917 -2.87434 0
M  V30 3791 H 365.086 -3.0983 -3.90905 0
M  V30 3792 H 364.24 -1.71864 -5.81848 0
M  V30 3793 H 362.979 -1.00812 -4.77167 0
M  V30 3794 H 361.984 -3.28431 -4.40923 0
M  V30 3795 H 363.209 -3.99655 -5.49047 0
M  V30 3796 H 361.155 -1.89601 -6.28003 0
M  V30 3797 H 361.072 -3.58598 -6.6554 0
M  V30 3798 H 362.34 -2.61577 -7.34301 0
M  V30 3799 N 366.569 1.04691 -1.17803 0
M  V30 3800 C 367.818 1.77176 -0.963931 0
M  V30 3801 C 368.131 1.88888 0.508015 0
M  V30 3802 O 369.337 2.58164 0.840465 0
M  V30 3803 C 367.793 3.18518 -1.67555 0
M  V30 3804 C 367.401 3.14919 -3.18637 0
M  V30 3805 C 369.145 3.95424 -1.54402 0
M  V30 3806 C 367.052 4.51081 -3.82466 0
M  V30 3807 H 365.982 0.664116 -0.357023 0
M  V30 3808 H 368.633 1.17303 -1.4111 0
M  V30 3809 H 367.015 3.78748 -1.15613 0
M  V30 3810 H 368.189 2.64178 -3.77554 0
M  V30 3811 H 366.504 2.51512 -3.31859 0
M  V30 3812 H 369.101 4.96106 -1.99456 0
M  V30 3813 H 369.444 4.13343 -0.495329 0
M  V30 3814 H 369.977 3.41754 -2.0359 0
M  V30 3815 H 366.716 4.38368 -4.87354 0
M  V30 3816 H 366.236 5.01951 -3.28337 0
M  V30 3817 H 367.915 5.2001 -3.84965 0
M  V30 3818 N 368.047 0.979072 1.23499 0
M  V30 3819 C 369.277 0.664237 1.95631 0
M  V30 3820 C 369.685 -0.772653 1.72704 0
M  V30 3821 O 369.028 -1.53141 1.01457 0
M  V30 3822 C 369.09 0.873115 3.48736 0
M  V30 3823 C 368.754 2.29182 3.95379 0
M  V30 3824 C 369.751 3.2704 4.04155 0
M  V30 3825 C 367.436 2.62256 4.28401 0
M  V30 3826 C 369.43 4.56052 4.45304 0
M  V30 3827 C 367.117 3.91491 4.69231 0
M  V30 3828 C 368.115 4.88201 4.77649 0
M  V30 3829 O 367.803 6.15129 5.17563 0
M  V30 3830 H 367.535 0.245915 0.629684 0
M  V30 3831 H 370.089 1.3127 1.57979 0
M  V30 3832 H 368.319 0.167476 3.86337 0
M  V30 3833 H 370.008 0.555642 4.02079 0
M  V30 3834 H 370.774 3.02819 3.78848 0
M  V30 3835 H 366.653 1.87692 4.21061 0
M  V30 3836 H 370.197 5.31538 4.51789 0
M  V30 3837 H 366.094 4.15508 4.93987 0
M  V30 3838 H 366.862 6.18862 5.35679 0
M  V30 3839 N 369.525 -1.3858 0.750561 0
M  V30 3840 C 370.941 -1.53759 0.427824 0
M  V30 3841 C 371.141 -1.71401 -1.05943 0
M  V30 3842 O 370.197 -1.72331 -1.84549 0
M  V30 3843 C 371.51 -2.74642 1.22443 0
M  V30 3844 C 373.058 -2.88489 1.2142 0
M  V30 3845 C 373.533 -4.12329 1.9937 0
M  V30 3846 N 375.024 -4.194 1.96616 0
M  V30 3847 C 375.759 -5.14209 2.53727 0
M  V30 3848 N 375.255 -6.14709 3.19539 0
M  V30 3849 N 377.048 -5.06537 2.43673 0
M  V30 3850 H 369.199 -1.25377 1.71447 0
M  V30 3851 H 371.462 -0.608844 0.726645 0
M  V30 3852 H 371.168 -2.68 2.27747 0
M  V30 3853 H 371.042 -3.67745 0.839273 0
M  V30 3854 H 373.429 -2.94614 0.169232 0
M  V30 3855 H 373.51 -1.96406 1.63885 0
M  V30 3856 H 373.154 -4.06966 3.03877 0
M  V30 3857 H 373.084 -5.03486 1.54302 0
M  V30 3858 H 375.575 -3.47421 1.48684 0
M  V30 3859 H 375.888 -6.8354 3.60545 0
M  V30 3860 H 374.233 -6.1505 3.23633 0
M  V30 3861 H 377.424 -4.26962 1.91889 0
M  V30 3862 H 377.597 -5.80245 2.88479 0
M  V30 3863 N 371.003 -0.499398 -1.49478 0
M  V30 3864 C 372.249 0.0457576 -2.02748 0
M  V30 3865 C 372.582 1.36793 -1.37846 0
M  V30 3866 O 371.857 1.87596 -0.513601 0
M  V30 3867 C 372.14 0.199986 -3.59544 0
M  V30 3868 C 371.993 -1.1452 -4.34977 0
M  V30 3869 C 373.312 0.94137 -4.29914 0
M  V30 3870 H 370.431 0.0151552 -0.736844 0
M  V30 3871 H 373.073 -0.650498 -1.78518 0
M  V30 3872 H 371.223 0.793007 -3.8032 0
M  V30 3873 H 372.895 -1.77697 -4.25701 0
M  V30 3874 H 371.138 -1.73488 -3.97598 0
M  V30 3875 H 371.809 -0.990607 -5.43039 0
M  V30 3876 H 374.285 0.43844 -4.13784 0
M  V30 3877 H 373.161 1.01812 -5.39375 0
M  V30 3878 H 373.422 1.98471 -3.95046 0
M  V30 3879 N 372.481 1.55866 -0.233164 0
M  V30 3880 C 373.411 2.23783 0.666599 0
M  V30 3881 C 374.392 1.21343 1.19205 0
M  V30 3882 O 375.577 1.4996 1.23392 0
M  V30 3883 C 372.707 2.92671 1.86978 0
M  V30 3884 C 371.661 4.01682 1.47768 0
M  V30 3885 C 370.987 4.57926 2.76058 0
M  V30 3886 C 372.287 5.18126 0.658993 0
M  V30 3887 H 373.981 2.99232 0.100306 0
M  V30 3888 H 371.527 1.43924 0.046804 0
M  V30 3889 H 373.48 3.3888 2.50476 0
M  V30 3890 H 372.204 2.14688 2.46123 0
M  V30 3891 H 370.863 3.56222 0.866106 0
M  V30 3892 H 370.511 3.76659 3.33372 0
M  V30 3893 H 370.211 5.31505 2.50552 0
M  V30 3894 H 371.735 5.06859 3.40479 0
M  V30 3895 H 373.149 5.60644 1.19795 0
M  V30 3896 H 371.546 5.98009 0.500552 0
M  V30 3897 H 372.616 4.83763 -0.331856 0
M  V30 3898 N 373.959 -0.0401083 1.57549 0
M  V30 3899 C 374.922 -1.02871 2.04817 0
M  V30 3900 C 375.922 -1.29708 0.950388 0
M  V30 3901 O 377.112 -1.24897 1.21435 0
M  V30 3902 C 374.244 -2.36443 2.45576 0
M  V30 3903 H 375.437 -0.620631 2.93408 0
M  V30 3904 H 372.99 -0.286667 1.53649 0
M  V30 3905 H 373.725 -2.82021 1.60108 0
M  V30 3906 H 373.51 -2.18296 3.25713 0
M  V30 3907 H 375 -3.07441 2.82612 0
M  V30 3908 N 375.437 -1.54477 -0.31217 0
M  V30 3909 C 376.685 -1.72884 -1.04668 0
M  V30 3910 C 377.006 -0.511477 -1.88173 0
M  V30 3911 O 376.276 0.474407 -1.90069 0
M  V30 3912 H 374.856 -0.637461 -0.389425 0
M  V30 3913 H 377.518 -1.91807 -0.345852 0
M  V30 3914 H 376.614 -2.61334 -1.70619 0
M  V30 3915 N 376.915 0.57481 -1.46744 0
M  V30 3916 C 377.863 1.70435 -1.58286 0
M  V30 3917 C 378.857 1.63287 -0.450956 0
M  V30 3918 O 380.063 1.68685 -0.628121 0
M  V30 3919 H 376.438 0.56364 -0.497809 0
M  V30 3920 H 378.409 1.57833 -2.53242 0
M  V30 3921 C 377.158 3.08815 -1.59776 0
M  V30 3922 H 376.481 3.1499 -2.46214 0
M  V30 3923 H 377.921 3.87588 -1.71905 0
M  V30 3924 C 376.38 3.35301 -0.327812 0
M  V30 3925 O 376.91 3.97511 0.57861 0
M  V30 3926 N 375.116 2.89816 -0.213274 0
M  V30 3927 H 374.663 2.39371 -0.951798 0
M  V30 3928 H 374.621 3.0791 0.63553 0
M  V30 3929 N 378.394 1.34581 0.820102 0
M  V30 3930 C 379.805 1.24298 1.39309 0
M  V30 3931 C 380.156 -0.130351 1.95767 0
M  V30 3932 O 379.281 -1.0308 1.90272 0
M  V30 3933 C 379.876 2.25054 2.53251 0
M  V30 3934 C 378.435 2.18552 3.0645 0
M  V30 3935 C 377.582 2.11503 1.79337 0
M  V30 3936 H 380.533 1.45906 0.624262 0
M  V30 3937 H 380.554 1.86917 3.31425 0
M  V30 3938 H 380.066 3.24996 2.1213 0
M  V30 3939 H 378.167 1.21976 3.52069 0
M  V30 3940 H 378.28 3.0993 3.65349 0
M  V30 3941 H 376.644 1.57268 2.00347 0
M  V30 3942 H 377.427 3.13284 1.40386 0
M  V30 3943 N 379.872 -1.04064 1.18357 0
M  V30 3944 C 380.835 -2.10243 0.912707 0
M  V30 3945 C 381.835 -1.60477 -0.101928 0
M  V30 3946 O 383.025 -1.73703 0.131517 0
M  V30 3947 C 380.157 -3.38893 0.369387 0
M  V30 3948 H 381.35 -2.35706 1.85426 0
M  V30 3949 H 378.903 -1.20489 0.995594 0
M  V30 3950 H 379.638 -3.19094 -0.578776 0
M  V30 3951 H 379.423 -3.76331 1.1008 0
M  V30 3952 H 380.913 -4.17128 0.198575 0
M  V30 3953 N 381.35 -0.985608 -1.22978 0
M  V30 3954 C 382.297 -0.529825 -2.24636 0
M  V30 3955 C 383.267 0.434028 -1.60329 0
M  V30 3956 O 384.452 0.340414 -1.87739 0
M  V30 3957 C 381.592 0.156533 -3.44745 0
M  V30 3958 C 380.705 -0.848197 -4.23591 0
M  V30 3959 C 379.84 -0.136109 -5.31026 0
M  V30 3960 C 378.879 -1.1297 -6.01585 0
M  V30 3961 N 378.016 -0.446415 -7.00679 0
M  V30 3962 H 382.856 -1.40148 -2.62988 0
M  V30 3963 H 380.393 -0.702168 -1.29259 0
M  V30 3964 H 382.351 0.571324 -4.1327 0
M  V30 3965 H 380.981 0.992025 -3.07179 0
M  V30 3966 H 380.033 -1.38135 -3.54433 0
M  V30 3967 H 381.345 -1.60512 -4.72268 0
M  V30 3968 H 380.499 0.335784 -6.0577 0
M  V30 3969 H 379.238 0.653373 -4.83304 0
M  V30 3970 H 378.243 -1.6123 -5.25628 0
M  V30 3971 H 379.468 -1.91993 -6.51395 0
M  V30 3972 H 377.414 0.323763 -6.55201 0
M  V30 3973 H 377.331 -1.1419 -7.47326 0
M  V30 3974 H 378.599 0.00291697 -7.795 0
M  V30 3975 N 382.828 1.3818 -0.7579 0
M  V30 3976 C 383.778 2.27741 -0.108674 0
M  V30 3977 C 384.762 1.45415 0.688709 0
M  V30 3978 O 385.954 1.68108 0.553956 0
M  V30 3979 C 383.083 3.34313 0.780367 0
M  V30 3980 C 382.169 4.24093 -0.0240977 0
M  V30 3981 N 382.56 4.9451 -1.06271 0
M  V30 3982 C 380.858 4.45542 0.202049 0
M  V30 3983 C 381.559 5.60675 -1.54979 0
M  V30 3984 N 380.535 5.36684 -0.864348 0
M  V30 3985 H 384.337 2.79649 -0.904071 0
M  V30 3986 H 381.851 1.51133 -0.594346 0
M  V30 3987 H 383.848 3.97368 1.26114 0
M  V30 3988 H 382.508 2.83962 1.57467 0
M  V30 3989 H 383.519 4.97345 -1.44459 0
M  V30 3990 H 380.196 4.06091 0.96935 0
M  V30 3991 H 381.586 6.26992 -2.41517 0
M  V30 3992 N 384.306 0.507319 1.49211 0
M  V30 3993 C 385.583 -0.0982702 1.95353 0
M  V30 3994 C 385.963 -1.53516 1.449 0
M  V30 3995 O 385.311 -2.18594 0.66551 0
M  V30 3996 C 385.521 -0.00440283 3.49 0
M  V30 3997 C 386.869 -0.175147 4.24239 0
M  V30 3998 O 387.893 -0.0792891 3.56112 0
M  V30 3999 O 386.752 -0.37276 5.45227 0
M  V30 4000 H 383.846 -0.0918236 0.821887 0
M  V30 4001 H 386.392 0.570307 1.5983 0
M  V30 4002 H 385.164 0.997402 3.78375 0
M  V30 4003 H 384.787 -0.712845 3.91158 0
M  V30 4004 N 385.784 -1.5574 0.241426 0
M  V30 4005 C 386.714 -2.24133 -0.654722 0
M  V30 4006 C 387.695 -1.21974 -1.1856 0
M  V30 4007 O 388.88 -1.50612 -1.22595 0
M  V30 4008 C 386.01 -2.93659 -1.85423 0
M  V30 4009 C 384.964 -4.0246 -1.45636 0
M  V30 4010 C 384.29 -4.59383 -2.73626 0
M  V30 4011 C 385.59 -5.18468 -0.631506 0
M  V30 4012 H 387.284 -2.99281 -0.0844353 0
M  V30 4013 H 384.83 -1.43947 -0.0391707 0
M  V30 4014 H 386.783 -3.40203 -2.48676 0
M  V30 4015 H 385.507 -2.15991 -2.44981 0
M  V30 4016 H 384.166 -3.56676 -0.847202 0
M  V30 4017 H 383.814 -3.78422 -3.3137 0
M  V30 4018 H 383.514 -5.32826 -2.4773 0
M  V30 4019 H 385.038 -5.08658 -3.37786 0
M  V30 4020 H 386.452 -5.61272 -1.1682 0
M  V30 4021 H 384.849 -5.98266 -0.468831 0
M  V30 4022 H 385.919 -4.8358 0.357506 0
M  V30 4023 N 387.262 0.0317525 -1.57568 0
M  V30 4024 C 388.539 0.758366 -1.803 0
M  V30 4025 C 388.919 1.93718 -0.838845 0
M  V30 4026 O 388.267 2.28187 0.119571 0
M  V30 4027 C 388.477 1.19392 -3.27943 0
M  V30 4028 C 389.825 1.61094 -3.92854 0
M  V30 4029 O 390.849 1.28857 -3.32076 0
M  V30 4030 O 389.708 2.20918 -4.99858 0
M  V30 4031 H 386.802 0.366514 -0.741348 0
M  V30 4032 H 389.348 0.00873765 -1.69698 0
M  V30 4033 H 388.12 0.352275 -3.89711 0
M  V30 4034 H 387.743 2.00365 -3.43424 0
M  V30 4035 N 388.74 1.54641 0.303973 0
M  V30 4036 C 389.989 1.7299 1.03717 0
M  V30 4037 C 390.302 0.521168 1.88529 0
M  V30 4038 O 391.508 0.586408 2.65092 0
M  V30 4039 C 389.964 3.06051 1.89369 0
M  V30 4040 C 389.572 4.34393 1.09574 0
M  V30 4041 C 391.316 3.3376 2.62306 0
M  V30 4042 C 389.223 5.58506 1.94486 0
M  V30 4043 H 388.153 0.64473 0.390947 0
M  V30 4044 H 390.804 1.81124 0.294328 0
M  V30 4045 H 389.186 2.91874 2.67629 0
M  V30 4046 H 390.36 4.59396 0.359485 0
M  V30 4047 H 388.675 4.13597 0.482324 0
M  V30 4048 H 391.272 4.23687 3.26181 0
M  V30 4049 H 391.615 2.52503 3.3098 0
M  V30 4050 H 392.148 3.48894 1.91097 0
M  V30 4051 H 388.887 6.42422 1.30287 0
M  V30 4052 H 388.407 5.37694 2.65792 0
M  V30 4053 H 390.086 5.95651 2.52605 0
M  V30 4054 N 390.218 -0.567019 1.47046 0
M  V30 4055 C 391.165 -1.67489 1.58796 0
M  V30 4056 C 392.135 -1.60399 0.43144 0
M  V30 4057 O 393.32 -1.79378 0.650233 0
M  V30 4058 C 390.46 -3.05821 1.59899 0
M  V30 4059 C 389.573 -3.2342 2.86397 0
M  V30 4060 C 388.708 -4.52093 2.789 0
M  V30 4061 C 387.747 -4.6309 4.00267 0
M  V30 4062 N 386.884 -5.83106 3.91064 0
M  V30 4063 H 391.724 -1.56785 2.53422 0
M  V30 4064 H 389.261 -0.763896 1.2571 0
M  V30 4065 H 391.219 -3.8591 1.58522 0
M  V30 4066 H 389.849 -3.15384 0.687929 0
M  V30 4067 H 388.901 -2.3683 2.97684 0
M  V30 4068 H 390.213 -3.27412 3.76301 0
M  V30 4069 H 389.367 -5.4043 2.75718 0
M  V30 4070 H 388.106 -4.50565 1.86662 0
M  V30 4071 H 387.111 -3.73168 4.03765 0
M  V30 4072 H 388.336 -4.66386 4.93621 0
M  V30 4073 H 386.282 -5.82546 3.01623 0
M  V30 4074 H 386.199 -5.88434 4.74638 0
M  V30 4075 H 387.467 -6.73831 3.91882 0
M  V30 4076 N 391.696 -1.35014 -0.812953 0
M  V30 4077 C 393.107 -1.25035 -1.38648 0
M  V30 4078 C 393.458 0.119967 -1.95833 0
M  V30 4079 O 392.583 1.02069 -1.90816 0
M  V30 4080 C 393.178 -2.26394 -2.52054 0
M  V30 4081 C 391.737 -2.20175 -3.05287 0
M  V30 4082 C 390.884 -2.12451 -1.78213 0
M  V30 4083 H 393.835 -1.46235 -0.616516 0
M  V30 4084 H 393.856 -1.88672 -3.30429 0
M  V30 4085 H 393.368 -3.26116 -2.10404 0
M  V30 4086 H 391.469 -1.23841 -3.51417 0
M  V30 4087 H 391.582 -3.11863 -3.63701 0
M  V30 4088 H 389.946 -1.58328 -1.9951 0
M  V30 4089 H 390.729 -3.14024 -1.38723 0
M  V30 4090 N 393.175 1.03435 -1.18907 0
M  V30 4091 C 394.403 1.80381 -1.01342 0
M  V30 4092 C 394.818 1.83649 0.438005 0
M  V30 4093 O 394.175 1.27655 1.30424 0
M  V30 4094 C 394.226 3.25689 -1.56873 0
M  V30 4095 O 393.947 3.22673 -2.96334 0
M  V30 4096 C 395.448 4.19255 -1.44014 0
M  V30 4097 H 392.668 0.56784 -0.35749 0
M  V30 4098 H 395.212 1.30317 -1.576 0
M  V30 4099 H 393.367 3.72962 -1.04777 0
M  V30 4100 H 393.781 4.13748 -3.22355 0
M  V30 4101 H 395.255 5.19123 -1.87657 0
M  V30 4102 H 395.732 4.37467 -0.389815 0
M  V30 4103 H 396.338 3.77851 -1.95214 0
M  V30 4104 N 394.653 0.992116 1.22453 0
M  V30 4105 C 395.899 0.668523 1.91464 0
M  V30 4106 C 396.232 -0.797313 1.77078 0
M  V30 4107 O 395.507 -1.5765 1.13916 0
M  V30 4108 C 395.79 1.07424 3.43703 0
M  V30 4109 C 395.643 2.59857 3.67143 0
M  V30 4110 C 396.962 0.626891 4.35612 0
M  V30 4111 H 394.081 0.244341 0.695318 0
M  V30 4112 H 396.723 1.2355 1.44345 0
M  V30 4113 H 394.873 0.591816 3.83966 0
M  V30 4114 H 396.545 3.15764 3.3629 0
M  V30 4115 H 394.788 3.01961 3.11451 0
M  V30 4116 H 395.459 2.83296 4.73759 0
M  V30 4117 H 397.935 1.04125 4.02861 0
M  V30 4118 H 396.811 0.939076 5.40807 0
M  V30 4119 H 397.072 -0.472457 4.39568 0
M  V30 4120 N 396.131 -1.37776 0.765217 0
M  V30 4121 C 397.38 -1.99092 0.323307 0
M  V30 4122 C 397.693 -1.61434 -1.10446 0
M  V30 4123 O 398.899 -2.15805 -1.64743 0
M  V30 4124 C 397.355 -3.56019 0.527098 0
M  V30 4125 C 396.963 -4.0262 1.96471 0
M  V30 4126 C 398.707 -4.2424 0.148483 0
M  V30 4127 C 396.614 -5.52233 2.11644 0
M  V30 4128 H 395.544 -0.744846 0.117137 0
M  V30 4129 H 398.195 -1.57391 0.943417 0
M  V30 4130 H 396.577 -3.95667 -0.162372 0
M  V30 4131 H 397.751 -3.74234 2.68859 0
M  V30 4132 H 396.066 -3.47161 2.29931 0
M  V30 4133 H 398.663 -5.34159 0.240456 0
M  V30 4134 H 399.006 -4.06446 -0.900422 0
M  V30 4135 H 399.539 -3.89872 0.79025 0
M  V30 4136 H 396.278 -5.74945 3.1483 0
M  V30 4137 H 395.798 -5.82324 1.4373 0
M  V30 4138 H 397.477 -6.18106 1.91193 0
M  V30 4139 N 397.609 -0.515225 -1.4894 0
M  V30 4140 C 398.834 0.022727 -2.07388 0
M  V30 4141 C 399.259 1.2876 -1.37122 0
M  V30 4142 O 398.617 1.76067 -0.432431 0
M  V30 4143 C 398.665 0.244869 -3.59768 0
M  V30 4144 O 397.769 1.31667 -3.90817 0
M  V30 4145 H 397.11 -0.0325506 -0.663202 0
M  V30 4146 H 399.64 -0.718918 -1.91553 0
M  V30 4147 H 399.65 0.47205 -4.0526 0
M  V30 4148 H 398.325 -0.679194 -4.10317 0
M  V30 4149 H 396.902 1.07331 -3.5712 0
M  V30 4150 N 399.087 1.5561 -0.249682 0
M  V30 4151 C 400.037 2.18157 0.662673 0
M  V30 4152 C 401.021 1.1383 1.13717 0
M  V30 4153 O 402.213 1.39731 1.08648 0
M  V30 4154 C 399.342 2.88672 1.85805 0
M  V30 4155 C 398.428 4.00258 1.40193 0
M  V30 4156 N 398.819 5.01473 0.660213 0
M  V30 4157 C 397.117 4.12864 1.68698 0
M  V30 4158 C 397.818 5.80155 0.423695 0
M  V30 4159 N 396.794 5.34533 0.988721 0
M  V30 4160 H 400.596 2.93769 0.0878688 0
M  V30 4161 H 398.11 1.62316 -0.0521183 0
M  V30 4162 H 400.107 3.31912 2.5227 0
M  V30 4163 H 398.767 2.14564 2.43705 0
M  V30 4164 H 399.778 5.16971 0.310047 0
M  V30 4165 H 396.455 3.4993 2.27717 0
M  V30 4166 H 397.845 6.71688 -0.168616 0
M  V30 4167 N 400.565 -0.0233959 1.57583 0
M  V30 4168 C 401.981 -0.379134 1.55031 0
M  V30 4169 C 402.181 -1.76255 0.976548 0
M  V30 4170 O 401.237 -2.45266 0.600078 0
M  V30 4171 C 402.55 -0.275792 2.99433 0
M  V30 4172 C 404.098 -0.352458 3.11009 0
M  V30 4173 C 404.573 -0.278501 4.57152 0
M  V30 4174 N 406.064 -0.337123 4.61972 0
M  V30 4175 C 406.799 -0.302876 5.726 0
M  V30 4176 N 406.295 -0.220589 6.92449 0
M  V30 4177 N 408.088 -0.353023 5.6099 0
M  V30 4178 H 400.239 0.881869 1.93227 0
M  V30 4179 H 402.502 0.335867 0.886509 0
M  V30 4180 H 402.208 0.675108 3.4516 0
M  V30 4181 H 402.082 -1.06721 3.61788 0
M  V30 4182 H 404.469 -1.29379 2.65226 0
M  V30 4183 H 404.55 0.468409 2.51475 0
M  V30 4184 H 404.194 0.659189 5.03604 0
M  V30 4185 H 404.124 -1.11755 5.14605 0
M  V30 4186 H 406.615 -0.403002 3.75745 0
M  V30 4187 H 406.928 -0.199713 7.72542 0
M  V30 4188 H 405.273 -0.186555 6.9475 0
M  V30 4189 H 408.464 -0.415339 4.66254 0
M  V30 4190 H 408.637 -0.322866 6.47195 0
M  V30 4191 N 402.043 -1.548 -0.295768 0
M  V30 4192 C 402.973 -1.89115 -1.36959 0
M  V30 4193 C 403.954 -0.75059 -1.52644 0
M  V30 4194 O 405.139 -1.00678 -1.66065 0
M  V30 4195 C 402.269 -2.14307 -2.73295 0
M  V30 4196 C 401.223 -3.30151 -2.72368 0
M  V30 4197 C 400.549 -3.40772 -4.12042 0
M  V30 4198 C 401.849 -4.67126 -2.33646 0
M  V30 4199 H 403.543 -2.79053 -1.08488 0
M  V30 4200 H 401.089 -1.34266 -0.520443 0
M  V30 4201 H 403.042 -2.36898 -3.48507 0
M  V30 4202 H 401.766 -1.21145 -3.03301 0
M  V30 4203 H 400.425 -3.0749 -1.99613 0
M  V30 4204 H 400.073 -2.45117 -4.39234 0
M  V30 4205 H 399.773 -4.18645 -4.12322 0
M  V30 4206 H 401.297 -3.6563 -4.89027 0
M  V30 4207 H 402.711 -4.89414 -2.98575 0
M  V30 4208 H 401.108 -5.47751 -2.45129 0
M  V30 4209 H 402.178 -4.67489 -1.28772 0
M  V30 4210 N 403.521 0.559213 -1.47345 0
M  V30 4211 C 404.471 1.66192 -1.5609 0
M  V30 4212 C 405.455 1.55323 -0.419957 0
M  V30 4213 O 406.647 1.63839 -0.669762 0
M  V30 4214 C 403.776 3.0497 -1.57634 0
M  V30 4215 C 402.862 3.2105 -2.77106 0
M  V30 4216 N 403.253 3.07203 -4.01821 0
M  V30 4217 C 401.551 3.52046 -2.73825 0
M  V30 4218 C 402.252 3.25919 -4.81821 0
M  V30 4219 N 401.228 3.52161 -4.14106 0
M  V30 4220 H 405.03 1.54052 -2.5029 0
M  V30 4221 H 402.544 0.763914 -1.43311 0
M  V30 4222 H 404.541 3.84142 -1.61989 0
M  V30 4223 H 403.201 3.18224 -0.645281 0
M  V30 4224 H 404.212 2.84572 -4.32711 0
M  V30 4225 H 400.889 3.71839 -1.89848 0
M  V30 4226 H 402.279 3.20198 -5.90697 0
M  V30 4227 N 404.999 1.35443 0.805782 0
M  V30 4228 C 406.246 1.28761 1.56291 0
M  V30 4229 C 406.574 -0.137747 1.94012 0
M  V30 4230 O 405.829 -1.1032 1.61642 0
M  V30 4231 C 406.128 2.14045 2.86216 0
M  V30 4232 C 405.794 3.62826 2.67709 0
M  V30 4233 C 404.456 4.0338 2.6237 0
M  V30 4234 C 406.808 4.57227 2.50186 0
M  V30 4235 C 404.136 5.36501 2.37451 0
M  V30 4236 C 406.488 5.90547 2.26797 0
M  V30 4237 C 405.152 6.30245 2.1988 0
M  V30 4238 H 404.422 0.471171 0.571908 0
M  V30 4239 H 407.069 1.67347 0.930974 0
M  V30 4240 H 405.374 1.68342 3.53791 0
M  V30 4241 H 407.071 2.0621 3.43917 0
M  V30 4242 H 403.661 3.30644 2.72713 0
M  V30 4243 H 407.845 4.2678 2.53323 0
M  V30 4244 H 403.101 5.66259 2.30567 0
M  V30 4245 H 407.275 6.63274 2.12228 0
M  V30 4246 H 404.902 7.33328 2.00333 0
M  V30 4247 N 406.477 -1.02803 1.19454 0
M  V30 4248 C 407.888 -1.57667 0.999899 0
M  V30 4249 C 408.239 -1.91041 -0.446956 0
M  V30 4250 O 407.364 -1.70978 -1.32648 0
M  V30 4251 C 407.959 -2.86477 1.80877 0
M  V30 4252 C 406.518 -3.37911 1.65811 0
M  V30 4253 C 405.665 -2.11343 1.79526 0
M  V30 4254 H 408.616 -0.853214 1.33813 0
M  V30 4255 H 408.637 -3.57408 1.30536 0
M  V30 4256 H 408.149 -2.62155 2.86175 0
M  V30 4257 H 406.25 -3.67218 0.63102 0
M  V30 4258 H 406.363 -4.10885 2.46395 0
M  V30 4259 H 404.727 -2.23254 1.22596 0
M  V30 4260 H 405.51 -1.89461 2.86285 0
M  V30 4261 N 407.956 -0.998596 -1.21925 0
M  V30 4262 C 408.866 -0.562736 -2.27751 0
M  V30 4263 C 409.882 0.391203 -1.69545 0
M  V30 4264 O 411.058 0.256625 -1.99758 0
M  V30 4265 C 408.123 0.11012 -3.46525 0
M  V30 4266 C 407.184 -0.887495 -4.20026 0
M  V30 4267 C 406.417 -0.246654 -5.3313 0
M  V30 4268 O 406.64 0.958088 -5.62296 0
M  V30 4269 O 405.574 -0.954374 -5.94286 0
M  V30 4270 H 409.4 -1.44329 -2.67213 0
M  V30 4271 H 406.985 -0.767135 -1.28201 0
M  V30 4272 H 408.867 0.486756 -4.18579 0
M  V30 4273 H 407.542 0.965154 -3.08976 0
M  V30 4274 H 406.449 -1.31517 -3.5022 0
M  V30 4275 H 407.782 -1.71191 -4.6147 0
M  V30 4276 N 409.434 1.37368 -0.772513 0
M  V30 4277 C 410.682 1.99279 -0.336516 0
M  V30 4278 C 411.003 1.6163 1.09091 0
M  V30 4279 O 410.273 0.882109 1.74916 0
M  V30 4280 H 408.853 0.737063 -0.121435 0
M  V30 4281 H 411.515 1.67836 -0.990809 0
M  V30 4282 H 410.611 3.09332 -0.414763 0
M  V30 4283 N 410.912 0.523116 1.48665 0
M  V30 4284 C 412.16 -0.0134497 2.02096 0
M  V30 4285 C 412.481 -1.35418 1.40311 0
M  V30 4286 O 411.751 -1.87543 0.566074 0
M  V30 4287 H 410.331 -0.00795915 0.746958 0
M  V30 4288 H 412.993 0.685388 1.82451 0
M  V30 4289 H 412.089 -0.126849 3.11842 0
M  V30 4290 N 412.39 -1.55475 0.257931 0
M  V30 4291 C 413.615 -2.04064 -0.370488 0
M  V30 4292 C 414.04 -1.13565 -1.49948 0
M  V30 4293 O 413.398 -0.130781 -1.80828 0
M  V30 4294 C 413.446 -3.50554 -0.845237 0
M  V30 4295 O 412.55 -3.63173 -1.95394 0
M  V30 4296 H 411.891 -0.659257 -0.0792243 0
M  V30 4297 H 414.421 -2.00903 0.387212 0
M  V30 4298 H 414.431 -3.91588 -1.14555 0
M  V30 4299 H 413.106 -4.15896 -0.0191259 0
M  V30 4300 H 411.683 -3.34039 -1.65748 0
M  V30 4301 N 413.868 0.0150385 -1.57593 0
M  V30 4302 C 414.798 1.01047 -2.10503 0
M  V30 4303 C 415.779 1.36816 -1.01071 0
M  V30 4304 O 416.964 1.45455 -1.28672 0
M  V30 4305 C 414.094 2.30708 -2.59598 0
M  V30 4306 C 413.048 2.09142 -3.73421 0
M  V30 4307 C 412.374 3.44685 -4.08774 0
M  V30 4308 C 413.674 1.46619 -5.01298 0
M  V30 4309 H 415.368 0.569978 -2.93925 0
M  V30 4310 H 412.914 0.272724 -1.41394 0
M  V30 4311 H 414.867 3.00687 -2.95238 0
M  V30 4312 H 413.591 2.76843 -1.73279 0
M  V30 4313 H 412.25 1.41592 -3.38153 0
M  V30 4314 H 411.898 3.88495 -3.195 0
M  V30 4315 H 411.598 3.31077 -4.8545 0
M  V30 4316 H 413.122 4.16004 -4.4696 0
M  V30 4317 H 414.536 2.06535 -5.34805 0
M  V30 4318 H 412.933 1.43544 -5.82679 0
M  V30 4319 H 414.003 0.433611 -4.82957 0
M  V30 4320 N 415.346 1.54954 0.287554 0
M  V30 4321 C 416.309 1.86076 1.33823 0
M  V30 4322 C 417.309 0.734414 1.43049 0
M  V30 4323 O 418.499 1.00266 1.42452 0
M  V30 4324 C 415.631 2.05305 2.72144 0
M  V30 4325 H 416.824 2.79984 1.07465 0
M  V30 4326 H 414.377 1.47223 0.524902 0
M  V30 4327 H 415.112 1.1373 3.03704 0
M  V30 4328 H 414.897 2.873 2.66836 0
M  V30 4329 H 416.387 2.30706 3.48087 0
M  V30 4330 N 416.824 -0.551391 1.4764 0
M  V30 4331 C 417.787 -1.64007 1.60107 0
M  V30 4332 C 418.787 -1.53601 0.47576 0
M  V30 4333 O 419.977 -1.57655 0.740988 0
M  V30 4334 C 417.109 -3.03569 1.55108 0
M  V30 4335 H 418.302 -1.543 2.57161 0
M  V30 4336 H 415.855 -0.771776 1.35917 0
M  V30 4337 H 416.59 -3.18804 0.594519 0
M  V30 4338 H 416.375 -3.12532 2.36783 0
M  V30 4339 H 417.865 -3.82762 1.66982 0
M  V30 4340 N 418.302 -1.35869 -0.798587 0
M  V30 4341 C 419.232 -1.32118 -1.92528 0
M  V30 4342 C 420.213 -0.194209 -1.68988 0
M  V30 4343 O 421.398 -0.390426 -1.90235 0
M  V30 4344 C 418.528 -1.10047 -3.29404 0
M  V30 4345 C 417.482 -2.19471 -3.67446 0
M  V30 4346 C 416.808 -1.82555 -5.02571 0
M  V30 4347 C 418.108 -3.61495 -3.76987 0
M  V30 4348 H 419.802 -2.26394 -1.95924 0
M  V30 4349 H 417.348 -1.08981 -0.94123 0
M  V30 4350 H 419.301 -1.06061 -4.07835 0
M  V30 4351 H 418.025 -0.122195 -3.26371 0
M  V30 4352 H 416.684 -2.22568 -2.91306 0
M  V30 4353 H 416.332 -0.833249 -4.9605 0
M  V30 4354 H 416.032 -2.5581 -5.28995 0
M  V30 4355 H 417.556 -1.80108 -5.83432 0
M  V30 4356 H 418.97 -3.60676 -4.4563 0
M  V30 4357 H 417.367 -4.33577 -4.14887 0
M  V30 4358 H 418.437 -3.97065 -2.78329 0
M  V30 4359 N 419.78 1.02168 -1.19998 0
M  V30 4360 C 421.008 1.79296 -1.03249 0
M  V30 4361 C 421.423 1.84103 0.418502 0
M  V30 4362 O 420.78 1.29031 1.29063 0
M  V30 4363 C 420.831 3.24007 -1.60319 0
M  V30 4364 O 420.552 3.19512 -2.99739 0
M  V30 4365 C 422.053 4.17704 -1.48453 0
M  V30 4366 H 419.273 0.564016 -0.363493 0
M  V30 4367 H 421.817 1.28639 -1.58973 0
M  V30 4368 H 419.972 3.7183 -1.08727 0
M  V30 4369 H 420.386 4.10306 -3.26725 0
M  V30 4370 H 421.86 5.17104 -1.93153 0
M  V30 4371 H 422.337 4.37029 -0.436193 0
M  V30 4372 H 422.943 3.7576 -1.99211 0
M  V30 4373 N 421.258 1.00505 1.21394 0
M  V30 4374 C 422.221 0.570459 2.21987 0
M  V30 4375 C 423.221 -0.353211 1.56873 0
M  V30 4376 O 424.411 -0.14349 1.73608 0
M  V30 4377 C 421.543 -0.168555 3.40483 0
M  V30 4378 H 422.736 1.46021 2.6195 0
M  V30 4379 H 420.289 0.793565 1.34656 0
M  V30 4380 H 421.024 -1.07374 3.06009 0
M  V30 4381 H 420.809 0.494823 3.88965 0
M  V30 4382 H 422.299 -0.460362 4.15055 0
M  V30 4383 N 422.737 -1.36956 0.779787 0
M  V30 4384 C 423.687 -2.27539 0.144892 0
M  V30 4385 C 424.671 -1.46493 -0.665488 0
M  V30 4386 O 425.863 -1.68968 -0.527141 0
M  V30 4387 C 422.992 -3.35512 -0.727082 0
M  V30 4388 C 422.078 -4.24001 0.0915642 0
M  V30 4389 N 422.469 -4.92757 1.14125 0
M  V30 4390 C 420.767 -4.45807 -0.131141 0
M  V30 4391 C 421.468 -5.58138 1.6388 0
M  V30 4392 N 420.444 -5.35241 0.94962 0
M  V30 4393 H 424.246 -2.78176 0.948446 0
M  V30 4394 H 421.76 -1.50169 0.618315 0
M  V30 4395 H 423.757 -3.99324 -1.19776 0
M  V30 4396 H 422.417 -2.86431 -1.52929 0
M  V30 4397 H 423.428 -4.94984 1.52353 0
M  V30 4398 H 420.105 -4.07582 -0.904621 0
M  V30 4399 H 421.495 -6.23071 2.51461 0
M  V30 4400 N 424.215 -0.530993 -1.48385 0
M  V30 4401 C 425.147 0.268353 -2.27624 0
M  V30 4402 C 426.16 0.903525 -1.35426 0
M  V30 4403 O 427.349 0.781796 -1.60469 0
M  V30 4404 C 424.449 1.39535 -3.08842 0
M  V30 4405 C 423.622 0.861913 -4.28824 0
M  V30 4406 C 422.681 1.87016 -4.91845 0
M  V30 4407 O 421.707 1.4267 -5.5103 0
M  V30 4408 N 422.909 3.20238 -4.84178 0
M  V30 4409 H 425.674 -0.41123 -2.96865 0
M  V30 4410 H 423.235 -0.365387 -1.57723 0
M  V30 4411 H 425.227 2.06803 -3.47871 0
M  V30 4412 H 423.797 1.97859 -2.42014 0
M  V30 4413 H 423.017 0.0132126 -3.94198 0
M  V30 4414 H 424.305 0.484415 -5.06489 0
M  V30 4415 H 423.703 3.58932 -4.37246 0
M  V30 4416 H 422.26 3.83136 -5.27305 0
M  V30 4417 N 425.693 1.55336 -0.266172 0
M  V30 4418 C 426.656 2.20878 0.612001 0
M  V30 4419 C 427.656 1.18388 1.08816 0
M  V30 4420 O 428.846 1.4335 0.989774 0
M  V30 4421 C 425.978 2.86765 1.84332 0
M  V30 4422 H 427.171 2.99873 0.0398718 0
M  V30 4423 H 424.724 1.56291 -0.0167309 0
M  V30 4424 H 425.459 2.11759 2.45619 0
M  V30 4425 H 425.244 3.61862 1.5099 0
M  V30 4426 H 426.734 3.36867 2.46801 0
M  V30 4427 N 427.171 -0.0066808 1.57599 0
M  V30 4428 C 428.411 -0.697501 1.92131 0
M  V30 4429 C 428.775 -1.71306 0.867071 0
M  V30 4430 O 429.976 -2.45377 1.09743 0
M  V30 4431 C 428.247 -1.32978 3.3174 0
M  V30 4432 S 429.806 -2.04665 3.88146 0
M  V30 4433 H 426.624 -0.230555 0.672581 0
M  V30 4434 H 429.226 0.0484026 1.9544 0
M  V30 4435 H 427.93 -0.57772 4.06313 0
M  V30 4436 H 427.461 -2.11376 3.31789 0
M  V30 4437 H 429.476 -3.32097 3.68682 0
M  V30 4438 N 428.649 -1.55105 -0.279332 0
M  V30 4439 C 429.599 -1.83937 -1.34727 0
M  V30 4440 C 430.583 -0.69785 -1.44979 0
M  V30 4441 O 431.775 -0.95904 -1.48766 0
M  V30 4442 C 428.904 -2.1092 -2.70864 0
M  V30 4443 C 427.99 -3.31314 -2.64748 0
M  V30 4444 N 428.381 -4.51371 -2.2825 0
M  V30 4445 C 426.679 -3.33777 -2.95819 0
M  V30 4446 C 427.38 -5.33447 -2.31969 0
M  V30 4447 N 426.356 -4.71697 -2.7019 0
M  V30 4448 H 430.158 -2.74309 -1.05506 0
M  V30 4449 H 427.672 -1.54896 -0.487959 0
M  V30 4450 H 429.669 -2.2973 -3.47893 0
M  V30 4451 H 428.329 -1.21828 -3.00979 0
M  V30 4452 H 429.34 -4.77584 -2.00335 0
M  V30 4453 H 426.017 -2.54858 -3.30687 0
M  V30 4454 H 427.407 -6.39424 -2.06365 0
M  V30 4455 N 430.127 0.543554 -1.4793 0
M  V30 4456 C 431.057 1.65888 -1.64327 0
M  V30 4457 C 432.038 1.62818 -0.492383 0
M  V30 4458 O 433.223 1.80226 -0.723338 0
M  V30 4459 C 430.353 3.04506 -1.67013 0
M  V30 4460 C 429.307 3.2243 -2.81466 0
M  V30 4461 C 428.633 4.61972 -2.69233 0
M  V30 4462 C 429.933 3.06496 -4.22915 0
M  V30 4463 H 431.627 1.52421 -2.57698 0
M  V30 4464 H 429.173 0.731849 -1.24016 0
M  V30 4465 H 431.126 3.82391 -1.77074 0
M  V30 4466 H 429.85 3.18964 -0.70212 0
M  V30 4467 H 428.509 2.46957 -2.70938 0
M  V30 4468 H 428.157 4.73247 -1.7043 0
M  V30 4469 H 427.857 4.74911 -3.46025 0
M  V30 4470 H 429.381 5.41974 -2.81242 0
M  V30 4471 H 430.795 3.74186 -4.34348 0
M  V30 4472 H 429.192 3.30938 -5.006 0
M  V30 4473 H 430.262 2.03077 -4.40327 0
M  V30 4474 N 431.605 1.3629 0.791371 0
M  V30 4475 C 433.016 1.27225 1.36641 0
M  V30 4476 C 433.367 -0.0887968 1.95999 0
M  V30 4477 O 432.492 -0.990207 1.92416 0
M  V30 4478 C 433.087 2.30375 2.48421 0
M  V30 4479 C 431.646 2.25004 3.01746 0
M  V30 4480 C 430.793 2.15259 1.7481 0
M  V30 4481 H 433.744 1.47198 0.593173 0
M  V30 4482 H 433.765 1.93905 3.27385 0
M  V30 4483 H 433.277 3.29422 2.05189 0
M  V30 4484 H 431.378 1.29417 3.49403 0
M  V30 4485 H 431.491 3.1761 3.58693 0
M  V30 4486 H 429.855 1.61482 1.96966 0
M  V30 4487 H 430.638 3.16191 1.33709 0
M  V30 4488 N 433.083 -1.0153 1.20538 0
M  V30 4489 C 434.013 -2.11972 0.979295 0
M  V30 4490 C 434.994 -1.6985 -0.0921787 0
M  V30 4491 O 436.179 -1.94089 0.0655932 0
M  V30 4492 C 433.309 -3.43201 0.531984 0
M  V30 4493 C 432.263 -3.9907 1.54685 0
M  V30 4494 C 431.589 -5.26082 0.956127 0
M  V30 4495 C 432.889 -4.32313 2.93092 0
M  V30 4496 H 434.583 -2.31143 1.90298 0
M  V30 4497 H 432.129 -1.11079 0.916372 0
M  V30 4498 H 434.082 -4.1985 0.361044 0
M  V30 4499 H 432.806 -3.23792 -0.427327 0
M  V30 4500 H 431.465 -3.2453 1.70517 0
M  V30 4501 H 431.113 -5.02999 -0.0111538 0
M  V30 4502 H 430.813 -5.64426 1.63393 0
M  V30 4503 H 432.337 -6.05386 0.796284 0
M  V30 4504 H 433.751 -4.99845 2.80763 0
M  V30 4505 H 432.148 -4.81774 3.57791 0
M  V30 4506 H 433.218 -3.41025 3.44717 0
M  V30 4507 N 434.561 -1.01147 -1.20859 0
M  V30 4508 C 435.471 -0.58686 -2.27141 0
M  V30 4509 C 436.487 0.373198 -1.69951 0
M  V30 4510 O 437.663 0.235423 -2.00019 0
M  V30 4511 C 434.728 0.0733602 -3.46622 0
M  V30 4512 C 433.789 -0.931995 -4.19061 0
M  V30 4513 C 433.022 -0.303186 -5.32838 0
M  V30 4514 O 433.245 0.898395 -5.63281 0
M  V30 4515 O 432.179 -1.01735 -5.9324 0
M  V30 4516 H 436.005 -1.47155 -2.65667 0
M  V30 4517 H 433.59 -0.780689 -1.2738 0
M  V30 4518 H 435.472 0.442333 -4.19072 0
M  V30 4519 H 434.147 0.932329 -3.09983 0
M  V30 4520 H 433.054 -1.35224 -3.48805 0
M  V30 4521 H 434.387 -1.76076 -4.59628 0
M  V30 4522 N 436.039 1.36541 -0.78704 0
M  V30 4523 C 437.267 2.03561 -0.370199 0
M  V30 4524 C 437.682 1.59347 1.01263 0
M  V30 4525 O 437.039 0.781781 1.64907 0
M  V30 4526 C 437.09 3.59033 -0.421614 0
M  V30 4527 O 436.811 4.01634 -1.7499 0
M  V30 4528 C 438.312 4.433 0.00489763 0
M  V30 4529 H 435.532 0.653346 -0.152904 0
M  V30 4530 H 438.076 1.74566 -1.06522 0
M  V30 4531 H 436.231 3.86746 0.224971 0
M  V30 4532 H 436.645 4.96217 -1.69909 0
M  V30 4533 H 438.119 5.51939 -0.0822184 0
M  V30 4534 H 438.596 4.26285 1.05723 0
M  V30 4535 H 439.202 4.20843 -0.614085 0
M  V30 4536 N 437.518 0.538854 1.48102 0
M  V30 4537 C 438.765 0.0080018 2.02498 0
M  V30 4538 C 439.093 -1.33437 1.41509 0
M  V30 4539 O 438.348 -1.87709 0.553507 0
M  V30 4540 C 438.647 -0.153808 3.57069 0
M  V30 4541 C 438.313 1.11533 4.36888 0
M  V30 4542 C 436.975 1.46314 4.58417 0
M  V30 4543 C 439.327 1.95718 4.83057 0
M  V30 4544 C 436.655 2.6516 5.23361 0
M  V30 4545 C 439.007 3.13751 5.49312 0
M  V30 4546 C 437.671 3.48866 5.69077 0
M  V30 4547 H 436.941 0.00292807 0.740994 0
M  V30 4548 H 439.588 0.706668 1.77984 0
M  V30 4549 H 437.893 -0.935309 3.80472 0
M  V30 4550 H 439.59 -0.579607 3.96789 0
M  V30 4551 H 436.18 0.834484 4.20398 0
M  V30 4552 H 440.364 1.70158 4.66219 0
M  V30 4553 H 435.62 2.92558 5.36861 0
M  V30 4554 H 439.794 3.79282 5.84053 0
M  V30 4555 H 437.421 4.41054 6.19173 0
M  V30 4556 N 438.996 -1.55193 0.274407 0
M  V30 4557 C 440.224 -2.03987 -0.345943 0
M  V30 4558 C 440.639 -1.15279 -1.4952 0
M  V30 4559 O 439.996 -0.172759 -1.8168 0
M  V30 4560 C 440.047 -3.51898 -0.827631 0
M  V30 4561 O 439.768 -4.37231 0.275855 0
M  V30 4562 C 441.269 -4.16577 -1.51587 0
M  V30 4563 H 438.489 -0.666335 -0.0789892 0
M  V30 4564 H 441.033 -2.00423 0.406294 0
M  V30 4565 H 439.188 -3.55909 -1.52996 0
M  V30 4566 H 439.602 -5.24415 -0.0943638 0
M  V30 4567 H 441.076 -5.21678 -1.80433 0
M  V30 4568 H 441.553 -3.64707 -2.44716 0
M  V30 4569 H 442.159 -4.16568 -0.857409 0
M  V30 4570 N 440.474 -0.00167713 -1.576 0
M  V30 4571 C 441.89 0.354422 -1.55615 0
M  V30 4572 C 442.09 1.74679 -1.00447 0
M  V30 4573 O 441.146 2.4428 -0.639022 0
M  V30 4574 C 442.459 0.22812 -2.99833 0
M  V30 4575 C 444.007 0.302934 -3.11531 0
M  V30 4576 C 444.482 0.205737 -4.57538 0
M  V30 4577 N 445.973 0.263584 -4.62449 0
M  V30 4578 C 446.708 0.211742 -5.73009 0
M  V30 4579 N 446.204 0.110399 -6.92712 0
M  V30 4580 N 447.997 0.263729 -5.61481 0
M  V30 4581 H 440.148 -0.912498 -1.918 0
M  V30 4582 H 442.411 -0.349928 -0.881053 0
M  V30 4583 H 442.117 -0.729934 -3.44042 0
M  V30 4584 H 441.991 1.00951 -3.6344 0
M  V30 4585 H 444.378 1.25143 -2.67251 0
M  V30 4586 H 444.459 -0.508357 -2.50698 0
M  V30 4587 H 444.103 -0.739225 -5.02492 0
M  V30 4588 H 444.033 1.03554 -5.16318 0
M  V30 4589 H 446.524 0.343173 -3.76339 0
M  V30 4590 H 446.837 0.0767828 -7.72762 0
M  V30 4591 H 445.182 0.0760025 -6.94958 0
M  V30 4592 H 448.373 0.34111 -4.66855 0
M  V30 4593 H 448.546 0.219862 -6.47627 0
M  V30 4594 N 441.952 1.55251 0.271103 0
M  V30 4595 C 442.902 1.84649 1.33749 0
M  V30 4596 C 443.886 0.705529 1.44607 0
M  V30 4597 O 445.078 0.966916 1.48256 0
M  V30 4598 C 442.207 2.12354 2.69742 0
M  V30 4599 C 441.293 3.32714 2.62988 0
M  V30 4600 N 441.684 4.52575 2.25853 0
M  V30 4601 C 439.982 3.35341 2.94045 0
M  V30 4602 C 440.683 5.34669 2.29136 0
M  V30 4603 N 439.659 4.73123 2.67685 0
M  V30 4604 H 443.461 2.74865 1.0405 0
M  V30 4605 H 440.975 1.55152 0.479738 0
M  V30 4606 H 442.972 2.31572 3.4667 0
M  V30 4607 H 441.632 1.23422 3.00328 0
M  V30 4608 H 442.643 4.78639 1.978 0
M  V30 4609 H 439.32 2.56608 3.2933 0
M  V30 4610 H 440.71 6.40509 2.02971 0
M  V30 4611 N 443.43 -0.535701 1.48216 0
M  V30 4612 C 444.846 -0.863701 1.3421 0
M  V30 4613 C 445.046 -1.98458 0.34879 0
M  V30 4614 O 444.102 -2.51432 -0.23204 0
M  V30 4615 C 445.415 -1.23662 2.74095 0
M  V30 4616 C 446.963 -1.34683 2.82541 0
M  V30 4617 C 447.438 -1.75322 4.23115 0
M  V30 4618 N 448.929 -1.82434 4.2576 0
M  V30 4619 C 449.664 -2.15252 5.31464 0
M  V30 4620 N 449.16 -2.46533 6.47452 0
M  V30 4621 N 450.953 -2.16209 5.18855 0
M  V30 4622 H 443.104 0.203965 2.11418 0
M  V30 4623 H 445.367 0.0286033 0.947568 0
M  V30 4624 H 445.073 -0.486674 3.48316 0
M  V30 4625 H 444.947 -2.18805 3.07253 0
M  V30 4626 H 447.334 -2.08756 2.08579 0
M  V30 4627 H 447.415 -0.376756 2.5301 0
M  V30 4628 H 447.059 -1.01812 4.97591 0
M  V30 4629 H 446.989 -2.7337 4.50085 0
M  V30 4630 H 449.48 -1.6056 3.42095 0
M  V30 4631 H 449.793 -2.70662 7.23852 0
M  V30 4632 H 448.138 -2.44065 6.50736 0
M  V30 4633 H 451.329 -1.91224 4.2726 0
M  V30 4634 H 451.502 -2.41453 6.01335 0
M  V30 4635 N 444.908 -1.36708 -0.784132 0
M  V30 4636 C 445.84 -1.27333 -1.90575 0
M  V30 4637 C 446.853 -0.191706 -1.61667 0
M  V30 4638 O 448.042 -0.446854 -1.72816 0
M  V30 4639 C 445.142 -0.943177 -3.25511 0
M  V30 4640 C 444.315 -2.12776 -3.82158 0
M  V30 4641 C 443.374 -1.76983 -4.95544 0
M  V30 4642 O 442.4 -2.49134 -5.11782 0
M  V30 4643 N 443.602 -0.706624 -5.76183 0
M  V30 4644 H 446.367 -2.23974 -1.99138 0
M  V30 4645 H 443.928 -1.30171 -0.962656 0
M  V30 4646 H 445.92 -0.684799 -3.98864 0
M  V30 4647 H 444.49 -0.0657333 -3.12531 0
M  V30 4648 H 443.71 -2.54863 -3.0073 0
M  V30 4649 H 444.998 -2.91904 -4.16737 0
M  V30 4650 H 444.396 -0.107643 -5.65598 0
M  V30 4651 H 442.953 -0.50808 -6.49817 0
M  V30 4652 N 446.386 1.0089 -1.21074 0
M  V30 4653 C 447.797 1.56056 -1.02486 0
M  V30 4654 C 448.148 1.91728 0.416506 0
M  V30 4655 O 447.273 1.73066 1.29912 0
M  V30 4656 C 447.868 2.83563 -1.85411 0
M  V30 4657 C 446.427 3.3523 -1.71166 0
M  V30 4658 C 445.574 2.0846 -1.82865 0
M  V30 4659 H 448.525 0.831818 -1.35154 0
M  V30 4660 H 448.546 3.55286 -1.36205 0
M  V30 4661 H 448.058 2.57569 -2.9031 0
M  V30 4662 H 446.159 3.66167 -0.689361 0
M  V30 4663 H 446.272 4.06913 -2.52901 0
M  V30 4664 H 444.636 2.21275 -1.26132 0
M  V30 4665 H 445.419 1.84883 -2.89263 0
M  V30 4666 N 447.864 1.01787 1.20321 0
M  V30 4667 C 449.28 0.732951 1.41774 0
M  V30 4668 C 449.48 -0.686883 1.89431 0
M  V30 4669 O 448.536 -1.45446 2.06402 0
M  V30 4670 C 449.849 1.75973 2.43832 0
M  V30 4671 C 451.397 1.77802 2.57596 0
M  V30 4672 C 451.872 2.7941 3.62897 0
M  V30 4673 N 453.363 2.78157 3.70382 0
M  V30 4674 C 454.098 3.53434 4.51521 0
M  V30 4675 N 453.594 4.38392 5.36455 0
M  V30 4676 N 455.387 3.42026 4.46066 0
M  V30 4677 H 447.538 1.93447 0.877035 0
M  V30 4678 H 449.801 0.835712 0.447536 0
M  V30 4679 H 449.507 2.77699 2.15815 0
M  V30 4680 H 449.381 1.57292 3.4284 0
M  V30 4681 H 451.768 0.767602 2.84942 0
M  V30 4682 H 451.849 2.00557 1.58779 0
M  V30 4683 H 451.493 3.80616 3.36295 0
M  V30 4684 H 451.423 2.53916 4.61339 0
M  V30 4685 H 453.914 2.16531 3.09714 0
M  V30 4686 H 454.227 4.92596 5.95457 0
M  V30 4687 H 452.572 4.4247 5.35953 0
M  V30 4688 H 455.763 2.75075 3.78749 0
M  V30 4689 H 455.936 4.00946 5.09064 0
M  V30 4690 N 449.342 -1.36122 0.79427 0
M  V30 4691 C 450.59 -1.98718 0.368177 0
M  V30 4692 C 450.911 -1.63345 -1.06506 0
M  V30 4693 O 450.181 -0.909825 -1.73491 0
M  V30 4694 H 448.761 -0.735038 0.133146 0
M  V30 4695 H 451.423 -1.66239 1.01739 0
M  V30 4696 H 450.519 -3.08633 0.463923 0
M  V30 4697 N 450.82 -0.546701 -1.47814 0
M  V30 4698 C 452.066 -0.0269594 -2.03382 0
M  V30 4699 C 452.421 1.30406 -1.41464 0
M  V30 4700 O 451.714 1.8332 -0.557151 0
M  V30 4701 C 451.908 0.134869 -3.57145 0
M  V30 4702 C 451.737 -1.17891 -4.33972 0
M  V30 4703 C 450.507 -1.74336 -4.74273 0
M  V30 4704 C 452.705 -2.09361 -4.69758 0
M  V30 4705 N 450.687 -2.99829 -5.35701 0
M  V30 4706 C 452.058 -3.19431 -5.31379 0
M  V30 4707 C 454.113 -2.09484 -4.51687 0
M  V30 4708 C 452.816 -4.2971 -5.76838 0
M  V30 4709 C 454.842 -3.18767 -4.98138 0
M  V30 4710 C 454.204 -4.27557 -5.59799 0
M  V30 4711 H 450.303 -0.0517733 -0.780284 0
M  V30 4712 H 452.887 -0.731673 -1.80429 0
M  V30 4713 H 451.058 0.80869 -3.79888 0
M  V30 4714 H 452.79 0.655726 -3.99352 0
M  V30 4715 H 449.545 -1.28265 -4.559 0
M  V30 4716 H 449.969 -3.63765 -5.70968 0
M  V30 4717 H 454.611 -1.26663 -4.03381 0
M  V30 4718 H 452.329 -5.13297 -6.24141 0
M  V30 4719 H 455.915 -3.19937 -4.85934 0
M  V30 4720 H 454.795 -5.10725 -5.95088 0
M  V30 4721 N 452.299 1.55045 -0.282633 0
M  V30 4722 C 453.209 2.26491 0.61147 0
M  V30 4723 C 454.225 1.29348 1.16384 0
M  V30 4724 O 455.401 1.62298 1.19253 0
M  V30 4725 C 452.466 2.97779 1.77563 0
M  V30 4726 C 451.527 4.10418 1.25919 0
M  V30 4727 C 450.76 4.78297 2.36786 0
M  V30 4728 O 450.983 4.45426 3.56303 0
M  V30 4729 O 449.917 5.66089 2.04517 0
M  V30 4730 H 453.743 3.03683 0.0324615 0
M  V30 4731 H 451.328 1.49317 -0.0497576 0
M  V30 4732 H 453.21 3.42554 2.45427 0
M  V30 4733 H 451.885 2.23498 2.34159 0
M  V30 4734 H 450.792 3.70082 0.546797 0
M  V30 4735 H 452.125 4.86622 0.738887 0
M  V30 4736 N 453.777 0.010035 1.57597 0
M  V30 4737 C 454.709 -1.00649 2.05918 0
M  V30 4738 C 455.722 -1.30077 0.978964 0
M  V30 4739 O 456.911 -1.26878 1.25556 0
M  V30 4740 C 454.011 -2.33876 2.45265 0
M  V30 4741 C 453.184 -2.23242 3.7614 0
M  V30 4742 C 452.243 -3.39242 4.02245 0
M  V30 4743 O 451.269 -3.1698 4.72771 0
M  V30 4744 N 452.471 -4.6242 3.50924 0
M  V30 4745 H 455.236 -0.594333 2.93748 0
M  V30 4746 H 452.797 -0.17714 1.60928 0
M  V30 4747 H 454.789 -3.1027 2.59836 0
M  V30 4748 H 453.359 -2.66799 1.62902 0
M  V30 4749 H 452.579 -1.31696 3.71551 0
M  V30 4750 H 453.867 -2.13321 4.61922 0
M  V30 4751 H 453.265 -4.83404 2.93832 0
M  V30 4752 H 451.822 -5.36046 3.70807 0
M  V30 4753 N 455.255 -1.55392 -0.262866 0
M  V30 4754 C 456.185 -1.91978 -1.32917 0
M  V30 4755 C 457.166 -0.7828 -1.51017 0
M  V30 4756 O 458.351 -1.04178 -1.63892 0
M  V30 4757 C 455.481 -2.20055 -2.68687 0
M  V30 4758 C 454.435 -3.35854 -2.65304 0
M  V30 4759 C 453.761 -3.49435 -4.04721 0
M  V30 4760 C 455.061 -4.71977 -2.23685 0
M  V30 4761 H 456.755 -2.81292 -1.02544 0
M  V30 4762 H 454.301 -1.3534 -0.491846 0
M  V30 4763 H 456.254 -2.44237 -3.43404 0
M  V30 4764 H 454.978 -1.27551 -3.00663 0
M  V30 4765 H 453.637 -3.11655 -1.93045 0
M  V30 4766 H 453.285 -2.54379 -4.33936 0
M  V30 4767 H 452.985 -4.27297 -4.0335 0
M  V30 4768 H 454.509 -3.7592 -4.81161 0
M  V30 4769 H 455.923 -4.95637 -2.88127 0
M  V30 4770 H 454.32 -5.52828 -2.33456 0
M  V30 4771 H 455.39 -4.70115 -1.18827 0
M  V30 4772 N 456.733 0.527833 -1.48498 0
M  V30 4773 C 457.643 1.65907 -1.65867 0
M  V30 4774 C 458.659 1.6537 -0.541192 0
M  V30 4775 O 459.835 1.84282 -0.812534 0
M  V30 4776 C 456.9 3.02364 -1.69637 0
M  V30 4777 C 455.961 3.1374 -2.93028 0
M  V30 4778 C 455.194 4.43688 -2.96609 0
M  V30 4779 O 455.417 5.30913 -2.08538 0
M  V30 4780 O 454.351 4.59475 -3.88802 0
M  V30 4781 H 458.177 1.5419 -2.61647 0
M  V30 4782 H 455.762 0.701163 -1.31924 0
M  V30 4783 H 457.644 3.83515 -1.74625 0
M  V30 4784 H 456.319 3.14401 -0.770312 0
M  V30 4785 H 455.226 2.31877 -2.93571 0
M  V30 4786 H 456.559 3.06621 -3.85026 0
M  V30 4787 N 458.211 1.37122 0.776871 0
M  V30 4788 C 459.143 1.28342 1.89897 0
M  V30 4789 C 460.156 0.200277 1.61563 0
M  V30 4790 O 461.345 0.456012 1.72577 0
M  V30 4791 C 458.445 0.960427 3.25006 0
M  V30 4792 C 457.618 2.148 3.81025 0
M  V30 4793 C 456.677 1.79608 4.94598 0
M  V30 4794 O 455.703 2.51845 5.10454 0
M  V30 4795 N 456.905 0.737171 5.758 0
M  V30 4796 H 459.67 2.25027 1.97947 0
M  V30 4797 H 457.231 1.3068 0.955739 0
M  V30 4798 H 459.223 0.705942 3.98495 0
M  V30 4799 H 457.793 0.0823066 3.12492 0
M  V30 4800 H 457.013 2.56454 2.99374 0
M  V30 4801 H 458.301 2.9411 4.15183 0
M  V30 4802 H 457.699 0.137637 5.65533 0
M  V30 4803 H 456.256 0.542534 6.49538 0
M  V30 4804 N 459.689 -1.00246 1.21608 0
M  V30 4805 C 460.929 -1.75589 1.04631 0
M  V30 4806 C 461.293 -1.87513 -0.412648 0
M  V30 4807 O 462.494 -2.59444 -0.703003 0
M  V30 4808 C 460.765 -3.12893 1.72722 0
M  V30 4809 S 462.324 -4.04095 1.71034 0
M  V30 4810 H 459.142 -0.604133 0.374892 0
M  V30 4811 H 461.744 -1.19927 1.54395 0
M  V30 4812 H 460.448 -3.0185 2.78055 0
M  V30 4813 H 459.979 -3.73628 1.23149 0
M  V30 4814 H 461.994 -4.9045 0.753231 0
M  V30 4815 N 461.167 -1.02423 -1.1978 0
M  V30 4816 C 462.415 -0.716569 -1.8897 0
M  V30 4817 C 462.736 0.756769 -1.79716 0
M  V30 4818 O 462.006 1.5449 -1.20456 0
M  V30 4819 H 460.586 -0.262062 -0.699523 0
M  V30 4820 H 463.248 -1.29747 -1.45436 0
M  V30 4821 H 462.344 -1.00675 -2.95417 0
M  V30 4822 N 462.645 1.35699 -0.801477 0
M  V30 4823 C 463.875 2.02862 -0.3912 0
M  V30 4824 C 464.283 1.60552 1.00099 0
M  V30 4825 O 463.626 0.796215 1.65548 0
M  V30 4826 C 463.688 3.57386 -0.389299 0
M  V30 4827 C 463.352 4.22943 -1.73113 0
M  V30 4828 C 464.349 4.44984 -2.68859 0
M  V30 4829 C 462.034 4.60167 -2.01373 0
M  V30 4830 C 464.028 5.03345 -3.91053 0
M  V30 4831 C 461.715 5.18243 -3.23832 0
M  V30 4832 C 462.713 5.39773 -4.1849 0
M  V30 4833 O 462.401 5.96626 -5.38788 0
M  V30 4834 H 462.133 0.657341 -0.157732 0
M  V30 4835 H 464.687 1.74407 -1.08496 0
M  V30 4836 H 462.917 3.85011 0.361031 0
M  V30 4837 H 464.606 4.059 -0.0020365 0
M  V30 4838 H 465.372 4.1661 -2.48316 0
M  V30 4839 H 461.251 4.42726 -1.28508 0
M  V30 4840 H 464.795 5.20065 -4.64949 0
M  V30 4841 H 460.692 5.46044 -3.44248 0
M  V30 4842 H 461.46 6.15082 -5.40015 0
M  V30 4843 N 464.123 0.554532 1.47522 0
M  V30 4844 C 465.534 0.120446 1.86311 0
M  V30 4845 C 465.885 -1.30904 1.46145 0
M  V30 4846 O 465.01 -1.98434 0.863294 0
M  V30 4847 C 465.605 0.211808 3.38137 0
M  V30 4848 C 464.164 -0.167224 3.76028 0
M  V30 4849 C 463.311 0.560576 2.71575 0
M  V30 4850 H 466.262 0.764408 1.39077 0
M  V30 4851 H 466.283 -0.570275 3.76202 0
M  V30 4852 H 465.795 1.25232 3.6734 0
M  V30 4853 H 463.896 -1.20894 3.52442 0
M  V30 4854 H 464.009 0.189473 4.78725 0
M  V30 4855 H 462.373 0.00396836 2.547 0
M  V30 4856 H 463.156 1.60219 3.0362 0
M  V30 4857 N 465.601 -1.54893 0.290851 0
M  V30 4858 C 466.847 -2.0023 -0.321867 0
M  V30 4859 C 467.18 -1.179 -1.54316 0
M  V30 4860 O 466.455 -0.25293 -1.92848 0
M  V30 4861 C 466.738 -3.53456 -0.688515 0
M  V30 4862 C 466.591 -4.46532 0.541209 0
M  V30 4863 C 467.91 -4.13057 -1.51895 0
M  V30 4864 H 465.029 -0.727891 -0.115515 0
M  V30 4865 H 467.671 -1.85722 0.400931 0
M  V30 4866 H 465.821 -3.6595 -1.30433 0
M  V30 4867 H 467.493 -4.4596 1.17973 0
M  V30 4868 H 465.736 -4.17545 1.17636 0
M  V30 4869 H 466.407 -5.51475 0.240675 0
M  V30 4870 H 468.883 -4.03937 -0.99872 0
M  V30 4871 H 467.759 -5.20448 -1.74429 0
M  V30 4872 H 468.02 -3.64284 -2.50498 0
M  V30 4873 N 467.08 -0.0183926 -1.57589 0
M  V30 4874 C 468.012 0.995557 -2.06449 0
M  V30 4875 C 469.025 1.29556 -0.985849 0
M  V30 4876 O 470.214 1.2621 -1.26227 0
M  V30 4877 C 467.314 2.32572 -2.46502 0
M  V30 4878 C 466.487 2.21245 -3.77319 0
M  V30 4879 C 465.546 3.37104 -4.04039 0
M  V30 4880 O 464.572 3.14468 -4.74445 0
M  V30 4881 N 465.774 4.60553 -3.53372 0
M  V30 4882 H 468.539 0.578746 -2.94059 0
M  V30 4883 H 466.1 0.168603 -1.6102 0
M  V30 4884 H 468.092 3.08887 -2.61478 0
M  V30 4885 H 466.662 2.65931 -1.64315 0
M  V30 4886 H 465.882 1.29723 -3.72244 0
M  V30 4887 H 467.17 2.10868 -4.63047 0
M  V30 4888 H 466.568 4.81839 -2.96391 0
M  V30 4889 H 465.125 5.34072 -3.73644 0
M  V30 4890 N 468.558 1.5553 0.254621 0
M  V30 4891 C 469.974 1.4778 0.602753 0
M  V30 4892 C 470.174 0.707047 1.88688 0
M  V30 4893 O 469.23 0.233288 2.5142 0
M  V30 4894 C 470.543 2.92133 0.712648 0
M  V30 4895 C 472.091 3.02458 0.805488 0
M  V30 4896 C 472.566 4.48102 0.947009 0
M  V30 4897 N 474.057 4.52008 1.01207 0
M  V30 4898 C 474.792 5.61939 1.1407 0
M  V30 4899 N 474.288 6.81697 1.23536 0
M  V30 4900 N 476.081 5.49719 1.17325 0
M  V30 4901 H 468.232 2.04085 -0.588463 0
M  V30 4902 H 470.495 0.926229 -0.202001 0
M  V30 4903 H 470.201 3.51332 -0.160766 0
M  V30 4904 H 470.075 3.42187 1.58707 0
M  V30 4905 H 472.462 2.43344 1.66936 0
M  V30 4906 H 472.543 2.55627 -0.0939266 0
M  V30 4907 H 472.187 5.07824 0.087725 0
M  V30 4908 H 472.117 4.92607 1.86135 0
M  V30 4909 H 474.608 3.65749 0.950577 0
M  V30 4910 H 474.921 7.61228 1.33236 0
M  V30 4911 H 473.266 6.84473 1.20508 0
M  V30 4912 H 476.457 4.55095 1.09573 0
M  V30 4913 H 476.63 6.35432 1.27005 0
M  V30 4914 N 470.036 -0.519951 1.48776 0
M  V30 4915 C 470.966 -1.63253 1.66945 0
M  V30 4916 C 471.947 -1.62014 0.518224 0
M  V30 4917 O 473.132 -1.79053 0.751919 0
M  V30 4918 C 470.262 -3.0181 1.71836 0
M  V30 4919 C 469.216 -3.17911 2.8656 0
M  V30 4920 C 468.542 -4.5763 2.76548 0
M  V30 4921 C 469.842 -2.99729 4.27738 0
M  V30 4922 H 471.536 -1.48302 2.6009 0
M  V30 4923 H 469.082 -0.712026 1.25165 0
M  V30 4924 H 471.035 -3.79525 1.83135 0
M  V30 4925 H 469.759 -3.17806 0.752775 0
M  V30 4926 H 468.418 -2.42616 2.74833 0
M  V30 4927 H 468.066 -4.70476 1.77937 0
M  V30 4928 H 467.766 -4.69346 3.53536 0
M  V30 4929 H 469.29 -5.37431 2.89828 0
M  V30 4930 H 470.704 -3.67228 4.40246 0
M  V30 4931 H 469.101 -3.22932 5.05801 0
M  V30 4932 H 470.171 -1.96047 4.43502 0
M  V30 4933 N 471.514 -1.37532 -0.769588 0
M  V30 4934 C 472.76 -1.33057 -1.53048 0
M  V30 4935 C 473.093 0.0841865 -1.94017 0
M  V30 4936 O 472.368 1.04198 -1.64235 0
M  V30 4937 C 472.651 -2.27166 -2.79406 0
M  V30 4938 C 472.504 -3.77429 -2.44677 0
M  V30 4939 C 473.823 -2.19683 -3.81349 0
M  V30 4940 H 470.942 -0.484655 -0.555228 0
M  V30 4941 H 473.584 -1.68251 -0.882702 0
M  V30 4942 H 471.734 -1.97283 -3.34682 0
M  V30 4943 H 473.406 -4.17918 -1.953 0
M  V30 4944 H 471.649 -3.95892 -1.77346 0
M  V30 4945 H 472.32 -4.38716 -3.35011 0
M  V30 4946 H 474.796 -2.46029 -3.35573 0
M  V30 4947 H 473.672 -2.87668 -4.67481 0
M  V30 4948 H 473.933 -1.19045 -4.25771 0
M  V30 4949 N 472.992 0.995999 -1.22138 0
M  V30 4950 C 473.955 2.06711 -0.990109 0
M  V30 4951 C 474.955 1.60744 0.0422978 0
M  V30 4952 O 476.145 1.73095 -0.195895 0
M  V30 4953 C 473.277 3.37288 -0.49491 0
M  V30 4954 H 474.47 2.28661 -1.94047 0
M  V30 4955 H 472.023 1.16711 -1.03963 0
M  V30 4956 H 472.758 3.21022 0.459948 0
M  V30 4957 H 472.543 3.71986 -1.23971 0
M  V30 4958 H 474.033 4.16103 -0.353253 0
M  V30 4959 N 474.47 1.03057 1.19235 0
M  V30 4960 C 475.4 0.633497 2.24742 0
M  V30 4961 C 476.381 -0.358335 1.66283 0
M  V30 4962 O 477.566 -0.240676 1.92703 0
M  V30 4963 C 474.696 -0.0147648 3.47297 0
M  V30 4964 C 473.65 0.899527 4.18441 0
M  V30 4965 C 472.976 0.116281 5.34574 0
M  V30 4966 C 474.276 2.21404 4.73051 0
M  V30 4967 H 475.97 1.5155 2.58211 0
M  V30 4968 H 473.516 0.73014 1.24117 0
M  V30 4969 H 475.469 -0.304202 4.20301 0
M  V30 4970 H 474.193 -0.931577 3.13032 0
M  V30 4971 H 472.852 1.17319 3.47321 0
M  V30 4972 H 472.5 -0.802619 4.96555 0
M  V30 4973 H 472.2 0.725293 5.83107 0
M  V30 4974 H 473.724 -0.166376 6.10373 0
M  V30 4975 H 475.138 1.98601 5.37802 0
M  V30 4976 H 473.535 2.77512 5.32078 0
M  V30 4977 H 474.605 2.86752 3.91026 0
M  V30 4978 N 475.948 -1.35272 0.808662 0
M  V30 4979 C 477.178 -2.02652 0.401953 0
M  V30 4980 C 477.586 -1.6108 -0.992462 0
M  V30 4981 O 476.929 -0.804984 -1.65123 0
M  V30 4982 C 476.991 -3.57174 0.408246 0
M  V30 4983 C 476.655 -4.22019 1.75353 0
M  V30 4984 C 477.652 -4.43552 2.71215 0
M  V30 4985 C 475.337 -4.59093 2.03811 0
M  V30 4986 C 477.331 -5.01264 3.93717 0
M  V30 4987 C 475.018 -5.16519 3.26576 0
M  V30 4988 C 476.016 -5.37546 4.21347 0
M  V30 4989 O 475.704 -5.93761 5.41944 0
M  V30 4990 H 475.436 -0.656495 0.161216 0
M  V30 4991 H 477.99 -1.73829 1.0942 0
M  V30 4992 H 476.22 -3.85197 -0.340608 0
M  V30 4993 H 477.909 -4.05893 0.0235623 0
M  V30 4994 H 478.675 -4.15288 2.50522 0
M  V30 4995 H 474.554 -4.42039 1.30854 0
M  V30 4996 H 478.098 -5.17592 4.67701 0
M  V30 4997 H 473.995 -5.4421 3.47139 0
M  V30 4998 H 474.763 -6.1221 5.43269 0
M  V30 4999 N 477.426 -0.562348 -1.47226 0
M  V30 5000 C 478.356 0.170627 -2.32876 0
M  V30 5001 C 479.337 0.903748 -1.44106 0
M  V30 5002 O 480.522 0.883206 -1.72954 0
M  V30 5003 C 477.652 1.19786 -3.25989 0
M  V30 5004 C 476.606 0.580875 -4.2404 0
M  V30 5005 C 475.932 1.71311 -5.06514 0
M  V30 5006 C 477.232 -0.468714 -5.20193 0
M  V30 5007 H 478.926 -0.544441 -2.94408 0
M  V30 5008 H 476.472 -0.263271 -1.41573 0
M  V30 5009 H 478.425 1.71884 -3.84752 0
M  V30 5010 H 477.149 1.94294 -2.62521 0
M  V30 5011 H 475.808 0.0811538 -3.6651 0
M  V30 5012 H 475.456 2.44736 -4.39447 0
M  V30 5013 H 475.156 1.30604 -5.72902 0
M  V30 5014 H 476.68 2.23725 -5.68137 0
M  V30 5015 H 478.094 -0.0336028 -5.7329 0
M  V30 5016 H 476.491 -0.794957 -5.94811 0
M  V30 5017 H 477.561 -1.36269 -4.65359 0
M  V30 5018 N 478.904 1.54736 -0.299062 0
M  V30 5019 C 479.867 2.22127 0.565012 0
M  V30 5020 C 480.867 1.20669 1.06281 0
M  V30 5021 O 482.057 1.45417 0.959145 0
M  V30 5022 C 479.189 2.90611 1.78208 0
M  V30 5023 H 480.382 2.99891 -0.0237448 0
M  V30 5024 H 477.935 1.5622 -0.0498788 0
M  V30 5025 H 478.67 2.16921 2.41072 0
M  V30 5026 H 478.455 3.64984 1.43281 0
M  V30 5027 H 479.945 3.42026 2.396 0
M  V30 5028 N 480.382 0.0267497 1.57577 0
M  V30 5029 C 481.345 -0.940916 2.08996 0
M  V30 5030 C 482.345 -1.25561 1.00455 0
M  V30 5031 O 483.535 -1.19634 1.26623 0
M  V30 5032 C 480.667 -2.25814 2.55384 0
M  V30 5033 H 481.86 -0.495628 2.95776 0
M  V30 5034 H 479.413 -0.221241 1.54726 0
M  V30 5035 H 480.148 -2.74976 1.71926 0
M  V30 5036 H 479.933 -2.04285 3.34679 0
M  V30 5037 H 481.423 -2.95178 2.95398 0
M  V30 5038 N 481.861 -1.55662 -0.24637 0
M  V30 5039 C 483.277 -1.48098 -0.594907 0
M  V30 5040 C 483.477 -0.717044 -1.8831 0
M  V30 5041 O 482.533 -0.246618 -2.51293 0
M  V30 5042 C 483.846 -2.92507 -0.697146 0
M  V30 5043 C 485.394 -3.02881 -0.789436 0
M  V30 5044 C 485.869 -4.48598 -0.923232 0
M  V30 5045 N 487.36 -4.52538 -0.988088 0
M  V30 5046 C 488.095 -5.62536 -1.11089 0
M  V30 5047 N 487.591 -6.82342 -1.19919 0
M  V30 5048 N 489.384 -5.50334 -1.14408 0
M  V30 5049 H 481.535 -2.0377 0.599278 0
M  V30 5050 H 483.798 -0.925145 0.20691 0
M  V30 5051 H 483.504 -3.51242 0.179396 0
M  V30 5052 H 483.378 -3.43024 -1.5689 0
M  V30 5053 H 485.765 -2.44226 -1.65643 0
M  V30 5054 H 485.846 -2.55574 0.107482 0
M  V30 5055 H 485.49 -5.07864 -0.0607927 0
M  V30 5056 H 485.42 -4.93587 -1.8352 0
M  V30 5057 H 487.911 -3.66248 -0.931167 0
M  V30 5058 H 488.224 -7.61924 -1.29197 0
M  V30 5059 H 486.569 -6.85102 -1.16876 0
M  V30 5060 H 489.76 -4.5567 -1.07158 0
M  V30 5061 H 489.933 -6.36096 -1.23634 0
M  V30 5062 N 483.339 0.512053 -1.4905 0
M  V30 5063 C 484.269 1.62365 -1.67809 0
M  V30 5064 C 485.25 1.61737 -0.526809 0
M  V30 5065 O 486.435 1.78651 -0.761404 0
M  V30 5066 C 483.565 3.00895 -1.73435 0
M  V30 5067 C 482.519 3.16387 -2.88242 0
M  V30 5068 C 481.845 4.56157 -2.78971 0
M  V30 5069 C 483.145 2.97457 -4.29321 0
M  V30 5070 H 484.839 1.46921 -2.60873 0
M  V30 5071 H 482.385 0.705379 -1.2554 0
M  V30 5072 H 484.338 3.78549 -1.85145 0
M  V30 5073 H 483.062 3.17403 -0.769619 0
M  V30 5074 H 481.721 2.41155 -2.76116 0
M  V30 5075 H 481.369 4.69525 -1.8043 0
M  V30 5076 H 481.069 4.67465 -3.5602 0
M  V30 5077 H 482.593 5.35886 -2.92675 0
M  V30 5078 H 484.007 3.64888 -4.42187 0
M  V30 5079 H 482.404 3.20245 -5.07507 0
M  V30 5080 H 483.474 1.93692 -4.44535 0
M  V30 5081 N 484.817 1.37938 0.762283 0
M  V30 5082 C 486.042 1.37059 1.55659 0
M  V30 5083 C 486.467 -0.0396123 1.88058 0
M  V30 5084 O 485.825 -1.01929 1.49934 0
M  V30 5085 C 485.873 2.22494 2.83776 0
M  V30 5086 O 484.977 1.63607 3.78559 0
M  V30 5087 H 484.318 0.467892 0.47114 0
M  V30 5088 H 486.848 1.81587 0.942725 0
M  V30 5089 H 486.858 2.36045 3.32786 0
M  V30 5090 H 485.533 3.24993 2.59524 0
M  V30 5091 H 484.11 1.5915 3.37233 0
M  V30 5092 N 486.295 -0.989507 1.22664 0
M  V30 5093 C 487.541 -1.73298 1.06487 0
M  V30 5094 C 487.896 -1.88292 -0.395438 0
M  V30 5095 O 487.189 -1.41748 -1.28911 0
M  V30 5096 C 487.383 -3.13649 1.71345 0
M  V30 5097 C 487.212 -3.12341 3.23532 0
M  V30 5098 C 485.982 -3.18044 3.92653 0
M  V30 5099 C 488.18 -2.96226 4.20422 0
M  V30 5100 N 486.162 -3.06526 5.31898 0
M  V30 5101 C 487.533 -2.92773 5.4652 0
M  V30 5102 C 489.588 -2.80642 4.11271 0
M  V30 5103 C 488.291 -2.75332 6.64519 0
M  V30 5104 C 490.317 -2.64563 5.28924 0
M  V30 5105 C 489.679 -2.618 6.53942 0
M  V30 5106 H 485.778 -0.643643 0.444126 0
M  V30 5107 H 488.362 -1.17489 1.55256 0
M  V30 5108 H 486.533 -3.67694 1.25122 0
M  V30 5109 H 488.265 -3.76577 1.48229 0
M  V30 5110 H 485.02 -3.25861 3.43673 0
M  V30 5111 H 485.444 -3.04067 6.04874 0
M  V30 5112 H 490.086 -2.81574 3.15398 0
M  V30 5113 H 487.804 -2.73145 7.60538 0
M  V30 5114 H 491.39 -2.53482 5.23677 0
M  V30 5115 H 490.27 -2.49511 7.43447 0
M  V30 5116 N 487.773 -1.03688 -1.18687 0
M  V30 5117 C 488.721 -0.618292 -2.24232 0
M  V30 5118 C 489.715 0.353045 -1.6568 0
M  V30 5119 O 490.921 0.220749 -1.78641 0
M  V30 5120 H 487.296 -0.181711 -0.729716 0
M  V30 5121 H 489.267 -1.51893 -2.56848 0
M  V30 5122 C 488.016 0.00677342 -3.47699 0
M  V30 5123 H 487.339 -0.731692 -3.93047 0
M  V30 5124 H 488.779 0.262492 -4.23187 0
M  V30 5125 C 487.238 1.25572 -3.12623 0
M  V30 5126 O 487.768 2.34691 -3.26011 0
M  V30 5127 N 485.974 1.14755 -2.66982 0
M  V30 5128 H 485.521 0.259601 -2.56289 0
M  V30 5129 H 485.479 1.98412 -2.43885 0
M  V30 5130 N 489.251 1.34841 -0.815825 0
M  V30 5131 C 490.183 2.28409 -0.190265 0
M  V30 5132 C 491.196 1.50705 0.615771 0
M  V30 5133 O 492.385 1.72822 0.446616 0
M  V30 5134 C 489.485 3.30441 0.752446 0
M  V30 5135 C 488.658 4.37399 -0.00922152 0
M  V30 5136 C 487.717 5.19234 0.853351 0
M  V30 5137 O 486.743 5.68404 0.300919 0
M  V30 5138 N 487.945 5.38248 2.17416 0
M  V30 5139 H 490.71 2.82732 -0.994114 0
M  V30 5140 H 488.271 1.47289 -0.672129 0
M  V30 5141 H 490.263 3.82084 1.33394 0
M  V30 5142 H 488.833 2.76565 1.45707 0
M  V30 5143 H 488.053 3.86567 -0.771979 0
M  V30 5144 H 489.341 5.05992 -0.533807 0
M  V30 5145 H 488.739 4.99961 2.6468 0
M  V30 5146 H 487.296 5.93035 2.70467 0
M  V30 5147 N 490.729 0.570148 1.46925 0
M  V30 5148 C 491.975 0.0510284 2.02736 0
M  V30 5149 C 492.308 -1.3006 1.44215 0
M  V30 5150 O 491.583 -1.84932 0.602521 0
M  V30 5151 C 491.866 -0.028215 3.60089 0
M  V30 5152 C 491.719 1.35142 4.29018 0
M  V30 5153 C 493.038 -0.735181 4.33916 0
M  V30 5154 H 490.157 0.0200178 0.736728 0
M  V30 5155 H 492.799 0.73493 1.75211 0
M  V30 5156 H 490.949 -0.610648 3.83671 0
M  V30 5157 H 492.621 1.97806 4.16738 0
M  V30 5158 H 490.864 1.9226 3.88868 0
M  V30 5159 H 491.535 1.24857 5.37694 0
M  V30 5160 H 494.011 -0.240519 4.15404 0
M  V30 5161 H 492.887 -0.759622 5.43618 0
M  V30 5162 H 493.148 -1.79397 4.04066 0
M  V30 5163 N 492.207 -1.54576 0.307264 0
M  V30 5164 C 493.484 -1.92377 -0.353605 0
M  V30 5165 C 493.864 -1.23517 -1.71192 0
M  V30 5166 O 493.212 -0.373101 -2.25433 0
M  V30 5167 C 493.422 -3.45928 -0.462039 0
M  V30 5168 C 494.77 -4.18278 -0.729975 0
M  V30 5169 O 495.794 -3.51997 -0.545605 0
M  V30 5170 O 494.653 -5.3563 -1.08454 0
M  V30 5171 H 491.747 -0.802747 -0.198812 0
M  V30 5172 H 494.293 -1.65929 0.355783 0
M  V30 5173 H 493.065 -3.88187 0.492592 0
M  V30 5174 H 492.688 -3.78431 -1.21965 0
M  V30 5175 N 493.685 -0.035106 -1.57561 0
M  V30 5176 C 494.617 0.973604 -2.07494 0
M  V30 5177 C 495.63 1.28504 -0.999534 0
M  V30 5178 O 496.819 1.24864 -1.27559 0
M  V30 5179 C 493.919 2.29945 -2.48955 0
M  V30 5180 C 493.092 2.1723 -3.79644 0
M  V30 5181 C 492.151 3.328 -4.07592 0
M  V30 5182 O 491.177 3.09418 -4.77754 0
M  V30 5183 N 492.379 4.56779 -3.58236 0
M  V30 5184 H 495.144 0.547525 -2.94656 0
M  V30 5185 H 492.705 0.151515 -1.61189 0
M  V30 5186 H 494.697 3.06097 -2.64739 0
M  V30 5187 H 493.267 2.64173 -1.67126 0
M  V30 5188 H 492.487 1.25768 -3.73599 0
M  V30 5189 H 493.775 2.05945 -4.65257 0
M  V30 5190 H 493.173 4.78668 -3.01485 0
M  V30 5191 H 491.73 5.30079 -3.79288 0
M  V30 5192 N 495.163 1.55791 0.238111 0
M  V30 5193 C 496.409 1.78297 0.966337 0
M  V30 5194 C 496.742 0.601903 1.84637 0
M  V30 5195 O 496.017 -0.399499 1.90353 0
M  V30 5196 C 496.3 3.10758 1.81939 0
M  V30 5197 C 496.153 4.39283 0.966958 0
M  V30 5198 C 497.472 3.39519 2.80027 0
M  V30 5199 H 494.591 0.648654 0.349882 0
M  V30 5200 H 497.233 1.88525 0.236253 0
M  V30 5201 H 495.383 3.02168 2.44185 0
M  V30 5202 H 497.055 4.59873 0.362514 0
M  V30 5203 H 495.298 4.32948 0.271669 0
M  V30 5204 H 495.969 5.28368 1.59784 0
M  V30 5205 H 498.445 3.48128 2.27917 0
M  V30 5206 H 497.321 4.33402 3.36829 0
M  V30 5207 H 497.582 2.60864 3.56934 0
M  V30 5208 N 496.642 -0.504142 1.49319 0
M  V30 5209 C 497.891 -1.25507 1.57895 0
M  V30 5210 C 498.204 -1.93735 0.269433 0
M  V30 5211 O 499.41 -2.70492 0.233706 0
M  V30 5212 C 497.866 -2.27869 2.78574 0
M  V30 5213 C 497.474 -1.65594 4.16272 0
M  V30 5214 C 499.218 -3.0381 2.96479 0
M  V30 5215 C 497.125 -2.66048 5.28178 0
M  V30 5216 H 496.055 -0.47212 0.587894 0
M  V30 5217 H 498.706 -0.52931 1.757 0
M  V30 5218 H 497.088 -3.03594 2.54257 0
M  V30 5219 H 498.262 -0.958826 4.50714 0
M  V30 5220 H 496.577 -1.02055 4.037 0
M  V30 5221 H 499.174 -3.78925 3.77253 0
M  V30 5222 H 499.517 -3.61235 2.06918 0
M  V30 5223 H 500.05 -2.352 3.20821 0
M  V30 5224 H 496.789 -2.13408 6.19788 0
M  V30 5225 H 496.309 -3.34009 4.98195 0
M  V30 5226 H 497.988 -3.28536 5.57381 0
M  V30 5227 N 498.12 -1.38341 -0.754957 0
M  V30 5228 C 499.536 -1.19508 -1.05783 0
M  V30 5229 C 499.736 -0.0428005 -2.01455 0
M  V30 5230 O 498.792 0.611861 -2.44975 0
M  V30 5231 C 500.105 -2.52091 -1.63923 0
M  V30 5232 C 501.653 -2.58762 -1.76101 0
M  V30 5233 C 502.128 -3.91517 -2.37652 0
M  V30 5234 N 503.619 -3.93049 -2.45085 0
M  V30 5235 C 504.354 -4.9253 -2.93602 0
M  V30 5236 N 503.85 -6.02408 -3.42165 0
M  V30 5237 N 505.643 -4.79921 -2.92629 0
M  V30 5238 H 497.794 -2.1206 -0.120056 0
M  V30 5239 H 500.057 -0.94089 -0.11589 0
M  V30 5240 H 499.763 -3.36858 -1.01093 0
M  V30 5241 H 499.637 -2.70388 -2.63003 0
M  V30 5242 H 502.024 -1.74391 -2.38058 0
M  V30 5243 H 502.105 -2.44333 -0.757294 0
M  V30 5244 H 501.749 -4.76309 -1.76329 0
M  V30 5245 H 501.679 -4.03256 -3.38662 0
M  V30 5246 H 504.17 -3.13685 -2.10736 0
M  V30 5247 H 504.483 -6.74248 -3.77637 0
M  V30 5248 H 502.828 -6.0603 -3.40225 0
M  V30 5249 H 506.019 -3.93194 -2.54001 0
M  V30 5250 H 506.192 -5.57601 -3.30128 0
M  V30 5251 N 499.598 0.982988 -1.23187 0
M  V30 5252 C 500.546 2.09616 -1.00817 0
M  V30 5253 C 501.54 1.6932 0.0519995 0
M  V30 5254 O 502.746 1.79715 -0.101284 0
M  V30 5255 H 499.121 0.685628 -0.308899 0
M  V30 5256 H 501.092 2.25652 -1.95253 0
M  V30 5257 C 499.841 3.42249 -0.613243 0
M  V30 5258 H 499.164 3.73705 -1.42073 0
M  V30 5259 H 500.604 4.21086 -0.496208 0
M  V30 5260 C 499.063 3.30002 0.678233 0
M  V30 5261 O 499.593 3.6263 1.72807 0
M  V30 5262 N 497.799 2.83164 0.653165 0
M  V30 5263 H 497.346 2.56811 -0.201492 0
M  V30 5264 H 497.304 2.75352 1.51752 0
M  V30 5265 N 501.076 1.04316 1.18135 0
M  V30 5266 C 502.039 0.640794 2.2006 0
M  V30 5267 C 503.039 -0.303124 1.57917 0
M  V30 5268 O 504.229 -0.0881855 1.73977 0
M  V30 5269 C 501.361 -0.060148 3.40847 0
M  V30 5270 H 502.554 1.54281 2.57172 0
M  V30 5271 H 500.107 0.836004 1.32063 0
M  V30 5272 H 500.842 -0.975845 3.0927 0
M  V30 5273 H 500.627 0.618319 3.87194 0
M  V30 5274 H 502.117 -0.328082 4.16309 0
M  V30 5275 N 502.554 -1.34406 0.822964 0
M  V30 5276 C 503.484 -2.32052 0.259608 0
M  V30 5277 C 504.465 -1.58243 -0.623961 0
M  V30 5278 O 505.65 -1.86224 -0.55083 0
M  V30 5279 C 502.78 -3.42434 -0.579314 0
M  V30 5280 C 501.734 -4.27499 0.20712 0
M  V30 5281 C 501.06 -5.29349 -0.754547 0
M  V30 5282 C 502.36 -5.02758 1.41533 0
M  V30 5283 H 504.054 -2.79418 1.07545 0
M  V30 5284 H 501.6 -1.34338 0.518593 0
M  V30 5285 H 503.553 -4.0976 -0.983612 0
M  V30 5286 H 502.277 -2.93717 -1.4282 0
M  V30 5287 H 500.936 -3.61776 0.592787 0
M  V30 5288 H 500.584 -4.76895 -1.59939 0
M  V30 5289 H 500.284 -5.8714 -0.232561 0
M  V30 5290 H 501.808 -5.99544 -1.1567 0
M  V30 5291 H 503.222 -5.62938 1.08504 0
M  V30 5292 H 501.619 -5.70123 1.87296 0
M  V30 5293 H 502.689 -4.32451 2.1935 0
M  V30 5294 N 504.032 -0.577932 -1.46621 0
M  V30 5295 C 504.995 0.147805 -2.28723 0
M  V30 5296 C 505.995 0.823325 -1.38123 0
M  V30 5297 O 507.185 0.676011 -1.60548 0
M  V30 5298 C 504.317 1.21853 -3.18378 0
M  V30 5299 H 505.51 -0.573654 -2.94362 0
M  V30 5300 H 503.063 -0.335703 -1.52652 0
M  V30 5301 H 503.798 1.97173 -2.57475 0
M  V30 5302 H 503.583 0.738714 -3.85078 0
M  V30 5303 H 505.073 1.72768 -3.80186 0
M  V30 5304 N 505.51 1.54411 -0.315457 0
M  V30 5305 C 506.735 2.05299 0.294496 0
M  V30 5306 C 507.16 1.19052 1.4563 0
M  V30 5307 O 506.518 0.197804 1.80218 0
M  V30 5308 C 506.566 3.5345 0.714549 0
M  V30 5309 O 505.67 3.70175 1.81781 0
M  V30 5310 H 505.011 0.661743 0.0547019 0
M  V30 5311 H 507.541 1.99327 -0.461508 0
M  V30 5312 H 507.551 3.9557 0.999426 0
M  V30 5313 H 506.226 4.1568 -0.135244 0
M  V30 5314 H 504.803 3.3996 1.53236 0
M  V30 5315 N 506.988 0.0434614 1.5754 0
M  V30 5316 C 508.399 -0.493343 1.80064 0
M  V30 5317 C 508.75 -1.71388 0.955023 0
M  V30 5318 O 507.875 -2.15736 0.169434 0
M  V30 5319 C 508.47 -0.90179 3.26578 0
M  V30 5320 C 507.029 -1.38362 3.50047 0
M  V30 5321 C 506.176 -0.355129 2.75017 0
M  V30 5322 H 509.127 0.2694 1.56397 0
M  V30 5323 H 509.148 -1.76523 3.37075 0
M  V30 5324 H 508.66 -0.013271 3.88098 0
M  V30 5325 H 506.761 -2.29159 2.93798 0
M  V30 5326 H 506.874 -1.3811 4.58762 0
M  V30 5327 H 505.238 -0.826348 2.40922 0
M  V30 5328 H 506.021 0.525172 3.39259 0
M  V30 5329 N 508.466 -1.55915 -0.229846 0
M  V30 5330 C 509.714 -1.7819 -0.953565 0
M  V30 5331 C 510.035 -0.610504 -1.85197 0
M  V30 5332 O 509.305 0.372988 -1.92316 0
M  V30 5333 H 507.885 -0.657208 -0.355087 0
M  V30 5334 H 510.547 -1.9337 -0.243693 0
M  V30 5335 H 509.643 -2.70011 -1.56527 0
M  V30 5336 N 509.944 0.496216 -1.49584 0
M  V30 5337 C 511.169 1.27865 -1.63295 0
M  V30 5338 C 511.594 1.85592 -0.306156 0
M  V30 5339 O 510.952 1.66092 0.726851 0
M  V30 5340 C 511 2.38128 -2.7079 0
M  V30 5341 O 510.104 3.42108 -2.30296 0
M  V30 5342 H 509.445 0.377279 -0.546403 0
M  V30 5343 H 511.975 0.593497 -1.95803 0
M  V30 5344 H 511.985 2.8382 -2.93104 0
M  V30 5345 H 510.66 1.95479 -3.67098 0
M  V30 5346 H 509.237 3.02301 -2.18331 0
M  V30 5347 N 511.423 1.38739 0.74761 0
M  V30 5348 C 512.671 1.35007 1.50391 0
M  V30 5349 C 512.992 -0.0574274 1.94915 0
M  V30 5350 O 512.262 -1.00628 1.6808 0
M  V30 5351 H 510.842 0.496784 0.557866 0
M  V30 5352 H 513.504 1.73479 0.888319 0
M  V30 5353 H 512.6 2.00474 2.392 0
M  V30 5354 N 512.901 -0.976442 1.23707 0
M  V30 5355 C 514.149 -1.71487 1.06942 0
M  V30 5356 C 514.47 -1.9098 -0.393897 0
M  V30 5357 O 513.74 -1.48128 -1.28198 0
M  V30 5358 H 512.32 -0.635425 0.392739 0
M  V30 5359 H 514.982 -1.17515 1.55487 0
M  V30 5360 H 514.078 -2.70286 1.56051 0
M  V30 5361 N 514.379 -1.04941 -1.1758 0
M  V30 5362 C 515.656 -0.671918 -1.83697 0
M  V30 5363 C 516.036 0.847929 -1.93322 0
M  V30 5364 O 515.384 1.75287 -1.46583 0
M  V30 5365 C 515.594 -1.35797 -3.21497 0
M  V30 5366 C 516.942 -1.4944 -3.97433 0
M  V30 5367 O 517.966 -1.31678 -3.30967 0
M  V30 5368 O 516.825 -1.78463 -5.1654 0
M  V30 5369 H 513.919 -0.236212 -0.792548 0
M  V30 5370 H 516.465 -1.14884 -1.24899 0
M  V30 5371 H 515.237 -2.39498 -3.09446 0
M  V30 5372 H 514.86 -0.870236 -3.8796 0
M  V30 5373 N 515.857 1.33968 -0.830081 0
M  V30 5374 C 516.787 2.31911 -0.271911 0
M  V30 5375 C 517.768 1.58571 0.61556 0
M  V30 5376 O 518.953 1.86514 0.540946 0
M  V30 5377 C 516.083 3.42737 0.561146 0
M  V30 5378 C 515.037 4.27383 -0.229789 0
M  V30 5379 C 514.363 5.29742 0.726463 0
M  V30 5380 C 515.663 5.02 -1.44197 0
M  V30 5381 H 517.357 2.78844 -1.09025 0
M  V30 5382 H 514.903 1.34061 -0.52571 0
M  V30 5383 H 516.856 4.10276 0.961867 0
M  V30 5384 H 515.58 2.94471 1.41261 0
M  V30 5385 H 514.239 3.61456 -0.611964 0
M  V30 5386 H 513.887 4.77736 1.57408 0
M  V30 5387 H 513.587 5.87255 0.20142 0
M  V30 5388 H 515.111 6.00149 1.12489 0
M  V30 5389 H 516.525 5.62355 -1.11488 0
M  V30 5390 H 514.922 5.69122 -1.90317 0
M  V30 5391 H 515.992 4.31281 -2.2164 0
M  V30 5392 N 517.335 0.585699 1.46312 0
M  V30 5393 C 518.583 0.072278 2.01971 0
M  V30 5394 C 518.904 -1.29345 1.45928 0
M  V30 5395 O 518.174 -1.84973 0.645109 0
M  V30 5396 H 516.754 0.023729 0.746623 0
M  V30 5397 H 519.416 0.762155 1.7938 0
M  V30 5398 H 518.512 0.00552767 3.121 0
M  V30 5399 N 518.813 -1.54241 0.323641 0
M  V30 5400 C 519.723 -2.28033 -0.551205 0
M  V30 5401 C 520.739 -1.32388 -1.12913 0
M  V30 5402 O 521.915 -1.65403 -1.14908 0
M  V30 5403 C 518.98 -3.02382 -1.69606 0
M  V30 5404 C 518.041 -4.13612 -1.14993 0
M  V30 5405 C 517.274 -4.84407 -2.24022 0
M  V30 5406 O 517.497 -4.54716 -3.44368 0
M  V30 5407 O 516.431 -5.71312 -1.89436 0
M  V30 5408 H 520.257 -3.03662 0.048066 0
M  V30 5409 H 517.842 -1.49133 0.0893289 0
M  V30 5410 H 519.724 -3.48941 -2.36259 0
M  V30 5411 H 518.399 -2.29628 -2.28151 0
M  V30 5412 H 517.306 -3.71402 -0.448484 0
M  V30 5413 H 518.639 -4.8841 -0.609608 0
M  V30 5414 N 520.291 -0.0518155 -1.57515 0
M  V30 5415 C 521.254 0.907547 -2.10467 0
M  V30 5416 C 522.254 1.23947 -1.02439 0
M  V30 5417 O 523.444 1.17604 -1.2851 0
M  V30 5418 C 520.576 2.21723 -2.58944 0
M  V30 5419 H 521.769 0.44851 -2.96527 0
M  V30 5420 H 519.322 0.196598 -1.55059 0
M  V30 5421 H 520.057 2.72206 -1.76279 0
M  V30 5422 H 519.842 1.98935 -3.37886 0
M  V30 5423 H 521.332 2.90441 -3.00056 0
M  V30 5424 N 521.769 1.56035 0.221574 0
M  V30 5425 C 523.018 1.78245 0.944016 0
M  V30 5426 C 523.331 0.620371 1.85501 0
M  V30 5427 O 524.537 0.726103 2.6161 0
M  V30 5428 C 522.993 3.15659 1.7288 0
M  V30 5429 C 522.601 4.39591 0.863942 0
M  V30 5430 C 524.345 3.47195 2.44246 0
M  V30 5431 C 522.252 5.6803 1.64607 0
M  V30 5432 H 521.182 0.664547 0.356222 0
M  V30 5433 H 523.833 1.8243 0.197904 0
M  V30 5434 H 522.215 3.0565 2.51781 0
M  V30 5435 H 523.389 4.60655 0.115464 0
M  V30 5436 H 521.704 4.15572 0.262407 0
M  V30 5437 H 524.301 4.40381 3.03263 0
M  V30 5438 H 524.644 2.69693 3.1713 0
M  V30 5439 H 525.177 3.58533 1.72334 0
M  V30 5440 H 521.916 6.48425 0.960507 0
M  V30 5441 H 521.436 5.51027 2.36917 0
M  V30 5442 H 523.115 6.08203 2.20675 0
M  V30 5443 N 523.247 -0.488276 1.49845 0
M  V30 5444 C 524.663 -0.820566 1.3689 0
M  V30 5445 C 524.863 -1.97248 0.411752 0
M  V30 5446 O 523.919 -2.52042 -0.151931 0
M  V30 5447 C 525.232 -1.1488 2.77891 0
M  V30 5448 C 526.78 -1.25626 2.86683 0
M  V30 5449 C 527.255 -1.61772 4.28479 0
M  V30 5450 N 528.746 -1.68797 4.31349 0
M  V30 5451 C 529.481 -1.98235 5.38043 0
M  V30 5452 N 528.977 -2.2581 6.54967 0
M  V30 5453 N 530.77 -1.99593 5.2547 0
M  V30 5454 H 522.921 0.271123 2.10662 0
M  V30 5455 H 525.184 0.058735 0.946179 0
M  V30 5456 H 524.89 -0.375614 3.49688 0
M  V30 5457 H 524.764 -2.08919 3.14058 0
M  V30 5458 H 527.151 -2.02014 2.15114 0
M  V30 5459 H 527.232 -0.296072 2.54081 0
M  V30 5460 H 526.876 -0.859295 5.00578 0
M  V30 5461 H 526.806 -2.58912 4.58554 0
M  V30 5462 H 529.297 -1.49595 3.4703 0
M  V30 5463 H 529.61 -2.47497 7.32096 0
M  V30 5464 H 527.955 -2.23239 6.58171 0
M  V30 5465 H 531.146 -1.77535 4.33127 0
M  V30 5466 H 531.319 -2.222 6.08713 0
M  V30 5467 N 524.725 -1.39134 -0.740242 0
M  V30 5468 C 525.635 -1.39697 -1.88473 0
M  V30 5469 C 526.651 -0.292403 -1.71526 0
M  V30 5470 O 527.827 -0.533021 -1.94219 0
M  V30 5471 C 524.892 -1.23382 -3.24003 0
M  V30 5472 C 523.953 -2.43763 -3.53381 0
M  V30 5473 C 523.186 -2.28216 -4.82445 0
M  V30 5474 O 523.409 -1.28288 -5.55786 0
M  V30 5475 O 522.343 -3.1709 -5.11603 0
M  V30 5476 H 526.169 -2.36159 -1.90952 0
M  V30 5477 H 523.754 -1.20194 -0.887346 0
M  V30 5478 H 525.636 -1.16395 -4.05006 0
M  V30 5479 H 524.311 -0.300121 -3.22306 0
M  V30 5480 H 523.218 -2.56325 -2.72485 0
M  V30 5481 H 524.551 -3.35808 -3.59852 0
M  V30 5482 N 526.204 0.969867 -1.24223 0
M  V30 5483 C 527.136 2.0669 -0.99055 0
M  V30 5484 C 528.149 1.62753 0.0392222 0
M  V30 5485 O 529.338 1.77403 -0.197561 0
M  V30 5486 C 526.438 3.35589 -0.472594 0
M  V30 5487 C 525.611 4.08444 -1.56499 0
M  V30 5488 C 524.67 5.15616 -1.05007 0
M  V30 5489 O 523.696 5.41911 -1.7413 0
M  V30 5490 N 524.898 5.80383 0.116641 0
M  V30 5491 H 527.663 2.28855 -1.93508 0
M  V30 5492 H 525.224 1.13733 -1.15223 0
M  V30 5493 H 527.216 4.04542 -0.112919 0
M  V30 5494 H 525.786 3.10311 0.377617 0
M  V30 5495 H 525.006 3.33798 -2.09696 0
M  V30 5496 H 526.294 4.53882 -2.29932 0
M  V30 5497 H 525.692 5.6142 0.694589 0
M  V30 5498 H 524.249 6.50462 0.417483 0
M  V30 5499 N 527.682 1.05563 1.17022 0
M  V30 5500 C 529.093 0.793475 1.69 0
M  V30 5501 C 529.444 -0.683882 1.83895 0
M  V30 5502 O 528.569 -1.53116 1.5292 0
M  V30 5503 C 529.164 1.43376 3.06967 0
M  V30 5504 C 527.723 1.21956 3.56095 0
M  V30 5505 C 526.87 1.51494 2.3226 0
M  V30 5506 H 529.821 1.22008 1.01487 0
M  V30 5507 H 529.842 0.845068 3.70997 0
M  V30 5508 H 529.354 2.50899 2.96093 0
M  V30 5509 H 527.455 0.163749 3.7224 0
M  V30 5510 H 527.568 1.92713 4.38633 0
M  V30 5511 H 525.932 0.935175 2.3691 0
M  V30 5512 H 526.715 2.60159 2.23992 0
M  V30 5513 N 529.16 -1.33526 0.837174 0
M  V30 5514 C 530.07 -2.33023 0.271568 0
M  V30 5515 C 531.086 -1.63272 -0.601514 0
M  V30 5516 O 532.262 -1.94939 -0.506038 0
M  V30 5517 C 529.327 -3.42382 -0.545448 0
M  V30 5518 C 528.388 -4.27857 0.351709 0
M  V30 5519 C 527.621 -5.31994 -0.426409 0
M  V30 5520 O 527.844 -5.45763 -1.65828 0
M  V30 5521 O 526.778 -6.01572 0.1987 0
M  V30 5522 H 530.604 -2.83256 1.09545 0
M  V30 5523 H 528.189 -1.36837 0.599655 0
M  V30 5524 H 530.071 -4.09122 -1.00979 0
M  V30 5525 H 528.746 -2.94369 -1.34641 0
M  V30 5526 H 527.653 -3.6399 0.863853 0
M  V30 5527 H 528.986 -4.79349 1.1174 0
M  V30 5528 N 530.638 -0.59345 -1.46 0
M  V30 5529 C 531.57 0.171569 -2.28557 0
M  V30 5530 C 532.583 0.845273 -1.39137 0
M  V30 5531 O 533.772 0.713033 -1.6364 0
M  V30 5532 C 530.872 1.26311 -3.14482 0
M  V30 5533 C 530.045 0.679258 -4.32094 0
M  V30 5534 C 529.104 1.65987 -4.99334 0
M  V30 5535 O 528.13 1.19171 -5.56585 0
M  V30 5536 N 529.332 2.99414 -4.97324 0
M  V30 5537 H 532.097 -0.536771 -2.94854 0
M  V30 5538 H 529.658 -0.431954 -1.56031 0
M  V30 5539 H 531.65 1.91863 -3.5633 0
M  V30 5540 H 530.22 1.87416 -2.50188 0
M  V30 5541 H 529.44 -0.153992 -3.93899 0
M  V30 5542 H 530.728 0.26916 -5.08088 0
M  V30 5543 H 530.126 3.40064 -4.52076 0
M  V30 5544 H 528.683 3.60426 -5.4308 0
M  V30 5545 N 532.116 1.54067 -0.331816 0
M  V30 5546 C 533.079 2.23275 0.517768 0
M  V30 5547 C 534.079 1.22897 1.03697 0
M  V30 5548 O 535.269 1.47419 0.928084 0
M  V30 5549 C 532.401 2.94326 1.72004 0
M  V30 5550 H 533.594 2.99773 -0.0873507 0
M  V30 5551 H 531.147 1.56079 -0.0830042 0
M  V30 5552 H 531.882 2.21986 2.36417 0
M  V30 5553 H 531.667 3.67941 1.35507 0
M  V30 5554 H 533.157 3.47031 2.32291 0
M  V30 5555 N 533.594 0.0601682 1.57485 0
M  V30 5556 C 535.01 -0.296422 1.56823 0
M  V30 5557 C 535.21 -1.70831 1.0686 0
M  V30 5558 O 534.266 -2.4174 0.729245 0
M  V30 5559 C 535.579 -0.116681 3.00474 0
M  V30 5560 C 537.127 -0.187103 3.1244 0
M  V30 5561 C 537.602 -0.035783 4.57986 0
M  V30 5562 N 539.093 -0.0917676 4.63109 0
M  V30 5563 C 539.828 0.00107251 5.734 0
M  V30 5564 N 539.324 0.146773 6.92645 0
M  V30 5565 N 541.117 -0.0551577 5.62073 0
M  V30 5566 H 533.268 0.983055 1.88281 0
M  V30 5567 H 535.531 0.382386 0.867459 0
M  V30 5568 H 535.237 0.85712 3.41096 0
M  V30 5569 H 535.111 -0.873929 3.66936 0
M  V30 5570 H 537.498 -1.15138 2.71712 0
M  V30 5571 H 537.579 0.601052 2.48638 0
M  V30 5572 H 537.223 0.925212 4.99402 0
M  V30 5573 H 537.153 -0.843196 5.19806 0
M  V30 5574 H 539.644 -0.203261 3.77353 0
M  V30 5575 H 539.957 0.210076 7.72514 0
M  V30 5576 H 538.302 0.181979 6.94762 0
M  V30 5577 H 541.493 -0.167605 4.678 0
M  V30 5578 H 541.666 0.020652 6.47997 0
M  V30 5579 N 535.072 -1.5615 -0.213296 0
M  V30 5580 C 536.002 -1.96109 -1.26742 0
M  V30 5581 C 536.983 -0.830448 -1.48451 0
M  V30 5582 O 538.168 -1.09339 -1.60495 0
M  V30 5583 C 535.298 -2.28492 -2.61551 0
M  V30 5584 C 534.252 -3.44124 -2.54485 0
M  V30 5585 C 533.578 -3.62134 -3.93399 0
M  V30 5586 C 534.878 -4.78855 -2.08556 0
M  V30 5587 H 536.572 -2.84412 -0.935434 0
M  V30 5588 H 534.118 -1.36836 -0.44854 0
M  V30 5589 H 536.071 -2.55039 -3.3546 0
M  V30 5590 H 534.795 -1.37052 -2.96453 0
M  V30 5591 H 533.454 -3.17639 -1.83033 0
M  V30 5592 H 533.102 -2.68055 -4.25623 0
M  V30 5593 H 532.802 -4.39913 -3.89551 0
M  V30 5594 H 534.326 -3.91038 -4.68958 0
M  V30 5595 H 535.74 -5.04552 -2.72213 0
M  V30 5596 H 534.137 -5.59975 -2.1575 0
M  V30 5597 H 535.207 -4.73657 -1.03811 0
M  V30 5598 N 536.55 0.480323 -1.50102 0
M  V30 5599 C 537.513 1.56181 -1.6775 0
M  V30 5600 C 538.513 1.51156 -0.548503 0
M  V30 5601 O 539.703 1.5394 -0.815363 0
M  V30 5602 C 536.835 2.95823 -1.69415 0
M  V30 5603 H 538.028 1.41855 -2.6423 0
M  V30 5604 H 535.581 0.70605 -1.39444 0
M  V30 5605 H 536.316 3.15604 -0.745948 0
M  V30 5606 H 536.101 3.00878 -2.51425 0
M  V30 5607 H 537.591 3.74359 -1.85054 0
M  V30 5608 N 538.028 1.39524 0.732853 0
M  V30 5609 C 538.958 1.41153 1.86005 0
M  V30 5610 C 539.939 0.274614 1.67869 0
M  V30 5611 O 541.124 0.480745 1.88155 0
M  V30 5612 C 538.254 1.25638 3.23778 0
M  V30 5613 C 537.208 2.36752 3.56556 0
M  V30 5614 C 536.534 2.06326 4.93289 0
M  V30 5615 C 537.834 3.79069 3.5931 0
M  V30 5616 H 539.528 2.35484 1.84899 0
M  V30 5617 H 537.074 1.13348 0.888162 0
M  V30 5618 H 539.027 1.25398 4.0231 0
M  V30 5619 H 537.751 0.277772 3.25417 0
M  V30 5620 H 536.41 2.36213 2.80355 0
M  V30 5621 H 536.058 1.06897 4.9151 0
M  V30 5622 H 535.758 2.80757 5.16187 0
M  V30 5623 H 537.282 2.07739 5.74175 0
M  V30 5624 H 538.696 3.81526 4.27914 0
M  V30 5625 H 537.093 4.52878 3.93728 0
M  V30 5626 H 538.163 4.09893 2.59068 0
M  V30 5627 N 539.506 -0.963266 1.24736 0
M  V30 5628 C 540.734 -1.74166 1.11686 0
M  V30 5629 C 541.149 -1.8589 -0.330187 0
M  V30 5630 O 540.506 -1.35042 -1.2276 0
M  V30 5631 C 540.557 -3.15989 1.75595 0
M  V30 5632 O 540.278 -3.04847 3.14642 0
M  V30 5633 C 541.779 -4.10145 1.68213 0
M  V30 5634 H 538.999 -0.546031 0.389989 0
M  V30 5635 H 541.543 -1.20907 1.64929 0
M  V30 5636 H 539.698 -3.66219 1.26343 0
M  V30 5637 H 540.112 -3.9425 3.4593 0
M  V30 5638 H 541.586 -5.07299 2.17604 0
M  V30 5639 H 542.063 -4.3445 0.644208 0
M  V30 5640 H 542.669 -3.65827 2.16912 0
M  V30 5641 N 540.985 -1.06182 -1.16461 0
M  V30 5642 C 541.915 -0.692861 -2.22984 0
M  V30 5643 C 542.896 0.314122 -1.67174 0
M  V30 5644 O 544.081 0.189499 -1.93273 0
M  V30 5645 C 541.211 -0.07732 -3.47214 0
M  V30 5646 C 540.165 -1.01015 -4.15909 0
M  V30 5647 C 539.491 -0.257973 -5.34077 0
M  V30 5648 C 540.791 -2.33868 -4.67015 0
M  V30 5649 H 542.485 -1.58343 -2.54102 0
M  V30 5650 H 540.031 -0.76279 -1.22137 0
M  V30 5651 H 541.984 0.19266 -4.20959 0
M  V30 5652 H 540.708 0.848254 -3.15392 0
M  V30 5653 H 539.367 -1.26486 -3.44088 0
M  V30 5654 H 539.015 0.670684 -4.98509 0
M  V30 5655 H 538.715 -0.879638 -5.80979 0
M  V30 5656 H 540.239 0.00448788 -6.106 0
M  V30 5657 H 541.653 -2.1279 -5.32347 0
M  V30 5658 H 540.05 -2.91522 -5.24533 0
M  V30 5659 H 541.12 -2.97019 -3.83286 0
M  V30 5660 N 542.463 1.3308 -0.844243 0
M  V30 5661 C 543.426 2.27403 -0.286485 0
M  V30 5662 C 544.426 1.51179 0.547872 0
M  V30 5663 O 545.616 1.70421 0.360886 0
M  V30 5664 C 542.748 3.35653 0.595813 0
M  V30 5665 H 543.941 2.78248 -1.11885 0
M  V30 5666 H 541.494 1.43574 -0.617749 0
M  V30 5667 H 542.229 2.90058 1.4504 0
M  V30 5668 H 542.014 3.921 -0.00125994 0
M  V30 5669 H 543.504 4.05958 0.979168 0
M  V30 5670 N 543.941 0.601185 1.45683 0
M  V30 5671 C 544.904 -0.111398 2.28929 0
M  V30 5672 C 545.904 -0.801246 1.39416 0
M  V30 5673 O 547.094 -0.650383 1.61603 0
M  V30 5674 C 544.226 -1.16773 3.20276 0
M  V30 5675 H 545.419 0.620412 2.93413 0
M  V30 5676 H 542.972 0.359946 1.52099 0
M  V30 5677 H 543.707 -1.93051 2.60579 0
M  V30 5678 H 543.492 -0.677358 3.86205 0
M  V30 5679 H 544.982 -1.66698 3.82886 0
M  V30 5680 N 545.419 -1.53889 0.339982 0
M  V30 5681 C 546.382 -2.23547 -0.50592 0
M  V30 5682 C 547.382 -1.23445 -1.03044 0
M  V30 5683 O 548.572 -1.47909 -0.920253 0
M  V30 5684 C 545.704 -2.95234 -1.7044 0
M  V30 5685 H 546.897 -2.99722 0.103247 0
M  V30 5686 H 544.45 -1.56033 0.0912804 0
M  V30 5687 H 545.185 -2.23236 -2.35236 0
M  V30 5688 H 544.97 -3.68654 -1.33553 0
M  V30 5689 H 546.46 -3.48258 -2.30447 0
M  V30 5690 N 546.897 -0.0685191 -1.57451 0
M  V30 5691 C 547.807 0.914677 -2.16034 0
M  V30 5692 C 548.823 1.32938 -1.12265 0
M  V30 5693 O 549.999 1.40275 -1.44516 0
M  V30 5694 C 547.064 2.16519 -2.70777 0
M  V30 5695 C 546.125 1.80721 -3.89408 0
M  V30 5696 C 545.358 2.9981 -4.41531 0
M  V30 5697 O 545.581 4.13727 -3.92666 0
M  V30 5698 O 544.515 2.79817 -5.32903 0
M  V30 5699 H 548.341 0.446364 -3.00402 0
M  V30 5700 H 545.926 0.154367 -1.486 0
M  V30 5701 H 547.808 2.89856 -3.05878 0
M  V30 5702 H 546.483 2.62454 -1.89471 0
M  V30 5703 H 545.39 1.04646 -3.59166 0
M  V30 5704 H 546.723 1.39571 -4.71997 0
M  V30 5705 N 548.375 1.56261 0.205012 0
M  V30 5706 C 549.6 1.84491 0.947512 0
M  V30 5707 C 550.025 0.650894 1.76479 0
M  V30 5708 O 549.383 -0.40035 1.76824 0
M  V30 5709 C 549.431 3.10863 1.82747 0
M  V30 5710 O 548.535 2.90719 2.925 0
M  V30 5711 H 547.876 0.607783 0.267386 0
M  V30 5712 H 550.406 2.03485 0.213323 0
M  V30 5713 H 550.416 3.41399 2.23407 0
M  V30 5714 H 549.091 3.97392 1.2269 0
M  V30 5715 H 547.668 2.71457 2.55667 0
M  V30 5716 N 549.853 -0.472356 1.50355 0
M  V30 5717 C 550.763 -1.59637 1.7191 0
M  V30 5718 C 551.779 -1.63247 0.602195 0
M  V30 5719 O 552.955 -1.81139 0.880369 0
M  V30 5720 C 550.02 -2.9586 1.80742 0
M  V30 5721 C 549.081 -3.02649 3.04471 0
M  V30 5722 C 548.314 -4.32374 3.12872 0
M  V30 5723 O 548.537 -5.22807 2.28099 0
M  V30 5724 O 547.471 -4.44728 4.05587 0
M  V30 5725 H 551.297 -1.44373 2.67189 0
M  V30 5726 H 548.882 -0.651717 1.34436 0
M  V30 5727 H 550.764 -3.7677 1.88739 0
M  V30 5728 H 549.439 -3.11325 0.88647 0
M  V30 5729 H 548.346 -2.20821 3.01975 0
M  V30 5730 H 549.679 -2.92119 3.9614 0
M  V30 5731 N 551.331 -1.39911 -0.725443 0
M  V30 5732 C 552.747 -1.21725 -1.03224 0
M  V30 5733 C 552.947 -0.0855224 -2.01318 0
M  V30 5734 O 552.003 0.55976 -2.46217 0
M  V30 5735 C 553.316 -2.55511 -1.58539 0
M  V30 5736 C 554.864 -2.62439 -1.70572 0
M  V30 5737 C 555.339 -3.9647 -2.29294 0
M  V30 5738 N 556.83 -3.98159 -2.36692 0
M  V30 5739 C 557.565 -4.98647 -2.83088 0
M  V30 5740 N 557.061 -6.0953 -3.2931 0
M  V30 5741 N 558.854 -4.8602 -2.82384 0
M  V30 5742 H 551.005 -2.12267 -0.075048 0
M  V30 5743 H 553.268 -0.943136 -0.0959066 0
M  V30 5744 H 552.974 -3.38926 -0.939249 0
M  V30 5745 H 552.848 -2.75905 -2.57208 0
M  V30 5746 H 555.235 -1.79401 -2.34306 0
M  V30 5747 H 555.316 -2.45885 -0.705297 0
M  V30 5748 H 554.96 -4.79942 -1.66186 0
M  V30 5749 H 554.89 -4.10349 -3.30032 0
M  V30 5750 H 557.381 -3.18085 -2.04035 0
M  V30 5751 H 557.694 -6.82106 -3.6325 0
M  V30 5752 H 556.039 -6.1311 -3.27294 0
M  V30 5753 H 559.23 -3.98493 -2.45603 0
M  V30 5754 H 559.403 -5.64478 -3.18226 0
M  V30 5755 N 552.809 0.956637 -1.25245 0
M  V30 5756 C 554.056 1.701 -1.09874 0
M  V30 5757 C 554.384 1.91128 0.36062 0
M  V30 5758 O 553.639 1.47837 1.28229 0
M  V30 5759 C 553.938 3.08996 -1.79601 0
M  V30 5760 C 553.604 3.07774 -3.29523 0
M  V30 5761 C 552.266 3.07149 -3.70423 0
M  V30 5762 C 554.618 3.01257 -4.25316 0
M  V30 5763 C 551.946 2.97752 -5.0553 0
M  V30 5764 C 554.298 2.93403 -5.60444 0
M  V30 5765 C 552.962 2.91111 -6.00675 0
M  V30 5766 H 552.232 0.62244 -0.402056 0
M  V30 5767 H 554.879 1.1178 -1.55491 0
M  V30 5768 H 553.184 3.70848 -1.26408 0
M  V30 5769 H 554.881 3.65407 -1.65162 0
M  V30 5770 H 551.471 3.09032 -2.9698 0
M  V30 5771 H 555.655 3.00861 -3.9471 0
M  V30 5772 H 550.911 2.94346 -5.35883 0
M  V30 5773 H 555.085 2.87321 -6.34366 0
M  V30 5774 H 552.712 2.83586 -7.05325 0
M  V30 5775 N 554.287 1.06798 1.15896 0
M  V30 5776 C 555.533 0.788934 1.86825 0
M  V30 5777 C 555.866 -0.683084 1.8179 0
M  V30 5778 O 555.141 -1.50086 1.23711 0
M  V30 5779 C 555.424 1.29065 3.36176 0
M  V30 5780 C 555.277 2.8268 3.49874 0
M  V30 5781 C 556.596 0.902655 4.30744 0
M  V30 5782 H 553.715 0.288066 0.678371 0
M  V30 5783 H 556.357 1.32479 1.36195 0
M  V30 5784 H 554.507 0.834806 3.79425 0
M  V30 5785 H 556.179 3.36511 3.15528 0
M  V30 5786 H 554.422 3.21157 2.91617 0
M  V30 5787 H 555.093 3.12852 4.54783 0
M  V30 5788 H 557.569 1.29535 3.95424 0
M  V30 5789 H 556.445 1.28111 5.3374 0
M  V30 5790 H 556.706 -0.191951 4.41683 0
M  V30 5791 N 555.766 -1.3263 0.851289 0
M  V30 5792 C 557.182 -1.50162 0.5407 0
M  V30 5793 C 557.382 -1.78788 -0.929369 0
M  V30 5794 O 556.438 -1.85545 -1.71258 0
M  V30 5795 C 557.751 -2.64803 1.42478 0
M  V30 5796 C 559.299 -2.78688 1.42485 0
M  V30 5797 C 559.774 -3.96405 2.29407 0
M  V30 5798 N 561.265 -4.0366 2.27184 0
M  V30 5799 C 562 -4.93971 2.9117 0
M  V30 5800 N 561.496 -5.89313 3.64256 0
M  V30 5801 N 563.289 -4.87066 2.80576 0
M  V30 5802 H 555.44 -1.12315 1.80275 0
M  V30 5803 H 557.703 -0.553266 0.769806 0
M  V30 5804 H 557.409 -2.50368 2.46999 0
M  V30 5805 H 557.283 -3.60506 1.10974 0
M  V30 5806 H 559.67 -2.92547 0.387304 0
M  V30 5807 H 559.751 -1.83708 1.78002 0
M  V30 5808 H 559.395 -3.83304 3.33228 0
M  V30 5809 H 559.325 -4.90654 1.91224 0
M  V30 5810 H 561.816 -3.35435 1.74045 0
M  V30 5811 H 562.129 -6.54913 4.10255 0
M  V30 5812 H 560.474 -5.8935 3.68364 0
M  V30 5813 H 563.665 -4.11552 2.23031 0
M  V30 5814 H 563.838 -5.57248 3.30725 0
M  V30 5815 N 557.244 -0.608902 -1.45362 0
M  V30 5816 C 558.176 0.147318 -2.28726 0
M  V30 5817 C 559.189 0.830468 -1.40025 0
M  V30 5818 O 560.378 0.695636 -1.64387 0
M  V30 5819 C 557.478 1.22968 -3.15804 0
M  V30 5820 C 556.651 0.633391 -4.3279 0
M  V30 5821 C 555.71 1.60682 -5.01067 0
M  V30 5822 O 554.736 1.13261 -5.57818 0
M  V30 5823 N 555.938 2.94123 -5.00472 0
M  V30 5824 H 558.703 -0.568014 -2.94268 0
M  V30 5825 H 556.264 -0.448479 -1.55564 0
M  V30 5826 H 558.256 1.88072 -3.58345 0
M  V30 5827 H 556.826 1.84752 -2.52162 0
M  V30 5828 H 556.046 -0.195762 -3.93714 0
M  V30 5829 H 557.334 0.215255 -5.08344 0
M  V30 5830 H 556.732 3.3525 -4.55657 0
M  V30 5831 H 555.289 3.54646 -5.46872 0
M  V30 5832 N 558.722 1.53707 -0.348139 0
M  V30 5833 C 559.97 2.00591 0.246478 0
M  V30 5834 C 560.291 1.23753 1.50699 0
M  V30 5835 O 559.561 0.345964 1.92821 0
M  V30 5836 H 558.141 0.741053 0.0940679 0
M  V30 5837 H 560.803 1.89139 -0.470354 0
M  V30 5838 H 559.899 3.08297 0.485714 0
M  V30 5839 N 560.2 0.0768682 1.57412 0
M  V30 5840 C 561.428 -0.59997 1.9801 0
M  V30 5841 C 561.843 -1.62842 0.955408 0
M  V30 5842 O 561.2 -1.8241 -0.057314 0
M  V30 5843 C 561.251 -1.26401 3.38681 0
M  V30 5844 O 560.972 -0.276723 4.37225 0
M  V30 5845 C 562.473 -2.0282 3.94182 0
M  V30 5846 H 559.693 -0.162239 0.651091 0
M  V30 5847 H 562.237 0.150771 2.03943 0
M  V30 5848 H 560.392 -1.96581 3.33819 0
M  V30 5849 H 560.806 -0.753744 5.19056 0
M  V30 5850 H 562.28 -2.44667 4.94815 0
M  V30 5851 H 562.757 -2.88678 3.31001 0
M  V30 5852 H 563.363 -1.37496 4.02461 0
M  V30 5853 N 561.678 -1.56367 -0.196722 0
M  V30 5854 C 562.926 -1.80172 -0.915554 0
M  V30 5855 C 563.247 -0.649649 -1.8386 0
M  V30 5856 O 562.517 0.332111 -1.93064 0
M  V30 5857 H 561.097 -0.664592 -0.341067 0
M  V30 5858 H 563.759 -1.93844 -0.202622 0
M  V30 5859 H 562.855 -2.7327 -1.50764 0
M  V30 5860 N 563.156 0.464375 -1.50603 0
M  V30 5861 C 564.104 1.58224 -1.70493 0
M  V30 5862 C 565.098 1.59492 -0.570836 0
M  V30 5863 O 566.304 1.63561 -0.751517 0
M  V30 5864 H 562.679 0.525161 -0.538247 0
M  V30 5865 H 564.65 1.38613 -2.64252 0
M  V30 5866 C 563.399 2.96113 -1.82243 0
M  V30 5867 H 562.722 2.95858 -2.68901 0
M  V30 5868 H 564.162 3.73769 -2.00182 0
M  V30 5869 C 562.621 3.31946 -0.575628 0
M  V30 5870 O 563.151 4.00708 0.282152 0
M  V30 5871 N 561.357 2.87436 -0.427665 0
M  V30 5872 H 560.904 2.31652 -1.12674 0
M  V30 5873 H 560.862 3.11776 0.405379 0
M  V30 5874 N 564.634 1.40294 0.718013 0
M  V30 5875 C 565.911 1.2894 1.47084 0
M  V30 5876 C 566.291 -0.0933625 2.10893 0
M  V30 5877 O 565.639 -1.10598 1.99951 0
M  V30 5878 C 565.849 2.4264 2.50852 0
M  V30 5879 C 567.197 2.8276 3.16752 0
M  V30 5880 O 568.221 2.42215 2.61171 0
M  V30 5881 O 567.08 3.528 4.17366 0
M  V30 5882 H 564.174 0.506236 0.653952 0
M  V30 5883 H 566.72 1.52208 0.750394 0
M  V30 5884 H 565.492 3.35009 2.022 0
M  V30 5885 H 565.115 2.21129 3.30435 0
M  V30 5886 N 566.112 -0.949982 1.2575 0
M  V30 5887 C 567.022 -2.08109 1.08295 0
M  V30 5888 C 568.038 -1.7399 0.0188181 0
M  V30 5889 O 569.214 -2.00187 0.220724 0
M  V30 5890 C 566.279 -3.39383 0.708534 0
M  V30 5891 C 565.34 -3.8734 1.85111 0
M  V30 5892 C 564.573 -5.12349 1.49447 0
M  V30 5893 O 564.796 -5.6905 0.392212 0
M  V30 5894 O 563.73 -5.5513 2.32624 0
M  V30 5895 H 567.556 -2.25738 2.03165 0
M  V30 5896 H 565.141 -1.06545 1.04731 0
M  V30 5897 H 567.023 -4.18277 0.512061 0
M  V30 5898 H 565.698 -3.23013 -0.210854 0
M  V30 5899 H 564.605 -3.09429 2.10248 0
M  V30 5900 H 565.938 -4.08216 2.74991 0
M  V30 5901 N 567.59 -1.07411 -1.15328 0
M  V30 5902 C 568.553 -0.698914 -2.18284 0
M  V30 5903 C 569.553 0.261149 -1.58665 0
M  V30 5904 O 570.743 0.0420277 -1.74149 0
M  V30 5905 C 567.875 -0.0302427 -3.40887 0
M  V30 5906 H 569.068 -1.61045 -2.52991 0
M  V30 5907 H 566.621 -0.870724 -1.298 0
M  V30 5908 H 567.356 0.893505 -3.11748 0
M  V30 5909 H 567.141 -0.720759 -3.85419 0
M  V30 5910 H 568.631 0.21759 -4.17033 0
M  V30 5911 N 569.068 1.32177 -0.85831 0
M  V30 5912 C 570.316 1.96735 -0.462568 0
M  V30 5913 C 570.637 1.6824 0.985911 0
M  V30 5914 O 569.907 0.991564 1.68952 0
M  V30 5915 H 568.487 0.727849 -0.168064 0
M  V30 5916 H 571.149 1.61195 -1.09554 0
M  V30 5917 H 570.245 3.06068 -0.610647 0
M  V30 5918 N 570.547 0.616602 1.45037 0
M  V30 5919 C 571.51 -0.0871112 2.29034 0
M  V30 5920 C 572.51 -0.786414 1.40258 0
M  V30 5921 O 573.7 -0.633207 1.62284 0
M  V30 5922 C 570.832 -1.13369 3.21497 0
M  V30 5923 H 572.025 0.651497 2.92738 0
M  V30 5924 H 569.578 0.376058 1.51709 0
M  V30 5925 H 570.313 -1.90277 2.62612 0
M  V30 5926 H 570.098 -0.636358 3.86902 0
M  V30 5927 H 571.588 -1.62627 3.84633 0
M  V30 5928 N 572.025 -1.5352 0.356285 0
M  V30 5929 C 572.988 -2.24071 -0.482182 0
M  V30 5930 C 573.988 -1.24531 -1.01729 0
M  V30 5931 O 575.178 -1.48876 -0.904513 0
M  V30 5932 C 572.31 -2.97025 -1.67299 0
M  V30 5933 H 573.503 -2.99596 0.135031 0
M  V30 5934 H 571.056 -1.55928 0.107825 0
M  V30 5935 H 571.791 -2.25719 -2.32855 0
M  V30 5936 H 571.576 -3.7005 -1.29636 0
M  V30 5937 H 573.066 -3.50683 -2.26741 0
M  V30 5938 N 573.503 -0.0852151 -1.57369 0
M  V30 5939 C 574.728 0.592872 -1.98746 0
M  V30 5940 C 575.153 1.61538 -0.963689 0
M  V30 5941 O 574.511 1.81168 0.069071 0
M  V30 5942 C 574.559 1.22599 -3.39119 0
M  V30 5943 O 573.663 2.34185 -3.39457 0
M  V30 5944 H 573.004 0.151314 -0.646529 0
M  V30 5945 H 575.534 -0.163703 -2.03944 0
M  V30 5946 H 575.544 1.56965 -3.76598 0
M  V30 5947 H 574.219 0.476831 -4.13158 0
M  V30 5948 H 572.796 2.01512 -3.13763 0
M  V30 5949 N 574.981 1.5647 0.188427 0
M  V30 5950 C 575.944 1.9421 1.21718 0
M  V30 5951 C 576.944 0.823901 1.38089 0
M  V30 5952 O 578.134 1.09122 1.35787 0
M  V30 5953 C 575.266 2.22197 2.58537 0
M  V30 5954 H 576.459 2.86252 0.894418 0
M  V30 5955 H 574.012 1.50263 0.430211 0
M  V30 5956 H 574.747 1.32814 2.95856 0
M  V30 5957 H 574.532 3.03688 2.48025 0
M  V30 5958 H 576.022 2.52376 3.3271 0
M  V30 5959 N 576.459 -0.456382 1.50847 0
M  V30 5960 C 577.736 -1.21739 1.53098 0
M  V30 5961 C 578.116 -2.09179 0.284132 0
M  V30 5962 O 577.464 -2.16466 -0.731773 0
M  V30 5963 C 577.674 -2.03573 2.83477 0
M  V30 5964 C 579.022 -2.61264 3.34703 0
M  V30 5965 O 580.046 -2.13802 2.84898 0
M  V30 5966 O 578.905 -3.47779 4.21559 0
M  V30 5967 H 575.999 -0.553219 0.614718 0
M  V30 5968 H 578.545 -0.467003 1.63148 0
M  V30 5969 H 577.317 -1.39232 3.65691 0
M  V30 5970 H 576.94 -2.85716 2.76499 0
M  V30 5971 N 577.937 -1.40673 -0.710563 0
M  V30 5972 C 579.183 -1.39428 -1.47267 0
M  V30 5973 C 579.516 0.00182129 -1.942 0
M  V30 5974 O 578.791 0.971387 -1.68506 0
M  V30 5975 C 579.074 -2.38812 -2.6952 0
M  V30 5976 C 578.927 -3.87467 -2.28449 0
M  V30 5977 C 580.246 -2.3566 -3.71689 0
M  V30 5978 H 577.365 -0.507768 -0.534173 0
M  V30 5979 H 580.007 -1.71843 -0.810547 0
M  V30 5980 H 578.157 -2.113 -3.26013 0
M  V30 5981 H 579.829 -4.25825 -1.77399 0
M  V30 5982 H 578.072 -4.03058 -1.60395 0
M  V30 5983 H 578.743 -4.5253 -3.16103 0
M  V30 5984 H 581.219 -2.6004 -3.24836 0
M  V30 5985 H 580.095 -3.07237 -4.54859 0
M  V30 5986 H 580.356 -1.36996 -4.20339 0
M  V30 5987 N 579.415 0.9433 -1.26252 0
M  V30 5988 C 580.661 1.69175 -1.11837 0
M  V30 5989 C 580.994 1.91238 0.337891 0
M  V30 5990 O 580.269 1.49152 1.24836 0
M  V30 5991 C 580.552 3.06783 -1.88563 0
M  V30 5992 C 580.405 2.9206 -3.42083 0
M  V30 5993 C 581.724 4.06865 -1.67776 0
M  V30 5994 H 578.843 0.61399 -0.407658 0
M  V30 5995 H 581.485 1.09572 -1.55222 0
M  V30 5996 H 579.635 3.57663 -1.51689 0
M  V30 5997 H 581.307 2.48419 -3.88698 0
M  V30 5998 H 579.55 2.27731 -3.69217 0
M  V30 5999 H 580.221 3.89651 -3.90994 0
M  V30 6000 H 582.697 3.64939 -1.99897 0
M  V30 6001 H 581.573 5.01168 -2.23879 0
M  V30 6002 H 581.834 4.37705 -0.621816 0
M  V30 6003 N 580.893 1.08022 1.14757 0
M  V30 6004 C 582.118 0.82895 1.90114 0
M  V30 6005 C 582.543 -0.612772 1.77839 0
M  V30 6006 O 581.901 -1.42895 1.11583 0
M  V30 6007 C 581.949 1.25062 3.38219 0
M  V30 6008 O 581.053 0.400119 4.10454 0
M  V30 6009 H 580.394 0.301412 0.591648 0
M  V30 6010 H 582.924 1.44062 1.45284 0
M  V30 6011 H 582.934 1.22977 3.89025 0
M  V30 6012 H 581.609 2.30067 3.46471 0
M  V30 6013 H 580.186 0.484052 3.69745 0
M  V30 6014 N 582.371 -1.3172 0.865308 0
M  V30 6015 C 583.301 -2.31109 0.333302 0
M  V30 6016 C 584.282 -1.60148 -0.573301 0
M  V30 6017 O 585.467 -1.87882 -0.491305 0
M  V30 6018 C 582.597 -3.44104 -0.470078 0
M  V30 6019 C 581.551 -4.26623 0.343021 0
M  V30 6020 C 580.877 -5.31482 -0.585756 0
M  V30 6021 C 582.177 -4.98001 1.57456 0
M  V30 6022 H 583.871 -2.75855 1.1638 0
M  V30 6023 H 581.417 -1.3262 0.561069 0
M  V30 6024 H 583.37 -4.12682 -0.852752 0
M  V30 6025 H 582.094 -2.98112 -1.33404 0
M  V30 6026 H 580.753 -3.59707 0.707583 0
M  V30 6027 H 580.401 -4.81741 -1.44686 0
M  V30 6028 H 580.101 -5.87582 -0.0456494 0
M  V30 6029 H 581.625 -6.0292 -0.965375 0
M  V30 6030 H 583.039 -5.59201 1.26359 0
M  V30 6031 H 581.436 -5.63876 2.05339 0
M  V30 6032 H 582.506 -4.25253 2.32997 0
M  V30 6033 N 583.85 -0.624285 -1.44708 0
M  V30 6034 C 585.077 -0.132919 -2.06473 0
M  V30 6035 C 585.493 1.18967 -1.46602 0
M  V30 6036 O 584.85 1.72824 -0.586341 0
M  V30 6037 C 584.901 -0.00465418 -3.615 0
M  V30 6038 O 584.622 -1.27494 -4.19138 0
M  V30 6039 C 586.123 0.516213 -4.40284 0
M  V30 6040 H 583.343 -0.0765201 -0.666623 0
M  V30 6041 H 585.887 -0.856751 -1.85688 0
M  V30 6042 H 584.042 0.669583 -3.8157 0
M  V30 6043 H 584.456 -1.11536 -5.12504 0
M  V30 6044 H 585.93 0.554994 -5.49203 0
M  V30 6045 H 586.407 1.5419 -4.11245 0
M  V30 6046 H 587.013 -0.124542 -4.25118 0
M  V30 6047 N 585.328 1.53329 -0.364422 0
M  V30 6048 C 586.568 2.0315 0.22572 0
M  V30 6049 C 586.932 1.24589 1.46087 0
M  V30 6050 O 588.133 1.64411 2.12656 0
M  V30 6051 C 586.404 3.53718 0.511663 0
M  V30 6052 S 587.963 4.25412 1.07564 0
M  V30 6053 H 584.781 0.70795 0.0657843 0
M  V30 6054 H 587.383 1.88811 -0.507019 0
M  V30 6055 H 586.087 4.08497 -0.394784 0
M  V30 6056 H 585.618 3.72217 1.27351 0
M  V30 6057 H 587.633 4.36486 2.35997 0
M  V30 6058 N 586.806 0.0935595 1.57322 0
M  V30 6059 C 588.217 -0.435807 1.81542 0
M  V30 6060 C 588.568 -1.68263 1.00907 0
M  V30 6061 O 587.693 -2.15087 0.237983 0
M  V30 6062 C 588.288 -0.797436 3.29282 0
M  V30 6063 C 586.847 -1.27155 3.54272 0
M  V30 6064 C 585.994 -0.267455 2.76007 0
M  V30 6065 H 588.945 0.31902 1.5546 0
M  V30 6066 H 588.966 -1.6571 3.42521 0
M  V30 6067 H 588.478 0.110206 3.87943 0
M  V30 6068 H 586.579 -2.19696 3.00939 0
M  V30 6069 H 586.692 -1.23445 4.62923 0
M  V30 6070 H 585.056 -0.749282 2.43429 0
M  V30 6071 H 585.839 0.632839 3.37417 0
M  V30 6072 N 588.284 -1.56567 -0.180126 0
M  V30 6073 C 589.53 -1.81761 -0.899497 0
M  V30 6074 C 589.863 -0.670015 -1.82276 0
M  V30 6075 O 589.138 0.328575 -1.91705 0
M  V30 6076 C 589.421 -3.17296 -1.7028 0
M  V30 6077 C 589.274 -4.4257 -0.803255 0
M  V30 6078 C 590.593 -3.49678 -2.67233 0
M  V30 6079 H 587.712 -0.661192 -0.325567 0
M  V30 6080 H 590.354 -1.89272 -0.16612 0
M  V30 6081 H 588.504 -3.11023 -2.32802 0
M  V30 6082 H 590.176 -4.60902 -0.191585 0
M  V30 6083 H 588.419 -4.33658 -0.110796 0
M  V30 6084 H 589.09 -5.33935 -1.40064 0
M  V30 6085 H 591.566 -3.56347 -2.14839 0
M  V30 6086 H 590.442 -4.45605 -3.20511 0
M  V30 6087 H 590.703 -2.73932 -3.47007 0
M  V30 6088 N 589.762 0.448376 -1.51087 0
M  V30 6089 C 590.725 1.52588 -1.71025 0
M  V30 6090 C 591.725 1.49958 -0.580442 0
M  V30 6091 O 592.915 1.52176 -0.847833 0
M  V30 6092 C 590.047 2.92163 -1.75652 0
M  V30 6093 H 591.24 1.36218 -2.67179 0
M  V30 6094 H 588.793 0.676313 -1.4091 0
M  V30 6095 H 589.528 3.13951 -0.812724 0
M  V30 6096 H 589.313 2.95478 -2.57751 0
M  V30 6097 H 590.803 3.70349 -1.92953 0
M  V30 6098 N 591.24 1.41047 0.703093 0
M  V30 6099 C 592.203 1.42036 1.79884 0
M  V30 6100 C 593.203 0.312153 1.57741 0
M  V30 6101 O 594.393 0.571672 1.64553 0
M  V30 6102 C 591.525 1.22437 3.18154 0
M  V30 6103 H 592.718 2.39572 1.80403 0
M  V30 6104 H 590.271 1.27079 0.909977 0
M  V30 6105 H 591.006 0.257112 3.23279 0
M  V30 6106 H 590.791 2.02723 3.35627 0
M  V30 6107 H 592.281 1.25946 3.98155 0
M  V30 6108 N 592.718 -0.936591 1.26751 0
M  V30 6109 C 593.966 -1.67998 1.12343 0
M  V30 6110 C 594.287 -1.92137 -0.332938 0
M  V30 6111 O 593.557 -1.52132 -1.23421 0
M  V30 6112 H 592.137 -0.622609 0.412756 0
M  V30 6113 H 594.799 -1.12509 1.59147 0
M  V30 6114 H 593.895 -2.65185 1.64571 0
M  V30 6115 N 594.196 -1.08629 -1.14182 0
M  V30 6116 C 595.106 -0.730126 -2.22949 0
M  V30 6117 C 596.122 0.26436 -1.7198 0
M  V30 6118 O 597.298 0.107742 -2.01112 0
M  V30 6119 C 594.363 -0.147227 -3.46387 0
M  V30 6120 C 593.424 -1.19662 -4.12286 0
M  V30 6121 C 592.657 -0.641437 -5.29831 0
M  V30 6122 O 592.88 0.538351 -5.67854 0
M  V30 6123 O 591.814 -1.39257 -5.85569 0
M  V30 6124 H 595.64 -1.63753 -2.55771 0
M  V30 6125 H 593.225 -0.860118 -1.22157 0
M  V30 6126 H 595.107 0.174923 -4.21037 0
M  V30 6127 H 593.782 0.733304 -3.15285 0
M  V30 6128 H 592.689 -1.57133 -3.395 0
M  V30 6129 H 594.022 -2.0495 -4.475 0
M  V30 6130 N 595.674 1.31259 -0.872281 0
M  V30 6131 C 596.914 1.98418 -0.490894 0
M  V30 6132 C 597.278 1.67429 0.939755 0
M  V30 6133 O 598.479 2.27818 1.42661 0
M  V30 6134 C 596.75 3.49583 -0.743408 0
M  V30 6135 S 598.309 4.36359 -0.462226 0
M  V30 6136 H 595.127 0.687005 -0.183151 0
M  V30 6137 H 597.729 1.59619 -1.12881 0
M  V30 6138 H 596.433 3.69627 -1.78338 0
M  V30 6139 H 595.964 3.93291 -0.0925758 0
M  V30 6140 H 597.979 4.91173 0.704525 0
M  V30 6141 N 597.152 0.631951 1.44375 0
M  V30 6142 C 598.115 -0.0628142 2.29114 0
M  V30 6143 C 599.115 -0.771494 1.41084 0
M  V30 6144 O 600.305 -0.615959 1.62947 0
M  V30 6145 C 597.437 -1.09953 3.22681 0
M  V30 6146 H 598.63 0.682509 2.92031 0
M  V30 6147 H 596.183 0.392128 1.51301 0
M  V30 6148 H 596.918 -1.87481 2.64616 0
M  V30 6149 H 596.703 -0.595286 3.87555 0
M  V30 6150 H 598.193 -1.58538 3.86336 0
M  V30 6151 N 598.631 -1.53133 0.372548 0
M  V30 6152 C 599.879 -2.00958 -0.214534 0
M  V30 6153 C 600.2 -1.26135 -1.48711 0
M  V30 6154 O 599.47 -0.376597 -1.92246 0
M  V30 6155 H 598.05 -0.742456 -0.0822664 0
M  V30 6156 H 600.712 -1.88367 0.500385 0
M  V30 6157 H 599.808 -3.09031 -0.436605 0
M  V30 6158 N 600.109 -0.101901 -1.5727 0
M  V30 6159 C 601.52 0.426173 -1.81771 0
M  V30 6160 C 601.871 1.67725 -1.01797 0
M  V30 6161 O 600.996 2.14958 -0.249386 0
M  V30 6162 C 601.591 0.779962 -3.297 0
M  V30 6163 C 600.15 1.25275 -3.54941 0
M  V30 6164 C 599.297 0.252814 -2.76145 0
M  V30 6165 H 602.248 -0.32726 -1.55289 0
M  V30 6166 H 602.269 1.63891 -3.43395 0
M  V30 6167 H 601.781 -0.130778 -3.8788 0
M  V30 6168 H 599.882 2.18097 -3.021 0
M  V30 6169 H 599.995 1.20988 -4.63572 0
M  V30 6170 H 598.359 0.736362 -2.43823 0
M  V30 6171 H 599.142 -0.650724 -3.37076 0
M  V30 6172 N 601.587 1.56661 0.17182 0
M  V30 6173 C 602.55 1.9549 1.19651 0
M  V30 6174 C 603.55 0.838501 1.37207 0
M  V30 6175 O 604.74 1.10556 1.34622 0
M  V30 6176 C 601.872 2.24927 2.56166 0
M  V30 6177 H 603.065 2.87184 0.864007 0
M  V30 6178 H 600.618 1.50711 0.41425 0
M  V30 6179 H 601.353 1.35944 2.94431 0
M  V30 6180 H 601.138 3.06301 2.4479 0
M  V30 6181 H 602.628 2.55891 3.30014 0
M  V30 6182 N 603.065 -0.440357 1.51323 0
M  V30 6183 C 604.342 -1.20109 1.5438 0
M  V30 6184 C 604.722 -2.08866 0.306303 0
M  V30 6185 O 604.07 -2.1723 -0.708773 0
M  V30 6186 C 604.28 -2.00555 2.8562 0
M  V30 6187 C 605.628 -2.577 3.37455 0
M  V30 6188 O 606.652 -2.10769 2.8715 0
M  V30 6189 O 605.511 -3.43289 4.25224 0
M  V30 6190 H 602.605 -0.546668 0.620551 0
M  V30 6191 H 605.151 -0.449672 1.63634 0
M  V30 6192 H 603.923 -1.35346 3.67147 0
M  V30 6193 H 603.546 -2.82768 2.79514 0
M  V30 6194 N 604.543 -1.41418 -0.695603 0
M  V30 6195 C 605.768 -1.44329 -1.48942 0
M  V30 6196 C 606.193 -0.0501579 -1.88033 0
M  V30 6197 O 605.551 0.946598 -1.54626 0
M  V30 6198 C 605.599 -2.3578 -2.72837 0
M  V30 6199 O 604.703 -1.81482 -3.70322 0
M  V30 6200 H 604.044 -0.489838 -0.44828 0
M  V30 6201 H 606.574 -1.85878 -0.855014 0
M  V30 6202 H 606.584 -2.51654 -3.21145 0
M  V30 6203 H 605.259 -3.37005 -2.43722 0
M  V30 6204 H 603.836 -1.75058 -3.29255 0
M  V30 6205 N 606.021 0.929856 -1.27246 0
M  V30 6206 C 607.269 1.674 -1.13233 0
M  V30 6207 C 607.59 1.92311 0.322744 0
M  V30 6208 O 606.86 1.52784 1.22612 0
M  V30 6209 H 605.44 0.620411 -0.416052 0
M  V30 6210 H 608.102 1.11663 -1.59741 0
M  V30 6211 H 607.198 2.64308 -1.65975 0
M  V30 6212 N 607.499 1.09233 1.13605 0
M  V30 6213 C 608.776 0.739633 1.81077 0
M  V30 6214 C 609.156 -0.775595 1.96336 0
M  V30 6215 O 608.504 -1.69726 1.52988 0
M  V30 6216 C 608.714 1.47636 3.16235 0
M  V30 6217 C 610.062 1.64087 3.91613 0
M  V30 6218 O 611.086 1.43871 3.25852 0
M  V30 6219 O 609.945 1.97511 5.0956 0
M  V30 6220 H 607.039 0.265464 0.783236 0
M  V30 6221 H 609.585 1.19441 1.20549 0
M  V30 6222 H 608.357 2.50818 3.00344 0
M  V30 6223 H 607.98 1.01362 3.84462 0
M  V30 6224 N 608.977 -1.30795 0.87923 0
M  V30 6225 C 609.94 -2.26563 0.346676 0
M  V30 6226 C 610.94 -1.52578 -0.507597 0
M  V30 6227 O 612.13 -1.71318 -0.315575 0
M  V30 6228 C 609.262 -3.37115 -0.506611 0
M  V30 6229 H 610.455 -2.75183 1.19223 0
M  V30 6230 H 608.008 -1.41886 0.655598 0
M  V30 6231 H 608.743 -2.93802 -1.37299 0
M  V30 6232 H 608.528 -3.91959 0.105218 0
M  V30 6233 H 610.018 -4.08412 -0.871192 0
M  V30 6234 N 610.455 -0.639598 -1.44038 0
M  V30 6235 C 611.385 0.0469443 -2.33453 0
M  V30 6236 C 612.366 0.82609 -1.48694 0
M  V30 6237 O 613.551 0.790285 -1.77393 0
M  V30 6238 C 610.681 1.02338 -3.3188 0
M  V30 6239 C 609.635 0.355284 -4.26523 0
M  V30 6240 C 608.961 1.44221 -5.14883 0
M  V30 6241 C 610.261 -0.743798 -5.16977 0
M  V30 6242 H 611.955 -0.699735 -2.91108 0
M  V30 6243 H 609.501 -0.337946 -1.39978 0
M  V30 6244 H 611.454 1.51247 -3.93322 0
M  V30 6245 H 610.178 1.80105 -2.72451 0
M  V30 6246 H 608.837 -0.113239 -3.66425 0
M  V30 6247 H 608.485 2.21097 -4.51802 0
M  V30 6248 H 608.185 1.00052 -5.79019 0
M  V30 6249 H 609.709 1.93295 -5.79197 0
M  V30 6250 H 611.123 -0.337444 -5.72306 0
M  V30 6251 H 609.52 -1.10914 -5.89761 0
M  V30 6252 H 610.59 -1.60745 -4.57481 0
M  V30 6253 N 611.933 1.52934 -0.380664 0
M  V30 6254 C 612.863 2.29118 0.450268 0
M  V30 6255 C 613.844 1.32153 1.07096 0
M  V30 6256 O 615.029 1.61038 1.08537 0
M  V30 6257 C 612.159 3.09161 1.58231 0
M  V30 6258 C 611.113 4.13938 1.0881 0
M  V30 6259 C 610.439 4.82153 2.31155 0
M  V30 6260 C 611.739 5.22048 0.162146 0
M  V30 6261 H 613.433 2.98826 -0.185361 0
M  V30 6262 H 610.979 1.43715 -0.0905886 0
M  V30 6263 H 612.932 3.61211 2.17036 0
M  V30 6264 H 611.656 2.3717 2.2454 0
M  V30 6265 H 610.315 3.62855 0.522633 0
M  V30 6266 H 609.963 4.06719 2.95953 0
M  V30 6267 H 609.663 5.52966 1.98752 0
M  V30 6268 H 611.187 5.37004 2.90618 0
M  V30 6269 H 612.601 5.6951 0.658126 0
M  V30 6270 H 610.998 6.00057 -0.0717122 0
M  V30 6271 H 612.068 4.78398 -0.791438 0
M  V30 6272 N 613.412 0.11024 1.57214 0
M  V30 6273 C 614.322 -0.857077 2.18383 0
M  V30 6274 C 615.338 -1.29915 1.1575 0
M  V30 6275 O 616.514 -1.36394 1.48184 0
M  V30 6276 C 613.579 -2.09264 2.76423 0
M  V30 6277 C 612.64 -1.70333 3.94063 0
M  V30 6278 C 611.873 -2.87999 4.49324 0
M  V30 6279 O 612.096 -4.0317 4.03497 0
M  V30 6280 O 611.03 -2.6559 5.40135 0
M  V30 6281 H 614.856 -0.366561 3.0148 0
M  V30 6282 H 612.441 -0.114914 1.48957 0
M  V30 6283 H 614.323 -2.81644 3.13456 0
M  V30 6284 H 612.998 -2.57339 1.96363 0
M  V30 6285 H 611.905 -0.950864 3.61814 0
M  V30 6286 H 613.238 -1.27007 4.75531 0
M  V30 6287 N 614.89 -1.56749 -0.16351 0
M  V30 6288 C 616.306 -1.51043 -0.515567 0
M  V30 6289 C 616.506 -0.815855 -1.84245 0
M  V30 6290 O 615.562 -0.379477 -2.49632 0
M  V30 6291 C 616.875 -2.95791 -0.541114 0
M  V30 6292 C 618.423 -3.0664 -0.627776 0
M  V30 6293 C 618.898 -4.52861 -0.684141 0
M  V30 6294 N 620.389 -4.5714 -0.746818 0
M  V30 6295 C 621.124 -5.67634 -0.811137 0
M  V30 6296 N 620.62 -6.8774 -0.835811 0
M  V30 6297 N 622.413 -5.55624 -0.850756 0
M  V30 6298 H 614.564 -2.00307 0.70645 0
M  V30 6299 H 616.827 -0.912876 0.255659 0
M  V30 6300 H 616.533 -3.49797 0.365329 0
M  V30 6301 H 616.407 -3.50858 -1.38487 0
M  V30 6302 H 618.794 -2.52663 -1.52464 0
M  V30 6303 H 618.875 -2.54645 0.242805 0
M  V30 6304 H 618.519 -5.07472 0.2085 0
M  V30 6305 H 618.449 -5.02621 -1.57098 0
M  V30 6306 H 620.94 -3.70669 -0.735717 0
M  V30 6307 H 621.253 -7.67701 -0.886279 0
M  V30 6308 H 619.598 -6.90334 -0.803958 0
M  V30 6309 H 622.789 -4.60709 -0.828535 0
M  V30 6310 H 622.962 -6.41756 -0.897418 0
M  V30 6311 N 616.368 0.432326 -1.51554 0
M  V30 6312 C 617.316 1.54572 -1.73811 0
M  V30 6313 C 618.31 1.58246 -0.604539 0
M  V30 6314 O 619.516 1.6193 -0.786041 0
M  V30 6315 H 615.891 0.513626 -0.549265 0
M  V30 6316 H 617.862 1.32977 -2.67132 0
M  V30 6317 C 616.611 2.92181 -1.88483 0
M  V30 6318 H 615.934 2.90088 -2.75116 0
M  V30 6319 H 617.374 3.69439 -2.08065 0
M  V30 6320 C 615.833 3.3065 -0.645909 0
M  V30 6321 O 616.363 4.01216 0.197093 0
M  V30 6322 N 614.569 2.86464 -0.488538 0
M  V30 6323 H 614.116 2.29209 -1.17562 0
M  V30 6324 H 614.074 3.12565 0.339156 0
M  V30 6325 N 617.846 1.41785 0.688094 0
M  V30 6326 C 619.076 1.44705 1.47459 0
M  V30 6327 C 619.484 0.052916 1.89126 0
M  V30 6328 O 618.827 -0.939781 1.57841 0
M  V30 6329 C 618.889 2.29935 2.76352 0
M  V30 6330 C 618.553 3.77996 2.56843 0
M  V30 6331 C 619.55 4.69976 2.22304 0
M  V30 6332 C 617.235 4.2212 2.7225 0
M  V30 6333 C 619.229 6.04068 2.03421 0
M  V30 6334 C 616.916 5.56275 2.52985 0
M  V30 6335 C 617.914 6.47065 2.18621 0
M  V30 6336 O 617.602 7.78744 1.9953 0
M  V30 6337 H 617.334 0.494703 0.460701 0
M  V30 6338 H 619.888 1.86802 0.854057 0
M  V30 6339 H 618.118 1.82664 3.40839 0
M  V30 6340 H 619.807 2.24467 3.38186 0
M  V30 6341 H 620.573 4.37175 2.10008 0
M  V30 6342 H 616.452 3.51752 2.97979 0
M  V30 6343 H 619.996 6.74897 1.76523 0
M  V30 6344 H 615.893 5.88653 2.64873 0
M  V30 6345 H 616.661 7.89966 2.14234 0
M  V30 6346 N 619.324 -0.923095 1.27737 0
M  V30 6347 C 620.735 -1.48626 1.12993 0
M  V30 6348 C 621.086 -1.94142 -0.283439 0
M  V30 6349 O 620.211 -1.81605 -1.17681 0
M  V30 6350 C 620.806 -2.70117 2.04505 0
M  V30 6351 C 619.365 -3.22642 1.93853 0
M  V30 6352 C 618.512 -1.95368 1.96791 0
M  V30 6353 H 621.463 -0.736737 1.40563 0
M  V30 6354 H 621.484 -3.4506 1.60356 0
M  V30 6355 H 620.996 -2.36959 3.07363 0
M  V30 6356 H 619.097 -3.60549 0.939968 0
M  V30 6357 H 619.21 -3.88525 2.80331 0
M  V30 6358 H 617.574 -2.12061 1.41076 0
M  V30 6359 H 618.357 -1.64517 3.01312 0
M  V30 6360 N 620.802 -1.09834 -1.13024 0
M  V30 6361 C 622.03 -0.858902 -1.8823 0
M  V30 6362 C 622.445 0.590164 -1.79339 0
M  V30 6363 O 621.802 1.4065 -1.16292 0
M  V30 6364 C 621.853 -1.29066 -3.37675 0
M  V30 6365 O 621.574 -2.6829 -3.46341 0
M  V30 6366 C 623.075 -1.08421 -4.29837 0
M  V30 6367 H 620.295 -0.308713 -0.595766 0
M  V30 6368 H 622.839 -1.4614 -1.4305 0
M  V30 6369 H 620.994 -0.731961 -3.80422 0
M  V30 6370 H 621.408 -2.86598 -4.39274 0
M  V30 6371 H 622.882 -1.43553 -5.33007 0
M  V30 6372 H 623.359 -0.0223315 -4.39194 0
M  V30 6373 H 623.965 -1.62907 -3.92863 0
M  V30 6374 N 622.28 1.30327 -0.886154 0
M  V30 6375 C 623.528 1.9571 -0.504195 0
M  V30 6376 C 623.849 1.70294 0.950003 0
M  V30 6377 O 623.119 1.02718 1.66811 0
M  V30 6378 H 621.699 0.72412 -0.183465 0
M  V30 6379 H 624.361 1.58835 -1.12949 0
M  V30 6380 H 623.457 3.04704 -0.675431 0
M  V30 6381 N 623.758 0.647228 1.43697 0
M  V30 6382 C 624.721 -0.0385101 2.29168 0
M  V30 6383 C 625.721 -0.756487 1.41894 0
M  V30 6384 O 626.911 -0.598641 1.63591 0
M  V30 6385 C 624.043 -1.06524 3.23829 0
M  V30 6386 H 625.236 0.713445 2.9129 0
M  V30 6387 H 622.789 0.408153 1.50877 0
M  V30 6388 H 623.524 -1.84664 2.66589 0
M  V30 6389 H 623.309 -0.554147 3.88164 0
M  V30 6390 H 624.799 -1.54432 3.87996 0
M  V30 6391 N 625.236 -1.5273 0.388769 0
M  V30 6392 C 626.146 -2.30165 -0.453993 0
M  V30 6393 C 627.162 -1.37058 -1.07197 0
M  V30 6394 O 628.338 -1.70127 -1.0779 0
M  V30 6395 C 625.403 -3.09303 -1.56628 0
M  V30 6396 C 624.464 -4.18117 -0.973467 0
M  V30 6397 C 623.697 -4.93472 -2.03275 0
M  V30 6398 O 623.92 -4.68913 -3.24772 0
M  V30 6399 O 622.854 -5.78833 -1.65034 0
M  V30 6400 H 626.68 -3.03185 0.176816 0
M  V30 6401 H 624.265 -1.4862 0.152501 0
M  V30 6402 H 626.147 -3.58648 -2.21246 0
M  V30 6403 H 624.822 -2.39098 -2.18206 0
M  V30 6404 H 623.729 -3.7297 -0.290556 0
M  V30 6405 H 625.062 -4.90556 -0.401908 0
M  V30 6406 N 626.714 -0.118576 -1.57153 0
M  V30 6407 C 627.961 0.539526 -1.9518 0
M  V30 6408 C 628.289 1.66714 -1.00184 0
M  V30 6409 O 627.544 1.95683 -0.0256482 0
M  V30 6410 C 627.843 1.11303 -3.39627 0
M  V30 6411 C 627.509 0.106809 -4.50773 0
M  V30 6412 C 626.171 -0.169876 -4.809 0
M  V30 6413 C 628.523 -0.57895 -5.17975 0
M  V30 6414 C 625.851 -1.13861 -5.75545 0
M  V30 6415 C 628.203 -1.53631 -6.13661 0
M  V30 6416 C 626.867 -1.82099 -6.42181 0
M  V30 6417 H 626.137 0.197427 -0.714215 0
M  V30 6418 H 628.784 -0.199391 -1.90459 0
M  V30 6419 H 627.089 1.92869 -3.4104 0
M  V30 6420 H 628.786 1.63032 -3.66363 0
M  V30 6421 H 625.376 0.332645 -4.27307 0
M  V30 6422 H 629.56 -0.378359 -4.94856 0
M  V30 6423 H 624.816 -1.36592 -5.95947 0
M  V30 6424 H 628.99 -2.07337 -6.64819 0
M  V30 6425 H 626.617 -2.57319 -7.15326 0
M  V30 6426 N 628.193 1.56834 0.155195 0
M  V30 6427 C 629.123 2.00678 1.19376 0
M  V30 6428 C 630.104 0.884973 1.45266 0
M  V30 6429 O 631.289 1.1522 1.56326 0
M  V30 6430 C 628.419 2.38042 2.5289 0
M  V30 6431 C 627.373 3.53332 2.41538 0
M  V30 6432 C 626.699 3.76485 3.79688 0
M  V30 6433 C 627.999 4.86265 1.9064 0
M  V30 6434 H 629.693 2.87688 0.829232 0
M  V30 6435 H 627.239 1.38407 0.397445 0
M  V30 6436 H 629.192 2.67314 3.25763 0
M  V30 6437 H 627.916 1.4796 2.91162 0
M  V30 6438 H 626.575 3.24213 1.71117 0
M  V30 6439 H 626.223 2.83667 4.15382 0
M  V30 6440 H 625.923 4.54068 3.72956 0
M  V30 6441 H 627.447 4.08174 4.54122 0
M  V30 6442 H 628.861 5.14308 2.53299 0
M  V30 6443 H 627.258 5.67597 1.94818 0
M  V30 6444 H 628.328 4.77184 0.861596 0
M  V30 6445 N 629.671 -0.424282 1.51781 0
M  V30 6446 C 630.919 -1.17028 1.64769 0
M  V30 6447 C 631.24 -1.91409 0.372523 0
M  V30 6448 O 630.51 -1.86091 -0.612108 0
M  V30 6449 H 629.09 -0.434992 0.607282 0
M  V30 6450 H 631.752 -0.485169 1.88765 0
M  V30 6451 H 630.848 -1.8927 2.4816 0
M  V30 6452 N 631.149 -1.42148 -0.680565 0
M  V30 6453 C 632.426 -1.32795 -1.43614 0
M  V30 6454 C 632.806 0.037415 -2.11067 0
M  V30 6455 O 632.154 1.05258 -2.02813 0
M  V30 6456 C 632.364 -2.49206 -2.44331 0
M  V30 6457 C 633.712 -2.91059 -3.09144 0
M  V30 6458 O 634.736 -2.49054 -2.54657 0
M  V30 6459 O 633.595 -3.63741 -4.07866 0
M  V30 6460 H 630.689 -0.523397 -0.640301 0
M  V30 6461 H 633.235 -1.54144 -0.709775 0
M  V30 6462 H 632.007 -3.40252 -1.93247 0
M  V30 6463 H 631.63 -2.29813 -3.24456 0
M  V30 6464 N 632.627 0.916307 -1.28225 0
M  V30 6465 C 633.875 1.6619 -1.15002 0
M  V30 6466 C 634.196 1.92642 0.302329 0
M  V30 6467 O 633.466 1.54076 1.20985 0
M  V30 6468 H 632.046 0.615964 -0.422608 0
M  V30 6469 H 634.708 1.09963 -1.60917 0
M  V30 6470 H 633.804 2.62533 -1.68769 0
M  V30 6471 N 634.105 1.10431 1.1244 0
M  V30 6472 C 635.353 0.845045 1.83585 0
M  V30 6473 C 635.674 -0.631168 1.84503 0
M  V30 6474 O 634.944 -1.45825 1.30813 0
M  V30 6475 H 633.524 0.309628 0.679809 0
M  V30 6476 H 636.186 1.39458 1.36153 0
M  V30 6477 H 635.282 1.20786 2.8778 0
M  V30 6478 N 635.583 -1.29855 0.893053 0
M  V30 6479 C 636.86 -1.90694 0.435336 0
M  V30 6480 C 637.24 -1.8111 -1.08454 0
M  V30 6481 O 636.588 -1.23352 -1.92345 0
M  V30 6482 C 636.798 -3.36033 0.942472 0
M  V30 6483 C 638.146 -4.13083 0.982226 0
M  V30 6484 O 639.17 -3.4491 0.889686 0
M  V30 6485 O 638.029 -5.34896 1.12022 0
M  V30 6486 H 635.123 -0.815978 0.134567 0
M  V30 6487 H 637.669 -1.38367 0.982484 0
M  V30 6488 H 636.441 -3.37132 1.9864 0
M  V30 6489 H 636.064 -3.95828 0.374952 0
M  V30 6490 N 637.061 -0.65484 -1.43351 0
M  V30 6491 C 638.31 -0.166215 -2.01014 0
M  V30 6492 C 638.623 1.22764 -1.52278 0
M  V30 6493 O 639.829 1.81156 -2.02224 0
M  V30 6494 C 638.285 -0.246341 -3.59056 0
M  V30 6495 C 637.893 -1.64299 -4.16785 0
M  V30 6496 C 639.637 0.184597 -4.24098 0
M  V30 6497 C 637.544 -1.67695 -5.67126 0
M  V30 6498 H 636.474 -0.0583769 -0.751737 0
M  V30 6499 H 639.125 -0.817111 -1.64303 0
M  V30 6500 H 637.507 0.472092 -3.93176 0
M  V30 6501 H 638.681 -2.3869 -3.94162 0
M  V30 6502 H 636.996 -2.02004 -3.6412 0
M  V30 6503 H 639.593 0.179088 -5.344 0
M  V30 6504 H 639.936 1.21632 -3.98135 0
M  V30 6505 H 640.469 -0.482141 -3.94867 0
M  V30 6506 H 637.208 -2.68783 -5.9786 0
M  V30 6507 H 636.728 -0.976313 -5.91801 0
M  V30 6508 H 638.407 -1.42142 -6.31193 0
M  V30 6509 N 638.539 1.52521 -0.396863 0
M  V30 6510 C 639.764 2.06571 0.185258 0
M  V30 6511 C 640.189 1.26605 1.39115 0
M  V30 6512 O 639.547 0.293055 1.78916 0
M  V30 6513 C 639.595 3.5674 0.526189 0
M  V30 6514 O 638.699 3.7929 1.61903 0
M  V30 6515 H 638.04 0.663712 0.0195474 0
M  V30 6516 H 640.57 1.966 -0.566519 0
M  V30 6517 H 640.58 4.00311 0.788338 0
M  V30 6518 H 639.255 4.14379 -0.355397 0
M  V30 6519 H 637.832 3.47605 1.35 0
M  V30 6520 N 640.017 0.126909 1.57088 0
M  V30 6521 C 641.264 -0.529168 1.95464 0
M  V30 6522 C 641.592 -1.6618 1.01067 0
M  V30 6523 O 640.847 -1.95667 0.0360254 0
M  V30 6524 C 641.146 -1.095 3.40212 0
M  V30 6525 C 640.812 -0.0829015 4.50824 0
M  V30 6526 C 639.474 0.195377 4.80803 0
M  V30 6527 C 641.826 0.606411 5.1766 0
M  V30 6528 C 639.154 1.16912 5.74933 0
M  V30 6529 C 641.506 1.56884 6.12838 0
M  V30 6530 C 640.17 1.85502 6.41206 0
M  V30 6531 H 639.44 -0.193636 0.715252 0
M  V30 6532 H 642.087 0.209489 1.90351 0
M  V30 6533 H 640.392 -1.91058 3.42059 0
M  V30 6534 H 642.089 -1.61087 3.67222 0
M  V30 6535 H 638.679 -0.309979 4.27478 0
M  V30 6536 H 642.863 0.404597 4.94648 0
M  V30 6537 H 638.119 1.3975 5.95214 0
M  V30 6538 H 642.293 2.10859 6.6371 0
M  V30 6539 H 639.92 2.61109 7.13951 0
M  V30 6540 N 641.495 -1.56914 -0.146875 0
M  V30 6541 C 642.72 -1.87881 -0.878386 0
M  V30 6542 C 643.145 -0.715945 -1.73942 0
M  V30 6543 O 642.503 0.334447 -1.78189 0
M  V30 6544 C 642.551 -3.17431 -1.71084 0
M  V30 6545 O 641.655 -3.01374 -2.81509 0
M  V30 6546 H 640.996 -0.617289 -0.244644 0
M  V30 6547 H 643.526 -2.04136 -0.137654 0
M  V30 6548 H 643.536 -3.49455 -2.10582 0
M  V30 6549 H 642.211 -4.01671 -1.07856 0
M  V30 6550 H 640.788 -2.80758 -2.45416 0
M  V30 6551 N 642.974 0.416227 -1.52004 0
M  V30 6552 C 644.202 1.18573 -1.69553 0
M  V30 6553 C 644.617 1.84472 -0.401919 0
M  V30 6554 O 643.974 1.71593 0.621463 0
M  V30 6555 C 644.025 2.25413 -2.82615 0
M  V30 6556 O 643.746 1.62205 -4.06966 0
M  V30 6557 C 645.247 3.15297 -3.11613 0
M  V30 6558 H 642.467 0.356582 -0.56841 0
M  V30 6559 H 645.011 0.490618 -1.98528 0
M  V30 6560 H 643.166 2.90604 -2.56179 0
M  V30 6561 H 643.58 2.3298 -4.69916 0
M  V30 6562 H 645.054 3.86351 -3.94255 0
M  V30 6563 H 645.531 3.77264 -2.24874 0
M  V30 6564 H 646.137 2.55783 -3.39787 0
M  V30 6565 N 644.452 1.42507 0.673017 0
M  V30 6566 C 645.868 1.25472 0.986355 0
M  V30 6567 C 646.068 0.160181 2.00862 0
M  V30 6568 O 645.124 -0.467993 2.48125 0
M  V30 6569 C 646.437 2.61219 1.48947 0
M  V30 6570 C 647.985 2.68589 1.60715 0
M  V30 6571 C 648.46 4.04707 2.14422 0
M  V30 6572 N 649.951 4.0667 2.21752 0
M  V30 6573 C 650.686 5.0881 2.64386 0
M  V30 6574 N 650.182 6.21332 3.0646 0
M  V30 6575 N 651.975 4.96166 2.64151 0
M  V30 6576 H 644.126 2.124 -0.00378532 0
M  V30 6577 H 646.389 0.946046 0.0608367 0
M  V30 6578 H 646.095 3.42179 0.812812 0
M  V30 6579 H 645.969 2.85261 2.46791 0
M  V30 6580 H 648.356 1.87974 2.27486 0
M  V30 6581 H 648.437 2.48333 0.613552 0
M  V30 6582 H 648.081 4.8578 1.48258 0
M  V30 6583 H 648.011 4.22315 3.14575 0
M  V30 6584 H 650.502 3.25438 1.92089 0
M  V30 6585 H 650.815 6.95118 3.37684 0
M  V30 6586 H 649.16 6.24835 3.04313 0
M  V30 6587 H 652.351 4.07334 2.30644 0
M  V30 6588 H 652.524 5.759 2.97057 0
M  V30 6589 N 645.93 -0.909495 1.28709 0
M  V30 6590 C 647.178 -1.65577 1.15882 0
M  V30 6591 C 647.499 -1.928 -0.292108 0
M  V30 6592 O 646.769 -1.54716 -1.20166 0
M  V30 6593 H 645.349 -0.613714 0.425869 0
M  V30 6594 H 648.011 -1.09108 1.61498 0
M  V30 6595 H 647.107 -2.61634 1.70159 0
M  V30 6596 N 647.408 -1.11026 -1.11852 0
M  V30 6597 C 648.636 -0.878818 -1.87308 0
M  V30 6598 C 649.051 0.57111 -1.79955 0
M  V30 6599 O 648.408 1.39409 -1.17777 0
M  V30 6600 C 648.459 -1.3264 -3.36287 0
M  V30 6601 O 648.18 -2.71948 -3.43476 0
M  V30 6602 C 649.681 -1.12974 -4.28663 0
M  V30 6603 H 646.901 -0.315015 -0.592458 0
M  V30 6604 H 649.445 -1.47649 -1.41492 0
M  V30 6605 H 647.6 -0.772269 -3.79625 0
M  V30 6606 H 648.014 -2.91241 -4.3621 0
M  V30 6607 H 649.488 -1.49198 -5.31454 0
M  V30 6608 H 649.965 -0.0689127 -4.39146 0
M  V30 6609 H 650.571 -1.67064 -3.91113 0
M  V30 6610 N 648.886 1.2938 -0.899927 0
M  V30 6611 C 649.818 2.26737 -0.335139 0
M  V30 6612 C 650.831 1.54316 0.518681 0
M  V30 6613 O 652.02 1.75313 0.335803 0
M  V30 6614 C 649.12 3.34558 0.540774 0
M  V30 6615 C 648.293 4.36455 -0.287372 0
M  V30 6616 C 647.352 5.2361 0.52141 0
M  V30 6617 O 646.378 5.69167 -0.0611735 0
M  V30 6618 N 647.58 5.50985 1.82745 0
M  V30 6619 H 650.345 2.75838 -1.17191 0
M  V30 6620 H 647.906 1.42716 -0.764438 0
M  V30 6621 H 649.898 3.89794 1.08825 0
M  V30 6622 H 648.468 2.85272 1.27823 0
M  V30 6623 H 647.688 3.80875 -1.01626 0
M  V30 6624 H 648.976 5.01573 -0.854518 0
M  V30 6625 H 648.374 5.15781 2.32349 0
M  V30 6626 H 646.931 6.09036 2.32204 0
M  V30 6627 N 650.364 0.662433 1.43002 0
M  V30 6628 C 651.312 -0.035345 2.32573 0
M  V30 6629 C 652.306 -0.803505 1.49131 0
M  V30 6630 O 653.512 -0.712865 1.65282 0
M  V30 6631 H 649.887 -0.0302194 0.751393 0
M  V30 6632 H 651.858 0.737686 2.89138 0
M  V30 6633 C 650.607 -0.981575 3.33557 0
M  V30 6634 H 649.93 -0.399914 3.97795 0
M  V30 6635 H 651.37 -1.43873 3.98844 0
M  V30 6636 C 649.829 -2.08204 2.64863 0
M  V30 6637 O 650.359 -3.16698 2.47113 0
M  V30 6638 N 648.565 -1.85022 2.24088 0
M  V30 6639 H 648.112 -0.967909 2.38724 0
M  V30 6640 H 648.07 -2.58845 1.78457 0
M  V30 6641 N 651.842 -1.52309 0.404946 0
M  V30 6642 C 653.088 -2.02731 -0.164857 0
M  V30 6643 C 653.443 -1.28543 -1.43159 0
M  V30 6644 O 652.736 -0.381883 -1.87756 0
M  V30 6645 C 652.93 -3.54284 -0.470895 0
M  V30 6646 C 652.759 -4.43152 0.764625 0
M  V30 6647 C 651.529 -4.88594 1.28858 0
M  V30 6648 C 653.727 -4.874 1.64152 0
M  V30 6649 N 651.709 -5.61577 2.48001 0
M  V30 6650 C 653.08 -5.59121 2.67924 0
M  V30 6651 C 655.135 -4.69421 1.65978 0
M  V30 6652 C 653.838 -6.14772 3.73427 0
M  V30 6653 C 655.864 -5.25966 2.70396 0
M  V30 6654 C 655.226 -5.97606 3.7289 0
M  V30 6655 H 651.325 -0.78169 -0.0220025 0
M  V30 6656 H 653.909 -1.86522 0.558354 0
M  V30 6657 H 652.08 -3.70574 -1.16315 0
M  V30 6658 H 653.812 -3.91394 -1.02921 0
M  V30 6659 H 650.567 -4.6596 0.847232 0
M  V30 6660 H 650.991 -6.02712 3.08329 0
M  V30 6661 H 655.633 -4.13524 0.88079 0
M  V30 6662 H 653.351 -6.69743 4.52184 0
M  V30 6663 H 656.937 -5.13926 2.72711 0
M  V30 6664 H 655.817 -6.40577 4.52361 0
M  V30 6665 N 653.32 -0.135238 -1.57019 0
M  V30 6666 C 654.548 0.526066 -2.001 0
M  V30 6667 C 654.963 1.59184 -1.01519 0
M  V30 6668 O 654.32 1.82497 -0.0104258 0
M  V30 6669 C 654.371 1.13744 -3.43139 0
M  V30 6670 O 654.092 0.114259 -4.37951 0
M  V30 6671 C 655.593 1.8805 -4.01438 0
M  V30 6672 H 652.813 0.137962 -0.656664 0
M  V30 6673 H 655.357 -0.226359 -2.03243 0
M  V30 6674 H 653.512 1.84056 -3.40885 0
M  V30 6675 H 653.926 0.56058 -5.21496 0
M  V30 6676 H 655.4 2.26133 -5.03555 0
M  V30 6677 H 655.877 2.76194 -3.41487 0
M  V30 6678 H 656.483 1.22464 -4.07287 0
M  V30 6679 N 654.798 1.5699 0.138552 0
M  V30 6680 C 656.044 1.84081 0.85099 0
M  V30 6681 C 656.377 0.718107 1.80435 0
M  V30 6682 O 655.652 -0.277633 1.92508 0
M  V30 6683 C 655.935 3.21699 1.61808 0
M  V30 6684 C 655.788 4.44544 0.685633 0
M  V30 6685 C 657.107 3.5664 2.57868 0
M  V30 6686 H 654.226 0.669592 0.307922 0
M  V30 6687 H 656.868 1.89646 0.11588 0
M  V30 6688 H 655.018 3.17086 2.24474 0
M  V30 6689 H 656.69 4.61248 0.0693179 0
M  V30 6690 H 654.933 4.338 -0.00421993 0
M  V30 6691 H 655.604 5.3746 1.25858 0
M  V30 6692 H 658.08 3.61918 2.05316 0
M  V30 6693 H 656.956 4.53946 3.08584 0
M  V30 6694 H 657.217 2.83036 3.39622 0
M  V30 6695 N 656.276 -0.40816 1.52223 0
M  V30 6696 C 657.186 -1.52202 1.78526 0
M  V30 6697 C 658.202 -1.60546 0.670892 0
M  V30 6698 O 659.378 -1.77242 0.956404 0
M  V30 6699 C 656.443 -2.87928 1.93128 0
M  V30 6700 C 655.504 -2.89463 3.17033 0
M  V30 6701 C 654.737 -4.18715 3.30929 0
M  V30 6702 O 654.96 -5.12662 2.50067 0
M  V30 6703 O 653.894 -4.27125 4.24084 0
M  V30 6704 H 657.72 -1.32911 2.73072 0
M  V30 6705 H 655.305 -0.594112 1.37079 0
M  V30 6706 H 657.187 -3.68426 2.04549 0
M  V30 6707 H 655.862 -3.07285 1.01772 0
M  V30 6708 H 654.769 -2.07815 3.11069 0
M  V30 6709 H 656.102 -2.75055 4.08174 0
M  V30 6710 N 657.755 -1.42862 -0.66545 0
M  V30 6711 C 659.171 -1.25993 -0.979687 0
M  V30 6712 C 659.371 -0.170831 -2.00775 0
M  V30 6713 O 658.427 0.454827 -2.4837 0
M  V30 6714 C 659.74 -2.62005 -1.47559 0
M  V30 6715 C 661.288 -2.69437 -1.59288 0
M  V30 6716 C 661.763 -4.05838 -2.12272 0
M  V30 6717 N 663.254 -4.0784 -2.19592 0
M  V30 6718 C 663.989 -5.10205 -2.61684 0
M  V30 6719 N 663.485 -6.22949 -3.03161 0
M  V30 6720 N 665.278 -4.9756 -2.61516 0
M  V30 6721 H 657.429 -2.12395 0.0150493 0
M  V30 6722 H 659.692 -0.946355 -0.0558187 0
M  V30 6723 H 659.398 -3.42605 -0.794654 0
M  V30 6724 H 659.272 -2.86566 -2.45275 0
M  V30 6725 H 661.659 -1.89178 -2.26486 0
M  V30 6726 H 661.74 -2.48655 -0.600374 0
M  V30 6727 H 661.384 -4.86559 -1.4568 0
M  V30 6728 H 661.314 -4.23977 -3.12331 0
M  V30 6729 H 663.805 -3.26452 -1.90361 0
M  V30 6730 H 664.118 -6.96899 -3.33993 0
M  V30 6731 H 662.463 -6.2644 -3.00995 0
M  V30 6732 H 665.654 -4.08551 -2.28481 0
M  V30 6733 H 665.827 -5.77468 -2.93999 0
M  V30 6734 N 659.233 0.902656 -1.29189 0
M  V30 6735 C 660.163 2.02294 -1.16616 0
M  V30 6736 C 661.144 1.6999 -0.0611175 0
M  V30 6737 O 662.329 1.9271 -0.240072 0
M  V30 6738 C 659.459 3.37018 -0.83882 0
M  V30 6739 C 658.413 3.83522 -1.89986 0
M  V30 6740 C 657.739 5.15337 -1.42589 0
M  V30 6741 C 659.039 4.04169 -3.30824 0
M  V30 6742 H 660.733 2.13071 -2.10336 0
M  V30 6743 H 658.279 1.02378 -1.01266 0
M  V30 6744 H 660.232 4.14895 -0.737584 0
M  V30 6745 H 658.956 3.26325 0.134071 0
M  V30 6746 H 657.615 3.07859 -1.99043 0
M  V30 6747 H 657.263 5.01056 -0.441759 0
M  V30 6748 H 656.963 5.47423 -2.13547 0
M  V30 6749 H 658.487 5.95758 -1.3381 0
M  V30 6750 H 659.901 4.72537 -3.24626 0
M  V30 6751 H 658.298 4.47604 -3.99713 0
M  V30 6752 H 659.368 3.08604 -3.74021 0
M  V30 6753 N 660.711 1.11618 1.11262 0
M  V30 6754 C 661.641 0.79846 2.19424 0
M  V30 6755 C 662.622 -0.234003 1.68483 0
M  V30 6756 O 663.807 -0.0970704 1.93957 0
M  V30 6757 C 660.937 0.242892 3.4645 0
M  V30 6758 C 659.891 1.20744 4.10615 0
M  V30 6759 C 659.217 0.512494 5.32238 0
M  V30 6760 C 660.517 2.55884 4.55325 0
M  V30 6761 H 662.211 1.70286 2.46258 0
M  V30 6762 H 659.757 0.820195 1.18359 0
M  V30 6763 H 661.71 0.00840447 4.21399 0
M  V30 6764 H 660.434 -0.696811 3.1908 0
M  V30 6765 H 659.093 1.42759 3.37662 0
M  V30 6766 H 658.741 -0.432075 5.01141 0
M  V30 6767 H 658.441 1.15583 5.7612 0
M  V30 6768 H 659.965 0.286842 6.09926 0
M  V30 6769 H 661.379 2.37946 5.21588 0
M  V30 6770 H 659.776 3.16216 5.10027 0
M  V30 6771 H 660.846 3.14968 3.68678 0
M  V30 6772 N 662.189 -1.289 0.906776 0
M  V30 6773 C 663.121 -2.26556 0.347159 0
M  V30 6774 C 664.134 -1.54589 -0.51049 0
M  V30 6775 O 665.323 -1.75489 -0.326501 0
M  V30 6776 C 662.423 -3.3484 -0.523024 0
M  V30 6777 C 661.596 -4.36296 0.310515 0
M  V30 6778 C 660.655 -5.23879 -0.493634 0
M  V30 6779 O 659.681 -5.69127 0.0913569 0
M  V30 6780 N 660.883 -5.51946 -1.7982 0
M  V30 6781 H 663.648 -2.75212 1.18652 0
M  V30 6782 H 661.209 -1.42309 0.771996 0
M  V30 6783 H 663.201 -3.90366 -1.06756 0
M  V30 6784 H 661.771 -2.85946 -1.26309 0
M  V30 6785 H 660.991 -3.80331 1.03644 0
M  V30 6786 H 662.279 -5.01113 0.881106 0
M  V30 6787 H 661.677 -5.17006 -2.2961 0
M  V30 6788 H 660.234 -6.10258 -2.28971 0
M  V30 6789 N 663.667 -0.670007 -1.42649 0
M  V30 6790 C 664.63 0.00204659 -2.292 0
M  V30 6791 C 665.63 0.733817 -1.4308 0
M  V30 6792 O 666.82 0.57254 -1.64522 0
M  V30 6793 C 663.952 1.01359 -3.25483 0
M  V30 6794 H 665.145 -0.759696 -2.90118 0
M  V30 6795 H 662.698 -0.432105 -1.50208 0
M  V30 6796 H 663.433 1.80399 -2.69493 0
M  V30 6797 H 663.218 0.492323 -3.88997 0
M  V30 6798 H 664.708 1.4824 -3.90403 0
M  V30 6799 N 665.145 1.52092 -0.413018 0
M  V30 6800 C 666.095 2.23947 0.427993 0
M  V30 6801 C 667.079 1.25229 1.01027 0
M  V30 6802 O 668.271 1.50448 0.932444 0
M  V30 6803 C 665.4 3.0672 1.542 0
M  V30 6804 C 664.486 4.12851 0.970307 0
M  V30 6805 N 664.877 5.05644 0.125611 0
M  V30 6806 C 663.175 4.28404 1.24042 0
M  V30 6807 C 663.876 5.8138 -0.192876 0
M  V30 6808 N 662.852 5.41996 0.417273 0
M  V30 6809 H 666.654 2.93048 -0.223628 0
M  V30 6810 H 664.168 1.60852 -0.223664 0
M  V30 6811 H 666.165 3.56754 2.15714 0
M  V30 6812 H 664.825 2.39159 2.19621 0
M  V30 6813 H 665.836 5.17348 -0.238995 0
M  V30 6814 H 662.513 3.72071 1.89391 0
M  V30 6815 H 663.903 6.66129 -0.878762 0
M  V30 6816 N 666.623 0.143563 1.56945 0
M  V30 6817 C 668.039 -0.212877 1.58174 0
M  V30 6818 C 668.239 -1.64926 1.15766 0
M  V30 6819 O 667.295 -2.37535 0.856361 0
M  V30 6820 C 668.608 0.0427573 3.0067 0
M  V30 6821 C 670.156 -0.0212221 3.12993 0
M  V30 6822 C 670.631 0.207036 4.57532 0
M  V30 6823 N 672.122 0.153845 4.62944 0
M  V30 6824 C 672.857 0.305018 5.72588 0
M  V30 6825 N 672.353 0.513722 6.90893 0
M  V30 6826 N 674.146 0.242862 5.61575 0
M  V30 6827 H 666.297 1.08148 1.82805 0
M  V30 6828 H 668.56 0.427831 0.84597 0
M  V30 6829 H 668.266 1.03672 3.36073 0
M  V30 6830 H 668.14 -0.678195 3.71053 0
M  V30 6831 H 670.527 -1.00574 2.77433 0
M  V30 6832 H 670.608 0.732004 2.45103 0
M  V30 6833 H 670.252 1.18863 4.93795 0
M  V30 6834 H 670.182 -0.566473 5.23544 0
M  V30 6835 H 672.673 -0.00294866 3.779 0
M  V30 6836 H 672.986 0.619273 7.70315 0
M  V30 6837 H 671.331 0.550001 6.9282 0
M  V30 6838 H 674.522 0.0806015 4.68031 0
M  V30 6839 H 674.695 0.364112 6.46976 0
M  V30 6840 N 668.101 -1.57061 -0.130224 0
M  V30 6841 C 669.033 -1.96147 -1.18571 0
M  V30 6842 C 670.046 -0.859347 -1.38272 0
M  V30 6843 O 671.235 -1.13769 -1.37545 0
M  V30 6844 C 668.335 -2.23484 -2.54771 0
M  V30 6845 C 667.508 -3.54786 -2.55824 0
M  V30 6846 C 666.567 -3.70467 -3.73686 0
M  V30 6847 O 665.593 -4.42693 -3.57787 0
M  V30 6848 N 666.795 -3.08389 -4.91809 0
M  V30 6849 H 669.56 -2.87295 -0.853333 0
M  V30 6850 H 667.121 -1.58714 -0.319621 0
M  V30 6851 H 669.113 -2.312 -3.32158 0
M  V30 6852 H 667.683 -1.38518 -2.80235 0
M  V30 6853 H 666.903 -3.5836 -1.64232 0
M  V30 6854 H 668.191 -4.4111 -2.53573 0
M  V30 6855 H 667.589 -2.49656 -5.0763 0
M  V30 6856 H 666.146 -3.21642 -5.66912 0
M  V30 6857 N 669.579 0.400081 -1.52437 0
M  V30 6858 C 670.509 1.4947 -1.7939 0
M  V30 6859 C 671.49 1.57383 -0.645329 0
M  V30 6860 O 672.675 1.72511 -0.891826 0
M  V30 6861 C 669.805 2.87201 -1.95276 0
M  V30 6862 C 668.759 2.94134 -3.10917 0
M  V30 6863 C 668.085 4.34207 -3.1204 0
M  V30 6864 C 669.385 2.64791 -4.50203 0
M  V30 6865 H 671.079 1.27165 -2.71052 0
M  V30 6866 H 668.625 0.610312 -1.30427 0
M  V30 6867 H 670.578 3.63772 -2.12715 0
M  V30 6868 H 669.302 3.10819 -1.00294 0
M  V30 6869 H 667.961 2.20009 -2.93243 0
M  V30 6870 H 667.609 4.54848 -2.14761 0
M  V30 6871 H 667.309 4.39768 -3.89715 0
M  V30 6872 H 668.833 5.127 -3.31619 0
M  V30 6873 H 670.247 3.31083 -4.68035 0
M  V30 6874 H 668.644 2.81717 -5.29864 0
M  V30 6875 H 669.714 1.60184 -4.57678 0
M  V30 6876 N 671.057 1.43213 0.657864 0
M  V30 6877 C 671.967 1.50448 1.80007 0
M  V30 6878 C 672.983 0.39191 1.69529 0
M  V30 6879 O 674.159 0.645349 1.90781 0
M  V30 6880 C 671.224 1.42062 3.16258 0
M  V30 6881 C 670.285 2.63951 3.38568 0
M  V30 6882 C 669.518 2.55956 4.68318 0
M  V30 6883 O 669.741 1.60473 5.47361 0
M  V30 6884 O 668.675 3.46378 4.92245 0
M  V30 6885 H 672.501 2.4689 1.76858 0
M  V30 6886 H 670.086 1.25163 0.81576 0
M  V30 6887 H 671.968 1.3981 3.97531 0
M  V30 6888 H 670.643 0.487524 3.20008 0
M  V30 6889 H 669.55 2.71776 2.57077 0
M  V30 6890 H 670.883 3.56217 3.39662 0
M  V30 6891 N 672.536 -0.895792 1.29666 0
M  V30 6892 C 673.446 -2.03329 1.17024 0
M  V30 6893 C 674.462 -1.73753 0.0925962 0
M  V30 6894 O 675.638 -1.99071 0.305431 0
M  V30 6895 C 672.703 -3.36072 0.851841 0
M  V30 6896 C 671.764 -3.7914 2.01373 0
M  V30 6897 C 670.997 -5.05549 1.71043 0
M  V30 6898 O 671.22 -5.66874 0.633213 0
M  V30 6899 O 670.154 -5.44764 2.5596 0
M  V30 6900 H 673.98 -2.16918 2.12556 0
M  V30 6901 H 671.565 -1.02007 1.09156 0
M  V30 6902 H 673.447 -4.15729 0.689006 0
M  V30 6903 H 672.122 -3.23616 -0.0736634 0
M  V30 6904 H 671.029 -3.00233 2.23183 0
M  V30 6905 H 672.362 -3.96186 2.92058 0
M  V30 6906 N 674.014 -1.12206 -1.10668 0
M  V30 6907 C 675.43 -0.857619 -1.346 0
M  V30 6908 C 675.63 0.513542 -1.94846 0
M  V30 6909 O 674.686 1.26273 -2.18658 0
M  V30 6910 C 675.999 -1.97212 -2.26998 0
M  V30 6911 C 677.547 -2.00272 -2.40542 0
M  V30 6912 C 678.022 -3.10948 -3.36267 0
M  V30 6913 N 679.513 -3.10375 -3.43834 0
M  V30 6914 C 680.248 -3.92651 -4.17867 0
M  V30 6915 N 679.744 -4.84911 -4.94807 0
M  V30 6916 N 681.537 -3.80798 -4.1346 0
M  V30 6917 H 673.688 -2.00558 -0.699306 0
M  V30 6918 H 675.951 -0.872612 -0.370477 0
M  V30 6919 H 675.657 -2.96002 -1.89936 0
M  V30 6920 H 675.531 -1.87521 -3.27286 0
M  V30 6921 H 677.918 -1.02103 -2.76874 0
M  V30 6922 H 677.999 -2.14037 -1.40077 0
M  V30 6923 H 677.643 -4.09348 -3.00661 0
M  V30 6924 H 677.573 -2.94421 -4.36605 0
M  V30 6925 H 680.064 -2.43536 -2.88961 0
M  V30 6926 H 680.377 -5.44207 -5.48688 0
M  V30 6927 H 678.722 -4.88926 -4.93939 0
M  V30 6928 H 681.913 -3.08058 -3.52445 0
M  V30 6929 H 682.086 -4.4515 -4.70898 0
M  V30 6930 N 675.492 1.28418 -0.913599 0
M  V30 6931 C 676.74 1.94596 -0.545594 0
M  V30 6932 C 677.061 1.7227 0.913668 0
M  V30 6933 O 676.331 1.06233 1.64595 0
M  V30 6934 H 674.911 0.720065 -0.198783 0
M  V30 6935 H 677.573 1.56404 -1.16292 0
M  V30 6936 H 676.669 3.03202 -0.739911 0
M  V30 6937 N 676.97 0.677563 1.42291 0
M  V30 6938 C 678.2 0.209155 2.05539 0
M  V30 6939 C 678.608 -1.13987 1.51009 0
M  V30 6940 O 677.951 -1.71976 0.645764 0
M  V30 6941 C 678.013 0.0697758 3.59432 0
M  V30 6942 C 677.677 1.34795 4.36668 0
M  V30 6943 C 678.674 2.28201 4.67141 0
M  V30 6944 C 676.359 1.59632 4.76259 0
M  V30 6945 C 678.353 3.44718 5.36142 0
M  V30 6946 C 676.04 2.76437 5.45 0
M  V30 6947 C 677.038 3.68805 5.74867 0
M  V30 6948 O 676.726 4.83567 6.42198 0
M  V30 6949 H 676.458 0.0986202 0.668768 0
M  V30 6950 H 679.012 0.925483 1.83368 0
M  V30 6951 H 677.242 -0.702157 3.80272 0
M  V30 6952 H 678.931 -0.359115 4.04308 0
M  V30 6953 H 679.697 2.10264 4.37052 0
M  V30 6954 H 675.576 0.886073 4.52404 0
M  V30 6955 H 679.12 4.16833 5.59371 0
M  V30 6956 H 675.017 2.94299 5.74507 0
M  V30 6957 H 675.785 4.83147 6.6069 0
M  V30 6958 N 678.448 -1.51871 0.421078 0
M  V30 6959 C 679.694 -2.02237 -0.151014 0
M  V30 6960 C 680.027 -1.30554 -1.43768 0
M  V30 6961 O 679.302 -0.41546 -1.90011 0
M  V30 6962 C 679.585 -3.5802 -0.386482 0
M  V30 6963 C 679.438 -4.40339 0.9177 0
M  V30 6964 C 680.757 -4.24444 -1.16342 0
M  V30 6965 H 677.876 -0.735062 -0.0534102 0
M  V30 6966 H 680.518 -1.81656 0.556888 0
M  V30 6967 H 678.668 -3.75688 -0.989494 0
M  V30 6968 H 680.34 -4.34357 1.55344 0
M  V30 6969 H 678.583 -4.06073 1.526 0
M  V30 6970 H 679.254 -5.47451 0.707187 0
M  V30 6971 H 681.73 -4.10948 -0.652788 0
M  V30 6972 H 680.606 -5.33358 -1.29693 0
M  V30 6973 H 680.867 -3.84204 -2.18724 0
M  V30 6974 N 679.926 -0.151884 -1.56866 0
M  V30 6975 C 681.173 0.498004 -1.96281 0
M  V30 6976 C 681.501 1.64551 -1.03698 0
M  V30 6977 O 680.756 1.95585 -0.0671497 0
M  V30 6978 C 681.055 1.04074 -3.41911 0
M  V30 6979 C 680.721 0.0111688 -4.50899 0
M  V30 6980 C 679.383 -0.271844 -4.80432 0
M  V30 6981 C 681.735 -0.68869 -5.1663 0
M  V30 6982 C 679.063 -1.26044 -5.73001 0
M  V30 6983 C 681.415 -1.66613 -6.10264 0
M  V30 6984 C 680.079 -1.9568 -6.38174 0
M  V30 6985 H 679.349 0.182233 -0.718242 0
M  V30 6986 H 681.996 -0.239746 -1.89993 0
M  V30 6987 H 680.301 1.85592 -3.45055 0
M  V30 6988 H 681.998 1.55224 -3.69738 0
M  V30 6989 H 678.588 0.241932 -4.27917 0
M  V30 6990 H 682.772 -0.48324 -4.93942 0
M  V30 6991 H 678.028 -1.49202 -5.92915 0
M  V30 6992 H 682.202 -2.21392 -6.60272 0
M  V30 6993 H 679.829 -2.72434 -7.09707 0
M  V30 6994 N 681.404 1.57128 0.121893 0
M  V30 6995 C 682.65 1.84974 0.831418 0
M  V30 6996 C 682.983 0.737204 1.79663 0
M  V30 6997 O 682.258 -0.257199 1.92792 0
M  V30 6998 C 682.541 3.23397 1.58386 0
M  V30 6999 C 682.394 4.45246 0.638445 0
M  V30 7000 C 683.713 3.59355 2.54071 0
M  V30 7001 H 680.832 0.67282 0.300803 0
M  V30 7002 H 683.474 1.89759 0.0957587 0
M  V30 7003 H 681.624 3.19449 2.21098 0
M  V30 7004 H 683.296 4.61295 0.0203925 0
M  V30 7005 H 681.539 4.33771 -0.05023 0
M  V30 7006 H 682.21 5.38765 1.20151 0
M  V30 7007 H 684.686 3.64075 2.01465 0
M  V30 7008 H 683.562 4.57193 3.03752 0
M  V30 7009 H 683.823 2.86622 3.36601 0
M  V30 7010 N 682.882 -0.391992 1.52647 0
M  V30 7011 C 684.13 -1.13507 1.67214 0
M  V30 7012 C 684.451 -1.90575 0.41304 0
M  V30 7013 O 683.721 -1.87348 -0.572498 0
M  V30 7014 H 682.301 -0.422013 0.616372 0
M  V30 7015 H 684.963 -0.44502 1.89751 0
M  V30 7016 H 684.059 -1.83964 2.52118 0
M  V30 7017 N 684.36 -1.4356 -0.65026 0
M  V30 7018 C 685.59 -1.48563 -1.4357 0
M  V30 7019 C 685.998 -0.103041 -1.88919 0
M  V30 7020 O 685.341 0.897602 -1.60277 0
M  V30 7021 C 685.403 -2.37181 -2.70158 0
M  V30 7022 C 685.067 -3.84673 -2.4673 0
M  V30 7023 C 686.064 -4.75704 -2.09765 0
M  V30 7024 C 683.749 -4.29189 -2.60963 0
M  V30 7025 C 685.743 -6.09249 -1.87334 0
M  V30 7026 C 683.43 -5.62787 -2.38147 0
M  V30 7027 C 684.428 -6.52634 -2.01389 0
M  V30 7028 O 684.116 -7.83761 -1.78813 0
M  V30 7029 H 683.848 -0.506743 -0.447423 0
M  V30 7030 H 686.402 -1.89001 -0.80423 0
M  V30 7031 H 684.632 -1.91636 -3.35876 0
M  V30 7032 H 686.321 -2.33354 -3.32116 0
M  V30 7033 H 687.087 -4.42589 -1.98343 0
M  V30 7034 H 682.966 -3.59529 -2.88548 0
M  V30 7035 H 686.51 -6.7934 -1.58567 0
M  V30 7036 H 682.407 -5.95469 -2.49173 0
M  V30 7037 H 683.175 -7.95368 -1.93214 0
M  V30 7038 N 685.838 0.888903 -1.30139 0
M  V30 7039 C 686.788 1.9814 -1.12803 0
M  V30 7040 C 687.772 1.60839 -0.0443137 0
M  V30 7041 O 688.964 1.74971 -0.267208 0
M  V30 7042 C 686.093 3.33416 -0.817849 0
M  V30 7043 C 685.179 3.77043 -1.94163 0
M  V30 7044 N 685.57 3.92805 -3.18651 0
M  V30 7045 C 683.868 4.06407 -1.8371 0
M  V30 7046 C 684.569 4.29746 -3.92038 0
M  V30 7047 N 683.545 4.3939 -3.20059 0
M  V30 7048 H 687.347 2.08411 -2.07225 0
M  V30 7049 H 684.861 1.07845 -1.21421 0
M  V30 7050 H 686.858 4.11405 -0.674668 0
M  V30 7051 H 685.518 3.24484 0.118344 0
M  V30 7052 H 686.529 3.78042 -3.53984 0
M  V30 7053 H 683.206 4.05972 -0.974331 0
M  V30 7054 H 684.596 4.49695 -4.99223 0
M  V30 7055 N 687.317 1.12792 1.10072 0
M  V30 7056 C 688.565 0.883796 1.81751 0
M  V30 7057 C 688.886 -0.591891 1.858 0
M  V30 7058 O 688.156 -1.43017 1.33876 0
M  V30 7059 H 686.736 0.323978 0.673088 0
M  V30 7060 H 689.398 1.42314 1.33164 0
M  V30 7061 H 688.494 1.26863 2.85153 0
M  V30 7062 N 688.795 -1.27931 0.920396 0
M  V30 7063 C 690.023 -1.98805 0.573087 0
M  V30 7064 C 690.438 -1.68724 -0.847201 0
M  V30 7065 O 689.795 -0.943699 -1.56207 0
M  V30 7066 C 689.846 -3.52971 0.780633 0
M  V30 7067 O 689.567 -3.81994 2.14504 0
M  V30 7068 C 691.068 -4.411 0.44105 0
M  V30 7069 H 688.288 -0.634651 0.21785 0
M  V30 7070 H 690.832 -1.62965 1.23542 0
M  V30 7071 H 688.987 -3.87048 0.165204 0
M  V30 7072 H 689.401 -4.76609 2.18962 0
M  V30 7073 H 690.875 -5.48312 0.637006 0
M  V30 7074 H 691.352 -4.34758 -0.62306 0
M  V30 7075 H 691.958 -4.12532 1.0343 0
M  V30 7076 N 690.273 -0.685099 -1.4193 0
M  V30 7077 C 691.52 -0.211658 -2.01391 0
M  V30 7078 C 691.848 1.18526 -1.54214 0
M  V30 7079 O 691.103 1.81189 -0.739519 0
M  V30 7080 C 691.402 -0.206154 -3.56805 0
M  V30 7081 C 691.068 -1.54915 -4.23453 0
M  V30 7082 C 689.73 -1.91684 -4.41373 0
M  V30 7083 C 692.082 -2.43317 -4.60919 0
M  V30 7084 C 689.41 -3.16461 -4.94034 0
M  V30 7085 C 691.762 -3.67415 -5.14965 0
M  V30 7086 C 690.426 -4.04341 -5.31098 0
M  V30 7087 H 689.696 -0.0774511 -0.736941 0
M  V30 7088 H 692.343 -0.882121 -1.69973 0
M  V30 7089 H 690.648 0.547841 -3.87951 0
M  V30 7090 H 692.345 0.17753 -4.00607 0
M  V30 7091 H 688.935 -1.25314 -4.09871 0
M  V30 7092 H 693.119 -2.16192 -4.46738 0
M  V30 7093 H 688.375 -3.45078 -5.04709 0
M  V30 7094 H 692.549 -4.3611 -5.42938 0
M  V30 7095 H 690.176 -5.01101 -5.71666 0
M  V30 7096 N 691.751 1.51645 -0.429126 0
M  V30 7097 C 692.681 2.30434 0.377148 0
M  V30 7098 C 693.662 1.35493 1.02838 0
M  V30 7099 O 694.847 1.6441 1.03359 0
M  V30 7100 C 691.977 3.14038 1.48315 0
M  V30 7101 C 690.931 4.1719 0.955855 0
M  V30 7102 C 690.257 4.89263 2.15698 0
M  V30 7103 C 691.557 5.223 -0.00402136 0
M  V30 7104 H 693.251 2.98085 -0.280336 0
M  V30 7105 H 690.797 1.43354 -0.136265 0
M  V30 7106 H 692.75 3.67933 2.05435 0
M  V30 7107 H 691.474 2.44193 2.16881 0
M  V30 7108 H 690.133 3.64335 0.406929 0
M  V30 7109 H 689.781 4.15929 2.82864 0
M  V30 7110 H 689.481 5.59009 1.81059 0
M  V30 7111 H 691.005 5.45978 2.73387 0
M  V30 7112 H 692.419 5.71315 0.476607 0
M  V30 7113 H 690.816 5.99525 -0.26258 0
M  V30 7114 H 691.886 4.75638 -0.943236 0
M  V30 7115 N 693.229 0.160201 1.56784 0
M  V30 7116 C 694.139 -0.787167 2.21 0
M  V30 7117 C 695.155 -1.26167 1.19825 0
M  V30 7118 O 696.331 -1.31611 1.52448 0
M  V30 7119 C 693.396 -2.00364 2.8294 0
M  V30 7120 C 692.457 -1.5771 3.99282 0
M  V30 7121 C 691.69 -2.73558 4.58259 0
M  V30 7122 O 691.913 -3.90129 4.16119 0
M  V30 7123 O 690.847 -2.48271 5.48311 0
M  V30 7124 H 694.673 -0.270462 3.02493 0
M  V30 7125 H 692.258 -0.0674666 1.49248 0
M  V30 7126 H 694.14 -2.71529 3.22257 0
M  V30 7127 H 692.815 -2.50961 2.04451 0
M  V30 7128 H 691.722 -0.835274 3.64656 0
M  V30 7129 H 693.055 -1.11815 4.79331 0
M  V30 7130 N 694.707 -1.5719 -0.113559 0
M  V30 7131 C 695.67 -1.99796 -1.12314 0
M  V30 7132 C 696.67 -0.888847 -1.34001 0
M  V30 7133 O 697.86 -1.15476 -1.30426 0
M  V30 7134 C 694.992 -2.34279 -2.47641 0
M  V30 7135 H 696.185 -2.90193 -0.756825 0
M  V30 7136 H 693.738 -1.52144 -0.358029 0
M  V30 7137 H 694.473 -1.46778 -2.89183 0
M  V30 7138 H 694.258 -3.15175 -2.33253 0
M  V30 7139 H 695.748 -2.67963 -3.2029 0
M  V30 7140 N 696.185 0.383891 -1.52853 0
M  V30 7141 C 697.148 1.45197 -1.77343 0
M  V30 7142 C 698.148 1.47362 -0.643522 0
M  V30 7143 O 699.338 1.48443 -0.911613 0
M  V30 7144 C 696.47 2.8445 -1.87885 0
M  V30 7145 H 697.663 1.24764 -2.72716 0
M  V30 7146 H 695.216 0.615939 -1.43652 0
M  V30 7147 H 695.951 3.10222 -0.94515 0
M  V30 7148 H 695.736 2.8428 -2.70051 0
M  V30 7149 H 697.226 3.61832 -2.08488 0
M  V30 7150 N 697.663 1.43903 0.642637 0
M  V30 7151 C 698.595 1.45857 1.768 0
M  V30 7152 C 699.608 0.353358 1.58919 0
M  V30 7153 O 700.797 0.618426 1.67445 0
M  V30 7154 C 697.897 1.26583 3.14372 0
M  V30 7155 C 697.07 2.50139 3.58817 0
M  V30 7156 C 696.129 2.25933 4.75227 0
M  V30 7157 O 695.155 2.99351 4.84125 0
M  V30 7158 N 696.357 1.28263 5.66153 0
M  V30 7159 H 699.122 2.42869 1.75598 0
M  V30 7160 H 696.683 1.39194 0.826832 0
M  V30 7161 H 698.675 1.08255 3.89953 0
M  V30 7162 H 697.245 0.37978 3.10284 0
M  V30 7163 H 696.465 2.83821 2.73568 0
M  V30 7164 H 697.753 3.32344 3.8526 0
M  V30 7165 H 697.151 0.676041 5.61646 0
M  V30 7166 H 695.708 1.15916 6.4141 0
M  V30 7167 N 699.141 -0.881989 1.30609 0
M  V30 7168 C 700.366 -1.67236 1.22665 0
M  V30 7169 C 700.791 -1.8696 -0.206777 0
M  V30 7170 O 700.149 -1.4027 -1.14865 0
M  V30 7171 C 700.197 -3.02446 1.96363 0
M  V30 7172 O 699.301 -3.91614 1.29276 0
M  V30 7173 H 698.642 -0.510902 0.424117 0
M  V30 7174 H 701.172 -1.10055 1.72479 0
M  V30 7175 H 701.182 -3.52468 2.055 0
M  V30 7176 H 699.857 -2.8741 3.00613 0
M  V30 7177 H 698.434 -3.50055 1.28514 0
M  V30 7178 N 700.619 -1.13374 -1.09472 0
M  V30 7179 C 701.868 -0.889844 -1.8101 0
M  V30 7180 C 702.181 0.585686 -1.86625 0
M  V30 7181 O 703.387 0.946497 -2.54467 0
M  V30 7182 C 701.843 -1.54241 -3.25174 0
M  V30 7183 C 701.451 -3.05343 -3.27826 0
M  V30 7184 C 703.195 -1.37919 -4.0147 0
M  V30 7185 C 701.102 -3.63486 -4.6651 0
M  V30 7186 H 700.032 -0.329256 -0.678311 0
M  V30 7187 H 702.683 -1.36139 -1.23038 0
M  V30 7188 H 701.065 -0.998525 -3.83204 0
M  V30 7189 H 702.239 -3.66307 -2.79563 0
M  V30 7190 H 700.554 -3.21175 -2.65019 0
M  V30 7191 H 703.151 -1.78771 -5.03929 0
M  V30 7192 H 703.494 -0.323987 -4.15037 0
M  V30 7193 H 704.027 -1.89284 -3.49881 0
M  V30 7194 H 700.766 -4.68811 -4.58145 0
M  V30 7195 H 700.286 -3.073 -5.15099 0
M  V30 7196 H 701.965 -3.63134 -5.35484 0
M  V30 7197 N 702.098 1.27442 -0.927168 0
M  V30 7198 C 703.344 1.94679 -0.568164 0
M  V30 7199 C 703.677 1.72697 0.888219 0
M  V30 7200 O 702.952 1.05573 1.63354 0
M  V30 7201 C 703.235 3.4882 -0.894253 0
M  V30 7202 C 703.088 3.80146 -2.40435 0
M  V30 7203 C 704.407 4.38281 -0.399766 0
M  V30 7204 H 701.526 0.707071 -0.207892 0
M  V30 7205 H 704.168 1.50568 -1.15885 0
M  V30 7206 H 702.318 3.86522 -0.391566 0
M  V30 7207 H 703.99 3.52238 -2.97869 0
M  V30 7208 H 702.233 3.26716 -2.85375 0
M  V30 7209 H 702.904 4.87835 -2.58304 0
M  V30 7210 H 705.38 4.07726 -0.83058 0
M  V30 7211 H 704.256 5.44955 -0.656885 0
M  V30 7212 H 704.517 4.36521 0.700153 0
M  V30 7213 N 703.576 0.692616 1.41565 0
M  V30 7214 C 704.823 0.222335 2.01276 0
M  V30 7215 C 705.151 -1.17706 1.5484 0
M  V30 7216 O 704.406 -1.80795 0.749118 0
M  V30 7217 C 704.705 0.225073 3.56691 0
M  V30 7218 C 704.371 1.57158 4.22625 0
M  V30 7219 C 703.033 1.94022 4.40351 0
M  V30 7220 C 705.385 2.45758 4.59622 0
M  V30 7221 C 702.713 3.19076 4.92349 0
M  V30 7222 C 705.065 3.70141 5.13009 0
M  V30 7223 C 703.729 4.07152 5.28946 0
M  V30 7224 H 702.999 0.0813581 0.73652 0
M  V30 7225 H 705.646 0.891123 1.69503 0
M  V30 7226 H 703.951 -0.527259 3.88236 0
M  V30 7227 H 705.648 -0.156283 4.00695 0
M  V30 7228 H 702.238 1.27486 4.09201 0
M  V30 7229 H 706.422 2.18558 4.45585 0
M  V30 7230 H 701.678 3.4775 5.02872 0
M  V30 7231 H 705.852 4.38983 5.40617 0
M  V30 7232 H 703.479 5.04125 5.69001 0
M  V30 7233 N 705.054 -1.51416 0.437162 0
M  V30 7234 C 706.302 -2.01687 -0.129108 0
M  V30 7235 C 706.623 -1.32329 -1.43227 0
M  V30 7236 O 705.893 -0.457796 -1.90476 0
M  V30 7237 H 704.473 -0.745277 -0.0507023 0
M  V30 7238 H 707.135 -1.86075 0.579828 0
M  V30 7239 H 706.231 -3.10605 -0.305141 0
M  V30 7240 N 706.532 -0.168513 -1.56696 0
M  V30 7241 C 707.78 0.476216 -1.96409 0
M  V30 7242 C 708.101 1.63968 -1.05544 0
M  V30 7243 O 707.371 1.95525 -0.121235 0
M  V30 7244 H 705.951 0.178921 -0.725256 0
M  V30 7245 H 708.613 -0.249042 -1.93302 0
M  V30 7246 H 707.709 0.838094 -3.00637 0
M  V30 7247 N 708.01 1.57248 0.105221 0
M  V30 7248 C 709.256 1.85845 0.811753 0
M  V30 7249 C 709.589 0.756219 1.78871 0
M  V30 7250 O 708.864 -0.236736 1.93054 0
M  V30 7251 C 709.147 3.25059 1.54947 0
M  V30 7252 C 709 4.45898 0.591185 0
M  V30 7253 C 710.319 3.6203 2.50245 0
M  V30 7254 H 707.438 0.675973 0.293649 0
M  V30 7255 H 710.08 1.89849 0.0756269 0
M  V30 7256 H 708.23 3.21776 2.17698 0
M  V30 7257 H 709.902 4.61291 -0.0285352 0
M  V30 7258 H 708.145 4.33693 -0.0962343 0
M  V30 7259 H 708.816 5.40009 1.1443 0
M  V30 7260 H 711.292 3.66192 1.97593 0
M  V30 7261 H 710.168 4.60389 2.98886 0
M  V30 7262 H 710.429 2.90176 3.33542 0
M  V30 7263 N 709.488 -0.375779 1.53054 0
M  V30 7264 C 710.904 -0.716764 1.426 0
M  V30 7265 C 711.104 -1.93651 0.556931 0
M  V30 7266 O 710.16 -2.52475 0.0354461 0
M  V30 7267 C 711.473 -0.939499 2.85646 0
M  V30 7268 C 713.021 -1.04015 2.95212 0
M  V30 7269 C 713.496 -1.29543 4.39298 0
M  V30 7270 N 714.987 -1.36335 4.42682 0
M  V30 7271 C 715.722 -1.57778 5.51266 0
M  V30 7272 N 715.218 -1.76604 6.69913 0
M  V30 7273 N 717.011 -1.60065 5.38828 0
M  V30 7274 H 709.162 0.42664 2.08071 0
M  V30 7275 H 711.425 0.128758 0.939215 0
M  V30 7276 H 711.131 -0.115189 3.51511 0
M  V30 7277 H 711.005 -1.85048 3.2869 0
M  V30 7278 H 713.392 -1.85501 2.29507 0
M  V30 7279 H 713.473 -0.106785 2.55577 0
M  V30 7280 H 713.117 -0.485611 5.05573 0
M  V30 7281 H 713.047 -2.24184 4.76497 0
M  V30 7282 H 715.538 -1.23441 3.5717 0
M  V30 7283 H 715.851 -1.9251 7.48438 0
M  V30 7284 H 714.196 -1.73802 6.72917 0
M  V30 7285 H 717.387 -1.44917 4.45103 0
M  V30 7286 H 717.56 -1.76435 6.23518 0
M  V30 7287 N 710.966 -1.44241 -0.634997 0
M  V30 7288 C 711.929 -1.50457 -1.72903 0
M  V30 7289 C 712.929 -0.387058 -1.56072 0
M  V30 7290 O 714.119 -0.649531 -1.61638 0
M  V30 7291 C 711.251 -1.37477 -3.1195 0
M  V30 7292 H 712.444 -2.47907 -1.68767 0
M  V30 7293 H 709.997 -1.31276 -0.84831 0
M  V30 7294 H 710.732 -0.41106 -3.21684 0
M  V30 7295 H 710.517 -2.18506 -3.25573 0
M  V30 7296 H 712.007 -1.44799 -3.91692 0
M  V30 7297 N 712.444 0.87505 -1.31075 0
M  V30 7298 C 713.86 1.15997 -1.09622 0
M  V30 7299 C 714.06 2.01036 0.136611 0
M  V30 7300 O 713.116 2.38559 0.827397 0
M  V30 7301 C 714.429 1.85702 -2.36506 0
M  V30 7302 C 715.977 1.98425 -2.42067 0
M  V30 7303 C 716.452 2.71544 -3.68819 0
M  V30 7304 N 717.943 2.79084 -3.69684 0
M  V30 7305 C 718.678 3.36259 -4.64454 0
M  V30 7306 N 718.174 3.94406 -5.69575 0
M  V30 7307 N 719.967 3.34169 -4.51982 0
M  V30 7308 H 712.118 0.308258 -2.10151 0
M  V30 7309 H 714.381 0.199145 -0.926847 0
M  V30 7310 H 714.087 1.30663 -3.26527 0
M  V30 7311 H 713.961 2.86017 -2.45915 0
M  V30 7312 H 716.348 2.5263 -1.52518 0
M  V30 7313 H 716.429 0.971682 -2.36626 0
M  V30 7314 H 716.073 2.18008 -4.58732 0
M  V30 7315 H 716.003 3.73198 -3.71525 0
M  V30 7316 H 718.494 2.3781 -2.93691 0
M  V30 7317 H 718.807 4.36129 -6.37974 0
M  V30 7318 H 717.152 3.92797 -5.73355 0
M  V30 7319 H 720.343 2.87977 -3.69035 0
M  V30 7320 H 720.516 3.78431 -5.26017 0
M  V30 7321 N 713.922 1.13953 1.08869 0
M  V30 7322 C 715.147 0.928559 1.85452 0
M  V30 7323 C 715.572 -0.517642 1.80837 0
M  V30 7324 O 714.93 -1.36779 1.19001 0
M  V30 7325 C 714.978 1.42814 3.31114 0
M  V30 7326 O 714.082 0.617129 4.07756 0
M  V30 7327 H 713.423 0.33235 0.574839 0
M  V30 7328 H 715.953 1.5156 1.37443 0
M  V30 7329 H 715.963 1.43425 3.8196 0
M  V30 7330 H 714.638 2.48109 3.33788 0
M  V30 7331 H 713.215 0.679365 3.66659 0
M  V30 7332 N 715.4 -1.26948 0.933913 0
M  V30 7333 C 716.332 -2.25768 0.395137 0
M  V30 7334 C 717.345 -1.55637 -0.477585 0
M  V30 7335 O 718.534 -1.76142 -0.289204 0
M  V30 7336 C 715.634 -3.35874 -0.451882 0
M  V30 7337 C 714.807 -4.3554 0.40299 0
M  V30 7338 C 713.866 -5.24809 -0.3824 0
M  V30 7339 O 712.892 -5.68805 0.212057 0
M  V30 7340 N 714.094 -5.55636 -1.68072 0
M  V30 7341 H 716.859 -2.72634 1.24463 0
M  V30 7342 H 714.42 -1.40639 0.802008 0
M  V30 7343 H 716.412 -3.92542 -0.984516 0
M  V30 7344 H 714.982 -2.8856 -1.20215 0
M  V30 7345 H 714.202 -3.78047 1.11688 0
M  V30 7346 H 715.49 -4.99131 0.987201 0
M  V30 7347 H 714.888 -5.2176 -2.18592 0
M  V30 7348 H 713.445 -6.14978 -2.15975 0
M  V30 7349 N 716.879 -0.700114 -1.41195 0
M  V30 7350 C 718.156 -0.160836 -1.94938 0
M  V30 7351 C 718.536 1.33014 -1.63922 0
M  V30 7352 O 717.884 2.07878 -0.948636 0
M  V30 7353 C 718.094 -0.456991 -3.45995 0
M  V30 7354 C 719.442 -0.387207 -4.22831 0
M  V30 7355 O 720.466 -0.392164 -3.54035 0
M  V30 7356 O 719.325 -0.351267 -5.4537 0
M  V30 7357 H 716.419 -0.0176304 -0.826812 0
M  V30 7358 H 718.965 -0.776586 -1.50888 0
M  V30 7359 H 717.737 -1.48884 -3.61869 0
M  V30 7360 H 717.36 0.189503 -3.97148 0
M  V30 7361 N 718.357 1.51182 -0.445186 0
M  V30 7362 C 719.287 2.30821 0.352686 0
M  V30 7363 C 720.268 1.36576 1.01395 0
M  V30 7364 O 721.453 1.65497 1.01609 0
M  V30 7365 C 718.583 3.15593 1.44976 0
M  V30 7366 C 717.537 4.1818 0.911553 0
M  V30 7367 C 716.863 4.91523 2.10497 0
M  V30 7368 C 718.163 5.22266 -0.059418 0
M  V30 7369 H 719.857 2.97771 -0.311936 0
M  V30 7370 H 717.403 1.43201 -0.151461 0
M  V30 7371 H 719.356 3.70091 2.01521 0
M  V30 7372 H 718.08 2.4648 2.14278 0
M  V30 7373 H 716.739 3.64746 0.368264 0
M  V30 7374 H 716.387 4.18906 2.78437 0
M  V30 7375 H 716.087 5.60898 1.7512 0
M  V30 7376 H 717.611 5.48847 2.6758 0
M  V30 7377 H 719.025 5.71789 0.415985 0
M  V30 7378 H 717.422 5.99213 -0.326152 0
M  V30 7379 H 718.492 4.7461 -0.993631 0
M  V30 7380 N 719.835 0.176821 1.56605 0
M  V30 7381 C 721.112 -0.513365 1.88743 0
M  V30 7382 C 721.492 -1.80929 1.08757 0
M  V30 7383 O 720.84 -2.27765 0.183127 0
M  V30 7384 C 721.05 -0.749925 3.40848 0
M  V30 7385 C 722.398 -1.07747 4.10701 0
M  V30 7386 O 723.422 -0.838277 3.46196 0
M  V30 7387 O 722.281 -1.52901 5.24675 0
M  V30 7388 H 719.375 -0.265296 0.783292 0
M  V30 7389 H 721.921 0.215669 1.68324 0
M  V30 7390 H 720.693 0.16599 3.90948 0
M  V30 7391 H 720.316 -1.53208 3.66897 0
M  V30 7392 N 721.313 -1.57302 -0.09688 0
M  V30 7393 C 722.276 -2.00976 -1.10188 0
M  V30 7394 C 723.276 -0.903009 -1.3305 0
M  V30 7395 O 724.466 -1.16853 -1.29194 0
M  V30 7396 C 721.598 -2.36893 -2.45142 0
M  V30 7397 H 722.791 -2.9098 -0.726003 0
M  V30 7398 H 720.344 -1.52515 -0.341872 0
M  V30 7399 H 721.079 -1.49837 -2.8761 0
M  V30 7400 H 720.864 -3.17632 -2.29897 0
M  V30 7401 H 722.354 -2.71345 -3.1743 0
M  V30 7402 N 722.791 0.367657 -1.53252 0
M  V30 7403 C 724.04 1.10782 -1.68554 0
M  V30 7404 C 724.353 1.90523 -0.442765 0
M  V30 7405 O 725.559 2.6729 -0.47629 0
M  V30 7406 C 724.015 2.01863 -2.97959 0
M  V30 7407 C 723.623 1.27443 -4.29491 0
M  V30 7408 C 725.367 2.75883 -3.22628 0
M  V30 7409 C 723.274 2.17414 -5.49987 0
M  V30 7410 H 722.204 0.417272 -0.628013 0
M  V30 7411 H 724.855 0.368971 -1.79752 0
M  V30 7412 H 723.237 2.7947 -2.80558 0
M  V30 7413 H 724.411 0.549138 -4.57516 0
M  V30 7414 H 722.726 0.652935 -4.11249 0
M  V30 7415 H 725.323 3.43421 -4.09837 0
M  V30 7416 H 725.666 3.41138 -2.38601 0
M  V30 7417 H 726.199 2.0536 -3.40693 0
M  V30 7418 H 722.938 1.5674 -6.36485 0
M  V30 7419 H 722.458 2.87799 -5.26243 0
M  V30 7420 H 724.137 2.77019 -5.84696 0
M  V30 7421 N 724.269 1.44576 0.627338 0
M  V30 7422 C 725.515 1.4877 1.38705 0
M  V30 7423 C 725.87 0.119976 1.92026 0
M  V30 7424 O 725.163 -0.865341 1.70946 0
M  V30 7425 C 725.357 2.48644 2.56731 0
M  V30 7426 C 725.186 3.94994 2.14965 0
M  V30 7427 C 723.956 4.63139 2.02065 0
M  V30 7428 C 726.154 4.841 1.73643 0
M  V30 7429 N 724.136 5.94296 1.53902 0
M  V30 7430 C 725.507 6.0473 1.36753 0
M  V30 7431 C 727.562 4.71131 1.61058 0
M  V30 7432 C 726.265 7.13831 0.885353 0
M  V30 7433 C 728.291 5.8026 1.14244 0
M  V30 7434 C 727.653 7.00034 0.783067 0
M  V30 7435 H 723.752 0.599415 0.50222 0
M  V30 7436 H 726.336 1.80926 0.719285 0
M  V30 7437 H 724.507 2.18472 3.2113 0
M  V30 7438 H 726.239 2.4311 3.23542 0
M  V30 7439 H 722.994 4.18007 2.22637 0
M  V30 7440 H 723.418 6.63985 1.32108 0
M  V30 7441 H 728.06 3.78964 1.87473 0
M  V30 7442 H 725.778 8.05804 0.608716 0
M  V30 7443 H 729.364 5.72254 1.0496 0
M  V30 7444 H 728.244 7.8304 0.426381 0
M  V30 7445 N 725.747 -0.868086 1.31537 0
M  V30 7446 C 727.163 -1.15414 1.10235 0
M  V30 7447 C 727.363 -2.01106 -0.125947 0
M  V30 7448 O 726.419 -2.38994 -0.814734 0
M  V30 7449 C 727.732 -1.84445 2.37488 0
M  V30 7450 C 729.28 -1.97139 2.43116 0
M  V30 7451 C 729.755 -2.69585 3.70254 0
M  V30 7452 N 731.246 -2.77119 3.71159 0
M  V30 7453 C 731.981 -3.33791 4.6623 0
M  V30 7454 N 731.477 -3.9138 5.71659 0
M  V30 7455 N 733.27 -3.31767 4.53747 0
M  V30 7456 H 725.421 -0.297109 2.10312 0
M  V30 7457 H 727.684 -0.194227 0.92789 0
M  V30 7458 H 727.39 -1.2893 3.27215 0
M  V30 7459 H 727.264 -2.84709 2.47428 0
M  V30 7460 H 729.651 -2.51818 1.53856 0
M  V30 7461 H 729.732 -0.95912 2.37138 0
M  V30 7462 H 729.376 -2.15572 4.59881 0
M  V30 7463 H 729.306 -3.71223 3.73499 0
M  V30 7464 H 731.797 -2.3625 2.94948 0
M  V30 7465 H 732.11 -4.3274 6.40278 0
M  V30 7466 H 730.455 -3.8975 5.7543 0
M  V30 7467 H 733.646 -2.86016 3.70557 0
M  V30 7468 H 733.819 -3.75636 5.28017 0
M  V30 7469 N 727.225 -1.14528 -1.08264 0
M  V30 7470 C 728.473 -0.912599 -1.80322 0
M  V30 7471 C 728.794 0.562256 -1.86718 0
M  V30 7472 O 728.064 1.40869 -1.36135 0
M  V30 7473 H 726.644 -0.334645 -0.667849 0
M  V30 7474 H 729.306 -1.44415 -1.30883 0
M  V30 7475 H 728.402 -1.31384 -2.83098 0
M  V30 7476 N 728.703 1.26451 -0.940633 0
M  V30 7477 C 729.95 1.93778 -0.587909 0
M  V30 7478 C 730.278 1.73811 0.872935 0
M  V30 7479 O 729.533 1.06816 1.63978 0
M  V30 7480 C 729.832 3.46503 -0.875794 0
M  V30 7481 C 729.498 3.86609 -2.32043 0
M  V30 7482 C 728.16 3.97269 -2.71534 0
M  V30 7483 C 730.512 4.0672 -3.25927 0
M  V30 7484 C 727.84 4.25436 -4.04006 0
M  V30 7485 C 730.192 4.36375 -4.57995 0
M  V30 7486 C 728.856 4.45249 -4.97302 0
M  V30 7487 H 728.126 0.709084 -0.215131 0
M  V30 7488 H 730.773 1.50272 -1.18704 0
M  V30 7489 H 729.078 3.91319 -0.194124 0
M  V30 7490 H 730.775 3.96759 -0.581665 0
M  V30 7491 H 727.365 3.78858 -2.00411 0
M  V30 7492 H 731.549 3.97912 -2.96614 0
M  V30 7493 H 726.805 4.30519 -4.34124 0
M  V30 7494 H 730.979 4.50882 -5.30734 0
M  V30 7495 H 728.606 4.66829 -5.99979 0
M  V30 7496 N 730.181 0.707592 1.40822 0
M  V30 7497 C 731.411 0.252706 2.05049 0
M  V30 7498 C 731.819 -1.10758 1.53393 0
M  V30 7499 O 731.162 -1.70567 0.682097 0
M  V30 7500 C 731.224 0.146001 3.59203 0
M  V30 7501 C 730.888 1.44027 4.33711 0
M  V30 7502 C 731.885 2.38058 4.62195 0
M  V30 7503 C 729.57 1.69698 4.72766 0
M  V30 7504 C 731.564 3.56013 5.28709 0
M  V30 7505 C 729.251 2.87936 5.39014 0
M  V30 7506 C 730.249 3.80915 5.66915 0
M  V30 7507 O 729.937 4.9708 6.31796 0
M  V30 7508 H 729.669 0.112784 0.666525 0
M  V30 7509 H 732.223 0.96417 1.81364 0
M  V30 7510 H 730.453 -0.621338 3.81676 0
M  V30 7511 H 732.142 -0.273275 4.04979 0
M  V30 7512 H 732.908 2.19487 4.32493 0
M  V30 7513 H 728.787 0.981835 4.50423 0
M  V30 7514 H 732.331 4.28604 5.50404 0
M  V30 7515 H 728.228 3.06419 5.68135 0
M  V30 7516 H 728.996 4.97053 6.50293 0
M  V30 7517 N 731.66 -1.50943 0.453197 0
M  V30 7518 C 732.909 -2.01402 -0.10951 0
M  V30 7519 C 733.222 -1.3411 -1.42386 0
M  V30 7520 O 734.428 -1.75626 -2.07045 0
M  V30 7521 C 732.884 -3.5906 -0.245693 0
M  V30 7522 C 732.492 -4.353 1.05916 0
M  V30 7523 C 734.236 -4.17617 -0.761318 0
M  V30 7524 C 732.143 -5.84699 0.887752 0
M  V30 7525 H 731.073 -0.752674 -0.0447013 0
M  V30 7526 H 733.724 -1.73913 0.585375 0
M  V30 7527 H 732.106 -3.83062 -1.00395 0
M  V30 7528 H 733.28 -4.23034 1.82698 0
M  V30 7529 H 731.595 -3.88269 1.50452 0
M  V30 7530 H 734.192 -5.26963 -0.906306 0
M  V30 7531 H 734.535 -3.77824 -1.74799 0
M  V30 7532 H 735.068 -3.97753 -0.0609416 0
M  V30 7533 H 731.807 -6.28933 1.84726 0
M  V30 7534 H 731.327 -5.99587 0.160006 0
M  V30 7535 H 733.006 -6.44682 0.547223 0
M  V30 7536 N 733.138 -0.185124 -1.56509 0
M  V30 7537 C 734.101 0.72591 -2.17401 0
M  V30 7538 C 735.101 1.14819 -1.12575 0
M  V30 7539 O 736.291 1.0629 -1.38015 0
M  V30 7540 C 733.423 1.98979 -2.76803 0
M  V30 7541 H 734.616 0.195588 -2.99262 0
M  V30 7542 H 732.169 0.0644772 -1.56167 0
M  V30 7543 H 732.904 2.56287 -1.98714 0
M  V30 7544 H 732.689 1.69583 -3.53531 0
M  V30 7545 H 734.179 2.63966 -3.23592 0
M  V30 7546 N 734.616 1.57351 0.0885366 0
M  V30 7547 C 735.864 1.86051 0.789262 0
M  V30 7548 C 736.185 0.774763 1.78948 0
M  V30 7549 O 735.455 -0.198324 1.94894 0
M  V30 7550 H 734.035 0.686508 0.294475 0
M  V30 7551 H 736.697 1.94779 0.0686055 0
M  V30 7552 H 735.793 2.83007 1.31581 0
M  V30 7553 N 736.094 -0.359525 1.53444 0
M  V30 7554 C 737.371 -1.11756 1.6053 0
M  V30 7555 C 737.751 -2.06949 0.416587 0
M  V30 7556 O 737.099 -2.20681 -0.592628 0
M  V30 7557 C 737.309 -1.85133 2.95849 0
M  V30 7558 C 738.657 -2.3945 3.50641 0
M  V30 7559 O 739.681 -1.95251 2.97918 0
M  V30 7560 O 738.54 -3.20266 4.42823 0
M  V30 7561 H 735.634 -0.513005 0.648656 0
M  V30 7562 H 738.18 -0.362301 1.65787 0
M  V30 7563 H 736.952 -1.15694 3.73806 0
M  V30 7564 H 736.575 -2.67554 2.9411 0
M  V30 7565 N 737.572 -1.44907 -0.619662 0
M  V30 7566 C 738.983 -1.42905 -1.20146 0
M  V30 7567 C 739.334 -0.150341 -1.95623 0
M  V30 7568 O 738.459 0.748732 -2.03034 0
M  V30 7569 C 739.054 -2.58889 -2.18545 0
M  V30 7570 C 737.613 -2.60046 -2.72127 0
M  V30 7571 C 736.76 -2.3493 -1.4732 0
M  V30 7572 H 739.711 -1.53321 -0.409666 0
M  V30 7573 H 739.732 -2.32298 -3.0136 0
M  V30 7574 H 739.244 -3.51941 -1.63583 0
M  V30 7575 H 737.345 -1.70968 -3.3106 0
M  V30 7576 H 737.458 -3.58893 -3.17384 0
M  V30 7577 H 735.822 -1.84248 -1.75855 0
M  V30 7578 H 736.605 -3.3011 -0.942442 0
M  V30 7579 N 739.05 0.861098 -1.31996 0
M  V30 7580 C 740.013 1.95068 -1.20338 0
M  V30 7581 C 741.013 1.60289 -0.128114 0
M  V30 7582 O 742.203 1.70048 -0.378044 0
M  V30 7583 C 739.335 3.30153 -0.849205 0
M  V30 7584 H 740.528 2.06833 -2.17164 0
M  V30 7585 H 738.081 1.05049 -1.15734 0
M  V30 7586 H 738.816 3.24087 0.117508 0
M  V30 7587 H 738.601 3.56771 -1.62655 0
M  V30 7588 H 740.091 4.10025 -0.791782 0
M  V30 7589 N 740.528 1.15101 1.07655 0
M  V30 7590 C 741.458 0.867864 2.16773 0
M  V30 7591 C 742.439 -0.180283 1.69142 0
M  V30 7592 O 743.624 -0.0353152 1.94168 0
M  V30 7593 C 740.754 0.35299 3.45501 0
M  V30 7594 C 739.708 1.33746 4.06566 0
M  V30 7595 C 739.034 0.681562 5.30338 0
M  V30 7596 C 740.334 2.7024 4.46954 0
M  V30 7597 H 742.028 1.78034 2.40716 0
M  V30 7598 H 739.574 0.857435 1.15689 0
M  V30 7599 H 741.527 0.142465 4.21159 0
M  V30 7600 H 740.251 -0.594945 3.21135 0
M  V30 7601 H 738.91 1.53429 3.32949 0
M  V30 7602 H 738.558 -0.272422 5.02262 0
M  V30 7603 H 738.258 1.33853 5.72151 0
M  V30 7604 H 739.782 0.48074 6.08705 0
M  V30 7605 H 741.196 2.5442 5.13754 0
M  V30 7606 H 739.593 3.32282 4.99709 0
M  V30 7607 H 740.663 3.26537 3.58471 0
M  V30 7608 N 742.006 -1.2595 0.947325 0
M  V30 7609 C 742.969 -2.24407 0.466285 0
M  V30 7610 C 743.969 -1.55054 -0.426005 0
M  V30 7611 O 745.159 -1.7275 -0.224319 0
M  V30 7612 C 742.291 -3.39326 -0.327201 0
M  V30 7613 H 743.484 -2.68477 1.33642 0
M  V30 7614 H 741.037 -1.38211 0.729887 0
M  V30 7615 H 741.772 -3.00667 -1.21532 0
M  V30 7616 H 741.557 -3.9085 0.312839 0
M  V30 7617 H 743.047 -4.12455 -0.653477 0
M  V30 7618 N 743.484 -0.715051 -1.40445 0
M  V30 7619 C 744.714 -0.263576 -2.04912 0
M  V30 7620 C 745.122 1.09943 -1.53978 0
M  V30 7621 O 744.465 1.70203 -0.691133 0
M  V30 7622 C 744.527 -0.165048 -3.59121 0
M  V30 7623 C 744.191 -1.46325 -4.32941 0
M  V30 7624 C 745.188 -2.40506 -4.60926 0
M  V30 7625 C 742.873 -1.72203 -4.7186 0
M  V30 7626 C 744.867 -3.58812 -5.26814 0
M  V30 7627 C 742.554 -2.9079 -5.3748 0
M  V30 7628 C 743.552 -3.83917 -5.64887 0
M  V30 7629 O 743.24 -5.00424 -6.29151 0
M  V30 7630 H 742.972 -0.116317 -0.665918 0
M  V30 7631 H 745.526 -0.973774 -1.8085 0
M  V30 7632 H 743.756 0.601088 -3.82 0
M  V30 7633 H 745.445 0.251794 -4.05118 0
M  V30 7634 H 746.211 -2.21778 -4.31323 0
M  V30 7635 H 742.09 -1.00571 -4.49896 0
M  V30 7636 H 745.634 -4.31517 -5.48123 0
M  V30 7637 H 741.531 -3.09428 -5.66502 0
M  V30 7638 H 742.299 -5.00494 -6.47648 0
M  V30 7639 N 744.962 1.50701 -0.461195 0
M  V30 7640 C 746.21 2.01867 0.0970051 0
M  V30 7641 C 746.531 1.34591 1.41104 0
M  V30 7642 O 745.801 0.488041 1.89723 0
M  V30 7643 H 744.381 0.74599 0.0388392 0
M  V30 7644 H 747.043 1.85129 -0.609357 0
M  V30 7645 H 746.139 3.11051 0.255688 0
M  V30 7646 N 746.441 0.193421 1.56409 0
M  V30 7647 C 747.671 -0.450783 2.01622 0
M  V30 7648 C 748.079 -1.5585 1.07273 0
M  V30 7649 O 747.422 -1.83569 0.0694875 0
M  V30 7650 C 747.484 -1.06913 3.43235 0
M  V30 7651 C 747.148 -0.100352 4.5689 0
M  V30 7652 C 748.145 0.689633 5.15306 0
M  V30 7653 C 745.83 0.0102436 5.02299 0
M  V30 7654 C 747.824 1.5772 6.17579 0
M  V30 7655 C 745.511 0.901368 6.04416 0
M  V30 7656 C 746.509 1.68341 6.61929 0
M  V30 7657 O 746.197 2.5596 7.62063 0
M  V30 7658 H 745.929 -0.117671 0.66568 0
M  V30 7659 H 748.483 0.2989 2.03214 0
M  V30 7660 H 746.713 -1.86736 3.38624 0
M  V30 7661 H 748.402 -1.61781 3.72266 0
M  V30 7662 H 749.168 0.614485 4.81092 0
M  V30 7663 H 745.047 -0.58829 4.57231 0
M  V30 7664 H 748.591 2.18805 6.62397 0
M  V30 7665 H 744.488 0.977637 6.38054 0
M  V30 7666 H 745.256 2.49721 7.79475 0
M  V30 7667 N 747.919 -1.57396 -0.0801906 0
M  V30 7668 C 748.882 -2.02133 -1.0805 0
M  V30 7669 C 749.882 -0.91707 -1.32085 0
M  V30 7670 O 751.072 -1.18217 -1.27947 0
M  V30 7671 C 748.204 -2.39479 -2.42616 0
M  V30 7672 H 749.397 -2.91733 -0.6951 0
M  V30 7673 H 746.95 -1.52869 -0.325677 0
M  V30 7674 H 747.685 -1.52879 -2.86004 0
M  V30 7675 H 747.47 -3.20052 -2.26515 0
M  V30 7676 H 748.96 -2.74697 -3.14534 0
M  V30 7677 N 749.397 0.351382 -1.53633 0
M  V30 7678 C 750.329 1.45159 -1.77374 0
M  V30 7679 C 751.342 1.4905 -0.654826 0
M  V30 7680 O 752.531 1.52274 -0.931396 0
M  V30 7681 C 749.631 2.83858 -1.85143 0
M  V30 7682 C 748.804 3.03498 -3.14972 0
M  V30 7683 C 747.863 4.22393 -3.138 0
M  V30 7684 O 746.889 4.16885 -3.87551 0
M  V30 7685 N 748.091 5.30533 -2.35617 0
M  V30 7686 H 750.856 1.25167 -2.72311 0
M  V30 7687 H 748.417 0.54121 -1.52586 0
M  V30 7688 H 750.409 3.61557 -1.8182 0
M  V30 7689 H 748.979 2.9703 -0.974275 0
M  V30 7690 H 748.199 2.13336 -3.31484 0
M  V30 7691 H 749.487 3.13498 -4.00745 0
M  V30 7692 H 748.885 5.37875 -1.75235 0
M  V30 7693 H 747.442 6.06756 -2.38098 0
M  V30 7694 N 750.875 1.45233 0.611969 0
M  V30 7695 C 752.152 1.39495 1.37115 0
M  V30 7696 C 752.532 0.0633303 2.11005 0
M  V30 7697 O 751.88 -0.954617 2.07604 0
M  V30 7698 C 752.09 2.60579 2.32163 0
M  V30 7699 C 753.438 3.05477 2.94905 0
M  V30 7700 O 754.462 2.60921 2.42485 0
M  V30 7701 O 753.321 3.82787 3.90047 0
M  V30 7702 H 750.415 0.55335 0.614599 0
M  V30 7703 H 752.961 1.57355 0.635423 0
M  V30 7704 H 751.733 3.49085 1.76793 0
M  V30 7705 H 751.356 2.45031 3.13122 0
M  V30 7706 N 752.353 -0.854086 1.3245 0
M  V30 7707 C 753.285 -1.96932 1.17262 0
M  V30 7708 C 754.298 -1.62445 0.107469 0
M  V30 7709 O 755.487 -1.74904 0.356481 0
M  V30 7710 C 752.587 -3.29971 0.772817 0
M  V30 7711 C 751.76 -3.92695 1.92638 0
M  V30 7712 C 750.819 -5.04068 1.51003 0
M  V30 7713 O 749.845 -5.24032 2.22213 0
M  V30 7714 N 751.047 -5.79076 0.406371 0
M  V30 7715 H 753.812 -2.10503 2.13327 0
M  V30 7716 H 751.373 -1.02897 1.24995 0
M  V30 7717 H 753.365 -4.01883 0.476684 0
M  V30 7718 H 751.935 -3.1245 -0.0967 0
M  V30 7719 H 751.155 -3.13563 2.38897 0
M  V30 7720 H 752.443 -4.31337 2.69863 0
M  V30 7721 H 751.841 -5.65393 -0.186302 0
M  V30 7722 H 750.398 -6.51579 0.169846 0
M  V30 7723 N 753.831 -1.1567 -1.07043 0
M  V30 7724 C 754.741 -0.870435 -2.17855 0
M  V30 7725 C 755.757 0.154452 -1.73313 0
M  V30 7726 O 756.933 -0.0203759 -2.0139 0
M  V30 7727 C 753.998 -0.367219 -3.4475 0
M  V30 7728 C 753.059 -1.45639 -4.03841 0
M  V30 7729 C 752.292 -0.977092 -5.2468 0
M  V30 7730 O 752.515 0.176127 -5.70128 0
M  V30 7731 O 751.449 -1.76215 -5.75527 0
M  V30 7732 H 755.275 -1.79687 -2.44839 0
M  V30 7733 H 752.86 -0.936064 -1.1644 0
M  V30 7734 H 754.742 -0.0931947 -4.21297 0
M  V30 7735 H 753.417 0.53131 -3.1931 0
M  V30 7736 H 752.324 -1.78406 -3.28819 0
M  V30 7737 H 753.657 -2.32995 -4.3356 0
M  V30 7738 N 755.309 1.25446 -0.953992 0
M  V30 7739 C 756.72 1.75047 -0.649255 0
M  V30 7740 C 757.071 1.77527 0.835385 0
M  V30 7741 O 756.196 1.39569 1.65377 0
M  V30 7742 C 756.791 3.17889 -1.17183 0
M  V30 7743 C 755.35 3.65052 -0.917267 0
M  V30 7744 C 754.497 2.44124 -1.31525 0
M  V30 7745 H 757.448 1.11342 -1.13087 0
M  V30 7746 H 757.469 3.76768 -0.531616 0
M  V30 7747 H 756.981 3.16052 -2.25239 0
M  V30 7748 H 755.082 3.72305 0.148354 0
M  V30 7749 H 755.195 4.53222 -1.55328 0
M  V30 7750 H 753.559 2.43906 -0.733624 0
M  V30 7751 H 754.342 2.44979 -2.405 0
M  V30 7752 N 756.787 0.722489 1.40064 0
M  V30 7753 C 758.064 0.191829 1.94657 0
M  V30 7754 C 758.444 -1.30389 1.66018 0
M  V30 7755 O 757.792 -2.06342 0.981588 0
M  V30 7756 C 758.002 0.511978 3.45224 0
M  V30 7757 C 759.35 0.454426 4.22161 0
M  V30 7758 O 760.374 0.448438 3.53366 0
M  V30 7759 O 759.233 0.437986 5.44742 0
M  V30 7760 H 756.327 0.0307821 0.826427 0
M  V30 7761 H 758.873 0.800493 1.49634 0
M  V30 7762 H 757.645 1.54622 3.59455 0
M  V30 7763 H 757.268 -0.126296 3.97399 0
M  V30 7764 N 758.265 -1.50454 0.469181 0
M  V30 7765 C 759.228 -2.2703 -0.314643 0
M  V30 7766 C 760.228 -1.31734 -0.922111 0
M  V30 7767 O 761.418 -1.55176 -0.791588 0
M  V30 7768 C 758.55 -3.08616 -1.44806 0
M  V30 7769 H 759.743 -2.97769 0.356892 0
M  V30 7770 H 757.296 -1.54698 0.223191 0
M  V30 7771 H 758.031 -2.42369 -2.1547 0
M  V30 7772 H 757.816 -3.78647 -1.01829 0
M  V30 7773 H 759.306 -3.66536 -2.00103 0
M  V30 7774 N 759.743 -0.201713 -1.56304 0
M  V30 7775 C 761.159 0.154025 -1.58855 0
M  V30 7776 C 761.359 1.60516 -1.21807 0
M  V30 7777 O 760.415 2.34193 -0.94393 0
M  V30 7778 C 761.728 -0.154319 -3.00304 0
M  V30 7779 C 763.276 -0.0949578 -3.12856 0
M  V30 7780 C 763.751 -0.376703 -4.56448 0
M  V30 7781 N 765.242 -0.325558 -4.62054 0
M  V30 7782 C 765.977 -0.51732 -5.71062 0
M  V30 7783 N 765.473 -0.769789 -6.8851 0
M  V30 7784 N 767.266 -0.45112 -5.60287 0
M  V30 7785 H 759.417 -1.14858 -1.78666 0
M  V30 7786 H 761.68 -0.458934 -0.829508 0
M  V30 7787 H 761.386 -1.16074 -3.31994 0
M  V30 7788 H 761.26 0.540014 -3.73314 0
M  V30 7789 H 763.647 0.902075 -2.80974 0
M  V30 7790 H 763.728 -0.822468 -2.42217 0
M  V30 7791 H 763.372 -1.37108 -4.89044 0
M  V30 7792 H 763.302 0.371772 -5.25286 0
M  V30 7793 H 765.793 -0.137308 -3.7765 0
M  V30 7794 H 766.106 -0.904744 -7.67486 0
M  V30 7795 H 764.451 -0.806758 -6.90302 0
M  V30 7796 H 767.642 -0.254253 -4.67409 0
M  V30 7797 H 767.815 -0.603982 -6.45179 0
M  V30 7798 N 761.222 1.57436 0.0718424 0
M  V30 7799 C 762.47 1.86878 0.769484 0
M  V30 7800 C 762.791 0.7937 1.78116 0
M  V30 7801 O 762.061 -0.177642 1.95093 0
M  V30 7802 H 760.641 0.689593 0.287177 0
M  V30 7803 H 763.303 1.94841 0.0479427 0
M  V30 7804 H 762.399 2.84387 1.28572 0
M  V30 7805 N 762.7 -0.34323 1.53817 0
M  V30 7806 C 764.116 -0.686355 1.44088 0
M  V30 7807 C 764.316 -1.92426 0.597882 0
M  V30 7808 O 763.372 -2.52343 0.0889918 0
M  V30 7809 C 764.685 -0.878698 2.87575 0
M  V30 7810 C 766.233 -0.977296 2.97352 0
M  V30 7811 C 766.708 -1.20195 4.41947 0
M  V30 7812 N 768.199 -1.26915 4.45474 0
M  V30 7813 C 768.934 -1.46049 5.54488 0
M  V30 7814 N 768.43 -1.62354 6.73508 0
M  V30 7815 N 770.223 -1.48599 5.42102 0
M  V30 7816 H 762.374 0.470679 2.07119 0
M  V30 7817 H 764.637 0.148652 0.936273 0
M  V30 7818 H 764.343 -0.040602 3.51677 0
M  V30 7819 H 764.217 -1.78034 3.32541 0
M  V30 7820 H 766.604 -1.80591 2.3339 0
M  V30 7821 H 766.685 -0.0525498 2.55746 0
M  V30 7822 H 766.329 -0.378262 5.06489 0
M  V30 7823 H 766.259 -2.14027 4.81145 0
M  V30 7824 H 768.75 -1.15837 3.59708 0
M  V30 7825 H 769.063 -1.76591 7.52353 0
M  V30 7826 H 767.408 -1.5949 6.76453 0
M  V30 7827 H 770.599 -1.35443 4.48077 0
M  V30 7828 H 770.772 -1.6317 6.2712 0
M  V30 7829 N 764.178 -1.45556 -0.604258 0
M  V30 7830 C 765.427 -1.49019 -1.35928 0
M  V30 7831 C 765.74 -0.137409 -1.95117 0
M  V30 7832 O 766.946 -0.0497032 -2.71455 0
M  V30 7833 C 765.402 -2.62477 -2.46239 0
M  V30 7834 C 765.01 -4.04082 -1.93447 0
M  V30 7835 C 766.754 -2.7519 -3.23219 0
M  V30 7836 C 764.661 -5.08917 -3.0126 0
M  V30 7837 H 763.591 -0.554518 -0.510907 0
M  V30 7838 H 766.242 -1.71705 -0.647262 0
M  V30 7839 H 764.624 -2.3308 -3.2014 0
M  V30 7840 H 765.798 -4.43173 -1.26232 0
M  V30 7841 H 764.113 -3.95849 -1.29201 0
M  V30 7842 H 766.71 -3.50683 -4.0364 0
M  V30 7843 H 767.053 -1.81941 -3.74437 0
M  V30 7844 H 767.586 -3.04129 -2.56418 0
M  V30 7845 H 764.325 -6.03886 -2.54955 0
M  V30 7846 H 763.845 -4.74393 -3.67031 0
M  V30 7847 H 765.524 -5.33814 -3.65584 0
M  V30 7848 N 765.656 0.84705 -1.32902 0
M  V30 7849 C 767.072 1.13645 -1.12058 0
M  V30 7850 C 767.272 2.01281 0.093937 0
M  V30 7851 O 766.328 2.4026 0.776608 0
M  V30 7852 C 767.641 1.80644 -2.40392 0
M  V30 7853 C 769.189 1.93246 -2.46221 0
M  V30 7854 C 769.664 2.6366 -3.74496 0
M  V30 7855 N 771.155 2.71179 -3.75521 0
M  V30 7856 C 771.89 3.26332 -4.71482 0
M  V30 7857 N 771.386 3.82236 -5.77813 0
M  V30 7858 N 773.179 3.24507 -4.58968 0
M  V30 7859 H 765.33 0.263612 -2.10758 0
M  V30 7860 H 767.593 0.17944 -0.930863 0
M  V30 7861 H 767.299 1.23708 -3.29225 0
M  V30 7862 H 767.173 2.80736 -2.51926 0
M  V30 7863 H 769.56 2.49338 -1.57843 0
M  V30 7864 H 769.641 0.921272 -2.38634 0
M  V30 7865 H 769.285 2.08229 -4.63253 0
M  V30 7866 H 769.215 3.65234 -3.79357 0
M  V30 7867 H 771.706 2.31527 -2.9867 0
M  V30 7868 H 772.019 4.22499 -6.47082 0
M  V30 7869 H 770.364 3.80546 -5.81558 0
M  V30 7870 H 773.555 2.80085 -3.7506 0
M  V30 7871 H 773.728 3.67188 -5.33926 0
M  V30 7872 N 767.134 1.16236 1.06428 0
M  V30 7873 C 768.082 0.863669 2.15971 0
M  V30 7874 C 769.076 -0.166723 1.68578 0
M  V30 7875 O 770.282 -0.0208425 1.79988 0
M  V30 7876 H 766.657 0.261684 0.705 0
M  V30 7877 H 768.628 1.79498 2.38376 0
M  V30 7878 C 767.377 0.379697 3.45621 0
M  V30 7879 H 766.7 1.16399 3.82481 0
M  V30 7880 H 768.14 0.209458 4.23482 0
M  V30 7881 C 766.599 -0.900499 3.24642 0
M  V30 7882 O 767.129 -1.97004 3.50074 0
M  V30 7883 N 765.335 -0.843721 2.78082 0
M  V30 7884 H 764.882 0.0268429 2.57586 0
M  V30 7885 H 764.84 -1.70078 2.64425 0
M  V30 7886 N 768.612 -1.24939 0.960631 0
M  V30 7887 C 769.86 -1.92437 0.617441 0
M  V30 7888 C 770.181 -1.75543 -0.849101 0
M  V30 7889 O 769.451 -1.12269 -1.60538 0
M  V30 7890 H 768.031 -0.712192 0.225371 0
M  V30 7891 H 770.693 -1.5198 1.22017 0
M  V30 7892 H 769.789 -3.00247 0.851933 0
M  V30 7893 N 770.09 -0.729906 -1.39679 0
M  V30 7894 C 771.053 -0.0951668 -2.29002 0
M  V30 7895 C 772.053 0.672471 -1.46063 0
M  V30 7896 O 773.243 0.502245 -1.66803 0
M  V30 7897 C 770.375 0.874631 -3.29489 0
M  V30 7898 H 771.568 -0.882062 -2.86635 0
M  V30 7899 H 769.121 -0.495424 -1.4824 0
M  V30 7900 H 769.856 1.68807 -2.76902 0
M  V30 7901 H 769.641 0.326893 -3.90735 0
M  V30 7902 H 771.131 1.31548 -3.96339 0
M  V30 7903 N 771.568 1.50203 -0.477153 0
M  V30 7904 C 772.498 2.31517 0.303646 0
M  V30 7905 C 773.479 1.38696 0.984753 0
M  V30 7906 O 774.664 1.67615 0.980758 0
M  V30 7907 C 771.794 3.18598 1.38249 0
M  V30 7908 C 770.748 4.2002 0.822645 0
M  V30 7909 C 770.074 4.95878 2.00024 0
M  V30 7910 C 771.374 5.22023 -0.170185 0
M  V30 7911 H 773.068 2.97042 -0.375027 0
M  V30 7912 H 770.614 1.42848 -0.181802 0
M  V30 7913 H 772.567 3.74282 1.93625 0
M  V30 7914 H 771.291 2.5097 2.09002 0
M  V30 7915 H 769.95 3.65445 0.290813 0
M  V30 7916 H 769.598 4.24717 2.69489 0
M  V30 7917 H 769.298 5.64487 1.63183 0
M  V30 7918 H 770.822 5.54399 2.55878 0
M  V30 7919 H 772.236 5.72543 0.294606 0
M  V30 7920 H 770.633 5.98386 -0.453181 0
M  V30 7921 H 771.703 4.72396 -1.09408 0
M  V30 7922 N 773.046 0.209999 1.56195 0
M  V30 7923 C 773.976 -0.699746 2.22769 0
M  V30 7924 C 774.957 -1.20993 1.1956 0
M  V30 7925 O 776.142 -1.25605 1.48112 0
M  V30 7926 C 773.272 -1.91302 2.89863 0
M  V30 7927 C 772.226 -1.53715 3.99444 0
M  V30 7928 C 771.552 -2.82826 4.53777 0
M  V30 7929 C 772.852 -0.735836 5.17091 0
M  V30 7930 H 774.546 -0.144716 2.9905 0
M  V30 7931 H 772.092 -0.0681645 1.43839 0
M  V30 7932 H 774.045 -2.5548 3.35124 0
M  V30 7933 H 772.769 -2.49283 2.11011 0
M  V30 7934 H 771.428 -0.918892 3.54897 0
M  V30 7935 H 771.076 -3.38927 3.71669 0
M  V30 7936 H 770.776 -2.58415 5.27727 0
M  V30 7937 H 772.3 -3.47966 5.01749 0
M  V30 7938 H 773.714 -1.28105 5.58804 0
M  V30 7939 H 772.111 -0.589272 5.972 0
M  V30 7940 H 773.181 0.260004 4.84202 0
M  V30 7941 N 774.524 -1.57472 -0.0634922 0
M  V30 7942 C 775.94 -1.54016 -0.418466 0
M  V30 7943 C 776.14 -0.931376 -1.78683 0
M  V30 7944 O 775.196 -0.537465 -2.46714 0
M  V30 7945 C 776.509 -2.98634 -0.351906 0
M  V30 7946 C 778.057 -3.10012 -0.431494 0
M  V30 7947 C 778.532 -4.56296 -0.394754 0
M  V30 7948 N 780.023 -4.60964 -0.454583 0
M  V30 7949 C 780.758 -5.71643 -0.448501 0
M  V30 7950 N 780.254 -6.91663 -0.396742 0
M  V30 7951 N 782.047 -5.5991 -0.495677 0
M  V30 7952 H 774.198 -1.95409 0.832408 0
M  V30 7953 H 776.461 -0.894769 0.313197 0
M  V30 7954 H 776.167 -3.46766 0.587048 0
M  V30 7955 H 776.041 -3.58955 -1.15893 0
M  V30 7956 H 778.428 -2.61848 -1.36087 0
M  V30 7957 H 778.509 -2.52585 0.404258 0
M  V30 7958 H 778.153 -5.05119 0.530811 0
M  V30 7959 H 778.083 -5.11594 -1.24815 0
M  V30 7960 H 780.574 -3.74598 -0.498496 0
M  V30 7961 H 780.887 -7.71783 -0.396256 0
M  V30 7962 H 779.232 -6.9405 -0.363304 0
M  V30 7963 H 782.423 -4.65046 -0.533864 0
M  V30 7964 H 782.596 -6.46164 -0.487469 0
M  V30 7965 N 776.003 0.335068 -1.53997 0
M  V30 7966 C 777.249 1.07594 -1.71905 0
M  V30 7967 C 777.582 1.88039 -0.485264 0
M  V30 7968 O 776.857 1.87482 0.517752 0
M  V30 7969 C 777.14 2.01016 -2.98772 0
M  V30 7970 C 776.993 1.23977 -4.32377 0
M  V30 7971 C 778.312 3.0071 -3.21343 0
M  V30 7972 H 775.431 0.38976 -0.625505 0
M  V30 7973 H 778.073 0.353684 -1.86679 0
M  V30 7974 H 776.223 2.62603 -2.86307 0
M  V30 7975 H 777.895 0.649383 -4.56706 0
M  V30 7976 H 776.138 0.541878 -4.30402 0
M  V30 7977 H 776.809 1.92512 -5.17342 0
M  V30 7978 H 779.285 2.4924 -3.33194 0
M  V30 7979 H 778.161 3.63272 -4.11491 0
M  V30 7980 H 778.422 3.72549 -2.38033 0
M  V30 7981 N 777.481 1.45874 0.596531 0
M  V30 7982 C 778.711 1.5379 1.37958 0
M  V30 7983 C 779.119 0.173086 1.88407 0
M  V30 7984 O 778.462 -0.837498 1.63498 0
M  V30 7985 C 778.524 2.47044 2.61169 0
M  V30 7986 C 778.188 3.93565 2.32283 0
M  V30 7987 C 779.185 4.83162 1.91965 0
M  V30 7988 C 776.87 4.38579 2.44854 0
M  V30 7989 C 778.864 6.15782 1.64593 0
M  V30 7990 C 776.551 5.71238 2.17095 0
M  V30 7991 C 777.549 6.59659 1.77028 0
M  V30 7992 O 777.237 7.89857 1.49601 0
M  V30 7993 H 776.969 0.523 0.428307 0
M  V30 7994 H 779.523 1.91855 0.733529 0
M  V30 7995 H 777.753 2.0397 3.28532 0
M  V30 7996 H 779.442 2.4552 3.23226 0
M  V30 7997 H 780.208 4.49646 1.8178 0
M  V30 7998 H 776.087 3.6999 2.75006 0
M  V30 7999 H 779.631 6.84757 1.33245 0
M  V30 8000 H 775.528 6.04306 2.26901 0
M  V30 8001 H 776.296 8.01991 1.63561 0
M  V30 8002 N 778.959 -0.83999 1.33349 0
M  V30 8003 C 780.205 -1.59753 1.24927 0
M  V30 8004 C 780.538 -1.93318 -0.184855 0
M  V30 8005 O 779.813 -1.586 -1.12589 0
M  V30 8006 C 780.096 -2.90829 2.12345 0
M  V30 8007 C 779.949 -2.63953 3.6421 0
M  V30 8008 C 781.268 -3.92246 1.99577 0
M  V30 8009 H 778.387 -0.579654 0.45516 0
M  V30 8010 H 781.029 -0.968909 1.63439 0
M  V30 8011 H 779.179 -3.44478 1.79631 0
M  V30 8012 H 780.851 -2.16745 4.07209 0
M  V30 8013 H 779.094 -1.97671 3.86146 0
M  V30 8014 H 779.765 -3.57348 4.20721 0
M  V30 8015 H 782.241 -3.479 2.28265 0
M  V30 8016 H 781.117 -4.81793 2.62996 0
M  V30 8017 H 781.378 -4.3138 0.967673 0
M  V30 8018 N 780.437 -1.16799 -1.0581 0
M  V30 8019 C 781.848 -0.95945 -1.60161 0
M  V30 8020 C 782.199 0.49543 -1.89842 0
M  V30 8021 O 781.324 1.36957 -1.67546 0
M  V30 8022 C 781.919 -1.73527 -2.90987 0
M  V30 8023 C 780.478 -1.57158 -3.42021 0
M  V30 8024 C 779.625 -1.74089 -2.15843 0
M  V30 8025 H 782.576 -1.31598 -0.886992 0
M  V30 8026 H 782.597 -1.21397 -3.60615 0
M  V30 8027 H 782.109 -2.79411 -2.69353 0
M  V30 8028 H 780.21 -0.537361 -3.68705 0
M  V30 8029 H 780.323 -2.35858 -4.17022 0
M  V30 8030 H 778.687 -1.16874 -2.26302 0
M  V30 8031 H 779.47 -2.81371 -1.96686 0
M  V30 8032 N 781.915 1.24427 -0.967243 0
M  V30 8033 C 783.331 1.44684 -0.6737 0
M  V30 8034 C 783.531 1.86429 0.764625 0
M  V30 8035 O 782.587 2.00211 1.53857 0
M  V30 8036 C 783.9 2.509 -1.6574 0
M  V30 8037 C 785.448 2.64728 -1.66998 0
M  V30 8038 C 785.923 3.7414 -2.64165 0
M  V30 8039 N 787.414 3.81567 -2.62604 0
M  V30 8040 C 788.149 4.6575 -3.34462 0
M  V30 8041 N 787.645 5.54124 -4.15835 0
M  V30 8042 N 789.438 4.59827 -3.23288 0
M  V30 8043 H 781.589 0.956276 -1.89655 0
M  V30 8044 H 783.852 0.48171 -0.816492 0
M  V30 8045 H 783.558 2.27113 -2.68538 0
M  V30 8046 H 783.432 3.4905 -1.42981 0
M  V30 8047 H 785.819 2.87872 -0.649121 0
M  V30 8048 H 785.9 1.66936 -1.93819 0
M  V30 8049 H 785.544 3.51745 -3.66384 0
M  V30 8050 H 785.474 4.71444 -2.34623 0
M  V30 8051 H 787.965 3.18403 -2.03539 0
M  V30 8052 H 788.278 6.15316 -4.67553 0
M  V30 8053 H 786.623 5.53791 -4.19929 0
M  V30 8054 H 789.814 3.898 -2.59179 0
M  V30 8055 H 789.987 5.25208 -3.79553 0
M  V30 8056 N 783.393 0.737304 1.3929 0
M  V30 8057 C 784.618 0.295237 2.05288 0
M  V30 8058 C 785.043 -1.06235 1.55228 0
M  V30 8059 O 784.401 -1.67365 0.697043 0
M  V30 8060 C 784.449 0.309146 3.59272 0
M  V30 8061 O 783.553 -0.702437 4.06374 0
M  V30 8062 H 782.894 0.133762 0.650387 0
M  V30 8063 H 785.424 1.00387 1.78279 0
M  V30 8064 H 785.434 0.154336 4.07708 0
M  V30 8065 H 784.109 1.29974 3.95069 0
M  V30 8066 H 782.686 -0.513574 3.69346 0
M  V30 8067 N 784.871 -1.49948 0.485112 0
M  V30 8068 C 786.096 -2.073 -0.0645059 0
M  V30 8069 C 786.521 -1.345 -1.31497 0
M  V30 8070 O 785.879 -0.39687 -1.76903 0
M  V30 8071 C 785.927 -3.59201 -0.317304 0
M  V30 8072 O 785.031 -3.88085 -1.39514 0
M  V30 8073 H 784.372 -0.663723 0.0191822 0
M  V30 8074 H 786.902 -1.92963 0.680179 0
M  V30 8075 H 786.912 -4.04227 -0.553604 0
M  V30 8076 H 785.587 -4.11602 0.596387 0
M  V30 8077 H 784.164 -3.54885 -1.14504 0
M  V30 8078 N 786.349 -0.21828 -1.56081 0
M  V30 8079 C 787.279 0.687922 -2.23136 0
M  V30 8080 C 788.26 1.20357 -1.202 0
M  V30 8081 O 789.445 1.24817 -1.48776 0
M  V30 8082 C 786.575 1.89762 -2.90874 0
M  V30 8083 C 785.529 1.51595 -4.00254 0
M  V30 8084 C 784.855 2.80415 -4.55271 0
M  V30 8085 C 786.155 0.708404 -5.17474 0
M  V30 8086 H 787.849 0.128854 -2.99123 0
M  V30 8087 H 785.395 0.0605354 -1.43873 0
M  V30 8088 H 787.348 2.53699 -3.36474 0
M  V30 8089 H 786.072 2.4816 -2.1233 0
M  V30 8090 H 784.731 0.900058 -3.55379 0
M  V30 8091 H 784.379 3.36951 -3.73461 0
M  V30 8092 H 784.079 2.55613 -5.2909 0
M  V30 8093 H 785.603 3.453 -5.03587 0
M  V30 8094 H 787.017 1.2514 -5.59476 0
M  V30 8095 H 785.414 0.557593 -5.97504 0
M  V30 8096 H 786.484 -0.285679 -4.84058 0
M  V30 8097 N 787.827 1.57504 0.0551401 0
M  V30 8098 C 789.238 1.76626 0.604979 0
M  V30 8099 C 789.589 0.845978 1.77024 0
M  V30 8100 O 788.714 0.0341936 2.16373 0
M  V30 8101 C 789.309 3.203 1.10425 0
M  V30 8102 C 787.868 3.4071 1.59981 0
M  V30 8103 C 787.015 2.72258 0.526414 0
M  V30 8104 H 789.966 1.57775 -0.171072 0
M  V30 8105 H 789.987 3.25377 1.97256 0
M  V30 8106 H 789.499 3.87255 0.255939 0
M  V30 8107 H 787.6 2.78892 2.47083 0
M  V30 8108 H 787.713 4.49227 1.66528 0
M  V30 8109 H 786.077 2.35283 0.97539 0
M  V30 8110 H 786.86 3.41879 -0.311991 0
M  V30 8111 N 789.305 -0.326896 1.54172 0
M  V30 8112 C 790.553 -1.06313 1.71878 0
M  V30 8113 C 790.874 -1.88652 0.493498 0
M  V30 8114 O 790.144 -1.89608 -0.492522 0
M  V30 8115 H 788.724 -0.39549 0.633716 0
M  V30 8116 H 791.386 -0.364139 1.91468 0
M  V30 8117 H 790.482 -1.73105 2.59694 0
M  V30 8118 N 790.784 -1.46188 -0.588786 0
M  V30 8119 C 792.031 -1.51184 -1.34721 0
M  V30 8120 C 792.359 -0.161084 -1.93832 0
M  V30 8121 O 791.614 0.842557 -1.76634 0
M  V30 8122 C 791.913 -2.55364 -2.50048 0
M  V30 8123 C 791.579 -3.99553 -2.08969 0
M  V30 8124 C 790.241 -4.38811 -1.9748 0
M  V30 8125 C 792.593 -4.90156 -1.77191 0
M  V30 8126 C 789.921 -5.66544 -1.52463 0
M  V30 8127 C 792.273 -6.1832 -1.33654 0
M  V30 8128 C 790.937 -6.5649 -1.20738 0
M  V30 8129 H 790.207 -0.55322 -0.49298 0
M  V30 8130 H 792.854 -1.79634 -0.663627 0
M  V30 8131 H 791.159 -2.20552 -3.23827 0
M  V30 8132 H 792.856 -2.5646 -3.08268 0
M  V30 8133 H 789.446 -3.68518 -2.18843 0
M  V30 8134 H 793.63 -4.60549 -1.84955 0
M  V30 8135 H 788.886 -5.94895 -1.411 0
M  V30 8136 H 793.06 -6.87956 -1.08117 0
M  V30 8137 H 790.687 -7.55362 -0.856307 0
M  V30 8138 N 792.262 0.832906 -1.33792 0
M  V30 8139 C 793.492 1.61813 -1.28453 0
M  V30 8140 C 793.9 1.88639 0.145595 0
M  V30 8141 O 793.243 1.47122 1.10004 0
M  V30 8142 C 793.305 2.98929 -1.99704 0
M  V30 8143 C 792.969 2.95045 -3.48995 0
M  V30 8144 C 793.966 2.70337 -4.44088 0
M  V30 8145 C 791.651 3.14993 -3.91261 0
M  V30 8146 C 793.645 2.65612 -5.79421 0
M  V30 8147 C 791.332 3.09893 -5.26697 0
M  V30 8148 C 792.33 2.85235 -6.20588 0
M  V30 8149 O 792.018 2.8005 -7.53543 0
M  V30 8150 H 791.75 0.510013 -0.443693 0
M  V30 8151 H 794.304 1.04514 -1.76822 0
M  V30 8152 H 792.534 3.58106 -1.45935 0
M  V30 8153 H 794.223 3.59849 -1.87786 0
M  V30 8154 H 794.989 2.54671 -4.12756 0
M  V30 8155 H 790.868 3.33204 -3.18584 0
M  V30 8156 H 794.412 2.46285 -6.52679 0
M  V30 8157 H 790.309 3.2511 -5.5765 0
M  V30 8158 H 791.077 2.95849 -7.63162 0
M  V30 8159 N 793.74 1.17359 1.05189 0
M  V30 8160 C 795.156 0.920861 1.30355 0
M  V30 8161 C 795.356 -0.419993 1.97074 0
M  V30 8162 O 794.412 -1.15696 2.24434 0
M  V30 8163 C 795.725 2.07818 2.1733 0
M  V30 8164 C 797.273 2.1152 2.30712 0
M  V30 8165 C 797.748 3.26637 3.21048 0
M  V30 8166 N 799.239 3.26426 3.28634 0
M  V30 8167 C 799.974 4.12141 3.98657 0
M  V30 8168 N 799.47 5.07966 4.71107 0
M  V30 8169 N 801.263 4.00091 3.94821 0
M  V30 8170 H 793.414 2.03666 0.602821 0
M  V30 8171 H 795.677 0.889294 0.328421 0
M  V30 8172 H 795.383 3.04727 1.75597 0
M  V30 8173 H 795.257 2.02922 3.17966 0
M  V30 8174 H 797.644 1.15196 2.71687 0
M  V30 8175 H 797.725 2.20477 1.29706 0
M  V30 8176 H 797.369 4.23227 2.80788 0
M  V30 8177 H 797.299 3.14917 4.2206 0
M  V30 8178 H 799.79 2.57045 2.77013 0
M  V30 8179 H 800.103 5.69766 5.22099 0
M  V30 8180 H 798.448 5.11936 4.7005 0
M  V30 8181 H 801.639 3.24523 3.37346 0
M  V30 8182 H 801.812 4.6711 4.49123 0
M  V30 8183 N 795.218 -1.23913 0.973828 0
M  V30 8184 C 796.446 -1.96195 0.656891 0
M  V30 8185 C 796.861 -1.72166 -0.774876 0
M  V30 8186 O 796.218 -1.0091 -1.52064 0
M  V30 8187 C 796.269 -3.49342 0.929638 0
M  V30 8188 O 795.99 -3.72553 2.30512 0
M  V30 8189 C 797.491 -4.38833 0.627739 0
M  V30 8190 H 794.711 -0.624841 0.244572 0
M  V30 8191 H 797.255 -1.57579 1.30343 0
M  V30 8192 H 795.41 -3.85999 0.329216 0
M  V30 8193 H 795.824 -4.66893 2.3898 0
M  V30 8194 H 797.298 -5.45117 0.868991 0
M  V30 8195 H 797.775 -4.37009 -0.438104 0
M  V30 8196 H 798.381 -4.07773 1.20834 0
M  V30 8197 N 796.696 -0.74468 -1.38897 0
M  V30 8198 C 797.944 -0.296298 -1.99916 0
M  V30 8199 C 798.265 1.12325 -1.59399 0
M  V30 8200 O 797.535 1.76658 -0.846689 0
M  V30 8201 H 796.115 -0.106561 -0.73936 0
M  V30 8202 H 798.777 -0.956793 -1.69798 0
M  V30 8203 H 797.873 -0.352356 -3.10105 0
M  V30 8204 N 798.174 1.49689 -0.493057 0
M  V30 8205 C 799.104 2.31826 0.279073 0
M  V30 8206 C 800.085 1.39733 0.969987 0
M  V30 8207 O 801.27 1.68646 0.962925 0
M  V30 8208 C 798.4 3.20046 1.34862 0
M  V30 8209 C 797.354 4.20869 0.77805 0
M  V30 8210 C 796.68 4.97971 1.94753 0
M  V30 8211 C 797.98 5.21813 -0.225543 0
M  V30 8212 H 799.674 2.96627 -0.406512 0
M  V30 8213 H 797.22 1.42647 -0.196943 0
M  V30 8214 H 799.173 3.76315 1.89645 0
M  V30 8215 H 797.897 2.53172 2.06328 0
M  V30 8216 H 796.556 3.65733 0.252036 0
M  V30 8217 H 796.204 4.27552 2.64969 0
M  V30 8218 H 795.904 5.66186 1.57187 0
M  V30 8219 H 797.428 5.57082 2.49984 0
M  V30 8220 H 798.842 5.72823 0.233864 0
M  V30 8221 H 797.239 5.97872 -0.516622 0
M  V30 8222 H 798.309 4.71209 -1.14412 0
M  V30 8223 N 799.652 0.226554 1.55963 0
M  V30 8224 C 800.88 -0.408507 2.02827 0
M  V30 8225 C 801.295 -1.52994 1.10627 0
M  V30 8226 O 800.652 -1.82126 0.116809 0
M  V30 8227 C 800.703 -0.93545 3.49187 0
M  V30 8228 O 800.424 0.141273 4.37872 0
M  V30 8229 C 801.925 -1.64325 4.11719 0
M  V30 8230 H 799.145 -0.099442 0.66359 0
M  V30 8231 H 801.689 0.344471 2.01578 0
M  V30 8232 H 799.844 -1.63868 3.51036 0
M  V30 8233 H 800.258 -0.25558 5.23877 0
M  V30 8234 H 801.732 -1.9639 5.15883 0
M  V30 8235 H 802.209 -2.55815 3.57009 0
M  V30 8236 H 802.815 -0.9851 4.13734 0
M  V30 8237 N 801.13 -1.57531 -0.0467866 0
M  V30 8238 C 802.06 -2.08425 -1.05268 0
M  V30 8239 C 803.041 -0.982941 -1.38825 0
M  V30 8240 O 804.226 -1.25716 -1.48018 0
M  V30 8241 C 801.356 -2.54897 -2.35891 0
M  V30 8242 C 800.31 -3.69132 -2.16623 0
M  V30 8243 C 799.636 -4.01747 -3.52851 0
M  V30 8244 C 800.936 -4.98243 -1.56689 0
M  V30 8245 H 802.63 -2.92716 -0.62908 0
M  V30 8246 H 800.176 -1.40816 -0.301156 0
M  V30 8247 H 802.129 -2.8912 -3.06574 0
M  V30 8248 H 800.853 -1.67666 -2.80278 0
M  V30 8249 H 799.512 -3.35231 -1.48377 0
M  V30 8250 H 799.16 -3.11608 -3.94853 0
M  V30 8251 H 798.86 -4.78681 -3.4079 0
M  V30 8252 H 800.384 -4.38487 -4.24925 0
M  V30 8253 H 801.798 -5.30535 -2.17268 0
M  V30 8254 H 800.195 -5.79669 -1.55255 0
M  V30 8255 H 801.265 -4.81986 -0.530827 0
M  V30 8256 N 802.608 0.318715 -1.54344 0
M  V30 8257 C 803.571 1.37545 -1.83342 0
M  V30 8258 C 804.571 1.445 -0.705444 0
M  V30 8259 O 805.761 1.44443 -0.973752 0
M  V30 8260 C 802.893 2.76225 -1.99781 0
M  V30 8261 H 804.086 1.13084 -2.77762 0
M  V30 8262 H 801.639 0.554457 -1.46135 0
M  V30 8263 H 802.374 3.05934 -1.07588 0
M  V30 8264 H 802.159 2.7257 -2.81865 0
M  V30 8265 H 803.649 3.52664 -2.23647 0
M  V30 8266 N 804.086 1.46499 0.581025 0
M  V30 8267 C 805.049 1.5677 1.672 0
M  V30 8268 C 806.049 0.444716 1.54528 0
M  V30 8269 O 807.239 0.709074 1.59116 0
M  V30 8270 C 804.371 1.4896 3.06633 0
M  V30 8271 H 805.564 2.54 1.5945 0
M  V30 8272 H 803.117 1.34334 0.799003 0
M  V30 8273 H 803.852 0.530168 3.19937 0
M  V30 8274 H 803.637 2.30439 3.17239 0
M  V30 8275 H 805.127 1.59237 3.86048 0
M  V30 8276 N 805.565 -0.825799 1.34232 0
M  V30 8277 C 806.976 -1.39835 1.23706 0
M  V30 8278 C 807.327 -1.95709 -0.138649 0
M  V30 8279 O 806.452 -1.89833 -1.03886 0
M  V30 8280 C 807.047 -2.54203 2.23978 0
M  V30 8281 C 805.606 -3.07374 2.17251 0
M  V30 8282 C 804.753 -1.80232 2.10741 0
M  V30 8283 H 807.704 -0.630442 1.4564 0
M  V30 8284 H 807.725 -3.32214 1.8551 0
M  V30 8285 H 807.237 -2.13506 3.24094 0
M  V30 8286 H 805.338 -3.52583 1.20483 0
M  V30 8287 H 805.451 -3.6666 3.08379 0
M  V30 8288 H 803.815 -2.01012 1.56417 0
M  V30 8289 H 804.598 -1.41713 3.12686 0
M  V30 8290 N 807.043 -1.17915 -1.04565 0
M  V30 8291 C 807.953 -0.916449 -2.15959 0
M  V30 8292 C 808.969 0.117655 -1.73602 0
M  V30 8293 O 810.145 -0.063089 -2.01301 0
M  V30 8294 C 807.21 -0.440262 -3.43893 0
M  V30 8295 C 806.271 -1.54172 -4.00661 0
M  V30 8296 C 805.504 -1.08816 -5.22489 0
M  V30 8297 O 805.727 0.0551547 -5.70373 0
M  V30 8298 O 804.661 -1.88383 -5.7166 0
M  V30 8299 H 808.487 -1.8484 -2.40972 0
M  V30 8300 H 806.072 -0.960552 -1.14428 0
M  V30 8301 H 807.954 -0.182537 -4.21004 0
M  V30 8302 H 806.629 0.46346 -3.20365 0
M  V30 8303 H 805.536 -1.85341 -3.24961 0
M  V30 8304 H 806.869 -2.42139 -4.2852 0
M  V30 8305 N 808.521 1.23394 -0.980386 0
M  V30 8306 C 809.484 2.23092 -0.525619 0
M  V30 8307 C 810.484 1.56129 0.384745 0
M  V30 8308 O 811.674 1.73284 0.178439 0
M  V30 8309 C 808.806 3.40074 0.23712 0
M  V30 8310 H 809.999 2.64839 -1.40714 0
M  V30 8311 H 807.552 1.36227 -0.766275 0
M  V30 8312 H 808.287 3.03783 1.13518 0
M  V30 8313 H 808.072 3.89883 -0.416356 0
M  V30 8314 H 809.562 4.14043 0.543892 0
M  V30 8315 N 809.999 0.752036 1.385 0
M  V30 8316 C 810.962 0.131587 2.28822 0
M  V30 8317 C 811.962 -0.649149 1.47115 0
M  V30 8318 O 813.152 -0.475645 1.67581 0
M  V30 8319 C 810.284 -0.822101 3.30839 0
M  V30 8320 H 811.477 0.927551 2.85196 0
M  V30 8321 H 809.03 0.518945 1.47434 0
M  V30 8322 H 809.765 -1.6438 2.79553 0
M  V30 8323 H 809.55 -0.264689 3.91206 0
M  V30 8324 H 811.04 -1.25226 3.98382 0
M  V30 8325 N 811.477 -1.49425 0.500989 0
M  V30 8326 C 812.725 -2.02053 -0.0434495 0
M  V30 8327 C 813.046 -1.38285 -1.37486 0
M  V30 8328 O 812.316 -0.538171 -1.88363 0
M  V30 8329 H 810.896 -0.746757 -0.0190469 0
M  V30 8330 H 813.558 -1.83449 0.658227 0
M  V30 8331 H 812.654 -3.11619 -0.173129 0
M  V30 8332 N 812.955 -0.234822 -1.55841 0
M  V30 8333 C 813.865 0.680828 -2.24504 0
M  V30 8334 C 814.881 1.20306 -1.25708 0
M  V30 8335 O 816.057 1.24188 -1.58554 0
M  V30 8336 C 813.122 1.86636 -2.92178 0
M  V30 8337 C 812.183 1.3848 -4.06352 0
M  V30 8338 C 811.416 2.51382 -4.70789 0
M  V30 8339 O 811.639 3.69831 -4.34259 0
M  V30 8340 O 810.573 2.21828 -5.59532 0
M  V30 8341 H 814.399 0.12583 -3.03439 0
M  V30 8342 H 811.984 -0.00381817 -1.494 0
M  V30 8343 H 813.866 2.55845 -3.34845 0
M  V30 8344 H 812.541 2.40921 -2.16192 0
M  V30 8345 H 811.448 0.660341 -3.68226 0
M  V30 8346 H 812.781 0.888177 -4.8412 0
M  V30 8347 N 814.433 1.57553 0.0384317 0
M  V30 8348 C 815.679 1.89121 0.732199 0
M  V30 8349 C 816.012 0.831404 1.75503 0
M  V30 8350 O 815.287 -0.154642 1.93884 0
M  V30 8351 C 815.57 3.31338 1.41021 0
M  V30 8352 C 815.423 4.48004 0.401532 0
M  V30 8353 C 816.742 3.72318 2.34665 0
M  V30 8354 H 813.861 0.687819 0.264715 0
M  V30 8355 H 816.503 1.89999 -0.00496279 0
M  V30 8356 H 814.653 3.3072 2.03854 0
M  V30 8357 H 816.325 4.60755 -0.224159 0
M  V30 8358 H 814.568 4.32895 -0.280092 0
M  V30 8359 H 815.239 5.44377 0.91423 0
M  V30 8360 H 817.715 3.74243 1.81883 0
M  V30 8361 H 816.591 4.72652 2.7909 0
M  V30 8362 H 816.852 3.04062 3.20934 0
M  V30 8363 N 815.911 -0.310526 1.54511 0
M  V30 8364 C 816.821 -1.4054 1.87844 0
M  V30 8365 C 817.837 -1.55954 0.771635 0
M  V30 8366 O 819.013 -1.70801 1.06719 0
M  V30 8367 C 816.078 -2.75063 2.11048 0
M  V30 8368 C 815.139 -2.68715 3.348 0
M  V30 8369 C 814.372 -3.96821 3.56887 0
M  V30 8370 O 814.595 -4.95721 2.82165 0
M  V30 8371 O 813.529 -3.99291 4.50389 0
M  V30 8372 H 817.355 -1.15275 2.80972 0
M  V30 8373 H 814.94 -0.505732 1.4058 0
M  V30 8374 H 816.822 -3.54671 2.27566 0
M  V30 8375 H 815.497 -3.00191 1.21108 0
M  V30 8376 H 814.404 -1.87611 3.23655 0
M  V30 8377 H 815.737 -2.4854 4.2484 0
M  V30 8378 N 817.389 -1.46805 -0.573248 0
M  V30 8379 C 818.805 -1.31969 -0.897577 0
M  V30 8380 C 819.005 -0.298171 -1.99282 0
M  V30 8381 O 818.061 0.295953 -2.5076 0
M  V30 8382 C 819.374 -2.70859 -1.30598 0
M  V30 8383 C 820.922 -2.79022 -1.4183 0
M  V30 8384 C 821.397 -4.18516 -1.86033 0
M  V30 8385 N 822.888 -4.2098 -1.9321 0
M  V30 8386 C 823.623 -5.25814 -2.28707 0
M  V30 8387 N 823.119 -6.40968 -2.6293 0
M  V30 8388 N 824.912 -5.13184 -2.29343 0
M  V30 8389 H 817.063 -2.11869 0.150094 0
M  V30 8390 H 819.326 -0.947989 0.00447895 0
M  V30 8391 H 819.032 -3.46965 -0.575161 0
M  V30 8392 H 818.906 -3.01585 -2.26554 0
M  V30 8393 H 821.293 -2.03198 -2.13996 0
M  V30 8394 H 821.374 -2.51969 -0.441024 0
M  V30 8395 H 821.018 -4.94839 -1.14442 0
M  V30 8396 H 820.948 -4.42982 -2.84735 0
M  V30 8397 H 823.439 -3.37898 -1.69214 0
M  V30 8398 H 823.752 -7.16729 -2.88996 0
M  V30 8399 H 822.097 -6.44314 -2.60547 0
M  V30 8400 H 825.288 -4.22255 -2.02036 0
M  V30 8401 H 825.461 -5.94996 -2.56679 0
M  V30 8402 N 818.867 0.818669 -1.34668 0
M  V30 8403 C 819.797 1.94468 -1.29245 0
M  V30 8404 C 820.778 1.69257 -0.169101 0
M  V30 8405 O 821.963 1.90794 -0.362143 0
M  V30 8406 C 819.093 3.31001 -1.05145 0
M  V30 8407 C 818.047 3.70663 -2.13992 0
M  V30 8408 C 817.373 5.05226 -1.75074 0
M  V30 8409 C 818.673 3.82312 -3.55858 0
M  V30 8410 H 820.367 1.99263 -2.2346 0
M  V30 8411 H 817.913 0.957304 -1.07572 0
M  V30 8412 H 819.866 4.09364 -0.999949 0
M  V30 8413 H 818.59 3.26517 -0.0737312 0
M  V30 8414 H 817.249 2.94578 -2.18219 0
M  V30 8415 H 816.897 4.97233 -0.759518 0
M  V30 8416 H 816.597 5.32734 -2.47928 0
M  V30 8417 H 818.121 5.86042 -1.71427 0
M  V30 8418 H 819.535 4.50935 -3.5402 0
M  V30 8419 H 817.932 4.21278 -4.2737 0
M  V30 8420 H 819.002 2.84193 -3.9289 0
M  V30 8421 N 820.346 1.18468 1.03938 0
M  V30 8422 C 821.595 0.975193 1.76558 0
M  V30 8423 C 821.908 -0.495978 1.89207 0
M  V30 8424 O 823.114 -0.824009 2.58694 0
M  V30 8425 C 821.57 1.69579 3.17444 0
M  V30 8426 C 821.178 3.20636 3.12884 0
M  V30 8427 C 822.922 1.56917 3.94433 0
M  V30 8428 C 820.829 3.8533 4.48636 0
M  V30 8429 H 819.759 0.361244 0.66183 0
M  V30 8430 H 822.41 1.41854 1.16403 0
M  V30 8431 H 820.792 1.18022 3.78004 0
M  V30 8432 H 821.966 3.79228 2.61768 0
M  V30 8433 H 820.281 3.33454 2.49394 0
M  V30 8434 H 822.878 2.02611 4.94826 0
M  V30 8435 H 823.221 0.521638 4.13019 0
M  V30 8436 H 823.754 2.05762 3.40451 0
M  V30 8437 H 820.493 4.90136 4.35255 0
M  V30 8438 H 820.013 3.31526 4.99851 0
M  V30 8439 H 821.692 3.88269 5.17549 0
M  V30 8440 N 821.824 -1.22873 0.986916 0
M  V30 8441 C 823.072 -1.91084 0.658121 0
M  V30 8442 C 823.393 -1.77304 -0.811675 0
M  V30 8443 O 822.663 -1.15649 -1.58121 0
M  V30 8444 H 821.243 -0.707251 0.240427 0
M  V30 8445 H 823.905 -1.49357 1.25213 0
M  V30 8446 H 823.001 -2.98373 0.915428 0
M  V30 8447 N 823.302 -0.75937 -1.38099 0
M  V30 8448 C 824.252 -0.111098 -2.27729 0
M  V30 8449 C 825.236 0.687161 -1.45489 0
M  V30 8450 O 826.428 0.552167 -1.68167 0
M  V30 8451 C 823.557 0.776809 -3.34396 0
M  V30 8452 C 822.643 -0.0286108 -4.2409 0
M  V30 8453 N 823.034 -1.06797 -4.94397 0
M  V30 8454 C 821.332 0.197307 -4.45563 0
M  V30 8455 C 822.033 -1.55576 -5.6051 0
M  V30 8456 N 821.009 -0.870059 -5.36592 0
M  V30 8457 H 824.811 -0.907047 -2.79553 0
M  V30 8458 H 822.325 -0.595954 -1.5107 0
M  V30 8459 H 824.322 1.25691 -3.97502 0
M  V30 8460 H 822.982 1.57164 -2.84129 0
M  V30 8461 H 823.993 -1.44988 -4.97191 0
M  V30 8462 H 820.67 0.965028 -4.06194 0
M  V30 8463 H 822.06 -2.42184 -6.26735 0
M  V30 8464 N 824.78 1.49157 -0.508906 0
M  V30 8465 C 826.191 1.86593 -0.0630975 0
M  V30 8466 C 826.542 1.42051 1.35337 0
M  V30 8467 O 825.667 0.801866 2.00995 0
M  V30 8468 C 826.262 3.38629 -0.107729 0
M  V30 8469 C 824.821 3.75336 0.282776 0
M  V30 8470 C 823.968 2.7317 -0.4768 0
M  V30 8471 H 826.919 1.41362 -0.72128 0
M  V30 8472 H 826.94 3.74271 0.685689 0
M  V30 8473 H 826.452 3.71017 -1.13876 0
M  V30 8474 H 824.553 3.48558 1.31675 0
M  V30 8475 H 824.666 4.79081 -0.0421728 0
M  V30 8476 H 823.03 2.54591 0.0743552 0
M  V30 8477 H 823.813 3.08403 -1.50807 0
M  V30 8478 N 826.258 0.243083 1.55714 0
M  V30 8479 C 827.188 -0.652336 2.24203 0
M  V30 8480 C 828.169 -1.1843 1.221 0
M  V30 8481 O 829.354 -1.22435 1.50743 0
M  V30 8482 C 826.484 -1.85111 2.93856 0
M  V30 8483 C 825.438 -1.45208 4.02615 0
M  V30 8484 C 824.764 -2.73137 4.59674 0
M  V30 8485 C 826.064 -0.625988 5.18535 0
M  V30 8486 H 827.758 -0.0812504 2.9929 0
M  V30 8487 H 825.304 -0.0376388 1.43951 0
M  V30 8488 H 827.257 -2.48314 3.40468 0
M  V30 8489 H 825.981 -2.44751 2.16251 0
M  V30 8490 H 824.64 -0.843406 3.56766 0
M  V30 8491 H 824.288 -3.30967 3.78774 0
M  V30 8492 H 823.988 -2.47163 5.33089 0
M  V30 8493 H 825.512 -3.37245 5.09017 0
M  V30 8494 H 826.926 -1.16223 5.61396 0
M  V30 8495 H 825.323 -0.462465 5.98315 0
M  V30 8496 H 826.393 0.362652 4.83542 0
M  V30 8497 N 827.736 -1.57571 -0.0300757 0
M  V30 8498 C 829.147 -1.77567 -0.576802 0
M  V30 8499 C 829.498 -0.874034 -1.75656 0
M  V30 8500 O 828.623 -0.0686124 -2.16291 0
M  V30 8501 C 829.218 -3.22016 -1.05315 0
M  V30 8502 C 827.777 -3.43212 -1.5454 0
M  V30 8503 C 826.924 -2.73061 -0.483033 0
M  V30 8504 H 829.875 -1.57483 0.196151 0
M  V30 8505 H 829.896 -3.28474 -1.92055 0
M  V30 8506 H 829.408 -3.87613 -0.194298 0
M  V30 8507 H 827.509 -2.82788 -2.42615 0
M  V30 8508 H 827.622 -4.5182 -1.5936 0
M  V30 8509 H 825.986 -2.36805 -0.937835 0
M  V30 8510 H 826.769 -3.4134 0.366341 0
M  V30 8511 N 829.214 0.302327 -1.54673 0
M  V30 8512 C 830.144 1.37759 -1.88533 0
M  V30 8513 C 831.125 1.52961 -0.744113 0
M  V30 8514 O 832.31 1.6649 -0.999731 0
M  V30 8515 C 829.44 2.74201 -2.13146 0
M  V30 8516 C 828.394 2.73765 -3.28993 0
M  V30 8517 C 827.72 4.13483 -3.39022 0
M  V30 8518 C 829.02 2.35624 -4.66132 0
M  V30 8519 H 830.714 1.0967 -2.78591 0
M  V30 8520 H 828.26 0.52613 -1.34044 0
M  V30 8521 H 830.213 3.49508 -2.35419 0
M  V30 8522 H 828.937 3.03812 -1.19858 0
M  V30 8523 H 827.596 2.00914 -3.06642 0
M  V30 8524 H 827.244 4.40269 -2.43253 0
M  V30 8525 H 826.944 4.14093 -4.16894 0
M  V30 8526 H 828.468 4.90572 -3.63553 0
M  V30 8527 H 829.882 3.00647 -4.88143 0
M  V30 8528 H 828.279 2.47449 -5.46707 0
M  V30 8529 H 829.349 1.30753 -4.66939 0
M  V30 8530 N 830.692 1.47107 0.565454 0
M  V30 8531 C 832.108 1.32443 0.890566 0
M  V30 8532 C 832.308 0.308735 1.99121 0
M  V30 8533 O 831.364 -0.28265 2.50913 0
M  V30 8534 C 832.677 2.71548 1.2916 0
M  V30 8535 C 834.225 2.7977 1.40349 0
M  V30 8536 C 834.7 4.19497 1.83811 0
M  V30 8537 N 836.191 4.21998 1.90975 0
M  V30 8538 C 836.926 5.2702 2.25916 0
M  V30 8539 N 836.422 6.42353 2.59527 0
M  V30 8540 N 838.215 5.14393 2.26619 0
M  V30 8541 H 830.366 2.11786 -0.161328 0
M  V30 8542 H 832.629 0.947952 -0.00950631 0
M  V30 8543 H 832.335 3.47265 0.556753 0
M  V30 8544 H 832.209 3.02782 2.24951 0
M  V30 8545 H 834.596 2.0433 2.12916 0
M  V30 8546 H 834.677 2.522 0.427655 0
M  V30 8547 H 834.321 4.95439 1.11816 0
M  V30 8548 H 834.251 4.44486 2.82382 0
M  V30 8549 H 836.742 3.38791 1.6742 0
M  V30 8550 H 837.055 7.18252 2.85191 0
M  V30 8551 H 835.4 6.45687 2.57126 0
M  V30 8552 H 838.591 4.2332 1.99794 0
M  V30 8553 H 838.764 5.96349 2.5352 0
M  V30 8554 N 832.17 -0.811516 1.35101 0
M  V30 8555 C 833.1 -1.9378 1.30275 0
M  V30 8556 C 834.081 -1.69165 0.178075 0
M  V30 8557 O 835.266 -1.90599 0.372256 0
M  V30 8558 C 832.396 -3.30439 1.06899 0
M  V30 8559 C 831.35 -3.69523 2.15955 0
M  V30 8560 C 830.676 -5.0429 1.77751 0
M  V30 8561 C 831.976 -3.80419 3.57881 0
M  V30 8562 H 833.67 -1.98075 2.24514 0
M  V30 8563 H 831.216 -0.951586 1.08078 0
M  V30 8564 H 833.169 -4.08828 1.02164 0
M  V30 8565 H 831.893 -3.26473 0.0910462 0
M  V30 8566 H 830.552 -2.93416 2.19778 0
M  V30 8567 H 830.2 -4.96823 0.785876 0
M  V30 8568 H 829.9 -5.31411 2.5075 0
M  V30 8569 H 831.424 -5.85125 1.74533 0
M  V30 8570 H 832.838 -4.49051 3.56407 0
M  V30 8571 H 831.235 -4.19005 4.29598 0
M  V30 8572 H 832.305 -2.82105 3.94391 0
M  V30 8573 N 833.648 -1.19017 -1.03309 0
M  V30 8574 C 834.925 -0.899659 -1.73682 0
M  V30 8575 C 835.305 0.595677 -2.02521 0
M  V30 8576 O 834.653 1.55263 -1.67648 0
M  V30 8577 C 834.863 -1.75508 -3.01659 0
M  V30 8578 C 836.211 -1.98679 -3.75249 0
M  V30 8579 O 837.235 -1.72624 -3.11576 0
M  V30 8580 O 836.094 -2.42587 -4.89708 0
M  V30 8581 H 833.188 -0.334903 -0.756154 0
M  V30 8582 H 835.734 -1.29809 -1.09305 0
M  V30 8583 H 834.506 -2.7684 -2.76542 0
M  V30 8584 H 834.129 -1.35565 -3.73775 0
M  V30 8585 N 835.127 1.22348 -0.993418 0
M  V30 8586 C 836.09 2.22522 -0.549251 0
M  V30 8587 C 837.09 1.56529 0.368164 0
M  V30 8588 O 838.28 1.73463 0.16005 0
M  V30 8589 C 835.412 3.40307 0.201037 0
M  V30 8590 H 836.605 2.63332 -1.43515 0
M  V30 8591 H 834.158 1.35407 -0.78068 0
M  V30 8592 H 834.893 3.0497 1.10289 0
M  V30 8593 H 834.678 3.8942 -0.457685 0
M  V30 8594 H 836.168 4.14597 0.499946 0
M  V30 8595 N 836.605 0.766683 1.37694 0
M  V30 8596 C 837.854 0.325425 1.99057 0
M  V30 8597 C 838.167 -1.10275 1.61551 0
M  V30 8598 O 839.373 -1.64513 2.1598 0
M  V30 8599 C 837.829 0.530886 3.55963 0
M  V30 8600 C 837.437 1.96899 4.02411 0
M  V30 8601 C 839.181 0.152997 4.24224 0
M  V30 8602 C 837.088 2.12232 5.52007 0
M  V30 8603 H 836.018 0.117929 0.744721 0
M  V30 8604 H 838.669 0.945091 1.5729 0
M  V30 8605 H 837.051 -0.158162 3.95684 0
M  V30 8606 H 838.225 2.69258 3.73948 0
M  V30 8607 H 836.54 2.303 3.46916 0
M  V30 8608 H 839.137 0.24614 5.34133 0
M  V30 8609 H 839.48 -0.896096 4.06541 0
M  V30 8610 H 840.013 0.794398 3.89787 0
M  V30 8611 H 836.752 3.15442 5.7461 0
M  V30 8612 H 836.272 1.4435 5.82171 0
M  V30 8613 H 837.951 1.9185 6.17902 0
M  V30 8614 N 838.083 -1.48885 0.516809 0
M  V30 8615 C 839.311 -2.06892 -0.0184017 0
M  V30 8616 C 839.726 -1.37511 -1.29368 0
M  V30 8617 O 839.083 -0.458409 -1.76649 0
M  V30 8618 C 839.134 -3.60566 -0.259673 0
M  V30 8619 O 838.855 -4.27338 0.965065 0
M  V30 8620 C 840.356 -4.35331 -0.836751 0
M  V30 8621 H 837.576 -0.670433 0.0275743 0
M  V30 8622 H 840.12 -1.91455 0.718689 0
M  V30 8623 H 838.275 -3.75653 -0.94678 0
M  V30 8624 H 838.689 -5.19287 0.737647 0
M  V30 8625 H 840.163 -5.43675 -0.955065 0
M  V30 8626 H 840.64 -3.9887 -1.83845 0
M  V30 8627 H 841.246 -4.2489 -0.186622 0
M  V30 8628 N 839.561 -0.251338 -1.55583 0
M  V30 8629 C 840.809 0.371434 -1.98657 0
M  V30 8630 C 841.13 1.58143 -1.14087 0
M  V30 8631 O 840.4 1.94607 -0.224708 0
M  V30 8632 H 838.98 0.140225 -0.733721 0
M  V30 8633 H 841.642 -0.351157 -1.9171 0
M  V30 8634 H 840.738 0.677554 -3.04657 0
M  V30 8635 N 841.039 1.57585 0.0217189 0
M  V30 8636 C 842.45 1.7787 0.567377 0
M  V30 8637 C 842.801 0.883337 1.7519 0
M  V30 8638 O 841.926 0.0800819 2.16252 0
M  V30 8639 C 842.521 3.2257 1.03606 0
M  V30 8640 C 841.08 3.44026 1.52718 0
M  V30 8641 C 840.227 2.73313 0.468545 0
M  V30 8642 H 843.178 1.57377 -0.2045 0
M  V30 8643 H 843.199 3.29488 1.9031 0
M  V30 8644 H 842.711 3.87711 0.173739 0
M  V30 8645 H 840.812 2.8407 2.41111 0
M  V30 8646 H 840.925 4.52659 1.56962 0
M  V30 8647 H 839.289 2.37299 0.925263 0
M  V30 8648 H 840.072 3.41141 -0.384438 0
M  V30 8649 N 842.517 -0.29412 1.54831 0
M  V30 8650 C 843.427 -1.3854 1.89325 0
M  V30 8651 C 844.443 -1.55127 0.788133 0
M  V30 8652 O 845.619 -1.6966 1.08524 0
M  V30 8653 C 842.684 -2.72809 2.13954 0
M  V30 8654 C 841.745 -2.65148 3.37631 0
M  V30 8655 C 840.978 -3.93014 3.61076 0
M  V30 8656 O 841.201 -4.927 2.87406 0
M  V30 8657 O 840.135 -3.94491 4.54599 0
M  V30 8658 H 843.961 -1.12289 2.82179 0
M  V30 8659 H 841.546 -0.490793 1.41108 0
M  V30 8660 H 843.428 -3.52238 2.31315 0
M  V30 8661 H 842.103 -2.9889 1.24285 0
M  V30 8662 H 841.01 -1.84168 3.25627 0
M  V30 8663 H 842.343 -2.4402 4.27452 0
M  V30 8664 N 843.995 -1.47404 -0.557645 0
M  V30 8665 C 844.905 -1.62491 -1.69216 0
M  V30 8666 C 845.921 -0.507764 -1.66426 0
M  V30 8667 O 847.097 -0.775241 -1.85882 0
M  V30 8668 C 844.162 -1.63511 -3.05721 0
M  V30 8669 C 843.223 -2.86648 -3.1958 0
M  V30 8670 C 842.456 -2.87609 -4.49574 0
M  V30 8671 O 842.679 -1.97799 -5.35006 0
M  V30 8672 O 841.613 -3.79465 -4.67215 0
M  V30 8673 H 845.439 -2.58487 -1.59431 0
M  V30 8674 H 843.024 -1.30485 -0.7276 0
M  V30 8675 H 844.906 -1.66863 -3.86956 0
M  V30 8676 H 843.581 -0.706812 -3.15889 0
M  V30 8677 H 842.488 -2.8884 -2.37744 0
M  V30 8678 H 843.821 -3.7877 -3.14316 0
M  V30 8679 N 845.473 0.80434 -1.35529 0
M  V30 8680 C 846.383 1.94784 -1.30753 0
M  V30 8681 C 847.399 1.72703 -0.212071 0
M  V30 8682 O 848.575 1.96494 -0.441841 0
M  V30 8683 C 845.64 3.29406 -1.08133 0
M  V30 8684 C 844.701 3.64367 -2.27013 0
M  V30 8685 C 843.934 4.92566 -2.05463 0
M  V30 8686 O 844.157 5.61166 -1.02222 0
M  V30 8687 O 843.091 5.25838 -2.92879 0
M  V30 8688 H 846.917 2.01761 -2.26994 0
M  V30 8689 H 844.502 0.942448 -1.15924 0
M  V30 8690 H 846.384 4.09995 -0.973756 0
M  V30 8691 H 845.059 3.23355 -0.149444 0
M  V30 8692 H 843.966 2.84146 -2.43335 0
M  V30 8693 H 845.299 3.75125 -3.18656 0
M  V30 8694 N 846.951 1.19563 1.02676 0
M  V30 8695 C 848.199 0.997593 1.75763 0
M  V30 8696 C 848.52 -0.47253 1.89188 0
M  V30 8697 O 847.79 -1.34214 1.42701 0
M  V30 8698 H 846.37 0.366128 0.651122 0
M  V30 8699 H 849.032 1.50495 1.23844 0
M  V30 8700 H 848.128 1.44741 2.76508 0
M  V30 8701 N 848.429 -1.21819 0.999893 0
M  V30 8702 C 849.677 -1.90375 0.678351 0
M  V30 8703 C 849.998 -1.78155 -0.792824 0
M  V30 8704 O 849.268 -1.17319 -1.56885 0
M  V30 8705 H 847.848 -0.704661 0.247915 0
M  V30 8706 H 850.51 -1.48021 1.2679 0
M  V30 8707 H 849.606 -2.97385 0.947023 0
M  V30 8708 N 849.908 -0.773975 -1.37286 0
M  V30 8709 C 851.324 -0.45386 -1.53011 0
M  V30 8710 C 851.524 1.03018 -1.73175 0
M  V30 8711 O 850.58 1.81597 -1.75438 0
M  V30 8712 C 851.893 -1.27087 -2.72524 0
M  V30 8713 C 853.441 -1.26299 -2.86387 0
M  V30 8714 C 853.916 -2.0634 -4.08886 0
M  V30 8715 N 855.407 -2.03706 -4.16003 0
M  V30 8716 C 856.142 -2.62418 -5.09828 0
M  V30 8717 N 855.638 -3.29926 -6.09197 0
M  V30 8718 N 857.431 -2.52236 -5.02328 0
M  V30 8719 H 849.582 -1.73551 -1.22449 0
M  V30 8720 H 851.845 -0.736874 -0.596423 0
M  V30 8721 H 851.551 -2.32263 -2.64096 0
M  V30 8722 H 851.425 -0.90157 -3.66267 0
M  V30 8723 H 853.812 -0.219213 -2.94285 0
M  V30 8724 H 853.893 -1.67195 -1.93596 0
M  V30 8725 H 853.537 -3.10741 -4.01749 0
M  V30 8726 H 853.467 -1.62825 -5.00795 0
M  V30 8727 H 855.958 -1.54559 -3.44848 0
M  V30 8728 H 856.271 -3.72095 -6.77322 0
M  V30 8729 H 854.616 -3.34026 -6.09469 0
M  V30 8730 H 857.807 -1.99108 -4.23643 0
M  V30 8731 H 857.98 -2.98286 -5.75265 0
M  V30 8732 N 851.386 1.48609 -0.524698 0
M  V30 8733 C 852.316 2.32366 0.229837 0
M  V30 8734 C 853.297 1.41759 0.940129 0
M  V30 8735 O 854.482 1.7065 0.926936 0
M  V30 8736 C 851.612 3.22835 1.28043 0
M  V30 8737 C 850.566 4.22424 0.688603 0
M  V30 8738 C 849.892 5.0199 1.84146 0
M  V30 8739 C 851.192 5.21217 -0.336176 0
M  V30 8740 H 852.886 2.95698 -0.469339 0
M  V30 8741 H 850.432 1.42197 -0.227156 0
M  V30 8742 H 852.385 3.80253 1.8162 0
M  V30 8743 H 851.109 2.57492 2.00912 0
M  V30 8744 H 849.768 3.66185 0.174402 0
M  V30 8745 H 849.416 4.33076 2.5584 0
M  V30 8746 H 849.116 5.69392 1.45142 0
M  V30 8747 H 850.64 5.62259 2.38111 0
M  V30 8748 H 852.054 5.7319 0.112307 0
M  V30 8749 H 850.451 5.96642 -0.643324 0
M  V30 8750 H 851.521 4.68676 -1.24381 0
M  V30 8751 N 852.864 0.259585 1.55447 0
M  V30 8752 C 853.774 -0.645026 2.25558 0
M  V30 8753 C 854.79 -1.18291 1.27606 0
M  V30 8754 O 855.966 -1.21649 1.6051 0
M  V30 8755 C 853.031 -1.81964 2.9511 0
M  V30 8756 C 852.092 -1.31997 4.08504 0
M  V30 8757 C 851.325 -2.43861 4.74729 0
M  V30 8758 O 851.548 -3.62876 4.40088 0
M  V30 8759 O 850.482 -2.12898 5.6299 0
M  V30 8760 H 854.308 -0.0775399 3.03601 0
M  V30 8761 H 851.893 0.0275859 1.49375 0
M  V30 8762 H 853.775 -2.50485 3.38873 0
M  V30 8763 H 852.45 -2.37451 2.19997 0
M  V30 8764 H 851.357 -0.601676 3.6923 0
M  V30 8765 H 852.69 -0.811045 4.85472 0
M  V30 8766 N 854.342 -1.57594 -0.0133615 0
M  V30 8767 C 855.57 -1.94251 -0.712328 0
M  V30 8768 C 855.985 -0.86063 -1.68043 0
M  V30 8769 O 855.342 0.161632 -1.81783 0
M  V30 8770 C 855.393 -3.30891 -1.45581 0
M  V30 8771 O 855.114 -4.34924 -0.526539 0
M  V30 8772 C 856.615 -3.81926 -2.2505 0
M  V30 8773 H 853.835 -0.640737 -0.199241 0
M  V30 8774 H 856.379 -2.04472 0.0337855 0
M  V30 8775 H 854.534 -3.22019 -2.15366 0
M  V30 8776 H 854.948 -5.1389 -1.04962 0
M  V30 8777 H 856.422 -4.79999 -2.72589 0
M  V30 8778 H 856.899 -3.13934 -3.07152 0
M  V30 8779 H 857.505 -3.93931 -1.60308 0
M  V30 8780 N 855.82 0.285905 -1.54985 0
M  V30 8781 C 857.069 1.01691 -1.74189 0
M  V30 8782 C 857.382 1.87908 -0.543135 0
M  V30 8783 O 858.588 2.64389 -0.617305 0
M  V30 8784 C 857.044 1.85785 -3.0824 0
M  V30 8785 C 856.652 1.04497 -4.35642 0
M  V30 8786 C 858.396 2.58393 -3.36798 0
M  V30 8787 C 856.303 1.87955 -5.60738 0
M  V30 8788 H 855.233 0.383396 -0.649248 0
M  V30 8789 H 857.884 0.27317 -1.81455 0
M  V30 8790 H 856.266 2.64205 -2.94978 0
M  V30 8791 H 857.44 0.305847 -4.59784 0
M  V30 8792 H 855.755 0.434023 -4.14132 0
M  V30 8793 H 858.352 3.21214 -4.27464 0
M  V30 8794 H 858.695 3.28011 -2.56349 0
M  V30 8795 H 859.228 1.87012 -3.511 0
M  V30 8796 H 855.967 1.22781 -6.43898 0
M  V30 8797 H 855.487 2.59499 -5.40759 0
M  V30 8798 H 857.166 2.45636 -5.98558 0
M  V30 8799 N 857.298 1.47698 0.54982 0
M  V30 8800 C 858.228 1.63622 1.66583 0
M  V30 8801 C 859.209 0.485477 1.63025 0
M  V30 8802 O 860.394 0.715692 1.80531 0
M  V30 8803 C 857.524 1.65721 3.05211 0
M  V30 8804 C 856.478 2.80097 3.2362 0
M  V30 8805 C 855.804 2.67272 4.63109 0
M  V30 8806 C 857.104 4.21612 3.08286 0
M  V30 8807 H 858.798 2.57049 1.53512 0
M  V30 8808 H 856.344 1.23705 0.737099 0
M  V30 8809 H 858.297 1.75451 3.83138 0
M  V30 8810 H 857.021 0.688593 3.19258 0
M  V30 8811 H 855.68 2.69889 2.48104 0
M  V30 8812 H 855.328 1.68422 4.73965 0
M  V30 8813 H 855.028 3.44008 4.76374 0
M  V30 8814 H 856.552 2.78942 5.43161 0
M  V30 8815 H 857.966 4.32758 3.76024 0
M  V30 8816 H 856.363 4.99193 3.33057 0
M  V30 8817 H 857.433 4.39462 2.04942 0
M  V30 8818 N 858.776 -0.797141 1.35954 0
M  V30 8819 C 860.024 -1.55161 1.29497 0
M  V30 8820 C 860.345 -1.94582 -0.127659 0
M  V30 8821 O 859.615 -1.64343 -1.06622 0
M  V30 8822 H 858.195 -0.575413 0.47635 0
M  V30 8823 H 860.857 -0.950282 1.70164 0
M  V30 8824 H 859.953 -2.46272 1.9172 0
M  V30 8825 N 860.254 -1.20106 -1.0204 0
M  V30 8826 C 861.5 -1.02042 -1.75951 0
M  V30 8827 C 861.855 0.443229 -1.87225 0
M  V30 8828 O 861.148 1.32477 -1.38421 0
M  V30 8829 C 861.342 -1.63308 -3.17908 0
M  V30 8830 C 861.171 -3.15478 -3.20474 0
M  V30 8831 C 859.941 -3.84432 -3.27933 0
M  V30 8832 C 862.139 -4.12747 -3.06829 0
M  V30 8833 N 860.121 -5.23925 -3.19963 0
M  V30 8834 C 861.492 -5.38892 -3.06586 0
M  V30 8835 C 863.547 -4.03996 -2.91018 0
M  V30 8836 C 862.25 -6.57296 -2.92154 0
M  V30 8837 C 864.276 -5.22019 -2.77938 0
M  V30 8838 C 863.638 -6.47067 -2.78358 0
M  V30 8839 H 859.737 -0.427602 -0.654737 0
M  V30 8840 H 862.321 -1.52216 -1.21402 0
M  V30 8841 H 860.492 -1.15723 -3.7076 0
M  V30 8842 H 862.224 -1.38597 -3.80227 0
M  V30 8843 H 858.979 -3.35269 -3.34502 0
M  V30 8844 H 859.403 -5.9694 -3.19362 0
M  V30 8845 H 864.045 -3.0813 -2.8951 0
M  V30 8846 H 861.763 -7.5334 -2.92412 0
M  V30 8847 H 865.349 -5.17057 -2.66728 0
M  V30 8848 H 864.229 -7.36857 -2.6835 0
M  V30 8849 N 861.732 1.21287 -1.00634 0
M  V30 8850 C 863.143 1.72136 -0.722914 0
M  V30 8851 C 863.494 1.8091 0.759338 0
M  V30 8852 O 862.619 1.46458 1.59308 0
M  V30 8853 C 863.214 3.12633 -1.30561 0
M  V30 8854 C 861.773 3.60833 -1.07127 0
M  V30 8855 C 860.92 2.38326 -1.4176 0
M  V30 8856 H 863.871 1.06445 -1.17708 0
M  V30 8857 H 863.892 3.74174 -0.690937 0
M  V30 8858 H 863.404 3.06215 -2.38441 0
M  V30 8859 H 861.505 3.72599 -0.00968671 0
M  V30 8860 H 861.618 4.46226 -1.74411 0
M  V30 8861 H 859.982 2.40575 -0.836412 0
M  V30 8862 H 860.765 2.34558 -2.50674 0
M  V30 8863 N 863.21 0.781244 1.36873 0
M  V30 8864 C 864.14 0.188128 2.32741 0
M  V30 8865 C 865.121 -0.672326 1.56249 0
M  V30 8866 O 866.306 -0.607835 1.84442 0
M  V30 8867 C 863.436 -0.684341 3.40491 0
M  V30 8868 C 862.39 0.0755641 4.27933 0
M  V30 8869 C 861.716 -0.916968 5.26779 0
M  V30 8870 C 863.016 1.26006 5.06873 0
M  V30 8871 H 864.71 0.989016 2.82593 0
M  V30 8872 H 862.256 0.477038 1.35869 0
M  V30 8873 H 864.209 -1.10915 4.06541 0
M  V30 8874 H 862.933 -1.51785 2.89187 0
M  V30 8875 H 861.592 0.481258 3.63427 0
M  V30 8876 H 861.24 -1.74528 4.71751 0
M  V30 8877 H 860.94 -0.413 5.86147 0
M  V30 8878 H 862.464 -1.34052 5.95703 0
M  V30 8879 H 863.878 0.911425 5.66009 0
M  V30 8880 H 862.275 1.69676 5.75613 0
M  V30 8881 H 863.345 2.05948 4.38991 0
M  V30 8882 N 864.689 -1.48329 0.532571 0
M  V30 8883 C 865.652 -2.2816 -0.218069 0
M  V30 8884 C 866.652 -1.35526 -0.865409 0
M  V30 8885 O 867.842 -1.58394 -0.725061 0
M  V30 8886 C 864.974 -3.1448 -1.31586 0
M  V30 8887 H 866.167 -2.95987 0.482865 0
M  V30 8888 H 863.72 -1.53612 0.288603 0
M  V30 8889 H 864.455 -2.5129 -2.04997 0
M  V30 8890 H 864.24 -3.82625 -0.856779 0
M  V30 8891 H 865.73 -3.74693 -1.84377 0
M  V30 8892 N 866.167 -0.267825 -1.55308 0
M  V30 8893 C 867.077 0.633055 -2.25897 0
M  V30 8894 C 868.093 1.17613 -1.28231 0
M  V30 8895 O 869.269 1.20797 -1.61153 0
M  V30 8896 C 866.334 1.80397 -2.96071 0
M  V30 8897 C 865.395 1.29829 -4.09198 0
M  V30 8898 C 864.628 2.4134 -4.76016 0
M  V30 8899 O 864.851 3.60537 -4.42006 0
M  V30 8900 O 863.785 2.09909 -5.64111 0
M  V30 8901 H 867.611 0.0614381 -3.03638 0
M  V30 8902 H 865.196 -0.0355072 -1.49358 0
M  V30 8903 H 867.078 2.48685 -3.40197 0
M  V30 8904 H 865.753 2.36281 -2.21253 0
M  V30 8905 H 864.66 0.582086 -3.69544 0
M  V30 8906 H 865.993 0.785288 -4.85895 0
M  V30 8907 N 867.645 1.57599 0.00500368 0
M  V30 8908 C 869.061 1.55463 0.361015 0
M  V30 8909 C 869.261 0.997051 1.75103 0
M  V30 8910 O 868.317 0.628661 2.44549 0
M  V30 8911 C 869.63 2.99734 0.240828 0
M  V30 8912 C 871.178 3.11399 0.316138 0
M  V30 8913 C 871.653 4.57446 0.22513 0
M  V30 8914 N 873.144 4.62334 0.283186 0
M  V30 8915 C 873.879 5.72914 0.23603 0
M  V30 8916 N 873.375 6.92659 0.139762 0
M  V30 8917 N 875.168 5.61364 0.287529 0
M  V30 8918 H 867.319 1.92185 -0.904359 0
M  V30 8919 H 869.582 0.882529 -0.34619 0
M  V30 8920 H 869.288 3.44348 -0.715343 0
M  V30 8921 H 869.162 3.63009 1.02491 0
M  V30 8922 H 871.549 2.66718 1.26275 0
M  V30 8923 H 871.63 2.50911 -0.497725 0
M  V30 8924 H 871.274 5.02801 -0.717917 0
M  V30 8925 H 871.204 5.15874 1.05742 0
M  V30 8926 H 873.695 3.7619 0.359123 0
M  V30 8927 H 874.008 7.72722 0.10954 0
M  V30 8928 H 872.353 6.9492 0.105462 0
M  V30 8929 H 875.544 4.66707 0.360897 0
M  V30 8930 H 875.717 6.47528 0.247313 0
M  V30 8931 N 869.123 -0.277682 1.55134 0
M  V30 8932 C 870.351 -1.02826 1.7954 0
M  V30 8933 C 870.766 -1.80105 0.566373 0
M  V30 8934 O 870.123 -1.76491 -0.464448 0
M  V30 8935 C 870.174 -1.99053 3.01762 0
M  V30 8936 O 869.895 -1.24906 4.19917 0
M  V30 8937 C 871.396 -2.85961 3.38735 0
M  V30 8938 H 868.616 -0.303958 0.598206 0
M  V30 8939 H 871.16 -0.309884 2.02138 0
M  V30 8940 H 869.315 -2.66359 2.81303 0
M  V30 8941 H 869.729 -1.89725 4.88983 0
M  V30 8942 H 871.203 -3.49286 4.27438 0
M  V30 8943 H 871.68 -3.55486 2.57928 0
M  V30 8944 H 872.286 -2.24152 3.61436 0
M  V30 8945 N 870.601 -1.47988 -0.541979 0
M  V30 8946 C 871.847 -1.55623 -1.30036 0
M  V30 8947 C 872.18 -0.224254 -1.92901 0
M  V30 8948 O 871.455 0.768629 -1.78668 0
M  V30 8949 C 871.738 -2.68562 -2.39888 0
M  V30 8950 C 871.591 -4.11426 -1.81792 0
M  V30 8951 C 872.91 -2.77325 -3.41729 0
M  V30 8952 H 870.029 -0.566498 -0.471433 0
M  V30 8953 H 872.671 -1.8011 -0.604998 0
M  V30 8954 H 870.821 -2.47814 -2.992 0
M  V30 8955 H 872.493 -4.43581 -1.26624 0
M  V30 8956 H 870.736 -4.18989 -1.12386 0
M  V30 8957 H 871.407 -4.8625 -2.61276 0
M  V30 8958 H 873.883 -2.96085 -2.92357 0
M  V30 8959 H 872.759 -3.58097 -4.16002 0
M  V30 8960 H 873.02 -1.84995 -4.01534 0
M  V30 8961 N 872.079 0.78992 -1.36375 0
M  V30 8962 C 873.325 1.55007 -1.3077 0
M  V30 8963 C 873.658 1.93871 0.112979 0
M  V30 8964 O 872.933 1.6267 1.06625 0
M  V30 8965 C 873.216 2.82748 -2.22993 0
M  V30 8966 C 873.069 2.50253 -3.73756 0
M  V30 8967 C 874.388 3.84569 -2.13998 0
M  V30 8968 H 871.507 0.562362 -0.476359 0
M  V30 8969 H 874.149 0.907582 -1.66922 0
M  V30 8970 H 872.299 3.37573 -1.92292 0
M  V30 8971 H 873.971 2.01482 -4.14973 0
M  V30 8972 H 872.214 1.83203 -3.93216 0
M  V30 8973 H 872.885 3.41487 -4.33694 0
M  V30 8974 H 875.361 3.39188 -2.4102 0
M  V30 8975 H 874.237 4.717 -2.80697 0
M  V30 8976 H 874.498 4.27491 -1.12711 0
M  V30 8977 N 873.557 1.20646 1.01402 0
M  V30 8978 C 874.806 1.01242 1.7445 0
M  V30 8979 C 875.119 -0.455732 1.90217 0
M  V30 8980 O 876.325 -0.768951 2.60383 0
M  V30 8981 C 874.781 1.76275 3.13776 0
M  V30 8982 C 874.389 3.27201 3.06013 0
M  V30 8983 C 876.133 1.65248 3.91016 0
M  V30 8984 C 874.04 3.9476 4.40362 0
M  V30 8985 H 872.97 0.375202 0.654018 0
M  V30 8986 H 875.621 1.44292 1.13367 0
M  V30 8987 H 874.003 1.26013 3.75415 0
M  V30 8988 H 875.177 3.84695 2.53665 0
M  V30 8989 H 873.492 3.38669 2.42265 0
M  V30 8990 H 876.089 2.13061 4.90417 0
M  V30 8991 H 876.432 0.609128 4.1182 0
M  V30 8992 H 876.965 2.12937 3.3601 0
M  V30 8993 H 873.704 4.99258 4.24761 0
M  V30 8994 H 873.224 3.42054 4.92706 0
M  V30 8995 H 874.903 3.99159 5.09196 0
M  V30 8996 N 875.035 -1.20752 1.01276 0
M  V30 8997 C 876.446 -1.7175 0.732033 0
M  V30 8998 C 876.797 -1.8131 -0.749733 0
M  V30 8999 O 875.922 -1.47301 -1.58529 0
M  V30 9000 C 876.517 -3.11936 1.32217 0
M  V30 9001 C 875.076 -3.6026 1.09039 0
M  V30 9002 C 874.223 -2.37571 1.43022 0
M  V30 9003 H 877.174 -1.0582 1.1827 0
M  V30 9004 H 877.195 -3.73802 0.710771 0
M  V30 9005 H 876.707 -3.04946 2.40061 0
M  V30 9006 H 874.808 -3.72588 0.0294464 0
M  V30 9007 H 874.921 -4.45295 1.76775 0
M  V30 9008 H 873.285 -2.40128 0.849159 0
M  V30 9009 H 874.068 -2.33225 2.51915 0
M  V30 9010 N 876.513 -0.788492 -1.36457 0
M  V30 9011 C 877.738 -0.371224 -2.04051 0
M  V30 9012 C 878.163 1.004 -1.59064 0
M  V30 9013 O 877.521 1.64663 -0.758679 0
M  V30 9014 C 877.569 -0.442275 -3.57877 0
M  V30 9015 O 876.673 0.55113 -4.08701 0
M  V30 9016 H 876.014 -0.157808 -0.644975 0
M  V30 9017 H 878.544 -1.06935 -1.74431 0
M  V30 9018 H 878.554 -0.305548 -4.06854 0
M  V30 9019 H 877.229 -1.44547 -3.89973 0
M  V30 9020 H 875.806 0.37614 -3.70998 0
M  V30 9021 N 877.991 1.48044 -0.54043 0
M  V30 9022 C 878.954 2.28273 0.205966 0
M  V30 9023 C 879.954 1.35983 0.858209 0
M  V30 9024 O 881.144 1.58776 0.716651 0
M  V30 9025 C 878.276 3.15174 1.29917 0
M  V30 9026 H 879.469 2.95727 -0.498555 0
M  V30 9027 H 877.022 1.53457 -0.296745 0
M  V30 9028 H 877.757 2.52374 2.03661 0
M  V30 9029 H 877.542 3.83074 0.836475 0
M  V30 9030 H 879.032 3.75666 1.82387 0
M  V30 9031 N 879.47 0.276058 1.55163 0
M  V30 9032 C 880.719 -0.341098 1.98795 0
M  V30 9033 C 881.032 -1.56905 1.16791 0
M  V30 9034 O 882.238 -2.25922 1.50571 0
M  V30 9035 C 880.694 -0.658231 3.5383 0
M  V30 9036 C 880.302 0.549972 4.44611 0
M  V30 9037 C 882.046 -1.23796 4.06048 0
M  V30 9038 C 879.953 0.207373 5.91036 0
M  V30 9039 H 878.883 -0.131224 0.742493 0
M  V30 9040 H 881.534 0.380858 1.79504 0
M  V30 9041 H 879.916 -1.43911 3.68925 0
M  V30 9042 H 881.09 1.32681 4.41285 0
M  V30 9043 H 879.405 1.04661 4.03032 0
M  V30 9044 H 882.002 -1.50811 5.12991 0
M  V30 9045 H 882.345 -2.17214 3.55139 0
M  V30 9046 H 882.878 -0.519345 3.94395 0
M  V30 9047 H 879.617 1.10946 6.46043 0
M  V30 9048 H 879.137 -0.532687 5.9743 0
M  V30 9049 H 880.816 -0.200072 6.46691 0
M  V30 9050 N 880.948 -1.576 0.00335426 0
M  V30 9051 C 882.359 -1.7875 -0.539008 0
M  V30 9052 C 882.71 -0.911097 -1.73763 0
M  V30 9053 O 881.835 -0.114476 -2.16097 0
M  V30 9054 C 882.43 -3.24177 -0.984611 0
M  V30 9055 C 880.989 -3.46412 -1.47226 0
M  V30 9056 C 880.136 -2.74024 -0.425004 0
M  V30 9057 H 883.087 -1.57032 0.229511 0
M  V30 9058 H 883.108 -3.32474 -1.85044 0
M  V30 9059 H 882.62 -3.87938 -0.112035 0
M  V30 9060 H 880.721 -2.8787 -2.36562 0
M  V30 9061 H 880.834 -4.55098 -1.49741 0
M  V30 9062 H 879.198 -2.38741 -0.887394 0
M  V30 9063 H 879.981 -3.40486 0.438662 0
M  V30 9064 N 882.426 0.269451 -1.5528 0
M  V30 9065 C 883.654 1.01872 -1.80082 0
M  V30 9066 C 884.069 1.79802 -0.575917 0
M  V30 9067 O 883.426 1.76735 0.455081 0
M  V30 9068 C 883.477 1.9745 -3.02813 0
M  V30 9069 O 883.198 1.22677 -4.20573 0
M  V30 9070 C 884.699 2.8416 -3.40247 0
M  V30 9071 H 881.919 0.300781 -0.59981 0
M  V30 9072 H 884.463 0.29916 -2.023 0
M  V30 9073 H 882.618 2.64864 -2.82712 0
M  V30 9074 H 883.032 1.87129 -4.89982 0
M  V30 9075 H 884.506 3.47014 -4.29284 0
M  V30 9076 H 884.983 3.54113 -2.59809 0
M  V30 9077 H 885.589 2.22232 -3.6262 0
M  V30 9078 N 883.904 1.48273 0.534124 0
M  V30 9079 C 885.181 1.46567 1.29528 0
M  V30 9080 C 885.561 0.17509 2.10373 0
M  V30 9081 O 884.909 -0.843228 2.12372 0
M  V30 9082 C 885.119 2.72519 2.18023 0
M  V30 9083 C 886.467 3.2068 2.78298 0
M  V30 9084 O 887.491 2.73408 2.28313 0
M  V30 9085 O 886.35 4.02924 3.69208 0
M  V30 9086 H 883.444 0.585151 0.584403 0
M  V30 9087 H 885.99 1.60502 0.551119 0
M  V30 9088 H 884.762 3.57965 1.5804 0
M  V30 9089 H 884.385 2.61285 2.99693 0
M  V30 9090 N 885.382 -0.782676 1.36792 0
M  V30 9091 C 886.793 -1.35828 1.28092 0
M  V30 9092 C 887.144 -1.96052 -0.076315 0
M  V30 9093 O 886.269 -1.93042 -0.977935 0
M  V30 9094 C 886.864 -2.46949 2.31952 0
M  V30 9095 C 885.423 -3.00307 2.2692 0
M  V30 9096 C 884.57 -1.73436 2.16368 0
M  V30 9097 H 887.521 -0.583788 1.47572 0
M  V30 9098 H 887.542 -3.26144 1.95986 0
M  V30 9099 H 887.054 -2.03087 3.30722 0
M  V30 9100 H 885.155 -3.48571 1.31639 0
M  V30 9101 H 885.268 -3.56663 3.19887 0
M  V30 9102 H 883.632 -1.95934 1.62733 0
M  V30 9103 H 884.415 -1.31693 3.17036 0
M  V30 9104 N 886.86 -1.21182 -1.00761 0
M  V30 9105 C 888.276 -0.968607 -1.26847 0
M  V30 9106 C 888.476 0.346561 -1.98497 0
M  V30 9107 O 887.532 1.07287 -2.28573 0
M  V30 9108 C 888.845 -2.1574 -2.09467 0
M  V30 9109 C 890.393 -2.19937 -2.22703 0
M  V30 9110 C 890.868 -3.38328 -3.08704 0
M  V30 9111 N 892.359 -3.38398 -3.16293 0
M  V30 9112 C 893.094 -4.26653 -3.83086 0
M  V30 9113 N 892.59 -5.25101 -4.5193 0
M  V30 9114 N 894.383 -4.14469 -3.797 0
M  V30 9115 H 886.534 -2.05763 -0.526816 0
M  V30 9116 H 888.797 -0.90087 -0.29519 0
M  V30 9117 H 888.503 -3.11034 -1.64167 0
M  V30 9118 H 888.377 -2.14584 -3.10216 0
M  V30 9119 H 890.764 -1.25201 -2.67224 0
M  V30 9120 H 890.845 -2.25139 -1.21433 0
M  V30 9121 H 890.489 -4.33356 -2.64886 0
M  V30 9122 H 890.419 -3.30364 -4.10082 0
M  V30 9123 H 892.91 -2.67149 -2.67282 0
M  V30 9124 H 893.223 -5.8875 -5.00592 0
M  V30 9125 H 891.568 -5.29029 -4.50726 0
M  V30 9126 H 894.759 -3.3682 -3.25069 0
M  V30 9127 H 894.932 -4.83458 -4.31477 0
M  V30 9128 N 888.338 1.20213 -1.01915 0
M  V30 9129 C 889.286 2.25125 -0.584936 0
M  V30 9130 C 890.28 1.65138 0.377602 0
M  V30 9131 O 891.486 1.78294 0.247245 0
M  V30 9132 H 887.861 0.732333 -0.170858 0
M  V30 9133 H 889.832 2.59075 -1.48063 0
M  V30 9134 C 888.581 3.47651 0.058389 0
M  V30 9135 H 887.904 3.9409 -0.673263 0
M  V30 9136 H 889.344 4.2275 0.325285 0
M  V30 9137 C 887.803 3.10725 1.30199 0
M  V30 9138 O 888.333 3.22491 2.39505 0
M  V30 9139 N 886.539 2.6525 1.18706 0
M  V30 9140 H 886.086 2.55875 0.297618 0
M  V30 9141 H 886.044 2.40913 2.02011 0
M  V30 9142 N 889.816 0.795718 1.36037 0
M  V30 9143 C 891.062 0.371574 1.99367 0
M  V30 9144 C 891.395 -1.0557 1.62999 0
M  V30 9145 O 890.67 -1.73051 0.887895 0
M  V30 9146 C 890.953 0.542622 3.55988 0
M  V30 9147 C 890.806 2.01404 4.0219 0
M  V30 9148 C 892.125 -0.0384527 4.40083 0
M  V30 9149 H 889.244 0.136483 0.724252 0
M  V30 9150 H 891.886 1.00323 1.61355 0
M  V30 9151 H 890.036 0.0049053 3.885 0
M  V30 9152 H 891.708 2.6133 3.80137 0
M  V30 9153 H 889.951 2.51439 3.53498 0
M  V30 9154 H 890.622 2.08466 5.11122 0
M  V30 9155 H 893.098 0.420634 4.13968 0
M  V30 9156 H 891.974 0.111214 5.48787 0
M  V30 9157 H 892.235 -1.13116 4.27384 0
M  V30 9158 N 891.294 -1.47756 0.548274 0
M  V30 9159 C 892.542 -2.02089 0.0208542 0
M  V30 9160 C 892.863 -1.42589 -1.33017 0
M  V30 9161 O 892.133 -0.597825 -1.86555 0
M  V30 9162 H 890.713 -0.746985 0.00472023 0
M  V30 9163 H 893.375 -1.81262 0.716257 0
M  V30 9164 H 892.471 -3.12012 -0.0739016 0
M  V30 9165 N 892.772 -0.284283 -1.55015 0
M  V30 9166 C 894.02 0.329212 -1.99401 0
M  V30 9167 C 894.341 1.55687 -1.17416 0
M  V30 9168 O 893.611 1.94087 -0.265937 0
M  V30 9169 H 892.191 0.12463 -0.73653 0
M  V30 9170 H 894.853 -0.391743 -1.90922 0
M  V30 9171 H 893.949 0.61278 -3.06025 0
M  V30 9172 N 894.251 1.57596 -0.0117121 0
M  V30 9173 C 895.528 1.82323 0.708356 0
M  V30 9174 C 895.908 0.891947 1.91331 0
M  V30 9175 O 895.256 -0.0565984 2.2843 0
M  V30 9176 C 895.466 3.31111 1.10303 0
M  V30 9177 C 896.814 3.97147 1.50199 0
M  V30 9178 O 897.838 3.35503 1.1965 0
M  V30 9179 O 896.697 5.0576 2.07049 0
M  V30 9180 H 893.791 0.751173 0.345931 0
M  V30 9181 H 896.337 1.69657 -0.0380632 0
M  V30 9182 H 895.109 3.90534 0.24467 0
M  V30 9183 H 894.732 3.48818 1.90818 0
M  V30 9184 N 895.729 -0.261212 1.5542 0
M  V30 9185 C 896.659 -1.32712 1.92119 0
M  V30 9186 C 897.64 -1.50934 0.784406 0
M  V30 9187 O 898.825 -1.63781 1.04352 0
M  V30 9188 C 895.955 -2.68453 2.20341 0
M  V30 9189 C 894.909 -2.64947 3.36136 0
M  V30 9190 C 894.235 -4.04349 3.49865 0
M  V30 9191 C 895.535 -2.23182 4.72215 0
M  V30 9192 H 897.229 -1.02245 2.81401 0
M  V30 9193 H 894.775 -0.490406 1.35392 0
M  V30 9194 H 896.728 -3.43144 2.44603 0
M  V30 9195 H 895.452 -3.00527 1.27871 0
M  V30 9196 H 894.111 -1.92714 3.11861 0
M  V30 9197 H 893.759 -4.33665 2.5484 0
M  V30 9198 H 893.459 -4.02895 4.27726 0
M  V30 9199 H 894.983 -4.80761 3.76432 0
M  V30 9200 H 896.397 -2.87599 4.95943 0
M  V30 9201 H 894.794 -2.32867 5.53076 0
M  V30 9202 H 895.864 -1.18327 4.70241 0
M  V30 9203 N 897.207 -1.48554 -0.526253 0
M  V30 9204 C 898.484 -1.47252 -1.28748 0
M  V30 9205 C 898.864 -0.186245 -2.10277 0
M  V30 9206 O 898.212 0.831954 -2.12816 0
M  V30 9207 C 898.422 -2.73672 -2.16575 0
M  V30 9208 C 899.77 -3.22151 -2.76593 0
M  V30 9209 O 900.794 -2.74614 -2.2686 0
M  V30 9210 O 899.653 -4.04877 -3.67066 0
M  V30 9211 H 896.747 -0.588242 -0.581292 0
M  V30 9212 H 899.293 -1.60792 -0.5426 0
M  V30 9213 H 898.065 -3.58798 -1.56139 0
M  V30 9214 H 897.688 -2.6287 -2.98304 0
M  V30 9215 N 898.685 0.775411 -1.37205 0
M  V30 9216 C 900.096 1.35147 -1.28811 0
M  V30 9217 C 900.447 1.96089 0.0659168 0
M  V30 9218 O 899.572 1.93558 0.967684 0
M  V30 9219 C 900.167 2.45715 -2.33258 0
M  V30 9220 C 898.726 2.99099 -2.2851 0
M  V30 9221 C 897.873 1.72286 -2.17285 0
M  V30 9222 H 900.824 0.575954 -1.4788 0
M  V30 9223 H 900.845 3.251 -1.97712 0
M  V30 9224 H 900.357 2.01331 -3.31795 0
M  V30 9225 H 898.458 3.47868 -1.33485 0
M  V30 9226 H 898.571 3.54962 -3.21774 0
M  V30 9227 H 896.935 1.95068 -1.6377 0
M  V30 9228 H 897.718 1.3001 -3.1773 0
M  V30 9229 N 900.163 1.21714 1.00117 0
M  V30 9230 C 901.388 1.06357 1.78054 0
M  V30 9231 C 901.813 -0.382075 1.84179 0
M  V30 9232 O 901.171 -1.27575 1.28819 0
M  V30 9233 C 901.219 1.66982 3.19608 0
M  V30 9234 O 900.323 0.917892 4.02055 0
M  V30 9235 H 899.664 0.374074 0.548602 0
M  V30 9236 H 902.194 1.61338 1.25822 0
M  V30 9237 H 902.204 1.71363 3.70268 0
M  V30 9238 H 900.879 2.72185 3.14465 0
M  V30 9239 H 899.456 0.949473 3.6061 0
M  V30 9240 N 901.641 -1.19671 1.02551 0
M  V30 9241 C 902.866 -1.93774 0.739363 0
M  V30 9242 C 903.291 -1.74787 -0.695064 0
M  V30 9243 O 902.649 -1.04796 -1.47944 0
M  V30 9244 C 902.697 -3.43684 1.09149 0
M  V30 9245 O 901.801 -4.11874 0.208213 0
M  V30 9246 H 901.142 -0.605064 0.273484 0
M  V30 9247 H 903.672 -1.51846 1.37128 0
M  V30 9248 H 903.682 -3.94339 1.04695 0
M  V30 9249 H 902.357 -3.56826 2.13654 0
M  V30 9250 H 900.934 -3.716 0.311045 0
M  V30 9251 N 903.119 -0.802921 -1.35613 0
M  V30 9252 C 904.368 -0.378087 -1.98125 0
M  V30 9253 C 904.681 1.05953 -1.64418 0
M  V30 9254 O 905.887 1.58729 -2.20266 0
M  V30 9255 C 904.343 -0.625077 -3.5443 0
M  V30 9256 C 903.951 -2.07499 -3.97049 0
M  V30 9257 C 905.695 -0.265419 -4.23669 0
M  V30 9258 C 903.602 -2.26793 -5.46186 0
M  V30 9259 H 902.532 -0.137633 -0.741332 0
M  V30 9260 H 905.183 -0.986461 -1.54729 0
M  V30 9261 H 903.565 0.0531975 -3.95964 0
M  V30 9262 H 904.739 -2.79077 -3.66678 0
M  V30 9263 H 903.054 -2.39417 -3.40688 0
M  V30 9264 H 905.651 -0.387669 -5.33293 0
M  V30 9265 H 905.994 0.787994 -4.08774 0
M  V30 9266 H 906.527 -0.897464 -3.87544 0
M  V30 9267 H 903.266 -3.30566 -5.66045 0
M  V30 9268 H 902.786 -1.59735 -5.78139 0
M  V30 9269 H 904.465 -2.08165 -6.12598 0
M  V30 9270 N 904.597 1.47463 -0.556102 0
M  V30 9271 C 906.008 1.86298 -0.122429 0
M  V30 9272 C 906.359 1.46285 1.30749 0
M  V30 9273 O 905.484 0.865405 1.98342 0
M  V30 9274 C 906.079 3.38115 -0.215407 0
M  V30 9275 C 904.638 3.76046 0.163223 0
M  V30 9276 C 903.785 2.71515 -0.563466 0
M  V30 9277 H 906.736 1.38996 -0.765888 0
M  V30 9278 H 906.757 3.76263 0.566271 0
M  V30 9279 H 906.269 3.67207 -1.25622 0
M  V30 9280 H 904.37 3.5257 1.20519 0
M  V30 9281 H 904.483 4.78705 -0.194568 0
M  V30 9282 H 902.847 2.54699 -0.00667879 0
M  V30 9283 H 903.63 3.03449 -1.60542 0
M  V30 9284 N 906.075 0.2925 1.54862 0
M  V30 9285 C 907.352 -0.371946 1.92031 0
M  V30 9286 C 907.732 -1.72363 1.21878 0
M  V30 9287 O 907.08 -2.25779 0.351573 0
M  V30 9288 C 907.29 -0.495027 3.45471 0
M  V30 9289 C 908.638 -0.769855 4.17562 0
M  V30 9290 O 909.662 -0.579168 3.5146 0
M  V30 9291 O 908.521 -1.13561 5.34571 0
M  V30 9292 H 905.615 -0.206463 0.800813 0
M  V30 9293 H 908.161 0.339933 1.6626 0
M  V30 9294 H 906.933 0.455528 3.88639 0
M  V30 9295 H 906.556 -1.2557 3.7725 0
M  V30 9296 N 907.553 -1.57587 0.0200696 0
M  V30 9297 C 908.5 -2.09667 -0.964791 0
M  V30 9298 C 909.47 -0.99664 -1.32877 0
M  V30 9299 O 910.655 -1.2703 -1.42366 0
M  V30 9300 C 907.795 -2.62101 -2.24493 0
M  V30 9301 C 906.908 -3.8608 -1.93821 0
M  V30 9302 C 906.043 -4.26939 -3.16064 0
M  V30 9303 C 905.082 -5.43701 -2.81169 0
M  V30 9304 N 904.219 -5.79759 -3.9601 0
M  V30 9305 H 909.059 -2.93538 -0.513751 0
M  V30 9306 H 906.596 -1.45096 -0.242 0
M  V30 9307 H 908.554 -2.90587 -2.99358 0
M  V30 9308 H 907.184 -1.81074 -2.6723 0
M  V30 9309 H 906.236 -3.64378 -1.09237 0
M  V30 9310 H 907.548 -4.71028 -1.64115 0
M  V30 9311 H 906.702 -4.56814 -3.99257 0
M  V30 9312 H 905.441 -3.40739 -3.48924 0
M  V30 9313 H 904.446 -5.13529 -1.96387 0
M  V30 9314 H 905.671 -6.31593 -2.49535 0
M  V30 9315 H 903.617 -4.96516 -4.28729 0
M  V30 9316 H 903.534 -6.59327 -3.69896 0
M  V30 9317 H 904.802 -6.14235 -4.79933 0
M  V30 9318 N 909.032 0.252966 -1.55557 0
M  V30 9319 C 909.942 1.33472 -1.92931 0
M  V30 9320 C 910.958 1.52983 -0.828985 0
M  V30 9321 O 912.134 1.66723 -1.12984 0
M  V30 9322 C 909.199 2.6704 -2.21112 0
M  V30 9323 C 908.26 2.56103 -3.44542 0
M  V30 9324 C 907.493 3.83302 -3.71369 0
M  V30 9325 O 907.716 4.84907 -3.00368 0
M  V30 9326 O 906.65 3.823 -4.64898 0
M  V30 9327 H 910.476 1.04768 -2.85057 0
M  V30 9328 H 908.061 0.453208 -1.4236 0
M  V30 9329 H 909.943 3.45981 -2.40572 0
M  V30 9330 H 908.618 2.95489 -1.32166 0
M  V30 9331 H 907.525 1.7547 -3.30396 0
M  V30 9332 H 908.858 2.32601 -4.33772 0
M  V30 9333 N 910.51 1.48831 0.518367 0
M  V30 9334 C 911.442 1.60317 1.63802 0
M  V30 9335 C 912.455 0.486771 1.55352 0
M  V30 9336 O 913.644 0.758111 1.61601 0
M  V30 9337 C 910.744 1.52771 3.02513 0
M  V30 9338 C 909.917 2.79649 3.36326 0
M  V30 9339 C 908.976 2.65396 4.54369 0
M  V30 9340 O 908.002 3.39304 4.57013 0
M  V30 9341 N 909.204 1.75784 5.53245 0
M  V30 9342 H 911.969 2.56878 1.54383 0
M  V30 9343 H 909.53 1.45701 0.705889 0
M  V30 9344 H 911.522 1.40914 3.79375 0
M  V30 9345 H 910.092 0.641381 3.05949 0
M  V30 9346 H 909.312 3.05985 2.48529 0
M  V30 9347 H 910.6 3.63799 3.55707 0
M  V30 9348 H 909.998 1.14961 5.53896 0
M  V30 9349 H 908.555 1.69859 6.29278 0
M  V30 9350 N 911.988 -0.768124 1.37614 0
M  V30 9351 C 912.951 -1.86314 1.3349 0
M  V30 9352 C 913.951 -1.59025 0.23823 0
M  V30 9353 O 915.141 -1.6704 0.494288 0
M  V30 9354 C 912.273 -3.23519 1.07462 0
M  V30 9355 H 913.466 -1.91382 2.30896 0
M  V30 9356 H 911.019 -0.968267 1.22696 0
M  V30 9357 H 911.754 -3.24127 0.106028 0
M  V30 9358 H 911.539 -3.44719 1.86846 0
M  V30 9359 H 913.029 -4.03597 1.07236 0
M  V30 9360 N 913.466 -1.22244 -0.994698 0
M  V30 9361 C 914.715 -1.04005 -1.72817 0
M  V30 9362 C 915.028 0.425413 -1.90918 0
M  V30 9363 O 916.234 0.727429 -2.61574 0
M  V30 9364 C 914.69 -1.81244 -3.10932 0
M  V30 9365 C 914.298 -3.32028 -3.00768 0
M  V30 9366 C 916.042 -1.71448 -3.88337 0
M  V30 9367 C 913.949 -4.01716 -4.34026 0
M  V30 9368 H 912.879 -0.385559 -0.647966 0
M  V30 9369 H 915.53 -1.46077 -1.11058 0
M  V30 9370 H 913.912 -1.3197 -3.73363 0
M  V30 9371 H 915.086 -3.88682 -2.47513 0
M  V30 9372 H 913.401 -3.4248 -2.36846 0
M  V30 9373 H 915.998 -2.20836 -4.86965 0
M  V30 9374 H 916.341 -0.674568 -4.10798 0
M  V30 9375 H 916.874 -2.18256 -3.3258 0
M  V30 9376 H 913.613 -5.05952 -4.16765 0
M  V30 9377 H 913.133 -3.49849 -4.87202 0
M  V30 9378 H 914.812 -4.0721 -5.02782 0
M  V30 9379 N 914.944 1.19125 -1.03184 0
M  V30 9380 C 916.169 1.93379 -0.749628 0
M  V30 9381 C 916.594 1.75153 0.685785 0
M  V30 9382 O 915.952 1.05579 1.47386 0
M  V30 9383 C 916 3.43101 -1.1097 0
M  V30 9384 O 915.104 4.11758 -0.230053 0
M  V30 9385 H 914.445 0.603605 -0.276689 0
M  V30 9386 H 916.975 1.51116 -1.37931 0
M  V30 9387 H 916.985 3.93778 -1.06785 0
M  V30 9388 H 915.66 3.55688 -2.15544 0
M  V30 9389 H 914.237 3.7143 -0.330748 0
M  V30 9390 N 916.422 0.810101 1.35185 0
M  V30 9391 C 917.385 0.22852 2.28058 0
M  V30 9392 C 918.385 -0.586168 1.49735 0
M  V30 9393 O 919.575 -0.40414 1.69447 0
M  V30 9394 C 916.707 -0.681041 3.34028 0
M  V30 9395 H 917.9 1.04768 2.81005 0
M  V30 9396 H 915.453 0.58101 1.451 0
M  V30 9397 H 916.188 -1.52375 2.86273 0
M  V30 9398 H 915.973 -0.0985276 3.91976 0
M  V30 9399 H 917.463 -1.08217 4.03335 0
M  V30 9400 N 917.9 -1.47166 0.563914 0
M  V30 9401 C 918.83 -2.32894 -0.168148 0
M  V30 9402 C 919.811 -1.44202 -0.902214 0
M  V30 9403 O 920.996 -1.73048 -0.881365 0
M  V30 9404 C 918.126 -3.26116 -1.19439 0
M  V30 9405 C 917.08 -4.24101 -0.576363 0
M  V30 9406 C 916.406 -5.06696 -1.70772 0
M  V30 9407 C 917.706 -5.20142 0.47425 0
M  V30 9408 H 919.4 -2.9435 0.547573 0
M  V30 9409 H 916.946 -1.41545 0.264778 0
M  V30 9410 H 918.899 -3.84935 -1.71474 0
M  V30 9411 H 917.623 -2.62728 -1.94014 0
M  V30 9412 H 916.282 -3.66519 -0.0772534 0
M  V30 9413 H 915.93 -4.39707 -2.44268 0
M  V30 9414 H 915.63 -5.7304 -1.29994 0
M  V30 9415 H 917.154 -5.68375 -2.2312 0
M  V30 9416 H 918.568 -5.73286 0.0397035 0
M  V30 9417 H 916.965 -5.94726 0.801287 0
M  V30 9418 H 918.035 -4.65214 1.36764 0
M  V30 9419 N 919.378 -0.300708 -1.54705 0
M  V30 9420 C 920.789 0.191995 -1.8571 0
M  V30 9421 C 921.14 1.53447 -1.22264 0
M  V30 9422 O 920.265 2.10054 -0.520226 0
M  V30 9423 C 920.86 0.355148 -3.36933 0
M  V30 9424 C 919.419 0.792071 -3.67972 0
M  V30 9425 C 918.566 -0.099756 -2.77121 0
M  V30 9426 H 921.517 -0.521729 -1.49879 0
M  V30 9427 H 921.538 1.18977 -3.61421 0
M  V30 9428 H 921.05 -0.622075 -3.83082 0
M  V30 9429 H 919.151 1.77986 -3.27341 0
M  V30 9430 H 919.264 0.611661 -4.75179 0
M  V30 9431 H 917.628 0.420909 -2.51198 0
M  V30 9432 H 918.411 -1.07333 -3.2609 0
M  V30 9433 N 920.856 1.57574 -0.0284266 0
M  V30 9434 C 922.133 1.83064 0.688979 0
M  V30 9435 C 922.513 0.91219 1.90374 0
M  V30 9436 O 921.861 -0.0323672 2.28477 0
M  V30 9437 C 922.071 3.32262 1.06785 0
M  V30 9438 C 923.419 3.98717 1.45978 0
M  V30 9439 O 924.443 3.36753 1.16085 0
M  V30 9440 O 923.302 5.07927 2.01673 0
M  V30 9441 H 920.396 0.7548 0.337944 0
M  V30 9442 H 922.942 1.69607 -0.0560555 0
M  V30 9443 H 921.714 3.90772 0.203235 0
M  V30 9444 H 921.337 3.50823 1.87107 0
M  V30 9445 N 922.334 -0.244713 1.55689 0
M  V30 9446 C 923.564 -0.988508 1.81417 0
M  V30 9447 C 923.972 -1.79362 0.602143 0
M  V30 9448 O 923.315 -1.78386 -0.438639 0
M  V30 9449 C 923.377 -1.97287 3.0053 0
M  V30 9450 C 923.041 -1.35448 4.36466 0
M  V30 9451 C 924.038 -0.755874 5.14376 0
M  V30 9452 C 921.723 -1.37319 4.83165 0
M  V30 9453 C 923.717 -0.184218 6.37134 0
M  V30 9454 C 921.404 -0.797681 6.05871 0
M  V30 9455 C 922.402 -0.204224 6.82695 0
M  V30 9456 O 922.09 0.362392 8.03083 0
M  V30 9457 H 921.822 -0.296412 0.607549 0
M  V30 9458 H 924.376 -0.272185 2.03589 0
M  V30 9459 H 922.606 -2.72756 2.74119 0
M  V30 9460 H 924.295 -2.58028 3.13331 0
M  V30 9461 H 925.061 -0.733912 4.79415 0
M  V30 9462 H 920.94 -1.8245 4.23359 0
M  V30 9463 H 924.484 0.279624 6.97039 0
M  V30 9464 H 920.381 -0.816978 6.40309 0
M  V30 9465 H 921.149 0.254467 8.18104 0
M  V30 9466 N 923.813 -1.49104 -0.510467 0
M  V30 9467 C 924.776 -1.64569 -1.59529 0
M  V30 9468 C 925.776 -0.517937 -1.5223 0
M  V30 9469 O 926.966 -0.784183 -1.55551 0
M  V30 9470 C 924.098 -1.6342 -2.99177 0
M  V30 9471 H 925.291 -2.61318 -1.4715 0
M  V30 9472 H 922.844 -1.37993 -0.734001 0
M  V30 9473 H 923.579 -0.68221 -3.17043 0
M  V30 9474 H 923.364 -2.45312 -3.05883 0
M  V30 9475 H 924.854 -1.77474 -3.78011 0
M  V30 9476 N 925.291 0.760815 -1.38019 0
M  V30 9477 C 926.516 1.55513 -1.37224 0
M  V30 9478 C 926.941 1.88062 0.037611 0
M  V30 9479 O 926.299 1.50042 1.0177 0
M  V30 9480 C 926.347 2.83539 -2.22796 0
M  V30 9481 O 925.451 3.78384 -1.64009 0
M  V30 9482 H 924.792 0.470642 -0.468393 0
M  V30 9483 H 927.322 0.940792 -1.81687 0
M  V30 9484 H 927.332 3.32535 -2.36399 0
M  V30 9485 H 926.007 2.59178 -3.25269 0
M  V30 9486 H 924.584 3.37063 -1.59508 0
M  V30 9487 N 926.769 1.22769 0.988202 0
M  V30 9488 C 927.701 0.959757 2.08138 0
M  V30 9489 C 928.714 -0.0633787 1.62677 0
M  V30 9490 O 929.903 0.171203 1.77677 0
M  V30 9491 C 927.003 0.422724 3.36253 0
M  V30 9492 C 926.176 1.50419 4.10722 0
M  V30 9493 C 925.235 0.973407 5.17118 0
M  V30 9494 O 924.261 1.66066 5.44436 0
M  V30 9495 N 925.463 -0.202787 5.80146 0
M  V30 9496 H 928.228 1.9009 2.31702 0
M  V30 9497 H 925.789 1.13522 1.15431 0
M  V30 9498 H 927.781 0.0528514 4.04665 0
M  V30 9499 H 926.351 -0.423642 3.09716 0
M  V30 9500 H 925.571 2.04718 3.36874 0
M  V30 9501 H 926.859 2.23169 4.57245 0
M  V30 9502 H 926.257 -0.777856 5.60327 0
M  V30 9503 H 924.814 -0.513998 6.4977 0
M  V30 9504 N 928.247 -1.18576 1.03814 0
M  V30 9505 C 929.658 -1.70159 0.768299 0
M  V30 9506 C 930.009 -1.8286 -0.711106 0
M  V30 9507 O 929.134 -1.5063 -1.55369 0
M  V30 9508 C 929.729 -3.09062 1.38804 0
M  V30 9509 C 928.288 -3.57866 1.16656 0
M  V30 9510 C 927.435 -2.34484 1.48029 0
M  V30 9511 H 930.386 -1.03287 1.20488 0
M  V30 9512 H 930.407 -3.72211 0.7899 0
M  V30 9513 H 929.919 -2.99785 2.46476 0
M  V30 9514 H 928.02 -3.72442 0.108471 0
M  V30 9515 H 928.133 -4.41445 1.8618 0
M  V30 9516 H 926.497 -2.38273 0.899902 0
M  V30 9517 H 927.28 -2.27829 2.56805 0
M  V30 9518 N 929.725 -0.817259 -1.34754 0
M  V30 9519 C 930.973 -0.401852 -1.98065 0
M  V30 9520 C 931.294 1.03718 -1.65129 0
M  V30 9521 O 930.564 1.71921 -0.939141 0
M  V30 9522 H 929.144 -0.145603 -0.732672 0
M  V30 9523 H 931.806 -1.04545 -1.64488 0
M  V30 9524 H 930.902 -0.516241 -3.07801 0
M  V30 9525 N 931.203 1.46865 -0.571711 0
M  V30 9526 C 932.15 2.30189 0.167808 0
M  V30 9527 C 933.12 1.3995 0.89461 0
M  V30 9528 O 934.305 1.68905 0.887451 0
M  V30 9529 C 931.445 3.24205 1.1826 0
M  V30 9530 C 930.558 4.2954 0.460376 0
M  V30 9531 C 929.693 5.10693 1.46173 0
M  V30 9532 C 928.732 6.07788 0.725291 0
M  V30 9533 N 927.869 6.81847 1.67417 0
M  V30 9534 H 932.709 2.92902 -0.548831 0
M  V30 9535 H 930.246 1.44362 -0.282474 0
M  V30 9536 H 932.204 3.77147 1.7837 0
M  V30 9537 H 930.834 2.63324 1.86709 0
M  V30 9538 H 929.886 3.79541 -0.255546 0
M  V30 9539 H 931.198 4.98665 -0.115855 0
M  V30 9540 H 930.352 5.67857 2.13595 0
M  V30 9541 H 929.091 4.41502 2.07188 0
M  V30 9542 H 928.096 5.49787 0.037228 0
M  V30 9543 H 929.321 6.78993 0.120678 0
M  V30 9544 H 927.267 6.15376 2.27263 0
M  V30 9545 H 927.184 7.47195 1.15046 0
M  V30 9546 H 928.452 7.43577 2.33908 0
M  V30 9547 N 932.681 0.308908 1.54543 0
M  V30 9548 C 934.092 -0.182144 1.85809 0
M  V30 9549 C 934.443 -1.52796 1.23076 0
M  V30 9550 O 933.568 -2.09775 0.531358 0
M  V30 9551 C 934.163 -0.337275 3.37117 0
M  V30 9552 C 932.722 -0.772545 3.68387 0
M  V30 9553 C 931.869 0.114451 2.77064 0
M  V30 9554 H 934.82 0.529671 1.496 0
M  V30 9555 H 934.841 -1.17058 3.62046 0
M  V30 9556 H 934.353 0.642382 3.82747 0
M  V30 9557 H 932.454 -1.76247 3.2828 0
M  V30 9558 H 932.567 -0.586453 4.75497 0
M  V30 9559 H 930.931 -0.407581 2.51418 0
M  V30 9560 H 931.714 1.09061 3.25516 0
M  V30 9561 N 934.159 -1.57557 0.0367827 0
M  V30 9562 C 935.57 -1.79853 -0.500971 0
M  V30 9563 C 935.921 -0.947749 -1.71791 0
M  V30 9564 O 935.046 -0.160287 -2.15806 0
M  V30 9565 C 935.641 -3.26193 -0.915626 0
M  V30 9566 C 934.2 -3.49457 -1.39845 0
M  V30 9567 C 933.347 -2.74864 -0.366784 0
M  V30 9568 H 936.298 -1.56509 0.262768 0
M  V30 9569 H 936.319 -3.36324 -1.7795 0
M  V30 9570 H 935.831 -3.88089 -0.0297227 0
M  V30 9571 H 933.932 -2.92823 -2.30402 0
M  V30 9572 H 934.045 -4.58172 -1.40054 0
M  V30 9573 H 932.409 -2.4057 -0.836554 0
M  V30 9574 H 933.192 -3.39479 0.510785 0
M  V30 9575 N 935.637 0.236453 -1.55816 0
M  V30 9576 C 937.053 0.585465 -1.48474 0
M  V30 9577 C 937.253 1.8785 -0.72902 0
M  V30 9578 O 936.309 2.51131 -0.262614 0
M  V30 9579 C 937.622 0.678506 -2.92945 0
M  V30 9580 C 939.17 0.770135 -3.03378 0
M  V30 9581 C 939.645 0.894649 -4.49177 0
M  V30 9582 N 941.136 0.959253 -4.53158 0
M  V30 9583 C 941.871 1.07505 -5.63232 0
M  V30 9584 N 941.367 1.15572 -6.83092 0
M  V30 9585 N 943.16 1.10902 -5.51051 0
M  V30 9586 H 935.311 -0.612241 -2.03385 0
M  V30 9587 H 937.574 -0.212796 -0.923808 0
M  V30 9588 H 937.28 -0.201757 -3.51121 0
M  V30 9589 H 937.154 1.54703 -3.44016 0
M  V30 9590 H 939.541 1.64085 -2.45276 0
M  V30 9591 H 939.622 -0.123753 -2.555 0
M  V30 9592 H 939.266 0.0284537 -5.07892 0
M  V30 9593 H 939.196 1.80373 -4.94745 0
M  V30 9594 H 941.687 0.907827 -3.66834 0
M  V30 9595 H 942 1.24343 -7.62731 0
M  V30 9596 H 940.345 1.12511 -6.85833 0
M  V30 9597 H 943.536 1.04255 -4.56343 0
M  V30 9598 H 943.709 1.19581 -6.36871 0
M  V30 9599 N 937.115 1.49373 0.502552 0
M  V30 9600 C 938.025 1.68659 1.63068 0
M  V30 9601 C 939.041 0.569182 1.64427 0
M  V30 9602 O 940.217 0.843695 1.82876 0
M  V30 9603 C 937.282 1.74745 2.99441 0
M  V30 9604 C 936.343 2.98311 3.08721 0
M  V30 9605 C 935.576 3.04097 4.38589 0
M  V30 9606 O 935.799 2.17519 5.27297 0
M  V30 9607 O 934.733 3.96544 4.52809 0
M  V30 9608 H 938.559 2.64226 1.49727 0
M  V30 9609 H 936.144 1.33096 0.67867 0
M  V30 9610 H 938.026 1.8111 3.80496 0
M  V30 9611 H 936.701 0.823565 3.13048 0
M  V30 9612 H 935.608 2.97465 2.2686 0
M  V30 9613 H 936.941 3.90174 3.00041 0
M  V30 9614 N 938.594 -0.753485 1.38421 0
M  V30 9615 C 939.871 -1.50318 1.25155 0
M  V30 9616 C 940.251 -2.10588 -0.147003 0
M  V30 9617 O 939.599 -1.97071 -1.15651 0
M  V30 9618 C 939.809 -2.56946 2.36177 0
M  V30 9619 C 941.157 -3.23846 2.74607 0
M  V30 9620 O 942.181 -2.67251 2.3549 0
M  V30 9621 O 941.04 -4.2621 3.42064 0
M  V30 9622 H 938.134 -0.666624 0.48943 0
M  V30 9623 H 940.68 -0.788887 1.50249 0
M  V30 9624 H 939.452 -2.1066 3.29754 0
M  V30 9625 H 939.075 -3.35956 2.12648 0
M  V30 9626 N 940.072 -1.23292 -0.981677 0
M  V30 9627 C 941.002 -1.03738 -2.09191 0
M  V30 9628 C 941.983 0.0453041 -1.7004 0
M  V30 9629 O 943.168 -0.119092 -1.93834 0
M  V30 9630 C 940.298 -0.626426 -3.41604 0
M  V30 9631 C 939.252 -1.65631 -3.94652 0
M  V30 9632 C 938.578 -1.10084 -5.23245 0
M  V30 9633 C 939.878 -3.04903 -4.24066 0
M  V30 9634 H 941.572 -1.966 -2.25807 0
M  V30 9635 H 939.118 -0.946656 -1.0851 0
M  V30 9636 H 941.071 -0.476689 -4.18695 0
M  V30 9637 H 939.795 0.337873 -3.24848 0
M  V30 9638 H 938.454 -1.79402 -3.19704 0
M  V30 9639 H 938.102 -0.127562 -5.02838 0
M  V30 9640 H 937.802 -1.78896 -5.59705 0
M  V30 9641 H 939.326 -0.962928 -6.02959 0
M  V30 9642 H 940.74 -2.94441 -4.91912 0
M  V30 9643 H 939.137 -3.70941 -4.71724 0
M  V30 9644 H 940.207 -3.53991 -3.31389 0
M  V30 9645 N 941.55 1.18024 -1.04442 0
M  V30 9646 C 942.497 2.21785 -0.638759 0
M  V30 9647 C 943.467 1.62255 0.355312 0
M  V30 9648 O 944.652 1.89176 0.24844 0
M  V30 9649 C 941.792 3.45098 -0.0118002 0
M  V30 9650 C 940.905 4.1895 -1.05379 0
M  V30 9651 C 940.04 5.2973 -0.394951 0
M  V30 9652 C 939.079 5.95359 -1.42178 0
M  V30 9653 N 938.216 6.97668 -0.787635 0
M  V30 9654 H 943.056 2.55839 -1.52808 0
M  V30 9655 H 940.593 1.25681 -0.764378 0
M  V30 9656 H 942.551 4.15564 0.369075 0
M  V30 9657 H 941.181 3.11652 0.84102 0
M  V30 9658 H 940.233 3.47274 -1.55258 0
M  V30 9659 H 941.545 4.63877 -1.83355 0
M  V30 9660 H 940.699 6.06687 0.0399244 0
M  V30 9661 H 939.438 4.85915 0.416867 0
M  V30 9662 H 938.443 5.17139 -1.86675 0
M  V30 9663 H 939.668 6.41255 -2.23536 0
M  V30 9664 H 937.614 6.56 0.00380893 0
M  V30 9665 H 937.531 7.40867 -1.50505 0
M  V30 9666 H 938.799 7.78586 -0.377282 0
M  V30 9667 O 943.067 0.959562 1.29903 0
M  V30 9668 H 943.758 0.594984 1.84336 0
M  V30 END ATOM
M  V30 BEGIN BOND
M  V30 END BOND
M  V30 END CTAB
M  END
$$$$
