drugbank_target|P17980 26S protease regulatory subunit 6A (DB12695)
 OpenBabel12092121073D

  0  0  0     0  0            999 V3000
M  V30 BEGIN CTAB
M  V30 COUNTS 6961 7006 0 0 0
M  V30 BEGIN ATOM
M  V30 1 H -0.908 1.98254 -0.117106 0
M  V30 2 N 0 1.576 0 0
M  V30 3 C 0.933 2.03868 1.02534 0
M  V30 4 C 1.911 0.928543 1.3348 0
M  V30 5 O 3.095 1.19667 1.45644 0
M  V30 6 C 0.222 2.43627 2.35294 0
M  V30 7 C -0.732 3.65373 2.2001 0
M  V30 8 S 0.101 5.13292 1.52614 0
M  V30 9 C 1.257 5.56322 2.86805 0
M  V30 10 H 1.49 2.90518 0.631377 0
M  V30 11 H -0.977 1.52953 0.210867 0
M  V30 12 H 0.981 2.67203 3.11629 0
M  V30 13 H -0.358 1.57376 2.7183 0
M  V30 14 H -1.165 3.90944 3.18086 0
M  V30 15 H -1.563 3.418 1.51819 0
M  V30 16 H 0.729 5.58782 3.83104 0
M  V30 17 H 1.672 6.56266 2.65933 0
M  V30 18 H 2.08 4.83886 2.90714 0
M  V30 19 N 1.4781 -0.272755 1.55222 0
M  V30 20 C 2.4261 -1.35705 1.88909 0
M  V30 21 C 3.4201 -1.5112 0.765456 0
M  V30 22 O 4.6261 -1.52901 0.949802 0
M  V30 23 H 1.0011 -0.453868 0.59959 0
M  V30 24 H 2.9721 -1.04544 2.79487 0
M  V30 25 C 1.7211 -2.71049 2.17779 0
M  V30 26 H 1.0441 -2.59979 3.03728 0
M  V30 27 H 2.4841 -3.45858 2.45272 0
M  V30 28 C 0.9431 -3.22165 0.985473 0
M  V30 29 O 1.4731 -4.01096 0.220233 0
M  V30 30 N -0.3209 -2.7985 0.783108 0
M  V30 31 H -0.7739 -2.15775 1.40708 0
M  V30 32 H -0.8159 -3.14397 -0.0130392 0
M  V30 33 N 2.9562 -1.48159 -0.537278 0
M  V30 34 C 3.8862 -1.65029 -1.6519 0
M  V30 35 C 4.8672 -0.499281 -1.62607 0
M  V30 36 O 6.0522 -0.730972 -1.79918 0
M  V30 37 C 3.1822 -1.68303 -3.03795 0
M  V30 38 C 2.1362 -2.8283 -3.21234 0
M  V30 39 C 1.4622 -2.71189 -4.60826 0
M  V30 40 C 2.7622 -4.24211 -3.04701 0
M  V30 41 H 4.4562 -2.58341 -1.51328 0
M  V30 42 H 2.0022 -1.24325 -0.726585 0
M  V30 43 H 3.9552 -1.78693 -3.81637 0
M  V30 44 H 2.6792 -0.715635 -3.18663 0
M  V30 45 H 1.3382 -2.71983 -2.45807 0
M  V30 46 H 0.9862 -1.72435 -4.7252 0
M  V30 47 H 0.6862 -3.48035 -4.7344 0
M  V30 48 H 2.2102 -2.83537 -5.40777 0
M  V30 49 H 3.6242 -4.3593 -3.72341 0
M  V30 50 H 2.0212 -5.01998 -3.28813 0
M  V30 51 H 3.0912 -4.41184 -2.01209 0
M  V30 52 N 4.4343 0.785586 -1.36625 0
M  V30 53 C 5.3643 1.91259 -1.33949 0
M  V30 54 C 6.3453 1.68795 -0.210325 0
M  V30 55 O 7.5303 1.89854 -0.408561 0
M  V30 56 C 4.6603 3.28339 -1.13186 0
M  V30 57 C 3.6143 3.65335 -2.22967 0
M  V30 58 C 2.9403 5.00806 -1.87342 0
M  V30 59 C 4.2403 3.7352 -3.65075 0
M  V30 60 H 5.9343 1.93755 -2.28253 0
M  V30 61 H 3.4803 0.930788 -1.09874 0
M  V30 62 H 5.4333 4.06804 -1.09948 0
M  V30 63 H 4.1573 3.2624 -0.153332 0
M  V30 64 H 2.8163 2.89169 -2.25337 0
M  V30 65 H 2.4643 4.95233 -0.880545 0
M  V30 66 H 2.1643 5.26529 -2.60846 0
M  V30 67 H 3.6883 5.81687 -1.85667 0
M  V30 68 H 5.1023 4.42168 -3.64911 0
M  V30 69 H 3.4993 4.10731 -4.37516 0
M  V30 70 H 4.5693 2.74527 -3.99703 0
M  V30 71 N 5.9124 1.20967 1.01018 0
M  V30 72 C 7.3234 1.02319 1.56165 0
M  V30 73 C 7.6744 -0.418546 1.91684 0
M  V30 74 O 6.7994 -1.30096 1.72928 0
M  V30 75 C 7.3944 1.85109 2.8376 0
M  V30 76 C 5.9534 1.70809 3.35412 0
M  V30 77 C 5.1004 1.82643 2.08655 0
M  V30 78 H 8.0514 1.35065 0.833255 0
M  V30 79 H 8.0724 1.35827 3.55431 0
M  V30 80 H 7.5844 2.90035 2.57878 0
M  V30 81 H 5.6854 0.685464 3.66241 0
M  V30 82 H 5.7984 2.52467 4.07182 0
M  V30 83 H 4.1624 1.25896 2.21409 0
M  V30 84 H 4.9454 2.89066 1.85191 0
M  V30 85 N 7.3905 -1.2043 1.01659 0
M  V30 86 C 8.3385 -2.25249 0.580143 0
M  V30 87 C 9.3325 -1.65057 -0.381115 0
M  V30 88 O 10.5385 -1.78241 -0.251039 0
M  V30 89 H 6.9135 -0.732695 0.169299 0
M  V30 90 H 8.8845 -2.59389 1.47512 0
M  V30 91 C 7.6335 -3.47638 -0.065788 0
M  V30 92 H 6.9565 -3.94233 0.664874 0
M  V30 93 H 8.3965 -4.2268 -0.334282 0
M  V30 94 C 6.8555 -3.10447 -1.3086 0
M  V30 95 O 7.3855 -3.21981 -2.4019 0
M  V30 96 N 5.5915 -2.64996 -1.1927 0
M  V30 97 H 5.1385 -2.55811 -0.303064 0
M  V30 98 H 5.0965 -2.40482 -2.02523 0
M  V30 99 N 8.8686 -0.792821 -1.36206 0
M  V30 100 C 10.1176 -0.363353 -1.984 0
M  V30 101 C 10.4306 1.07172 -1.63626 0
M  V30 102 O 11.6366 1.60362 -2.19081 0
M  V30 103 C 10.0926 -0.59872 -3.54885 0
M  V30 104 C 9.7006 -2.04543 -3.9858 0
M  V30 105 C 11.4446 -0.233926 -4.23855 0
M  V30 106 C 9.3516 -2.22727 -5.47856 0
M  V30 107 H 8.2816 -0.13212 -0.742334 0
M  V30 108 H 10.9326 -0.974935 -1.55458 0
M  V30 109 H 9.3146 0.0826222 -3.95914 0
M  V30 110 H 10.4886 -2.76345 -3.68741 0
M  V30 111 H 8.8036 -2.36879 -3.42458 0
M  V30 112 H 11.4006 -0.348027 -5.33566 0
M  V30 113 H 11.7436 0.818351 -4.08177 0
M  V30 114 H 12.2766 -0.868639 -3.882 0
M  V30 115 H 9.0156 -3.2635 -5.68486 0
M  V30 116 H 8.5356 -1.55434 -5.7931 0
M  V30 117 H 10.2146 -2.03607 -6.14128 0
M  V30 118 N 10.3467 1.47872 -0.545128 0
M  V30 119 C 11.2567 2.33633 0.212746 0
M  V30 120 C 12.2727 1.4744 0.923983 0
M  V30 121 O 13.4487 1.80393 0.895572 0
M  V30 122 C 10.5137 3.23884 1.23693 0
M  V30 123 C 9.5747 4.25961 0.534417 0
M  V30 124 C 8.8077 5.11899 1.5098 0
M  V30 125 O 9.0307 5.00077 2.7437 0
M  V30 126 O 7.9647 5.92831 1.0409 0
M  V30 127 H 11.7907 2.99714 -0.490416 0
M  V30 128 H 9.3757 1.46235 -0.305871 0
M  V30 129 H 11.2577 3.79666 1.82843 0
M  V30 130 H 9.9327 2.60446 1.92222 0
M  V30 131 H 8.8397 3.73972 -0.0979679 0
M  V30 132 H 10.1727 4.92079 -0.109213 0
M  V30 133 N 11.8248 0.280983 1.55075 0
M  V30 134 C 13.0498 -0.340154 2.04592 0
M  V30 135 C 13.4748 -1.48246 1.15779 0
M  V30 136 O 12.8328 -1.80614 0.15761 0
M  V30 137 C 12.8808 -0.793104 3.5177 0
M  V30 138 O 11.9848 -1.89981 3.66034 0
M  V30 139 H 11.3258 -0.0694289 0.66036 0
M  V30 140 H 13.8558 0.416993 2.00306 0
M  V30 141 H 13.8658 -1.08729 3.93245 0
M  V30 142 H 12.5408 0.0426163 4.15878 0
M  V30 143 H 11.1178 -1.60771 3.36463 0
M  V30 144 N 13.3029 -1.57598 0.00835791 0
M  V30 145 C 14.7139 -1.7892 -0.53333 0
M  V30 146 C 15.0649 -0.916609 -1.73473 0
M  V30 147 O 14.1899 -0.121336 -2.1606 0
M  V30 148 C 14.7849 -3.24488 -0.974313 0
M  V30 149 C 13.3439 -3.46878 -1.46125 0
M  V30 150 C 12.4909 -2.74157 -0.416302 0
M  V30 151 H 15.4419 -1.56958 0.234495 0
M  V30 152 H 15.4629 -3.3306 -1.83988 0
M  V30 153 H 14.9749 -3.87972 -0.099718 0
M  V30 154 H 13.0759 -2.8862 -2.35646 0
M  V30 155 H 13.1889 -4.55572 -1.48295 0
M  V30 156 H 11.5529 -2.39022 -0.87981 0
M  V30 157 H 12.3359 -3.40345 0.44947 0
M  V30 158 N 14.781 0.264519 -1.55364 0
M  V30 159 C 16.027 0.99646 -1.76631 0
M  V30 160 C 16.36 1.85632 -0.570478 0
M  V30 161 O 15.635 1.89647 0.43175 0
M  V30 162 C 15.918 1.87187 -3.07625 0
M  V30 163 C 15.771 1.04138 -4.37579 0
M  V30 164 C 17.09 2.85749 -3.34717 0
M  V30 165 H 14.209 0.360841 -0.642622 0
M  V30 166 H 16.851 0.268218 -1.88097 0
M  V30 167 H 15.001 2.49279 -2.9798 0
M  V30 168 H 16.673 0.440517 -4.59192 0
M  V30 169 H 14.916 0.345115 -4.32425 0
M  V30 170 H 15.587 1.68729 -5.2558 0
M  V30 171 H 18.063 2.33793 -3.4421 0
M  V30 172 H 16.939 3.44136 -4.27623 0
M  V30 173 H 17.2 3.61311 -2.54768 0
M  V30 174 N 16.2591 1.48442 0.529413 0
M  V30 175 C 17.4871 1.60151 1.30994 0
M  V30 176 C 17.9021 0.261985 1.86973 0
M  V30 177 O 17.2591 -0.748805 1.66431 0
M  V30 178 C 17.3101 2.64854 2.46038 0
M  V30 179 O 17.0311 3.93608 1.92365 0
M  V30 180 C 18.5321 2.87007 3.37849 0
M  V30 181 H 15.7521 0.539971 0.398338 0
M  V30 182 H 18.2961 1.94273 0.638597 0
M  V30 183 H 16.4511 2.33589 3.09055 0
M  V30 184 H 16.8651 4.51055 2.67675 0
M  V30 185 H 18.3391 3.64068 4.14919 0
M  V30 186 H 18.8161 1.95852 3.93114 0
M  V30 187 H 19.4221 3.19579 2.80623 0
M  V30 188 N 17.7372 -0.778329 1.37039 0
M  V30 189 C 19.1532 -1.07796 1.17695 0
M  V30 190 C 19.3532 -2.01498 0.00860115 0
M  V30 191 O 18.4092 -2.43901 -0.653352 0
M  V30 192 C 19.7222 -1.68178 2.49272 0
M  V30 193 C 21.2702 -1.80467 2.55735 0
M  V30 194 C 21.7452 -2.44263 3.87427 0
M  V30 195 N 23.2362 -2.51721 3.88833 0
M  V30 196 C 23.9712 -3.01919 4.87476 0
M  V30 197 N 23.4672 -3.5234 5.96513 0
M  V30 198 N 25.2602 -3.00733 4.74885 0
M  V30 199 H 17.4112 -0.156032 2.11826 0
M  V30 200 H 19.6742 -0.131844 0.938787 0
M  V30 201 H 19.3802 -1.06796 3.35093 0
M  V30 202 H 19.2542 -2.67554 2.65885 0
M  V30 203 H 21.6412 -2.40984 1.70325 0
M  V30 204 H 21.7222 -0.798656 2.43013 0
M  V30 205 H 21.3662 -1.84388 4.73248 0
M  V30 206 H 21.2962 -3.45458 3.9745 0
M  V30 207 H 23.7872 -2.1603 3.10063 0
M  V30 208 H 24.1002 -3.89027 6.67741 0
M  V30 209 H 22.4452 -3.50462 6.00168 0
M  V30 210 H 25.6362 -2.60638 3.88826 0
M  V30 211 H 25.8092 -3.39545 5.51918 0
M  V30 212 N 19.2153 -1.21501 -1.00376 0
M  V30 213 C 20.1473 -0.933174 -2.09343 0
M  V30 214 C 21.1603 0.0840896 -1.62583 0
M  V30 215 O 22.3493 -0.148563 -1.77881 0
M  V30 216 C 19.4493 -0.379869 -3.36764 0
M  V30 217 C 18.6223 -1.45176 -4.12605 0
M  V30 218 C 17.6813 -0.907476 -5.18316 0
M  V30 219 O 16.7073 -1.5912 -5.46507 0
M  V30 220 N 17.9093 0.276649 -5.7984 0
M  V30 221 H 20.6743 -1.87124 -2.34104 0
M  V30 222 H 18.2353 -1.12043 -1.16867 0
M  V30 223 H 20.2273 -0.00131488 -4.047 0
M  V30 224 H 18.7973 0.463048 -3.09151 0
M  V30 225 H 18.0173 -2.00411 -3.39454 0
M  V30 226 H 19.3053 -2.17328 -4.6005 0
M  V30 227 H 18.7033 0.849147 -5.59291 0
M  V30 228 H 17.2603 0.596702 -6.49063 0
M  V30 229 N 20.6934 1.19889 -1.02296 0
M  V30 230 C 21.6034 2.26571 -0.608508 0
M  V30 231 C 22.6194 1.70299 0.356964 0
M  V30 232 O 23.7954 2.00235 0.216326 0
M  V30 233 C 20.8604 3.46677 0.0402814 0
M  V30 234 C 19.9214 4.18153 -0.97194 0
M  V30 235 C 19.1544 5.32525 -0.354016 0
M  V30 236 O 19.3774 5.64112 0.844604 0
M  V30 237 O 18.3114 5.92242 -1.07391 0
M  V30 238 H 22.1374 2.64251 -1.49684 0
M  V30 239 H 19.7224 1.26629 -0.792809 0
M  V30 240 H 21.6044 4.19475 0.402324 0
M  V30 241 H 20.2794 3.10858 0.902707 0
M  V30 242 H 19.1864 3.47499 -1.38546 0
M  V30 243 H 20.5194 4.57927 -1.80454 0
M  V30 244 N 22.1715 0.800033 1.35784 0
M  V30 245 C 23.1185 0.203848 2.29898 0
M  V30 246 C 24.0885 -0.658375 1.52495 0
M  V30 247 O 25.2735 -0.604832 1.8096 0
M  V30 248 C 22.4135 -0.64688 3.38983 0
M  V30 249 C 21.5265 0.235054 4.3136 0
M  V30 250 C 20.6615 -0.623054 5.27533 0
M  V30 251 C 19.7005 0.259682 6.11549 0
M  V30 252 N 18.8375 -0.558019 6.99879 0
M  V30 253 H 23.6775 1.01186 2.80295 0
M  V30 254 H 21.2145 0.51053 1.37957 0
M  V30 255 H 23.1725 -1.15521 4.00887 0
M  V30 256 H 21.8025 -1.42021 2.89879 0
M  V30 257 H 20.8545 0.861438 3.70518 0
M  V30 258 H 22.1665 0.914768 4.9034 0
M  V30 259 H 21.3205 -1.19678 5.94779 0
M  V30 260 H 20.0595 -1.33636 4.69034 0
M  V30 261 H 19.0645 0.845726 5.43256 0
M  V30 262 H 20.2895 0.970748 6.72126 0
M  V30 263 H 18.2355 -1.25542 6.43875 0
M  V30 264 H 18.1525 0.0637872 7.55973 0
M  V30 265 H 19.4205 -1.11523 7.71481 0
M  V30 266 N 23.6496 -1.47581 0.552962 0
M  V30 267 C 24.5826 -2.26883 -0.244857 0
M  V30 268 C 25.5606 -1.33784 -0.924147 0
M  V30 269 O 26.7446 -1.6316 -0.943981 0
M  V30 270 C 23.8716 -3.10695 -1.34856 0
M  V30 271 C 22.9176 -4.19339 -0.778268 0
M  V30 272 S 23.7506 -5.34207 0.37184 0
M  V30 273 C 24.9066 -6.21584 -0.733779 0
M  V30 274 H 25.1396 -2.94202 0.428087 0
M  V30 275 H 22.6726 -1.50628 0.339197 0
M  V30 276 H 24.6306 -3.59555 -1.98066 0
M  V30 277 H 23.2916 -2.42746 -1.99332 0
M  V30 278 H 22.4846 -4.77695 -1.60696 0
M  V30 279 H 22.0866 -3.73338 -0.222422 0
M  V30 280 H 24.3786 -6.57676 -1.62692 0
M  V30 281 H 25.3216 -7.07851 -0.187668 0
M  V30 282 H 25.7296 -5.55125 -1.02454 0
M  V30 283 N 25.1277 -0.289203 -1.54924 0
M  V30 284 C 26.0907 0.579144 -2.21762 0
M  V30 285 C 27.0907 1.07047 -1.1999 0
M  V30 286 O 28.2807 0.968384 -1.44803 0
M  V30 287 C 25.4127 1.80055 -2.8947 0
M  V30 288 H 26.6057 -0.00464908 -2.999 0
M  V30 289 H 24.1587 -0.0399306 -1.56249 0
M  V30 290 H 24.8937 2.42449 -2.15381 0
M  V30 291 H 24.6787 1.45602 -3.64064 0
M  V30 292 H 26.1687 2.41773 -3.40493 0
M  V30 293 N 26.6058 1.57591 -0.0167156 0
M  V30 294 C 27.8338 1.95575 0.675128 0
M  V30 295 C 28.2488 0.892542 1.6637 0
M  V30 296 O 27.6058 -0.126912 1.82058 0
M  V30 297 C 27.6568 3.33608 1.39239 0
M  V30 298 O 27.3778 4.3585 0.443444 0
M  V30 299 C 28.8788 3.86151 2.17721 0
M  V30 300 H 26.0988 0.644423 0.186978 0
M  V30 301 H 28.6428 2.0437 -0.0728 0
M  V30 302 H 26.7978 3.2607 2.09182 0
M  V30 303 H 27.2118 5.158 0.951358 0
M  V30 304 H 28.6858 4.85114 2.63379 0
M  V30 305 H 29.1628 3.19738 3.01105 0
M  V30 306 H 29.7688 3.96918 1.52761 0
M  V30 307 N 28.0839 -0.256276 1.55502 0
M  V30 308 C 29.3299 -0.987079 1.77157 0
M  V30 309 C 29.6629 -1.85327 0.580315 0
M  V30 310 O 28.9379 -1.89874 -0.421686 0
M  V30 311 C 29.2209 -1.85553 3.08613 0
M  V30 312 C 29.0739 -1.01816 4.38125 0
M  V30 313 C 30.3929 -2.8397 3.36228 0
M  V30 314 H 27.5119 -0.357428 0.644526 0
M  V30 315 H 30.1539 -0.258239 1.88237 0
M  V30 316 H 28.3039 -2.47695 2.99298 0
M  V30 317 H 29.9759 -0.416159 4.59419 0
M  V30 318 H 28.2189 -0.322178 4.32602 0
M  V30 319 H 28.8899 -1.65939 5.26468 0
M  V30 320 H 31.3659 -2.31964 3.45445 0
M  V30 321 H 30.2419 -3.41864 4.29442 0
M  V30 322 H 30.5029 -3.59955 2.56681 0
M  V30 323 N 29.562 -1.4872 -0.521534 0
M  V30 324 C 30.808 -1.58378 -1.27624 0
M  V30 325 C 31.163 -0.258028 -1.90662 0
M  V30 326 O 30.456 0.739917 -1.76736 0
M  V30 327 C 30.65 -2.66497 -2.38148 0
M  V30 328 C 30.479 -4.09456 -1.85945 0
M  V30 329 C 29.249 -4.76495 -1.68168 0
M  V30 330 C 31.447 -4.95353 -1.3831 0
M  V30 331 N 29.429 -6.0384 -1.1068 0
M  V30 332 C 30.8 -6.13012 -0.928238 0
M  V30 333 C 32.855 -4.81512 -1.26692 0
M  V30 334 C 31.558 -7.18354 -0.368701 0
M  V30 335 C 33.584 -5.86984 -0.721368 0
M  V30 336 C 32.946 -7.03857 -0.276623 0
M  V30 337 H 29.045 -0.634045 -0.457724 0
M  V30 338 H 31.629 -1.85639 -0.587049 0
M  V30 339 H 29.8 -2.41043 -3.04553 0
M  V30 340 H 31.532 -2.65791 -3.05184 0
M  V30 341 H 28.287 -4.32962 -1.91939 0
M  V30 342 H 28.711 -6.71778 -0.839217 0
M  V30 343 H 33.353 -3.91487 -1.5968 0
M  V30 344 H 31.071 -8.08096 -0.0265122 0
M  V30 345 H 34.657 -5.78329 -0.634531 0
M  V30 346 H 33.537 -7.84077 0.138947 0
M  V30 347 N 31.0401 0.771051 -1.3745 0
M  V30 348 C 32.3171 1.519 -1.23231 0
M  V30 349 C 32.6971 2.10383 0.173809 0
M  V30 350 O 32.0451 1.95583 1.18151 0
M  V30 351 C 32.2551 2.59933 -2.32886 0
M  V30 352 C 33.6031 3.27316 -2.70461 0
M  V30 353 O 34.6271 2.70228 -2.32068 0
M  V30 354 O 33.4861 4.30531 -3.36608 0
M  V30 355 H 30.5801 0.672803 -0.480901 0
M  V30 356 H 33.1261 0.807957 -1.49232 0
M  V30 357 H 31.8981 2.14842 -3.27045 0
M  V30 358 H 31.5211 3.38637 -2.08353 0
M  V30 359 N 32.5182 1.22032 0.997298 0
M  V30 360 C 33.4282 1.00271 2.12092 0
M  V30 361 C 34.4442 -0.047621 1.73935 0
M  V30 362 O 35.6202 0.144136 2.00884 0
M  V30 363 C 32.6852 0.578449 3.4184 0
M  V30 364 C 31.7462 1.70189 3.94125 0
M  V30 365 C 30.9792 1.29778 5.17681 0
M  V30 366 O 31.2022 0.174676 5.70132 0
M  V30 367 O 30.1362 2.11261 5.63607 0
M  V30 368 H 33.9622 1.94398 2.3333 0
M  V30 369 H 31.5472 1.00587 1.10465 0
M  V30 370 H 33.4292 0.351998 4.19927 0
M  V30 371 H 32.1042 -0.334019 3.21972 0
M  V30 372 H 31.0112 1.98282 3.1723 0
M  V30 373 H 32.3442 2.59206 4.18417 0
M  V30 374 N 33.9963 -1.19345 1.0293 0
M  V30 375 C 34.9593 -2.20793 0.615069 0
M  V30 376 C 35.9593 -1.57553 -0.321533 0
M  V30 377 O 37.1493 -1.73862 -0.108483 0
M  V30 378 C 34.2813 -3.40754 -0.0999222 0
M  V30 379 H 35.4743 -2.58955 1.51269 0
M  V30 380 H 33.0273 -1.3303 0.820534 0
M  V30 381 H 33.7623 -3.0811 -1.01187 0
M  V30 382 H 33.5473 -3.87889 0.57309 0
M  V30 383 H 35.0373 -4.15898 -0.376645 0
M  V30 384 N 35.4744 -0.807222 -1.35358 0
M  V30 385 C 36.3844 -0.219594 -2.3357 0
M  V30 386 C 37.4004 0.637734 -1.61892 0
M  V30 387 O 38.5764 0.549336 -1.93763 0
M  V30 388 C 35.6414 0.62158 -3.41083 0
M  V30 389 C 34.7024 -0.256315 -4.28534 0
M  V30 390 C 33.9354 0.544807 -5.30912 0
M  V30 391 O 34.1584 1.77944 -5.41934 0
M  V30 392 O 33.0924 -0.0646478 -6.01865 0
M  V30 393 H 36.9184 -1.03208 -2.85625 0
M  V30 394 H 34.5034 -0.569025 -1.38139 0
M  V30 395 H 36.3854 1.10067 -4.06772 0
M  V30 396 H 35.0604 1.41165 -2.91297 0
M  V30 397 H 33.9674 -0.782559 -3.65823 0
M  V30 398 H 35.3004 -1.01034 -4.81719 0
M  V30 399 N 36.9525 1.47285 -0.560781 0
M  V30 400 C 37.8845 2.28118 0.222438 0
M  V30 401 C 38.8975 1.37219 0.876056 0
M  V30 402 O 40.0865 1.62011 0.749307 0
M  V30 403 C 37.1865 3.1159 1.33285 0
M  V30 404 C 36.3595 4.30473 0.77534 0
M  V30 405 C 35.4185 4.95513 1.77069 0
M  V30 406 O 34.4445 5.53792 1.31539 0
M  V30 407 N 35.6465 4.90531 3.10418 0
M  V30 408 H 38.4115 2.95976 -0.470958 0
M  V30 409 H 35.9725 1.56955 -0.39709 0
M  V30 410 H 37.9645 3.51967 1.99752 0
M  V30 411 H 36.5345 2.45951 1.92943 0
M  V30 412 H 35.7545 3.94144 -0.0662113 0
M  V30 413 H 37.0425 5.07362 0.382272 0
M  V30 414 H 36.4405 4.44389 3.5005 0
M  V30 415 H 34.9975 5.34917 3.72434 0
M  V30 416 N 38.4306 0.297415 1.54768 0
M  V30 417 C 39.7076 -0.365847 1.92148 0
M  V30 418 C 40.0876 -1.71975 1.22424 0
M  V30 419 O 39.4356 -2.25666 0.358739 0
M  V30 420 C 39.6456 -0.484056 3.45627 0
M  V30 421 C 40.9936 -0.756594 4.17805 0
M  V30 422 O 42.0176 -0.568007 3.51642 0
M  V30 423 O 40.8766 -1.11863 5.34929 0
M  V30 424 H 37.9706 -0.203919 0.801465 0
M  V30 425 H 40.5166 0.34521 1.66152 0
M  V30 426 H 39.2886 0.467865 3.88493 0
M  V30 427 H 38.9116 -1.24372 3.77647 0
M  V30 428 N 39.9087 -1.5758 0.0250728 0
M  V30 429 C 41.1567 -1.91255 -0.653151 0
M  V30 430 C 41.4777 -0.901691 -1.729 0
M  V30 431 O 40.7477 0.0573785 -1.95816 0
M  V30 432 H 39.3277 -0.705942 -0.244243 0
M  V30 433 H 41.9897 -1.94767 0.0719209 0
M  V30 434 H 41.0857 -2.91752 -1.10847 0
M  V30 435 N 41.3868 0.248026 -1.55636 0
M  V30 436 C 42.6358 0.974134 -1.76617 0
M  V30 437 C 42.9488 1.86528 -0.588796 0
M  V30 438 O 44.1548 2.62805 -0.681594 0
M  V30 439 C 42.6108 1.78213 -3.12679 0
M  V30 440 C 42.2188 0.93843 -4.38061 0
M  V30 441 C 43.9628 2.50104 -3.42999 0
M  V30 442 C 41.8698 1.74225 -5.65155 0
M  V30 443 H 40.7998 0.36745 -0.658405 0
M  V30 444 H 43.4508 0.22884 -1.82067 0
M  V30 445 H 41.8328 2.56933 -3.01333 0
M  V30 446 H 43.0068 0.193635 -4.60393 0
M  V30 447 H 41.3218 0.332905 -4.15067 0
M  V30 448 H 43.9188 3.10694 -4.3517 0
M  V30 449 H 44.2618 3.21662 -2.64271 0
M  V30 450 H 44.7948 1.78395 -3.55556 0
M  V30 451 H 41.5338 1.07043 -6.46701 0
M  V30 452 H 41.0538 2.46235 -5.46926 0
M  V30 453 H 42.7328 2.30967 -6.0437 0
M  V30 454 N 42.8649 1.48995 0.513639 0
M  V30 455 C 44.1129 1.57531 1.26604 0
M  V30 456 C 44.4339 0.258236 1.93283 0
M  V30 457 O 43.7039 -0.721502 1.8213 0
M  V30 458 H 42.2839 0.580387 0.470276 0
M  V30 459 H 44.9459 1.85552 0.596373 0
M  V30 460 H 44.0419 2.36486 2.03669 0
M  V30 461 N 44.343 -0.763751 1.37857 0
M  V30 462 C 45.253 -1.90817 1.36478 0
M  V30 463 C 46.269 -1.71997 0.263248 0
M  V30 464 O 47.445 -1.95095 0.499979 0
M  V30 465 C 44.51 -3.2605 1.17864 0
M  V30 466 C 43.571 -3.57467 2.3773 0
M  V30 467 C 42.804 -4.86249 2.19995 0
M  V30 468 O 43.027 -5.57884 1.18836 0
M  V30 469 O 41.961 -5.16911 3.08361 0
M  V30 470 H 45.787 -1.94933 2.32884 0
M  V30 471 H 43.372 -0.907619 1.1867 0
M  V30 472 H 45.254 -4.06924 1.09504 0
M  V30 473 H 43.929 -3.22769 0.245372 0
M  V30 474 H 42.836 -2.76796 2.51664 0
M  V30 475 H 44.169 -3.655 3.29652 0
M  V30 476 N 45.8211 -1.22559 -0.990812 0
M  V30 477 C 46.7311 -1.01394 -2.11557 0
M  V30 478 C 47.7471 0.0383962 -1.73958 0
M  V30 479 O 48.9231 -0.154787 -2.00804 0
M  V30 480 C 45.9881 -0.596569 -3.41529 0
M  V30 481 C 45.0491 -1.72276 -3.93217 0
M  V30 482 C 44.2821 -1.32521 -5.16985 0
M  V30 483 O 44.5051 -0.204909 -5.70032 0
M  V30 484 O 43.4391 -2.14247 -5.62478 0
M  V30 485 H 47.2651 -1.95633 -2.32296 0
M  V30 486 H 44.8501 -1.01172 -1.0993 0
M  V30 487 H 46.7321 -0.374263 -4.19735 0
M  V30 488 H 45.4071 0.316939 -3.22145 0
M  V30 489 H 44.3141 -1.99961 -3.16174 0
M  V30 490 H 45.6471 -2.61421 -4.17037 0
M  V30 491 N 47.2992 1.18797 -1.03562 0
M  V30 492 C 48.5452 1.8893 -0.737113 0
M  V30 493 C 48.8782 1.79837 0.732956 0
M  V30 494 O 48.1532 1.19525 1.5344 0
M  V30 495 C 48.4362 3.39607 -1.19745 0
M  V30 496 C 48.2892 3.57537 -2.72924 0
M  V30 497 C 49.6082 4.33069 -0.783526 0
M  V30 498 H 46.7272 0.686057 -0.269249 0
M  V30 499 H 49.3692 1.39797 -1.28673 0
M  V30 500 H 47.5192 3.81583 -0.729855 0
M  V30 501 H 49.1912 3.24688 -3.27682 0
M  V30 502 H 47.4342 3.00363 -3.12993 0
M  V30 503 H 48.1052 4.63238 -3.00191 0
M  V30 504 H 50.5812 3.98846 -1.18581 0
M  V30 505 H 49.4572 5.3707 -1.13343 0
M  V30 506 H 49.7182 4.40986 0.313681 0
M  V30 507 N 48.7773 0.814389 1.34928 0
M  V30 508 C 49.7073 0.244827 2.32213 0
M  V30 509 C 50.6883 -0.634024 1.57842 0
M  V30 510 O 51.8733 -0.562676 1.8587 0
M  V30 511 C 49.0033 -0.601106 3.42058 0
M  V30 512 C 47.9573 0.179896 4.27622 0
M  V30 513 C 47.2833 -0.788237 5.28858 0
M  V30 514 C 48.5833 1.38329 5.03649 0
M  V30 515 H 50.2773 1.05763 2.80097 0
M  V30 516 H 47.8233 0.510029 1.34665 0
M  V30 517 H 49.7763 -1.00968 4.09125 0
M  V30 518 H 48.5003 -1.44688 2.92802 0
M  V30 519 H 47.1593 0.569739 3.62146 0
M  V30 520 H 46.8073 -1.62973 4.75866 0
M  V30 521 H 46.5073 -0.269942 5.8698 0
M  V30 522 H 48.0313 -1.19485 5.98795 0
M  V30 523 H 49.4453 1.04918 5.63618 0
M  V30 524 H 47.8423 1.83662 5.71304 0
M  V30 525 H 48.9123 2.16592 4.33839 0
M  V30 526 N 50.2554 -1.46986 0.568584 0
M  V30 527 C 51.2024 -2.30153 -0.172707 0
M  V30 528 C 52.1724 -1.39759 -0.897586 0
M  V30 529 O 53.3574 -1.68716 -0.891044 0
M  V30 530 C 50.4974 -3.23952 -1.1895 0
M  V30 531 C 49.6104 -4.29441 -0.469517 0
M  V30 532 C 48.7454 -5.1038 -1.47259 0
M  V30 533 C 47.7844 -6.07632 -0.738225 0
M  V30 534 N 46.9214 -6.8149 -1.68868 0
M  V30 535 H 51.7614 -2.93019 0.542596 0
M  V30 536 H 49.2984 -1.44422 0.279401 0
M  V30 537 H 51.2564 -3.76767 -1.79173 0
M  V30 538 H 49.8864 -2.62926 -1.87269 0
M  V30 539 H 48.9384 -3.79594 0.247467 0
M  V30 540 H 50.2504 -4.98689 0.105241 0
M  V30 541 H 49.4044 -5.67402 -2.14803 0
M  V30 542 H 48.1434 -4.4106 -2.08128 0
M  V30 543 H 47.1484 -5.49778 -0.0489293 0
M  V30 544 H 48.3734 -6.78966 -0.135129 0
M  V30 545 H 46.3194 -6.14891 -2.28573 0
M  V30 546 H 46.2364 -7.46948 -1.16636 0
M  V30 547 H 47.5044 -7.43078 -2.3549 0
M  V30 548 N 51.7335 -0.305618 -1.54608 0
M  V30 549 C 52.6665 0.610536 -2.19881 0
M  V30 550 C 53.6445 1.1294 -1.16976 0
M  V30 551 O 54.8285 1.19673 -1.45638 0
M  V30 552 C 51.9555 1.83583 -2.84631 0
M  V30 553 C 51.0015 1.4498 -4.01102 0
M  V30 554 S 51.8345 0.501793 -5.33144 0
M  V30 555 C 52.9905 1.73478 -6.01379 0
M  V30 556 H 53.2235 0.0560177 -2.97247 0
M  V30 557 H 50.7565 -0.0897434 -1.54139 0
M  V30 558 H 52.7145 2.53898 -3.22562 0
M  V30 559 H 51.3755 2.36152 -2.07102 0
M  V30 560 H 50.5685 2.36236 -4.45206 0
M  V30 561 H 50.1705 0.826553 -3.64752 0
M  V30 562 H 52.4625 2.67473 -6.22467 0
M  V30 563 H 53.4055 1.33622 -6.95378 0
M  V30 564 H 53.8135 1.9136 -5.31076 0
M  V30 565 N 53.2116 1.57565 -0.0334293 0
M  V30 566 C 54.4366 1.96689 0.657895 0
M  V30 567 C 54.8616 0.910057 1.64619 0
M  V30 568 O 54.2196 -0.128598 1.80843 0
M  V30 569 C 54.2676 3.34905 1.33683 0
M  V30 570 O 53.3716 3.31574 2.45219 0
M  V30 571 H 52.7126 0.641205 0.172489 0
M  V30 572 H 55.2426 2.04372 -0.0965621 0
M  V30 573 H 55.2526 3.71234 1.69262 0
M  V30 574 H 53.9276 4.11366 0.612411 0
M  V30 575 H 52.5046 3.06968 2.11719 0
M  V30 576 N 54.6897 -0.239769 1.55765 0
M  V30 577 C 55.9177 -0.98417 1.81994 0
M  V30 578 C 56.3327 -1.7867 0.610124 0
M  V30 579 O 55.6897 -1.77571 -0.421271 0
M  V30 580 C 55.7407 -1.91635 3.06526 0
M  V30 581 O 55.4617 -1.14629 4.22838 0
M  V30 582 C 56.9627 -2.77616 3.45607 0
M  V30 583 H 54.1827 -0.28928 0.605441 0
M  V30 584 H 56.7267 -0.260499 2.02834 0
M  V30 585 H 54.8817 -2.5942 2.87715 0
M  V30 586 H 55.2957 -1.77745 4.93464 0
M  V30 587 H 56.7697 -3.38759 4.35828 0
M  V30 588 H 57.2467 -3.4909 2.6652 0
M  V30 589 H 57.8527 -2.15271 3.66795 0
M  V30 590 N 56.1678 -1.49265 -0.50573 0
M  V30 591 C 57.0778 -1.68312 -1.63427 0
M  V30 592 C 58.0938 -0.565682 -1.64548 0
M  V30 593 O 59.2698 -0.839801 -1.83055 0
M  V30 594 C 56.3348 -1.74107 -2.99813 0
M  V30 595 C 55.3958 -2.97653 -3.09356 0
M  V30 596 C 54.6288 -3.03163 -4.39236 0
M  V30 597 O 54.8518 -2.16396 -5.27758 0
M  V30 598 O 53.7858 -3.9558 -4.53652 0
M  V30 599 H 57.6118 -2.63907 -1.50289 0
M  V30 600 H 55.1968 -1.32951 -0.681502 0
M  V30 601 H 57.0788 -1.803 -3.80881 0
M  V30 602 H 55.7538 -0.816901 -3.13223 0
M  V30 603 H 54.6608 -2.96981 -2.27493 0
M  V30 604 H 55.9938 -3.89535 -3.00871 0
M  V30 605 N 57.6459 0.756429 -1.3826 0
M  V30 606 C 58.5559 1.9009 -1.37488 0
M  V30 607 C 59.5719 1.71855 -0.272366 0
M  V30 608 O 60.7479 1.94827 -0.510318 0
M  V30 609 C 57.8129 3.25421 -1.19592 0
M  V30 610 C 56.8739 3.56202 -2.39622 0
M  V30 611 C 56.1069 4.85075 -2.2257 0
M  V30 612 O 56.3299 5.57246 -1.21793 0
M  V30 613 O 55.2639 5.15269 -3.11098 0
M  V30 614 H 59.0899 1.93695 -2.33914 0
M  V30 615 H 56.6749 0.901313 -1.1915 0
M  V30 616 H 58.5569 4.06337 -1.11661 0
M  V30 617 H 57.2319 3.22634 -0.262486 0
M  V30 618 H 56.1389 2.75458 -2.53128 0
M  V30 619 H 57.4719 3.63747 -3.31586 0
M  V30 620 N 59.124 1.23083 0.984299 0
M  V30 621 C 60.373 1.05466 1.71929 0
M  V30 622 C 60.686 -0.409211 1.91272 0
M  V30 623 O 61.892 -0.705226 2.62181 0
M  V30 624 C 60.348 1.83874 3.09384 0
M  V30 625 C 59.956 3.34566 2.97943 0
M  V30 626 C 61.7 1.74734 3.8687 0
M  V30 627 C 59.607 4.05381 4.30605 0
M  V30 628 H 58.537 0.391039 0.644674 0
M  V30 629 H 61.188 1.47013 1.09815 0
M  V30 630 H 59.57 1.35131 3.72231 0
M  V30 631 H 60.744 3.90767 2.44209 0
M  V30 632 H 59.059 3.44476 2.33934 0
M  V30 633 H 61.656 2.24957 4.85076 0
M  V30 634 H 61.999 0.709372 4.10212 0
M  V30 635 H 62.532 2.21067 3.30717 0
M  V30 636 H 59.271 5.09467 4.1246 0
M  V30 637 H 58.791 3.53967 4.84218 0
M  V30 638 H 60.47 4.11458 4.99311 0
M  V30 639 N 60.6021 -1.18246 1.0419 0
M  V30 640 C 61.8511 -1.87588 0.741194 0
M  V30 641 C 62.1641 -1.81303 -0.734066 0
M  V30 642 O 63.3701 -2.46019 -1.14834 0
M  V30 643 C 61.8261 -3.36538 1.27555 0
M  V30 644 C 61.4341 -3.51349 2.77953 0
M  V30 645 C 63.1781 -4.11273 1.05143 0
M  V30 646 C 61.0851 -4.94265 3.2474 0
M  V30 647 H 60.0151 -0.702622 0.273565 0
M  V30 648 H 62.6661 -1.33601 1.25789 0
M  V30 649 H 61.0481 -3.9 0.686703 0
M  V30 650 H 62.2221 -3.08153 3.42605 0
M  V30 651 H 60.5371 -2.90022 2.98791 0
M  V30 652 H 63.1341 -5.16689 1.37611 0
M  V30 653 H 63.4771 -4.16298 -0.0112774 0
M  V30 654 H 64.0101 -3.63987 1.60495 0
M  V30 655 H 60.7491 -4.94408 4.30396 0
M  V30 656 H 60.2691 -5.38172 2.64823 0
M  V30 657 H 61.9481 -5.62987 3.18834 0
M  V30 658 N 62.0802 -0.821533 -1.34494 0
M  V30 659 C 63.0122 -0.199946 -2.28326 0
M  V30 660 C 64.0252 0.609377 -1.50965 0
M  V30 661 O 65.2142 0.439285 -1.7301 0
M  V30 662 C 62.3142 0.738431 -3.30757 0
M  V30 663 C 61.4872 -0.0277632 -4.37391 0
M  V30 664 C 60.5462 0.831332 -5.19591 0
M  V30 665 O 59.5722 0.276822 -5.68526 0
M  V30 666 N 60.7742 2.15132 -5.39165 0
M  V30 667 H 63.5392 -1.00609 -2.82308 0
M  V30 668 H 61.1002 -0.678366 -1.47003 0
M  V30 669 H 63.0922 1.31773 -3.82646 0
M  V30 670 H 61.6622 1.44533 -2.7718 0
M  V30 671 H 60.8822 -0.788359 -3.86236 0
M  V30 672 H 62.1702 -0.555251 -5.05761 0
M  V30 673 H 61.5682 2.62559 -5.01078 0
M  V30 674 H 60.1252 2.6795 -5.94177 0
M  V30 675 N 63.5583 1.46682 -0.576371 0
M  V30 676 C 64.9743 1.57822 -0.237562 0
M  V30 677 C 65.1743 1.57237 1.26011 0
M  V30 678 O 64.2303 1.48596 2.04146 0
M  V30 679 C 65.5433 2.87499 -0.881168 0
M  V30 680 C 67.0913 3.01119 -0.85417 0
M  V30 681 C 67.5663 4.33524 -1.4772 0
M  V30 682 N 69.0573 4.40207 -1.44125 0
M  V30 683 C 69.7923 5.4126 -1.89276 0
M  V30 684 N 69.2883 6.49021 -2.42371 0
M  V30 685 N 71.0813 5.32422 -1.80231 0
M  V30 686 H 63.2323 1.45306 -1.54919 0
M  V30 687 H 65.4953 0.692733 -0.647167 0
M  V30 688 H 65.2013 2.9372 -1.93447 0
M  V30 689 H 65.0753 3.75224 -0.385592 0
M  V30 690 H 67.4623 2.94485 0.190491 0
M  V30 691 H 67.5433 2.14887 -1.3877 0
M  V30 692 H 67.1873 4.40916 -2.52103 0
M  V30 693 H 67.1173 5.1852 -0.918947 0
M  V30 694 H 69.6083 3.62931 -1.05307 0
M  V30 695 H 69.9213 7.2233 -2.74698 0
M  V30 696 H 68.2663 6.49858 -2.46393 0
M  V30 697 H 71.4573 4.47137 -1.38514 0
M  V30 698 H 71.6303 6.11034 -2.15735 0
M  V30 699 N 65.0364 0.313813 1.54444 0
M  V30 700 C 66.2644 -0.293918 2.04802 0
M  V30 701 C 66.6794 -1.46537 1.19047 0
M  V30 702 O 66.0364 -1.81182 0.218939 0
M  V30 703 C 66.0874 -0.737806 3.53891 0
M  V30 704 O 65.8084 0.387038 4.36387 0
M  V30 705 C 67.3094 -1.40936 4.203 0
M  V30 706 H 64.5294 -0.0620057 0.668129 0
M  V30 707 H 67.0734 0.457169 1.99324 0
M  V30 708 H 65.2284 -1.43889 3.59687 0
M  V30 709 H 65.6424 0.0391274 5.24485 0
M  V30 710 H 67.1164 -1.67099 5.26101 0
M  V30 711 H 67.5934 -2.35355 3.70816 0
M  V30 712 H 68.1994 -0.751117 4.18615 0
M  V30 713 N 66.5145 -1.57545 0.0417849 0
M  V30 714 C 67.9305 -1.56467 -0.314704 0
M  V30 715 C 68.1305 -1.04859 -1.72066 0
M  V30 716 O 67.1865 -0.700983 -2.42575 0
M  V30 717 C 68.4995 -3.00317 -0.15174 0
M  V30 718 C 70.0475 -3.12201 -0.223553 0
M  V30 719 C 70.5225 -4.57913 -0.0892295 0
M  V30 720 N 72.0135 -4.6297 -0.145808 0
M  V30 721 C 72.7485 -5.73362 -0.0658459 0
M  V30 722 N 72.2445 -6.92769 0.0659282 0
M  V30 723 N 74.0375 -5.6197 -0.12075 0
M  V30 724 H 66.1885 -1.89416 0.961014 0
M  V30 725 H 68.4515 -0.871862 0.372237 0
M  V30 726 H 68.1575 -3.42073 0.817254 0
M  V30 727 H 68.0315 -3.65892 -0.916692 0
M  V30 728 H 70.4185 -2.70349 -1.18301 0
M  V30 729 H 70.4995 -2.49323 0.571994 0
M  V30 730 H 70.1435 -5.00448 0.866867 0
M  V30 731 H 70.0735 -5.18786 -0.903802 0
M  V30 732 H 72.5645 -3.7709 -0.247286 0
M  V30 733 H 72.8775 -7.72707 0.119905 0
M  V30 734 H 71.2225 -6.94927 0.100885 0
M  V30 735 H 74.4135 -4.67572 -0.222187 0
M  V30 736 H 74.5865 -6.47977 -0.0549735 0
M  V30 737 N 67.9926 0.231505 -1.5589 0
M  V30 738 C 68.9226 1.29022 -1.94617 0
M  V30 739 C 69.9036 1.4941 -0.813067 0
M  V30 740 O 71.0886 1.6176 -1.07459 0
M  V30 741 C 68.2186 2.64199 -2.25424 0
M  V30 742 C 67.1726 2.58484 -3.41131 0
M  V30 743 C 66.4986 3.97599 -3.57518 0
M  V30 744 C 67.7986 2.1413 -4.76388 0
M  V30 745 H 69.4926 0.968563 -2.83301 0
M  V30 746 H 67.0386 0.464479 -1.36303 0
M  V30 747 H 68.9916 3.38413 -2.51107 0
M  V30 748 H 67.7156 2.98032 -1.33583 0
M  V30 749 H 66.3746 1.86727 -3.15481 0
M  V30 750 H 66.0226 4.28723 -2.6307 0
M  V30 751 H 65.7226 3.94659 -4.35337 0
M  V30 752 H 67.2466 4.7349 -3.85538 0
M  V30 753 H 68.6606 2.78083 -5.01341 0
M  V30 754 H 67.0576 2.2227 -5.57419 0
M  V30 755 H 68.1276 1.09331 -4.72414 0
M  V30 756 N 69.4707 1.49531 0.497807 0
M  V30 757 C 70.4007 1.6935 1.60757 0
M  V30 758 C 71.3817 0.542218 1.61227 0
M  V30 759 O 72.5667 0.778417 1.77917 0
M  V30 760 C 69.6967 1.76298 2.99226 0
M  V30 761 C 68.6507 2.91248 3.13622 0
M  V30 762 C 67.9767 2.83312 4.53474 0
M  V30 763 C 69.2767 4.3214 2.93346 0
M  V30 764 H 70.9707 2.62263 1.44425 0
M  V30 765 H 68.5167 1.26208 0.693367 0
M  V30 766 H 70.4697 1.88749 3.76765 0
M  V30 767 H 69.1937 0.799871 3.16654 0
M  V30 768 H 67.8527 2.78404 2.38509 0
M  V30 769 H 67.5007 1.84902 4.67782 0
M  V30 770 H 67.2007 3.60465 4.64046 0
M  V30 771 H 68.7247 2.97775 5.33069 0
M  V30 772 H 70.1387 4.45649 3.60652 0
M  V30 773 H 68.5357 5.1054 3.15387 0
M  V30 774 H 69.6057 4.46363 1.89441 0
M  V30 775 N 70.9488 -0.749086 1.3866 0
M  V30 776 C 72.2258 -1.4992 1.25632 0
M  V30 777 C 72.6058 -2.10633 -0.140317 0
M  V30 778 O 71.9538 -1.97437 -1.15025 0
M  V30 779 C 72.1638 -2.56195 2.36992 0
M  V30 780 C 73.5118 -3.22972 2.75634 0
M  V30 781 O 74.5358 -2.66502 2.36337 0
M  V30 782 O 73.3948 -4.25122 3.43415 0
M  V30 783 H 70.4888 -0.665067 0.491544 0
M  V30 784 H 73.0348 -0.784113 1.50498 0
M  V30 785 H 71.8068 -2.09612 3.30422 0
M  V30 786 H 71.4298 -3.35279 2.13714 0
M  V30 787 N 72.4269 -1.23603 -0.977757 0
M  V30 788 C 73.6519 -1.09735 -1.75991 0
M  V30 789 C 74.0769 0.346858 -1.84874 0
M  V30 790 O 73.4349 1.25093 -1.3123 0
M  V30 791 C 73.4829 -1.73051 -3.16363 0
M  V30 792 O 72.5869 -0.994452 -4.0023 0
M  V30 793 H 71.9279 -0.384476 -0.541364 0
M  V30 794 H 74.4579 -1.6371 -1.2272 0
M  V30 795 H 74.4679 -1.78398 -3.66931 0
M  V30 796 H 73.1429 -2.78137 -3.09213 0
M  V30 797 H 71.7199 -1.01812 -3.58732 0
M  V30 798 N 73.905 1.17692 -1.04816 0
M  V30 799 C 74.815 2.25229 -0.65643 0
M  V30 800 C 75.831 1.71018 0.320761 0
M  V30 801 O 77.007 2.00649 0.173805 0
M  V30 802 C 74.072 3.46684 -0.0332629 0
M  V30 803 C 73.133 4.15997 -1.06042 0
M  V30 804 C 72.366 5.31654 -0.466893 0
M  V30 805 O 72.589 5.65777 0.724758 0
M  V30 806 O 71.523 5.89831 -1.1993 0
M  V30 807 H 75.349 2.61016 -1.55255 0
M  V30 808 H 72.934 1.24919 -0.81949 0
M  V30 809 H 74.816 4.20234 0.313256 0
M  V30 810 H 73.491 3.12703 0.836566 0
M  V30 811 H 72.398 3.44482 -1.45886 0
M  V30 812 H 73.731 4.53996 -1.90127 0
M  V30 813 N 75.3831 0.828654 1.34056 0
M  V30 814 C 76.6321 0.415828 1.97367 0
M  V30 815 C 76.9451 -1.02796 1.6641 0
M  V30 816 O 78.1511 -1.54497 2.23255 0
M  V30 817 C 76.6071 0.692601 3.53173 0
M  V30 818 C 76.2151 2.15038 3.93017 0
M  V30 819 C 77.9591 0.346222 4.23086 0
M  V30 820 C 75.8661 2.37174 5.41758 0
M  V30 821 H 74.7961 0.151755 0.738571 0
M  V30 822 H 77.4471 1.01581 1.52819 0
M  V30 823 H 75.8291 0.0223764 3.95994 0
M  V30 824 H 77.0031 2.86024 3.61285 0
M  V30 825 H 75.3181 2.45875 3.36057 0
M  V30 826 H 77.9151 0.48937 5.32456 0
M  V30 827 H 78.2581 -0.709842 4.10204 0
M  V30 828 H 78.7911 0.971258 3.85761 0
M  V30 829 H 75.5301 3.41308 5.59633 0
M  V30 830 H 75.0501 1.70738 5.74986 0
M  V30 831 H 76.7291 2.19818 6.08514 0
M  V30 832 N 76.8612 -1.46375 0.584142 0
M  V30 833 C 77.8082 -2.30323 -0.148286 0
M  V30 834 C 78.7782 -1.40703 -0.882713 0
M  V30 835 O 79.9632 -1.69651 -0.873099 0
M  V30 836 C 77.1032 -3.25196 -1.15507 0
M  V30 837 C 76.2162 -4.29915 -0.423943 0
M  V30 838 C 75.3512 -5.11914 -1.41838 0
M  V30 839 C 74.3902 -6.08381 -0.673736 0
M  V30 840 N 73.5272 -6.83242 -1.6163 0
M  V30 841 H 78.3672 -2.92427 0.573644 0
M  V30 842 H 75.9042 -1.44118 0.294703 0
M  V30 843 H 77.8622 -3.78646 -1.75166 0
M  V30 844 H 76.4922 -2.64898 -1.8447 0
M  V30 845 H 75.5442 -3.7931 0.287714 0
M  V30 846 H 76.8562 -4.98549 0.158128 0
M  V30 847 H 76.0102 -5.69648 -2.08773 0
M  V30 848 H 74.7492 -4.43243 -2.03438 0
M  V30 849 H 73.7542 -5.49799 0.00938483 0
M  V30 850 H 74.9792 -6.79071 -0.0631082 0
M  V30 851 H 72.9252 -6.1728 -2.22038 0
M  V30 852 H 72.8422 -7.48144 -1.08707 0
M  V30 853 H 74.1102 -7.45534 -2.27596 0
M  V30 854 N 78.3393 -0.321999 -1.54275 0
M  V30 855 C 79.5883 0.281931 -1.9972 0
M  V30 856 C 79.9013 1.53369 -1.21397 0
M  V30 857 O 81.1073 2.21352 -1.57211 0
M  V30 858 C 79.5633 0.5529 -3.55628 0
M  V30 859 C 79.1713 -0.681721 -4.42783 0
M  V30 860 C 80.9153 1.11687 -4.09544 0
M  V30 861 C 78.8223 -0.382742 -5.9016 0
M  V30 862 H 77.7523 0.109124 -0.746062 0
M  V30 863 H 80.4033 -0.43398 -1.78294 0
M  V30 864 H 78.7853 1.32896 -3.73035 0
M  V30 865 H 79.9593 -1.45723 -4.37151 0
M  V30 866 H 78.2743 -1.1658 -3.99748 0
M  V30 867 H 80.8713 1.35515 -5.17242 0
M  V30 868 H 81.2143 2.06575 -3.61431 0
M  V30 869 H 81.7473 0.402032 -3.95763 0
M  V30 870 H 78.4863 -1.30076 -6.42464 0
M  V30 871 H 78.0063 0.355094 -5.98748 0
M  V30 872 H 79.6853 0.00800157 -6.47 0
M  V30 873 N 79.8174 1.5752 -0.0501392 0
M  V30 874 C 80.7504 2.07026 0.959962 0
M  V30 875 C 81.7284 0.970539 1.30458 0
M  V30 876 O 82.9124 1.2424 1.41763 0
M  V30 877 C 80.0394 2.5099 2.27424 0
M  V30 878 C 79.0854 3.72188 2.08275 0
M  V30 879 S 79.9184 5.17888 1.36207 0
M  V30 880 C 81.0744 5.65165 2.6896 0
M  V30 881 H 81.3074 2.9238 0.538631 0
M  V30 882 H 78.8404 1.53547 0.162099 0
M  V30 883 H 80.7984 2.76982 3.02971 0
M  V30 884 H 79.4594 1.65944 2.66686 0
M  V30 885 H 78.6524 4.00866 3.05487 0
M  V30 886 H 78.2544 3.46457 1.40868 0
M  V30 887 H 80.5464 5.70687 3.65133 0
M  V30 888 H 81.4894 6.64394 2.4492 0
M  V30 889 H 81.8974 4.9289 2.75172 0
M  V30 890 N 81.2955 -0.223234 1.56011 0
M  V30 891 C 82.2425 -1.27664 1.92277 0
M  V30 892 C 83.2125 -1.46659 0.779763 0
M  V30 893 O 84.3975 -1.60256 1.03551 0
M  V30 894 C 81.5375 -2.62234 2.24338 0
M  V30 895 C 80.6505 -2.51051 3.51564 0
M  V30 896 C 79.7855 -3.78133 3.7308 0
M  V30 897 C 78.8245 -3.61665 4.93827 0
M  V30 898 N 77.9615 -4.80693 5.11741 0
M  V30 899 H 82.8015 -0.960358 2.82101 0
M  V30 900 H 80.3385 -0.462901 1.39627 0
M  V30 901 H 82.2965 -3.40596 2.40936 0
M  V30 902 H 80.9265 -2.91961 1.3769 0
M  V30 903 H 79.9785 -1.64132 3.43169 0
M  V30 904 H 81.2905 -2.34803 4.40079 0
M  V30 905 H 80.4445 -4.64938 3.89766 0
M  V30 906 H 79.1835 -3.97304 2.82844 0
M  V30 907 H 78.1885 -2.73244 4.77093 0
M  V30 908 H 79.4135 -3.43966 5.85546 0
M  V30 909 H 77.3595 -5.00181 4.24446 0
M  V30 910 H 77.2765 -4.67165 5.94384 0
M  V30 911 H 78.5445 -5.6893 5.3286 0
M  V30 912 N 82.7736 -1.49793 -0.48987 0
M  V30 913 C 83.9986 -1.63836 -1.27172 0
M  V30 914 C 84.4236 -0.31402 -1.8546 0
M  V30 915 O 83.7816 0.719803 -1.66399 0
M  V30 916 C 83.8296 -2.71797 -2.36978 0
M  V30 917 O 82.9336 -2.31744 -3.41128 0
M  V30 918 H 82.2746 -0.547997 -0.37496 0
M  V30 919 H 84.8046 -1.96053 -0.585191 0
M  V30 920 H 84.8146 -2.94305 -2.82575 0
M  V30 921 H 83.4896 -3.67923 -1.93921 0
M  V30 922 H 82.0666 -2.1961 -3.01373 0
M  V30 923 N 84.2517 0.741722 -1.39055 0
M  V30 924 C 85.1617 1.88621 -1.39496 0
M  V30 925 C 86.1777 1.71557 -0.290578 0
M  V30 926 O 87.3537 1.94275 -0.530954 0
M  V30 927 C 84.4187 3.24134 -1.23037 0
M  V30 928 C 83.4797 3.5364 -2.43387 0
M  V30 929 C 82.7127 4.82687 -2.27703 0
M  V30 930 O 82.9357 5.55922 -1.27696 0
M  V30 931 O 81.8697 5.1194 -3.16545 0
M  V30 932 H 85.6957 1.91203 -2.35956 0
M  V30 933 H 83.2807 0.888625 -1.20099 0
M  V30 934 H 85.1627 4.0513 -1.15964 0
M  V30 935 H 83.8377 3.22337 -0.296691 0
M  V30 936 H 82.7447 2.72758 -2.56035 0
M  V30 937 H 84.0777 3.60209 -3.35425 0
M  V30 938 N 85.7298 1.2412 0.971189 0
M  V30 939 C 86.9758 1.08041 1.71625 0
M  V30 940 C 87.3088 -0.380407 1.90438 0
M  V30 941 O 86.5838 -1.28127 1.46334 0
M  V30 942 C 86.8668 1.81682 3.10908 0
M  V30 943 C 86.7198 3.35493 2.99608 0
M  V30 944 C 88.0388 1.58671 4.10501 0
M  V30 945 H 85.1578 0.39388 0.622919 0
M  V30 946 H 87.7998 1.52743 1.13003 0
M  V30 947 H 85.9498 1.43684 3.60953 0
M  V30 948 H 87.6218 3.83068 2.57015 0
M  V30 949 H 85.8648 3.64052 2.35899 0
M  V30 950 H 86.5358 3.82217 3.98264 0
M  V30 951 H 89.0118 1.91719 3.69301 0
M  V30 952 H 87.8878 2.1266 5.06031 0
M  V30 953 H 88.1488 0.524161 4.38982 0
M  V30 954 N 87.2079 -1.17134 1.05439 0
M  V30 955 C 88.1379 -2.2342 0.678649 0
M  V30 956 C 89.1189 -1.66971 -0.32476 0
M  V30 957 O 90.3039 -1.93149 -0.201802 0
M  V30 958 C 87.4339 -3.47256 0.0552099 0
M  V30 959 C 86.3879 -4.16543 0.98365 0
M  V30 960 C 85.7139 -5.34231 0.223961 0
M  V30 961 C 87.0139 -4.68495 2.3089 0
M  V30 962 H 88.7079 -2.55105 1.56722 0
M  V30 963 H 86.2539 -1.2262 0.754998 0
M  V30 964 H 88.2069 -4.20828 -0.21946 0
M  V30 965 H 86.9309 -3.14846 -0.868319 0
M  V30 966 H 85.5899 -3.44887 1.24293 0
M  V30 967 H 85.2379 -4.98071 -0.702412 0
M  V30 968 H 84.9379 -5.81527 0.842627 0
M  V30 969 H 86.4619 -6.10585 -0.0433671 0
M  V30 970 H 87.8759 -5.33691 2.09396 0
M  V30 971 H 86.2729 -5.26379 2.88176 0
M  V30 972 H 87.3429 -3.85169 2.94572 0
M  V30 973 N 88.686 -0.835752 -1.33615 0
M  V30 974 C 90.102 -0.523139 -1.50783 0
M  V30 975 C 90.302 0.950171 -1.77691 0
M  V30 976 O 89.358 1.73411 -1.83534 0
M  V30 977 C 90.671 -1.39378 -2.66448 0
M  V30 978 C 92.219 -1.39223 -2.80332 0
M  V30 979 C 92.694 -2.24765 -3.99055 0
M  V30 980 N 94.185 -2.22458 -4.06284 0
M  V30 981 C 94.92 -2.85386 -4.97336 0
M  V30 982 N 94.416 -3.57354 -5.93523 0
M  V30 983 N 96.209 -2.74872 -4.90308 0
M  V30 984 H 88.36 -1.78952 -1.14411 0
M  V30 985 H 90.623 -0.763297 -0.562212 0
M  V30 986 H 90.329 -2.44061 -2.53234 0
M  V30 987 H 90.203 -1.0676 -3.61776 0
M  V30 988 H 92.59 -0.353136 -2.92979 0
M  V30 989 H 92.671 -1.75846 -1.85773 0
M  V30 990 H 92.315 -3.28732 -3.87167 0
M  V30 991 H 92.245 -1.85485 -4.92852 0
M  V30 992 H 94.736 -1.70119 -3.37443 0
M  V30 993 H 95.049 -4.02584 -6.59656 0
M  V30 994 H 93.394 -3.61461 -5.93608 0
M  V30 995 H 96.585 -2.18213 -4.14126 0
M  V30 996 H 96.758 -3.24199 -5.61069 0
M  V30 997 N 90.1641 1.46063 -0.591896 0
M  V30 998 C 91.4101 2.02638 -0.0811191 0
M  V30 999 C 91.7431 1.4613 1.27905 0
M  V30 1000 O 91.0181 0.629908 1.84017 0
M  V30 1001 C 91.3011 3.60091 -0.0252436 0
M  V30 1002 C 91.1541 4.26965 -1.41496 0
M  V30 1003 C 92.4731 4.3496 0.670685 0
M  V30 1004 H 89.5921 0.73635 -0.0309524 0
M  V30 1005 H 92.2341 1.741 -0.760859 0
M  V30 1006 H 90.3841 3.84535 0.553624 0
M  V30 1007 H 92.0561 4.13756 -2.0397 0
M  V30 1008 H 90.2991 3.85971 -1.98011 0
M  V30 1009 H 90.9701 5.35781 -1.32825 0
M  V30 1010 H 93.4461 4.15716 0.178825 0
M  V30 1011 H 92.3221 5.44686 0.678837 0
M  V30 1012 H 92.5831 4.06685 1.73379 0
M  V30 1013 N 91.6422 0.330177 1.54103 0
M  V30 1014 C 92.8702 -0.272179 2.05102 0
M  V30 1015 C 93.2852 -1.45267 1.20595 0
M  V30 1016 O 92.6422 -1.8094 0.238144 0
M  V30 1017 C 92.6932 -0.70023 3.54653 0
M  V30 1018 O 92.4142 0.433301 4.35952 0
M  V30 1019 C 93.9152 -1.3647 4.21771 0
M  V30 1020 H 91.1352 -0.0549159 0.668749 0
M  V30 1021 H 93.6792 0.478285 1.98828 0
M  V30 1022 H 91.8342 -1.40066 3.61193 0
M  V30 1023 H 92.2482 0.0947539 5.24414 0
M  V30 1024 H 93.7222 -1.61509 5.27843 0
M  V30 1025 H 94.1992 -2.31409 3.73292 0
M  V30 1026 H 94.8052 -0.706675 4.19388 0
M  V30 1027 N 93.1203 -1.57491 0.0584922 0
M  V30 1028 C 94.0703 -2.08474 -0.923188 0
M  V30 1029 C 95.0543 -0.991479 -1.26722 0
M  V30 1030 O 96.2463 -1.25473 -1.24842 0
M  V30 1031 C 93.3753 -2.6392 -2.19548 0
M  V30 1032 C 92.4613 -3.80227 -1.87852 0
M  V30 1033 N 92.8523 -4.89714 -1.26546 0
M  V30 1034 C 91.1503 -3.89271 -2.17679 0
M  V30 1035 C 91.8513 -5.70689 -1.12644 0
M  V30 1036 N 90.8273 -5.18531 -1.63176 0
M  V30 1037 H 94.6293 -2.90517 -0.444653 0
M  V30 1038 H 92.1433 -1.61745 -0.145764 0
M  V30 1039 H 94.1403 -2.98752 -2.9078 0
M  V30 1040 H 92.8003 -1.83318 -2.68001 0
M  V30 1041 H 93.8113 -5.09358 -0.936757 0
M  V30 1042 H 90.4883 -3.19623 -2.68602 0
M  V30 1043 H 91.8783 -6.6875 -0.6499 0
M  V30 1044 N 94.5984 0.214957 -1.56127 0
M  V30 1045 C 95.5084 1.28727 -1.96129 0
M  V30 1046 C 96.5244 1.50916 -0.866044 0
M  V30 1047 O 97.7004 1.63918 -1.17016 0
M  V30 1048 C 94.7654 2.61569 -2.27558 0
M  V30 1049 C 93.8264 2.47625 -3.50685 0
M  V30 1050 C 93.0594 3.74132 -3.80606 0
M  V30 1051 O 93.2824 4.77438 -3.12104 0
M  V30 1052 O 92.2164 3.70849 -4.74083 0
M  V30 1053 H 96.0424 0.977855 -2.87527 0
M  V30 1054 H 93.6274 0.418358 -1.43423 0
M  V30 1055 H 95.5094 3.40012 -2.48938 0
M  V30 1056 H 94.1844 2.92178 -1.39332 0
M  V30 1057 H 93.0914 1.67361 -3.34576 0
M  V30 1058 H 94.4244 2.21954 -4.39315 0
M  V30 1059 N 96.0765 1.50051 0.48192 0
M  V30 1060 C 97.0065 1.71046 1.58951 0
M  V30 1061 C 97.9875 0.559288 1.60642 0
M  V30 1062 O 99.1725 0.797243 1.77081 0
M  V30 1063 C 96.3025 1.79462 2.97339 0
M  V30 1064 C 95.2565 2.94558 3.10515 0
M  V30 1065 C 94.5825 2.88105 4.50444 0
M  V30 1066 C 95.8825 4.35227 2.88747 0
M  V30 1067 H 97.5765 2.6378 1.41635 0
M  V30 1068 H 95.1225 1.26936 0.679942 0
M  V30 1069 H 97.0755 1.92734 3.74742 0
M  V30 1070 H 95.7995 0.833412 3.15788 0
M  V30 1071 H 94.4585 2.80918 2.35543 0
M  V30 1072 H 94.1065 1.89853 4.65795 0
M  V30 1073 H 93.8065 3.65366 4.60197 0
M  V30 1074 H 95.3305 3.03412 5.29881 0
M  V30 1075 H 96.7445 4.49449 3.55905 0
M  V30 1076 H 95.1415 5.13856 3.09955 0
M  V30 1077 H 96.2115 4.48347 1.84696 0
M  V30 1078 N 97.5546 -0.734337 1.39446 0
M  V30 1079 C 98.4866 -1.85861 1.34121 0
M  V30 1080 C 99.4996 -1.60871 0.249864 0
M  V30 1081 O 100.689 -1.71093 0.508865 0
M  V30 1082 C 97.7886 -3.21899 1.05991 0
M  V30 1083 C 96.9616 -3.74239 2.26415 0
M  V30 1084 C 96.0206 -4.88841 1.94733 0
M  V30 1085 O 95.0466 -5.02468 2.67422 0
M  V30 1086 N 96.2486 -5.73261 0.913884 0
M  V30 1087 H 99.0136 -1.90934 2.31007 0
M  V30 1088 H 96.5746 -0.915102 1.33557 0
M  V30 1089 H 98.5666 -3.96136 0.828147 0
M  V30 1090 H 97.1366 -3.12091 0.178361 0
M  V30 1091 H 96.3566 -2.91347 2.65539 0
M  V30 1092 H 97.6446 -4.05942 3.06738 0
M  V30 1093 H 97.0426 -5.64842 0.311476 0
M  V30 1094 H 95.5996 -6.47563 0.742015 0
M  V30 1095 N 99.0327 -1.24633 -0.964593 0
M  V30 1096 C 99.9957 -1.0424 -2.04124 0
M  V30 1097 C 100.996 0.00137563 -1.608 0
M  V30 1098 O 102.186 -0.239883 -1.7254 0
M  V30 1099 C 99.3177 -0.580588 -3.3592 0
M  V30 1100 H 100.511 -1.99803 -2.23649 0
M  V30 1101 H 98.0637 -1.06899 -1.14027 0
M  V30 1102 H 98.7987 0.3781 -3.22088 0
M  V30 1103 H 98.5837 -1.33398 -3.6871 0
M  V30 1104 H 100.074 -0.459034 -4.15069 0
M  V30 1105 N 100.511 1.16574 -1.06058 0
M  V30 1106 C 101.444 2.19798 -0.61352 0
M  V30 1107 C 102.422 1.58509 0.362453 0
M  V30 1108 O 103.606 1.86527 0.271994 0
M  V30 1109 C 100.733 3.3855 0.100915 0
M  V30 1110 C 99.7788 4.18317 -0.831438 0
M  V30 1111 S 100.612 4.82375 -2.32539 0
M  V30 1112 C 101.768 6.04508 -1.62238 0
M  V30 1113 H 102.001 2.5738 -1.48805 0
M  V30 1114 H 99.5338 1.27327 -0.873338 0
M  V30 1115 H 101.492 4.07358 0.506898 0
M  V30 1116 H 100.153 2.99338 0.951604 0
M  V30 1117 H 99.3458 5.03232 -0.278071 0
M  V30 1118 H 98.9478 3.5499 -1.17719 0
M  V30 1119 H 101.24 6.71133 -0.926622 0
M  V30 1120 H 102.183 6.64389 -2.44934 0
M  V30 1121 H 102.591 5.53559 -1.106 0
M  V30 1122 N 101.989 0.842826 1.3317 0
M  V30 1123 C 102.936 0.276885 2.29133 0
M  V30 1124 C 103.906 -0.609527 1.54512 0
M  V30 1125 O 105.091 -0.546955 1.82792 0
M  V30 1126 C 102.231 -0.538707 3.40869 0
M  V30 1127 C 101.344 0.372169 4.30394 0
M  V30 1128 C 100.479 -0.454908 5.29249 0
M  V30 1129 C 99.5179 0.45411 6.10413 0
M  V30 1130 N 98.6549 -0.335075 7.013 0
M  V30 1131 H 103.495 1.10052 2.76934 0
M  V30 1132 H 101.032 0.554161 1.36262 0
M  V30 1133 H 102.99 -1.02709 4.0436 0
M  V30 1134 H 101.62 -1.32727 2.9425 0
M  V30 1135 H 100.672 0.97888 3.6759 0
M  V30 1136 H 101.984 1.0703 4.87182 0
M  V30 1137 H 101.138 -1.00695 5.98285 0
M  V30 1138 H 99.8769 -1.18646 4.73048 0
M  V30 1139 H 98.8819 1.01813 5.40291 0
M  V30 1140 H 100.107 1.18409 6.68697 0
M  V30 1141 H 98.0529 -1.04994 6.47543 0
M  V30 1142 H 97.9699 0.304262 7.55387 0
M  V30 1143 H 99.2379 -0.869224 7.74638 0
M  V30 1144 N 103.467 -1.45747 0.599634 0
M  V30 1145 C 104.744 -1.95585 0.0240846 0
M  V30 1146 C 105.124 -1.54217 -1.44154 0
M  V30 1147 O 104.472 -0.800903 -2.14004 0
M  V30 1148 C 104.682 -3.48344 0.21385 0
M  V30 1149 C 106.03 -4.24504 0.0904902 0
M  V30 1150 O 107.054 -3.55911 0.143558 0
M  V30 1151 O 105.913 -5.46491 -0.0310766 0
M  V30 1152 H 103.007 -0.82602 -0.0402478 0
M  V30 1153 H 105.553 -1.55951 0.669139 0
M  V30 1154 H 104.325 -3.71397 1.23206 0
M  V30 1155 H 103.948 -3.9485 -0.466842 0
M  V30 1156 N 104.945 -0.338344 -1.53925 0
M  V30 1157 C 105.892 0.520845 -2.24846 0
M  V30 1158 C 106.862 1.09976 -1.24477 0
M  V30 1159 O 108.047 1.13735 -1.53196 0
M  V30 1160 C 105.187 1.6685 -3.02084 0
M  V30 1161 C 104.3 1.11739 -4.17299 0
M  V30 1162 C 103.435 2.23193 -4.82036 0
M  V30 1163 C 102.474 1.65407 -5.89328 0
M  V30 1164 N 101.611 2.70582 -6.47866 0
M  V30 1165 H 106.451 -0.0904881 -2.97863 0
M  V30 1166 H 103.988 -0.0564282 -1.46992 0
M  V30 1167 H 105.946 2.34407 -3.45122 0
M  V30 1168 H 104.576 2.2509 -2.31375 0
M  V30 1169 H 103.628 0.332919 -3.7894 0
M  V30 1170 H 104.94 0.654677 -4.94485 0
M  V30 1171 H 104.094 2.98626 -5.28117 0
M  V30 1172 H 102.833 2.72807 -4.04262 0
M  V30 1173 H 101.838 0.884779 -5.42634 0
M  V30 1174 H 103.063 1.16652 -6.69006 0
M  V30 1175 H 101.009 3.1946 -5.72959 0
M  V30 1176 H 100.926 2.28917 -7.20509 0
M  V30 1177 H 102.194 3.45799 -6.98601 0
M  V30 1178 N 106.423 1.57458 -0.0668435 0
M  V30 1179 C 107.672 1.92477 0.602947 0
M  V30 1180 C 107.985 0.948419 1.71068 0
M  V30 1181 O 109.191 1.19124 2.43971 0
M  V30 1182 C 107.647 3.41903 1.12383 0
M  V30 1183 C 107.255 4.47975 0.04737 0
M  V30 1184 C 108.999 3.85931 1.76797 0
M  V30 1185 C 106.906 5.88529 0.582022 0
M  V30 1186 H 105.836 0.718387 0.22899 0
M  V30 1187 H 108.487 1.82978 -0.138276 0
M  V30 1188 H 106.869 3.46459 1.91787 0
M  V30 1189 H 108.043 4.55029 -0.726978 0
M  V30 1190 H 106.358 4.13384 -0.500243 0
M  V30 1191 H 108.955 4.88322 2.17821 0
M  V30 1192 H 109.298 3.23029 2.62599 0
M  V30 1193 H 109.831 3.83958 1.04024 0
M  V30 1194 H 106.57 6.55065 -0.238721 0
M  V30 1195 H 106.09 5.85004 1.324 0
M  V30 1196 H 107.769 6.38258 1.05999 0
M  V30 1197 N 107.901 -0.206675 1.56239 0
M  V30 1198 C 108.848 -1.25617 1.93621 0
M  V30 1199 C 109.818 -1.45824 0.795274 0
M  V30 1200 O 111.003 -1.59148 1.05245 0
M  V30 1201 C 108.143 -2.59839 2.27107 0
M  V30 1202 C 107.256 -2.47308 3.54207 0
M  V30 1203 C 106.391 -3.74155 3.7707 0
M  V30 1204 C 105.43 -3.56407 4.97635 0
M  V30 1205 N 104.567 -4.75238 5.1681 0
M  V30 1206 H 109.407 -0.930383 2.83104 0
M  V30 1207 H 106.944 -0.448065 1.4011 0
M  V30 1208 H 108.902 -3.38021 2.44535 0
M  V30 1209 H 107.532 -2.90485 1.40778 0
M  V30 1210 H 106.584 -1.60483 3.4489 0
M  V30 1211 H 107.896 -2.30122 4.42544 0
M  V30 1212 H 107.05 -4.60778 3.94675 0
M  V30 1213 H 105.789 -3.94282 2.87042 0
M  V30 1214 H 104.794 -2.68168 4.79964 0
M  V30 1215 H 106.019 -3.37736 5.89161 0
M  V30 1216 H 103.965 -4.95651 4.29728 0
M  V30 1217 H 103.882 -4.60835 5.99306 0
M  V30 1218 H 105.15 -5.63246 5.38864 0
M  V30 1219 N 109.379 -1.50304 -0.473955 0
M  V30 1220 C 110.289 -1.7174 -1.5982 0
M  V30 1221 C 111.305 -0.600457 -1.63311 0
M  V30 1222 O 112.481 -0.878441 -1.81233 0
M  V30 1223 C 109.546 -1.80427 -2.96052 0
M  V30 1224 C 108.607 -3.04148 -3.02972 0
M  V30 1225 C 107.84 -3.12411 -4.32706 0
M  V30 1226 O 108.063 -2.27542 -5.23049 0
M  V30 1227 O 106.997 -4.05113 -4.45159 0
M  V30 1228 H 110.823 -2.67035 -1.44657 0
M  V30 1229 H 108.408 -1.34366 -0.653148 0
M  V30 1230 H 110.29 -1.88338 -3.7697 0
M  V30 1231 H 108.965 -0.883156 -3.11419 0
M  V30 1232 H 107.872 -3.0174 -2.21142 0
M  V30 1233 H 109.205 -3.95829 -2.92541 0
M  V30 1234 N 110.857 0.726932 -1.39834 0
M  V30 1235 C 111.805 1.86235 -1.39353 0
M  V30 1236 C 112.799 1.67144 -0.275555 0
M  V30 1237 O 114.005 1.74387 -0.44601 0
M  V30 1238 H 110.38 0.613174 -0.43534 0
M  V30 1239 H 112.351 1.83756 -2.35109 0
M  V30 1240 C 111.1 3.23995 -1.26185 0
M  V30 1241 H 110.423 3.39285 -2.11484 0
M  V30 1242 H 111.863 4.03609 -1.29907 0
M  V30 1243 C 110.322 3.36888 0.0290018 0
M  V30 1244 O 110.852 3.89152 0.99619 0
M  V30 1245 N 109.058 2.90446 0.0947437 0
M  V30 1246 H 108.605 2.48102 -0.693035 0
M  V30 1247 H 108.563 2.99451 0.957932 0
M  V30 1248 N 112.336 1.25143 0.95797 0
M  V30 1249 C 113.561 1.12521 1.74223 0
M  V30 1250 C 113.986 -0.317402 1.85403 0
M  V30 1251 O 113.344 -1.2299 1.33204 0
M  V30 1252 C 113.392 1.78062 3.1357 0
M  V30 1253 O 112.496 1.058 3.98598 0
M  V30 1254 H 111.837 0.39304 0.535178 0
M  V30 1255 H 114.367 1.65641 1.201 0
M  V30 1256 H 114.377 1.84213 3.64046 0
M  V30 1257 H 113.052 2.83021 3.04749 0
M  V30 1258 H 111.629 1.07506 3.57067 0
M  V30 1259 N 113.814 -1.1601 1.06675 0
M  V30 1260 C 114.724 -2.24156 0.692179 0
M  V30 1261 C 115.74 -1.71507 -0.293513 0
M  V30 1262 O 116.916 -2.009 -0.141861 0
M  V30 1263 C 113.981 -3.46587 0.0884131 0
M  V30 1264 C 113.042 -4.14257 1.12646 0
M  V30 1265 C 112.275 -5.30844 0.551416 0
M  V30 1266 O 112.498 -5.66858 -0.634656 0
M  V30 1267 O 111.432 -5.87848 1.29298 0
M  V30 1268 H 115.258 -2.58513 1.59388 0
M  V30 1269 H 112.843 -1.23599 0.83926 0
M  V30 1270 H 114.725 -4.20679 -0.246361 0
M  V30 1271 H 113.4 -3.13994 -0.786712 0
M  V30 1272 H 112.307 -3.42118 1.51348 0
M  V30 1273 H 113.64 -4.50914 1.97325 0
M  V30 1274 N 115.292 -0.849877 -1.32721 0
M  V30 1275 C 116.239 -0.289033 -2.28983 0
M  V30 1276 C 117.209 0.601324 -1.54833 0
M  V30 1277 O 118.394 0.537253 -1.8308 0
M  V30 1278 C 115.534 0.520623 -3.4115 0
M  V30 1279 C 114.647 -0.394989 -4.3019 0
M  V30 1280 C 113.782 0.426834 -5.29482 0
M  V30 1281 C 112.821 -0.486476 -6.10164 0
M  V30 1282 N 111.958 0.297879 -7.01468 0
M  V30 1283 H 116.798 -1.11519 -2.76347 0
M  V30 1284 H 114.335 -0.56138 -1.35967 0
M  V30 1285 H 116.293 1.00563 -4.04899 0
M  V30 1286 H 114.923 1.31165 -2.9495 0
M  V30 1287 H 113.975 -0.99836 -3.67065 0
M  V30 1288 H 115.287 -1.09612 -4.86607 0
M  V30 1289 H 114.441 0.975205 -5.98811 0
M  V30 1290 H 113.18 1.16136 -4.73671 0
M  V30 1291 H 112.185 -1.04677 -5.39743 0
M  V30 1292 H 113.41 -1.21953 -6.6806 0
M  V30 1293 H 111.356 1.01558 -6.48091 0
M  V30 1294 H 111.273 -0.344318 -7.55216 0
M  V30 1295 H 112.541 0.828131 -7.75089 0
M  V30 1296 N 116.77 1.45427 -0.607355 0
M  V30 1297 C 118.019 2.01452 -0.100036 0
M  V30 1298 C 118.332 1.48159 1.27704 0
M  V30 1299 O 119.538 1.96159 1.87707 0
M  V30 1300 C 117.994 3.59672 -0.128158 0
M  V30 1301 C 117.602 4.21962 -1.50507 0
M  V30 1302 C 119.346 4.23262 0.323932 0
M  V30 1303 C 117.253 5.72333 -1.48959 0
M  V30 1304 H 116.183 0.75325 -0.0336299 0
M  V30 1305 H 118.834 1.66901 -0.76265 0
M  V30 1306 H 117.216 3.91411 0.601105 0
M  V30 1307 H 118.39 4.01796 -2.25602 0
M  V30 1308 H 116.705 3.70565 -1.89923 0
M  V30 1309 H 119.302 5.33522 0.354691 0
M  V30 1310 H 119.645 3.93921 1.34656 0
M  V30 1311 H 120.178 3.96239 -0.352056 0
M  V30 1312 H 116.917 6.06373 -2.48981 0
M  V30 1313 H 116.437 5.94691 -0.781214 0
M  V30 1314 H 118.116 6.35525 -1.21313 0
M  V30 1315 N 118.248 0.346503 1.53744 0
M  V30 1316 C 119.195 -0.508914 2.25119 0
M  V30 1317 C 120.165 -1.09315 1.25058 0
M  V30 1318 O 121.35 -1.12921 1.53797 0
M  V30 1319 C 118.49 -1.65246 3.02965 0
M  V30 1320 C 117.603 -1.09525 4.17886 0
M  V30 1321 C 116.738 -2.20634 4.83212 0
M  V30 1322 C 115.777 -1.62279 5.90196 0
M  V30 1323 N 114.914 -2.67143 6.49291 0
M  V30 1324 H 119.754 0.106283 2.9781 0
M  V30 1325 H 117.291 0.0642227 1.4696 0
M  V30 1326 H 119.249 -2.32574 3.4636 0
M  V30 1327 H 117.879 -2.2386 2.32565 0
M  V30 1328 H 116.931 -0.312818 3.79112 0
M  V30 1329 H 118.243 -0.628444 4.94825 0
M  V30 1330 H 117.397 -2.95821 5.29693 0
M  V30 1331 H 116.136 -2.70659 4.05703 0
M  V30 1332 H 115.141 -0.855989 5.43096 0
M  V30 1333 H 116.366 -1.13102 6.69615 0
M  V30 1334 H 114.312 -3.16417 5.74645 0
M  V30 1335 H 114.229 -2.25093 7.21713 0
M  V30 1336 H 115.497 -3.4209 7.00425 0
M  V30 1337 N 119.726 -1.57421 0.075193 0
M  V30 1338 C 120.972 -1.93905 -0.594025 0
M  V30 1339 C 121.305 -0.955701 -1.69056 0
M  V30 1340 O 120.58 0.0145373 -1.94495 0
M  V30 1341 C 120.863 -3.40638 -1.1678 0
M  V30 1342 C 120.716 -4.49733 -0.0776792 0
M  V30 1343 C 122.035 -3.88259 -2.07228 0
M  V30 1344 H 119.154 -0.705105 -0.214466 0
M  V30 1345 H 121.796 -1.8947 0.141854 0
M  V30 1346 H 119.946 -3.44549 -1.79494 0
M  V30 1347 H 121.618 -4.57942 0.555573 0
M  V30 1348 H 119.861 -4.29751 0.591286 0
M  V30 1349 H 120.532 -5.49549 -0.519603 0
M  V30 1350 H 123.008 -3.86376 -1.54445 0
M  V30 1351 H 121.884 -4.91533 -2.44308 0
M  V30 1352 H 122.145 -3.26396 -2.98191 0
M  V30 1353 N 121.204 0.198386 -1.56346 0
M  V30 1354 C 122.152 1.26538 -1.95169 0
M  V30 1355 C 123.146 1.47295 -0.836685 0
M  V30 1356 O 124.352 1.48195 -1.02167 0
M  V30 1357 H 120.727 0.424744 -0.620561 0
M  V30 1358 H 122.698 0.910904 -2.84157 0
M  V30 1359 C 121.447 2.6035 -2.30463 0
M  V30 1360 H 120.77 2.45192 -3.15786 0
M  V30 1361 H 122.21 3.33762 -2.61494 0
M  V30 1362 C 120.669 3.17096 -1.13806 0
M  V30 1363 O 121.199 3.99588 -0.41135 0
M  V30 1364 N 119.405 2.75795 -0.915736 0
M  V30 1365 H 118.952 2.08816 -1.50843 0
M  V30 1366 H 118.91 3.14101 -0.136979 0
M  V30 1367 N 122.682 1.50554 0.465978 0
M  V30 1368 C 123.629 1.6979 1.56333 0
M  V30 1369 C 124.599 0.539239 1.57103 0
M  V30 1370 O 125.784 0.770401 1.74555 0
M  V30 1371 C 122.924 1.80273 2.94271 0
M  V30 1372 C 122.037 3.07674 3.0325 0
M  V30 1373 C 121.172 3.08922 4.32135 0
M  V30 1374 C 120.211 4.30755 4.34875 0
M  V30 1375 N 119.348 4.29714 5.55239 0
M  V30 1376 H 124.188 2.63472 1.39235 0
M  V30 1377 H 121.725 1.30602 0.676873 0
M  V30 1378 H 123.683 1.84332 3.74269 0
M  V30 1379 H 122.313 0.900258 3.09992 0
M  V30 1380 H 121.365 3.13062 2.16094 0
M  V30 1381 H 122.677 3.97642 3.01135 0
M  V30 1382 H 121.831 3.11738 5.20485 0
M  V30 1383 H 120.57 2.16792 4.36866 0
M  V30 1384 H 119.575 4.28146 3.44922 0
M  V30 1385 H 120.8 5.24117 4.31831 0
M  V30 1386 H 118.746 3.4044 5.60746 0
M  V30 1387 H 118.663 5.13456 5.54886 0
M  V30 1388 H 119.931 4.36683 6.457 0
M  V30 1389 N 124.16 -0.719506 1.40217 0
M  V30 1390 C 125.388 -1.50864 1.41589 0
M  V30 1391 C 125.803 -1.88794 0.0145275 0
M  V30 1392 O 125.16 -1.55174 -0.960594 0
M  V30 1393 C 125.211 -2.78646 2.30302 0
M  V30 1394 O 124.932 -2.42321 3.64983 0
M  V30 1395 C 126.433 -3.72569 2.40224 0
M  V30 1396 H 123.653 -0.465709 0.48307 0
M  V30 1397 H 126.197 -0.88785 1.84221 0
M  V30 1398 H 124.352 -3.37019 1.91042 0
M  V30 1399 H 124.766 -3.24514 4.12057 0
M  V30 1400 H 126.24 -4.5908 3.06512 0
M  V30 1401 H 126.717 -4.15403 1.42608 0
M  V30 1402 H 127.323 -3.20109 2.80019 0
M  V30 1403 N 125.638 -1.25649 -0.95132 0
M  V30 1404 C 126.568 -1.08808 -2.06599 0
M  V30 1405 C 127.549 0.00382547 -1.701 0
M  V30 1406 O 128.734 -0.166325 -1.93486 0
M  V30 1407 C 125.864 -0.709542 -3.39975 0
M  V30 1408 C 124.818 -1.75206 -3.90496 0
M  V30 1409 C 124.144 -1.22811 -5.20405 0
M  V30 1410 C 125.444 -3.15153 -4.16504 0
M  V30 1411 H 127.138 -2.02048 -2.20946 0
M  V30 1412 H 124.684 -0.972835 -1.06169 0
M  V30 1413 H 126.637 -0.578649 -4.17408 0
M  V30 1414 H 125.361 0.258556 -3.25575 0
M  V30 1415 H 124.02 -1.87145 -3.15234 0
M  V30 1416 H 123.668 -0.250145 -5.02378 0
M  V30 1417 H 123.368 -1.92492 -5.55176 0
M  V30 1418 H 124.892 -1.10968 -6.00432 0
M  V30 1419 H 126.306 -3.06349 -4.84586 0
M  V30 1420 H 124.703 -3.82333 -4.62538 0
M  V30 1421 H 125.773 -3.61966 -3.22658 0
M  V30 1422 N 127.117 1.15442 -1.07289 0
M  V30 1423 C 128.528 1.67803 -0.818475 0
M  V30 1424 C 128.879 1.8489 0.656507 0
M  V30 1425 O 128.004 1.55176 1.50829 0
M  V30 1426 C 128.599 3.04805 -1.47917 0
M  V30 1427 C 127.158 3.54245 -1.27229 0
M  V30 1428 C 126.305 2.29986 -1.54925 0
M  V30 1429 H 129.256 0.996646 -1.23502 0
M  V30 1430 H 129.277 3.69702 -0.90005 0
M  V30 1431 H 128.789 2.92336 -2.55267 0
M  V30 1432 H 126.89 3.71956 -0.21899 0
M  V30 1433 H 127.003 4.35723 -1.99203 0
M  V30 1434 H 125.367 2.35496 -0.970242 0
M  V30 1435 H 126.15 2.20105 -2.63455 0
M  V30 1436 N 128.595 0.856903 1.32268 0
M  V30 1437 C 129.825 0.47475 2.01071 0
M  V30 1438 C 130.233 -0.933746 1.64553 0
M  V30 1439 O 129.576 -1.62114 0.863989 0
M  V30 1440 C 129.638 0.536746 3.55471 0
M  V30 1441 C 129.302 1.90453 4.15423 0
M  V30 1442 C 130.299 2.87029 4.33486 0
M  V30 1443 C 127.984 2.20229 4.51447 0
M  V30 1444 C 129.978 4.11532 4.86744 0
M  V30 1445 C 127.665 3.44984 5.0441 0
M  V30 1446 C 128.663 4.40452 5.22007 0
M  V30 1447 O 128.351 5.62998 5.73837 0
M  V30 1448 H 128.083 0.184778 0.650256 0
M  V30 1449 H 130.637 1.15615 1.69771 0
M  V30 1450 H 128.867 -0.20152 3.86175 0
M  V30 1451 H 130.556 0.169875 4.05544 0
M  V30 1452 H 131.322 2.6533 4.05986 0
M  V30 1453 H 127.201 1.46705 4.37034 0
M  V30 1454 H 130.745 4.86056 5.00395 0
M  V30 1455 H 126.642 3.66532 5.31342 0
M  V30 1456 H 127.41 5.64987 5.92226 0
M  V30 1457 N 130.073 -1.45103 0.615059 0
M  V30 1458 C 131.003 -2.33339 -0.0865619 0
M  V30 1459 C 131.984 -1.4727 -0.851209 0
M  V30 1460 O 133.169 -1.76026 -0.820281 0
M  V30 1461 C 130.299 -3.30095 -1.07956 0
M  V30 1462 C 129.253 -4.25858 -0.427628 0
M  V30 1463 C 128.579 -5.12361 -1.5294 0
M  V30 1464 C 129.879 -5.18165 0.655944 0
M  V30 1465 H 131.573 -2.92254 0.650224 0
M  V30 1466 H 129.119 -1.40532 0.314138 0
M  V30 1467 H 131.072 -3.90698 -1.57901 0
M  V30 1468 H 129.796 -2.69355 -1.84703 0
M  V30 1469 H 128.455 -3.66564 0.0510292 0
M  V30 1470 H 128.103 -4.47984 -2.28734 0
M  V30 1471 H 127.803 -5.77238 -1.09865 0
M  V30 1472 H 129.327 -5.75833 -2.03098 0
M  V30 1473 H 130.741 -5.72796 0.240257 0
M  V30 1474 H 129.138 -5.91559 1.00888 0
M  V30 1475 H 130.208 -4.60144 1.52957 0
M  V30 1476 N 131.551 -0.354651 -1.53558 0
M  V30 1477 C 132.797 0.238797 -2.01389 0
M  V30 1478 C 133.13 1.49309 -1.2418 0
M  V30 1479 O 132.405 1.91638 -0.332457 0
M  V30 1480 C 132.688 0.541771 -3.56001 0
M  V30 1481 C 132.541 -0.725388 -4.43912 0
M  V30 1482 C 133.86 1.34685 -4.18984 0
M  V30 1483 H 130.979 0.0853177 -0.732045 0
M  V30 1484 H 133.621 -0.477384 -1.83905 0
M  V30 1485 H 131.771 1.15189 -3.71031 0
M  V30 1486 H 133.443 -1.36313 -4.407 0
M  V30 1487 H 131.686 -1.34801 -4.12324 0
M  V30 1488 H 132.357 -0.468505 -5.50008 0
M  V30 1489 H 134.833 0.830837 -4.07721 0
M  V30 1490 H 133.709 1.52759 -5.27215 0
M  V30 1491 H 133.97 2.35221 -3.74331 0
M  V30 1492 N 133.029 1.57378 -0.0835403 0
M  V30 1493 C 134.254 1.98682 0.594987 0
M  V30 1494 C 134.679 0.961969 1.61641 0
M  V30 1495 O 134.037 -0.0709989 1.81161 0
M  V30 1496 C 134.085 3.38988 1.2296 0
M  V30 1497 O 133.189 3.39208 2.34546 0
M  V30 1498 H 132.53 0.646368 0.152002 0
M  V30 1499 H 135.06 2.03961 -0.161533 0
M  V30 1500 H 135.07 3.76431 1.57366 0
M  V30 1501 H 133.745 4.13107 0.481228 0
M  V30 1502 H 132.322 3.13548 2.01846 0
M  V30 1503 N 134.507 -0.190092 1.56449 0
M  V30 1504 C 135.455 -1.25501 1.95837 0
M  V30 1505 C 136.449 -1.4685 0.844485 0
M  V30 1506 O 137.655 -1.47651 1.02952 0
M  V30 1507 H 134.03 -0.421447 0.622805 0
M  V30 1508 H 136.001 -0.895821 2.84636 0
M  V30 1509 C 134.75 -2.59124 2.31841 0
M  V30 1510 H 134.073 -2.43514 3.17082 0
M  V30 1511 H 135.513 -3.32371 2.6326 0
M  V30 1512 C 133.972 -3.16488 1.15486 0
M  V30 1513 O 134.502 -3.99365 0.432535 0
M  V30 1514 N 132.708 -2.75305 0.930349 0
M  V30 1515 H 132.255 -2.08013 1.51948 0
M  V30 1516 H 132.213 -3.14024 0.153634 0
M  V30 1517 N 135.985 -1.50799 -0.457987 0
M  V30 1518 C 137.231 -1.62683 -1.21088 0
M  V30 1519 C 137.564 -0.332268 -1.91336 0
M  V30 1520 O 136.839 0.667043 -1.82704 0
M  V30 1521 C 137.122 -2.81615 -2.24422 0
M  V30 1522 C 136.975 -4.20989 -1.58392 0
M  V30 1523 C 138.294 -2.96085 -3.2561 0
M  V30 1524 H 135.413 -0.592087 -0.438864 0
M  V30 1525 H 138.055 -1.83225 -0.50286 0
M  V30 1526 H 136.205 -2.64231 -2.84806 0
M  V30 1527 H 137.877 -4.49994 -1.01504 0
M  V30 1528 H 136.12 -4.24641 -0.886704 0
M  V30 1529 H 136.791 -5.0016 -2.33547 0
M  V30 1530 H 139.267 -3.12042 -2.75262 0
M  V30 1531 H 138.143 -3.80902 -3.95228 0
M  V30 1532 H 138.404 -2.0726 -3.90507 0
M  V30 1533 N 137.463 0.71206 -1.40597 0
M  V30 1534 C 138.712 1.46754 -1.38369 0
M  V30 1535 C 139.025 1.95598 0.0097839 0
M  V30 1536 O 140.231 2.71059 0.154677 0
M  V30 1537 C 138.687 2.65289 -2.43207 0
M  V30 1538 C 138.295 2.23301 -3.88382 0
M  V30 1539 C 140.039 3.43008 -2.50091 0
M  V30 1540 C 137.946 3.38696 -4.84808 0
M  V30 1541 H 136.876 0.55118 -0.514506 0
M  V30 1542 H 139.527 0.774616 -1.66349 0
M  V30 1543 H 137.909 3.36769 -2.08332 0
M  V30 1544 H 139.083 1.59218 -4.32419 0
M  V30 1545 H 137.398 1.58618 -3.85006 0
M  V30 1546 H 139.995 4.28881 -3.1932 0
M  V30 1547 H 140.338 3.87065 -1.53253 0
M  V30 1548 H 140.871 2.78574 -2.83974 0
M  V30 1549 H 137.61 2.99668 -5.82992 0
M  V30 1550 H 137.13 4.01683 -4.45433 0
M  V30 1551 H 138.809 4.04712 -5.04794 0
M  V30 1552 N 138.941 1.26152 0.944643 0
M  V30 1553 C 139.851 1.09176 2.07648 0
M  V30 1554 C 140.867 0.0261935 1.7398 0
M  V30 1555 O 142.043 0.229208 2.00091 0
M  V30 1556 C 139.108 0.722915 3.39079 0
M  V30 1557 C 138.169 1.86752 3.86552 0
M  V30 1558 C 137.402 1.51617 5.11711 0
M  V30 1559 O 137.625 0.416331 5.68879 0
M  V30 1560 O 136.559 2.34975 5.54139 0
M  V30 1561 H 140.385 2.0412 2.24875 0
M  V30 1562 H 137.97 1.05182 1.061 0
M  V30 1563 H 139.852 0.529787 4.18056 0
M  V30 1564 H 138.527 -0.197159 3.23099 0
M  V30 1565 H 137.434 2.11558 3.08535 0
M  V30 1566 H 138.767 2.76719 4.07047 0
M  V30 1567 N 140.419 -1.14872 1.07899 0
M  V30 1568 C 141.349 -2.2193 0.725887 0
M  V30 1569 C 142.33 -1.67622 -0.28927 0
M  V30 1570 O 143.515 -1.93533 -0.160787 0
M  V30 1571 C 140.645 -3.47061 0.128856 0
M  V30 1572 C 139.599 -4.14363 1.07178 0
M  V30 1573 C 138.925 -5.33636 0.337229 0
M  V30 1574 C 140.225 -4.63492 2.40775 0
M  V30 1575 H 141.919 -2.51724 1.62097 0
M  V30 1576 H 139.465 -1.20991 0.780838 0
M  V30 1577 H 141.418 -4.21199 -0.130147 0
M  V30 1578 H 140.142 -3.16617 -0.80134 0
M  V30 1579 H 138.801 -3.42173 1.3158 0
M  V30 1580 H 138.449 -4.99449 -0.596606 0
M  V30 1581 H 138.149 -5.79609 0.965788 0
M  V30 1582 H 139.673 -6.10539 0.0861567 0
M  V30 1583 H 141.087 -5.2913 2.20669 0
M  V30 1584 H 139.484 -5.20148 2.99276 0
M  V30 1585 H 140.554 -3.78834 3.02676 0
M  V30 1586 N 141.898 -0.863906 -1.31812 0
M  V30 1587 C 142.828 -0.330843 -2.31144 0
M  V30 1588 C 143.809 0.575005 -1.60087 0
M  V30 1589 O 144.994 0.493304 -1.8783 0
M  V30 1590 C 142.124 0.47374 -3.44054 0
M  V30 1591 C 141.078 -0.338481 -4.26659 0
M  V30 1592 C 140.404 0.591412 -5.31419 0
M  V30 1593 C 141.704 -1.56926 -4.98168 0
M  V30 1594 H 143.398 -1.16086 -2.75979 0
M  V30 1595 H 140.944 -0.559657 -1.32679 0
M  V30 1596 H 142.897 0.857143 -4.12591 0
M  V30 1597 H 141.621 1.33721 -2.9797 0
M  V30 1598 H 140.28 -0.703754 -3.59782 0
M  V30 1599 H 139.928 1.45199 -4.81587 0
M  V30 1600 H 139.628 0.0519022 -5.87577 0
M  V30 1601 H 141.152 0.97179 -6.02817 0
M  V30 1602 H 142.566 -1.25764 -5.59336 0
M  V30 1603 H 140.963 -2.04739 -5.64094 0
M  V30 1604 H 142.033 -2.32544 -4.25501 0
M  V30 1605 N 143.376 1.44774 -0.622745 0
M  V30 1606 C 144.653 1.95522 -0.0551974 0
M  V30 1607 C 145.033 1.5649 1.41683 0
M  V30 1608 O 144.381 0.834848 2.12703 0
M  V30 1609 C 144.591 3.4796 -0.269242 0
M  V30 1610 C 145.939 4.24306 -0.158014 0
M  V30 1611 O 146.963 3.55637 -0.200162 0
M  V30 1612 O 145.822 5.46471 -0.0558693 0
M  V30 1613 H 142.916 0.826556 0.0271015 0
M  V30 1614 H 145.462 1.54866 -0.693864 0
M  V30 1615 H 144.234 3.6939 -1.29099 0
M  V30 1616 H 143.857 3.95543 0.403966 0
M  V30 1617 N 144.854 0.36279 1.53368 0
M  V30 1618 C 146.1 -0.228113 2.01513 0
M  V30 1619 C 146.433 -1.48648 1.2497 0
M  V30 1620 O 145.708 -1.91459 0.342616 0
M  V30 1621 C 145.991 -0.522884 3.56284 0
M  V30 1622 C 145.844 0.74892 4.43521 0
M  V30 1623 C 147.163 -1.32461 4.19693 0
M  V30 1624 H 144.282 -0.0814343 0.732487 0
M  V30 1625 H 146.924 0.48713 1.83649 0
M  V30 1626 H 145.074 -1.1322 3.71636 0
M  V30 1627 H 146.746 1.38648 4.39971 0
M  V30 1628 H 144.989 1.36986 4.11603 0
M  V30 1629 H 145.66 0.497667 5.49752 0
M  V30 1630 H 148.136 -0.809203 4.08156 0
M  V30 1631 H 147.012 -1.49961 5.28018 0
M  V30 1632 H 147.273 -2.33232 3.75573 0
M  V30 1633 N 146.332 -1.57332 0.0918853 0
M  V30 1634 C 147.609 -1.85691 -0.614668 0
M  V30 1635 C 147.989 -0.988146 -1.86545 0
M  V30 1636 O 147.337 -0.0597055 -2.28422 0
M  V30 1637 C 147.547 -3.36294 -0.933126 0
M  V30 1638 C 148.895 -4.04275 -1.29796 0
M  V30 1639 O 149.919 -3.41157 -1.02424 0
M  V30 1640 O 148.778 -5.1564 -1.81047 0
M  V30 1641 H 145.872 -0.767802 -0.307261 0
M  V30 1642 H 148.418 -1.69244 0.12434 0
M  V30 1643 H 147.19 -3.91273 -0.0456404 0
M  V30 1644 H 146.813 -3.58076 -1.72822 0
M  V30 1645 N 147.81 0.181792 -1.56548 0
M  V30 1646 C 149.221 0.745244 -1.71181 0
M  V30 1647 C 149.572 1.83262 -0.70068 0
M  V30 1648 O 148.697 2.15946 0.140154 0
M  V30 1649 C 149.292 1.35859 -3.10367 0
M  V30 1650 C 147.851 1.86898 -3.2672 0
M  V30 1651 C 146.998 0.743942 -2.67134 0
M  V30 1652 H 149.949 -0.0434661 -1.5864 0
M  V30 1653 H 149.97 2.22817 -3.08436 0
M  V30 1654 H 149.482 0.566948 -3.83937 0
M  V30 1655 H 147.583 2.68738 -2.5809 0
M  V30 1656 H 147.696 2.02162 -4.34359 0
M  V30 1657 H 146.06 1.16169 -2.26665 0
M  V30 1658 H 146.843 -0.035676 -3.43281 0
M  V30 1659 N 149.288 1.51039 0.449983 0
M  V30 1660 C 150.236 1.71995 1.5659 0
M  V30 1661 C 151.23 0.586029 1.5894 0
M  V30 1662 O 152.436 0.76709 1.62837 0
M  V30 1663 H 148.811 0.543233 0.520001 0
M  V30 1664 H 150.782 2.65562 1.36085 0
M  V30 1665 C 149.531 1.8506 2.9436 0
M  V30 1666 H 148.854 2.71712 2.93279 0
M  V30 1667 H 150.294 2.0374 3.71842 0
M  V30 1668 C 148.753 0.607277 3.31382 0
M  V30 1669 O 149.283 -0.243903 4.00959 0
M  V30 1670 N 147.489 0.455073 2.87015 0
M  V30 1671 H 147.036 1.14879 2.30566 0
M  V30 1672 H 146.994 -0.375611 3.12148 0
M  V30 1673 N 150.766 -0.704594 1.40972 0
M  V30 1674 C 152.043 -1.45847 1.30338 0
M  V30 1675 C 152.423 -2.10973 -0.0732344 0
M  V30 1676 O 151.771 -2.00997 -1.08685 0
M  V30 1677 C 151.981 -2.48525 2.45023 0
M  V30 1678 C 153.329 -3.1404 2.8577 0
M  V30 1679 O 154.353 -2.58848 2.44696 0
M  V30 1680 O 153.212 -4.13981 3.56766 0
M  V30 1681 H 150.306 -0.649092 0.512454 0
M  V30 1682 H 152.852 -0.735836 1.52917 0
M  V30 1683 H 151.624 -1.98994 3.36923 0
M  V30 1684 H 151.247 -3.2831 2.24272 0
M  V30 1685 N 152.244 -1.26651 -0.937939 0
M  V30 1686 C 153.176 -1.04283 -2.04102 0
M  V30 1687 C 154.189 -0.00221014 -1.628 0
M  V30 1688 O 155.378 -0.242645 -1.76843 0
M  V30 1689 C 152.478 -0.557846 -3.34277 0
M  V30 1690 C 151.651 -1.66843 -4.04329 0
M  V30 1691 C 150.71 -1.18095 -5.12777 0
M  V30 1692 O 149.736 -1.87865 -5.37304 0
M  V30 1693 N 150.938 -0.0311006 -5.80492 0
M  V30 1694 H 153.703 -1.9927 -2.23856 0
M  V30 1695 H 151.264 -1.1808 -1.10764 0
M  V30 1696 H 153.256 -0.215836 -4.04124 0
M  V30 1697 H 151.826 0.298523 -3.11171 0
M  V30 1698 H 151.046 -2.18123 -3.28353 0
M  V30 1699 H 152.334 -2.41408 -4.47883 0
M  V30 1700 H 151.732 0.551486 -5.63005 0
M  V30 1701 H 150.289 0.251809 -6.51313 0
M  V30 1702 N 153.722 1.14298 -1.08507 0
M  V30 1703 C 154.632 2.23027 -0.727753 0
M  V30 1704 C 155.648 1.71952 0.26619 0
M  V30 1705 O 156.824 2.011 0.109882 0
M  V30 1706 C 153.889 3.46403 -0.143541 0
M  V30 1707 C 152.95 4.12413 -1.19223 0
M  V30 1708 C 152.183 5.29899 -0.635798 0
M  V30 1709 O 152.406 5.67796 0.544393 0
M  V30 1710 O 151.34 5.85717 -1.38634 0
M  V30 1711 H 155.166 2.55945 -1.63481 0
M  V30 1712 H 152.751 1.22248 -0.858817 0
M  V30 1713 H 154.633 4.21018 0.179404 0
M  V30 1714 H 153.308 3.15206 0.736659 0
M  V30 1715 H 152.215 3.39667 -1.56772 0
M  V30 1716 H 153.548 4.47718 -2.04474 0
M  V30 1717 N 155.201 0.870884 1.31352 0
M  V30 1718 C 156.111 0.330783 2.32256 0
M  V30 1719 C 157.127 -0.559767 1.6475 0
M  V30 1720 O 158.303 -0.456263 1.96164 0
M  V30 1721 C 155.368 -0.458137 3.4366 0
M  V30 1722 C 154.429 0.460482 4.26823 0
M  V30 1723 C 153.662 -0.290881 5.32907 0
M  V30 1724 O 153.885 -1.51885 5.49806 0
M  V30 1725 O 152.819 0.351732 6.00871 0
M  V30 1726 H 156.645 1.16718 2.80376 0
M  V30 1727 H 154.23 0.634285 1.35267 0
M  V30 1728 H 156.112 -0.905343 4.1156 0
M  V30 1729 H 154.787 -1.27106 2.97701 0
M  V30 1730 H 153.694 0.956207 3.61673 0
M  V30 1731 H 155.027 1.23903 4.7635 0
M  V30 1732 N 156.679 -1.44442 0.630414 0
M  V30 1733 C 157.956 -1.9549 0.0655657 0
M  V30 1734 C 158.336 -1.5724 -1.40851 0
M  V30 1735 O 157.684 -0.846116 -2.12257 0
M  V30 1736 C 157.894 -3.47812 0.287691 0
M  V30 1737 C 159.242 -4.24216 0.180513 0
M  V30 1738 O 160.266 -3.55526 0.219019 0
M  V30 1739 O 159.125 -5.46434 0.0848493 0
M  V30 1740 H 156.219 -0.826688 -0.0227177 0
M  V30 1741 H 158.765 -1.54496 0.702068 0
M  V30 1742 H 157.537 -3.687 1.31056 0
M  V30 1743 H 157.16 -3.95751 -0.382984 0
M  V30 1744 N 158.157 -0.370918 -1.53173 0
M  V30 1745 C 159.405 0.216673 -2.00935 0
M  V30 1746 C 159.726 1.48845 -1.25977 0
M  V30 1747 O 158.996 1.92286 -0.374551 0
M  V30 1748 H 157.576 0.0830565 -0.742368 0
M  V30 1749 H 160.238 -0.49838 -1.8842 0
M  V30 1750 H 159.334 0.439893 -3.08984 0
M  V30 1751 N 159.635 1.57281 -0.100228 0
M  V30 1752 C 160.598 2.13158 0.842398 0
M  V30 1753 C 161.598 1.06202 1.20738 0
M  V30 1754 O 162.788 1.32066 1.13597 0
M  V30 1755 C 159.92 2.65639 2.13655 0
M  V30 1756 H 161.113 2.97766 0.357114 0
M  V30 1757 H 158.666 1.5559 0.148823 0
M  V30 1758 H 159.401 1.84566 2.66657 0
M  V30 1759 H 159.186 3.43844 1.88451 0
M  V30 1760 H 160.676 3.08846 2.81077 0
M  V30 1761 N 161.113 -0.173488 1.56642 0
M  V30 1762 C 162.061 -1.23417 1.97157 0
M  V30 1763 C 163.055 -1.45946 0.860013 0
M  V30 1764 O 164.261 -1.46551 1.04512 0
M  V30 1765 H 160.636 -0.414818 0.62724 0
M  V30 1766 H 162.607 -0.865582 2.8557 0
M  V30 1767 C 161.356 -2.5665 2.34576 0
M  V30 1768 H 160.679 -2.40137 3.19647 0
M  V30 1769 H 162.119 -3.2956 2.6677 0
M  V30 1770 C 160.578 -3.15245 1.18836 0
M  V30 1771 O 161.108 -3.98883 0.474869 0
M  V30 1772 N 159.314 -2.74303 0.959497 0
M  V30 1773 H 158.861 -2.0639 1.54146 0
M  V30 1774 H 158.819 -3.13844 0.186932 0
M  V30 1775 N 162.591 -1.51276 -0.441967 0
M  V30 1776 C 163.84 -1.6295 -1.18871 0
M  V30 1777 C 164.153 -0.349312 -1.92456 0
M  V30 1778 O 165.359 -0.345355 -2.69295 0
M  V30 1779 C 163.815 -2.87759 -2.16155 0
M  V30 1780 C 163.423 -4.22764 -1.48239 0
M  V30 1781 C 165.167 -3.08788 -2.91291 0
M  V30 1782 C 163.074 -5.38728 -2.4398 0
M  V30 1783 H 162.004 -0.606913 -0.447406 0
M  V30 1784 H 164.655 -1.77739 -0.456205 0
M  V30 1785 H 163.037 -2.66593 -2.92821 0
M  V30 1786 H 164.211 -4.54293 -0.771635 0
M  V30 1787 H 162.526 -4.07575 -0.852741 0
M  V30 1788 H 165.123 -3.92599 -3.63002 0
M  V30 1789 H 165.466 -2.21679 -3.5237 0
M  V30 1790 H 165.999 -3.30272 -2.21733 0
M  V30 1791 H 162.738 -6.28082 -1.87598 0
M  V30 1792 H 162.258 -5.1158 -3.13123 0
M  V30 1793 H 163.937 -5.70489 -3.05207 0
M  V30 1794 N 164.069 0.697108 -1.41344 0
M  V30 1795 C 165.346 1.45154 -1.31109 0
M  V30 1796 C 165.726 2.11009 0.0620449 0
M  V30 1797 O 165.074 2.01571 1.07618 0
M  V30 1798 C 165.284 2.47223 -2.46337 0
M  V30 1799 C 166.632 3.1252 -2.87431 0
M  V30 1800 O 167.656 2.57547 -2.46065 0
M  V30 1801 O 166.515 4.12083 -3.58957 0
M  V30 1802 H 163.609 0.646365 -0.515889 0
M  V30 1803 H 166.155 0.727716 -1.53305 0
M  V30 1804 H 164.927 1.97204 -3.37974 0
M  V30 1805 H 164.55 3.27116 -2.2601 0
M  V30 1806 N 165.547 1.27147 0.931209 0
M  V30 1807 C 166.477 1.12081 2.04842 0
M  V30 1808 C 167.458 0.0232364 1.70084 0
M  V30 1809 O 168.643 0.197085 1.93197 0
M  V30 1810 C 165.773 0.76354 3.38803 0
M  V30 1811 C 164.727 1.81396 3.87659 0
M  V30 1812 C 164.053 1.31075 5.18385 0
M  V30 1813 C 165.353 3.21739 4.11438 0
M  V30 1814 H 167.047 2.05537 2.17703 0
M  V30 1815 H 164.593 0.989603 1.04608 0
M  V30 1816 H 166.546 0.644982 4.16435 0
M  V30 1817 H 165.27 -0.206727 3.25945 0
M  V30 1818 H 163.929 1.92136 3.12217 0
M  V30 1819 H 163.577 0.330037 5.01916 0
M  V30 1820 H 163.277 2.013 5.52044 0
M  V30 1821 H 164.801 1.20506 5.98591 0
M  V30 1822 H 166.215 3.14019 4.79651 0
M  V30 1823 H 164.612 3.89644 4.56397 0
M  V30 1824 H 165.682 3.67054 3.16859 0
M  V30 1825 N 167.025 -1.13721 1.09112 0
M  V30 1826 C 168.302 -1.81155 0.737706 0
M  V30 1827 C 168.682 -1.96253 -0.777683 0
M  V30 1828 O 168.03 -1.52807 -1.69889 0
M  V30 1829 C 168.24 -3.16392 1.47299 0
M  V30 1830 C 169.588 -3.91787 1.63671 0
M  V30 1831 O 170.612 -3.26005 1.43524 0
M  V30 1832 O 169.471 -5.0977 1.96969 0
M  V30 1833 H 166.565 -0.783518 0.26463 0
M  V30 1834 H 169.111 -1.20676 1.19312 0
M  V30 1835 H 167.883 -3.0061 2.50498 0
M  V30 1836 H 167.506 -3.8457 1.00953 0
M  V30 1837 N 168.503 -0.877838 -1.30888 0
M  V30 1838 C 169.728 -0.506629 -2.01117 0
M  V30 1839 C 170.153 0.895564 -1.65412 0
M  V30 1840 O 169.511 1.5923 -0.866922 0
M  V30 1841 C 169.559 -0.680223 -3.54126 0
M  V30 1842 O 168.663 0.277033 -4.11468 0
M  V30 1843 H 168.004 -0.200518 -0.633 0
M  V30 1844 H 170.534 -1.18342 -1.66902 0
M  V30 1845 H 170.544 -0.5765 -4.03907 0
M  V30 1846 H 169.219 -1.70261 -3.79452 0
M  V30 1847 H 167.796 0.127606 -3.72682 0
M  V30 1848 N 169.982 1.44106 -0.638065 0
M  V30 1849 C 170.914 2.28976 0.101205 0
M  V30 1850 C 171.927 1.4167 0.802088 0
M  V30 1851 O 173.116 1.65755 0.662375 0
M  V30 1852 C 170.216 3.18217 1.16581 0
M  V30 1853 C 169.389 4.33978 0.546066 0
M  V30 1854 C 168.448 5.04202 1.50554 0
M  V30 1855 O 167.474 5.59986 1.01999 0
M  V30 1856 N 168.676 5.06296 2.8398 0
M  V30 1857 H 171.441 2.93064 -0.627186 0
M  V30 1858 H 169.002 1.54629 -0.479731 0
M  V30 1859 H 170.994 3.62061 1.80815 0
M  V30 1860 H 169.564 2.55833 1.79634 0
M  V30 1861 H 168.784 3.93239 -0.275046 0
M  V30 1862 H 170.072 5.08675 0.112793 0
M  V30 1863 H 169.47 4.62319 3.26002 0
M  V30 1864 H 168.027 5.53907 3.43556 0
M  V30 1865 N 171.46 0.379036 1.52974 0
M  V30 1866 C 172.876 0.0285448 1.59574 0
M  V30 1867 C 173.076 -1.45542 1.39355 0
M  V30 1868 O 172.132 -2.2187 1.20541 0
M  V30 1869 C 173.445 0.496535 2.96572 0
M  V30 1870 C 174.993 0.451909 3.0972 0
M  V30 1871 C 175.468 0.895924 4.49152 0
M  V30 1872 N 176.959 0.851522 4.55306 0
M  V30 1873 C 177.694 1.16661 5.61407 0
M  V30 1874 N 177.19 1.55166 6.752 0
M  V30 1875 N 178.983 1.08853 5.51459 0
M  V30 1876 H 171.134 1.34525 1.64367 0
M  V30 1877 H 173.397 0.550733 0.771619 0
M  V30 1878 H 173.103 1.53258 3.16552 0
M  V30 1879 H 172.977 -0.109802 3.7704 0
M  V30 1880 H 175.364 -0.575029 2.89443 0
M  V30 1881 H 175.445 1.09392 2.3123 0
M  V30 1882 H 175.089 1.92104 4.70168 0
M  V30 1883 H 175.019 0.23103 5.26093 0
M  V30 1884 H 177.51 0.568038 3.73606 0
M  V30 1885 H 177.823 1.776 7.52116 0
M  V30 1886 H 176.168 1.59044 6.76557 0
M  V30 1887 H 179.359 0.786803 4.6144 0
M  V30 1888 H 179.532 1.33742 6.34048 0
M  V30 1889 N 172.938 -1.57226 0.108567 0
M  V30 1890 C 173.885 -2.14756 -0.845481 0
M  V30 1891 C 174.855 -1.06971 -1.27068 0
M  V30 1892 O 176.04 -1.34827 -1.35005 0
M  V30 1893 C 173.18 -2.74298 -2.09415 0
M  V30 1894 C 172.293 -3.96358 -1.71826 0
M  V30 1895 C 171.428 -4.44021 -2.9158 0
M  V30 1896 C 170.467 -5.58637 -2.50181 0
M  V30 1897 N 169.604 -6.01091 -3.62814 0
M  V30 1898 H 174.444 -2.95961 -0.348035 0
M  V30 1899 H 171.981 -1.46226 -0.160106 0
M  V30 1900 H 173.939 -3.06945 -2.82561 0
M  V30 1901 H 172.569 -1.95801 -2.56636 0
M  V30 1902 H 171.621 -3.69939 -0.885947 0
M  V30 1903 H 172.933 -4.79504 -1.37394 0
M  V30 1904 H 172.087 -4.78522 -3.72963 0
M  V30 1905 H 170.826 -3.59803 -3.29231 0
M  V30 1906 H 169.831 -5.23751 -1.67228 0
M  V30 1907 H 171.056 -6.44613 -2.13659 0
M  V30 1908 H 169.002 -5.19817 -4.00158 0
M  V30 1909 H 168.919 -6.79066 -3.32273 0
M  V30 1910 H 170.187 -6.40227 -4.44668 0
M  V30 1911 N 174.416 0.165178 -1.56732 0
M  V30 1912 C 175.664 0.879068 -1.8198 0
M  V30 1913 C 175.985 1.82514 -0.686561 0
M  V30 1914 O 175.255 1.93694 0.293146 0
M  V30 1915 H 173.835 0.327608 -0.671329 0
M  V30 1916 H 176.497 0.163526 -1.94213 0
M  V30 1917 H 175.593 1.45228 -2.76252 0
M  V30 1918 N 175.894 1.51508 0.433938 0
M  V30 1919 C 176.841 1.73068 1.52696 0
M  V30 1920 C 177.811 0.572441 1.55924 0
M  V30 1921 O 178.996 0.807253 1.72882 0
M  V30 1922 C 176.136 1.86474 2.90381 0
M  V30 1923 C 175.249 3.14037 2.96656 0
M  V30 1924 C 174.384 3.18019 4.25485 0
M  V30 1925 C 173.423 4.39882 4.2564 0
M  V30 1926 N 172.56 4.41394 5.45999 0
M  V30 1927 H 177.4 2.66366 1.33615 0
M  V30 1928 H 174.937 1.32008 0.649018 0
M  V30 1929 H 176.895 1.92229 3.70275 0
M  V30 1930 H 175.525 0.965809 3.08013 0
M  V30 1931 H 174.577 3.17575 2.09404 0
M  V30 1932 H 175.889 4.0394 2.92633 0
M  V30 1933 H 175.043 3.22708 5.13755 0
M  V30 1934 H 173.782 2.2601 4.3217 0
M  V30 1935 H 172.787 4.35366 3.35763 0
M  V30 1936 H 174.012 5.33159 4.20617 0
M  V30 1937 H 171.958 3.52258 5.53399 0
M  V30 1938 H 171.875 5.25111 5.4387 0
M  V30 1939 H 173.143 4.50281 6.36292 0
M  V30 1940 N 177.372 -0.689602 1.41712 0
M  V30 1941 C 178.612 -1.46184 1.42862 0
M  V30 1942 C 178.976 -1.91962 0.0382204 0
M  V30 1943 O 180.177 -2.68694 -0.0755019 0
M  V30 1944 C 178.448 -2.6371 2.4123 0
M  V30 1945 S 180.007 -3.52768 2.6096 0
M  V30 1946 H 176.825 -0.49947 0.506015 0
M  V30 1947 H 179.427 -0.804107 1.78198 0
M  V30 1948 H 178.131 -2.28293 3.41044 0
M  V30 1949 H 177.662 -3.3437 2.07269 0
M  V30 1950 H 179.677 -4.59146 1.88148 0
M  V30 1951 N 178.85 -1.27639 -0.924453 0
M  V30 1952 C 179.813 -1.10681 -2.00705 0
M  V30 1953 C 180.813 -0.0497823 -1.60723 0
M  V30 1954 O 182.003 -0.294654 -1.7169 0
M  V30 1955 C 179.135 -0.687164 -3.33902 0
M  V30 1956 H 180.328 -2.06817 -2.17179 0
M  V30 1957 H 177.881 -1.10473 -1.10569 0
M  V30 1958 H 178.616 0.275439 -3.23128 0
M  V30 1959 H 178.401 -1.45061 -3.6428 0
M  V30 1960 H 179.891 -0.590853 -4.13399 0
M  V30 1961 N 180.328 1.1314 -1.09713 0
M  V30 1962 C 181.574 1.84757 -0.836224 0
M  V30 1963 C 181.907 1.8347 0.636598 0
M  V30 1964 O 181.182 1.27491 1.46889 0
M  V30 1965 C 181.465 3.32782 -1.37578 0
M  V30 1966 C 181.318 3.42567 -2.91493 0
M  V30 1967 C 182.637 4.28307 -1.01198 0
M  V30 1968 H 179.756 0.67082 -0.305236 0
M  V30 1969 H 182.398 1.3278 -1.35903 0
M  V30 1970 H 180.548 3.77177 -0.931097 0
M  V30 1971 H 182.22 3.06862 -3.44432 0
M  V30 1972 H 180.463 2.83349 -3.28475 0
M  V30 1973 H 181.134 4.46674 -3.24324 0
M  V30 1974 H 183.61 3.91999 -1.39556 0
M  V30 1975 H 182.486 5.30307 -1.41653 0
M  V30 1976 H 182.747 4.42029 0.0794833 0
M  V30 1977 N 181.806 0.884767 1.30421 0
M  V30 1978 C 183.055 0.499164 1.95426 0
M  V30 1979 C 183.368 -0.95645 1.70621 0
M  V30 1980 O 184.574 -1.44889 2.29607 0
M  V30 1981 C 183.03 0.84177 3.49917 0
M  V30 1982 C 182.638 2.31514 3.83543 0
M  V30 1983 C 184.382 0.525355 4.21237 0
M  V30 1984 C 182.289 2.59939 5.31212 0
M  V30 1985 H 181.219 0.182944 0.73147 0
M  V30 1986 H 183.87 1.07971 1.48373 0
M  V30 1987 H 182.252 0.190311 3.95542 0
M  V30 1988 H 183.426 3.0109 3.48829 0
M  V30 1989 H 181.741 2.59907 3.25326 0
M  V30 1990 H 184.338 0.714762 5.29901 0
M  V30 1991 H 184.681 -0.535222 4.12845 0
M  V30 1992 H 185.214 1.134 3.81294 0
M  V30 1993 H 181.953 3.64736 5.44654 0
M  V30 1994 H 181.473 1.94972 5.67227 0
M  V30 1995 H 183.152 2.45429 5.98643 0
M  V30 1996 N 183.284 -1.43765 0.645699 0
M  V30 1997 C 184.231 -2.30745 -0.0504648 0
M  V30 1998 C 185.201 -1.4432 -0.822241 0
M  V30 1999 O 186.386 -1.73202 -0.800358 0
M  V30 2000 C 183.526 -3.29802 -1.0161 0
M  V30 2001 C 182.639 -4.31326 -0.241219 0
M  V30 2002 C 181.774 -5.17469 -1.19998 0
M  V30 2003 C 180.813 -6.10691 -0.415094 0
M  V30 2004 N 179.95 -6.89483 -1.32506 0
M  V30 2005 H 184.79 -2.8973 0.697155 0
M  V30 2006 H 182.327 -1.42738 0.355563 0
M  V30 2007 H 184.285 -3.85734 -1.58949 0
M  V30 2008 H 182.915 -2.72483 -1.73069 0
M  V30 2009 H 181.967 -3.77749 0.448334 0
M  V30 2010 H 183.279 -4.9743 0.369437 0
M  V30 2011 H 182.433 -5.7799 -1.84424 0
M  V30 2012 H 181.172 -4.51473 -1.84455 0
M  V30 2013 H 180.177 -5.49265 0.242565 0
M  V30 2014 H 181.402 -6.78727 0.224966 0
M  V30 2015 H 179.348 -6.26142 -1.95657 0
M  V30 2016 H 179.265 -7.52081 -0.768783 0
M  V30 2017 H 180.533 -7.54516 -1.9577 0
M  V30 2018 N 184.763 -0.387143 -1.52771 0
M  V30 2019 C 185.991 0.195869 -2.05971 0
M  V30 2020 C 186.406 1.40691 -1.25903 0
M  V30 2021 O 185.763 1.79931 -0.305134 0
M  V30 2022 C 185.814 0.56812 -3.57008 0
M  V30 2023 O 185.535 -0.594803 -4.34043 0
M  V30 2024 C 187.036 1.20723 -4.26545 0
M  V30 2025 H 184.256 0.0300578 -0.670326 0
M  V30 2026 H 186.8 -0.551749 -1.96916 0
M  V30 2027 H 184.955 1.26564 -3.66143 0
M  V30 2028 H 185.369 -0.289322 -5.23701 0
M  V30 2029 H 186.843 1.41807 -5.33474 0
M  V30 2030 H 187.32 2.17395 -3.81623 0
M  V30 2031 H 187.926 0.550535 -4.21722 0
M  V30 2032 N 186.241 1.57166 -0.116904 0
M  V30 2033 C 187.466 1.999 0.55271 0
M  V30 2034 C 187.891 0.996039 1.59564 0
M  V30 2035 O 187.249 -0.032556 1.81271 0
M  V30 2036 C 187.297 3.4152 1.15742 0
M  V30 2037 O 186.401 3.44106 2.27299 0
M  V30 2038 H 185.742 0.649447 0.138258 0
M  V30 2039 H 188.272 2.03573 -0.204759 0
M  V30 2040 H 188.282 3.79684 1.49346 0
M  V30 2041 H 186.957 4.14034 0.393493 0
M  V30 2042 H 185.534 3.17759 1.9515 0
M  V30 2043 N 187.719 -0.156864 1.56817 0
M  V30 2044 C 188.947 -0.886316 1.86955 0
M  V30 2045 C 189.362 -1.75185 0.703975 0
M  V30 2046 O 188.719 -1.79555 -0.326552 0
M  V30 2047 C 188.77 -1.75117 3.16253 0
M  V30 2048 O 188.491 -0.920537 4.2832 0
M  V30 2049 C 189.992 -2.58905 3.59837 0
M  V30 2050 H 187.212 -0.25678 0.619923 0
M  V30 2051 H 189.756 -0.152615 2.0393 0
M  V30 2052 H 187.911 -2.43805 3.01062 0
M  V30 2053 H 188.325 -1.51337 5.02192 0
M  V30 2054 H 189.799 -3.1518 4.53172 0
M  V30 2055 H 190.276 -3.34472 2.84649 0
M  V30 2056 H 190.882 -1.95526 3.7769 0
M  V30 2057 N 189.197 -1.51736 -0.425897 0
M  V30 2058 C 190.613 -1.40166 -0.76326 0
M  V30 2059 C 190.813 -0.492962 -1.95377 0
M  V30 2060 O 189.869 0.0475815 -2.52455 0
M  V30 2061 C 191.182 -2.82403 -1.03291 0
M  V30 2062 C 192.73 -2.91632 -1.13665 0
M  V30 2063 C 193.205 -4.34801 -1.43916 0
M  V30 2064 N 194.696 -4.3796 -1.50816 0
M  V30 2065 C 195.431 -5.4578 -1.75817 0
M  V30 2066 N 194.927 -6.63744 -1.98534 0
M  V30 2067 N 196.72 -5.33274 -1.77694 0
M  V30 2068 H 188.871 -2.09361 0.358 0
M  V30 2069 H 191.134 -0.942941 0.0978094 0
M  V30 2070 H 190.84 -3.50943 -0.230696 0
M  V30 2071 H 190.714 -3.22428 -1.95754 0
M  V30 2072 H 193.101 -2.23284 -1.92947 0
M  V30 2073 H 193.182 -2.55088 -0.190756 0
M  V30 2074 H 192.826 -5.03703 -0.65157 0
M  V30 2075 H 192.756 -4.68868 -2.39729 0
M  V30 2076 H 195.247 -3.52919 -1.35118 0
M  V30 2077 H 195.56 -7.41704 -2.17013 0
M  V30 2078 H 193.905 -6.66839 -1.95832 0
M  V30 2079 H 197.096 -4.40098 -1.59473 0
M  V30 2080 H 197.269 -6.1738 -1.9684 0
M  V30 2081 N 190.675 0.682077 -1.42076 0
M  V30 2082 C 191.607 1.80755 -1.40926 0
M  V30 2083 C 192.62 1.59833 -0.309398 0
M  V30 2084 O 193.809 1.69087 -0.572014 0
M  V30 2085 C 190.909 3.17744 -1.17865 0
M  V30 2086 C 190.082 3.65578 -2.40149 0
M  V30 2087 C 189.141 4.81277 -2.12742 0
M  V30 2088 O 188.167 4.92197 -2.85887 0
M  V30 2089 N 189.369 5.69474 -1.12602 0
M  V30 2090 H 192.134 1.82229 -2.37935 0
M  V30 2091 H 189.695 0.864903 -1.36861 0
M  V30 2092 H 191.687 3.9279 -0.9746 0
M  V30 2093 H 190.257 3.11214 -0.294068 0
M  V30 2094 H 189.477 2.81291 -2.76169 0
M  V30 2095 H 190.765 3.94278 -3.21593 0
M  V30 2096 H 190.163 5.63297 -0.520899 0
M  V30 2097 H 188.72 6.44363 -0.981842 0
M  V30 2098 N 192.153 1.28127 0.917671 0
M  V30 2099 C 193.381 1.17892 1.70026 0
M  V30 2100 C 193.796 -0.262958 1.8696 0
M  V30 2101 O 193.153 -1.17811 1.3938 0
M  V30 2102 C 193.204 1.86872 3.09453 0
M  V30 2103 O 192.925 3.25428 2.93306 0
M  V30 2104 C 194.426 1.8289 4.03815 0
M  V30 2105 H 191.646 0.40942 0.531617 0
M  V30 2106 H 194.19 1.69181 1.14883 0
M  V30 2107 H 192.345 1.39464 3.61426 0
M  V30 2108 H 192.759 3.59918 3.81523 0
M  V30 2109 H 194.233 2.35751 4.99125 0
M  V30 2110 H 194.71 0.800412 4.31845 0
M  V30 2111 H 195.316 2.29959 3.57769 0
M  V30 2112 N 193.631 -1.12557 1.10312 0
M  V30 2113 C 194.861 -1.87592 0.865617 0
M  V30 2114 C 195.269 -1.79851 -0.587389 0
M  V30 2115 O 194.612 -1.16949 -1.41664 0
M  V30 2116 C 194.674 -3.37665 1.23381 0
M  V30 2117 C 194.338 -3.69181 2.69359 0
M  V30 2118 C 195.335 -3.67652 3.67597 0
M  V30 2119 C 193.02 -3.98555 3.05711 0
M  V30 2120 C 195.014 -3.95053 5.00212 0
M  V30 2121 C 192.701 -4.25616 4.38514 0
M  V30 2122 C 193.699 -4.23851 5.35574 0
M  V30 2123 O 193.387 -4.50242 6.65986 0
M  V30 2124 H 193.119 -0.600442 0.310557 0
M  V30 2125 H 195.673 -1.4335 1.47105 0
M  V30 2126 H 193.903 -3.82454 0.571467 0
M  V30 2127 H 195.592 -3.94041 0.973994 0
M  V30 2128 H 196.358 -3.45024 3.40857 0
M  V30 2129 H 192.237 -3.99071 2.30789 0
M  V30 2130 H 195.781 -3.93591 5.75962 0
M  V30 2131 H 191.678 -4.47718 4.64994 0
M  V30 2132 H 192.446 -4.67867 6.71597 0
M  V30 2133 N 195.109 -0.891671 -1.2995 0
M  V30 2134 C 196.356 -0.513501 -1.95881 0
M  V30 2135 C 196.684 0.938655 -1.70351 0
M  V30 2136 O 195.939 1.67936 -1.00478 0
M  V30 2137 C 196.238 -0.742868 -3.49594 0
M  V30 2138 C 195.904 -2.17114 -3.95186 0
M  V30 2139 C 194.566 -2.56169 -4.07346 0
M  V30 2140 C 196.918 -3.10162 -4.18866 0
M  V30 2141 C 194.246 -3.87469 -4.4055 0
M  V30 2142 C 196.598 -4.41001 -4.53542 0
M  V30 2143 C 195.262 -4.79941 -4.63911 0
M  V30 2144 H 194.532 -0.187903 -0.71678 0
M  V30 2145 H 197.179 -1.1288 -1.54694 0
M  V30 2146 H 195.484 -0.044586 -3.91775 0
M  V30 2147 H 197.181 -0.429767 -3.9869 0
M  V30 2148 H 193.771 -1.85801 -3.86233 0
M  V30 2149 H 197.955 -2.81206 -4.08946 0
M  V30 2150 H 193.211 -4.17371 -4.46779 0
M  V30 2151 H 197.385 -5.13133 -4.70815 0
M  V30 2152 H 195.012 -5.81719 -4.89395 0
M  V30 2153 N 196.587 1.43421 -0.653314 0
M  V30 2154 C 197.517 2.33487 0.0246656 0
M  V30 2155 C 198.498 1.49475 0.811863 0
M  V30 2156 O 199.683 1.78139 0.773322 0
M  V30 2157 C 196.813 3.32841 0.99166 0
M  V30 2158 C 195.767 4.26842 0.314568 0
M  V30 2159 C 195.093 5.16236 1.39302 0
M  V30 2160 C 196.393 5.16243 -0.793095 0
M  V30 2161 H 198.087 2.90427 -0.727481 0
M  V30 2162 H 195.633 1.39649 -0.351287 0
M  V30 2163 H 197.586 3.94747 1.47487 0
M  V30 2164 H 196.31 2.74158 1.77497 0
M  V30 2165 H 194.969 3.663 -0.148199 0
M  V30 2166 H 194.617 4.53891 2.16776 0
M  V30 2167 H 194.317 5.79948 0.945223 0
M  V30 2168 H 195.841 5.81015 1.87759 0
M  V30 2169 H 197.255 5.71958 -0.392039 0
M  V30 2170 H 195.652 5.88676 -1.16536 0
M  V30 2171 H 196.722 4.55927 -1.65103 0
M  V30 2172 N 198.065 0.39524 1.52563 0
M  V30 2173 C 199.476 -0.0774719 1.86539 0
M  V30 2174 C 199.827 -1.45641 1.31466 0
M  V30 2175 O 198.952 -2.06459 0.648367 0
M  V30 2176 C 199.547 -0.147356 3.38479 0
M  V30 2177 C 198.106 -0.564373 3.72145 0
M  V30 2178 C 197.253 0.269919 2.75983 0
M  V30 2179 H 200.204 0.612876 1.46388 0
M  V30 2180 H 200.225 -0.965343 3.68051 0
M  V30 2181 H 199.737 0.856387 3.78534 0
M  V30 2182 H 197.838 -1.57527 3.37663 0
M  V30 2183 H 197.951 -0.318402 4.78041 0
M  V30 2184 H 196.315 -0.265696 2.5331 0
M  V30 2185 H 197.098 1.27175 3.18875 0
M  V30 2186 N 199.544 -1.57102 0.125237 0
M  V30 2187 C 200.79 -1.95697 -0.532035 0
M  V30 2188 C 201.123 -1.009 -1.6593 0
M  V30 2189 O 200.398 -0.047347 -1.94442 0
M  V30 2190 C 200.681 -3.44181 -1.05884 0
M  V30 2191 C 200.534 -4.49752 0.0654392 0
M  V30 2192 C 201.853 -3.94655 -1.9477 0
M  V30 2193 H 198.972 -0.711571 -0.191925 0
M  V30 2194 H 201.614 -1.88923 0.20206 0
M  V30 2195 H 199.764 -3.50085 -1.68442 0
M  V30 2196 H 201.436 -4.55943 0.700982 0
M  V30 2197 H 199.679 -4.27653 0.727709 0
M  V30 2198 H 200.35 -5.50924 -0.344505 0
M  V30 2199 H 202.826 -3.91094 -1.42074 0
M  V30 2200 H 201.702 -4.99057 -2.28546 0
M  V30 2201 H 201.963 -3.35718 -2.87656 0
M  V30 2202 N 201.022 0.148545 -1.56898 0
M  V30 2203 C 202.271 0.85984 -1.82454 0
M  V30 2204 C 202.584 1.82406 -0.706229 0
M  V30 2205 O 203.79 2.57938 -0.847349 0
M  V30 2206 C 202.246 1.57967 -3.2338 0
M  V30 2207 C 201.854 0.65794 -4.43142 0
M  V30 2208 C 203.598 2.27784 -3.58211 0
M  V30 2209 C 201.505 1.3793 -5.75091 0
M  V30 2210 H 200.435 0.324834 -0.68044 0
M  V30 2211 H 203.086 0.112588 -1.83154 0
M  V30 2212 H 201.468 2.37249 -3.17063 0
M  V30 2213 H 202.642 -0.0995497 -4.60692 0
M  V30 2214 H 200.957 0.0682643 -4.16344 0
M  V30 2215 H 203.554 2.8239 -4.54048 0
M  V30 2216 H 203.897 3.04204 -2.84193 0
M  V30 2217 H 204.43 1.55421 -3.66182 0
M  V30 2218 H 201.169 0.656982 -6.52199 0
M  V30 2219 H 200.689 2.10954 -5.61479 0
M  V30 2220 H 202.368 1.92063 -6.17835 0
M  V30 2221 N 202.5 1.5196 0.417844 0
M  V30 2222 C 203.748 1.65263 1.16329 0
M  V30 2223 C 204.069 0.380634 1.91249 0
M  V30 2224 O 203.339 -0.604214 1.86349 0
M  V30 2225 H 201.919 0.60912 0.432414 0
M  V30 2226 H 204.581 1.88969 0.477162 0
M  V30 2227 H 203.677 2.4896 1.88217 0
M  V30 2228 N 203.978 -0.674533 1.42435 0
M  V30 2229 C 204.908 -1.80009 1.48724 0
M  V30 2230 C 205.889 -1.6659 0.343793 0
M  V30 2231 O 207.074 -1.86007 0.558137 0
M  V30 2232 C 204.204 -3.18306 1.38919 0
M  V30 2233 C 203.158 -3.46461 2.51294 0
M  V30 2234 C 202.484 -4.84335 2.26547 0
M  V30 2235 C 203.784 -3.43328 3.93603 0
M  V30 2236 H 205.478 -1.75004 2.42928 0
M  V30 2237 H 203.024 -0.840533 1.16923 0
M  V30 2238 H 204.977 -3.9678 1.41927 0
M  V30 2239 H 203.701 -3.2399 0.412094 0
M  V30 2240 H 202.36 -2.70348 2.47604 0
M  V30 2241 H 202.008 -4.86669 1.2713 0
M  V30 2242 H 201.708 -5.04136 3.01861 0
M  V30 2243 H 203.232 -5.65094 2.31304 0
M  V30 2244 H 204.646 -4.11772 3.98894 0
M  V30 2245 H 203.043 -3.74664 4.68771 0
M  V30 2246 H 204.113 -2.41897 4.20255 0
M  V30 2247 N 205.456 -1.28612 -0.910864 0
M  V30 2248 C 206.702 -1.16106 -1.66274 0
M  V30 2249 C 207.035 0.289113 -1.92036 0
M  V30 2250 O 206.31 1.21 -1.52281 0
M  V30 2251 C 206.593 -1.96309 -3.01885 0
M  V30 2252 C 206.446 -3.49405 -2.8326 0
M  V30 2253 C 207.765 -1.78076 -4.02463 0
M  V30 2254 H 204.884 -0.423152 -0.603417 0
M  V30 2255 H 207.526 -1.57961 -1.05586 0
M  V30 2256 H 205.676 -1.60742 -3.53687 0
M  V30 2257 H 207.348 -3.94894 -2.38446 0
M  V30 2258 H 205.591 -3.74893 -2.18261 0
M  V30 2259 H 206.262 -4.00784 -3.79574 0
M  V30 2260 H 208.738 -2.0912 -3.59733 0
M  V30 2261 H 207.614 -2.36561 -4.95308 0
M  V30 2262 H 207.875 -0.733008 -4.35981 0
M  V30 2263 N 206.934 1.1197 -1.10907 0
M  V30 2264 C 208.211 1.79959 -0.766432 0
M  V30 2265 C 208.591 1.97466 0.746363 0
M  V30 2266 O 207.939 1.55491 1.67436 0
M  V30 2267 C 208.149 3.14009 -1.52314 0
M  V30 2268 C 209.497 3.89134 -1.69883 0
M  V30 2269 O 210.521 3.2368 -1.48692 0
M  V30 2270 O 209.38 5.06572 -2.05054 0
M  V30 2271 H 206.474 0.779208 -0.277062 0
M  V30 2272 H 209.02 1.18762 -1.21217 0
M  V30 2273 H 207.792 2.96587 -2.55249 0
M  V30 2274 H 207.415 3.82915 -1.07059 0
M  V30 2275 N 208.412 0.89855 1.29475 0
M  V30 2276 C 209.375 0.380272 2.26023 0
M  V30 2277 C 210.375 -0.484891 1.53315 0
M  V30 2278 O 211.565 -0.290108 1.71767 0
M  V30 2279 C 208.697 -0.45651 3.3783 0
M  V30 2280 H 209.89 1.23295 2.73383 0
M  V30 2281 H 207.443 0.676589 1.40897 0
M  V30 2282 H 208.178 -1.32922 2.95808 0
M  V30 2283 H 207.963 0.163393 3.91759 0
M  V30 2284 H 209.453 -0.810466 4.0966 0
M  V30 2285 N 209.89 -1.43072 0.660911 0
M  V30 2286 C 210.8 -2.34585 -0.0264163 0
M  V30 2287 C 211.816 -1.54316 -0.803898 0
M  V30 2288 O 212.992 -1.86939 -0.749391 0
M  V30 2289 C 210.057 -3.32689 -0.975639 0
M  V30 2290 C 209.118 -4.2886 -0.194236 0
M  V30 2291 C 208.351 -5.22278 -1.09825 0
M  V30 2292 O 208.574 -5.20299 -2.33763 0
M  V30 2293 O 207.508 -5.99228 -0.566513 0
M  V30 2294 H 211.334 -2.94869 0.727034 0
M  V30 2295 H 208.919 -1.43342 0.42111 0
M  V30 2296 H 210.801 -3.92995 -1.52094 0
M  V30 2297 H 209.476 -2.74898 -1.70918 0
M  V30 2298 H 208.383 -3.72011 0.394835 0
M  V30 2299 H 209.716 -4.89655 0.499899 0
M  V30 2300 N 211.368 -0.403325 -1.52352 0
M  V30 2301 C 212.315 0.425011 -2.26853 0
M  V30 2302 C 213.285 1.04598 -1.29029 0
M  V30 2303 O 214.47 1.07135 -1.57882 0
M  V30 2304 C 211.61 1.53888 -3.08889 0
M  V30 2305 C 210.723 0.939396 -4.21663 0
M  V30 2306 C 209.858 2.02547 -4.91068 0
M  V30 2307 C 208.897 1.40263 -5.95813 0
M  V30 2308 N 208.034 2.4286 -6.58759 0
M  V30 2309 H 212.874 -0.21674 -2.97211 0
M  V30 2310 H 210.411 -0.118722 -1.4662 0
M  V30 2311 H 212.369 2.19558 -3.54753 0
M  V30 2312 H 210.999 2.15074 -2.40714 0
M  V30 2313 H 210.051 0.171898 -3.80011 0
M  V30 2314 H 211.363 0.44436 -4.96817 0
M  V30 2315 H 210.517 2.75958 -5.40308 0
M  V30 2316 H 209.256 2.55415 -4.15469 0
M  V30 2317 H 208.261 0.653833 -5.45898 0
M  V30 2318 H 209.486 0.881719 -6.73352 0
M  V30 2319 H 207.432 2.94871 -5.85992 0
M  V30 2320 H 207.349 1.98152 -7.2957 0
M  V30 2321 H 208.617 3.15858 -7.12639 0
M  V30 2322 N 212.846 1.57033 -0.133567 0
M  V30 2323 C 213.776 2.1909 0.807567 0
M  V30 2324 C 214.757 1.13517 1.26681 0
M  V30 2325 O 215.942 1.41809 1.32679 0
M  V30 2326 C 213.072 2.80188 2.05212 0
M  V30 2327 C 212.026 3.91471 1.73015 0
M  V30 2328 C 211.352 4.39443 3.04622 0
M  V30 2329 C 212.652 5.12886 0.987168 0
M  V30 2330 H 214.346 2.97988 0.290403 0
M  V30 2331 H 211.892 1.43335 0.138239 0
M  V30 2332 H 213.845 3.22264 2.71521 0
M  V30 2333 H 212.569 1.98601 2.59278 0
M  V30 2334 H 211.228 3.49993 1.0909 0
M  V30 2335 H 210.876 3.54695 3.56651 0
M  V30 2336 H 210.576 5.14495 2.83847 0
M  V30 2337 H 212.1 4.8418 3.72024 0
M  V30 2338 H 213.514 5.51891 1.55208 0
M  V30 2339 H 211.911 5.93615 0.87985 0
M  V30 2340 H 212.981 4.84894 -0.0235286 0
M  V30 2341 N 214.325 -0.140222 1.56975 0
M  V30 2342 C 215.272 -1.17292 1.98774 0
M  V30 2343 C 216.242 -1.4232 0.856408 0
M  V30 2344 O 217.427 -1.54541 1.119 0
M  V30 2345 C 214.567 -2.49973 2.37923 0
M  V30 2346 C 213.68 -2.32062 3.64378 0
M  V30 2347 C 212.815 -3.57825 3.926 0
M  V30 2348 C 211.854 -3.3498 5.12303 0
M  V30 2349 N 210.991 -4.52891 5.36502 0
M  V30 2350 H 215.831 -0.809472 2.86795 0
M  V30 2351 H 213.368 -0.388237 1.41884 0
M  V30 2352 H 215.326 -3.27346 2.58652 0
M  V30 2353 H 213.956 -2.84252 1.52972 0
M  V30 2354 H 213.008 -1.45711 3.51387 0
M  V30 2355 H 214.32 -2.11145 4.51906 0
M  V30 2356 H 213.474 -4.43624 4.13863 0
M  V30 2357 H 212.213 -3.81753 3.03506 0
M  V30 2358 H 211.218 -2.4757 4.90906 0
M  V30 2359 H 212.443 -3.12444 6.02956 0
M  V30 2360 H 210.389 -4.76979 4.50363 0
M  V30 2361 H 210.306 -4.35001 6.18312 0
M  V30 2362 H 211.574 -5.39884 5.62268 0
M  V30 2363 N 215.803 -1.52179 -0.40978 0
M  V30 2364 C 217.214 -1.58377 -0.988615 0
M  V30 2365 C 217.565 -0.423879 -1.91566 0
M  V30 2366 O 216.69 0.455844 -2.11544 0
M  V30 2367 C 217.285 -2.87044 -1.79976 0
M  V30 2368 C 215.844 -2.95722 -2.32863 0
M  V30 2369 C 214.991 -2.53309 -1.12828 0
M  V30 2370 H 217.942 -1.57558 -0.190039 0
M  V30 2371 H 217.963 -2.7236 -2.65707 0
M  V30 2372 H 217.475 -3.71444 -1.12478 0
M  V30 2373 H 215.576 -2.15814 -3.03735 0
M  V30 2374 H 215.689 -3.99951 -2.63773 0
M  V30 2375 H 214.053 -2.07142 -1.48204 0
M  V30 2376 H 214.836 -3.40082 -0.46897 0
M  V30 2377 N 217.281 0.66697 -1.42791 0
M  V30 2378 C 218.529 1.42417 -1.43394 0
M  V30 2379 C 218.85 1.94925 -0.0542373 0
M  V30 2380 O 218.12 1.73564 0.908415 0
M  V30 2381 H 216.7 0.528515 -0.527902 0
M  V30 2382 H 219.362 0.787562 -1.78279 0
M  V30 2383 H 218.458 2.27333 -2.13837 0
M  V30 2384 N 218.759 1.29093 0.90403 0
M  V30 2385 C 220.036 1.075 1.63411 0
M  V30 2386 C 220.416 -0.382346 2.07609 0
M  V30 2387 O 219.764 -1.37031 1.82851 0
M  V30 2388 C 219.974 2.05858 2.81822 0
M  V30 2389 C 221.322 2.36539 3.52611 0
M  V30 2390 O 222.346 2.04019 2.91984 0
M  V30 2391 O 221.205 2.92085 4.61897 0
M  V30 2392 H 218.299 0.411547 0.717327 0
M  V30 2393 H 220.845 1.40449 0.952479 0
M  V30 2394 H 219.617 3.04037 2.46327 0
M  V30 2395 H 219.24 1.73613 3.57693 0
M  V30 2396 N 220.237 -1.11381 1.11499 0
M  V30 2397 C 221.167 -2.19509 0.796125 0
M  V30 2398 C 222.148 -1.68458 -0.235796 0
M  V30 2399 O 223.333 -1.93947 -0.0991344 0
M  V30 2400 C 220.463 -3.46475 0.239205 0
M  V30 2401 C 219.417 -4.10744 1.20307 0
M  V30 2402 C 218.743 -5.32293 0.50683 0
M  V30 2403 C 220.043 -4.55597 2.55399 0
M  V30 2404 H 221.737 -2.46439 1.70024 0
M  V30 2405 H 219.283 -1.18446 0.818935 0
M  V30 2406 H 221.236 -4.214 0.00392006 0
M  V30 2407 H 219.96 -3.19006 -0.700206 0
M  V30 2408 H 218.619 -3.37813 1.42399 0
M  V30 2409 H 218.267 -5.01095 -0.437408 0
M  V30 2410 H 217.967 -5.76243 1.1497 0
M  V30 2411 H 219.491 -6.09956 0.280351 0
M  V30 2412 H 220.905 -5.21841 2.37391 0
M  V30 2413 H 219.302 -5.10363 3.15673 0
M  V30 2414 H 220.372 -3.69013 3.14575 0
M  V30 2415 N 221.715 -0.905404 -1.28997 0
M  V30 2416 C 222.961 -0.535039 -1.95615 0
M  V30 2417 C 223.294 0.917404 -1.71165 0
M  V30 2418 O 222.569 1.65123 -1.02785 0
M  V30 2419 C 222.852 -0.834918 -3.50287 0
M  V30 2420 C 222.705 -2.33948 -3.84172 0
M  V30 2421 C 224.024 -0.325318 -4.38896 0
M  V30 2422 H 221.143 -0.195861 -0.710498 0
M  V30 2423 H 223.785 -1.13313 -1.52513 0
M  V30 2424 H 221.935 -0.325904 -3.87131 0
M  V30 2425 H 223.607 -2.91847 -3.57243 0
M  V30 2426 H 221.85 -2.79789 -3.31513 0
M  V30 2427 H 222.521 -2.49987 -4.92149 0
M  V30 2428 H 224.997 -0.761256 -4.09077 0
M  V30 2429 H 223.873 -0.564295 -5.45992 0
M  V30 2430 H 224.134 0.774144 -4.35269 0
M  V30 2431 N 223.193 1.4272 -0.668489 0
M  V30 2432 C 224.441 2.01226 -0.187769 0
M  V30 2433 C 224.762 1.53092 1.2078 0
M  V30 2434 O 224.032 0.74993 1.80977 0
M  V30 2435 H 222.612 0.744041 -0.0664272 0
M  V30 2436 H 225.274 1.74723 -0.863583 0
M  V30 2437 H 224.37 3.11556 -0.184166 0
M  V30 2438 N 224.671 0.411399 1.52136 0
M  V30 2439 C 225.917 -0.163888 2.02137 0
M  V30 2440 C 226.25 -1.44597 1.29636 0
M  V30 2441 O 225.525 -1.90272 0.403353 0
M  V30 2442 C 225.808 -0.40927 3.57767 0
M  V30 2443 C 225.661 0.889643 4.40914 0
M  V30 2444 C 226.98 -1.19042 4.23694 0
M  V30 2445 H 224.099 -0.0580896 0.734707 0
M  V30 2446 H 226.741 0.54531 1.82007 0
M  V30 2447 H 224.891 -1.0134 3.7505 0
M  V30 2448 H 226.563 1.52575 4.35337 0
M  V30 2449 H 224.806 1.50011 4.07037 0
M  V30 2450 H 225.477 0.672314 5.4789 0
M  V30 2451 H 227.953 -0.678942 4.10524 0
M  V30 2452 H 226.829 -1.33086 5.32522 0
M  V30 2453 H 227.09 -2.21166 3.82803 0
M  V30 2454 N 226.149 -1.5696 0.141893 0
M  V30 2455 C 227.097 -2.17784 -0.816874 0
M  V30 2456 C 228.091 -1.1334 -1.25899 0
M  V30 2457 O 229.297 -1.316 -1.22806 0
M  V30 2458 H 225.672 -0.697278 -0.281615 0
M  V30 2459 H 227.643 -2.97087 -0.279621 0
M  V30 2460 C 226.392 -2.80983 -2.04802 0
M  V30 2461 H 225.715 -3.61062 -1.7168 0
M  V30 2462 H 227.155 -3.2705 -2.69841 0
M  V30 2463 C 225.614 -1.79228 -2.8527 0
M  V30 2464 O 226.144 -1.25962 -3.8144 0
M  V30 2465 N 224.35 -1.48647 -2.49704 0
M  V30 2466 H 223.897 -1.92155 -1.71564 0
M  V30 2467 H 223.855 -0.808115 -3.03837 0
M  V30 2468 N 227.627 0.131896 -1.57047 0
M  V30 2469 C 228.574 1.16236 -1.99393 0
M  V30 2470 C 229.544 1.41863 -0.863943 0
M  V30 2471 O 230.729 1.53946 -1.12718 0
M  V30 2472 C 227.869 2.48708 -2.39245 0
M  V30 2473 C 226.982 2.30127 -3.65603 0
M  V30 2474 C 226.117 3.55738 -3.94492 0
M  V30 2475 C 225.156 3.32259 -5.14073 0
M  V30 2476 N 224.293 4.50039 -5.38896 0
M  V30 2477 H 229.133 0.794251 -2.87221 0
M  V30 2478 H 226.67 0.380707 -1.42088 0
M  V30 2479 H 228.628 3.25969 -2.60384 0
M  V30 2480 H 227.258 2.83437 -1.54478 0
M  V30 2481 H 226.31 1.43845 -3.52154 0
M  V30 2482 H 227.622 2.08746 -4.5302 0
M  V30 2483 H 226.776 4.41423 -4.1621 0
M  V30 2484 H 225.515 3.80138 -3.05526 0
M  V30 2485 H 224.52 2.44963 -4.92212 0
M  V30 2486 H 225.745 3.09242 -6.04604 0
M  V30 2487 H 223.691 4.74584 -4.52886 0
M  V30 2488 H 223.608 4.31716 -6.2061 0
M  V30 2489 H 224.876 5.36895 -5.65123 0
M  V30 2490 N 229.106 1.52395 0.401703 0
M  V30 2491 C 230.383 1.57387 1.16141 0
M  V30 2492 C 230.763 0.359359 2.08019 0
M  V30 2493 O 230.111 -0.65326 2.18963 0
M  V30 2494 C 230.321 2.90631 1.93221 0
M  V30 2495 C 231.669 3.43904 2.49028 0
M  V30 2496 O 232.693 2.92421 2.03393 0
M  V30 2497 O 231.552 4.33823 3.32356 0
M  V30 2498 H 228.646 0.634262 0.530698 0
M  V30 2499 H 231.192 1.64725 0.407883 0
M  V30 2500 H 229.964 3.70473 1.25958 0
M  V30 2501 H 229.587 2.8662 2.75563 0
M  V30 2502 N 230.584 -0.659388 1.43143 0
M  V30 2503 C 231.809 -1.45221 1.48073 0
M  V30 2504 C 232.234 -1.87845 0.097995 0
M  V30 2505 O 231.592 -1.56985 -0.90694 0
M  V30 2506 C 231.64 -2.66748 2.42647 0
M  V30 2507 O 230.744 -3.65583 1.90848 0
M  V30 2508 H 230.085 -0.435669 0.501088 0
M  V30 2509 H 232.615 -0.807432 1.87994 0
M  V30 2510 H 232.625 -3.14637 2.59745 0
M  V30 2511 H 231.3 -2.35067 3.43098 0
M  V30 2512 H 229.877 -3.24693 1.83381 0
M  V30 2513 N 232.062 -1.29571 -0.897171 0
M  V30 2514 C 233.292 -1.20408 -1.67886 0
M  V30 2515 C 233.7 0.237429 -1.87704 0
M  V30 2516 O 233.043 1.17048 -1.41582 0
M  V30 2517 C 233.105 -1.84887 -3.08314 0
M  V30 2518 C 232.769 -3.34189 -3.11716 0
M  V30 2519 C 233.766 -4.30374 -2.91675 0
M  V30 2520 C 231.451 -3.75431 -3.33701 0
M  V30 2521 C 233.445 -5.65776 -2.93557 0
M  V30 2522 C 231.132 -5.10955 -3.35214 0
M  V30 2523 C 232.13 -6.05938 -3.15164 0
M  V30 2524 O 231.818 -7.38987 -3.1647 0
M  V30 2525 H 231.55 -0.418289 -0.531046 0
M  V30 2526 H 234.104 -1.71514 -1.13014 0
M  V30 2527 H 232.334 -1.28295 -3.64798 0
M  V30 2528 H 234.023 -1.70011 -3.6858 0
M  V30 2529 H 234.789 -3.99844 -2.74499 0
M  V30 2530 H 230.668 -3.01953 -3.48347 0
M  V30 2531 H 234.212 -6.39889 -2.77826 0
M  V30 2532 H 230.109 -5.4113 -3.51922 0
M  V30 2533 H 230.877 -7.47823 -3.3272 0
M  V30 2534 N 233.54 1.10788 -1.12088 0
M  V30 2535 C 234.47 2.19083 -0.807755 0
M  V30 2536 C 235.451 1.6858 0.226859 0
M  V30 2537 O 236.636 1.93997 0.0888475 0
M  V30 2538 C 233.766 3.46344 -0.257576 0
M  V30 2539 C 232.72 4.101 -1.22483 0
M  V30 2540 C 232.046 5.32016 -0.535052 0
M  V30 2541 C 233.346 4.54236 -2.57811 0
M  V30 2542 H 235.04 2.45534 -1.71328 0
M  V30 2543 H 232.586 1.1801 -0.825205 0
M  V30 2544 H 234.539 4.21392 -0.0262679 0
M  V30 2545 H 233.263 3.19373 0.683278 0
M  V30 2546 H 231.922 3.37054 -1.44189 0
M  V30 2547 H 231.57 5.01319 0.410827 0
M  V30 2548 H 231.27 5.75625 -1.18024 0
M  V30 2549 H 232.794 6.09799 -0.312695 0
M  V30 2550 H 234.208 5.20575 -2.40155 0
M  V30 2551 H 232.605 5.08682 -3.18375 0
M  V30 2552 H 233.675 3.6734 -3.16528 0
M  V30 2553 N 235.018 0.912232 1.28515 0
M  V30 2554 C 236.267 0.540504 1.94323 0
M  V30 2555 C 236.58 -0.920044 1.72611 0
M  V30 2556 O 237.786 -1.39986 2.32629 0
M  V30 2557 C 236.242 0.915803 3.48053 0
M  V30 2558 C 235.85 2.39598 3.78546 0
M  V30 2559 C 237.594 0.614588 4.20027 0
M  V30 2560 C 235.501 2.71148 5.25578 0
M  V30 2561 H 234.431 0.198418 0.727424 0
M  V30 2562 H 237.082 1.11094 1.46049 0
M  V30 2563 H 235.464 0.274168 3.9505 0
M  V30 2564 H 236.638 3.08422 3.42364 0
M  V30 2565 H 234.953 2.66749 3.1974 0
M  V30 2566 H 237.55 0.827002 5.28266 0
M  V30 2567 H 237.893 -0.447531 4.13887 0
M  V30 2568 H 238.426 1.21462 3.78803 0
M  V30 2569 H 235.165 3.76207 5.36794 0
M  V30 2570 H 234.685 2.0696 5.62963 0
M  V30 2571 H 236.364 2.58072 5.93302 0
M  V30 2572 N 236.496 -1.42363 0.676048 0
M  V30 2573 C 237.426 -2.33497 0.0124832 0
M  V30 2574 C 238.407 -1.50748 -0.787981 0
M  V30 2575 O 239.592 -1.79346 -0.744884 0
M  V30 2576 C 236.722 -3.34377 -0.938582 0
M  V30 2577 C 235.676 -4.27289 -0.246622 0
M  V30 2578 C 235.002 -5.18386 -1.31071 0
M  V30 2579 C 236.302 -5.14916 0.875125 0
M  V30 2580 H 237.996 -2.89233 0.773593 0
M  V30 2581 H 235.542 -1.39073 0.37346 0
M  V30 2582 H 237.495 -3.97044 -1.41188 0
M  V30 2583 H 236.219 -2.76947 -1.73113 0
M  V30 2584 H 234.878 -3.66018 0.206456 0
M  V30 2585 H 234.526 -4.57282 -2.09528 0
M  V30 2586 H 234.226 -5.81378 -0.852839 0
M  V30 2587 H 235.75 -5.83929 -1.78492 0
M  V30 2588 H 237.164 -5.71262 0.482983 0
M  V30 2589 H 235.561 -5.86747 1.25887 0
M  V30 2590 H 236.631 -4.53242 1.72335 0
M  V30 2591 N 237.974 -0.419461 -1.51915 0
M  V30 2592 C 238.884 0.407528 -2.31033 0
M  V30 2593 C 239.9 1.04413 -1.3919 0
M  V30 2594 O 241.076 1.0434 -1.72265 0
M  V30 2595 C 238.141 1.50365 -3.12396 0
M  V30 2596 C 237.202 0.889029 -4.19994 0
M  V30 2597 C 236.435 1.93291 -4.97468 0
M  V30 2598 O 236.658 3.15259 -4.75361 0
M  V30 2599 O 235.592 1.53339 -5.8204 0
M  V30 2600 H 239.418 -0.237865 -3.02767 0
M  V30 2601 H 237.003 -0.182413 -1.48282 0
M  V30 2602 H 238.885 2.13975 -3.63032 0
M  V30 2603 H 237.56 2.13345 -2.43445 0
M  V30 2604 H 236.467 0.215353 -3.7348 0
M  V30 2605 H 237.8 0.302991 -4.91267 0
M  V30 2606 N 239.452 1.56882 -0.150215 0
M  V30 2607 C 240.68 2.00593 0.506948 0
M  V30 2608 C 241.095 1.03033 1.58208 0
M  V30 2609 O 240.452 0.0278396 1.82479 0
M  V30 2610 C 240.503 3.44209 1.10465 0
M  V30 2611 O 240.224 4.3804 0.0724636 0
M  V30 2612 C 241.725 4.03214 1.84211 0
M  V30 2613 H 238.945 0.65795 0.13169 0
M  V30 2614 H 241.489 2.03018 -0.245743 0
M  V30 2615 H 239.644 3.42625 1.80795 0
M  V30 2616 H 240.058 5.22007 0.510793 0
M  V30 2617 H 241.532 5.0569 2.21318 0
M  V30 2618 H 242.009 3.44107 2.72923 0
M  V30 2619 H 242.615 4.08437 1.18572 0
M  V30 2620 N 240.93 -0.123565 1.57115 0
M  V30 2621 C 241.86 -1.15309 2.03042 0
M  V30 2622 C 242.841 -1.43454 0.914061 0
M  V30 2623 O 244.026 -1.53973 1.18347 0
M  V30 2624 C 241.156 -2.48043 2.43089 0
M  V30 2625 C 240.11 -2.3437 3.58127 0
M  V30 2626 C 239.436 -3.72026 3.84059 0
M  V30 2627 C 240.736 -1.80804 4.90007 0
M  V30 2628 H 242.43 -0.771102 2.893 0
M  V30 2629 H 239.976 -0.369479 1.39179 0
M  V30 2630 H 241.929 -3.20311 2.73823 0
M  V30 2631 H 240.653 -2.88122 1.53796 0
M  V30 2632 H 239.312 -1.64551 3.27595 0
M  V30 2633 H 238.96 -4.09582 2.91979 0
M  V30 2634 H 238.66 -3.63732 4.6149 0
M  V30 2635 H 240.184 -4.45806 4.1724 0
M  V30 2636 H 241.598 -2.42886 5.19307 0
M  V30 2637 H 239.995 -1.83343 5.71407 0
M  V30 2638 H 241.065 -0.76528 4.78823 0
M  V30 2639 N 242.408 -1.52605 -0.393616 0
M  V30 2640 C 243.819 -1.59417 -0.971761 0
M  V30 2641 C 244.17 -0.444173 -1.91106 0
M  V30 2642 O 243.295 0.433382 -2.12016 0
M  V30 2643 C 243.89 -2.88936 -1.76921 0
M  V30 2644 C 242.449 -2.98175 -2.29714 0
M  V30 2645 C 241.596 -2.54491 -1.10135 0
M  V30 2646 H 244.547 -1.57751 -0.173317 0
M  V30 2647 H 244.568 -2.75163 -2.62804 0
M  V30 2648 H 244.08 -3.72616 -1.08532 0
M  V30 2649 H 242.181 -2.19024 -3.01429 0
M  V30 2650 H 242.294 -4.02726 -2.59517 0
M  V30 2651 H 240.658 -2.08702 -1.45999 0
M  V30 2652 H 241.441 -3.4056 -0.432874 0
M  V30 2653 N 243.887 0.651787 -1.4349 0
M  V30 2654 C 245.115 1.43937 -1.48626 0
M  V30 2655 C 245.53 1.8851 -0.104587 0
M  V30 2656 O 244.887 1.5958 0.885464 0
M  V30 2657 C 244.938 2.6734 -2.43334 0
M  V30 2658 O 244.659 2.24631 -3.76128 0
M  V30 2659 C 246.16 3.60683 -2.57726 0
M  V30 2660 H 243.38 0.44213 -0.504739 0
M  V30 2661 H 245.924 0.798944 -1.88248 0
M  V30 2662 H 244.079 3.2752 -2.06904 0
M  V30 2663 H 244.493 3.04485 -4.2707 0
M  V30 2664 H 245.967 4.43933 -3.28067 0
M  V30 2665 H 246.444 4.08126 -1.62265 0
M  V30 2666 H 247.05 3.06384 -2.94973 0
M  V30 2667 N 245.365 1.30045 0.890287 0
M  V30 2668 C 246.275 1.17885 2.02831 0
M  V30 2669 C 247.291 0.0999609 1.73713 0
M  V30 2670 O 248.467 0.313867 1.98939 0
M  V30 2671 C 245.532 0.866079 3.35708 0
M  V30 2672 C 244.593 2.02979 3.78283 0
M  V30 2673 C 243.826 1.73184 5.0482 0
M  V30 2674 O 244.049 0.657237 5.66601 0
M  V30 2675 O 242.983 2.58267 5.43674 0
M  V30 2676 H 246.809 2.13474 2.16015 0
M  V30 2677 H 244.394 1.09587 1.01543 0
M  V30 2678 H 246.276 0.706623 4.15433 0
M  V30 2679 H 244.951 -0.0599443 3.23644 0
M  V30 2680 H 243.858 2.24454 2.99285 0
M  V30 2681 H 245.191 2.93734 3.94944 0
M  V30 2682 N 246.843 -1.10192 1.12674 0
M  V30 2683 C 248.073 -1.85713 0.905213 0
M  V30 2684 C 248.481 -1.81056 -0.549108 0
M  V30 2685 O 247.824 -1.19927 -1.39151 0
M  V30 2686 C 247.886 -3.34972 1.30516 0
M  V30 2687 C 247.55 -3.63385 2.77129 0
M  V30 2688 C 248.547 -3.59772 3.75313 0
M  V30 2689 C 246.232 -3.91981 3.14096 0
M  V30 2690 C 248.226 -3.84354 5.08479 0
M  V30 2691 C 245.913 -4.16218 4.47443 0
M  V30 2692 C 246.911 -4.12395 5.44444 0
M  V30 2693 O 246.599 -4.36014 6.75387 0
M  V30 2694 H 246.331 -0.593719 0.323223 0
M  V30 2695 H 248.885 -1.40198 1.50112 0
M  V30 2696 H 247.115 -3.81156 0.652463 0
M  V30 2697 H 248.804 -3.91886 1.05736 0
M  V30 2698 H 249.57 -3.37716 3.48099 0
M  V30 2699 H 245.449 -3.94085 2.39202 0
M  V30 2700 H 248.993 -3.81285 5.84181 0
M  V30 2701 H 244.89 -4.37754 4.74386 0
M  V30 2702 H 245.658 -4.53516 6.8137 0
M  V30 2703 N 248.321 -0.919034 -1.28029 0
M  V30 2704 C 249.598 -0.473668 -1.89778 0
M  V30 2705 C 249.978 1.04783 -1.83259 0
M  V30 2706 O 249.326 1.8982 -1.27202 0
M  V30 2707 C 249.536 -1.00998 -3.34066 0
M  V30 2708 C 250.884 -1.06525 -4.1102 0
M  V30 2709 O 251.908 -0.958996 -3.43048 0
M  V30 2710 O 250.767 -1.22776 -5.3253 0
M  V30 2711 H 247.861 -0.15098 -0.813101 0
M  V30 2712 H 250.407 -1.01016 -1.36359 0
M  V30 2713 H 249.179 -2.05392 -3.33061 0
M  V30 2714 H 248.802 -0.454626 -3.94992 0
M  V30 2715 N 249.799 1.42003 -0.683588 0
M  V30 2716 C 251.024 2.06265 -0.216647 0
M  V30 2717 C 251.449 1.51059 1.12083 0
M  V30 2718 O 250.807 0.632638 1.69904 0
M  V30 2719 C 250.855 3.60191 -0.171759 0
M  V30 2720 O 249.959 4.03396 0.857069 0
M  V30 2721 H 249.3 0.65502 -0.108834 0
M  V30 2722 H 251.83 1.81982 -0.935077 0
M  V30 2723 H 251.84 4.08 0.0014303 0
M  V30 2724 H 250.515 3.99743 -1.14796 0
M  V30 2725 H 249.092 3.67117 0.654208 0
M  V30 2726 N 251.277 0.427512 1.51691 0
M  V30 2727 C 252.693 0.0792977 1.59403 0
M  V30 2728 C 252.893 -1.41035 1.43914 0
M  V30 2729 O 251.949 -2.17922 1.27539 0
M  V30 2730 C 253.262 0.590636 2.94842 0
M  V30 2731 C 254.81 0.550215 3.08126 0
M  V30 2732 C 255.285 1.03836 4.46074 0
M  V30 2733 N 256.776 0.995943 4.52366 0
M  V30 2734 C 257.511 1.34463 5.57411 0
M  V30 2735 N 257.007 1.76569 6.69922 0
M  V30 2736 N 258.8 1.26343 5.47717 0
M  V30 2737 H 250.951 1.39687 1.60004 0
M  V30 2738 H 253.214 0.575003 0.753708 0
M  V30 2739 H 252.92 1.63251 3.11516 0
M  V30 2740 H 252.794 0.0102061 3.77199 0
M  V30 2741 H 255.181 -0.482654 2.91126 0
M  V30 2742 H 255.262 1.16693 2.27632 0
M  V30 2743 H 254.906 2.06965 4.63819 0
M  V30 2744 H 254.836 0.398286 5.25092 0
M  V30 2745 H 257.327 0.68661 3.7161 0
M  V30 2746 H 257.64 2.01438 7.46085 0
M  V30 2747 H 255.985 1.80488 6.71155 0
M  V30 2748 H 259.176 0.933209 4.58703 0
M  V30 2749 H 259.349 1.53846 6.29472 0
M  V30 2750 N 252.755 -1.56801 0.158532 0
M  V30 2751 C 254.001 -1.96781 -0.490405 0
M  V30 2752 C 254.334 -1.04397 -1.63753 0
M  V30 2753 O 253.609 -0.0885805 -1.94298 0
M  V30 2754 C 253.892 -3.4635 -0.985594 0
M  V30 2755 C 253.745 -4.49512 0.160824 0
M  V30 2756 C 255.064 -3.98697 -1.86355 0
M  V30 2757 H 252.183 -0.715482 -0.176788 0
M  V30 2758 H 254.825 -1.88451 0.242088 0
M  V30 2759 H 252.975 -3.53579 -1.60978 0
M  V30 2760 H 254.647 -4.54353 0.797537 0
M  V30 2761 H 252.89 -4.26013 0.818256 0
M  V30 2762 H 253.561 -5.51531 -0.227569 0
M  V30 2763 H 256.037 -3.94019 -1.33746 0
M  V30 2764 H 254.913 -5.03792 -2.17909 0
M  V30 2765 H 255.174 -3.41744 -2.8047 0
M  V30 2766 N 254.233 0.115231 -1.57178 0
M  V30 2767 C 255.18 1.14115 -2.00615 0
M  V30 2768 C 256.15 1.40939 -0.878941 0
M  V30 2769 O 257.335 1.52741 -1.14345 0
M  V30 2770 C 254.475 2.46156 -2.4187 0
M  V30 2771 C 253.588 2.26236 -3.68024 0
M  V30 2772 C 252.723 3.51534 -3.98243 0
M  V30 2773 C 251.762 3.26787 -5.17568 0
M  V30 2774 N 250.899 4.44298 -5.43639 0
M  V30 2775 H 255.739 0.763743 -2.88047 0
M  V30 2776 H 253.276 0.365615 -1.42484 0
M  V30 2777 H 255.234 3.23189 -2.63827 0
M  V30 2778 H 253.864 2.81783 -1.57475 0
M  V30 2779 H 252.916 1.40102 -3.5366 0
M  V30 2780 H 254.228 2.03929 -4.55208 0
M  V30 2781 H 253.382 4.36984 -4.20868 0
M  V30 2782 H 252.121 3.76876 -3.09541 0
M  V30 2783 H 251.126 2.39729 -4.94783 0
M  V30 2784 H 252.351 3.02812 -6.0785 0
M  V30 2785 H 250.297 4.69754 -4.57895 0
M  V30 2786 H 250.214 4.25109 -6.25154 0
M  V30 2787 H 251.482 5.3087 -5.70786 0
M  V30 2788 N 255.711 1.52812 0.385517 0
M  V30 2789 C 256.674 1.77188 1.45386 0
M  V30 2790 C 257.674 0.641953 1.4743 0
M  V30 2791 O 258.864 0.910033 1.4854 0
M  V30 2792 C 255.996 1.87582 2.8465 0
M  V30 2793 H 257.189 2.72583 1.25054 0
M  V30 2794 H 254.742 1.43586 0.617467 0
M  V30 2795 H 255.477 0.941849 3.10322 0
M  V30 2796 H 255.262 2.69748 2.84567 0
M  V30 2797 H 256.752 2.08102 3.62054 0
M  V30 2798 N 257.189 -0.644168 1.43834 0
M  V30 2799 C 258.122 -1.76906 1.44151 0
M  V30 2800 C 259.1 -1.59774 0.301857 0
M  V30 2801 O 260.284 -1.81834 0.496841 0
M  V30 2802 C 257.411 -3.14321 1.26174 0
M  V30 2803 C 256.457 -3.50134 2.43533 0
M  V30 2804 S 257.29 -3.49085 4.06079 0
M  V30 2805 C 258.446 -4.89142 3.90501 0
M  V30 2806 H 258.679 -1.76368 2.39336 0
M  V30 2807 H 256.212 -0.817624 1.30974 0
M  V30 2808 H 258.17 -3.93625 1.16489 0
M  V30 2809 H 256.831 -3.12412 0.325224 0
M  V30 2810 H 256.024 -4.50095 2.26783 0
M  V30 2811 H 255.626 -2.78264 2.4989 0
M  V30 2812 H 257.918 -5.78036 3.53385 0
M  V30 2813 H 258.861 -5.10945 4.90246 0
M  V30 2814 H 259.269 -4.63102 3.22795 0
M  V30 2815 N 258.668 -1.30515 -0.883378 0
M  V30 2816 C 259.578 -1.18959 -2.02203 0
M  V30 2817 C 260.594 -0.109172 -1.73657 0
M  V30 2818 O 261.77 -0.324413 -1.9877 0
M  V30 2819 C 258.835 -0.883871 -3.35244 0
M  V30 2820 C 257.896 -2.04982 -3.77201 0
M  V30 2821 C 257.129 -1.75859 -5.03894 0
M  V30 2822 O 257.352 -0.687276 -5.66244 0
M  V30 2823 O 256.286 -2.61146 -5.42297 0
M  V30 2824 H 260.112 -2.14616 -2.1488 0
M  V30 2825 H 257.697 -1.10124 -1.0096 0
M  V30 2826 H 259.579 -0.728644 -4.15053 0
M  V30 2827 H 258.254 0.0427798 -3.23672 0
M  V30 2828 H 257.161 -2.26038 -2.9809 0
M  V30 2829 H 258.494 -2.95825 -3.93381 0
M  V30 2830 N 260.146 1.09593 -1.13257 0
M  V30 2831 C 261.392 1.82003 -0.89458 0
M  V30 2832 C 261.725 1.85402 0.577906 0
M  V30 2833 O 261 1.32099 1.42759 0
M  V30 2834 C 261.283 3.28237 -1.48096 0
M  V30 2835 C 261.136 3.3312 -3.02244 0
M  V30 2836 C 262.455 4.24871 -1.14774 0
M  V30 2837 H 259.574 0.66077 -0.326424 0
M  V30 2838 H 262.216 1.28389 -1.40058 0
M  V30 2839 H 260.366 3.74024 -1.05062 0
M  V30 2840 H 262.038 2.95748 -3.54021 0
M  V30 2841 H 260.281 2.72756 -3.37323 0
M  V30 2842 H 260.952 4.3613 -3.38371 0
M  V30 2843 H 263.428 3.87361 -1.51957 0
M  V30 2844 H 262.304 5.25532 -1.58452 0
M  V30 2845 H 262.565 4.42058 -0.0611849 0
M  V30 2846 N 261.624 0.925811 1.2754 0
M  V30 2847 C 262.901 0.483726 1.89524 0
M  V30 2848 C 263.281 -1.03809 1.83812 0
M  V30 2849 O 262.629 -1.89143 1.28207 0
M  V30 2850 C 262.839 1.02769 3.33526 0
M  V30 2851 C 264.187 1.08703 4.10449 0
M  V30 2852 O 265.211 0.977175 3.42534 0
M  V30 2853 O 264.07 1.25599 5.31871 0
M  V30 2854 H 261.164 0.15529 0.812289 0
M  V30 2855 H 263.71 1.01738 1.35822 0
M  V30 2856 H 262.482 2.07155 3.31967 0
M  V30 2857 H 262.105 0.475567 3.94746 0
M  V30 2858 N 263.102 -1.41638 0.69111 0
M  V30 2859 C 264.012 -2.34588 0.0233487 0
M  V30 2860 C 265.028 -1.55987 -0.770984 0
M  V30 2861 O 266.204 -1.88486 -0.709569 0
M  V30 2862 C 263.269 -3.34684 -0.904851 0
M  V30 2863 C 262.33 -4.29176 -0.103225 0
M  V30 2864 C 261.563 -5.2449 -0.987216 0
M  V30 2865 O 261.786 -5.2514 -2.22674 0
M  V30 2866 O 260.72 -6.00295 -0.439281 0
M  V30 2867 H 264.546 -2.93261 0.789416 0
M  V30 2868 H 262.131 -1.42417 0.45142 0
M  V30 2869 H 264.013 -3.96133 -1.43724 0
M  V30 2870 H 262.688 -2.78461 -1.65049 0
M  V30 2871 H 261.595 -3.71089 0.473655 0
M  V30 2872 H 262.928 -4.88484 0.60365 0
M  V30 2873 N 264.58 -0.43555 -1.51462 0
M  V30 2874 C 265.996 -0.0877501 -1.59359 0
M  V30 2875 C 266.196 1.4027 -1.4466 0
M  V30 2876 O 265.252 2.17243 -1.28693 0
M  V30 2877 C 266.565 -0.606264 -2.94525 0
M  V30 2878 C 268.113 -0.566548 -3.0783 0
M  V30 2879 C 268.588 -1.06201 -4.45517 0
M  V30 2880 N 270.079 -1.01992 -4.51832 0
M  V30 2881 C 270.814 -1.37417 -5.5669 0
M  V30 2882 N 270.31 -1.80119 -6.68976 0
M  V30 2883 N 272.103 -1.29245 -5.47039 0
M  V30 2884 H 264.254 -1.40533 -1.59261 0
M  V30 2885 H 266.517 -0.578992 -0.750648 0
M  V30 2886 H 266.223 -1.64901 -3.10645 0
M  V30 2887 H 266.097 -0.0302097 -3.77188 0
M  V30 2888 H 268.484 0.467208 -2.91378 0
M  V30 2889 H 268.565 -1.17898 -2.2701 0
M  V30 2890 H 268.209 -2.09422 -4.62715 0
M  V30 2891 H 268.139 -0.426127 -5.24873 0
M  V30 2892 H 270.63 -0.706308 -3.71241 0
M  V30 2893 H 270.943 -2.05392 -7.45006 0
M  V30 2894 H 269.288 -1.84044 -6.70189 0
M  V30 2895 H 272.479 -0.957522 -4.58202 0
M  V30 2896 H 272.652 -1.57182 -6.28648 0
M  V30 2897 N 266.058 1.56714 -0.166846 0
M  V30 2898 C 267.469 1.83378 0.350646 0
M  V30 2899 C 267.82 1.08646 1.63372 0
M  V30 2900 O 266.945 0.338058 2.13743 0
M  V30 2901 C 267.54 3.32643 0.642963 0
M  V30 2902 C 266.099 3.59818 1.10491 0
M  V30 2903 C 265.246 2.76954 0.138411 0
M  V30 2904 H 268.197 1.53803 -0.391193 0
M  V30 2905 H 268.218 3.49878 1.49551 0
M  V30 2906 H 267.73 3.87007 -0.291055 0
M  V30 2907 H 265.831 3.1086 2.05418 0
M  V30 2908 H 265.944 4.68178 1.01716 0
M  V30 2909 H 264.308 2.4666 0.634911 0
M  V30 2910 H 265.091 3.34097 -0.789549 0
M  V30 2911 N 267.536 -0.106894 1.57237 0
M  V30 2912 C 268.764 -0.826389 1.8968 0
M  V30 2913 C 269.179 -1.72856 0.759353 0
M  V30 2914 O 268.536 -1.80503 -0.269263 0
M  V30 2915 C 268.587 -1.64967 3.21665 0
M  V30 2916 O 268.308 -0.783804 4.31031 0
M  V30 2917 C 269.809 -2.47326 3.67892 0
M  V30 2918 H 267.029 -0.236927 0.627779 0
M  V30 2919 H 269.573 -0.0876593 2.04312 0
M  V30 2920 H 267.728 -2.34103 3.08666 0
M  V30 2921 H 268.142 -1.35284 5.06753 0
M  V30 2922 H 269.616 -3.00604 4.6297 0
M  V30 2923 H 270.093 -3.25247 2.95146 0
M  V30 2924 H 270.699 -1.83411 3.83719 0
M  V30 2925 N 269.014 -1.53014 -0.377408 0
M  V30 2926 C 269.924 -1.81557 -1.48574 0
M  V30 2927 C 270.94 -0.703102 -1.59162 0
M  V30 2928 O 272.116 -0.99192 -1.75279 0
M  V30 2929 C 269.181 -1.9889 -2.83978 0
M  V30 2930 C 268.242 -3.22801 -2.83016 0
M  V30 2931 C 267.475 -3.39298 -4.11962 0
M  V30 2932 O 267.698 -2.60345 -5.0752 0
M  V30 2933 O 266.632 -4.32604 -4.18494 0
M  V30 2934 H 270.458 -2.75695 -1.27382 0
M  V30 2935 H 268.043 -1.38248 -0.566373 0
M  V30 2936 H 269.925 -2.11931 -3.6423 0
M  V30 2937 H 268.6 -1.07942 -3.05172 0
M  V30 2938 H 267.507 -3.15193 -2.01505 0
M  V30 2939 H 268.84 -4.13632 -2.66775 0
M  V30 2940 N 270.492 0.636531 -1.44174 0
M  V30 2941 C 271.424 1.7618 -1.46606 0
M  V30 2942 C 272.437 1.58768 -0.360091 0
M  V30 2943 O 273.626 1.67181 -0.625518 0
M  V30 2944 C 270.726 3.13833 -1.27915 0
M  V30 2945 C 269.899 3.57753 -2.51658 0
M  V30 2946 C 268.958 4.74265 -2.27945 0
M  V30 2947 O 267.984 4.82852 -3.01401 0
M  V30 2948 N 269.186 5.65604 -1.30662 0
M  V30 2949 H 271.951 1.74567 -2.43612 0
M  V30 2950 H 269.512 0.820924 -1.39544 0
M  V30 2951 H 271.504 3.8949 -1.09907 0
M  V30 2952 H 270.074 3.10121 -0.39293 0
M  V30 2953 H 269.294 2.72362 -2.84978 0
M  V30 2954 H 270.582 3.83847 -3.33974 0
M  V30 2955 H 269.98 5.61354 -0.699844 0
M  V30 2956 H 268.537 6.40913 -1.18634 0
M  V30 2957 N 271.97 1.30982 0.876444 0
M  V30 2958 C 273.2 1.23063 1.65949 0
M  V30 2959 C 273.608 -0.207537 1.88058 0
M  V30 2960 O 272.951 -1.14781 1.43426 0
M  V30 2961 C 273.013 1.89768 3.05333 0
M  V30 2962 C 272.677 3.39106 3.0636 0
M  V30 2963 C 273.674 4.3496 2.84791 0
M  V30 2964 C 271.359 3.80693 3.27686 0
M  V30 2965 C 273.353 5.70375 2.84519 0
M  V30 2966 C 271.04 5.16223 3.27043 0
M  V30 2967 C 272.038 6.10875 3.05485 0
M  V30 2968 O 271.726 7.43928 3.04674 0
M  V30 2969 H 271.458 0.426685 0.524324 0
M  V30 2970 H 274.012 1.7329 1.10271 0
M  V30 2971 H 272.242 1.34082 3.6271 0
M  V30 2972 H 273.931 1.75853 3.65829 0
M  V30 2973 H 274.697 4.0416 2.68103 0
M  V30 2974 H 270.576 3.07457 3.43499 0
M  V30 2975 H 274.12 6.44228 2.67611 0
M  V30 2976 H 270.017 5.4666 3.43269 0
M  V30 2977 H 270.785 7.53022 3.2078 0
M  V30 2978 N 273.449 -1.08991 1.13837 0
M  V30 2979 C 274.674 -1.85551 0.926585 0
M  V30 2980 C 275.099 -1.80782 -0.519566 0
M  V30 2981 O 274.457 -1.18855 -1.36906 0
M  V30 2982 C 274.505 -3.31266 1.42462 0
M  V30 2983 O 273.609 -4.07822 0.612789 0
M  V30 2984 H 272.95 -0.575192 0.331738 0
M  V30 2985 H 275.48 -1.37604 1.51414 0
M  V30 2986 H 275.49 -3.82112 1.43019 0
M  V30 2987 H 274.165 -3.34052 2.47754 0
M  V30 2988 H 272.742 -3.66731 0.675463 0
M  V30 2989 N 274.927 -0.932562 -1.27047 0
M  V30 2990 C 276.204 -0.49377 -1.89265 0
M  V30 2991 C 276.584 1.02833 -1.8436 0
M  V30 2992 O 275.932 1.88461 -1.29209 0
M  V30 2993 C 276.142 -1.04536 -3.32976 0
M  V30 2994 C 277.49 -1.10879 -4.09867 0
M  V30 2995 O 278.514 -0.995327 -3.42011 0
M  V30 2996 O 277.373 -1.28417 -5.31198 0
M  V30 2997 H 274.467 -0.159596 -0.811454 0
M  V30 2998 H 277.013 -1.02457 -1.3528 0
M  V30 2999 H 275.785 -2.08913 -3.30864 0
M  V30 3000 H 275.408 -0.496494 -3.94488 0
M  V30 3001 N 276.405 1.4127 -0.698611 0
M  V30 3002 C 277.654 2.00408 -0.227949 0
M  V30 3003 C 277.967 1.55981 1.18023 0
M  V30 3004 O 279.173 2.07699 1.74852 0
M  V30 3005 C 277.629 3.58129 -0.356636 0
M  V30 3006 C 277.237 4.11536 -1.77037 0
M  V30 3007 C 278.981 4.24466 0.0540969 0
M  V30 3008 C 276.888 5.61701 -1.85055 0
M  V30 3009 H 275.818 0.749586 -0.0814657 0
M  V30 3010 H 278.469 1.61713 -0.867249 0
M  V30 3011 H 276.851 3.94442 0.350965 0
M  V30 3012 H 278.025 3.86636 -2.50698 0
M  V30 3013 H 276.34 3.57736 -2.13105 0
M  V30 3014 H 278.937 5.34698 0.0146723 0
M  V30 3015 H 279.28 4.01687 1.09332 0
M  V30 3016 H 279.813 3.93198 -0.603337 0
M  V30 3017 H 276.552 5.89312 -2.8704 0
M  V30 3018 H 276.072 5.88519 -1.15783 0
M  V30 3019 H 277.751 6.26524 -1.61484 0
M  V30 3020 N 277.883 0.443576 1.51229 0
M  V30 3021 C 279.131 -0.120557 2.0174 0
M  V30 3022 C 279.452 -1.42665 1.32935 0
M  V30 3023 O 278.722 -1.9028 0.465866 0
M  V30 3024 H 277.302 -0.0475426 0.745486 0
M  V30 3025 H 279.964 0.587711 1.85828 0
M  V30 3026 H 279.06 -0.291972 3.10731 0
M  V30 3027 N 279.361 -1.56624 0.175154 0
M  V30 3028 C 280.609 -1.96609 -0.467885 0
M  V30 3029 C 280.93 -1.06238 -1.63519 0
M  V30 3030 O 280.2 -0.129523 -1.95471 0
M  V30 3031 H 278.78 -0.726008 -0.175845 0
M  V30 3032 H 281.442 -1.93195 0.257234 0
M  V30 3033 H 280.538 -3.00989 -0.825342 0
M  V30 3034 N 280.839 0.0985539 -1.57292 0
M  V30 3035 C 281.769 1.12064 -2.04851 0
M  V30 3036 C 282.75 1.41981 -0.936767 0
M  V30 3037 O 283.935 1.52071 -1.20781 0
M  V30 3038 C 281.065 2.44144 -2.47004 0
M  V30 3039 C 280.019 2.28643 -3.6181 0
M  V30 3040 C 279.345 3.65869 -3.89929 0
M  V30 3041 C 280.645 1.72986 -4.92822 0
M  V30 3042 H 282.339 0.724979 -2.9049 0
M  V30 3043 H 279.885 0.34729 -1.39749 0
M  V30 3044 H 281.838 3.15914 -2.78884 0
M  V30 3045 H 280.562 2.85639 -1.5836 0
M  V30 3046 H 279.221 1.59318 -3.30172 0
M  V30 3047 H 278.869 4.04885 -2.98458 0
M  V30 3048 H 278.569 3.56344 -4.67218 0
M  V30 3049 H 280.093 4.39112 -4.2428 0
M  V30 3050 H 281.507 2.34593 -5.23105 0
M  V30 3051 H 279.904 1.74229 -5.74251 0
M  V30 3052 H 280.974 0.689007 -4.7998 0
M  V30 3053 N 282.317 1.53212 0.369288 0
M  V30 3054 C 283.594 1.59815 1.12776 0
M  V30 3055 C 283.974 0.403402 2.0721 0
M  V30 3056 O 283.322 -0.606667 2.20299 0
M  V30 3057 C 283.532 2.94664 1.87013 0
M  V30 3058 C 284.88 3.49109 2.41677 0
M  V30 3059 O 285.904 2.96669 1.97144 0
M  V30 3060 O 284.763 4.40775 3.23079 0
M  V30 3061 H 281.857 0.645376 0.517125 0
M  V30 3062 H 284.403 1.65553 0.37285 0
M  V30 3063 H 283.175 3.73061 1.18071 0
M  V30 3064 H 282.798 2.92401 2.69421 0
M  V30 3065 N 283.795 -0.628877 1.44509 0
M  V30 3066 C 284.742 -1.74074 1.51549 0
M  V30 3067 C 285.712 -1.62084 0.363021 0
M  V30 3068 O 286.897 -1.81975 0.573567 0
M  V30 3069 C 284.037 -3.12328 1.46784 0
M  V30 3070 C 283.15 -3.35277 2.72422 0
M  V30 3071 C 282.285 -4.63515 2.59475 0
M  V30 3072 C 281.324 -4.7965 3.80266 0
M  V30 3073 N 280.461 -5.99168 3.65981 0
M  V30 3074 H 285.301 -1.67392 2.46544 0
M  V30 3075 H 282.838 -0.816527 1.22357 0
M  V30 3076 H 284.796 -3.92286 1.42012 0
M  V30 3077 H 283.426 -3.18018 0.553544 0
M  V30 3078 H 282.478 -2.49242 2.87372 0
M  V30 3079 H 283.79 -3.43078 3.62076 0
M  V30 3080 H 282.944 -5.51638 2.52548 0
M  V30 3081 H 281.683 -4.58076 1.67384 0
M  V30 3082 H 280.688 -3.89957 3.87574 0
M  V30 3083 H 281.913 -4.86902 4.73395 0
M  V30 3084 H 279.859 -5.94814 2.76644 0
M  V30 3085 H 279.776 -6.08035 4.49254 0
M  V30 3086 H 281.044 -6.89846 3.6295 0
M  V30 3087 N 285.273 -1.31445 -0.869486 0
M  V30 3088 C 286.205 -1.14955 -1.98287 0
M  V30 3089 C 287.218 -0.0885037 -1.62559 0
M  V30 3090 O 288.407 -0.336044 -1.75308 0
M  V30 3091 C 285.507 -0.734255 -3.3085 0
M  V30 3092 C 284.68 -1.88042 -3.94917 0
M  V30 3093 C 283.739 -1.4511 -5.05796 0
M  V30 3094 O 282.765 -2.16082 -5.2659 0
M  V30 3095 N 283.967 -0.338763 -5.79511 0
M  V30 3096 H 286.732 -2.10856 -2.12979 0
M  V30 3097 H 284.293 -1.23786 -1.04349 0
M  V30 3098 H 286.285 -0.42975 -4.02412 0
M  V30 3099 H 284.855 0.133158 -3.12316 0
M  V30 3100 H 284.075 -2.35222 -3.1633 0
M  V30 3101 H 285.363 -2.6481 -4.34457 0
M  V30 3102 H 284.761 0.252274 -5.65137 0
M  V30 3103 H 283.318 -0.0937925 -6.51733 0
M  V30 3104 N 286.751 1.08385 -1.14413 0
M  V30 3105 C 288 1.80153 -0.907076 0
M  V30 3106 C 288.313 1.87176 0.567851 0
M  V30 3107 O 289.519 2.55359 0.922172 0
M  V30 3108 C 287.975 3.23687 -1.57336 0
M  V30 3109 C 287.583 3.24897 -3.08457 0
M  V30 3110 C 289.327 4.00136 -1.41744 0
M  V30 3111 C 287.234 4.6302 -3.67921 0
M  V30 3112 H 286.164 0.675139 -0.335714 0
M  V30 3113 H 288.815 1.21733 -1.37307 0
M  V30 3114 H 287.197 3.82234 -1.03505 0
M  V30 3115 H 288.371 2.76055 -3.68958 0
M  V30 3116 H 286.686 2.61943 -3.2369 0
M  V30 3117 H 289.283 5.02201 -1.83572 0
M  V30 3118 H 289.626 4.14709 -0.363576 0
M  V30 3119 H 290.159 3.48058 -1.92614 0
M  V30 3120 H 286.898 4.5365 -4.73161 0
M  V30 3121 H 286.418 5.12143 -3.12201 0
M  V30 3122 H 288.097 5.31994 -3.68227 0
M  V30 3123 N 288.23 0.939286 1.26551 0
M  V30 3124 C 289.162 0.404704 2.25599 0
M  V30 3125 C 290.175 -0.470983 1.55838 0
M  V30 3126 O 291.364 -0.281734 1.76263 0
M  V30 3127 C 288.464 -0.43764 3.36062 0
M  V30 3128 C 287.637 0.421449 4.35365 0
M  V30 3129 C 286.696 -0.36015 5.24966 0
M  V30 3130 O 285.722 0.236167 5.6871 0
M  V30 3131 N 286.924 -1.65715 5.56344 0
M  V30 3132 H 289.689 1.25618 2.72103 0
M  V30 3133 H 287.25 0.807963 1.40298 0
M  V30 3134 H 289.242 -0.967866 3.92956 0
M  V30 3135 H 287.812 -1.18991 2.89067 0
M  V30 3136 H 287.032 1.1329 3.7757 0
M  V30 3137 H 288.32 1.00835 4.98708 0
M  V30 3138 H 287.718 -2.16378 5.22682 0
M  V30 3139 H 286.275 -2.13366 6.15888 0
M  V30 3140 N 289.708 -1.40897 0.706093 0
M  V30 3141 C 290.618 -2.3455 0.0482286 0
M  V30 3142 C 291.634 -1.56796 -0.754396 0
M  V30 3143 O 292.81 -1.89228 -0.689538 0
M  V30 3144 C 289.875 -3.35625 -0.869303 0
M  V30 3145 C 288.936 -4.29261 -0.0576994 0
M  V30 3146 C 288.169 -5.25508 -0.931531 0
M  V30 3147 O 288.392 -5.27472 -2.17092 0
M  V30 3148 O 287.326 -6.00727 -0.375587 0
M  V30 3149 H 291.152 -2.92407 0.820476 0
M  V30 3150 H 288.737 -1.4193 0.4665 0
M  V30 3151 H 290.619 -3.97635 -1.39514 0
M  V30 3152 H 289.294 -2.80196 -1.62086 0
M  V30 3153 H 288.201 -3.70566 0.512988 0
M  V30 3154 H 289.534 -4.87817 0.655426 0
M  V30 3155 N 291.186 -0.45159 -1.50991 0
M  V30 3156 C 292.116 0.342898 -2.30969 0
M  V30 3157 C 293.097 1.00815 -1.37005 0
M  V30 3158 O 294.282 1.00907 -1.65926 0
M  V30 3159 C 291.412 1.43637 -3.16205 0
M  V30 3160 C 290.366 0.893818 -4.18563 0
M  V30 3161 C 289.692 2.08411 -4.92411 0
M  V30 3162 C 290.992 -0.0815568 -5.22236 0
M  V30 3163 H 292.686 -0.324556 -2.97636 0
M  V30 3164 H 290.232 -0.157531 -1.43136 0
M  V30 3165 H 292.185 1.9995 -3.70942 0
M  V30 3166 H 290.909 2.13232 -2.47386 0
M  V30 3167 H 289.568 0.352798 -3.64898 0
M  V30 3168 H 289.216 2.76658 -4.20082 0
M  V30 3169 H 288.916 1.72741 -5.61636 0
M  V30 3170 H 290.44 2.65251 -5.49976 0
M  V30 3171 H 291.854 0.391742 -5.7196 0
M  V30 3172 H 290.251 -0.351551 -5.99069 0
M  V30 3173 H 291.321 -1.01374 -4.74185 0
M  V30 3174 N 292.664 1.56529 -0.183458 0
M  V30 3175 C 293.91 1.97537 0.459036 0
M  V30 3176 C 294.243 1.06989 1.62071 0
M  V30 3177 O 293.518 0.11948 1.94133 0
M  V30 3178 C 293.801 3.47874 0.930368 0
M  V30 3179 C 293.654 4.492 -0.232317 0
M  V30 3180 C 294.973 4.01612 1.79989 0
M  V30 3181 H 292.092 0.718204 0.165383 0
M  V30 3182 H 294.734 1.88042 -0.272038 0
M  V30 3183 H 292.884 3.56095 1.55333 0
M  V30 3184 H 294.556 4.53027 -0.86972 0
M  V30 3185 H 292.799 4.24657 -0.885928 0
M  V30 3186 H 293.47 5.51823 0.139796 0
M  V30 3187 H 295.946 3.96097 1.27461 0
M  V30 3188 H 294.822 5.07195 2.09867 0
M  V30 3189 H 295.083 3.46163 2.74998 0
M  V30 3190 N 294.142 -0.090211 1.57342 0
M  V30 3191 C 295.052 -1.12735 2.05738 0
M  V30 3192 C 296.068 -1.43557 0.983231 0
M  V30 3193 O 297.244 -1.54101 1.29672 0
M  V30 3194 C 294.309 -2.42659 2.47624 0
M  V30 3195 C 293.37 -2.18975 3.69254 0
M  V30 3196 C 292.603 -3.42704 4.09133 0
M  V30 3197 O 292.826 -4.51127 3.49057 0
M  V30 3198 O 291.76 -3.32003 5.02053 0
M  V30 3199 H 295.586 -0.746279 2.94388 0
M  V30 3200 H 293.171 -0.303064 1.46294 0
M  V30 3201 H 295.053 -3.19155 2.7517 0
M  V30 3202 H 293.728 -2.80182 1.62109 0
M  V30 3203 H 292.635 -1.40244 3.46818 0
M  V30 3204 H 293.968 -1.86342 4.55563 0
M  V30 3205 N 295.62 -1.53406 -0.361157 0
M  V30 3206 C 296.583 -1.79479 -1.42548 0
M  V30 3207 C 297.583 -0.665327 -1.4639 0
M  V30 3208 O 298.773 -0.933549 -1.47073 0
M  V30 3209 C 295.905 -1.92087 -2.8163 0
M  V30 3210 H 297.098 -2.74538 -1.20701 0
M  V30 3211 H 294.651 -1.4455 -0.594546 0
M  V30 3212 H 295.386 -0.991099 -3.08784 0
M  V30 3213 H 295.171 -2.74241 -2.80239 0
M  V30 3214 H 296.661 -2.13836 -3.58697 0
M  V30 3215 N 297.098 0.621204 -1.44841 0
M  V30 3216 C 298.347 1.37658 -1.47422 0
M  V30 3217 C 298.66 1.95264 -0.114629 0
M  V30 3218 O 299.866 2.71494 -0.0180199 0
M  V30 3219 C 298.322 2.49285 -2.59586 0
M  V30 3220 C 297.93 1.98149 -4.01797 0
M  V30 3221 C 299.674 3.26409 -2.71399 0
M  V30 3222 C 297.581 3.07178 -5.05367 0
M  V30 3223 H 296.511 0.517344 -0.548517 0
M  V30 3224 H 299.162 0.667257 -1.70938 0
M  V30 3225 H 297.544 3.22839 -2.29328 0
M  V30 3226 H 298.718 1.31395 -4.41669 0
M  V30 3227 H 297.033 1.33812 -3.94314 0
M  V30 3228 H 299.63 4.07706 -3.45948 0
M  V30 3229 H 299.973 3.76535 -1.77559 0
M  V30 3230 H 300.506 2.5995 -3.01116 0
M  V30 3231 H 297.245 2.61985 -6.00869 0
M  V30 3232 H 296.765 3.72542 -4.70077 0
M  V30 3233 H 298.444 3.71789 -5.29511 0
M  V30 3234 N 298.576 1.31904 0.862503 0
M  V30 3235 C 299.822 1.22197 1.61851 0
M  V30 3236 C 300.155 -0.217641 1.92977 0
M  V30 3237 O 299.43 -1.15264 1.56666 0
M  V30 3238 C 299.713 2.07378 2.94391 0
M  V30 3239 C 299.566 3.59678 2.70096 0
M  V30 3240 C 300.885 1.92891 3.95577 0
M  V30 3241 H 298.004 0.445255 0.587296 0
M  V30 3242 H 300.646 1.6177 0.99651 0
M  V30 3243 H 298.796 1.73758 3.47477 0
M  V30 3244 H 300.468 4.03472 2.23625 0
M  V30 3245 H 298.711 3.82735 2.04197 0
M  V30 3246 H 299.382 4.14595 3.64438 0
M  V30 3247 H 301.858 2.22327 3.51724 0
M  V30 3248 H 300.734 2.54781 4.86187 0
M  V30 3249 H 300.995 0.894315 4.3296 0
M  V30 3250 N 300.054 -1.07777 1.14986 0
M  V30 3251 C 300.984 -2.16865 0.865557 0
M  V30 3252 C 301.965 -1.69123 -0.182083 0
M  V30 3253 O 303.15 -1.94164 -0.0373815 0
M  V30 3254 C 300.28 -3.45539 0.349313 0
M  V30 3255 C 299.234 -4.06708 1.33313 0
M  V30 3256 C 298.56 -5.30411 0.675918 0
M  V30 3257 C 299.86 -4.47241 2.69764 0
M  V30 3258 H 301.554 -2.40905 1.77778 0
M  V30 3259 H 299.1 -1.15781 0.856203 0
M  V30 3260 H 301.053 -4.21174 0.137983 0
M  V30 3261 H 299.777 -3.21072 -0.598362 0
M  V30 3262 H 298.436 -3.33112 1.53075 0
M  V30 3263 H 298.084 -5.02232 -0.277767 0
M  V30 3264 H 297.784 -5.72293 1.33244 0
M  V30 3265 H 299.308 -6.08755 0.474262 0
M  V30 3266 H 300.722 -5.14025 2.53873 0
M  V30 3267 H 299.119 -5.00062 3.3175 0
M  V30 3268 H 300.189 -3.58818 3.26156 0
M  V30 3269 N 301.532 -0.945985 -1.26051 0
M  V30 3270 C 302.943 -0.638096 -1.75457 0
M  V30 3271 C 303.294 0.846672 -1.76991 0
M  V30 3272 O 302.419 1.66262 -1.38513 0
M  V30 3273 C 303.014 -1.15157 -3.18629 0
M  V30 3274 C 301.573 -0.894004 -3.65629 0
M  V30 3275 C 300.72 -1.29967 -2.44957 0
M  V30 3276 H 303.671 -1.12376 -1.1206 0
M  V30 3277 H 303.692 -0.507615 -3.77099 0
M  V30 3278 H 303.204 -2.23222 -3.1748 0
M  V30 3279 H 301.305 0.172057 -3.72203 0
M  V30 3280 H 301.418 -1.52439 -4.54202 0
M  V30 3281 H 299.782 -0.718078 -2.44368 0
M  V30 3282 H 300.565 -2.38935 -2.46505 0
M  V30 3283 N 303.011 1.40521 -0.713556 0
M  V30 3284 C 303.944 2.28198 -0.00881422 0
M  V30 3285 C 304.922 1.43227 0.769735 0
M  V30 3286 O 306.106 1.72641 0.756799 0
M  V30 3287 C 303.233 3.23758 0.994899 0
M  V30 3288 C 302.279 4.25391 0.3074 0
M  V30 3289 S 303.112 5.26765 -0.963247 0
M  V30 3290 C 304.268 6.25888 0.0384143 0
M  V30 3291 H 304.501 2.87622 -0.752407 0
M  V30 3292 H 302.034 1.45925 -0.504502 0
M  V30 3293 H 303.992 3.79341 1.56879 0
M  V30 3294 H 302.653 2.63396 1.71118 0
M  V30 3295 H 301.846 4.92596 1.0661 0
M  V30 3296 H 301.448 3.73497 -0.193879 0
M  V30 3297 H 303.74 6.71683 0.885912 0
M  V30 3298 H 304.683 7.05552 -0.60019 0
M  V30 3299 H 305.091 5.63072 0.401233 0
M  V30 3300 N 304.489 0.459591 1.5075 0
M  V30 3301 C 305.437 -0.354678 2.2988 0
M  V30 3302 C 306.431 -1.00086 1.36672 0
M  V30 3303 O 307.637 -0.933277 1.53915 0
M  V30 3304 H 304.012 -0.13321 0.740107 0
M  V30 3305 H 305.983 0.333269 2.96533 0
M  V30 3306 C 304.732 -1.43073 3.169 0
M  V30 3307 H 304.055 -0.942882 3.88523 0
M  V30 3308 H 305.495 -1.97328 3.75284 0
M  V30 3309 C 303.954 -2.42633 2.33732 0
M  V30 3310 O 304.484 -3.47658 2.01238 0
M  V30 3311 N 302.69 -2.14066 1.9653 0
M  V30 3312 H 302.237 -1.28685 2.23155 0
M  V30 3313 H 302.195 -2.80917 1.41185 0
M  V30 3314 N 305.967 -1.56429 0.191757 0
M  V30 3315 C 306.917 -2.15548 -0.743184 0
M  V30 3316 C 307.901 -1.09531 -1.17863 0
M  V30 3317 O 309.093 -1.35602 -1.13759 0
M  V30 3318 C 306.222 -2.81577 -1.96391 0
M  V30 3319 C 305.308 -3.9478 -1.54951 0
M  V30 3320 N 305.699 -4.98677 -0.845876 0
M  V30 3321 C 303.997 -4.06319 -1.83905 0
M  V30 3322 C 304.698 -5.78183 -0.638724 0
M  V30 3323 N 303.674 -5.30495 -1.18643 0
M  V30 3324 H 307.476 -2.9324 -0.196839 0
M  V30 3325 H 304.99 -1.62398 -0.0081603 0
M  V30 3326 H 306.987 -3.22321 -2.64415 0
M  V30 3327 H 305.647 -2.05371 -2.51501 0
M  V30 3328 H 306.658 -5.15464 -0.501704 0
M  V30 3329 H 303.335 -3.41238 -2.40548 0
M  V30 3330 H 304.725 -6.71851 -0.0807929 0
M  V30 3331 N 307.445 0.0818655 -1.57387 0
M  V30 3332 C 308.392 1.09834 -2.0299 0
M  V30 3333 C 309.362 1.39043 -0.908639 0
M  V30 3334 O 310.547 1.50282 -1.17559 0
M  V30 3335 C 307.687 2.40971 -2.47037 0
M  V30 3336 C 306.8 2.18379 -3.7274 0
M  V30 3337 C 305.935 3.43008 -4.0561 0
M  V30 3338 C 304.974 3.15736 -5.24383 0
M  V30 3339 N 304.111 4.32667 -5.52941 0
M  V30 3340 H 308.951 0.702472 -2.89602 0
M  V30 3341 H 306.488 0.33531 -1.43227 0
M  V30 3342 H 308.446 3.1752 -2.70623 0
M  V30 3343 H 307.076 2.78379 -1.63417 0
M  V30 3344 H 306.128 1.32569 -3.56552 0
M  V30 3345 H 307.44 1.94227 -4.59431 0
M  V30 3346 H 306.594 4.27958 -4.30043 0
M  V30 3347 H 305.333 3.70225 -3.17466 0
M  V30 3348 H 304.338 2.2918 -4.99757 0
M  V30 3349 H 305.563 2.8985 -6.14136 0
M  V30 3350 H 303.509 4.59935 -4.67756 0
M  V30 3351 H 303.426 4.11753 -6.34031 0
M  V30 3352 H 304.694 5.18644 -5.81918 0
M  V30 3353 N 308.923 1.53595 0.353017 0
M  V30 3354 C 309.833 1.83897 1.45667 0
M  V30 3355 C 310.849 0.728334 1.58023 0
M  V30 3356 O 312.025 1.01968 1.73679 0
M  V30 3357 C 309.09 2.03383 2.80778 0
M  V30 3358 C 308.151 3.27262 2.77845 0
M  V30 3359 C 307.384 3.45809 4.06512 0
M  V30 3360 O 307.607 2.68387 5.03314 0
M  V30 3361 O 306.541 4.39207 4.11559 0
M  V30 3362 H 310.367 2.77686 1.2298 0
M  V30 3363 H 307.952 1.39132 0.544308 0
M  V30 3364 H 309.834 2.17698 3.60812 0
M  V30 3365 H 308.509 1.12783 3.03417 0
M  V30 3366 H 307.416 3.18359 1.96465 0
M  V30 3367 H 308.749 4.17824 2.60161 0
M  V30 3368 N 310.401 -0.613514 1.45168 0
M  V30 3369 C 311.348 -1.72456 1.53387 0
M  V30 3370 C 312.318 -1.6169 0.380191 0
M  V30 3371 O 313.503 -1.81356 0.592836 0
M  V30 3372 C 310.643 -3.10753 1.50088 0
M  V30 3373 C 309.756 -3.32368 2.75963 0
M  V30 3374 C 308.891 -4.60737 2.64376 0
M  V30 3375 C 307.93 -4.7559 3.85332 0
M  V30 3376 N 307.067 -5.95253 3.72315 0
M  V30 3377 H 311.907 -1.64768 2.48305 0
M  V30 3378 H 309.444 -0.803503 1.23216 0
M  V30 3379 H 311.402 -3.90758 1.46164 0
M  V30 3380 H 310.032 -3.17413 0.587243 0
M  V30 3381 H 309.084 -2.4618 2.89999 0
M  V30 3382 H 310.396 -3.39218 3.65695 0
M  V30 3383 H 309.55 -5.48928 2.58385 0
M  V30 3384 H 308.289 -4.56275 1.72233 0
M  V30 3385 H 307.294 -3.85824 3.91688 0
M  V30 3386 H 308.519 -4.81854 4.78533 0
M  V30 3387 H 306.465 -5.91847 2.82937 0
M  V30 3388 H 306.382 -6.03236 4.55677 0
M  V30 3389 H 307.65 -6.85958 3.70246 0
M  V30 3390 N 311.879 -1.3236 -0.855495 0
M  V30 3391 C 313.126 -1.22872 -1.60962 0
M  V30 3392 C 313.454 0.209658 -1.93367 0
M  V30 3393 O 312.709 1.16243 -1.57436 0
M  V30 3394 C 313.008 -2.03275 -2.93963 0
M  V30 3395 C 312.674 -3.5264 -2.80991 0
M  V30 3396 C 311.336 -3.93364 -2.7716 0
M  V30 3397 C 313.688 -4.47626 -2.66983 0
M  V30 3398 C 311.016 -5.27319 -2.572 0
M  V30 3399 C 313.368 -5.81723 -2.48558 0
M  V30 3400 C 312.032 -6.2165 -2.4312 0
M  V30 3401 H 311.302 -0.44962 -0.589001 0
M  V30 3402 H 313.949 -1.63777 -0.992442 0
M  V30 3403 H 312.254 -1.55095 -3.59795 0
M  V30 3404 H 313.951 -1.93303 -3.51333 0
M  V30 3405 H 310.541 -3.20295 -2.84797 0
M  V30 3406 H 314.725 -4.17084 -2.68988 0
M  V30 3407 H 309.981 -5.57311 -2.51424 0
M  V30 3408 H 314.155 -6.5494 -2.36699 0
M  V30 3409 H 311.782 -7.25388 -2.27412 0
M  V30 3410 N 313.357 1.07166 -1.15556 0
M  V30 3411 C 314.267 2.17947 -0.868116 0
M  V30 3412 C 315.283 1.73297 0.156297 0
M  V30 3413 O 316.459 2.01392 -0.0182327 0
M  V30 3414 C 313.524 3.44789 -0.36355 0
M  V30 3415 C 312.585 4.03996 -1.45209 0
M  V30 3416 C 311.818 5.24783 -0.971508 0
M  V30 3417 O 312.041 5.70109 0.182194 0
M  V30 3418 O 310.975 5.75715 -1.75603 0
M  V30 3419 H 314.801 2.4503 -1.79427 0
M  V30 3420 H 312.386 1.16539 -0.934824 0
M  V30 3421 H 314.268 4.21307 -0.0887113 0
M  V30 3422 H 312.943 3.19253 0.534708 0
M  V30 3423 H 311.85 3.29009 -1.78056 0
M  V30 3424 H 313.183 4.33808 -2.32533 0
M  V30 3425 N 314.835 0.952656 1.25548 0
M  V30 3426 C 315.783 0.462354 2.27958 0
M  V30 3427 C 316.777 -0.46634 1.62855 0
M  V30 3428 O 317.983 -0.343287 1.76696 0
M  V30 3429 H 314.358 0.13101 0.7405 0
M  V30 3430 H 316.329 1.33839 2.66702 0
M  V30 3431 C 315.078 -0.24628 3.46827 0
M  V30 3432 H 314.401 0.459192 3.97154 0
M  V30 3433 H 315.841 -0.553393 4.20373 0
M  V30 3434 C 314.3 -1.4681 3.0323 0
M  V30 3435 O 314.83 -2.56591 3.09069 0
M  V30 3436 N 313.036 -1.32874 2.58443 0
M  V30 3437 H 312.583 -0.435536 2.53891 0
M  V30 3438 H 312.541 -2.14742 2.29637 0
M  V30 3439 N 316.313 -1.40141 0.720998 0
M  V30 3440 C 317.243 -2.33339 0.0867621 0
M  V30 3441 C 318.224 -1.53178 -0.739622 0
M  V30 3442 O 319.409 -1.81625 -0.687449 0
M  V30 3443 C 316.539 -3.37194 -0.831728 0
M  V30 3444 C 315.493 -4.27857 -0.110558 0
M  V30 3445 C 314.819 -5.22294 -1.14513 0
M  V30 3446 C 316.119 -5.11872 1.0385 0
M  V30 3447 H 317.813 -2.86626 0.865219 0
M  V30 3448 H 315.359 -1.37814 0.417516 0
M  V30 3449 H 317.312 -4.01335 -1.28485 0
M  V30 3450 H 316.036 -2.82314 -1.64214 0
M  V30 3451 H 314.695 -3.65176 0.322797 0
M  V30 3452 H 314.343 -4.63717 -1.94874 0
M  V30 3453 H 314.043 -5.83797 -0.667446 0
M  V30 3454 H 315.567 -5.89312 -1.59824 0
M  V30 3455 H 316.981 -5.69436 0.664482 0
M  V30 3456 H 315.378 -5.82445 1.4449 0
M  V30 3457 H 316.448 -4.4753 1.86668 0
M  V30 3458 N 317.792 -0.46758 -1.50504 0
M  V30 3459 C 319.04 0.0884469 -2.01906 0
M  V30 3460 C 319.361 1.40532 -1.35188 0
M  V30 3461 O 318.631 1.89515 -0.496079 0
M  V30 3462 H 317.211 0.0356765 -0.746148 0
M  V30 3463 H 319.873 -0.6172 -1.84869 0
M  V30 3464 H 318.969 0.2425 -3.11156 0
M  V30 3465 N 319.27 1.56325 -0.20005 0
M  V30 3466 C 320.519 1.96895 0.437652 0
M  V30 3467 C 320.832 1.08999 1.62415 0
M  V30 3468 O 322.038 1.39372 2.32997 0
M  V30 3469 C 320.494 3.50198 0.830025 0
M  V30 3470 C 320.102 4.46765 -0.332461 0
M  V30 3471 C 321.846 3.99526 1.43453 0
M  V30 3472 C 319.753 5.91344 0.0811468 0
M  V30 3473 H 318.683 0.735209 0.167282 0
M  V30 3474 H 321.334 1.81148 -0.292853 0
M  V30 3475 H 319.716 3.61467 1.61734 0
M  V30 3476 H 320.89 4.47231 -1.11 0
M  V30 3477 H 319.205 4.07657 -0.848789 0
M  V30 3478 H 321.802 5.05025 1.75652 0
M  V30 3479 H 322.145 3.44122 2.34277 0
M  V30 3480 H 322.678 3.91393 0.71109 0
M  V30 3481 H 319.417 6.50685 -0.793033 0
M  V30 3482 H 318.937 5.94121 0.823445 0
M  V30 3483 H 320.616 6.44945 0.515252 0
M  V30 3484 N 320.748 -0.0735177 1.57428 0
M  V30 3485 C 321.68 -1.11423 2.00294 0
M  V30 3486 C 322.693 -1.35084 0.908637 0
M  V30 3487 O 323.882 -1.33355 1.18654 0
M  V30 3488 C 320.982 -2.46548 2.32523 0
M  V30 3489 C 320.155 -2.42867 3.63778 0
M  V30 3490 C 319.214 -3.60087 3.83697 0
M  V30 3491 O 318.24 -3.41595 4.55304 0
M  V30 3492 N 319.442 -4.80372 3.25919 0
M  V30 3493 H 322.207 -0.749206 2.90184 0
M  V30 3494 H 319.768 -0.262195 1.59763 0
M  V30 3495 H 321.76 -3.23607 2.43024 0
M  V30 3496 H 320.33 -2.75059 1.48531 0
M  V30 3497 H 319.55 -1.51206 3.64047 0
M  V30 3498 H 320.838 -2.37506 4.49965 0
M  V30 3499 H 320.236 -4.983 2.67795 0
M  V30 3500 H 318.793 -5.54948 3.41871 0
M  V30 3501 N 322.226 -1.5378 -0.344866 0
M  V30 3502 C 323.637 -1.62428 -0.920552 0
M  V30 3503 C 323.988 -0.504747 -1.89596 0
M  V30 3504 O 323.113 0.365711 -2.13287 0
M  V30 3505 C 323.708 -2.94419 -1.67639 0
M  V30 3506 C 322.267 -3.05333 -2.20111 0
M  V30 3507 C 321.414 -2.57866 -1.01982 0
M  V30 3508 H 324.365 -1.58222 -0.123042 0
M  V30 3509 H 324.386 -2.83384 -2.53917 0
M  V30 3510 H 323.898 -3.7588 -0.966224 0
M  V30 3511 H 321.999 -2.28502 -2.94308 0
M  V30 3512 H 322.112 -4.10778 -2.46573 0
M  V30 3513 H 320.476 -2.13241 -1.39285 0
M  V30 3514 H 321.259 -3.41765 -0.324308 0
M  V30 3515 N 323.704 0.605807 -1.45491 0
M  V30 3516 C 325.115 1.18777 -1.44045 0
M  V30 3517 C 325.466 1.95471 -0.169001 0
M  V30 3518 O 324.591 2.0374 0.729324 0
M  V30 3519 C 325.186 2.16064 -2.60963 0
M  V30 3520 C 323.745 2.69633 -2.62631 0
M  V30 3521 C 322.892 1.45072 -2.36325 0
M  V30 3522 H 325.843 0.395017 -1.53705 0
M  V30 3523 H 325.864 2.9913 -2.35163 0
M  V30 3524 H 325.376 1.60217 -3.53486 0
M  V30 3525 H 323.477 3.29414 -1.74119 0
M  V30 3526 H 323.59 3.13944 -3.61906 0
M  V30 3527 H 321.954 1.74089 -1.85917 0
M  V30 3528 H 322.737 0.910899 -3.30995 0
M  V30 3529 N 325.182 1.32811 0.848464 0
M  V30 3530 C 326.129 1.22265 1.95755 0
M  V30 3531 C 327.099 0.103413 1.65778 0
M  V30 3532 O 328.284 0.280033 1.88734 0
M  V30 3533 C 325.424 0.958014 3.31536 0
M  V30 3534 C 324.537 2.16262 3.73971 0
M  V30 3535 C 323.672 1.83295 4.98575 0
M  V30 3536 C 322.711 3.00041 5.33518 0
M  V30 3537 N 321.848 2.67125 6.49299 0
M  V30 3538 H 326.688 2.17128 2.04107 0
M  V30 3539 H 324.225 1.07982 0.998913 0
M  V30 3540 H 326.183 0.785052 4.09747 0
M  V30 3541 H 324.813 0.046159 3.22767 0
M  V30 3542 H 323.865 2.44565 2.91362 0
M  V30 3543 H 325.177 3.03572 3.95785 0
M  V30 3544 H 324.331 1.62586 5.84509 0
M  V30 3545 H 323.07 0.932078 4.7871 0
M  V30 3546 H 322.075 3.21374 4.46093 0
M  V30 3547 H 323.3 3.90869 5.55336 0
M  V30 3548 H 321.246 1.79586 6.3094 0
M  V30 3549 H 321.163 3.47965 6.71161 0
M  V30 3550 H 322.431 2.49861 7.3837 0
M  V30 3551 N 326.66 -1.06551 1.16123 0
M  V30 3552 C 327.908 -1.78947 0.939267 0
M  V30 3553 C 328.229 -1.87532 -0.534476 0
M  V30 3554 O 327.499 -1.38211 -1.38833 0
M  V30 3555 H 326.079 -0.662807 0.344523 0
M  V30 3556 H 328.741 -1.28725 1.46342 0
M  V30 3557 H 327.837 -2.81117 1.35572 0
M  V30 3558 N 328.138 -0.959301 -1.25041 0
M  V30 3559 C 329.384 -0.617525 -1.9317 0
M  V30 3560 C 329.717 0.843981 -1.74902 0
M  V30 3561 O 328.992 1.60615 -1.09696 0
M  V30 3562 C 329.275 -0.982736 -3.46431 0
M  V30 3563 C 329.128 -2.50032 -3.73904 0
M  V30 3564 C 330.447 -0.511176 -4.37121 0
M  V30 3565 H 327.566 -0.22582 -0.701552 0
M  V30 3566 H 330.208 -1.19679 -1.4757 0
M  V30 3567 H 328.358 -0.489806 -3.854 0
M  V30 3568 H 330.03 -3.06737 -3.44544 0
M  V30 3569 H 328.273 -2.93598 -3.19348 0
M  V30 3570 H 328.944 -2.70635 -4.81103 0
M  V30 3571 H 331.42 -0.934075 -4.0548 0
M  V30 3572 H 330.296 -0.795361 -5.43107 0
M  V30 3573 H 330.557 0.588834 -4.38161 0
M  V30 3574 N 329.616 1.39756 -0.72842 0
M  V30 3575 C 330.546 2.33289 -0.0991354 0
M  V30 3576 C 331.527 1.53568 0.731489 0
M  V30 3577 O 332.712 1.81987 0.677807 0
M  V30 3578 C 329.842 3.3763 0.813834 0
M  V30 3579 C 328.796 4.2791 0.0878663 0
M  V30 3580 C 328.122 5.22894 1.11741 0
M  V30 3581 C 329.422 5.11314 -1.06563 0
M  V30 3582 H 331.116 2.86163 -0.880408 0
M  V30 3583 H 328.662 1.37591 -0.424819 0
M  V30 3584 H 330.615 4.0201 1.26355 0
M  V30 3585 H 329.339 2.83181 1.62715 0
M  V30 3586 H 327.998 3.65 -0.342159 0
M  V30 3587 H 327.646 4.64744 1.92412 0
M  V30 3588 H 327.346 5.84143 0.636477 0
M  V30 3589 H 328.87 5.90151 1.56697 0
M  V30 3590 H 330.284 5.69076 -0.694671 0
M  V30 3591 H 328.681 5.81671 -1.47577 0
M  V30 3592 H 329.751 4.46534 -1.89038 0
M  V30 3593 N 331.094 0.475555 1.50254 0
M  V30 3594 C 332.027 -0.362381 2.25304 0
M  V30 3595 C 333.005 -0.992393 1.28803 0
M  V30 3596 O 334.189 -1.02746 1.58036 0
M  V30 3597 C 331.316 -1.50813 3.03271 0
M  V30 3598 C 330.362 -0.995044 4.1473 0
M  V30 3599 S 331.195 0.0938436 5.35418 0
M  V30 3600 C 332.351 -1.05567 6.16933 0
M  V30 3601 H 332.584 0.274686 2.96028 0
M  V30 3602 H 330.117 0.260495 1.52187 0
M  V30 3603 H 332.075 -2.16476 3.48781 0
M  V30 3604 H 330.736 -2.11672 2.32064 0
M  V30 3605 H 329.929 -1.85293 4.68703 0
M  V30 3606 H 329.531 -0.416052 3.71679 0
M  V30 3607 H 331.823 -1.96636 6.48337 0
M  V30 3608 H 332.766 -0.555109 7.05921 0
M  V30 3609 H 333.174 -1.31151 5.49053 0
M  V30 3610 N 332.573 -1.56217 0.208337 0
M  V30 3611 C 333.803 -2.02043 -0.431523 0
M  V30 3612 C 334.211 -1.08755 -1.54819 0
M  V30 3613 O 333.554 -0.0870009 -1.83494 0
M  V30 3614 C 333.616 -3.44239 -1.03633 0
M  V30 3615 C 333.28 -4.56965 -0.0567502 0
M  V30 3616 C 334.277 -5.14624 0.738773 0
M  V30 3617 C 331.962 -5.02266 0.0581736 0
M  V30 3618 C 333.956 -6.16045 1.63605 0
M  V30 3619 C 331.643 -6.03528 0.959001 0
M  V30 3620 C 332.641 -6.60293 1.7465 0
M  V30 3621 O 332.329 -7.59586 2.6322 0
M  V30 3622 H 332.061 -0.666772 -0.111313 0
M  V30 3623 H 334.615 -2.02919 0.318277 0
M  V30 3624 H 332.845 -3.40391 -1.83497 0
M  V30 3625 H 334.534 -3.73793 -1.58221 0
M  V30 3626 H 335.3 -4.80483 0.660364 0
M  V30 3627 H 331.179 -4.57771 -0.544633 0
M  V30 3628 H 334.723 -6.60279 2.25116 0
M  V30 3629 H 330.62 -6.37092 1.03848 0
M  V30 3630 H 331.388 -7.77057 2.57148 0
M  V30 3631 N 334.051 0.0651679 -1.57465 0
M  V30 3632 C 335.299 0.761555 -1.87202 0
M  V30 3633 C 335.62 1.77778 -0.801243 0
M  V30 3634 O 334.89 1.95166 0.16937 0
M  V30 3635 H 333.47 0.284251 -0.690804 0
M  V30 3636 H 336.132 0.0396827 -1.9486 0
M  V30 3637 H 335.228 1.27365 -2.84929 0
M  V30 3638 N 335.529 1.53961 0.336706 0
M  V30 3639 C 336.94 1.62914 0.911925 0
M  V30 3640 C 337.291 0.514795 1.89326 0
M  V30 3641 O 336.416 -0.354395 2.13478 0
M  V30 3642 C 337.011 2.95304 1.66076 0
M  V30 3643 C 335.57 3.06496 2.18489 0
M  V30 3644 C 334.717 2.58403 1.00613 0
M  V30 3645 H 337.668 1.58285 0.114649 0
M  V30 3646 H 337.689 2.84727 2.5241 0
M  V30 3647 H 337.201 3.76387 0.946276 0
M  V30 3648 H 335.302 2.3006 2.93092 0
M  V30 3649 H 335.415 4.1208 2.44391 0
M  V30 3650 H 333.779 2.13977 1.38152 0
M  V30 3651 H 334.562 3.41932 0.306179 0
M  V30 3652 N 337.007 -0.598083 1.45811 0
M  V30 3653 C 338.418 -1.18011 1.44673 0
M  V30 3654 C 338.769 -1.95378 0.179364 0
M  V30 3655 O 337.894 -2.04124 -0.718509 0
M  V30 3656 C 338.489 -2.14677 2.62105 0
M  V30 3657 C 337.048 -2.68236 2.64057 0
M  V30 3658 C 336.195 -1.43816 2.37091 0
M  V30 3659 H 339.146 -0.38686 1.53913 0
M  V30 3660 H 339.167 -2.97878 2.36746 0
M  V30 3661 H 338.679 -1.5834 3.5433 0
M  V30 3662 H 336.78 -3.28486 1.75864 0
M  V30 3663 H 336.893 -3.12021 3.63566 0
M  V30 3664 H 335.257 -1.731 1.86838 0
M  V30 3665 H 336.04 -0.893333 3.31473 0
M  V30 3666 N 338.485 -1.33259 -0.841409 0
M  V30 3667 C 339.733 -1.24326 -1.59334 0
M  V30 3668 C 340.054 0.191564 -1.94057 0
M  V30 3669 O 339.324 1.11967 -1.60749 0
M  V30 3670 H 337.904 -0.457174 -0.590763 0
M  V30 3671 H 340.566 -1.66947 -1.00571 0
M  V30 3672 H 339.662 -1.8352 -2.52442 0
M  V30 3673 N 339.963 1.05934 -1.16686 0
M  V30 3674 C 341.191 1.8249 -0.974929 0
M  V30 3675 C 341.606 1.82679 0.476861 0
M  V30 3676 O 340.963 1.2486 1.33103 0
M  V30 3677 C 341.014 3.28943 -1.49929 0
M  V30 3678 O 340.735 3.28886 -2.89423 0
M  V30 3679 C 342.236 4.22215 -1.35089 0
M  V30 3680 H 339.456 0.575295 -0.345365 0
M  V30 3681 H 342 1.33631 -1.548 0
M  V30 3682 H 340.155 3.751 -0.968423 0
M  V30 3683 H 340.569 4.20493 -3.13506 0
M  V30 3684 H 342.043 5.22987 -1.76603 0
M  V30 3685 H 342.52 4.38195 -0.296935 0
M  V30 3686 H 343.126 3.81907 -1.87155 0
M  V30 3687 N 341.441 0.965919 1.2453 0
M  V30 3688 C 342.689 0.625593 1.92174 0
M  V30 3689 C 343.01 -0.841652 1.75901 0
M  V30 3690 O 342.28 -1.60061 1.12948 0
M  V30 3691 H 340.86 0.228388 0.71123 0
M  V30 3692 H 343.522 1.2266 1.51461 0
M  V30 3693 H 342.618 0.864653 2.99884 0
M  V30 3694 N 342.919 -1.39368 0.735821 0
M  V30 3695 C 343.866 -2.30599 0.0963825 0
M  V30 3696 C 344.836 -1.49257 -0.728794 0
M  V30 3697 O 346.021 -1.77941 -0.688588 0
M  V30 3698 C 343.161 -3.35596 -0.804305 0
M  V30 3699 C 342.274 -4.31987 0.0335761 0
M  V30 3700 C 341.409 -5.24053 -0.868461 0
M  V30 3701 C 340.448 -6.12095 -0.0258776 0
M  V30 3702 N 339.585 -6.96514 -0.883893 0
M  V30 3703 H 344.425 -2.8471 0.880002 0
M  V30 3704 H 341.962 -1.40188 0.445619 0
M  V30 3705 H 343.92 -3.95062 -1.34096 0
M  V30 3706 H 342.55 -2.82938 -1.55389 0
M  V30 3707 H 341.602 -3.74133 0.68766 0
M  V30 3708 H 342.914 -4.94074 0.685036 0
M  V30 3709 H 342.068 -5.88549 -1.47293 0
M  V30 3710 H 340.807 -4.62289 -1.5537 0
M  V30 3711 H 339.812 -5.4661 0.591386 0
M  V30 3712 H 341.037 -6.75923 0.656156 0
M  V30 3713 H 338.983 -6.37318 -1.55441 0
M  V30 3714 H 338.9 -7.55448 -0.288931 0
M  V30 3715 H 340.168 -7.65439 -1.4739 0
M  V30 3716 N 344.397 -0.483516 -1.5 0
M  V30 3717 C 345.625 0.0644831 -2.06799 0
M  V30 3718 C 346.04 1.32399 -1.34596 0
M  V30 3719 O 345.397 1.77626 -0.418946 0
M  V30 3720 C 345.448 0.339927 -3.59898 0
M  V30 3721 O 345.169 -0.869635 -4.29382 0
M  V30 3722 C 346.67 0.933515 -4.33359 0
M  V30 3723 H 343.89 -0.0126333 -0.670881 0
M  V30 3724 H 346.434 -0.675864 -1.93009 0
M  V30 3725 H 344.589 1.03022 -3.7345 0
M  V30 3726 H 345.003 -0.62179 -5.20801 0
M  V30 3727 H 346.477 1.07593 -5.41413 0
M  V30 3728 H 346.954 1.92685 -3.94676 0
M  V30 3729 H 347.56 0.281221 -4.24369 0
M  V30 3730 N 345.875 1.56104 -0.216619 0
M  V30 3731 C 346.805 2.23063 0.690296 0
M  V30 3732 C 347.786 1.20072 1.20485 0
M  V30 3733 O 348.971 1.48643 1.24976 0
M  V30 3734 C 346.101 2.90672 1.90072 0
M  V30 3735 C 345.055 4.00092 1.5202 0
M  V30 3736 C 344.381 4.54972 2.80899 0
M  V30 3737 C 345.681 5.17398 0.71391 0
M  V30 3738 H 347.375 2.99109 0.132038 0
M  V30 3739 H 344.921 1.43866 0.0620664 0
M  V30 3740 H 346.874 3.36204 2.54057 0
M  V30 3741 H 345.598 2.12066 2.48386 0
M  V30 3742 H 344.257 3.55283 0.903839 0
M  V30 3743 H 343.905 3.73102 3.37348 0
M  V30 3744 H 343.605 5.28817 2.56176 0
M  V30 3745 H 345.129 5.0322 3.45836 0
M  V30 3746 H 346.543 5.59342 1.25735 0
M  V30 3747 H 344.94 5.97444 0.563951 0
M  V30 3748 H 346.01 4.84088 -0.280527 0
M  V30 3749 N 347.353 -0.0568162 1.57498 0
M  V30 3750 C 348.283 -1.06593 2.0775 0
M  V30 3751 C 349.264 -1.39448 0.974082 0
M  V30 3752 O 350.449 -1.48815 1.24771 0
M  V30 3753 C 347.579 -2.37509 2.5339 0
M  V30 3754 C 346.533 -2.1897 3.67745 0
M  V30 3755 C 345.859 -3.55402 3.99492 0
M  V30 3756 C 347.159 -1.59859 4.97235 0
M  V30 3757 H 348.853 -0.647706 2.9231 0
M  V30 3758 H 346.399 -0.310116 1.40621 0
M  V30 3759 H 348.352 -3.08409 2.87162 0
M  V30 3760 H 347.076 -2.8134 1.65878 0
M  V30 3761 H 345.735 -1.50508 3.3428 0
M  V30 3762 H 345.383 -3.9683 3.09088 0
M  V30 3763 H 345.083 -3.43831 4.76502 0
M  V30 3764 H 346.607 -4.27708 4.35773 0
M  V30 3765 H 348.021 -2.20642 5.29141 0
M  V30 3766 H 346.418 -1.58942 5.78669 0
M  V30 3767 H 347.488 -0.561506 4.81638 0
M  V30 3768 N 348.832 -1.54138 -0.328536 0
M  V30 3769 C 349.795 -1.82462 -1.38709 0
M  V30 3770 C 350.795 -0.696229 -1.44946 0
M  V30 3771 O 351.985 -0.964535 -1.4506 0
M  V30 3772 C 349.117 -1.98018 -2.77492 0
M  V30 3773 H 350.31 -2.77037 -1.14851 0
M  V30 3774 H 347.863 -1.45779 -0.563751 0
M  V30 3775 H 348.598 -1.05637 -3.06613 0
M  V30 3776 H 348.383 -2.80124 -2.74359 0
M  V30 3777 H 349.873 -2.21396 -3.54081 0
M  V30 3778 N 350.31 0.590341 -1.46126 0
M  V30 3779 C 351.726 0.912917 -1.30912 0
M  V30 3780 C 351.926 1.99616 -0.274893 0
M  V30 3781 O 350.982 2.50397 0.325197 0
M  V30 3782 C 352.295 1.3375 -2.69317 0
M  V30 3783 C 353.843 1.45077 -2.77348 0
M  V30 3784 C 354.318 1.90904 -4.16317 0
M  V30 3785 N 355.809 1.9811 -4.18696 0
M  V30 3786 C 356.544 2.34828 -5.23109 0
M  V30 3787 N 356.04 2.70393 -6.37856 0
M  V30 3788 N 357.833 2.35317 -5.10473 0
M  V30 3789 H 349.984 -0.125358 -2.1203 0
M  V30 3790 H 352.247 0.00658481 -0.947977 0
M  V30 3791 H 351.953 0.615614 -3.4627 0
M  V30 3792 H 351.827 2.30058 -2.9892 0
M  V30 3793 H 354.214 2.16353 -2.00687 0
M  V30 3794 H 354.295 0.4704 -2.51438 0
M  V30 3795 H 353.939 1.20209 -4.9347 0
M  V30 3796 H 353.869 2.89886 -4.39629 0
M  V30 3797 H 356.36 1.73146 -3.359 0
M  V30 3798 H 356.673 2.97341 -7.13308 0
M  V30 3799 H 355.018 2.68048 -6.41229 0
M  V30 3800 H 358.209 2.0695 -4.19868 0
M  V30 3801 H 358.382 2.63605 -5.9196 0
M  V30 3802 N 351.788 1.33704 0.83433 0
M  V30 3803 C 352.751 1.24244 1.92603 0
M  V30 3804 C 353.751 0.160383 1.59998 0
M  V30 3805 O 354.941 0.412228 1.69252 0
M  V30 3806 C 352.073 0.91555 3.28376 0
M  V30 3807 H 353.266 2.21287 2.02416 0
M  V30 3808 H 350.819 1.17827 1.02696 0
M  V30 3809 H 351.554 -0.0521886 3.24258 0
M  V30 3810 H 351.339 1.69811 3.53422 0
M  V30 3811 H 352.829 0.874231 4.08347 0
M  V30 3812 N 353.266 -1.05314 1.17247 0
M  V30 3813 C 354.506 -1.79869 0.970898 0
M  V30 3814 C 354.87 -1.85594 -0.491808 0
M  V30 3815 O 356.071 -2.56229 -0.812409 0
M  V30 3816 C 354.342 -3.19937 1.59295 0
M  V30 3817 S 355.901 -4.10986 1.53741 0
M  V30 3818 H 352.719 -0.61949 0.348931 0
M  V30 3819 H 355.321 -1.26368 1.49169 0
M  V30 3820 H 354.025 -3.13372 2.65003 0
M  V30 3821 H 353.556 -3.78515 1.07191 0
M  V30 3822 H 355.571 -4.93203 0.544537 0
M  V30 3823 N 354.744 -0.972509 -1.24016 0
M  V30 3824 C 355.707 -0.511403 -2.23422 0
M  V30 3825 C 356.707 0.394679 -1.55881 0
M  V30 3826 O 357.897 0.189469 -1.73167 0
M  V30 3827 C 355.029 0.258769 -3.39916 0
M  V30 3828 H 356.222 -1.39024 -2.6573 0
M  V30 3829 H 353.775 -0.757585 -1.36713 0
M  V30 3830 H 354.51 1.1545 -3.03054 0
M  V30 3831 H 354.295 -0.391522 -3.9014 0
M  V30 3832 H 355.785 0.570244 -4.13688 0
M  V30 3833 N 356.222 1.38976 -0.743202 0
M  V30 3834 C 357.185 2.28901 -0.117014 0
M  V30 3835 C 358.185 1.46698 0.658503 0
M  V30 3836 O 359.375 1.67274 0.486305 0
M  V30 3837 C 356.507 3.30309 0.84315 0
M  V30 3838 H 357.7 2.8578 -0.909373 0
M  V30 3839 H 355.253 1.47761 -0.509547 0
M  V30 3840 H 355.988 2.785 1.66157 0
M  V30 3841 H 355.773 3.91029 0.289594 0
M  V30 3842 H 357.263 3.97577 1.2776 0
M  V30 3843 N 357.7 0.491464 1.49741 0
M  V30 3844 C 358.632 -0.328609 2.26832 0
M  V30 3845 C 359.645 -0.939113 1.32983 0
M  V30 3846 O 360.834 -0.824067 1.58339 0
M  V30 3847 C 357.934 -1.47675 3.05033 0
M  V30 3848 C 357.107 -0.975305 4.26388 0
M  V30 3849 C 356.166 -1.99991 4.86714 0
M  V30 3850 O 355.192 -1.57229 5.47054 0
M  V30 3851 N 356.394 -3.32962 4.75517 0
M  V30 3852 H 359.159 0.332377 2.97851 0
M  V30 3853 H 356.72 0.323441 1.58636 0
M  V30 3854 H 358.712 -2.15954 3.42266 0
M  V30 3855 H 357.282 -2.04206 2.36683 0
M  V30 3856 H 356.502 -0.117723 3.94024 0
M  V30 3857 H 357.79 -0.618531 5.05026 0
M  V30 3858 H 357.188 -3.70399 4.27576 0
M  V30 3859 H 355.745 -3.96982 5.16961 0
M  V30 3860 N 359.178 -1.55987 0.224894 0
M  V30 3861 C 360.406 -2.02784 -0.410665 0
M  V30 3862 C 360.821 -1.10464 -1.53112 0
M  V30 3863 O 360.178 -0.114871 -1.82138 0
M  V30 3864 C 360.229 -3.49087 -0.939165 0
M  V30 3865 O 359.95 -4.37887 0.136614 0
M  V30 3866 C 361.451 -4.11543 -1.64763 0
M  V30 3867 H 358.671 -0.663484 -0.100148 0
M  V30 3868 H 361.215 -2.01614 0.342326 0
M  V30 3869 H 359.37 -3.50861 -1.64242 0
M  V30 3870 H 359.784 -5.23849 -0.261155 0
M  V30 3871 H 361.258 -5.15673 -1.96939 0
M  V30 3872 H 361.735 -3.56736 -2.56195 0
M  V30 3873 H 362.341 -4.13629 -0.989503 0
M  V30 3874 N 360.656 0.0484629 -1.57525 0
M  V30 3875 C 361.603 1.05504 -2.05275 0
M  V30 3876 C 362.573 1.37084 -0.937927 0
M  V30 3877 O 363.758 1.47754 -1.2072 0
M  V30 3878 C 360.898 2.35676 -2.52093 0
M  V30 3879 C 360.011 2.10423 -3.77288 0
M  V30 3880 C 359.146 3.34327 -4.12794 0
M  V30 3881 C 358.185 3.04542 -5.30962 0
M  V30 3882 N 357.322 4.20841 -5.61994 0
M  V30 3883 H 362.162 0.640885 -2.91027 0
M  V30 3884 H 359.699 0.304854 -1.43906 0
M  V30 3885 H 361.657 3.11709 -2.77297 0
M  V30 3886 H 360.287 2.7485 -1.69285 0
M  V30 3887 H 359.339 1.24976 -3.59284 0
M  V30 3888 H 360.651 1.84438 -4.63448 0
M  V30 3889 H 359.805 4.1874 -4.39024 0
M  V30 3890 H 358.544 3.63408 -3.25247 0
M  V30 3891 H 357.549 2.18528 -5.04505 0
M  V30 3892 H 358.774 2.76758 -6.20146 0
M  V30 3893 H 356.72 4.4991 -4.77406 0
M  V30 3894 H 356.637 3.98212 -6.42622 0
M  V30 3895 H 357.905 5.06184 -5.92789 0
M  V30 3896 N 362.134 1.5431 0.320358 0
M  V30 3897 C 363.097 1.83195 1.3774 0
M  V30 3898 C 364.097 0.703906 1.44575 0
M  V30 3899 O 365.287 0.972214 1.44546 0
M  V30 3900 C 362.419 1.99487 2.76438 0
M  V30 3901 H 363.612 2.77642 1.1338 0
M  V30 3902 H 361.165 1.46076 0.556012 0
M  V30 3903 H 361.9 1.07262 3.06048 0
M  V30 3904 H 361.685 2.81575 2.7287 0
M  V30 3905 H 363.175 2.23271 3.52902 0
M  V30 3906 N 363.613 -0.582584 1.46437 0
M  V30 3907 C 364.841 -1.36682 1.55324 0
M  V30 3908 C 365.256 -1.87796 0.194409 0
M  V30 3909 O 364.613 -1.63623 -0.808318 0
M  V30 3910 C 364.664 -2.55426 2.55812 0
M  V30 3911 O 364.385 -2.0643 3.86417 0
M  V30 3912 C 365.886 -3.47976 2.74641 0
M  V30 3913 H 363.106 -0.417545 0.525259 0
M  V30 3914 H 365.65 -0.708219 1.91845 0
M  V30 3915 H 363.805 -3.17275 2.22295 0
M  V30 3916 H 364.219 -2.83762 4.41111 0
M  V30 3917 H 365.693 -4.27775 3.48874 0
M  V30 3918 H 366.17 -3.99919 1.81553 0
M  V30 3919 H 366.776 -2.91962 3.09255 0
M  V30 3920 N 365.091 -1.34144 -0.827227 0
M  V30 3921 C 366.338 -1.26258 -1.58319 0
M  V30 3922 C 366.666 0.168595 -1.93768 0
M  V30 3923 O 365.921 1.12877 -1.59866 0
M  V30 3924 C 366.22 -2.09464 -2.89585 0
M  V30 3925 C 365.886 -3.58521 -2.73448 0
M  V30 3926 C 364.548 -3.99155 -2.68754 0
M  V30 3927 C 366.9 -4.53189 -2.57428 0
M  V30 3928 C 364.228 -5.32656 -2.45957 0
M  V30 3929 C 366.58 -5.86864 -2.36163 0
M  V30 3930 C 365.244 -6.26667 -2.29879 0
M  V30 3931 H 364.514 -0.462013 -0.579332 0
M  V30 3932 H 367.161 -1.65845 -0.95748 0
M  V30 3933 H 365.466 -1.62692 -3.56425 0
M  V30 3934 H 367.163 -2.00712 -3.47154 0
M  V30 3935 H 363.753 -3.26264 -2.77939 0
M  V30 3936 H 367.937 -4.22696 -2.60081 0
M  V30 3937 H 363.193 -5.62519 -2.39546 0
M  V30 3938 H 367.367 -6.59813 -2.22754 0
M  V30 3939 H 364.994 -7.30049 -2.11975 0
M  V30 3940 N 366.569 1.04691 -1.17803 0
M  V30 3941 C 367.499 2.14494 -0.92275 0
M  V30 3942 C 368.48 1.69546 0.137179 0
M  V30 3943 O 369.665 1.94195 -0.0141108 0
M  V30 3944 C 366.795 3.44491 -0.440803 0
M  V30 3945 C 365.749 4.03031 -1.4405 0
M  V30 3946 C 365.075 5.28432 -0.81631 0
M  V30 3947 C 366.375 4.39932 -2.81527 0
M  V30 3948 H 368.069 2.36107 -1.84103 0
M  V30 3949 H 365.615 1.1347 -0.886599 0
M  V30 3950 H 367.568 4.2066 -0.249602 0
M  V30 3951 H 366.292 3.22546 0.513025 0
M  V30 3952 H 364.951 3.28937 -1.61853 0
M  V30 3953 H 364.599 5.02792 0.144511 0
M  V30 3954 H 364.299 5.68559 -1.48371 0
M  V30 3955 H 365.823 6.07284 -0.635496 0
M  V30 3956 H 367.237 5.07113 -2.67412 0
M  V30 3957 H 365.634 4.9109 -3.44892 0
M  V30 3958 H 366.704 3.50045 -3.35554 0
M  V30 3959 N 368.047 0.979072 1.23499 0
M  V30 3960 C 368.994 0.517904 2.24914 0
M  V30 3961 C 369.964 -0.442525 1.60097 0
M  V30 3962 O 371.149 -0.350365 1.87556 0
M  V30 3963 C 368.289 -0.174813 3.44657 0
M  V30 3964 C 367.402 0.825721 4.24035 0
M  V30 3965 C 366.537 0.107946 5.3109 0
M  V30 3966 C 365.576 1.09778 6.02175 0
M  V30 3967 N 364.713 0.40925 7.00906 0
M  V30 3968 H 369.553 1.38751 2.63727 0
M  V30 3969 H 367.09 0.695303 1.2963 0
M  V30 3970 H 369.048 -0.593233 4.12961 0
M  V30 3971 H 367.678 -1.0083 3.06648 0
M  V30 3972 H 366.73 1.36253 3.55161 0
M  V30 3973 H 368.042 1.58005 4.73113 0
M  V30 3974 H 367.196 -0.367904 6.05583 0
M  V30 3975 H 365.935 -0.678994 4.8295 0
M  V30 3976 H 364.94 1.5844 5.26476 0
M  V30 3977 H 366.165 1.88536 6.52404 0
M  V30 3978 H 364.111 -0.358506 6.5502 0
M  V30 3979 H 364.028 1.10226 7.47921 0
M  V30 3980 H 365.296 -0.0442557 7.79487 0
M  V30 3981 N 369.525 -1.3858 0.750561 0
M  V30 3982 C 370.455 -2.33102 0.136237 0
M  V30 3983 C 371.436 -1.54713 -0.706965 0
M  V30 3984 O 372.621 -1.83043 -0.648769 0
M  V30 3985 C 369.751 -3.38882 -0.760017 0
M  V30 3986 C 368.705 -4.27995 -0.0197785 0
M  V30 3987 C 368.031 -5.24605 -1.03408 0
M  V30 3988 C 369.331 -5.09554 1.14684 0
M  V30 3989 H 371.025 -2.84726 0.925822 0
M  V30 3990 H 368.571 -1.36898 0.446654 0
M  V30 3991 H 370.524 -4.0397 -1.19943 0
M  V30 3992 H 369.248 -2.85734 -1.58189 0
M  V30 3993 H 367.907 -3.64409 0.400184 0
M  V30 3994 H 367.555 -4.67746 -1.84994 0
M  V30 3995 H 367.255 -5.85081 -0.543464 0
M  V30 3996 H 368.779 -5.9257 -1.47288 0
M  V30 3997 H 370.193 -5.67899 0.785118 0
M  V30 3998 H 368.59 -5.7925 1.56812 0
M  V30 3999 H 369.66 -4.4347 1.96118 0
M  V30 4000 N 371.003 -0.499398 -1.49478 0
M  V30 4001 C 371.966 0.268838 -2.27618 0
M  V30 4002 C 372.966 0.895383 -1.33565 0
M  V30 4003 O 374.156 0.760164 -1.56739 0
M  V30 4004 C 371.288 1.38559 -3.11471 0
M  V30 4005 H 372.481 -0.416812 -2.96989 0
M  V30 4006 H 370.034 -0.254313 -1.54217 0
M  V30 4007 H 370.769 2.10544 -2.46661 0
M  V30 4008 H 370.554 0.941797 -3.80621 0
M  V30 4009 H 372.044 1.92678 -3.70493 0
M  V30 4010 N 372.481 1.55866 -0.233164 0
M  V30 4011 C 373.729 1.9821 0.394593 0
M  V30 4012 C 374.05 1.12234 1.59463 0
M  V30 4013 O 373.32 0.201981 1.94856 0
M  V30 4014 H 371.9 0.732034 0.148778 0
M  V30 4015 H 374.562 1.92107 -0.32876 0
M  V30 4016 H 373.658 3.03845 0.713063 0
M  V30 4017 N 373.959 -0.0401083 1.57549 0
M  V30 4018 C 375.37 -0.588097 1.77196 0
M  V30 4019 C 375.721 -1.76209 0.862832 0
M  V30 4020 O 374.846 -2.16331 0.0548389 0
M  V30 4021 C 375.441 -1.07363 3.21339 0
M  V30 4022 C 374 -1.56723 3.42221 0
M  V30 4023 C 373.147 -0.50041 2.72747 0
M  V30 4024 H 376.098 0.186119 1.57605 0
M  V30 4025 H 376.119 -1.94143 3.27244 0
M  V30 4026 H 375.631 -0.218975 3.87482 0
M  V30 4027 H 373.732 -2.4441 2.81237 0
M  V30 4028 H 373.845 -1.62234 4.50796 0
M  V30 4029 H 372.209 -0.952894 2.36203 0
M  V30 4030 H 372.992 0.344599 3.41566 0
M  V30 4031 N 375.437 -1.54477 -0.31217 0
M  V30 4032 C 376.369 -1.81011 -1.40598 0
M  V30 4033 C 377.382 -0.692546 -1.47335 0
M  V30 4034 O 378.571 -0.969847 -1.49854 0
M  V30 4035 C 375.671 -1.92307 -2.79054 0
M  V30 4036 C 374.844 -3.22594 -2.95384 0
M  V30 4037 C 373.903 -3.24448 -4.1427 0
M  V30 4038 O 372.929 -3.98035 -4.06887 0
M  V30 4039 N 374.131 -2.49042 -5.24365 0
M  V30 4040 H 376.896 -2.75408 -1.18196 0
M  V30 4041 H 374.457 -1.53914 -0.502202 0
M  V30 4042 H 376.449 -1.90962 -3.56813 0
M  V30 4043 H 375.019 -1.04955 -2.94454 0
M  V30 4044 H 374.239 -3.36806 -2.04831 0
M  V30 4045 H 375.527 -4.08593 -3.03198 0
M  V30 4046 H 374.925 -1.88867 -5.33241 0
M  V30 4047 H 373.482 -2.53463 -6.005 0
M  V30 4048 N 376.915 0.57481 -1.46744 0
M  V30 4049 C 377.845 1.69337 -1.60771 0
M  V30 4050 C 378.826 1.63825 -0.457736 0
M  V30 4051 O 380.011 1.8172 -0.684947 0
M  V30 4052 C 377.141 3.0798 -1.60517 0
M  V30 4053 C 376.095 3.28327 -2.74564 0
M  V30 4054 C 375.421 4.67578 -2.59373 0
M  V30 4055 C 376.721 3.15398 -4.16319 0
M  V30 4056 H 378.415 1.57853 -2.54407 0
M  V30 4057 H 375.961 0.75799 -1.22436 0
M  V30 4058 H 377.914 3.86061 -1.68923 0
M  V30 4059 H 376.638 3.20381 -0.634305 0
M  V30 4060 H 375.297 2.52649 -2.65639 0
M  V30 4061 H 374.945 4.76755 -1.60353 0
M  V30 4062 H 374.645 4.82144 -3.35873 0
M  V30 4063 H 376.169 5.47817 -2.69682 0
M  V30 4064 H 377.583 3.83315 -4.26313 0
M  V30 4065 H 375.98 3.41482 -4.93468 0
M  V30 4066 H 377.05 2.12372 -4.3592 0
M  V30 4067 N 378.394 1.34581 0.820102 0
M  V30 4068 C 379.64 1.27285 1.57881 0
M  V30 4069 C 379.973 -0.156137 1.93571 0
M  V30 4070 O 379.248 -1.10222 1.60254 0
M  V30 4071 C 379.531 2.16639 2.87645 0
M  V30 4072 C 379.384 3.68088 2.58517 0
M  V30 4073 C 380.703 2.05378 3.8924 0
M  V30 4074 H 377.822 0.463714 0.572833 0
M  V30 4075 H 380.464 1.64859 0.944539 0
M  V30 4076 H 378.614 1.84725 3.41773 0
M  V30 4077 H 380.286 4.10382 2.10676 0
M  V30 4078 H 378.529 3.89038 1.91917 0
M  V30 4079 H 379.2 4.2598 3.51063 0
M  V30 4080 H 381.676 2.33404 3.44473 0
M  V30 4081 H 380.552 2.7012 4.77835 0
M  V30 4082 H 380.813 1.0316 4.29896 0
M  V30 4083 N 379.872 -1.04064 1.18357 0
M  V30 4084 C 380.804 -2.12114 0.868358 0
M  V30 4085 C 381.817 -1.62247 -0.134045 0
M  V30 4086 O 383.006 -1.78253 0.0937933 0
M  V30 4087 C 380.106 -3.37773 0.276132 0
M  V30 4088 C 379.279 -4.16874 1.3242 0
M  V30 4089 C 378.338 -5.20861 0.747662 0
M  V30 4090 O 377.364 -5.51141 1.42239 0
M  V30 4091 N 378.566 -5.78715 -0.454823 0
M  V30 4092 H 381.331 -2.39748 1.79836 0
M  V30 4093 H 378.892 -1.20258 1.08396 0
M  V30 4094 H 380.884 -4.04513 -0.123133 0
M  V30 4095 H 379.454 -3.07581 -0.557895 0
M  V30 4096 H 378.674 -3.45456 1.89878 0
M  V30 4097 H 379.962 -4.66516 2.03078 0
M  V30 4098 H 379.36 -5.56415 -1.02073 0
M  V30 4099 H 377.917 -6.46921 -0.79601 0
M  V30 4100 N 381.35 -0.985608 -1.22978 0
M  V30 4101 C 382.283 -0.47487 -2.23204 0
M  V30 4102 C 383.261 0.460865 -1.55932 0
M  V30 4103 O 384.445 0.388105 -1.84461 0
M  V30 4104 C 381.572 0.312427 -3.37256 0
M  V30 4105 C 380.618 -0.568219 -4.22698 0
M  V30 4106 S 381.451 -2.01919 -4.95973 0
M  V30 4107 C 382.607 -1.24118 -6.1347 0
M  V30 4108 H 382.84 -1.32419 -2.66181 0
M  V30 4109 H 380.373 -0.792005 -1.32539 0
M  V30 4110 H 382.331 0.760645 -4.03391 0
M  V30 4111 H 380.992 1.13693 -2.92801 0
M  V30 4112 H 380.185 0.0371657 -5.03986 0
M  V30 4113 H 379.787 -0.952897 -3.61657 0
M  V30 4114 H 382.079 -0.505121 -6.75614 0
M  V30 4115 H 383.022 -2.02907 -6.78406 0
M  V30 4116 H 383.43 -0.757669 -5.59392 0
M  V30 4117 N 382.828 1.3818 -0.7579 0
M  V30 4118 C 384.075 2.00019 -0.315985 0
M  V30 4119 C 384.403 1.60163 1.10355 0
M  V30 4120 O 383.658 0.83264 1.77103 0
M  V30 4121 C 383.957 3.55252 -0.391218 0
M  V30 4122 C 383.623 4.14834 -1.76702 0
M  V30 4123 C 382.285 4.30821 -2.14353 0
M  V30 4124 C 384.637 4.47658 -2.66931 0
M  V30 4125 C 381.965 4.76928 -3.41696 0
M  V30 4126 C 384.317 4.95184 -3.93669 0
M  V30 4127 C 382.981 5.09377 -4.31383 0
M  V30 4128 H 382.251 0.731923 -0.115627 0
M  V30 4129 H 384.898 1.65161 -0.969223 0
M  V30 4130 H 383.203 3.90273 0.34558 0
M  V30 4131 H 384.9 4.00988 -0.030805 0
M  V30 4132 H 381.49 4.02808 -1.46435 0
M  V30 4133 H 385.674 4.34904 -2.39106 0
M  V30 4134 H 380.93 4.86103 -3.70829 0
M  V30 4135 H 385.104 5.19551 -4.63724 0
M  V30 4136 H 382.731 5.44865 -5.30119 0
M  V30 4137 N 384.306 0.507319 1.49211 0
M  V30 4138 C 385.555 -0.0368315 2.01666 0
M  V30 4139 C 385.868 -1.37459 1.39156 0
M  V30 4140 O 387.074 -2.00579 1.82976 0
M  V30 4141 C 385.53 -0.116089 3.59713 0
M  V30 4142 C 385.138 1.2154 4.31198 0
M  V30 4143 C 386.882 -0.610268 4.2009 0
M  V30 4144 C 384.789 1.09796 5.81119 0
M  V30 4145 H 383.719 -0.0175376 0.753796 0
M  V30 4146 H 386.37 0.647691 1.71689 0
M  V30 4147 H 384.752 -0.8652 3.86433 0
M  V30 4148 H 385.926 1.9783 4.16173 0
M  V30 4149 H 384.241 1.64352 3.82593 0
M  V30 4150 H 386.838 -0.715742 5.29888 0
M  V30 4151 H 387.181 -1.61064 3.8388 0
M  V30 4152 H 387.714 0.0824916 3.97714 0
M  V30 4153 H 384.453 2.0728 6.21864 0
M  V30 4154 H 383.973 0.376058 5.9862 0
M  V30 4155 H 385.652 0.779281 6.4229 0
M  V30 4156 N 385.784 -1.5574 0.241426 0
M  V30 4157 C 387.032 -1.98417 -0.384075 0
M  V30 4158 C 387.353 -1.13078 -1.58866 0
M  V30 4159 O 386.623 -0.212312 -1.94746 0
M  V30 4160 H 385.203 -0.732813 -0.144894 0
M  V30 4161 H 387.865 -1.9193 0.338943 0
M  V30 4162 H 386.961 -3.04219 -0.696939 0
M  V30 4163 N 387.262 0.0317525 -1.57568 0
M  V30 4164 C 388.539 0.758366 -1.803 0
M  V30 4165 C 388.919 1.93718 -0.838845 0
M  V30 4166 O 388.267 2.28187 0.119571 0
M  V30 4167 C 388.477 1.19392 -3.27943 0
M  V30 4168 C 389.825 1.61094 -3.92854 0
M  V30 4169 O 390.849 1.28857 -3.32076 0
M  V30 4170 O 389.708 2.20918 -4.99858 0
M  V30 4171 H 386.802 0.366514 -0.741348 0
M  V30 4172 H 389.348 0.00873765 -1.69698 0
M  V30 4173 H 388.12 0.352275 -3.89711 0
M  V30 4174 H 387.743 2.00365 -3.43424 0
M  V30 4175 N 388.74 1.54641 0.303973 0
M  V30 4176 C 389.988 1.73437 1.0375 0
M  V30 4177 C 390.309 0.521449 1.87899 0
M  V30 4178 O 389.579 -0.46432 1.90318 0
M  V30 4179 H 388.159 0.639518 0.386039 0
M  V30 4180 H 390.821 1.91988 0.335675 0
M  V30 4181 H 389.917 2.62235 1.69231 0
M  V30 4182 N 390.218 -0.567019 1.47046 0
M  V30 4183 C 391.181 -1.65696 1.58359 0
M  V30 4184 C 392.181 -1.54097 0.459441 0
M  V30 4185 O 393.371 -1.58432 0.724225 0
M  V30 4186 C 390.503 -3.05197 1.51879 0
M  V30 4187 H 391.696 -1.57019 2.5551 0
M  V30 4188 H 389.249 -0.786148 1.3509 0
M  V30 4189 H 389.984 -3.19417 0.560673 0
M  V30 4190 H 389.769 -3.15025 2.33455 0
M  V30 4191 H 391.259 -3.84511 1.62913 0
M  V30 4192 N 391.696 -1.35014 -0.812953 0
M  V30 4193 C 392.643 -1.27412 -1.92444 0
M  V30 4194 C 393.613 -0.14733 -1.65445 0
M  V30 4195 O 394.798 -0.329974 -1.87925 0
M  V30 4196 C 391.938 -1.04558 -3.28879 0
M  V30 4197 C 391.051 -2.26101 -3.68106 0
M  V30 4198 C 390.186 -1.96449 -4.9354 0
M  V30 4199 C 389.225 -3.14081 -5.25376 0
M  V30 4200 N 388.362 -2.84246 -6.41988 0
M  V30 4201 H 393.202 -2.22463 -1.98278 0
M  V30 4202 H 390.739 -1.10593 -0.969933 0
M  V30 4203 H 392.697 -0.893413 -4.07522 0
M  V30 4204 H 391.327 -0.131719 -3.22531 0
M  V30 4205 H 390.379 -2.52204 -2.84775 0
M  V30 4206 H 391.691 -3.13959 -3.87597 0
M  V30 4207 H 390.845 -1.78026 -5.79993 0
M  V30 4208 H 389.584 -1.05867 -4.76071 0
M  V30 4209 H 388.589 -3.33089 -4.37415 0
M  V30 4210 H 389.814 -4.05455 -5.44778 0
M  V30 4211 H 387.76 -1.96252 -6.25956 0
M  V30 4212 H 387.677 -3.65637 -6.61699 0
M  V30 4213 H 388.945 -2.6935 -7.31485 0
M  V30 4214 N 393.175 1.03435 -1.18907 0
M  V30 4215 C 394.105 2.13503 -0.945448 0
M  V30 4216 C 395.086 1.69682 0.119189 0
M  V30 4217 O 396.271 1.94169 -0.034707 0
M  V30 4218 C 393.401 3.44004 -0.477316 0
M  V30 4219 C 392.355 4.0148 -1.48316 0
M  V30 4220 C 391.681 5.27537 -0.872311 0
M  V30 4221 C 392.981 4.36921 -2.86177 0
M  V30 4222 H 394.675 2.34141 -1.86597 0
M  V30 4223 H 392.221 1.12523 -0.898584 0
M  V30 4224 H 394.174 4.20372 -0.294204 0
M  V30 4225 H 392.898 3.23072 0.478786 0
M  V30 4226 H 391.557 3.27201 -1.65332 0
M  V30 4227 H 391.205 5.02917 0.0911752 0
M  V30 4228 H 390.905 5.66954 -1.54393 0
M  V30 4229 H 392.429 6.06576 -0.699871 0
M  V30 4230 H 393.843 5.04248 -2.72776 0
M  V30 4231 H 392.24 4.87405 -3.50081 0
M  V30 4232 H 393.31 3.46466 -3.39248 0
M  V30 4233 N 394.653 0.992116 1.22453 0
M  V30 4234 C 395.899 0.668523 1.91464 0
M  V30 4235 C 396.232 -0.797313 1.77078 0
M  V30 4236 O 395.507 -1.5765 1.13916 0
M  V30 4237 C 395.79 1.07424 3.43703 0
M  V30 4238 C 395.643 2.59857 3.67143 0
M  V30 4239 C 396.962 0.626891 4.35612 0
M  V30 4240 H 394.081 0.244341 0.695318 0
M  V30 4241 H 396.723 1.2355 1.44345 0
M  V30 4242 H 394.873 0.591816 3.83966 0
M  V30 4243 H 396.545 3.15764 3.3629 0
M  V30 4244 H 394.788 3.01961 3.11451 0
M  V30 4245 H 395.459 2.83296 4.73759 0
M  V30 4246 H 397.935 1.04125 4.02861 0
M  V30 4247 H 396.811 0.939076 5.40807 0
M  V30 4248 H 397.072 -0.472457 4.39568 0
M  V30 4249 N 396.131 -1.37776 0.765217 0
M  V30 4250 C 397.547 -1.53297 0.444108 0
M  V30 4251 C 397.747 -1.72515 -1.04119 0
M  V30 4252 O 396.803 -1.74278 -1.82711 0
M  V30 4253 C 398.116 -2.73328 1.25349 0
M  V30 4254 C 399.664 -2.87185 1.24473 0
M  V30 4255 C 400.139 -4.10191 2.03733 0
M  V30 4256 N 401.63 -4.17291 2.01053 0
M  V30 4257 C 402.365 -5.11488 2.59166 0
M  V30 4258 N 401.861 -6.11285 3.26041 0
M  V30 4259 N 403.654 -5.03924 2.49032 0
M  V30 4260 H 395.805 -1.23552 1.72768 0
M  V30 4261 H 398.068 -0.601103 0.733062 0
M  V30 4262 H 397.774 -2.6557 2.30577 0
M  V30 4263 H 397.648 -3.66834 0.87823 0
M  V30 4264 H 400.035 -2.94418 0.20047 0
M  V30 4265 H 400.116 -1.94657 1.65959 0
M  V30 4266 H 399.76 -4.0372 3.08176 0
M  V30 4267 H 399.69 -5.01821 1.59633 0
M  V30 4268 H 402.181 -3.45825 1.5236 0
M  V30 4269 H 402.494 -6.79678 3.67774 0
M  V30 4270 H 400.839 -6.11583 3.30138 0
M  V30 4271 H 404.03 -4.24902 1.96407 0
M  V30 4272 H 404.203 -5.77152 2.94617 0
M  V30 4273 N 397.609 -0.515225 -1.4894 0
M  V30 4274 C 398.886 0.0879088 -1.95402 0
M  V30 4275 C 399.266 1.52745 -1.45712 0
M  V30 4276 O 398.614 2.18238 -0.677093 0
M  V30 4277 C 398.824 -0.0141055 -3.48997 0
M  V30 4278 C 400.172 0.152646 -4.24326 0
M  V30 4279 O 401.196 0.0604025 -3.56149 0
M  V30 4280 O 400.055 0.34384 -5.45417 0
M  V30 4281 H 397.149 0.0874636 -0.822362 0
M  V30 4282 H 399.695 -0.578775 -1.59525 0
M  V30 4283 H 398.467 -1.01745 -3.77841 0
M  V30 4284 H 398.09 0.692091 -3.9153 0
M  V30 4285 N 399.087 1.5561 -0.249682 0
M  V30 4286 C 400.05 2.20217 0.635394 0
M  V30 4287 C 401.05 1.17227 1.10066 0
M  V30 4288 O 402.24 1.42292 1.00492 0
M  V30 4289 C 399.372 2.84794 1.87363 0
M  V30 4290 H 400.565 2.99814 0.0716752 0
M  V30 4291 H 398.118 1.563 -0.000153234 0
M  V30 4292 H 398.853 2.09142 2.47851 0
M  V30 4293 H 398.638 3.60241 1.5482 0
M  V30 4294 H 400.128 3.3423 2.5036 0
M  V30 4295 N 400.565 -0.0233959 1.57583 0
M  V30 4296 C 401.812 -0.713063 1.8953 0
M  V30 4297 C 402.14 -1.75056 0.847673 0
M  V30 4298 O 401.395 -1.95119 -0.150636 0
M  V30 4299 C 401.694 -1.41428 3.28227 0
M  V30 4300 C 401.36 -0.512222 4.47981 0
M  V30 4301 C 400.022 -0.263785 4.80476 0
M  V30 4302 C 402.374 0.110248 5.21083 0
M  V30 4303 C 399.702 0.615804 5.83459 0
M  V30 4304 C 402.054 0.977573 6.25001 0
M  V30 4305 C 400.718 1.23542 6.55968 0
M  V30 4306 H 399.988 -0.260928 0.69354 0
M  V30 4307 H 402.635 0.0271047 1.91481 0
M  V30 4308 H 400.94 -2.22791 3.22291 0
M  V30 4309 H 402.637 -1.95355 3.50196 0
M  V30 4310 H 399.227 -0.716013 4.22577 0
M  V30 4311 H 403.411 -0.0687137 4.96252 0
M  V30 4312 H 398.667 0.82382 6.05824 0
M  V30 4313 H 402.841 1.46638 6.80786 0
M  V30 4314 H 400.468 1.91871 7.35588 0
M  V30 4315 N 402.043 -1.548 -0.295768 0
M  V30 4316 C 403.006 -1.85363 -1.34808 0
M  V30 4317 C 404.006 -0.726817 -1.43436 0
M  V30 4318 O 405.196 -0.995088 -1.42981 0
M  V30 4319 C 402.328 -2.03859 -2.73229 0
M  V30 4320 H 403.521 -2.7941 -1.08949 0
M  V30 4321 H 401.074 -1.46942 -0.532702 0
M  V30 4322 H 401.809 -1.12117 -3.04303 0
M  V30 4323 H 401.594 -2.8588 -2.68356 0
M  V30 4324 H 403.084 -2.28857 -3.49305 0
M  V30 4325 N 403.521 0.559213 -1.47345 0
M  V30 4326 C 404.451 1.67622 -1.62558 0
M  V30 4327 C 405.432 1.63331 -0.475087 0
M  V30 4328 O 406.617 1.80983 -0.704182 0
M  V30 4329 C 403.747 3.0626 -1.63774 0
M  V30 4330 C 402.701 3.25397 -2.7803 0
M  V30 4331 C 402.027 4.64801 -2.64318 0
M  V30 4332 C 403.327 3.10965 -4.19641 0
M  V30 4333 H 405.021 1.55146 -2.56067 0
M  V30 4334 H 402.567 0.744961 -1.23233 0
M  V30 4335 H 404.52 3.84247 -1.73008 0
M  V30 4336 H 403.244 3.1969 -0.66825 0
M  V30 4337 H 401.903 2.49817 -2.68304 0
M  V30 4338 H 401.551 4.75028 -1.65401 0
M  V30 4339 H 401.251 4.78555 -3.40968 0
M  V30 4340 H 402.775 5.44926 -2.75478 0
M  V30 4341 H 404.189 3.78772 -4.30354 0
M  V30 4342 H 402.586 3.36229 -4.97062 0
M  V30 4343 H 403.656 2.07736 -4.38148 0
M  V30 4344 N 404.999 1.35443 0.805782 0
M  V30 4345 C 405.962 1.28301 1.89925 0
M  V30 4346 C 406.962 0.194285 1.59622 0
M  V30 4347 O 408.152 0.448036 1.6834 0
M  V30 4348 C 405.284 0.984997 3.2636 0
M  V30 4349 H 406.477 2.2553 1.97677 0
M  V30 4350 H 404.03 1.19979 1.00173 0
M  V30 4351 H 404.765 0.016603 3.24296 0
M  V30 4352 H 404.55 1.77269 3.4974 0
M  V30 4353 H 406.04 0.960651 4.064 0
M  V30 4354 N 406.477 -1.02803 1.19454 0
M  V30 4355 C 407.424 -2.11099 0.933046 0
M  V30 4356 C 408.394 -1.65571 -0.132447 0
M  V30 4357 O 409.579 -1.90797 0.00987576 0
M  V30 4358 C 406.719 -3.41763 0.478747 0
M  V30 4359 C 405.832 -4.00833 1.6111 0
M  V30 4360 C 404.967 -5.19511 1.10825 0
M  V30 4361 C 404.006 -5.70639 2.21445 0
M  V30 4362 N 403.143 -6.80589 1.72461 0
M  V30 4363 H 407.983 -2.32804 1.86028 0
M  V30 4364 H 405.52 -1.14179 0.927441 0
M  V30 4365 H 407.478 -4.16736 0.196745 0
M  V30 4366 H 406.108 -3.20166 -0.411493 0
M  V30 4367 H 405.16 -3.23066 2.00829 0
M  V30 4368 H 406.472 -4.34794 2.4445 0
M  V30 4369 H 405.626 -6.01645 0.781533 0
M  V30 4370 H 404.365 -4.87086 0.244606 0
M  V30 4371 H 403.37 -4.87116 2.54947 0
M  V30 4372 H 404.595 -6.05102 3.08267 0
M  V30 4373 H 402.541 -6.50016 0.884056 0
M  V30 4374 H 402.458 -7.13681 2.49389 0
M  V30 4375 H 403.726 -7.66317 1.42755 0
M  V30 4376 N 407.956 -0.998596 -1.21925 0
M  V30 4377 C 408.866 -0.562736 -2.27751 0
M  V30 4378 C 409.882 0.391203 -1.69545 0
M  V30 4379 O 411.058 0.256625 -1.99758 0
M  V30 4380 C 408.123 0.11012 -3.46525 0
M  V30 4381 C 407.184 -0.887495 -4.20026 0
M  V30 4382 C 406.417 -0.246654 -5.3313 0
M  V30 4383 O 406.64 0.958088 -5.62296 0
M  V30 4384 O 405.574 -0.954374 -5.94286 0
M  V30 4385 H 409.4 -1.44329 -2.67213 0
M  V30 4386 H 406.985 -0.767135 -1.28201 0
M  V30 4387 H 408.867 0.486756 -4.18579 0
M  V30 4388 H 407.542 0.965154 -3.08976 0
M  V30 4389 H 406.449 -1.31517 -3.5022 0
M  V30 4390 H 407.782 -1.71191 -4.6147 0
M  V30 4391 N 409.434 1.37368 -0.772513 0
M  V30 4392 C 410.381 2.30262 -0.157488 0
M  V30 4393 C 411.351 1.51137 0.688965 0
M  V30 4394 O 412.536 1.79704 0.641168 0
M  V30 4395 C 409.676 3.37611 0.715045 0
M  V30 4396 C 408.789 4.31746 -0.148098 0
M  V30 4397 C 407.924 5.26171 0.729213 0
M  V30 4398 C 406.963 6.11948 -0.136418 0
M  V30 4399 N 406.1 6.98613 0.698914 0
M  V30 4400 H 410.94 2.82277 -0.955179 0
M  V30 4401 H 408.477 1.38957 -0.482631 0
M  V30 4402 H 410.435 3.98479 1.23575 0
M  V30 4403 H 409.065 2.86959 1.47833 0
M  V30 4404 H 408.117 3.72178 -0.786613 0
M  V30 4405 H 409.429 4.92084 -0.81579 0
M  V30 4406 H 408.583 5.92247 1.31637 0
M  V30 4407 H 407.322 4.66246 1.43059 0
M  V30 4408 H 406.327 5.4485 -0.736102 0
M  V30 4409 H 407.552 6.73945 -0.835134 0
M  V30 4410 H 405.498 6.41215 1.38489 0
M  V30 4411 H 405.415 7.55948 0.0885358 0
M  V30 4412 H 406.683 7.69077 1.27044 0
M  V30 4413 N 410.912 0.523116 1.48665 0
M  V30 4414 C 411.875 -0.232592 2.28017 0
M  V30 4415 C 412.875 -0.874021 1.34972 0
M  V30 4416 O 414.065 -0.735132 1.57929 0
M  V30 4417 C 411.197 -1.33586 3.13636 0
M  V30 4418 H 412.39 0.464008 2.96289 0
M  V30 4419 H 409.943 0.278816 1.53793 0
M  V30 4420 H 410.678 -2.06593 2.4998 0
M  V30 4421 H 410.463 -0.881125 3.82071 0
M  V30 4422 H 411.953 -1.86759 3.73511 0
M  V30 4423 N 412.39 -1.55475 0.257931 0
M  V30 4424 C 413.801 -1.8511 -0.243135 0
M  V30 4425 C 414.152 -1.17986 -1.5676 0
M  V30 4426 O 413.277 -0.462102 -2.11409 0
M  V30 4427 C 413.872 -3.35826 -0.447929 0
M  V30 4428 C 412.431 -3.65647 -0.893245 0
M  V30 4429 C 411.578 -2.7729 0.0232965 0
M  V30 4430 H 414.529 -1.51261 0.480199 0
M  V30 4431 H 414.55 -3.58002 -1.28898 0
M  V30 4432 H 414.062 -3.84652 0.516196 0
M  V30 4433 H 412.163 -3.22308 -1.86945 0
M  V30 4434 H 412.276 -4.73312 -0.742469 0
M  V30 4435 H 410.64 -2.49942 -0.490021 0
M  V30 4436 H 411.423 -3.28926 0.982994 0
M  V30 4437 N 413.868 0.0150385 -1.57593 0
M  V30 4438 C 415.093 0.718067 -1.94573 0
M  V30 4439 C 415.518 1.6734 -0.859005 0
M  V30 4440 O 414.876 1.80362 0.184147 0
M  V30 4441 C 414.924 1.43918 -3.30636 0
M  V30 4442 O 414.028 2.55299 -3.23876 0
M  V30 4443 H 413.369 0.192125 -0.635597 0
M  V30 4444 H 415.899 -0.0336708 -2.04572 0
M  V30 4445 H 415.909 1.80598 -3.65853 0
M  V30 4446 H 414.584 0.738619 -4.09289 0
M  V30 4447 H 413.161 2.21058 -3.00312 0
M  V30 4448 N 415.346 1.54954 0.287554 0
M  V30 4449 C 416.595 1.74081 1.01877 0
M  V30 4450 C 416.908 0.541135 1.87966 0
M  V30 4451 O 418.114 0.614491 2.64455 0
M  V30 4452 C 416.57 3.08042 1.86113 0
M  V30 4453 C 416.178 4.35531 1.04961 0
M  V30 4454 C 417.922 3.36523 2.58752 0
M  V30 4455 C 415.829 5.60538 1.88551 0
M  V30 4456 H 414.759 0.64884 0.384087 0
M  V30 4457 H 417.41 1.81426 0.275101 0
M  V30 4458 H 415.792 2.94696 2.64519 0
M  V30 4459 H 416.966 4.59751 0.31074 0
M  V30 4460 H 415.281 4.14085 0.43843 0
M  V30 4461 H 417.878 4.27122 3.21668 0
M  V30 4462 H 418.221 2.56 3.28283 0
M  V30 4463 H 418.754 3.50901 1.87386 0
M  V30 4464 H 415.493 6.43767 1.23466 0
M  V30 4465 H 415.013 5.40483 2.60074 0
M  V30 4466 H 416.692 5.98297 2.46273 0
M  V30 4467 N 416.824 -0.551391 1.4764 0
M  V30 4468 C 418.073 -1.30467 1.53822 0
M  V30 4469 C 418.386 -1.94495 0.207661 0
M  V30 4470 O 419.592 -2.71099 0.147533 0
M  V30 4471 C 418.048 -2.36616 2.71184 0
M  V30 4472 C 417.656 -1.78754 4.10793 0
M  V30 4473 C 419.4 -3.13088 2.86663 0
M  V30 4474 C 417.307 -2.82717 5.19447 0
M  V30 4475 H 416.237 -0.490584 0.572576 0
M  V30 4476 H 418.888 -0.58494 1.73927 0
M  V30 4477 H 417.27 -3.11529 2.4447 0
M  V30 4478 H 418.444 -1.10173 4.47435 0
M  V30 4479 H 416.759 -1.14846 4.00249 0
M  V30 4480 H 419.356 -3.90736 3.65007 0
M  V30 4481 H 419.699 -3.67635 1.95321 0
M  V30 4482 H 420.232 -2.45288 3.13175 0
M  V30 4483 H 416.971 -2.33018 6.12685 0
M  V30 4484 H 416.491 -3.4969 4.87316 0
M  V30 4485 H 418.17 -3.46102 5.46646 0
M  V30 4486 N 418.302 -1.35869 -0.798587 0
M  V30 4487 C 419.549 -1.29588 -1.55606 0
M  V30 4488 C 419.877 0.127456 -1.94082 0
M  V30 4489 O 419.132 1.09461 -1.62225 0
M  V30 4490 C 419.431 -2.1556 -2.85077 0
M  V30 4491 C 419.097 -3.6424 -2.65781 0
M  V30 4492 C 417.759 -4.04766 -2.60227 0
M  V30 4493 C 420.111 -4.58547 -2.47758 0
M  V30 4494 C 417.439 -5.37753 -2.34603 0
M  V30 4495 C 419.791 -5.91742 -2.23662 0
M  V30 4496 C 418.455 -6.31402 -2.16534 0
M  V30 4497 H 417.725 -0.474197 -0.569402 0
M  V30 4498 H 420.372 -1.67839 -0.922086 0
M  V30 4499 H 418.677 -1.70216 -3.52893 0
M  V30 4500 H 420.374 -2.08031 -3.42818 0
M  V30 4501 H 416.964 -3.32086 -2.70956 0
M  V30 4502 H 421.148 -4.28117 -2.51056 0
M  V30 4503 H 416.404 -5.67474 -2.2756 0
M  V30 4504 H 420.578 -6.6439 -2.08708 0
M  V30 4505 H 418.205 -7.34381 -1.96441 0
M  V30 4506 N 419.78 1.02168 -1.19998 0
M  V30 4507 C 421.029 1.75091 -1.0013 0
M  V30 4508 C 421.342 1.89923 0.467835 0
M  V30 4509 O 422.548 2.59888 0.785515 0
M  V30 4510 C 421.004 3.14892 -1.74273 0
M  V30 4511 C 420.612 3.0809 -3.25245 0
M  V30 4512 C 422.356 3.9206 -1.62755 0
M  V30 4513 C 420.263 4.42867 -3.91948 0
M  V30 4514 H 419.193 0.656394 -0.37103 0
M  V30 4515 H 421.844 1.14284 -1.43567 0
M  V30 4516 H 420.226 3.7621 -1.2362 0
M  V30 4517 H 421.4 2.5611 -3.83072 0
M  V30 4518 H 419.715 2.44416 -3.3712 0
M  V30 4519 H 422.312 4.91764 -2.09934 0
M  V30 4520 H 422.655 4.12199 -0.582894 0
M  V30 4521 H 423.188 3.37359 -2.10793 0
M  V30 4522 H 419.927 4.27931 -4.96543 0
M  V30 4523 H 419.447 4.94874 -3.3891 0
M  V30 4524 H 421.126 5.11728 -3.95909 0
M  V30 4525 N 421.258 1.00505 1.21394 0
M  V30 4526 C 422.535 0.603277 1.86064 0
M  V30 4527 C 422.915 -0.919095 1.90042 0
M  V30 4528 O 422.263 -1.80607 1.39977 0
M  V30 4529 C 422.473 1.23772 3.26315 0
M  V30 4530 C 423.821 1.34586 4.02705 0
M  V30 4531 O 424.845 1.19304 3.35626 0
M  V30 4532 O 423.704 1.59169 5.22807 0
M  V30 4533 H 420.798 0.206634 0.800769 0
M  V30 4534 H 423.344 1.1017 1.29076 0
M  V30 4535 H 422.116 2.27848 3.18121 0
M  V30 4536 H 421.739 0.725648 3.90922 0
M  V30 4537 N 422.737 -1.36956 0.779787 0
M  V30 4538 C 423.647 -2.33965 0.172491 0
M  V30 4539 C 424.663 -1.60574 -0.670222 0
M  V30 4540 O 425.839 -1.92617 -0.588263 0
M  V30 4541 C 422.904 -3.39761 -0.690173 0
M  V30 4542 C 421.965 -4.28964 0.169924 0
M  V30 4543 C 421.198 -5.29707 -0.651662 0
M  V30 4544 O 421.421 -5.38238 -1.88827 0
M  V30 4545 O 420.355 -6.01873 -0.0566264 0
M  V30 4546 H 424.181 -2.87647 0.974321 0
M  V30 4547 H 421.766 -1.39258 0.541078 0
M  V30 4548 H 423.648 -4.04471 -1.1824 0
M  V30 4549 H 422.323 -2.88394 -1.47006 0
M  V30 4550 H 421.23 -3.67326 0.708696 0
M  V30 4551 H 422.563 -4.83656 0.913085 0
M  V30 4552 N 424.215 -0.530993 -1.48385 0
M  V30 4553 C 425.145 0.219985 -2.32461 0
M  V30 4554 C 426.126 0.934111 -1.42156 0
M  V30 4555 O 427.311 0.919694 -1.71042 0
M  V30 4556 C 424.441 1.26674 -3.23375 0
M  V30 4557 C 423.395 0.67069 -4.22712 0
M  V30 4558 C 422.721 1.82017 -5.02766 0
M  V30 4559 C 424.021 -0.358268 -5.2107 0
M  V30 4560 H 425.715 -0.48187 -2.95497 0
M  V30 4561 H 423.261 -0.233182 -1.42099 0
M  V30 4562 H 425.214 1.80006 -3.81019 0
M  V30 4563 H 423.938 1.99818 -2.58341 0
M  V30 4564 H 422.597 0.158878 -3.66256 0
M  V30 4565 H 422.245 2.54002 -4.34157 0
M  V30 4566 H 421.945 1.42727 -5.70003 0
M  V30 4567 H 423.469 2.35725 -5.63264 0
M  V30 4568 H 424.883 0.0880081 -5.73232 0
M  V30 4569 H 423.28 -0.66861 -5.96364 0
M  V30 4570 H 424.35 -1.26367 -4.68145 0
M  V30 4571 N 425.693 1.55336 -0.266172 0
M  V30 4572 C 426.97 1.91372 0.404486 0
M  V30 4573 C 427.35 1.18935 1.74407 0
M  V30 4574 O 426.698 0.3132 2.26343 0
M  V30 4575 C 426.908 3.44581 0.553593 0
M  V30 4576 C 428.256 4.16196 0.840618 0
M  V30 4577 O 429.28 3.50426 0.638739 0
M  V30 4578 O 428.139 5.32567 1.22618 0
M  V30 4579 H 425.233 0.797194 0.220025 0
M  V30 4580 H 427.779 1.66813 -0.311664 0
M  V30 4581 H 426.551 3.89357 -0.389498 0
M  V30 4582 H 426.174 3.75065 1.31955 0
M  V30 4583 N 427.171 -0.0066808 1.57599 0
M  V30 4584 C 428.134 -0.985035 2.06953 0
M  V30 4585 C 429.134 -1.27663 0.977687 0
M  V30 4586 O 430.324 -1.22293 1.24057 0
M  V30 4587 C 427.456 -2.3118 2.50536 0
M  V30 4588 H 428.649 -0.558255 2.94658 0
M  V30 4589 H 426.202 -0.254011 1.54222 0
M  V30 4590 H 426.937 -2.78561 1.66054 0
M  V30 4591 H 426.722 -2.11338 3.3027 0
M  V30 4592 H 428.212 -3.01377 2.8907 0
M  V30 4593 N 428.649 -1.55105 -0.279332 0
M  V30 4594 C 429.898 -1.74618 -1.00952 0
M  V30 4595 C 430.211 -0.551096 -1.87676 0
M  V30 4596 O 431.417 -0.628507 -2.64125 0
M  V30 4597 C 429.873 -3.09025 -1.84476 0
M  V30 4598 C 429.481 -4.36081 -1.0265 0
M  V30 4599 C 431.225 -3.37891 -2.56963 0
M  V30 4600 C 429.132 -5.6153 -1.85576 0
M  V30 4601 H 428.062 -0.650868 -0.38064 0
M  V30 4602 H 430.713 -1.81569 -0.265475 0
M  V30 4603 H 429.095 -2.96095 -2.62952 0
M  V30 4604 H 430.269 -4.59909 -0.286354 0
M  V30 4605 H 428.584 -4.14312 -0.416464 0
M  V30 4606 H 431.181 -4.28822 -3.19399 0
M  V30 4607 H 431.524 -2.57737 -3.26921 0
M  V30 4608 H 432.057 -3.5189 -1.85522 0
M  V30 4609 H 428.796 -6.44413 -1.2005 0
M  V30 4610 H 428.316 -5.41854 -2.57204 0
M  V30 4611 H 429.995 -5.99594 -2.43096 0
M  V30 4612 N 430.127 0.543554 -1.4793 0
M  V30 4613 C 431.375 1.29752 -1.54948 0
M  V30 4614 C 431.696 1.93764 -0.219242 0
M  V30 4615 O 430.966 1.80639 0.75805 0
M  V30 4616 H 429.546 0.481874 -0.570795 0
M  V30 4617 H 432.208 0.633636 -1.84312 0
M  V30 4618 H 431.304 2.08392 -2.32334 0
M  V30 4619 N 431.605 1.3629 0.791371 0
M  V30 4620 C 432.833 1.33562 1.58016 0
M  V30 4621 C 433.248 -0.0835616 1.88615 0
M  V30 4622 O 432.605 -1.0399 1.49974 0
M  V30 4623 C 432.656 2.15517 2.90232 0
M  V30 4624 O 432.377 3.51902 2.60953 0
M  V30 4625 C 433.878 2.20546 3.84544 0
M  V30 4626 H 431.098 0.458226 0.490173 0
M  V30 4627 H 433.642 1.79361 0.982345 0
M  V30 4628 H 431.797 1.73278 3.46487 0
M  V30 4629 H 432.211 3.94644 3.4548 0
M  V30 4630 H 433.685 2.82252 4.74382 0
M  V30 4631 H 434.162 1.20838 4.2225 0
M  V30 4632 H 434.768 2.63013 3.34222 0
M  V30 4633 N 433.083 -1.0153 1.20538 0
M  V30 4634 C 434.03 -2.10098 0.955383 0
M  V30 4635 C 435 -1.65702 -0.114878 0
M  V30 4636 O 436.185 -1.90776 0.0301118 0
M  V30 4637 C 433.325 -3.41236 0.514969 0
M  V30 4638 C 432.438 -3.99102 1.65353 0
M  V30 4639 C 431.573 -5.18306 1.16329 0
M  V30 4640 C 430.612 -5.68258 2.27485 0
M  V30 4641 N 429.749 -6.78722 1.7967 0
M  V30 4642 H 434.589 -2.30818 1.88486 0
M  V30 4643 H 432.126 -1.13189 0.939499 0
M  V30 4644 H 434.084 -4.16504 0.240935 0
M  V30 4645 H 432.714 -3.20585 -0.377512 0
M  V30 4646 H 431.766 -3.20918 2.04245 0
M  V30 4647 H 433.078 -4.32177 2.49047 0
M  V30 4648 H 432.232 -6.00782 0.845302 0
M  V30 4649 H 430.971 -4.86799 0.296254 0
M  V30 4650 H 429.976 -4.84385 2.60099 0
M  V30 4651 H 431.201 -6.01798 3.14667 0
M  V30 4652 H 429.147 -6.49042 0.95295 0
M  V30 4653 H 429.064 -7.10996 2.56944 0
M  V30 4654 H 430.332 -7.64759 1.50875 0
M  V30 4655 N 434.561 -1.01147 -1.20859 0
M  V30 4656 C 435.977 -0.725422 -1.42161 0
M  V30 4657 C 436.177 0.696919 -1.89064 0
M  V30 4658 O 435.233 1.46539 -2.05627 0
M  V30 4659 C 436.546 -1.74678 -2.44761 0
M  V30 4660 C 438.094 -1.76433 -2.58535 0
M  V30 4661 C 438.569 -2.77481 -3.64374 0
M  V30 4662 N 440.06 -2.76189 -3.71852 0
M  V30 4663 C 440.795 -3.51035 -4.53389 0
M  V30 4664 N 440.291 -4.35541 -5.38773 0
M  V30 4665 N 442.084 -3.39655 -4.47873 0
M  V30 4666 H 434.235 -1.92979 -0.887282 0
M  V30 4667 H 436.498 -0.833327 -0.451962 0
M  V30 4668 H 436.204 -2.76551 -2.17285 0
M  V30 4669 H 436.078 -1.55472 -3.43669 0
M  V30 4670 H 438.465 -0.75248 -2.85345 0
M  V30 4671 H 438.546 -1.99712 -1.5984 0
M  V30 4672 H 438.19 -3.78827 -3.38308 0
M  V30 4673 H 438.12 -2.51466 -4.6268 0
M  V30 4674 H 440.611 -2.14885 -3.10858 0
M  V30 4675 H 440.924 -4.89432 -5.98061 0
M  V30 4676 H 439.269 -4.39621 -5.38292 0
M  V30 4677 H 442.46 -2.73063 -3.80203 0
M  V30 4678 H 442.633 -3.9824 -5.11184 0
M  V30 4679 N 436.039 1.36541 -0.78704 0
M  V30 4680 C 437.286 1.99304 -0.358341 0
M  V30 4681 C 437.614 1.62467 1.06933 0
M  V30 4682 O 436.869 0.870019 1.75297 0
M  V30 4683 C 437.168 3.54343 -0.466485 0
M  V30 4684 C 436.834 4.10993 -1.85461 0
M  V30 4685 C 435.496 4.26177 -2.23443 0
M  V30 4686 C 437.848 4.41895 -2.76366 0
M  V30 4687 C 435.176 4.69573 -3.51736 0
M  V30 4688 C 437.528 4.86722 -4.04084 0
M  V30 4689 C 436.192 5.00112 -4.42091 0
M  V30 4690 H 435.462 0.729306 -0.131126 0
M  V30 4691 H 438.109 1.63068 -1.00404 0
M  V30 4692 H 436.414 3.90918 0.262719 0
M  V30 4693 H 438.111 4.00833 -0.115854 0
M  V30 4694 H 434.701 3.99612 -1.54946 0
M  V30 4695 H 438.885 4.29735 -2.48277 0
M  V30 4696 H 434.141 4.78127 -3.81057 0
M  V30 4697 H 438.315 5.09598 -4.7464 0
M  V30 4698 H 435.942 5.33498 -5.41557 0
M  V30 4699 N 437.518 0.538854 1.48102 0
M  V30 4700 C 438.795 -0.0568108 1.95517 0
M  V30 4701 C 439.175 -1.50408 1.48124 0
M  V30 4702 O 438.523 -2.17133 0.711727 0
M  V30 4703 C 438.733 0.0696262 3.48931 0
M  V30 4704 C 440.081 -0.0851202 4.24515 0
M  V30 4705 O 441.105 -0.0037347 3.562 0
M  V30 4706 O 439.964 -0.257025 5.45895 0
M  V30 4707 H 437.058 -0.0743695 0.823649 0
M  V30 4708 H 439.604 0.604081 1.58584 0
M  V30 4709 H 438.376 1.07744 3.76174 0
M  V30 4710 H 437.999 -0.629714 3.92582 0
M  V30 4711 N 438.996 -1.55193 0.274407 0
M  V30 4712 C 440.221 -2.04446 -0.348824 0
M  V30 4713 C 440.646 -1.15149 -1.48735 0
M  V30 4714 O 440.004 -0.149952 -1.80679 0
M  V30 4715 C 440.052 -3.51431 -0.808009 0
M  V30 4716 O 439.156 -3.65225 -1.91531 0
M  V30 4717 H 438.497 -0.66006 -0.0722276 0
M  V30 4718 H 441.027 -2.00481 0.408498 0
M  V30 4719 H 441.037 -3.92781 -1.10395 0
M  V30 4720 H 439.712 -4.15892 0.0249865 0
M  V30 4721 H 438.289 -3.35778 -1.62196 0
M  V30 4722 N 440.474 -0.00167713 -1.576 0
M  V30 4723 C 441.384 1.00548 -2.1196 0
M  V30 4724 C 442.4 1.3758 -1.06526 0
M  V30 4725 O 443.576 1.46278 -1.38436 0
M  V30 4726 C 440.641 2.27809 -2.6135 0
M  V30 4727 C 439.702 1.97074 -3.81393 0
M  V30 4728 C 438.935 3.18267 -4.28417 0
M  V30 4729 O 439.158 4.30009 -3.74765 0
M  V30 4730 O 438.092 3.02167 -5.20556 0
M  V30 4731 H 441.918 0.573373 -2.98238 0
M  V30 4732 H 439.503 0.217255 -1.47812 0
M  V30 4733 H 441.385 3.02568 -2.93309 0
M  V30 4734 H 440.06 2.70254 -1.78169 0
M  V30 4735 H 438.967 1.19785 -3.54404 0
M  V30 4736 H 440.3 1.59464 -4.65652 0
M  V30 4737 N 441.952 1.55251 0.271103 0
M  V30 4738 C 442.899 1.88261 1.33516 0
M  V30 4739 C 443.869 0.734296 1.48988 0
M  V30 4740 O 445.054 0.985741 1.63364 0
M  V30 4741 C 442.194 2.16168 2.69008 0
M  V30 4742 C 441.307 3.43678 2.61743 0
M  V30 4743 C 440.442 3.61276 3.89427 0
M  V30 4744 C 439.481 4.82472 3.7668 0
M  V30 4745 N 438.618 4.96717 4.96202 0
M  V30 4746 H 443.458 2.79015 1.04665 0
M  V30 4747 H 440.995 1.38137 0.505618 0
M  V30 4748 H 442.953 2.30349 3.47844 0
M  V30 4749 H 441.583 1.28646 2.96057 0
M  V30 4750 H 440.635 3.37959 1.74607 0
M  V30 4751 H 441.947 4.3265 2.48224 0
M  V30 4752 H 441.101 3.75284 4.76704 0
M  V30 4753 H 439.84 2.70492 4.05814 0
M  V30 4754 H 438.845 4.68465 2.87786 0
M  V30 4755 H 440.07 5.74692 3.61809 0
M  V30 4756 H 438.016 4.08865 5.12997 0
M  V30 4757 H 437.933 5.79738 4.85222 0
M  V30 4758 H 439.201 5.15113 5.85046 0
M  V30 4759 N 443.43 -0.535701 1.48216 0
M  V30 4760 C 444.393 -1.623 1.61838 0
M  V30 4761 C 445.393 -1.53087 0.492024 0
M  V30 4762 O 446.583 -1.5686 0.757668 0
M  V30 4763 C 443.715 -3.01907 1.58319 0
M  V30 4764 H 444.908 -1.51564 2.58783 0
M  V30 4765 H 442.461 -0.757317 1.36727 0
M  V30 4766 H 443.196 -3.18155 0.628299 0
M  V30 4767 H 442.981 -3.10003 2.40085 0
M  V30 4768 H 444.471 -3.80969 1.71033 0
M  V30 4769 N 444.908 -1.36708 -0.784132 0
M  V30 4770 C 446.156 -1.30972 -1.53918 0
M  V30 4771 C 446.477 0.109086 -1.94695 0
M  V30 4772 O 445.747 1.05048 -1.65353 0
M  V30 4773 H 444.327 -0.481819 -0.570841 0
M  V30 4774 H 446.989 -1.71063 -0.934002 0
M  V30 4775 H 446.085 -1.94061 -2.44431 0
M  V30 4776 N 446.386 1.0089 -1.21074 0
M  V30 4777 C 447.663 1.71834 -0.934469 0
M  V30 4778 C 448.043 2.0368 0.554753 0
M  V30 4779 O 447.391 1.70742 1.51854 0
M  V30 4780 C 447.601 2.98061 -1.8155 0
M  V30 4781 C 448.949 3.7117 -2.06199 0
M  V30 4782 O 449.973 3.08034 -1.78867 0
M  V30 4783 O 448.832 4.84721 -2.52404 0
M  V30 4784 H 445.926 0.749253 -0.35007 0
M  V30 4785 H 448.472 1.06668 -1.31985 0
M  V30 4786 H 447.244 2.70908 -2.82355 0
M  V30 4787 H 446.867 3.70968 -1.43068 0
M  V30 4788 N 447.864 1.01787 1.20321 0
M  V30 4789 C 449.28 0.732951 1.41774 0
M  V30 4790 C 449.48 -0.686883 1.89431 0
M  V30 4791 O 448.536 -1.45446 2.06402 0
M  V30 4792 C 449.849 1.75973 2.43832 0
M  V30 4793 C 451.397 1.77802 2.57596 0
M  V30 4794 C 451.872 2.7941 3.62897 0
M  V30 4795 N 453.363 2.78157 3.70382 0
M  V30 4796 C 454.098 3.53434 4.51521 0
M  V30 4797 N 453.594 4.38392 5.36455 0
M  V30 4798 N 455.387 3.42026 4.46066 0
M  V30 4799 H 447.538 1.93447 0.877035 0
M  V30 4800 H 449.801 0.835712 0.447536 0
M  V30 4801 H 449.507 2.77699 2.15815 0
M  V30 4802 H 449.381 1.57292 3.4284 0
M  V30 4803 H 451.768 0.767602 2.84942 0
M  V30 4804 H 451.849 2.00557 1.58779 0
M  V30 4805 H 451.493 3.80616 3.36295 0
M  V30 4806 H 451.423 2.53916 4.61339 0
M  V30 4807 H 453.914 2.16531 3.09714 0
M  V30 4808 H 454.227 4.92596 5.95457 0
M  V30 4809 H 452.572 4.4247 5.35953 0
M  V30 4810 H 455.763 2.75075 3.78749 0
M  V30 4811 H 455.936 4.00946 5.09064 0
M  V30 4812 N 449.342 -1.36122 0.79427 0
M  V30 4813 C 450.252 -2.33769 0.197296 0
M  V30 4814 C 451.268 -1.61276 -0.653153 0
M  V30 4815 O 452.444 -1.9323 -0.5678 0
M  V30 4816 C 449.509 -3.40474 -0.654098 0
M  V30 4817 C 448.57 -4.28759 0.215411 0
M  V30 4818 C 447.803 -5.30368 -0.595443 0
M  V30 4819 O 448.026 -5.40211 -1.83107 0
M  V30 4820 O 446.96 -6.019 0.00721351 0
M  V30 4821 H 450.786 -2.86597 1.00478 0
M  V30 4822 H 448.371 -1.38676 0.555818 0
M  V30 4823 H 450.253 -4.05703 -1.13944 0
M  V30 4824 H 448.928 -2.89937 -1.43938 0
M  V30 4825 H 447.835 -3.66554 0.747615 0
M  V30 4826 H 449.168 -4.82661 0.964332 0
M  V30 4827 N 450.82 -0.546701 -1.47814 0
M  V30 4828 C 452.066 -0.0187684 -2.02791 0
M  V30 4829 C 452.399 1.32338 -1.42128 0
M  V30 4830 O 451.674 1.85867 -0.573023 0
M  V30 4831 C 451.957 0.0854985 -3.59998 0
M  V30 4832 C 451.81 -1.283 -4.31114 0
M  V30 4833 C 453.129 0.80412 -4.32691 0
M  V30 4834 H 450.248 -0.0082946 -0.736953 0
M  V30 4835 H 452.89 -0.706962 -1.76358 0
M  V30 4836 H 451.04 0.671609 -3.82651 0
M  V30 4837 H 452.712 -1.91151 -4.19832 0
M  V30 4838 H 450.955 -1.86049 -3.91878 0
M  V30 4839 H 451.626 -1.16287 -5.39612 0
M  V30 4840 H 454.102 0.306576 -4.14969 0
M  V30 4841 H 452.978 0.846011 -5.42341 0
M  V30 4842 H 453.239 1.85802 -4.01161 0
M  V30 4843 N 452.299 1.55045 -0.282633 0
M  V30 4844 C 453.231 2.2023 0.634924 0
M  V30 4845 C 454.244 1.18931 1.11172 0
M  V30 4846 O 455.433 1.4562 1.03233 0
M  V30 4847 C 452.533 2.82041 1.87899 0
M  V30 4848 C 451.706 4.091 1.54776 0
M  V30 4849 C 450.765 4.54887 2.64507 0
M  V30 4850 O 449.791 5.20496 2.30375 0
M  V30 4851 N 450.993 4.25659 3.94709 0
M  V30 4852 H 453.758 2.99601 0.0769811 0
M  V30 4853 H 451.319 1.61565 -0.104048 0
M  V30 4854 H 453.311 3.09613 2.60619 0
M  V30 4855 H 451.881 2.06618 2.3458 0
M  V30 4856 H 451.101 3.88736 0.654049 0
M  V30 4857 H 452.389 4.9187 1.30158 0
M  V30 4858 H 451.787 3.7306 4.25256 0
M  V30 4859 H 450.344 4.57984 4.63782 0
M  V30 4860 N 453.777 0.010035 1.57597 0
M  V30 4861 C 455.193 -0.346164 1.55801 0
M  V30 4862 C 455.393 -1.74144 1.01371 0
M  V30 4863 O 454.449 -2.43938 0.651968 0
M  V30 4864 C 455.762 -0.212216 2.9995 0
M  V30 4865 C 457.31 -0.286409 3.11687 0
M  V30 4866 C 457.785 -0.18147 4.5764 0
M  V30 4867 N 459.276 -0.239056 4.62583 0
M  V30 4868 C 460.011 -0.181351 5.73113 0
M  V30 4869 N 459.507 -0.073661 6.92761 0
M  V30 4870 N 461.3 -0.233949 5.61613 0
M  V30 4871 H 453.451 0.922657 1.91313 0
M  V30 4872 H 455.714 0.354595 0.879185 0
M  V30 4873 H 455.42 0.748169 3.4365 0
M  V30 4874 H 455.294 -0.990224 3.6397 0
M  V30 4875 H 457.681 -1.23724 2.67911 0
M  V30 4876 H 457.762 0.521645 2.50425 0
M  V30 4877 H 457.406 0.765863 5.02093 0
M  V30 4878 H 457.336 -1.00814 5.1686 0
M  V30 4879 H 459.827 -0.32321 3.76515 0
M  V30 4880 H 460.14 -0.0358003 7.72792 0
M  V30 4881 H 458.485 -0.0391461 6.94989 0
M  V30 4882 H 461.676 -0.316347 4.6703 0
M  V30 4883 H 461.849 -0.185514 6.47734 0
M  V30 4884 N 455.255 -1.55392 -0.262866 0
M  V30 4885 C 456.483 -1.80513 -1.01108 0
M  V30 4886 C 456.898 -0.583533 -1.79556 0
M  V30 4887 O 456.255 0.447585 -1.76926 0
M  V30 4888 C 456.306 -3.03648 -1.96164 0
M  V30 4889 O 456.027 -4.2109 -1.20893 0
M  V30 4890 C 457.528 -3.41448 -2.82715 0
M  V30 4891 H 454.748 -0.601079 -0.298236 0
M  V30 4892 H 457.292 -2.02425 -0.290582 0
M  V30 4893 H 455.447 -2.83832 -2.63663 0
M  V30 4894 H 455.861 -4.90771 -1.85051 0
M  V30 4895 H 457.335 -4.30751 -3.45192 0
M  V30 4896 H 457.812 -2.61308 -3.53008 0
M  V30 4897 H 458.418 -3.63559 -2.20693 0
M  V30 4898 N 456.733 0.527833 -1.48498 0
M  V30 4899 C 457.666 1.64892 -1.57753 0
M  V30 4900 C 458.644 1.5687 -0.427867 0
M  V30 4901 O 459.828 1.77311 -0.639764 0
M  V30 4902 C 456.955 3.03301 -1.50752 0
M  V30 4903 C 456.001 3.29675 -2.70586 0
M  V30 4904 S 456.834 3.15712 -4.32535 0
M  V30 4905 C 457.99 4.56564 -4.28136 0
M  V30 4906 H 458.223 1.56792 -2.52594 0
M  V30 4907 H 455.756 0.710959 -1.37057 0
M  V30 4908 H 457.714 3.83123 -1.474 0
M  V30 4909 H 456.375 3.08839 -0.572454 0
M  V30 4910 H 455.568 4.3065 -2.61833 0
M  V30 4911 H 455.17 2.57526 -2.71212 0
M  V30 4912 H 457.462 5.48126 -3.98201 0
M  V30 4913 H 458.405 4.70371 -5.29298 0
M  V30 4914 H 458.813 4.35987 -3.58574 0
M  V30 4915 N 458.211 1.37122 0.776871 0
M  V30 4916 C 459.141 1.35164 1.90402 0
M  V30 4917 C 460.122 0.221069 1.68657 0
M  V30 4918 O 461.307 0.420642 1.8959 0
M  V30 4919 C 458.437 1.15274 3.27611 0
M  V30 4920 C 457.391 2.25289 3.63908 0
M  V30 4921 C 456.717 1.90527 4.99603 0
M  V30 4922 C 458.017 3.67446 3.71188 0
M  V30 4923 H 459.711 2.29482 1.92297 0
M  V30 4924 H 457.257 1.10465 0.923773 0
M  V30 4925 H 459.21 1.12536 4.06096 0
M  V30 4926 H 457.934 0.174102 3.26136 0
M  V30 4927 H 456.593 2.27174 2.87728 0
M  V30 4928 H 456.241 0.91206 4.94662 0
M  V30 4929 H 455.941 2.64193 5.24858 0
M  V30 4930 H 457.465 1.89367 5.80493 0
M  V30 4931 H 458.879 3.67719 4.39836 0
M  V30 4932 H 457.276 4.40123 4.07936 0
M  V30 4933 H 458.346 4.01443 2.71977 0
M  V30 4934 N 459.689 -1.00246 1.21608 0
M  V30 4935 C 460.599 -2.12515 0.993709 0
M  V30 4936 C 461.615 -1.73913 -0.0549939 0
M  V30 4937 O 462.791 -2.00943 0.135619 0
M  V30 4938 C 459.856 -3.42083 0.563953 0
M  V30 4939 C 458.917 -3.94843 1.68516 0
M  V30 4940 C 458.15 -5.18226 1.27582 0
M  V30 4941 O 458.373 -5.70201 0.150506 0
M  V30 4942 O 457.307 -5.64497 2.0887 0
M  V30 4943 H 461.133 -2.34152 1.93407 0
M  V30 4944 H 458.718 -1.10891 1.00118 0
M  V30 4945 H 460.6 -4.20073 0.334194 0
M  V30 4946 H 459.275 -3.21828 -0.347665 0
M  V30 4947 H 458.182 -3.18068 1.96935 0
M  V30 4948 H 459.515 -4.19512 2.5743 0
M  V30 4949 N 461.167 -1.02423 -1.1978 0
M  V30 4950 C 462.097 -0.62157 -2.25075 0
M  V30 4951 C 463.078 0.367148 -1.6609 0
M  V30 4952 O 464.263 0.250892 -1.92573 0
M  V30 4953 C 461.393 0.0331826 -3.47284 0
M  V30 4954 C 460.347 -0.877323 -4.18912 0
M  V30 4955 C 459.673 -0.0879296 -5.34628 0
M  V30 4956 C 460.973 -2.18892 -4.74219 0
M  V30 4957 H 462.667 -1.50179 -2.59011 0
M  V30 4958 H 460.213 -0.723547 -1.24502 0
M  V30 4959 H 462.166 0.326488 -4.20133 0
M  V30 4960 H 460.89 0.948164 -3.12534 0
M  V30 4961 H 459.549 -1.15475 -3.47938 0
M  V30 4962 H 459.197 0.828941 -4.96123 0
M  V30 4963 H 458.897 -0.694359 -5.83483 0
M  V30 4964 H 460.421 0.198743 -6.10276 0
M  V30 4965 H 461.835 -1.95746 -5.38847 0
M  V30 4966 H 460.232 -2.74686 -5.33542 0
M  V30 4967 H 461.302 -2.84674 -3.92541 0
M  V30 4968 N 462.645 1.35699 -0.801477 0
M  V30 4969 C 463.575 2.32436 -0.222658 0
M  V30 4970 C 464.556 1.5723 0.649057 0
M  V30 4971 O 465.741 1.85324 0.580387 0
M  V30 4972 C 462.871 3.41469 0.633719 0
M  V30 4973 C 461.825 4.27774 -0.139083 0
M  V30 4974 C 461.151 5.28082 0.838666 0
M  V30 4975 C 462.451 5.04946 -1.33517 0
M  V30 4976 H 464.145 2.81094 -1.03086 0
M  V30 4977 H 461.691 1.35146 -0.497155 0
M  V30 4978 H 463.644 4.08143 1.04868 0
M  V30 4979 H 462.368 2.91408 1.47475 0
M  V30 4980 H 461.027 3.62673 -0.535156 0
M  V30 4981 H 460.675 4.7429 1.67506 0
M  V30 4982 H 460.375 5.86695 0.32594 0
M  V30 4983 H 461.899 5.97628 1.25194 0
M  V30 4984 H 463.313 5.64593 -0.995349 0
M  V30 4985 H 461.71 5.7303 -1.78202 0
M  V30 4986 H 462.78 4.35886 -2.12442 0
M  V30 4987 N 464.123 0.554532 1.47522 0
M  V30 4988 C 465.071 -0.207765 2.3167 0
M  V30 4989 C 466.065 -0.911914 1.4276 0
M  V30 4990 O 467.271 -0.833504 1.59539 0
M  V30 4991 H 463.646 -0.0858726 0.747081 0
M  V30 4992 H 465.617 0.521178 2.93813 0
M  V30 4993 C 464.366 -1.2263 3.25357 0
M  V30 4994 H 463.689 -0.693887 3.93732 0
M  V30 4995 H 465.129 -1.73062 3.87073 0
M  V30 4996 C 463.588 -2.27278 2.4869 0
M  V30 4997 O 464.118 -3.34156 2.22941 0
M  V30 4998 N 462.324 -2.01134 2.09746 0
M  V30 4999 H 461.871 -1.14232 2.30887 0
M  V30 5000 H 461.829 -2.71369 1.58765 0
M  V30 5001 N 465.601 -1.54893 0.290851 0
M  V30 5002 C 466.533 -2.20564 -0.623236 0
M  V30 5003 C 467.546 -1.19519 -1.1054 0
M  V30 5004 O 468.735 -1.46165 -1.02459 0
M  V30 5005 C 465.835 -2.83033 -1.86401 0
M  V30 5006 C 465.008 -4.09916 -1.52604 0
M  V30 5007 C 464.067 -4.56284 -2.62091 0
M  V30 5008 O 463.093 -5.2171 -2.27612 0
M  V30 5009 N 464.295 -4.27746 -3.92446 0
M  V30 5010 H 467.06 -2.99638 -0.0610915 0
M  V30 5011 H 464.621 -1.61508 0.112615 0
M  V30 5012 H 466.613 -3.1099 -2.58973 0
M  V30 5013 H 465.183 -2.0786 -2.33481 0
M  V30 5014 H 464.403 -3.89078 -0.633424 0
M  V30 5015 H 465.691 -4.92554 -1.27547 0
M  V30 5016 H 465.089 -3.7531 -4.23272 0
M  V30 5017 H 463.646 -4.60437 -4.61347 0
M  V30 5018 N 467.08 -0.0183926 -1.57589 0
M  V30 5019 C 468.01 0.965596 -2.12599 0
M  V30 5020 C 468.991 1.34641 -1.0395 0
M  V30 5021 O 470.176 1.42693 -1.31729 0
M  V30 5022 C 467.306 2.25149 -2.64434 0
M  V30 5023 C 466.26 2.01175 -3.77773 0
M  V30 5024 C 465.586 3.35937 -4.15994 0
M  V30 5025 C 466.886 1.35953 -5.04296 0
M  V30 5026 H 468.58 0.507504 -2.95067 0
M  V30 5027 H 466.126 0.242671 -1.41941 0
M  V30 5028 H 468.079 2.94357 -3.01549 0
M  V30 5029 H 466.803 2.73105 -1.79112 0
M  V30 5030 H 465.462 1.34388 -3.4108 0
M  V30 5031 H 465.11 3.81631 -3.27669 0
M  V30 5032 H 464.81 3.20705 -4.92364 0
M  V30 5033 H 466.334 4.0643 -4.55683 0
M  V30 5034 H 467.748 1.95144 -5.39065 0
M  V30 5035 H 466.145 1.31152 -5.85593 0
M  V30 5036 H 467.215 0.331071 -4.83768 0
M  V30 5037 N 468.558 1.5553 0.254621 0
M  V30 5038 C 469.835 1.6774 1.00611 0
M  V30 5039 C 470.215 0.555993 2.03647 0
M  V30 5040 O 469.563 -0.441583 2.24193 0
M  V30 5041 C 469.773 3.07725 1.6464 0
M  V30 5042 C 471.121 3.66074 2.15116 0
M  V30 5043 O 472.145 3.10476 1.74595 0
M  V30 5044 O 471.004 4.63526 2.89493 0
M  V30 5045 H 468.098 0.681958 0.467828 0
M  V30 5046 H 470.644 1.67863 0.24902 0
M  V30 5047 H 469.416 3.80792 0.900734 0
M  V30 5048 H 469.039 3.1158 2.46989 0
M  V30 5049 N 470.036 -0.519951 1.48776 0
M  V30 5050 C 471.284 -1.2727 1.56993 0
M  V30 5051 C 471.605 -1.9339 0.25004 0
M  V30 5052 O 470.875 -1.81822 -0.729216 0
M  V30 5053 H 469.455 -0.472732 0.578389 0
M  V30 5054 H 472.117 -0.604234 1.85297 0
M  V30 5055 H 471.213 -2.04669 2.3562 0
M  V30 5056 N 471.514 -1.37532 -0.769588 0
M  V30 5057 C 472.761 -1.3286 -1.52822 0
M  V30 5058 C 473.089 0.0862597 -1.94309 0
M  V30 5059 O 472.344 1.05995 -1.6451 0
M  V30 5060 C 472.643 -2.21558 -2.8044 0
M  V30 5061 C 472.309 -3.69796 -2.57996 0
M  V30 5062 C 470.971 -4.10194 -2.51583 0
M  V30 5063 C 473.323 -4.63699 -2.37976 0
M  V30 5064 C 470.651 -5.42608 -2.23144 0
M  V30 5065 C 473.003 -5.96353 -2.1106 0
M  V30 5066 C 471.667 -6.35853 -2.03093 0
M  V30 5067 H 470.937 -0.486168 -0.559215 0
M  V30 5068 H 473.584 -1.69757 -0.886277 0
M  V30 5069 H 471.889 -1.77663 -3.49204 0
M  V30 5070 H 473.586 -2.15256 -3.38328 0
M  V30 5071 H 470.176 -3.37759 -2.63851 0
M  V30 5072 H 474.36 -4.33346 -2.41919 0
M  V30 5073 H 469.616 -5.72173 -2.15472 0
M  V30 5074 H 473.79 -6.68667 -1.94568 0
M  V30 5075 H 471.417 -7.38382 -1.8082 0
M  V30 5076 N 472.992 0.995999 -1.22138 0
M  V30 5077 C 473.924 2.08745 -0.946485 0
M  V30 5078 C 474.937 1.62633 0.0737356 0
M  V30 5079 O 476.126 1.77782 -0.159886 0
M  V30 5080 C 473.226 3.36516 -0.401305 0
M  V30 5081 C 472.399 4.11672 -1.47801 0
M  V30 5082 C 471.458 5.17728 -0.940461 0
M  V30 5083 O 470.484 5.45482 -1.62596 0
M  V30 5084 N 471.686 5.80005 0.239723 0
M  V30 5085 H 474.451 2.32908 -1.88611 0
M  V30 5086 H 472.012 1.16152 -1.12785 0
M  V30 5087 H 474.004 4.04691 -0.0270837 0
M  V30 5088 H 472.574 3.0944 0.443354 0
M  V30 5089 H 471.794 3.38171 -2.02568 0
M  V30 5090 H 473.082 4.58657 -2.20253 0
M  V30 5091 H 472.48 5.5982 0.813518 0
M  V30 5092 H 471.037 6.4943 0.555361 0
M  V30 5093 N 474.47 1.03057 1.19235 0
M  V30 5094 C 475.881 0.757449 1.70645 0
M  V30 5095 C 476.232 -0.722735 1.82403 0
M  V30 5096 O 475.357 -1.56325 1.49638 0
M  V30 5097 C 475.952 1.36833 3.09939 0
M  V30 5098 C 474.511 1.14375 3.58602 0
M  V30 5099 C 473.658 1.46533 2.35422 0
M  V30 5100 H 476.609 1.19828 1.04052 0
M  V30 5101 H 476.63 0.766184 3.72706 0
M  V30 5102 H 476.142 2.44562 3.01349 0
M  V30 5103 H 474.243 0.0847542 3.72504 0
M  V30 5104 H 474.356 1.83366 4.42622 0
M  V30 5105 H 472.72 0.884712 2.38841 0
M  V30 5106 H 473.503 2.55349 2.2946 0
M  V30 5107 N 475.948 -1.35272 0.808662 0
M  V30 5108 C 476.896 -2.31663 0.208606 0
M  V30 5109 C 477.89 -1.56731 -0.642778 0
M  V30 5110 O 479.096 -1.71843 -0.53571 0
M  V30 5111 H 475.471 -0.750421 0.0486993 0
M  V30 5112 H 477.442 -2.79814 1.03666 0
M  V30 5113 C 476.191 -3.42008 -0.626573 0
M  V30 5114 H 475.514 -3.99795 0.0192103 0
M  V30 5115 H 476.954 -4.11727 -1.01278 0
M  V30 5116 C 475.413 -2.85226 -1.79298 0
M  V30 5117 O 475.943 -2.78945 -2.89055 0
M  V30 5118 N 474.149 -2.42245 -1.60516 0
M  V30 5119 H 473.696 -2.47554 -0.712375 0
M  V30 5120 H 473.654 -2.04603 -2.38715 0
M  V30 5121 N 477.426 -0.562348 -1.47226 0
M  V30 5122 C 478.654 -0.0452275 -2.06851 0
M  V30 5123 C 479.069 1.25078 -1.41424 0
M  V30 5124 O 478.426 1.75156 -0.512513 0
M  V30 5125 C 478.477 0.148674 -3.61194 0
M  V30 5126 O 478.198 -1.09602 -4.24169 0
M  V30 5127 C 479.699 0.702488 -4.37699 0
M  V30 5128 H 476.919 -0.0481775 -0.669268 0
M  V30 5129 H 479.463 -0.777223 -1.89155 0
M  V30 5130 H 477.618 0.830817 -3.78386 0
M  V30 5131 H 478.032 -0.896982 -5.16773 0
M  V30 5132 H 479.506 0.78743 -5.46355 0
M  V30 5133 H 479.983 1.71493 -4.04335 0
M  V30 5134 H 480.589 0.0558772 -4.25263 0
M  V30 5135 N 478.904 1.54736 -0.299062 0
M  V30 5136 C 479.836 2.20891 0.61153 0
M  V30 5137 C 480.849 1.20104 1.09904 0
M  V30 5138 O 482.038 1.46707 1.01683 0
M  V30 5139 C 479.138 2.84018 1.84897 0
M  V30 5140 C 478.311 4.10719 1.50428 0
M  V30 5141 C 477.37 4.57667 2.59667 0
M  V30 5142 O 476.396 5.2291 2.24842 0
M  V30 5143 N 477.598 4.29821 3.90172 0
M  V30 5144 H 480.363 2.99666 0.0452001 0
M  V30 5145 H 477.924 1.61446 -0.121178 0
M  V30 5146 H 479.916 3.1236 2.5732 0
M  V30 5147 H 478.486 2.09095 2.32375 0
M  V30 5148 H 477.706 3.89408 0.612781 0
M  V30 5149 H 478.994 4.93223 1.24934 0
M  V30 5150 H 478.392 3.77549 4.21276 0
M  V30 5151 H 476.949 4.62877 4.58899 0
M  V30 5152 N 480.382 0.0267497 1.57577 0
M  V30 5153 C 481.628 -0.653371 1.91987 0
M  V30 5154 C 481.961 -1.71915 0.903263 0
M  V30 5155 O 481.236 -1.94358 -0.0743387 0
M  V30 5156 C 481.519 -1.272 3.36886 0
M  V30 5157 C 481.372 -0.215938 4.49281 0
M  V30 5158 C 482.691 -2.19069 3.81703 0
M  V30 5159 H 479.81 -0.236047 0.698177 0
M  V30 5160 H 482.452 0.0835236 1.89816 0
M  V30 5161 H 480.602 -1.90005 3.38866 0
M  V30 5162 H 482.274 0.41449 4.59434 0
M  V30 5163 H 480.517 0.458855 4.31366 0
M  V30 5164 H 481.188 -0.688347 5.47691 0
M  V30 5165 H 483.664 -1.66253 3.81444 0
M  V30 5166 H 482.54 -2.59307 4.83788 0
M  V30 5167 H 482.801 -3.08087 3.17072 0
M  V30 5168 N 481.861 -1.55662 -0.24637 0
M  V30 5169 C 482.808 -1.90361 -1.30504 0
M  V30 5170 C 483.778 -0.757905 -1.47801 0
M  V30 5171 O 484.963 -1.01161 -1.61775 0
M  V30 5172 C 482.103 -2.2042 -2.65535 0
M  V30 5173 C 481.216 -3.47799 -2.56242 0
M  V30 5174 C 480.351 -3.67426 -3.8363 0
M  V30 5175 C 479.39 -4.88403 -3.68956 0
M  V30 5176 N 478.527 -5.04548 -4.88237 0
M  V30 5177 H 483.367 -2.80645 -1.00213 0
M  V30 5178 H 480.904 -1.38924 -0.483577 0
M  V30 5179 H 482.862 -2.35853 -3.44135 0
M  V30 5180 H 481.492 -1.3334 -2.93973 0
M  V30 5181 H 480.544 -3.40694 -1.69208 0
M  V30 5182 H 481.856 -4.36544 -2.4131 0
M  V30 5183 H 481.01 -3.82821 -4.70673 0
M  V30 5184 H 479.749 -2.76914 -4.01459 0
M  V30 5185 H 478.754 -4.72984 -2.80296 0
M  V30 5186 H 479.979 -5.80375 -3.52621 0
M  V30 5187 H 477.925 -4.16974 -5.06427 0
M  V30 5188 H 477.842 -5.87384 -4.75937 0
M  V30 5189 H 479.11 -5.24355 -5.76777 0
M  V30 5190 N 483.339 0.512053 -1.4905 0
M  V30 5191 C 484.585 1.26874 -1.58212 0
M  V30 5192 C 484.918 1.9241 -0.263073 0
M  V30 5193 O 484.193 1.80181 0.732476 0
M  V30 5194 C 484.476 2.34428 -2.73341 0
M  V30 5195 C 484.329 1.73466 -4.15006 0
M  V30 5196 C 485.648 3.36073 -2.84154 0
M  V30 5197 H 482.767 0.459924 -0.575881 0
M  V30 5198 H 485.409 0.568587 -1.81293 0
M  V30 5199 H 483.559 2.94146 -2.53792 0
M  V30 5200 H 485.231 1.17661 -4.46042 0
M  V30 5201 H 483.474 1.03921 -4.21168 0
M  V30 5202 H 484.145 2.51426 -4.91415 0
M  V30 5203 H 486.621 2.86332 -3.01916 0
M  V30 5204 H 485.497 4.08703 -3.66406 0
M  V30 5205 H 485.758 3.97725 -1.93048 0
M  V30 5206 N 484.817 1.37938 0.762283 0
M  V30 5207 C 486.066 1.32989 1.51647 0
M  V30 5208 C 486.379 -0.0802922 1.95435 0
M  V30 5209 O 487.585 -0.252295 2.70325 0
M  V30 5210 C 486.041 2.33485 2.73885 0
M  V30 5211 C 485.649 3.80079 2.37157 0
M  V30 5212 C 487.393 2.37563 3.51801 0
M  V30 5213 C 485.3 4.72283 3.55954 0
M  V30 5214 H 484.23 0.494301 0.56937 0
M  V30 5215 H 486.881 1.63448 0.834083 0
M  V30 5216 H 485.263 1.96056 3.44061 0
M  V30 5217 H 486.437 4.26398 1.74704 0
M  V30 5218 H 484.752 3.79037 1.72395 0
M  V30 5219 H 487.349 3.0365 4.40114 0
M  V30 5220 H 487.692 1.39199 3.92338 0
M  V30 5221 H 488.225 2.73747 2.8863 0
M  V30 5222 H 484.964 5.7181 3.2049 0
M  V30 5223 H 484.484 4.30663 4.1748 0
M  V30 5224 H 486.163 4.89876 4.22647 0
M  V30 5225 N 486.295 -0.989507 1.22664 0
M  V30 5226 C 487.258 -2.06183 1.00106 0
M  V30 5227 C 488.258 -1.60765 -0.0337726 0
M  V30 5228 O 489.448 -1.72989 0.205072 0
M  V30 5229 C 486.58 -3.37021 0.51279 0
M  V30 5230 H 487.773 -2.27629 1.95256 0
M  V30 5231 H 485.326 -1.16158 1.0458 0
M  V30 5232 H 486.061 -3.21261 -0.442917 0
M  V30 5233 H 485.846 -3.71323 1.25942 0
M  V30 5234 H 487.336 -4.1591 0.375315 0
M  V30 5235 N 487.773 -1.03688 -1.18687 0
M  V30 5236 C 488.736 -0.629115 -2.20397 0
M  V30 5237 C 489.736 0.311495 -1.57754 0
M  V30 5238 O 490.926 0.0974107 -1.73927 0
M  V30 5239 C 488.058 0.0782231 -3.4081 0
M  V30 5240 H 489.251 -1.52915 -2.57987 0
M  V30 5241 H 486.804 -0.828988 -1.32505 0
M  V30 5242 H 487.539 0.992233 -3.08748 0
M  V30 5243 H 487.324 -0.597776 -3.87517 0
M  V30 5244 H 488.814 0.350156 -4.16129 0
M  V30 5245 N 489.251 1.34841 -0.815825 0
M  V30 5246 C 490.479 2.0273 -0.413294 0
M  V30 5247 C 490.894 1.61459 0.978599 0
M  V30 5248 O 490.251 0.816584 1.63212 0
M  V30 5249 C 490.302 3.58058 -0.497676 0
M  V30 5250 O 490.023 3.97832 -1.8347 0
M  V30 5251 C 491.524 4.4321 -0.0891339 0
M  V30 5252 H 488.744 0.649956 -0.166728 0
M  V30 5253 H 491.288 1.72267 -1.10201 0
M  V30 5254 H 489.443 3.87136 0.142886 0
M  V30 5255 H 489.857 4.92501 -1.80396 0
M  V30 5256 H 491.331 5.5164 -0.199274 0
M  V30 5257 H 491.808 4.28432 0.966571 0
M  V30 5258 H 492.414 4.19446 -0.703214 0
M  V30 5259 N 490.729 0.570148 1.46925 0
M  V30 5260 C 491.677 -0.183181 2.31878 0
M  V30 5261 C 492.671 -0.896721 1.43719 0
M  V30 5262 O 493.877 -0.816536 1.60414 0
M  V30 5263 H 490.252 -0.077944 0.74795 0
M  V30 5264 H 492.223 0.552312 2.93244 0
M  V30 5265 C 490.972 -1.19172 3.2664 0
M  V30 5266 H 490.295 -0.652088 3.94446 0
M  V30 5267 H 491.735 -1.68946 3.88887 0
M  V30 5268 C 490.194 -2.24627 2.51086 0
M  V30 5269 O 490.724 -3.31773 2.26472 0
M  V30 5270 N 488.93 -1.98898 2.11867 0
M  V30 5271 H 488.477 -1.11777 2.32086 0
M  V30 5272 H 488.435 -2.6967 1.61634 0
M  V30 5273 N 492.207 -1.54576 0.307264 0
M  V30 5274 C 493.623 -1.59534 -0.0459251 0
M  V30 5275 C 493.823 -1.32414 -1.51884 0
M  V30 5276 O 492.879 -1.1006 -2.27251 0
M  V30 5277 C 494.192 -2.98566 0.357649 0
M  V30 5278 C 495.74 -3.11491 0.306937 0
M  V30 5279 C 496.215 -4.52842 0.685427 0
M  V30 5280 N 497.706 -4.58782 0.638203 0
M  V30 5281 C 498.441 -5.66238 0.903458 0
M  V30 5282 N 497.937 -6.81703 1.23501 0
M  V30 5283 N 499.73 -5.55937 0.830102 0
M  V30 5284 H 491.881 -1.70464 1.26712 0
M  V30 5285 H 494.144 -0.79647 0.514139 0
M  V30 5286 H 493.85 -3.23356 1.38325 0
M  V30 5287 H 493.724 -3.76117 -0.285565 0
M  V30 5288 H 496.111 -2.86446 -0.709424 0
M  V30 5289 H 496.192 -2.36081 0.984861 0
M  V30 5290 H 495.836 -4.78618 1.69963 0
M  V30 5291 H 495.766 -5.26598 -0.0146346 0
M  V30 5292 H 498.257 -3.75849 0.393138 0
M  V30 5293 H 498.57 -7.59582 1.42322 0
M  V30 5294 H 496.915 -6.8324 1.27311 0
M  V30 5295 H 500.106 -4.64608 0.570693 0
M  V30 5296 H 500.279 -6.39597 1.04019 0
M  V30 5297 N 493.685 -0.035106 -1.57561 0
M  V30 5298 C 494.931 0.64318 -1.92331 0
M  V30 5299 C 495.264 1.71434 -0.912368 0
M  V30 5300 O 494.539 1.94395 0.0640303 0
M  V30 5301 C 494.822 1.25411 -3.37556 0
M  V30 5302 C 494.675 0.192109 -4.4939 0
M  V30 5303 C 495.994 2.17041 -3.82859 0
M  V30 5304 H 493.113 0.232341 -0.699419 0
M  V30 5305 H 495.755 -0.0935889 -1.89769 0
M  V30 5306 H 493.905 1.88205 -3.39869 0
M  V30 5307 H 495.577 -0.438849 -4.59208 0
M  V30 5308 H 493.82 -0.481725 -4.31117 0
M  V30 5309 H 494.491 0.659292 -5.48049 0
M  V30 5310 H 496.967 1.64228 -3.8232 0
M  V30 5311 H 495.843 2.56738 -4.85157 0
M  V30 5312 H 496.104 3.06401 -3.18702 0
M  V30 5313 N 495.163 1.55791 0.238111 0
M  V30 5314 C 496.44 1.68798 0.98826 0
M  V30 5315 C 496.82 0.577562 2.03045 0
M  V30 5316 O 496.168 -0.41778 2.24648 0
M  V30 5317 C 496.378 3.09454 1.61367 0
M  V30 5318 C 497.726 3.68335 2.11221 0
M  V30 5319 O 498.75 3.1231 1.71292 0
M  V30 5320 O 497.609 4.6657 2.84561 0
M  V30 5321 H 494.703 0.686881 0.460568 0
M  V30 5322 H 497.249 1.68118 0.231202 0
M  V30 5323 H 496.021 3.81726 0.860295 0
M  V30 5324 H 495.644 3.14182 2.4367 0
M  V30 5325 N 496.642 -0.504142 1.49319 0
M  V30 5326 C 497.891 -1.25507 1.57895 0
M  V30 5327 C 498.204 -1.93735 0.269433 0
M  V30 5328 O 499.41 -2.70492 0.233706 0
M  V30 5329 C 497.866 -2.27869 2.78574 0
M  V30 5330 C 497.474 -1.65594 4.16272 0
M  V30 5331 C 499.218 -3.0381 2.96479 0
M  V30 5332 C 497.125 -2.66048 5.28178 0
M  V30 5333 H 496.055 -0.47212 0.587894 0
M  V30 5334 H 498.706 -0.52931 1.757 0
M  V30 5335 H 497.088 -3.03594 2.54257 0
M  V30 5336 H 498.262 -0.958826 4.50714 0
M  V30 5337 H 496.577 -1.02055 4.037 0
M  V30 5338 H 499.174 -3.78925 3.77253 0
M  V30 5339 H 499.517 -3.61235 2.06918 0
M  V30 5340 H 500.05 -2.352 3.20821 0
M  V30 5341 H 496.789 -2.13408 6.19788 0
M  V30 5342 H 496.309 -3.34009 4.98195 0
M  V30 5343 H 497.988 -3.28536 5.57381 0
M  V30 5344 N 498.12 -1.38341 -0.754957 0
M  V30 5345 C 499.05 -1.38176 -1.88227 0
M  V30 5346 C 500.031 -0.247873 -1.68284 0
M  V30 5347 O 501.216 -0.45075 -1.88896 0
M  V30 5348 C 498.346 -1.20471 -3.25736 0
M  V30 5349 C 497.3 -2.3105 -3.60278 0
M  V30 5350 C 496.626 -1.98452 -4.96509 0
M  V30 5351 C 497.926 -3.73305 -3.65295 0
M  V30 5352 H 499.62 -2.32512 -1.88622 0
M  V30 5353 H 497.166 -1.1192 -0.906082 0
M  V30 5354 H 499.119 -1.18982 -4.04254 0
M  V30 5355 H 497.843 -0.225965 -3.25817 0
M  V30 5356 H 496.502 -2.31723 -2.84078 0
M  V30 5357 H 496.15 -0.990641 -4.93148 0
M  V30 5358 H 495.85 -2.7251 -5.20588 0
M  V30 5359 H 497.374 -1.98578 -5.77407 0
M  V30 5360 H 498.788 -3.7467 -4.3393 0
M  V30 5361 H 497.185 -4.46557 -4.00883 0
M  V30 5362 H 498.255 -4.05719 -2.65556 0
M  V30 5363 N 499.598 0.982988 -1.23187 0
M  V30 5364 C 500.875 1.69814 -0.970707 0
M  V30 5365 C 501.255 2.04811 0.511424 0
M  V30 5366 O 500.603 1.73924 1.48198 0
M  V30 5367 C 500.813 2.94143 -1.87831 0
M  V30 5368 C 502.161 3.66712 -2.14026 0
M  V30 5369 O 503.185 3.04171 -1.8536 0
M  V30 5370 O 502.044 4.79258 -2.62629 0
M  V30 5371 H 499.138 0.741659 -0.365884 0
M  V30 5372 H 501.684 1.03844 -1.34218 0
M  V30 5373 H 500.456 2.64858 -2.88038 0
M  V30 5374 H 500.079 3.6785 -1.50905 0
M  V30 5375 N 501.076 1.04316 1.18135 0
M  V30 5376 C 502.487 0.775505 1.69832 0
M  V30 5377 C 502.838 -0.703348 1.8316 0
M  V30 5378 O 501.963 -1.54729 1.51287 0
M  V30 5379 C 502.558 1.40112 3.0847 0
M  V30 5380 C 501.117 1.18172 3.57368 0
M  V30 5381 C 500.264 1.49022 2.33854 0
M  V30 5382 H 503.215 1.20925 1.02775 0
M  V30 5383 H 503.236 0.805672 3.71873 0
M  V30 5384 H 502.748 2.47744 2.98738 0
M  V30 5385 H 500.849 0.124258 3.72393 0
M  V30 5386 H 500.962 1.8805 4.40652 0
M  V30 5387 H 499.326 0.909995 2.37889 0
M  V30 5388 H 500.109 2.57768 2.26738 0
M  V30 5389 N 502.554 -1.34406 0.822964 0
M  V30 5390 C 503.517 -2.2783 0.250271 0
M  V30 5391 C 504.517 -1.50288 -0.571854 0
M  V30 5392 O 505.707 -1.69825 -0.387952 0
M  V30 5393 C 502.839 -3.34663 -0.649137 0
M  V30 5394 H 504.032 -2.79992 1.07444 0
M  V30 5395 H 501.585 -1.44539 0.594829 0
M  V30 5396 H 502.32 -2.87714 -1.49637 0
M  V30 5397 H 502.105 -3.92052 -0.0611199 0
M  V30 5398 H 503.595 -4.04349 -1.04363 0
M  V30 5399 N 504.032 -0.577932 -1.46621 0
M  V30 5400 C 504.962 0.145917 -2.33044 0
M  V30 5401 C 505.943 0.888412 -1.45056 0
M  V30 5402 O 507.128 0.864812 -1.73881 0
M  V30 5403 C 504.258 1.16322 -3.27241 0
M  V30 5404 C 503.212 0.535868 -4.24632 0
M  V30 5405 C 502.538 1.65929 -5.08303 0
M  V30 5406 C 503.838 -0.523861 -5.19666 0
M  V30 5407 H 505.532 -0.575636 -2.93814 0
M  V30 5408 H 503.078 -0.278272 -1.41286 0
M  V30 5409 H 505.031 1.67793 -3.86553 0
M  V30 5410 H 503.755 1.91498 -2.64567 0
M  V30 5411 H 502.414 0.0422759 -3.66576 0
M  V30 5412 H 502.062 2.40061 -4.42018 0
M  V30 5413 H 501.762 1.2452 -5.74255 0
M  V30 5414 H 503.286 2.17686 -5.70478 0
M  V30 5415 H 504.7 -0.0944059 -5.73222 0
M  V30 5416 H 503.097 -0.858 -5.93935 0
M  V30 5417 H 504.167 -1.41197 -4.63887 0
M  V30 5418 N 505.51 1.54411 -0.315457 0
M  V30 5419 C 506.44 2.27002 0.547039 0
M  V30 5420 C 507.421 1.27492 1.12605 0
M  V30 5421 O 508.606 1.5629 1.15269 0
M  V30 5422 C 505.736 3.02171 1.71201 0
M  V30 5423 C 504.69 4.0895 1.26268 0
M  V30 5424 C 504.016 4.71915 2.51396 0
M  V30 5425 C 505.316 5.20891 0.383419 0
M  V30 5426 H 507.01 2.99343 -0.0584517 0
M  V30 5427 H 504.556 1.4397 -0.0295527 0
M  V30 5428 H 506.509 3.51681 2.32161 0
M  V30 5429 H 505.233 2.27433 2.34397 0
M  V30 5430 H 503.892 3.60312 0.676062 0
M  V30 5431 H 503.54 3.93801 3.12937 0
M  V30 5432 H 503.24 5.44039 2.22026 0
M  V30 5433 H 504.764 5.24195 3.13133 0
M  V30 5434 H 506.178 5.66206 0.899082 0
M  V30 5435 H 504.575 5.99821 0.182857 0
M  V30 5436 H 505.645 4.81324 -0.587821 0
M  V30 5437 N 506.988 0.0434614 1.5754 0
M  V30 5438 C 508.404 -0.313039 1.565 0
M  V30 5439 C 508.604 -1.71954 1.05043 0
M  V30 5440 O 507.66 -2.425 0.703564 0
M  V30 5441 C 508.973 -0.148544 3.00333 0
M  V30 5442 C 510.521 -0.220231 3.12224 0
M  V30 5443 C 510.996 -0.0843565 4.57922 0
M  V30 5444 N 512.487 -0.140881 4.62986 0
M  V30 5445 C 513.222 -0.0597443 5.73369 0
M  V30 5446 N 512.718 0.0733004 6.92761 0
M  V30 5447 N 514.511 -0.11477 5.61983 0
M  V30 5448 H 506.662 0.96303 1.89313 0
M  V30 5449 H 508.925 0.373164 0.871466 0
M  V30 5450 H 508.631 0.820894 3.41986 0
M  V30 5451 H 508.505 -0.912798 3.65989 0
M  V30 5452 H 510.892 -1.18014 2.70475 0
M  V30 5453 H 510.973 0.574646 2.49262 0
M  V30 5454 H 510.617 0.872192 5.00355 0
M  V30 5455 H 510.547 -0.898281 5.18882 0
M  V30 5456 H 513.038 -0.243273 3.77116 0
M  V30 5457 H 513.351 0.128128 7.72694 0
M  V30 5458 H 511.696 0.10828 6.94916 0
M  V30 5459 H 514.887 -0.217212 4.67596 0
M  V30 5460 H 515.06 -0.0480779 6.47982 0
M  V30 5461 N 508.466 -1.55915 -0.229846 0
M  V30 5462 C 509.691 -1.8296 -0.976743 0
M  V30 5463 C 510.116 -0.622735 -1.77493 0
M  V30 5464 O 509.474 0.428431 -1.76165 0
M  V30 5465 C 509.522 -3.07916 -1.8767 0
M  V30 5466 O 508.626 -2.86028 -2.97088 0
M  V30 5467 H 507.967 -0.603453 -0.277021 0
M  V30 5468 H 510.497 -2.0312 -0.245669 0
M  V30 5469 H 510.507 -3.37802 -2.2881 0
M  V30 5470 H 509.182 -3.95389 -1.28996 0
M  V30 5471 H 507.759 -2.67355 -2.59954 0
M  V30 5472 N 509.944 0.496216 -1.49584 0
M  V30 5473 C 511.192 1.24756 -1.58998 0
M  V30 5474 C 511.513 1.92968 -0.280775 0
M  V30 5475 O 510.783 1.82959 0.700198 0
M  V30 5476 H 509.363 0.463471 -0.585836 0
M  V30 5477 H 512.025 0.574678 -1.86235 0
M  V30 5478 H 511.121 2.00895 -2.38847 0
M  V30 5479 N 511.423 1.38739 0.74761 0
M  V30 5480 C 512.839 1.20067 1.05148 0
M  V30 5481 C 513.039 0.0534835 2.01429 0
M  V30 5482 O 512.095 -0.59886 2.45296 0
M  V30 5483 C 513.408 2.52957 1.62584 0
M  V30 5484 C 514.956 2.59692 1.74726 0
M  V30 5485 C 515.431 3.92772 2.35573 0
M  V30 5486 N 516.922 3.94343 2.42997 0
M  V30 5487 C 517.657 4.9408 2.90985 0
M  V30 5488 N 517.153 6.04214 3.38965 0
M  V30 5489 N 518.946 4.81466 2.9008 0
M  V30 5490 H 511.097 2.12121 0.108808 0
M  V30 5491 H 513.36 0.941491 0.110899 0
M  V30 5492 H 513.066 3.37389 0.993051 0
M  V30 5493 H 512.94 2.71779 2.61565 0
M  V30 5494 H 515.327 1.75651 2.3713 0
M  V30 5495 H 515.408 2.44731 0.744326 0
M  V30 5496 H 515.052 4.77238 1.738 0
M  V30 5497 H 514.982 4.05046 3.36519 0
M  V30 5498 H 517.473 3.14799 2.0907 0
M  V30 5499 H 517.786 6.76241 3.74056 0
M  V30 5500 H 516.131 6.07825 3.37007 0
M  V30 5501 H 519.322 3.94535 2.51912 0
M  V30 5502 H 519.495 5.59344 3.27166 0
M  V30 5503 N 512.901 -0.976442 1.23707 0
M  V30 5504 C 513.831 -2.08749 1.04624 0
M  V30 5505 C 514.812 -1.70057 -0.0380956 0
M  V30 5506 O 515.997 -1.93782 0.127308 0
M  V30 5507 C 513.127 -3.41335 0.640902 0
M  V30 5508 C 512.081 -3.93947 1.67302 0
M  V30 5509 C 511.407 -5.22774 1.12301 0
M  V30 5510 C 512.707 -4.22769 3.06697 0
M  V30 5511 H 514.401 -2.24972 1.97555 0
M  V30 5512 H 511.947 -1.08108 0.951247 0
M  V30 5513 H 513.9 -4.18489 0.494434 0
M  V30 5514 H 512.624 -3.24988 -0.324099 0
M  V30 5515 H 511.283 -3.18941 1.80755 0
M  V30 5516 H 510.931 -5.0278 0.148877 0
M  V30 5517 H 510.631 -5.58942 1.81267 0
M  V30 5518 H 512.155 -6.02546 0.988479 0
M  V30 5519 H 513.569 -4.90659 2.96524 0
M  V30 5520 H 511.966 -4.70147 3.72937 0
M  V30 5521 H 513.036 -3.29885 3.55392 0
M  V30 5522 N 514.379 -1.04941 -1.1758 0
M  V30 5523 C 515.656 -0.671918 -1.83697 0
M  V30 5524 C 516.036 0.847929 -1.93322 0
M  V30 5525 O 515.384 1.75287 -1.46583 0
M  V30 5526 C 515.594 -1.35797 -3.21497 0
M  V30 5527 C 516.942 -1.4944 -3.97433 0
M  V30 5528 O 517.966 -1.31678 -3.30967 0
M  V30 5529 O 516.825 -1.78463 -5.1654 0
M  V30 5530 H 513.919 -0.236212 -0.792548 0
M  V30 5531 H 516.465 -1.14884 -1.24899 0
M  V30 5532 H 515.237 -2.39498 -3.09446 0
M  V30 5533 H 514.86 -0.870236 -3.8796 0
M  V30 5534 N 515.857 1.33968 -0.830081 0
M  V30 5535 C 517.273 1.51003 -0.516742 0
M  V30 5536 C 517.473 1.77286 0.957694 0
M  V30 5537 O 516.529 1.82797 1.74188 0
M  V30 5538 C 517.842 2.67036 -1.38247 0
M  V30 5539 C 519.39 2.80919 -1.38034 0
M  V30 5540 C 519.865 4.00004 -2.23071 0
M  V30 5541 N 521.356 4.07224 -2.20733 0
M  V30 5542 C 522.091 4.98541 -2.83275 0
M  V30 5543 N 521.587 5.95033 -3.54835 0
M  V30 5544 N 523.38 4.91469 -2.72791 0
M  V30 5545 H 515.531 1.15168 -1.78466 0
M  V30 5546 H 517.794 0.565443 -0.760906 0
M  V30 5547 H 517.5 2.54266 -2.42985 0
M  V30 5548 H 517.374 3.62226 -1.05225 0
M  V30 5549 H 519.761 2.93127 -0.340713 0
M  V30 5550 H 519.842 1.86517 -1.75057 0
M  V30 5551 H 519.486 3.88557 -3.27087 0
M  V30 5552 H 519.416 4.93634 -1.83394 0
M  V30 5553 H 521.907 3.38162 -1.68687 0
M  V30 5554 H 522.22 6.61357 -3.99784 0
M  V30 5555 H 520.565 5.95135 -3.58942 0
M  V30 5556 H 523.756 4.15048 -2.16456 0
M  V30 5557 H 523.929 5.62439 -3.21818 0
M  V30 5558 N 517.335 0.585699 1.46312 0
M  V30 5559 C 518.282 -0.145835 2.30339 0
M  V30 5560 C 519.252 -0.881215 1.40797 0
M  V30 5561 O 520.437 -0.871293 1.69744 0
M  V30 5562 C 517.577 -1.15161 3.25318 0
M  V30 5563 C 516.69 -0.419367 4.2996 0
M  V30 5564 C 515.825 -1.41293 5.12064 0
M  V30 5565 C 514.864 -0.667261 6.08452 0
M  V30 5566 N 514.001 -1.60903 6.83414 0
M  V30 5567 H 518.841 0.576755 2.92365 0
M  V30 5568 H 516.378 0.296237 1.44086 0
M  V30 5569 H 518.336 -1.74763 3.78832 0
M  V30 5570 H 516.966 -1.84188 2.65094 0
M  V30 5571 H 516.018 0.291751 3.7928 0
M  V30 5572 H 517.33 0.163433 4.98532 0
M  V30 5573 H 516.484 -2.08167 5.6987 0
M  V30 5574 H 515.223 -2.02966 4.43459 0
M  V30 5575 H 514.228 0.0152356 5.49798 0
M  V30 5576 H 515.453 -0.0558817 6.79077 0
M  V30 5577 H 513.399 -2.21381 6.17516 0
M  V30 5578 H 513.316 -1.07911 7.48259 0
M  V30 5579 H 514.584 -2.26802 7.45775 0
M  V30 5580 N 518.813 -1.54241 0.323641 0
M  V30 5581 C 520.062 -1.9975 -0.279806 0
M  V30 5582 C 520.375 -1.2156 -1.5324 0
M  V30 5583 O 521.581 -1.57447 -2.21185 0
M  V30 5584 C 520.037 -3.55686 -0.549115 0
M  V30 5585 C 519.645 -4.4271 0.686432 0
M  V30 5586 C 521.389 -4.09663 -1.11251 0
M  V30 5587 C 519.296 -5.90119 0.389022 0
M  V30 5588 H 518.226 -0.746177 -0.10833 0
M  V30 5589 H 520.877 -1.78248 0.435877 0
M  V30 5590 H 519.259 -3.73176 -1.32499 0
M  V30 5591 H 520.433 -4.36996 1.46188 0
M  V30 5592 H 518.748 -3.99623 1.17005 0
M  V30 5593 H 521.345 -5.17386 -1.34965 0
M  V30 5594 H 521.688 -3.61651 -2.06191 0
M  V30 5595 H 522.221 -3.95806 -0.39782 0
M  V30 5596 H 518.96 -6.42326 1.30759 0
M  V30 5597 H 518.48 -5.98785 -0.348722 0
M  V30 5598 H 520.159 -6.47 -0.0011164 0
M  V30 5599 N 520.291 -0.0518155 -1.57515 0
M  V30 5600 C 521.201 0.937539 -2.15052 0
M  V30 5601 C 522.217 1.34121 -1.10849 0
M  V30 5602 O 523.393 1.418 -1.4302 0
M  V30 5603 C 520.458 2.19379 -2.68466 0
M  V30 5604 C 519.519 1.84841 -3.87469 0
M  V30 5605 C 518.752 3.04477 -4.38326 0
M  V30 5606 O 518.975 4.17868 -3.88256 0
M  V30 5607 O 517.909 2.85453 -5.29906 0
M  V30 5608 H 521.735 0.478201 -2.99912 0
M  V30 5609 H 519.32 0.17012 -1.48428 0
M  V30 5610 H 521.202 2.93084 -3.02787 0
M  V30 5611 H 519.877 2.64449 -1.86677 0
M  V30 5612 H 518.784 1.08449 -3.58036 0
M  V30 5613 H 520.117 1.44569 -4.7049 0
M  V30 5614 N 521.769 1.56035 0.221574 0
M  V30 5615 C 523.016 1.79047 0.94597 0
M  V30 5616 C 523.344 0.62057 1.84334 0
M  V30 5617 O 522.599 -0.395053 1.91671 0
M  V30 5618 C 522.898 3.07813 1.8162 0
M  V30 5619 C 522.564 4.3797 1.07206 0
M  V30 5620 C 521.226 4.73334 0.866508 0
M  V30 5621 C 523.578 5.18326 0.546565 0
M  V30 5622 C 520.906 5.8657 0.123549 0
M  V30 5623 C 523.258 6.32335 -0.18305 0
M  V30 5624 C 521.922 6.66301 -0.399861 0
M  V30 5625 H 521.192 0.655178 0.346155 0
M  V30 5626 H 523.839 1.90299 0.214146 0
M  V30 5627 H 522.144 2.91682 2.61589 0
M  V30 5628 H 523.841 3.2282 2.37884 0
M  V30 5629 H 520.431 4.10202 1.24226 0
M  V30 5630 H 524.615 4.9144 0.692847 0
M  V30 5631 H 519.871 6.11376 -0.0546591 0
M  V30 5632 H 524.045 6.9383 -0.59775 0
M  V30 5633 H 521.672 7.53889 -0.977489 0
M  V30 5634 N 523.247 -0.488276 1.49845 0
M  V30 5635 C 524.658 -1.06955 1.53028 0
M  V30 5636 C 525.009 -1.9351 0.323797 0
M  V30 5637 O 524.134 -2.08891 -0.565116 0
M  V30 5638 C 524.729 -1.94643 2.77307 0
M  V30 5639 C 523.288 -2.4791 2.83227 0
M  V30 5640 C 522.435 -1.25833 2.47106 0
M  V30 5641 H 525.386 -0.271626 1.56358 0
M  V30 5642 H 525.407 -2.79496 2.5819 0
M  V30 5643 H 524.919 -1.31621 3.65099 0
M  V30 5644 H 523.02 -3.14535 1.99745 0
M  V30 5645 H 523.133 -2.84193 3.85709 0
M  V30 5646 H 521.497 -1.58764 1.99163 0
M  V30 5647 H 522.28 -0.644993 3.37186 0
M  V30 5648 N 524.725 -1.39134 -0.740242 0
M  V30 5649 C 525.658 -1.3182 -1.86276 0
M  V30 5650 C 526.636 -0.192794 -1.61453 0
M  V30 5651 O 527.82 -0.372365 -1.84786 0
M  V30 5652 C 524.947 -1.04564 -3.22155 0
M  V30 5653 C 523.993 -2.19224 -3.65846 0
M  V30 5654 S 524.826 -3.81466 -3.75824 0
M  V30 5655 C 525.982 -3.56425 -5.14502 0
M  V30 5656 H 526.215 -2.26822 -1.92195 0
M  V30 5657 H 523.748 -1.25127 -0.904576 0
M  V30 5658 H 525.706 -0.895228 -4.00619 0
M  V30 5659 H 524.367 -0.112578 -3.13898 0
M  V30 5660 H 523.56 -1.95732 -4.6444 0
M  V30 5661 H 523.162 -2.30441 -2.94572 0
M  V30 5662 H 525.454 -3.13366 -6.00673 0
M  V30 5663 H 526.397 -4.54462 -5.43019 0
M  V30 5664 H 526.805 -2.90641 -4.8393 0
M  V30 5665 N 526.204 0.969867 -1.24223 0
M  V30 5666 C 527.615 1.52717 -1.07399 0
M  V30 5667 C 527.966 1.92956 0.355298 0
M  V30 5668 O 527.091 1.77112 1.2434 0
M  V30 5669 C 527.686 2.77521 -1.94339 0
M  V30 5670 C 526.245 3.29615 -1.81744 0
M  V30 5671 C 525.392 2.02537 -1.89405 0
M  V30 5672 H 528.343 0.788399 -1.37732 0
M  V30 5673 H 528.364 3.50773 -1.47439 0
M  V30 5674 H 527.876 2.48203 -2.98357 0
M  V30 5675 H 525.977 3.63789 -0.805505 0
M  V30 5676 H 526.09 3.98661 -2.65718 0
M  V30 5677 H 524.454 2.17151 -1.33108 0
M  V30 5678 H 525.237 1.75587 -2.94999 0
M  V30 5679 N 527.682 1.05563 1.17022 0
M  V30 5680 C 528.63 0.653887 2.2322 0
M  V30 5681 C 529.624 -0.326642 1.66221 0
M  V30 5682 O 530.83 -0.192301 1.7897 0
M  V30 5683 H 527.205 0.193297 0.726733 0
M  V30 5684 H 529.176 1.5596 2.54399 0
M  V30 5685 C 527.925 0.0485434 3.47666 0
M  V30 5686 H 527.248 0.79413 3.91834 0
M  V30 5687 H 528.688 -0.195133 4.23551 0
M  V30 5688 C 527.147 -1.20583 3.14581 0
M  V30 5689 O 527.677 -2.29475 3.29703 0
M  V30 5690 N 525.883 -1.10493 2.68774 0
M  V30 5691 H 525.43 -0.218795 2.56669 0
M  V30 5692 H 525.388 -1.94507 2.47011 0
M  V30 5693 N 529.16 -1.33526 0.837174 0
M  V30 5694 C 530.07 -2.33023 0.271568 0
M  V30 5695 C 531.086 -1.63272 -0.601514 0
M  V30 5696 O 532.262 -1.94939 -0.506038 0
M  V30 5697 C 529.327 -3.42382 -0.545448 0
M  V30 5698 C 528.388 -4.27857 0.351709 0
M  V30 5699 C 527.621 -5.31994 -0.426409 0
M  V30 5700 O 527.844 -5.45763 -1.65828 0
M  V30 5701 O 526.778 -6.01572 0.1987 0
M  V30 5702 H 530.604 -2.83256 1.09545 0
M  V30 5703 H 528.189 -1.36837 0.599655 0
M  V30 5704 H 530.071 -4.09122 -1.00979 0
M  V30 5705 H 528.746 -2.94369 -1.34641 0
M  V30 5706 H 527.653 -3.6399 0.863853 0
M  V30 5707 H 528.986 -4.79349 1.1174 0
M  V30 5708 N 530.638 -0.59345 -1.46 0
M  V30 5709 C 531.548 0.135817 -2.34207 0
M  V30 5710 C 532.564 0.875008 -1.50398 0
M  V30 5711 O 533.74 0.835778 -1.83239 0
M  V30 5712 C 530.805 1.12977 -3.27776 0
M  V30 5713 C 529.866 0.394081 -4.27487 0
M  V30 5714 C 529.099 1.34068 -5.16586 0
M  V30 5715 O 529.322 2.5778 -5.08828 0
M  V30 5716 O 528.256 0.845426 -5.95933 0
M  V30 5717 H 532.082 -0.588691 -2.9794 0
M  V30 5718 H 529.667 -0.353784 -1.45151 0
M  V30 5719 H 531.549 1.70261 -3.85473 0
M  V30 5720 H 530.224 1.83556 -2.66625 0
M  V30 5721 H 529.131 -0.220869 -3.73447 0
M  V30 5722 H 530.464 -0.270939 -4.91454 0
M  V30 5723 N 532.116 1.54067 -0.331816 0
M  V30 5724 C 533.079 2.23275 0.517768 0
M  V30 5725 C 534.079 1.22897 1.03697 0
M  V30 5726 O 535.269 1.47419 0.928084 0
M  V30 5727 C 532.401 2.94326 1.72004 0
M  V30 5728 H 533.594 2.99773 -0.0873507 0
M  V30 5729 H 531.147 1.56079 -0.0830042 0
M  V30 5730 H 531.882 2.21986 2.36417 0
M  V30 5731 H 531.667 3.67941 1.35507 0
M  V30 5732 H 533.157 3.47031 2.32291 0
M  V30 5733 N 533.594 0.0601682 1.57485 0
M  V30 5734 C 535.01 -0.296422 1.56823 0
M  V30 5735 C 535.21 -1.70831 1.0686 0
M  V30 5736 O 534.266 -2.4174 0.729245 0
M  V30 5737 C 535.579 -0.116681 3.00474 0
M  V30 5738 C 537.127 -0.187103 3.1244 0
M  V30 5739 C 537.602 -0.035783 4.57986 0
M  V30 5740 N 539.093 -0.0917676 4.63109 0
M  V30 5741 C 539.828 0.00107251 5.734 0
M  V30 5742 N 539.324 0.146773 6.92645 0
M  V30 5743 N 541.117 -0.0551577 5.62073 0
M  V30 5744 H 533.268 0.983055 1.88281 0
M  V30 5745 H 535.531 0.382386 0.867459 0
M  V30 5746 H 535.237 0.85712 3.41096 0
M  V30 5747 H 535.111 -0.873929 3.66936 0
M  V30 5748 H 537.498 -1.15138 2.71712 0
M  V30 5749 H 537.579 0.601052 2.48638 0
M  V30 5750 H 537.223 0.925212 4.99402 0
M  V30 5751 H 537.153 -0.843196 5.19806 0
M  V30 5752 H 539.644 -0.203261 3.77353 0
M  V30 5753 H 539.957 0.210076 7.72514 0
M  V30 5754 H 538.302 0.181979 6.94762 0
M  V30 5755 H 541.493 -0.167605 4.678 0
M  V30 5756 H 541.666 0.020652 6.47997 0
M  V30 5757 N 535.072 -1.5615 -0.213296 0
M  V30 5758 C 536.035 -1.92249 -1.24792 0
M  V30 5759 C 537.035 -0.801828 -1.39382 0
M  V30 5760 O 538.225 -1.06948 -1.37506 0
M  V30 5761 C 535.357 -2.18056 -2.62039 0
M  V30 5762 H 536.55 -2.84793 -0.939845 0
M  V30 5763 H 534.103 -1.49559 -0.454062 0
M  V30 5764 H 534.838 -1.2809 -2.97932 0
M  V30 5765 H 534.623 -2.99703 -2.52825 0
M  V30 5766 H 536.113 -2.47051 -3.36683 0
M  V30 5767 N 536.55 0.480323 -1.50102 0
M  V30 5768 C 537.966 0.813295 -1.37323 0
M  V30 5769 C 538.166 1.97027 -0.422206 0
M  V30 5770 O 537.222 2.5212 0.138563 0
M  V30 5771 C 538.535 1.13404 -2.78496 0
M  V30 5772 C 540.083 1.24104 -2.87345 0
M  V30 5773 C 540.558 1.59497 -4.29331 0
M  V30 5774 N 542.049 1.66507 -4.32238 0
M  V30 5775 C 542.784 1.95378 -5.39087 0
M  V30 5776 N 542.28 2.22333 -6.56155 0
M  V30 5777 N 544.073 1.96803 -5.26522 0
M  V30 5778 H 536.224 -0.282291 -2.10516 0
M  V30 5779 H 538.487 -0.063752 -0.945854 0
M  V30 5780 H 538.193 0.357064 -3.49883 0
M  V30 5781 H 538.067 2.07251 -3.15162 0
M  V30 5782 H 540.454 2.00871 -2.16183 0
M  V30 5783 H 540.535 0.282593 -2.54234 0
M  V30 5784 H 540.179 0.832736 -5.01027 0
M  V30 5785 H 540.109 2.56477 -4.59921 0
M  V30 5786 H 542.6 1.47753 -3.47818 0
M  V30 5787 H 542.913 2.43611 -7.33399 0
M  V30 5788 H 541.258 2.19745 -6.59346 0
M  V30 5789 H 544.449 1.75235 -4.34062 0
M  V30 5790 H 544.622 2.18969 -6.09883 0
M  V30 5791 N 538.028 1.39524 0.732853 0
M  V30 5792 C 539.277 1.36175 1.48792 0
M  V30 5793 C 539.59 -0.0388195 1.95561 0
M  V30 5794 O 540.796 -0.194899 2.708 0
M  V30 5795 C 539.252 2.39242 2.68871 0
M  V30 5796 C 538.86 3.85024 2.29042 0
M  V30 5797 C 540.604 2.44972 3.46683 0
M  V30 5798 C 538.511 4.79727 3.45856 0
M  V30 5799 H 537.441 0.506267 0.558757 0
M  V30 5800 H 540.092 1.65181 0.799226 0
M  V30 5801 H 538.474 2.0331 3.39825 0
M  V30 5802 H 539.648 4.30008 1.6562 0
M  V30 5803 H 537.963 3.82609 1.64316 0
M  V30 5804 H 540.56 3.12918 4.33574 0
M  V30 5805 H 540.903 1.4749 3.89297 0
M  V30 5806 H 541.436 2.79808 2.82759 0
M  V30 5807 H 538.175 5.78479 3.08289 0
M  V30 5808 H 537.695 4.39421 4.08251 0
M  V30 5809 H 539.374 4.98731 4.12161 0
M  V30 5810 N 539.506 -0.963266 1.24736 0
M  V30 5811 C 540.439 -2.05758 0.986852 0
M  V30 5812 C 541.417 -1.62398 -0.0809272 0
M  V30 5813 O 542.601 -1.88414 0.0569347 0
M  V30 5814 C 539.728 -3.35135 0.490095 0
M  V30 5815 C 538.774 -3.97451 1.54709 0
M  V30 5816 S 539.607 -4.34519 3.12976 0
M  V30 5817 C 540.763 -5.67026 2.65014 0
M  V30 5818 H 540.996 -2.27539 1.91346 0
M  V30 5819 H 538.529 -1.10176 1.08169 0
M  V30 5820 H 540.487 -4.09962 0.21012 0
M  V30 5821 H 539.148 -3.11335 -0.415873 0
M  V30 5822 H 538.341 -4.90704 1.15003 0
M  V30 5823 H 537.943 -3.29071 1.77731 0
M  V30 5824 H 540.235 -6.44748 2.08102 0
M  V30 5825 H 541.178 -6.11594 3.56873 0
M  V30 5826 H 541.586 -5.25847 2.05294 0
M  V30 5827 N 540.985 -1.06182 -1.16461 0
M  V30 5828 C 541.917 -0.629584 -2.20383 0
M  V30 5829 C 542.93 0.311834 -1.59786 0
M  V30 5830 O 544.119 0.103 -1.78203 0
M  V30 5831 C 541.219 0.0973695 -3.3876 0
M  V30 5832 C 540.392 -0.857252 -4.28917 0
M  V30 5833 C 539.451 -0.169749 -5.25926 0
M  V30 5834 O 538.477 -0.807044 -5.6345 0
M  V30 5835 N 539.679 1.08911 -5.70192 0
M  V30 5836 H 542.444 -1.52352 -2.58087 0
M  V30 5837 H 540.005 -0.944993 -1.31459 0
M  V30 5838 H 541.997 0.567676 -4.00699 0
M  V30 5839 H 540.567 0.893093 -2.99571 0
M  V30 5840 H 539.787 -1.50696 -3.64259 0
M  V30 5841 H 541.075 -1.50489 -4.86035 0
M  V30 5842 H 540.473 1.62703 -5.41797 0
M  V30 5843 H 539.03 1.50331 -6.34227 0
M  V30 5844 N 542.463 1.3308 -0.844243 0
M  V30 5845 C 543.712 1.96868 -0.438833 0
M  V30 5846 C 544.025 1.67599 1.00846 0
M  V30 5847 O 545.231 2.25043 1.51881 0
M  V30 5848 C 543.687 3.5234 -0.73377 0
M  V30 5849 C 543.295 3.90481 -2.1961 0
M  V30 5850 C 545.039 4.22653 -0.395574 0
M  V30 5851 C 542.946 5.38954 -2.43481 0
M  V30 5852 H 541.876 0.736749 -0.160364 0
M  V30 5853 H 544.527 1.51623 -1.03358 0
M  V30 5854 H 542.909 3.95941 -0.068589 0
M  V30 5855 H 544.083 3.57922 -2.90221 0
M  V30 5856 H 542.398 3.33165 -2.4978 0
M  V30 5857 H 544.995 5.31848 -0.551477 0
M  V30 5858 H 545.338 4.11004 0.661921 0
M  V30 5859 H 545.871 3.84601 -1.01621 0
M  V30 5860 H 542.61 5.55612 -3.47816 0
M  V30 5861 H 542.13 5.72954 -1.77437 0
M  V30 5862 H 543.809 6.05907 -2.26905 0
M  V30 5863 N 543.941 0.601185 1.45683 0
M  V30 5864 C 544.891 -0.142686 2.27553 0
M  V30 5865 C 545.875 -0.844598 1.3695 0
M  V30 5866 O 547.067 -0.735644 1.60988 0
M  V30 5867 C 544.196 -1.14364 3.23691 0
M  V30 5868 C 543.282 -0.442894 4.21781 0
M  V30 5869 N 543.673 0.51189 5.03203 0
M  V30 5870 C 541.971 -0.691277 4.4061 0
M  V30 5871 C 542.672 0.92318 5.74328 0
M  V30 5872 N 541.648 0.268308 5.42937 0
M  V30 5873 H 545.45 0.590736 2.87902 0
M  V30 5874 H 542.964 0.424365 1.56757 0
M  V30 5875 H 544.961 -1.6909 3.8107 0
M  V30 5876 H 543.621 -1.87768 2.64902 0
M  V30 5877 H 544.632 0.888329 5.10225 0
M  V30 5878 H 541.309 -1.41049 3.92952 0
M  V30 5879 H 542.699 1.71029 6.49768 0
M  V30 5880 N 545.419 -1.53889 0.339982 0
M  V30 5881 C 546.644 -2.05741 -0.261798 0
M  V30 5882 C 547.069 -1.21354 -1.43718 0
M  V30 5883 O 546.427 -0.22645 -1.7988 0
M  V30 5884 C 546.475 -3.54542 -0.658228 0
M  V30 5885 O 545.579 -3.7302 -1.75869 0
M  V30 5886 H 544.92 -0.662529 -0.0441672 0
M  V30 5887 H 547.45 -1.98568 0.493161 0
M  V30 5888 H 547.46 -3.9711 -0.936368 0
M  V30 5889 H 546.135 -4.15412 0.201358 0
M  V30 5890 H 544.712 -3.42355 -1.47809 0
M  V30 5891 N 546.897 -0.0685191 -1.57451 0
M  V30 5892 C 548.313 0.288101 -1.56978 0
M  V30 5893 C 548.513 1.70262 -1.07765 0
M  V30 5894 O 547.569 2.4135 -0.742054 0
M  V30 5895 C 548.882 0.100745 -3.00531 0
M  V30 5896 C 550.43 0.170531 -3.12535 0
M  V30 5897 C 550.905 0.0114944 -4.57999 0
M  V30 5898 N 552.396 0.0672065 -4.63151 0
M  V30 5899 C 553.131 -0.0314813 -5.73391 0
M  V30 5900 N 552.627 -0.183503 -6.92557 0
M  V30 5901 N 554.42 0.0253489 -5.62094 0
M  V30 5902 H 546.571 -0.993026 -1.87757 0
M  V30 5903 H 548.834 -0.386981 -0.865419 0
M  V30 5904 H 548.54 -0.875197 -3.40636 0
M  V30 5905 H 548.414 0.854457 -3.67395 0
M  V30 5906 H 550.801 1.13696 -2.72318 0
M  V30 5907 H 550.882 -0.614229 -2.48316 0
M  V30 5908 H 550.526 -0.951684 -4.98904 0
M  V30 5909 H 550.456 0.815617 -5.20245 0
M  V30 5910 H 552.947 0.183246 -3.77455 0
M  V30 5911 H 553.26 -0.251041 -7.72392 0
M  V30 5912 H 551.605 -0.218822 -6.94655 0
M  V30 5913 H 554.796 0.142794 -4.67882 0
M  V30 5914 H 554.969 -0.0550166 -6.47977 0
M  V30 5915 N 548.375 1.56261 0.205012 0
M  V30 5916 C 549.322 1.93754 1.25411 0
M  V30 5917 C 550.292 0.796826 1.45739 0
M  V30 5918 O 551.477 1.05414 1.59036 0
M  V30 5919 C 548.617 2.27383 2.59598 0
M  V30 5920 C 547.73 3.5447 2.46931 0
M  V30 5921 C 546.865 3.77468 3.73753 0
M  V30 5922 C 545.904 4.98014 3.55877 0
M  V30 5923 N 545.041 5.17316 4.74688 0
M  V30 5924 H 549.881 2.83203 0.92737 0
M  V30 5925 H 547.418 1.40158 0.446574 0
M  V30 5926 H 549.376 2.44895 3.37761 0
M  V30 5927 H 548.006 1.41088 2.90335 0
M  V30 5928 H 547.058 3.45061 1.60116 0
M  V30 5929 H 548.37 4.42789 2.29651 0
M  V30 5930 H 547.524 3.95165 4.60358 0
M  V30 5931 H 546.263 2.87461 3.93976 0
M  V30 5932 H 545.268 4.80249 2.67657 0
M  V30 5933 H 546.493 5.8952 3.37109 0
M  V30 5934 H 544.439 4.30255 4.95194 0
M  V30 5935 H 544.356 5.99796 4.60197 0
M  V30 5936 H 545.624 5.39463 5.62672 0
M  V30 5937 N 549.853 -0.472356 1.50355 0
M  V30 5938 C 550.786 -1.58923 1.63764 0
M  V30 5939 C 551.764 -1.55173 0.485793 0
M  V30 5940 O 552.948 -1.74815 0.705132 0
M  V30 5941 C 550.075 -2.97497 1.61905 0
M  V30 5942 C 549.121 -3.19405 2.82635 0
M  V30 5943 S 549.954 -2.99441 4.43954 0
M  V30 5944 C 551.11 -4.40359 4.44786 0
M  V30 5945 H 551.343 -1.47309 2.58239 0
M  V30 5946 H 548.876 -0.659601 1.39602 0
M  V30 5947 H 550.834 -3.77389 1.61518 0
M  V30 5948 H 549.495 -3.06502 0.686683 0
M  V30 5949 H 548.688 -4.20636 2.77636 0
M  V30 5950 H 548.29 -2.47283 2.80583 0
M  V30 5951 H 550.582 -5.32969 4.1827 0
M  V30 5952 H 551.525 -4.50403 5.46391 0
M  V30 5953 H 551.933 -4.22378 3.74509 0
M  V30 5954 N 551.331 -1.39911 -0.725443 0
M  V30 5955 C 552.279 -1.39552 -1.86086 0
M  V30 5956 C 553.273 -0.277334 -1.67114 0
M  V30 5957 O 554.479 -0.447865 -1.74339 0
M  V30 5958 H 550.854 -0.435993 -0.612711 0
M  V30 5959 H 552.825 -2.35305 -1.83505 0
M  V30 5960 C 551.574 -1.26529 -3.2386 0
M  V30 5961 H 550.897 -2.11845 -3.3906 0
M  V30 5962 H 552.337 -1.30336 -4.03471 0
M  V30 5963 C 550.796 0.0254168 -3.3689 0
M  V30 5964 O 551.326 0.992048 -3.89257 0
M  V30 5965 N 549.532 0.0916528 -2.90455 0
M  V30 5966 H 549.079 -0.695675 -2.48028 0
M  V30 5967 H 549.037 0.954745 -2.99553 0
M  V30 5968 N 552.809 0.956637 -1.25245 0
M  V30 5969 C 554.055 1.70352 -1.10036 0
M  V30 5970 C 554.388 1.90869 0.358156 0
M  V30 5971 O 553.663 1.47819 1.26411 0
M  V30 5972 C 553.946 3.08766 -1.85298 0
M  V30 5973 C 553.799 2.95672 -3.38966 0
M  V30 5974 C 555.118 4.08622 -1.63451 0
M  V30 5975 H 552.237 0.618279 -0.401123 0
M  V30 5976 H 554.879 1.11212 -1.54051 0
M  V30 5977 H 553.029 3.59252 -1.47887 0
M  V30 5978 H 554.701 2.52527 -3.86041 0
M  V30 5979 H 552.944 2.31634 -3.6678 0
M  V30 5980 H 553.615 3.93776 -3.86839 0
M  V30 5981 H 556.091 3.67038 -1.96015 0
M  V30 5982 H 554.967 5.03514 -2.18551 0
M  V30 5983 H 555.228 4.3834 -0.575357 0
M  V30 5984 N 554.287 1.06798 1.15896 0
M  V30 5985 C 555.512 0.808739 1.90982 0
M  V30 5986 C 555.937 -0.6316 1.77179 0
M  V30 5987 O 555.295 -1.4407 1.10061 0
M  V30 5988 C 555.343 1.21468 3.39526 0
M  V30 5989 O 554.447 0.356562 4.10856 0
M  V30 5990 H 553.788 0.29512 0.594811 0
M  V30 5991 H 556.318 1.42513 1.46804 0
M  V30 5992 H 556.328 1.18844 3.90308 0
M  V30 5993 H 555.003 2.26379 3.48891 0
M  V30 5994 H 553.58 0.444808 3.70238 0
M  V30 5995 N 555.766 -1.3263 0.851289 0
M  V30 5996 C 557.177 -1.79653 0.5081 0
M  V30 5997 C 557.528 -1.70327 -0.973815 0
M  V30 5998 O 556.653 -1.25986 -1.75944 0
M  V30 5999 C 557.248 -3.26196 0.915515 0
M  V30 6000 C 555.807 -3.71187 0.624277 0
M  V30 6001 C 554.954 -2.53804 1.11709 0
M  V30 6002 H 557.905 -1.19976 1.03882 0
M  V30 6003 H 557.926 -3.79801 0.230535 0
M  V30 6004 H 557.438 -3.32952 1.99411 0
M  V30 6005 H 555.539 -3.69948 -0.443737 0
M  V30 6006 H 555.652 -4.64132 1.18821 0
M  V30 6007 H 554.016 -2.48964 0.537484 0
M  V30 6008 H 554.799 -2.63315 2.20272 0
M  V30 6009 N 557.244 -0.608902 -1.45362 0
M  V30 6010 C 558.521 -0.0365378 -1.95566 0
M  V30 6011 C 558.901 1.43169 -1.55131 0
M  V30 6012 O 558.249 2.1349 -0.814513 0
M  V30 6013 C 558.459 -0.236026 -3.48201 0
M  V30 6014 C 559.807 -0.117518 -4.24437 0
M  V30 6015 O 560.831 -0.166217 -3.55812 0
M  V30 6016 O 559.69 -0.00372127 -5.465 0
M  V30 6017 H 556.784 0.0349874 -0.82626 0
M  V30 6018 H 559.33 -0.679055 -1.55521 0
M  V30 6019 H 558.102 -1.25569 -3.70605 0
M  V30 6020 H 557.725 0.441691 -3.95139 0
M  V30 6021 N 558.722 1.53707 -0.348139 0
M  V30 6022 C 559.968 2.01286 0.247332 0
M  V30 6023 C 560.301 1.23546 1.49834 0
M  V30 6024 O 559.576 0.324331 1.91777 0
M  V30 6025 C 559.859 3.55768 0.556858 0
M  V30 6026 C 559.712 4.44216 -0.706564 0
M  V30 6027 C 561.031 4.1841 1.3646 0
M  V30 6028 H 558.15 0.731677 0.0884201 0
M  V30 6029 H 560.792 1.84106 -0.469584 0
M  V30 6030 H 558.942 3.70539 1.16761 0
M  V30 6031 H 560.614 4.41274 -1.34444 0
M  V30 6032 H 558.857 4.12892 -1.33052 0
M  V30 6033 H 559.528 5.50202 -0.445186 0
M  V30 6034 H 562.004 4.07365 0.848113 0
M  V30 6035 H 560.88 5.26563 1.54992 0
M  V30 6036 H 561.141 3.7333 2.36805 0
M  V30 6037 N 560.2 0.0768682 1.57412 0
M  V30 6038 C 561.148 -0.906229 2.1422 0
M  V30 6039 C 562.142 -1.30477 1.08037 0
M  V30 6040 O 563.348 -1.28143 1.2641 0
M  V30 6041 H 559.723 -0.310207 0.685037 0
M  V30 6042 H 561.694 -0.402228 2.95677 0
M  V30 6043 C 560.443 -2.16245 2.72274 0
M  V30 6044 H 559.766 -1.86463 3.53655 0
M  V30 6045 H 561.206 -2.83134 3.15613 0
M  V30 6046 C 559.665 -2.92437 1.67279 0
M  V30 6047 O 560.195 -3.86322 1.10081 0
M  V30 6048 N 558.401 -2.55637 1.38195 0
M  V30 6049 H 557.948 -1.79363 1.84897 0
M  V30 6050 H 557.906 -3.06919 0.681787 0
M  V30 6051 N 561.678 -1.56367 -0.196722 0
M  V30 6052 C 562.908 -1.84371 -0.932254 0
M  V30 6053 C 563.316 -0.657013 -1.77426 0
M  V30 6054 O 562.659 0.383576 -1.79651 0
M  V30 6055 C 562.721 -3.06454 -1.87952 0
M  V30 6056 C 562.385 -4.40425 -1.21962 0
M  V30 6057 C 563.382 -5.16457 -0.597343 0
M  V30 6058 C 561.067 -4.8716 -1.22396 0
M  V30 6059 C 563.061 -6.37399 0.0117913 0
M  V30 6060 C 560.748 -6.08038 -0.610995 0
M  V30 6061 C 561.746 -6.83 0.00580487 0
M  V30 6062 O 561.434 -8.01589 0.609173 0
M  V30 6063 H 561.166 -0.616377 -0.277589 0
M  V30 6064 H 563.72 -2.04329 -0.209452 0
M  V30 6065 H 561.95 -2.82377 -2.64197 0
M  V30 6066 H 563.639 -3.21118 -2.48271 0
M  V30 6067 H 564.405 -4.81445 -0.586142 0
M  V30 6068 H 560.284 -4.2877 -1.69345 0
M  V30 6069 H 563.828 -6.9585 0.493836 0
M  V30 6070 H 559.725 -6.42519 -0.619693 0
M  V30 6071 H 560.493 -8.16935 0.505919 0
M  V30 6072 N 563.156 0.464375 -1.50603 0
M  V30 6073 C 564.066 1.58723 -1.72754 0
M  V30 6074 C 565.082 1.62925 -0.610844 0
M  V30 6075 O 566.258 1.8067 -0.889963 0
M  V30 6076 C 563.323 2.94897 -1.82309 0
M  V30 6077 C 562.384 3.0103 -3.06071 0
M  V30 6078 C 561.617 4.30708 -3.1516 0
M  V30 6079 O 561.84 5.2159 -2.30868 0
M  V30 6080 O 560.774 4.42571 -4.0794 0
M  V30 6081 H 564.6 1.42954 -2.67951 0
M  V30 6082 H 562.185 0.644579 -1.3478 0
M  V30 6083 H 564.067 3.75764 -1.90735 0
M  V30 6084 H 562.742 3.10851 -0.902967 0
M  V30 6085 H 561.649 2.19217 -3.03142 0
M  V30 6086 H 562.982 2.90014 -3.97684 0
M  V30 6087 N 564.634 1.40294 0.718013 0
M  V30 6088 C 565.544 1.42678 1.86226 0
M  V30 6089 C 566.56 0.319655 1.71039 0
M  V30 6090 O 567.736 0.563852 1.93346 0
M  V30 6091 C 564.801 1.2852 3.21999 0
M  V30 6092 C 563.862 2.49354 3.49458 0
M  V30 6093 C 563.095 2.35863 4.78753 0
M  V30 6094 O 563.318 1.37114 5.53675 0
M  V30 6095 O 562.252 3.25189 5.06494 0
M  V30 6096 H 566.078 2.39167 1.87171 0
M  V30 6097 H 563.663 1.2159 0.868112 0
M  V30 6098 H 565.545 1.22824 4.03103 0
M  V30 6099 H 564.22 0.351359 3.21787 0
M  V30 6100 H 563.127 2.60628 2.68373 0
M  V30 6101 H 564.46 3.41491 3.54464 0
M  V30 6102 N 566.112 -0.949982 1.2575 0
M  V30 6103 C 567.042 -2.06483 1.09028 0
M  V30 6104 C 568.023 -1.701 -0.00201532 0
M  V30 6105 O 569.208 -1.93469 0.168383 0
M  V30 6106 C 566.338 -3.39899 0.71316 0
M  V30 6107 C 565.292 -3.90309 1.75621 0
M  V30 6108 C 564.618 -5.20274 1.23365 0
M  V30 6109 C 565.918 -4.16169 3.15596 0
M  V30 6110 H 567.612 -2.20731 2.02283 0
M  V30 6111 H 565.158 -1.06066 0.973964 0
M  V30 6112 H 567.111 -4.17346 0.58309 0
M  V30 6113 H 565.835 -3.25602 -0.255091 0
M  V30 6114 H 564.494 -3.15035 1.8748 0
M  V30 6115 H 564.142 -5.02351 0.255491 0
M  V30 6116 H 563.842 -5.54971 1.93082 0
M  V30 6117 H 565.366 -6.00314 1.11607 0
M  V30 6118 H 566.78 -4.84259 3.06864 0
M  V30 6119 H 565.177 -4.62131 3.82825 0
M  V30 6120 H 566.247 -3.22273 3.6231 0
M  V30 6121 N 567.59 -1.07411 -1.15328 0
M  V30 6122 C 568.553 -0.698914 -2.18284 0
M  V30 6123 C 569.553 0.261149 -1.58665 0
M  V30 6124 O 570.743 0.0420277 -1.74149 0
M  V30 6125 C 567.875 -0.0302427 -3.40887 0
M  V30 6126 H 569.068 -1.61045 -2.52991 0
M  V30 6127 H 566.621 -0.870724 -1.298 0
M  V30 6128 H 567.356 0.893505 -3.11748 0
M  V30 6129 H 567.141 -0.720759 -3.85419 0
M  V30 6130 H 568.631 0.21759 -4.17033 0
M  V30 6131 N 569.068 1.32177 -0.85831 0
M  V30 6132 C 570.484 1.49873 -0.548656 0
M  V30 6133 C 570.684 1.79278 0.919874 0
M  V30 6134 O 569.74 1.86451 1.70271 0
M  V30 6135 C 571.053 2.64043 -1.4388 0
M  V30 6136 C 572.601 2.77928 -1.43961 0
M  V30 6137 C 573.076 3.95182 -2.31506 0
M  V30 6138 N 574.567 4.0245 -2.29321 0
M  V30 6139 C 575.302 4.9242 -2.93786 0
M  V30 6140 N 574.798 5.87373 -3.67376 0
M  V30 6141 N 576.591 4.85572 -2.83155 0
M  V30 6142 H 568.742 1.11357 -1.80868 0
M  V30 6143 H 571.005 0.549175 -0.772729 0
M  V30 6144 H 570.711 2.49055 -2.48324 0
M  V30 6145 H 570.585 3.59912 -1.12885 0
M  V30 6146 H 572.972 2.92338 -0.402813 0
M  V30 6147 H 573.053 1.82762 -1.78974 0
M  V30 6148 H 572.697 3.81531 -3.35256 0
M  V30 6149 H 572.627 4.89633 -1.93823 0
M  V30 6150 H 575.118 3.34507 -1.75822 0
M  V30 6151 H 575.431 6.52728 -4.13722 0
M  V30 6152 H 573.776 5.87388 -3.71484 0
M  V30 6153 H 576.967 4.10363 -2.25211 0
M  V30 6154 H 577.14 5.55486 -3.33676 0
M  V30 6155 N 570.547 0.616602 1.45037 0
M  V30 6156 C 571.787 0.118453 2.04056 0
M  V30 6157 C 572.151 -1.23104 1.47341 0
M  V30 6158 O 573.352 -1.82044 1.97771 0
M  V30 6159 C 571.623 0.0892842 3.57288 0
M  V30 6160 S 573.182 -0.346361 4.37431 0
M  V30 6161 H 570 0.0539728 0.708948 0
M  V30 6162 H 572.602 0.816731 1.77623 0
M  V30 6163 H 571.306 1.07481 3.96076 0
M  V30 6164 H 570.837 -0.630703 3.88311 0
M  V30 6165 H 572.852 -1.59389 4.69904 0
M  V30 6166 N 572.025 -1.5352 0.356285 0
M  V30 6167 C 573.253 -2.05534 -0.237328 0
M  V30 6168 C 573.668 -1.23043 -1.43199 0
M  V30 6169 O 573.025 -0.268821 -1.80509 0
M  V30 6170 C 573.076 -3.55791 -0.639933 0
M  V30 6171 O 572.797 -4.35154 0.507233 0
M  V30 6172 C 574.298 -4.24027 -1.29292 0
M  V30 6173 H 571.518 -0.669585 -0.0435572 0
M  V30 6174 H 574.062 -1.97988 0.511963 0
M  V30 6175 H 572.217 -3.63518 -1.33915 0
M  V30 6176 H 572.631 -5.24178 0.18375 0
M  V30 6177 H 574.105 -5.30509 -1.52527 0
M  V30 6178 H 574.582 -3.77166 -2.25039 0
M  V30 6179 H 575.188 -4.20527 -0.63539 0
M  V30 6180 N 573.503 -0.0852151 -1.57369 0
M  V30 6181 C 574.78 0.622534 -1.85429 0
M  V30 6182 C 575.16 1.86962 -0.980229 0
M  V30 6183 O 574.508 2.28445 -0.0500219 0
M  V30 6184 C 574.718 0.947374 -3.35896 0
M  V30 6185 C 576.066 1.31509 -4.03721 0
M  V30 6186 O 577.09 1.03869 -3.40719 0
M  V30 6187 O 575.949 1.83231 -5.14868 0
M  V30 6188 H 573.043 0.310513 -0.766492 0
M  V30 6189 H 575.589 -0.117164 -1.69295 0
M  V30 6190 H 574.361 0.0622264 -3.91251 0
M  V30 6191 H 573.984 1.74338 -3.5734 0
M  V30 6192 N 574.981 1.5647 0.188427 0
M  V30 6193 C 576.258 1.71857 0.934058 0
M  V30 6194 C 576.638 0.641867 2.01105 0
M  V30 6195 O 575.986 -0.346098 2.25864 0
M  V30 6196 C 576.196 3.14431 1.5144 0
M  V30 6197 C 577.544 3.74869 1.99396 0
M  V30 6198 O 578.568 3.17601 1.61269 0
M  V30 6199 O 577.427 4.75387 2.69573 0
M  V30 6200 H 574.521 0.701186 0.438483 0
M  V30 6201 H 577.067 1.68768 0.177599 0
M  V30 6202 H 575.839 3.8427 0.738416 0
M  V30 6203 H 575.462 3.21775 2.33552 0
M  V30 6204 N 576.459 -0.456382 1.50847 0
M  V30 6205 C 577.706 -1.20736 1.62571 0
M  V30 6206 C 578.034 -1.9163 0.332904 0
M  V30 6207 O 577.289 -1.8343 -0.682058 0
M  V30 6208 C 577.588 -2.26336 2.76599 0
M  V30 6209 C 577.254 -1.7259 4.16562 0
M  V30 6210 C 575.916 -1.57654 4.54641 0
M  V30 6211 C 578.268 -1.32877 5.03977 0
M  V30 6212 C 575.596 -1.0145 5.77862 0
M  V30 6213 C 577.948 -0.7811 6.27759 0
M  V30 6214 C 576.612 -0.618488 6.64628 0
M  V30 6215 H 575.882 -0.441803 0.594888 0
M  V30 6216 H 578.529 -0.501169 1.84826 0
M  V30 6217 H 576.834 -3.0292 2.48489 0
M  V30 6218 H 578.531 -2.84227 2.82871 0
M  V30 6219 H 575.121 -1.85187 3.86528 0
M  V30 6220 H 579.305 -1.43245 4.75179 0
M  V30 6221 H 574.561 -0.876109 6.0509 0
M  V30 6222 H 578.735 -0.464783 6.94847 0
M  V30 6223 H 576.362 -0.180838 7.59985 0
M  V30 6224 N 577.937 -1.40673 -0.710563 0
M  V30 6225 C 578.885 -1.41517 -1.84596 0
M  V30 6226 C 579.879 -0.295043 -1.66811 0
M  V30 6227 O 581.085 -0.466331 -1.73854 0
M  V30 6228 H 577.46 -0.442467 -0.608052 0
M  V30 6229 H 579.431 -2.37238 -1.80999 0
M  V30 6230 C 578.18 -1.29957 -3.225 0
M  V30 6231 H 577.503 -2.15429 -3.36794 0
M  V30 6232 H 578.943 -1.34608 -4.02066 0
M  V30 6233 C 577.402 -0.0103164 -3.36898 0
M  V30 6234 O 577.932 0.950707 -3.90288 0
M  V30 6235 N 576.138 0.0608409 -2.90536 0
M  V30 6236 H 575.685 -0.721943 -2.47277 0
M  V30 6237 H 575.643 0.92292 -3.00549 0
M  V30 6238 N 579.415 0.9433 -1.26252 0
M  V30 6239 C 580.663 1.68592 -1.11451 0
M  V30 6240 C 580.984 1.91957 0.343123 0
M  V30 6241 O 580.254 1.51475 1.24226 0
M  V30 6242 H 578.834 0.624789 -0.409448 0
M  V30 6243 H 581.496 1.13351 -1.58548 0
M  V30 6244 H 580.592 2.66054 -1.63162 0
M  V30 6245 N 580.893 1.08022 1.14757 0
M  V30 6246 C 581.856 0.71048 2.1791 0
M  V30 6247 C 582.856 -0.252731 1.58801 0
M  V30 6248 O 584.046 -0.0327915 1.74169 0
M  V30 6249 C 581.178 0.0483203 3.40866 0
M  V30 6250 H 582.371 1.62384 2.52134 0
M  V30 6251 H 579.924 0.877595 1.29337 0
M  V30 6252 H 580.659 -0.876959 3.12218 0
M  V30 6253 H 580.444 0.741189 3.85031 0
M  V30 6254 H 581.934 -0.195471 4.17142 0
M  V30 6255 N 582.371 -1.3172 0.865308 0
M  V30 6256 C 583.303 -2.27545 0.274906 0
M  V30 6257 C 584.316 -1.52887 -0.559413 0
M  V30 6258 O 585.505 -1.74361 -0.382166 0
M  V30 6259 C 582.605 -3.33006 -0.629286 0
M  V30 6260 C 581.778 -4.37063 0.171553 0
M  V30 6261 C 580.837 -5.22044 -0.660052 0
M  V30 6262 O 579.863 -5.69129 -0.0897527 0
M  V30 6263 N 581.065 -5.45946 -1.97289 0
M  V30 6264 H 583.83 -2.78848 1.09836 0
M  V30 6265 H 581.391 -1.44693 0.726331 0
M  V30 6266 H 583.383 -3.86772 -1.19121 0
M  V30 6267 H 581.953 -2.81782 -1.35342 0
M  V30 6268 H 581.173 -3.83436 0.914919 0
M  V30 6269 H 582.461 -5.03662 0.721235 0
M  V30 6270 H 581.859 -5.0944 -2.45942 0
M  V30 6271 H 580.416 -6.02665 -2.4827 0
M  V30 6272 N 583.85 -0.624285 -1.44708 0
M  V30 6273 C 585.09 -0.129273 -2.03991 0
M  V30 6274 C 585.454 1.22321 -1.47992 0
M  V30 6275 O 586.654 1.80993 -1.98734 0
M  V30 6276 C 584.926 -0.108231 -3.57236 0
M  V30 6277 S 586.485 0.323158 -4.37608 0
M  V30 6278 H 583.303 -0.0577318 -0.708652 0
M  V30 6279 H 585.904 -0.826139 -1.77187 0
M  V30 6280 H 584.609 -1.0958 -3.955 0
M  V30 6281 H 584.139 0.610101 -3.8864 0
M  V30 6282 H 586.154 1.56894 -4.70743 0
M  V30 6283 N 585.328 1.53329 -0.364422 0
M  V30 6284 C 586.275 2.25698 0.482607 0
M  V30 6285 C 587.245 1.26325 1.07848 0
M  V30 6286 O 588.43 1.55104 1.11119 0
M  V30 6287 C 585.57 3.04873 1.61699 0
M  V30 6288 C 584.683 4.19135 1.0464 0
M  V30 6289 C 583.818 4.85754 2.14979 0
M  V30 6290 C 582.857 5.9205 1.5538 0
M  V30 6291 N 581.994 6.52365 2.59547 0
M  V30 6292 H 586.834 2.97666 -0.141032 0
M  V30 6293 H 584.371 1.46875 -0.0813692 0
M  V30 6294 H 586.329 3.49051 2.28516 0
M  V30 6295 H 584.959 2.35162 2.2113 0
M  V30 6296 H 584.011 3.79451 0.268553 0
M  V30 6297 H 585.323 4.95525 0.570653 0
M  V30 6298 H 584.477 5.3311 2.89619 0
M  V30 6299 H 583.216 4.08834 2.65906 0
M  V30 6300 H 582.221 5.44058 0.792549 0
M  V30 6301 H 583.446 6.7089 1.0528 0
M  V30 6302 H 581.392 5.78298 3.09689 0
M  V30 6303 H 581.309 7.2429 2.16655 0
M  V30 6304 H 582.577 7.0437 3.33892 0
M  V30 6305 N 586.806 0.0935595 1.57322 0
M  V30 6306 C 587.769 -0.851426 2.12799 0
M  V30 6307 C 588.769 -1.21187 1.0569 0
M  V30 6308 O 589.959 -1.14156 1.31583 0
M  V30 6309 C 587.091 -2.14779 2.64731 0
M  V30 6310 H 588.284 -0.369733 2.97612 0
M  V30 6311 H 585.837 -0.155417 1.55525 0
M  V30 6312 H 586.572 -2.67437 1.83434 0
M  V30 6313 H 586.357 -1.89907 3.43042 0
M  V30 6314 H 587.847 -2.82383 3.07651 0
M  V30 6315 N 588.284 -1.56567 -0.180126 0
M  V30 6316 C 589.53 -1.81761 -0.899497 0
M  V30 6317 C 589.863 -0.670015 -1.82276 0
M  V30 6318 O 589.138 0.328575 -1.91705 0
M  V30 6319 C 589.421 -3.17296 -1.7028 0
M  V30 6320 C 589.274 -4.4257 -0.803255 0
M  V30 6321 C 590.593 -3.49678 -2.67233 0
M  V30 6322 H 587.712 -0.661192 -0.325567 0
M  V30 6323 H 590.354 -1.89272 -0.16612 0
M  V30 6324 H 588.504 -3.11023 -2.32802 0
M  V30 6325 H 590.176 -4.60902 -0.191585 0
M  V30 6326 H 588.419 -4.33658 -0.110796 0
M  V30 6327 H 589.09 -5.33935 -1.40064 0
M  V30 6328 H 591.566 -3.56347 -2.14839 0
M  V30 6329 H 590.442 -4.45605 -3.20511 0
M  V30 6330 H 590.703 -2.73932 -3.47007 0
M  V30 6331 N 589.762 0.448376 -1.51087 0
M  V30 6332 C 591.002 1.20832 -1.64861 0
M  V30 6333 C 591.366 1.88748 -0.351873 0
M  V30 6334 O 592.567 2.66307 -0.365265 0
M  V30 6335 C 590.838 2.20674 -2.81137 0
M  V30 6336 S 592.397 3.05303 -3.15176 0
M  V30 6337 H 589.215 0.40992 -0.580936 0
M  V30 6338 H 591.817 0.501624 -1.88955 0
M  V30 6339 H 590.521 1.69399 -3.73808 0
M  V30 6340 H 590.052 2.9594 -2.59198 0
M  V30 6341 H 592.067 4.22162 -2.60756 0
M  V30 6342 N 591.24 1.41047 0.703093 0
M  V30 6343 C 592.486 1.40207 1.46526 0
M  V30 6344 C 592.819 0.00847763 1.94198 0
M  V30 6345 O 592.094 -0.962437 1.69019 0
M  V30 6346 C 592.377 2.40238 2.6825 0
M  V30 6347 C 592.23 3.88674 2.26391 0
M  V30 6348 C 593.549 2.37627 3.70434 0
M  V30 6349 H 590.668 0.510594 0.531472 0
M  V30 6350 H 593.31 1.72271 0.801422 0
M  V30 6351 H 591.46 2.13026 3.24888 0
M  V30 6352 H 593.132 4.2676 1.75138 0
M  V30 6353 H 591.375 4.03903 1.58255 0
M  V30 6354 H 592.046 4.542 3.13698 0
M  V30 6355 H 594.522 2.61759 3.23452 0
M  V30 6356 H 593.398 3.09645 4.53223 0
M  V30 6357 H 593.659 1.39223 4.19606 0
M  V30 6358 N 592.718 -0.936591 1.26751 0
M  V30 6359 C 593.628 -2.06949 1.10496 0
M  V30 6360 C 594.644 -1.7396 0.037271 0
M  V30 6361 O 595.82 -1.99941 0.241944 0
M  V30 6362 C 592.885 -3.38612 0.744491 0
M  V30 6363 C 591.946 -3.85355 1.89209 0
M  V30 6364 C 591.179 -5.10735 1.54873 0
M  V30 6365 O 591.402 -5.68602 0.452546 0
M  V30 6366 O 590.336 -5.52632 2.38499 0
M  V30 6367 H 594.162 -2.23571 2.05547 0
M  V30 6368 H 591.747 -1.05428 1.05855 0
M  V30 6369 H 593.629 -4.17711 0.556396 0
M  V30 6370 H 592.304 -3.23218 -0.176582 0
M  V30 6371 H 591.211 -3.07182 2.13518 0
M  V30 6372 H 592.544 -4.05277 2.79305 0
M  V30 6373 N 594.196 -1.08629 -1.14182 0
M  V30 6374 C 595.159 -0.722027 -2.1753 0
M  V30 6375 C 596.159 0.244305 -1.58933 0
M  V30 6376 O 597.349 0.0235545 -1.74184 0
M  V30 6377 C 594.481 -0.0663966 -3.40835 0
M  V30 6378 H 595.674 -1.63719 -2.51269 0
M  V30 6379 H 593.227 -0.884442 -1.28869 0
M  V30 6380 H 593.962 0.860389 -3.12678 0
M  V30 6381 H 593.747 -0.761598 -3.84632 0
M  V30 6382 H 595.237 0.173346 -4.1724 0
M  V30 6383 N 595.674 1.31259 -0.872281 0
M  V30 6384 C 596.922 1.96233 -0.483409 0
M  V30 6385 C 597.243 1.69276 0.968012 0
M  V30 6386 O 596.513 1.00943 1.67891 0
M  V30 6387 H 595.093 0.726025 -0.175774 0
M  V30 6388 H 597.755 1.60024 -1.11258 0
M  V30 6389 H 596.851 3.05403 -0.643075 0
M  V30 6390 N 597.152 0.631951 1.44375 0
M  V30 6391 C 598.085 -0.121822 2.27875 0
M  V30 6392 C 599.063 -0.850457 1.38586 0
M  V30 6393 O 600.247 -0.854378 1.68026 0
M  V30 6394 C 597.374 -1.17859 3.17533 0
M  V30 6395 C 596.42 -0.550391 4.22934 0
M  V30 6396 S 597.253 0.660145 5.31415 0
M  V30 6397 C 598.409 -0.396613 6.24642 0
M  V30 6398 H 598.642 0.586537 2.91457 0
M  V30 6399 H 596.175 0.420146 1.48574 0
M  V30 6400 H 598.133 -1.78335 3.69739 0
M  V30 6401 H 596.794 -1.85915 2.53169 0
M  V30 6402 H 595.987 -1.34631 4.85685 0
M  V30 6403 H 595.589 -0.0202306 3.73995 0
M  V30 6404 H 597.881 -1.26893 6.65511 0
M  V30 6405 H 598.824 0.195345 7.0783 0
M  V30 6406 H 599.232 -0.72288 5.59852 0
M  V30 6407 N 598.631 -1.53133 0.372548 0
M  V30 6408 C 599.88 -2.00539 -0.216115 0
M  V30 6409 C 600.193 -1.26374 -1.49295 0
M  V30 6410 O 601.399 -1.64404 -2.16064 0
M  V30 6411 C 599.855 -3.57253 -0.435678 0
M  V30 6412 C 599.463 -4.40302 0.82693 0
M  V30 6413 C 601.207 -4.12995 -0.981618 0
M  V30 6414 C 599.114 -5.88583 0.576567 0
M  V30 6415 H 598.044 -0.749246 -0.084536 0
M  V30 6416 H 600.695 -1.76771 0.492364 0
M  V30 6417 H 599.077 -3.77202 -1.20559 0
M  V30 6418 H 600.251 -4.32124 1.60017 0
M  V30 6419 H 598.566 -3.95699 1.29659 0
M  V30 6420 H 601.163 -5.21418 -1.18436 0
M  V30 6421 H 601.506 -3.68027 -1.94581 0
M  V30 6422 H 602.039 -3.96871 -0.271696 0
M  V30 6423 H 598.778 -6.37841 1.51128 0
M  V30 6424 H 598.298 -5.99592 -0.158047 0
M  V30 6425 H 599.977 -6.46676 0.204722 0
M  V30 6426 N 600.109 -0.101901 -1.5727 0
M  V30 6427 C 601.072 0.840129 -2.13247 0
M  V30 6428 C 602.072 1.20625 -1.06331 0
M  V30 6429 O 603.262 1.13456 -1.32186 0
M  V30 6430 C 600.394 2.13372 -2.65867 0
M  V30 6431 H 601.587 0.353945 -2.97804 0
M  V30 6432 H 599.14 0.147167 -1.55606 0
M  V30 6433 H 599.875 2.66461 -1.84849 0
M  V30 6434 H 599.66 1.88085 -3.44044 0
M  V30 6435 H 601.15 2.80748 -3.09145 0
M  V30 6436 N 601.587 1.56661 0.17182 0
M  V30 6437 C 602.517 1.99401 1.21498 0
M  V30 6438 C 603.498 0.869516 1.46197 0
M  V30 6439 O 604.683 1.13556 1.57539 0
M  V30 6440 C 601.813 2.35346 2.55401 0
M  V30 6441 C 600.767 3.5075 2.45272 0
M  V30 6442 C 600.093 3.72437 3.8366 0
M  V30 6443 C 601.393 4.84216 1.95787 0
M  V30 6444 H 603.087 2.86792 0.859699 0
M  V30 6445 H 600.633 1.37977 0.412103 0
M  V30 6446 H 602.586 2.63843 3.2858 0
M  V30 6447 H 601.31 1.44864 2.92715 0
M  V30 6448 H 599.969 3.2238 1.74547 0
M  V30 6449 H 599.617 2.79246 4.18367 0
M  V30 6450 H 599.317 4.50087 3.77751 0
M  V30 6451 H 600.841 4.03334 4.58426 0
M  V30 6452 H 602.255 5.11592 2.5874 0
M  V30 6453 H 600.652 5.65498 2.00827 0
M  V30 6454 H 601.722 4.76243 0.912159 0
M  V30 6455 N 603.065 -0.440357 1.51323 0
M  V30 6456 C 604.481 -0.7766 1.39431 0
M  V30 6457 C 604.681 -1.95838 0.474296 0
M  V30 6458 O 603.737 -2.52398 -0.0716692 0
M  V30 6459 C 605.05 -1.05981 2.81405 0
M  V30 6460 C 606.598 -1.16442 2.90534 0
M  V30 6461 C 607.073 -1.48058 4.33408 0
M  V30 6462 N 608.564 -1.54988 4.36501 0
M  V30 6463 C 609.299 -1.81017 5.44078 0
M  V30 6464 N 608.795 -2.04858 6.61819 0
M  V30 6465 N 610.588 -1.82774 5.31554 0
M  V30 6466 H 602.739 0.338006 2.09693 0
M  V30 6467 H 605.002 0.0888072 0.943831 0
M  V30 6468 H 604.708 -0.264173 3.50706 0
M  V30 6469 H 604.582 -1.98822 3.20546 0
M  V30 6470 H 606.969 -1.95068 2.21432 0
M  V30 6471 H 607.05 -0.215088 2.54894 0
M  V30 6472 H 606.694 -0.699605 5.03059 0
M  V30 6473 H 606.624 -2.44192 4.66559 0
M  V30 6474 H 609.115 -1.38479 3.51613 0
M  V30 6475 H 609.428 -2.2408 7.396 0
M  V30 6476 H 607.773 -2.02187 6.6494 0
M  V30 6477 H 610.964 -1.63665 4.38556 0
M  V30 6478 H 611.137 -2.02722 6.15474 0
M  V30 6479 N 604.543 -1.41418 -0.695603 0
M  V30 6480 C 605.959 -1.23887 -1.00619 0
M  V30 6481 C 606.159 -0.128206 -2.01092 0
M  V30 6482 O 605.215 0.507408 -2.47349 0
M  V30 6483 C 606.528 -2.58816 -1.53083 0
M  V30 6484 C 608.076 -2.65998 -1.64967 0
M  V30 6485 C 608.551 -4.01244 -2.20833 0
M  V30 6486 N 610.042 -4.0309 -2.28194 0
M  V30 6487 C 610.777 -5.04539 -2.72448 0
M  V30 6488 N 610.273 -6.16378 -3.16306 0
M  V30 6489 N 612.066 -4.91901 -2.72011 0
M  V30 6490 H 604.217 -2.12379 -0.0300061 0
M  V30 6491 H 606.48 -0.944958 -0.0758797 0
M  V30 6492 H 606.186 -3.40842 -0.867147 0
M  V30 6493 H 606.06 -2.81299 -2.51298 0
M  V30 6494 H 608.447 -1.84331 -2.30448 0
M  V30 6495 H 608.528 -2.47325 -0.652982 0
M  V30 6496 H 608.172 -4.83359 -1.55968 0
M  V30 6497 H 608.102 -4.17257 -3.21254 0
M  V30 6498 H 610.593 -3.22341 -1.97242 0
M  V30 6499 H 610.906 -6.89658 -3.487 0
M  V30 6500 H 609.251 -6.19914 -3.14215 0
M  V30 6501 H 612.442 -4.03613 -2.37095 0
M  V30 6502 H 612.615 -5.71102 -3.06181 0
M  V30 6503 N 606.021 0.929856 -1.27246 0
M  V30 6504 C 607.269 1.674 -1.13233 0
M  V30 6505 C 607.59 1.92311 0.322744 0
M  V30 6506 O 606.86 1.52784 1.22612 0
M  V30 6507 H 605.44 0.620411 -0.416052 0
M  V30 6508 H 608.102 1.11663 -1.59741 0
M  V30 6509 H 607.198 2.64308 -1.65975 0
M  V30 6510 N 607.499 1.09233 1.13605 0
M  V30 6511 C 608.462 0.733553 2.17144 0
M  V30 6512 C 609.462 -0.235873 1.59061 0
M  V30 6513 O 610.652 -0.0143167 1.74194 0
M  V30 6514 C 607.784 0.084471 3.40795 0
M  V30 6515 H 608.977 1.65049 2.50397 0
M  V30 6516 H 606.53 0.891264 1.28399 0
M  V30 6517 H 607.265 -0.843795 3.1313 0
M  V30 6518 H 607.05 0.781985 3.84223 0
M  V30 6519 H 608.54 -0.151216 4.17326 0
M  V30 6520 N 608.977 -1.30795 0.87923 0
M  V30 6521 C 610.205 -2.00527 0.509548 0
M  V30 6522 C 610.62 -1.65944 -0.90045 0
M  V30 6523 O 609.977 -0.893525 -1.5913 0
M  V30 6524 C 610.028 -3.55276 0.667943 0
M  V30 6525 O 609.749 -3.88625 2.02242 0
M  V30 6526 C 611.25 -4.4228 0.300494 0
M  V30 6527 H 608.47 -0.641261 0.197549 0
M  V30 6528 H 611.014 -1.66813 1.18295 0
M  V30 6529 H 609.169 -3.87377 0.0419843 0
M  V30 6530 H 609.583 -4.83334 2.03688 0
M  V30 6531 H 611.057 -5.50061 0.462242 0
M  V30 6532 H 611.534 -4.32556 -0.76106 0
M  V30 6533 H 612.14 -4.15613 0.902536 0
M  V30 6534 N 610.455 -0.639598 -1.44038 0
M  V30 6535 C 611.365 0.0612377 -2.3452 0
M  V30 6536 C 612.381 0.826717 -1.53106 0
M  V30 6537 O 613.557 0.777059 -1.85806 0
M  V30 6538 C 610.622 1.02492 -3.31204 0
M  V30 6539 C 609.683 0.25788 -4.28525 0
M  V30 6540 C 608.916 1.17566 -5.2059 0
M  V30 6541 O 609.139 2.41461 -5.16771 0
M  V30 6542 O 608.073 0.655407 -5.98321 0
M  V30 6543 H 611.899 -0.68318 -2.95916 0
M  V30 6544 H 609.484 -0.399784 -1.43952 0
M  V30 6545 H 611.366 1.57911 -3.90694 0
M  V30 6546 H 610.041 1.7498 -2.7233 0
M  V30 6547 H 608.948 -0.339566 -3.72556 0
M  V30 6548 H 610.281 -0.427154 -4.90343 0
M  V30 6549 N 611.933 1.52934 -0.380664 0
M  V30 6550 C 612.863 2.29118 0.450268 0
M  V30 6551 C 613.844 1.32153 1.07096 0
M  V30 6552 O 615.029 1.61038 1.08537 0
M  V30 6553 C 612.159 3.09161 1.58231 0
M  V30 6554 C 611.113 4.13938 1.0881 0
M  V30 6555 C 610.439 4.82153 2.31155 0
M  V30 6556 C 611.739 5.22048 0.162146 0
M  V30 6557 H 613.433 2.98826 -0.185361 0
M  V30 6558 H 610.979 1.43715 -0.0905886 0
M  V30 6559 H 612.932 3.61211 2.17036 0
M  V30 6560 H 611.656 2.3717 2.2454 0
M  V30 6561 H 610.315 3.62855 0.522633 0
M  V30 6562 H 609.963 4.06719 2.95953 0
M  V30 6563 H 609.663 5.52966 1.98752 0
M  V30 6564 H 611.187 5.37004 2.90618 0
M  V30 6565 H 612.601 5.6951 0.658126 0
M  V30 6566 H 610.998 6.00057 -0.0717122 0
M  V30 6567 H 612.068 4.78398 -0.791438 0
M  V30 6568 N 613.412 0.11024 1.57214 0
M  V30 6569 C 614.64 -0.557834 1.99238 0
M  V30 6570 C 615.055 -1.60778 0.989734 0
M  V30 6571 O 614.412 -1.82491 -0.0186092 0
M  V30 6572 C 614.463 -1.19189 3.41286 0
M  V30 6573 O 614.184 -0.183919 4.37714 0
M  V30 6574 C 615.685 -1.94413 3.98395 0
M  V30 6575 H 612.905 -0.148392 0.654386 0
M  V30 6576 H 615.449 0.193996 2.03578 0
M  V30 6577 H 613.604 -1.89456 3.37913 0
M  V30 6578 H 614.018 -0.643475 5.20538 0
M  V30 6579 H 615.492 -2.34116 4.99894 0
M  V30 6580 H 615.969 -2.81592 3.3705 0
M  V30 6581 H 616.575 -1.28928 4.05287 0
M  V30 6582 N 614.89 -1.56749 -0.16351 0
M  V30 6583 C 615.84 -1.93424 -1.20712 0
M  V30 6584 C 616.824 -0.803469 -1.39403 0
M  V30 6585 O 618.016 -1.06675 -1.41243 0
M  V30 6586 C 615.145 -2.30431 -2.54473 0
M  V30 6587 C 614.231 -3.5004 -2.39443 0
M  V30 6588 N 614.622 -4.67058 -1.9414 0
M  V30 6589 C 612.92 -3.548 -2.70246 0
M  V30 6590 C 613.621 -5.49184 -1.9176 0
M  V30 6591 N 612.597 -4.9044 -2.34457 0
M  V30 6592 H 616.399 -2.8138 -0.848681 0
M  V30 6593 H 613.913 -1.58089 -0.371717 0
M  V30 6594 H 615.91 -2.54903 -3.29894 0
M  V30 6595 H 614.57 -1.43818 -2.91112 0
M  V30 6596 H 615.581 -4.91128 -1.64357 0
M  V30 6597 H 612.258 -2.78685 -3.10871 0
M  V30 6598 H 613.648 -6.5297 -1.58366 0
M  V30 6599 N 616.368 0.432326 -1.51554 0
M  V30 6600 C 617.278 1.55023 -1.76082 0
M  V30 6601 C 618.294 1.61593 -0.645265 0
M  V30 6602 O 619.47 1.78742 -0.928086 0
M  V30 6603 C 616.535 2.90964 -1.88523 0
M  V30 6604 C 615.596 2.9447 -3.12388 0
M  V30 6605 C 614.829 4.23926 -3.24225 0
M  V30 6606 O 615.052 5.16576 -2.4188 0
M  V30 6607 O 613.986 4.33818 -4.17235 0
M  V30 6608 H 617.812 1.37238 -2.70923 0
M  V30 6609 H 615.397 0.615845 -1.36117 0
M  V30 6610 H 617.279 3.71633 -1.98662 0
M  V30 6611 H 615.954 3.08865 -0.9687 0
M  V30 6612 H 614.861 2.12737 -3.07723 0
M  V30 6613 H 616.194 2.81514 -4.03746 0
M  V30 6614 N 617.846 1.41785 0.688094 0
M  V30 6615 C 619.123 1.32031 1.44316 0
M  V30 6616 C 619.503 -0.0486079 2.11044 0
M  V30 6617 O 618.851 -1.06332 2.02252 0
M  V30 6618 C 619.061 2.47906 2.45649 0
M  V30 6619 C 620.409 2.89415 3.10683 0
M  V30 6620 O 621.433 2.477 2.55975 0
M  V30 6621 O 620.292 3.61573 4.09789 0
M  V30 6622 H 617.386 0.519994 0.643067 0
M  V30 6623 H 619.932 1.53765 0.71794 0
M  V30 6624 H 618.704 3.39222 1.95048 0
M  V30 6625 H 618.327 2.28089 3.25671 0
M  V30 6626 N 619.324 -0.923095 1.27737 0
M  V30 6627 C 620.554 -1.70277 1.17001 0
M  V30 6628 C 620.962 -1.87188 -0.275199 0
M  V30 6629 O 620.305 -1.39195 -1.19877 0
M  V30 6630 C 620.367 -3.11976 1.78637 0
M  V30 6631 C 620.031 -3.18386 3.27841 0
M  V30 6632 C 621.028 -3.00287 4.2441 0
M  V30 6633 C 618.713 -3.41198 3.68632 0
M  V30 6634 C 620.707 -3.04896 5.59747 0
M  V30 6635 C 618.394 -3.4544 5.04097 0
M  V30 6636 C 619.392 -3.27309 5.99465 0
M  V30 6637 O 619.08 -3.31295 7.32461 0
M  V30 6638 H 618.812 -0.539366 0.407505 0
M  V30 6639 H 621.366 -1.16446 1.69202 0
M  V30 6640 H 619.596 -3.67308 1.20919 0
M  V30 6641 H 621.285 -3.7193 1.6255 0
M  V30 6642 H 622.051 -2.825 3.94232 0
M  V30 6643 H 617.93 -3.54359 2.94873 0
M  V30 6644 H 621.474 -2.90662 6.34162 0
M  V30 6645 H 617.371 -3.62753 5.33929 0
M  V30 6646 H 618.139 -3.47719 7.40968 0
M  V30 6647 N 620.802 -1.09834 -1.13024 0
M  V30 6648 C 621.735 -0.685453 -2.17662 0
M  V30 6649 C 622.713 0.310142 -1.59615 0
M  V30 6650 O 623.897 0.21052 -1.87321 0
M  V30 6651 C 621.024 -0.0104476 -3.38698 0
M  V30 6652 C 620.07 -0.968522 -4.15358 0
M  V30 6653 S 620.903 -2.48272 -4.74469 0
M  V30 6654 C 622.059 -1.82025 -5.98847 0
M  V30 6655 H 622.292 -1.57187 -2.52348 0
M  V30 6656 H 619.825 -0.914728 -1.24387 0
M  V30 6657 H 621.783 0.372694 -4.08805 0
M  V30 6658 H 620.444 0.852673 -3.02305 0
M  V30 6659 H 619.637 -0.443373 -5.02046 0
M  V30 6660 H 619.239 -1.29327 -3.50928 0
M  V30 6661 H 621.531 -1.14678 -6.67724 0
M  V30 6662 H 622.474 -2.66645 -6.55977 0
M  V30 6663 H 622.882 -1.2874 -5.49624 0
M  V30 6664 N 622.28 1.30327 -0.886154 0
M  V30 6665 C 623.19 2.31854 -0.357866 0
M  V30 6666 C 624.206 1.65392 0.540502 0
M  V30 6667 O 625.382 1.96683 0.433339 0
M  V30 6668 C 622.447 3.44171 0.417999 0
M  V30 6669 C 621.508 4.26257 -0.510263 0
M  V30 6670 C 620.741 5.3321 0.228669 0
M  V30 6671 O 620.964 5.51542 1.45458 0
M  V30 6672 O 619.898 6.0042 -0.421832 0
M  V30 6673 H 623.724 2.78995 -1.19982 0
M  V30 6674 H 621.309 1.34518 -0.650028 0
M  V30 6675 H 623.191 4.12588 0.857251 0
M  V30 6676 H 621.866 2.99164 1.23623 0
M  V30 6677 H 620.773 3.60533 -0.99835 0
M  V30 6678 H 622.106 4.74871 -1.29454 0
M  V30 6679 N 623.758 0.647228 1.43697 0
M  V30 6680 C 625.006 0.157876 2.01482 0
M  V30 6681 C 625.327 -1.23039 1.51282 0
M  V30 6682 O 624.597 -1.82071 0.722982 0
M  V30 6683 H 623.177 0.0553745 0.744945 0
M  V30 6684 H 625.839 0.83755 1.75986 0
M  V30 6685 H 624.935 0.137895 3.11795 0
M  V30 6686 N 625.236 -1.5273 0.388769 0
M  V30 6687 C 626.485 -2.00757 -0.194833 0
M  V30 6688 C 626.798 -1.27951 -1.47946 0
M  V30 6689 O 628.004 -1.66686 -2.14308 0
M  V30 6690 C 626.46 -3.57695 -0.397762 0
M  V30 6691 C 626.068 -4.394 0.873583 0
M  V30 6692 C 627.812 -4.14012 -0.937759 0
M  V30 6693 C 625.719 -5.87938 0.638962 0
M  V30 6694 H 624.649 -0.750101 -0.0765845 0
M  V30 6695 H 627.3 -1.76239 0.511086 0
M  V30 6696 H 625.682 -3.7846 -1.16552 0
M  V30 6697 H 626.856 -4.30403 1.64591 0
M  V30 6698 H 625.171 -3.94301 1.33849 0
M  V30 6699 H 627.768 -5.22645 -1.12899 0
M  V30 6700 H 628.111 -3.7007 -1.90666 0
M  V30 6701 H 628.644 -3.97137 -0.229588 0
M  V30 6702 H 625.383 -6.36202 1.57885 0
M  V30 6703 H 624.903 -5.99726 -0.094443 0
M  V30 6704 H 626.582 -6.46423 0.273299 0
M  V30 6705 N 626.714 -0.118576 -1.57153 0
M  V30 6706 C 627.644 0.828436 -2.1831 0
M  V30 6707 C 628.625 1.27758 -1.12303 0
M  V30 6708 O 629.81 1.34026 -1.40537 0
M  V30 6709 C 626.94 2.07876 -2.78217 0
M  V30 6710 C 625.894 1.76742 -3.89803 0
M  V30 6711 C 625.22 3.08801 -4.36516 0
M  V30 6712 C 626.52 1.03606 -5.11921 0
M  V30 6713 H 628.214 0.318824 -2.97698 0
M  V30 6714 H 625.76 0.151911 -1.43196 0
M  V30 6715 H 627.713 2.74584 -3.19659 0
M  V30 6716 H 626.437 2.61161 -1.96118 0
M  V30 6717 H 625.096 1.12424 -3.48936 0
M  V30 6718 H 624.744 3.6002 -3.51276 0
M  V30 6719 H 624.444 2.88743 -5.11763 0
M  V30 6720 H 625.968 3.76627 -4.80608 0
M  V30 6721 H 627.382 1.60467 -5.50385 0
M  V30 6722 H 625.779 0.936454 -5.92748 0
M  V30 6723 H 626.849 0.0227421 -4.84895 0
M  V30 6724 N 628.193 1.56834 0.155195 0
M  V30 6725 C 629.103 2.009 1.21146 0
M  V30 6726 C 630.119 0.923029 1.475 0
M  V30 6727 O 631.295 1.23189 1.59331 0
M  V30 6728 C 628.36 2.37378 2.52691 0
M  V30 6729 C 627.421 3.59883 2.34057 0
M  V30 6730 C 626.654 3.94612 3.59329 0
M  V30 6731 O 626.877 3.30104 4.65175 0
M  V30 6732 O 625.811 4.87895 3.52479 0
M  V30 6733 H 629.637 2.9105 0.867371 0
M  V30 6734 H 627.222 1.44916 0.363298 0
M  V30 6735 H 629.104 2.61737 3.3026 0
M  V30 6736 H 627.779 1.50385 2.86646 0
M  V30 6737 H 626.686 3.40722 1.54465 0
M  V30 6738 H 628.019 4.47468 2.0502 0
M  V30 6739 N 629.671 -0.424282 1.51781 0
M  V30 6740 C 630.917 -1.17434 1.6534 0
M  V30 6741 C 631.25 -1.90549 0.374806 0
M  V30 6742 O 630.525 -1.84145 -0.626179 0
M  V30 6743 C 630.808 -2.18093 2.86544 0
M  V30 6744 C 630.661 -1.48975 4.24413 0
M  V30 6745 C 631.98 -3.18934 3.03264 0
M  V30 6746 H 629.099 -0.425566 0.601716 0
M  V30 6747 H 631.741 -0.461921 1.84299 0
M  V30 6748 H 629.891 -2.78849 2.7051 0
M  V30 6749 H 631.563 -0.914551 4.52143 0
M  V30 6750 H 629.806 -0.791893 4.26511 0
M  V30 6751 H 630.477 -2.22347 5.05238 0
M  V30 6752 H 632.953 -2.68243 3.18096 0
M  V30 6753 H 631.829 -3.86645 3.89611 0
M  V30 6754 H 632.09 -3.85793 2.15908 0
M  V30 6755 N 631.149 -1.42148 -0.680565 0
M  V30 6756 C 632.081 -1.41119 -1.80605 0
M  V30 6757 C 633.094 -0.311099 -1.598 0
M  V30 6758 O 634.283 -0.573813 -1.69026 0
M  V30 6759 C 631.383 -1.18204 -3.17618 0
M  V30 6760 C 630.556 -2.40537 -3.65322 0
M  V30 6761 C 629.615 -2.13254 -4.8105 0
M  V30 6762 O 628.641 -2.8641 -4.91892 0
M  V30 6763 N 629.843 -1.13208 -5.69354 0
M  V30 6764 H 632.608 -2.38128 -1.81975 0
M  V30 6765 H 630.169 -1.36953 -0.863446 0
M  V30 6766 H 632.161 -0.97878 -3.92686 0
M  V30 6767 H 630.731 -0.29738 -3.11182 0
M  V30 6768 H 629.951 -2.76468 -2.80996 0
M  V30 6769 H 631.239 -3.22012 -3.93936 0
M  V30 6770 H 630.637 -0.526893 -5.63241 0
M  V30 6771 H 629.194 -0.988699 -6.44258 0
M  V30 6772 N 632.627 0.916307 -1.28225 0
M  V30 6773 C 633.59 1.99996 -1.11957 0
M  V30 6774 C 634.59 1.60688 -0.0600152 0
M  V30 6775 O 635.78 1.71499 -0.30558 0
M  V30 6776 C 632.912 3.33458 -0.708411 0
M  V30 6777 H 634.105 2.15858 -2.08196 0
M  V30 6778 H 631.658 1.09863 -1.11175 0
M  V30 6779 H 632.393 3.23297 0.254859 0
M  V30 6780 H 632.178 3.63349 -1.47377 0
M  V30 6781 H 633.668 4.13014 -0.617164 0
M  V30 6782 N 634.105 1.10431 1.1244 0
M  V30 6783 C 635.052 0.753103 2.18167 0
M  V30 6784 C 636.022 -0.270549 1.63882 0
M  V30 6785 O 637.207 -0.149837 1.90211 0
M  V30 6786 C 634.347 0.191046 3.44571 0
M  V30 6787 C 633.46 1.26999 4.12911 0
M  V30 6788 C 632.595 0.669586 5.26963 0
M  V30 6789 C 631.634 1.72912 5.87169 0
M  V30 6790 N 630.771 1.14898 6.92635 0
M  V30 6791 H 635.611 1.65892 2.47556 0
M  V30 6792 H 633.148 0.828631 1.21541 0
M  V30 6793 H 635.106 -0.152712 4.1692 0
M  V30 6794 H 633.736 -0.677997 3.15599 0
M  V30 6795 H 632.788 1.73087 3.3874 0
M  V30 6796 H 634.1 2.07204 4.53727 0
M  V30 6797 H 633.254 0.275274 6.06075 0
M  V30 6798 H 631.993 -0.163895 4.87425 0
M  V30 6799 H 630.998 2.13286 5.06744 0
M  V30 6800 H 632.223 2.56544 6.28778 0
M  V30 6801 H 630.169 0.336956 6.55134 0
M  V30 6802 H 630.086 1.88786 7.32049 0
M  V30 6803 H 631.354 0.78121 7.75576 0
M  V30 6804 N 635.583 -1.29855 0.893053 0
M  V30 6805 C 636.53 -2.27909 0.364161 0
M  V30 6806 C 637.5 -1.56726 -0.550093 0
M  V30 6807 O 638.685 -1.84747 -0.47677 0
M  V30 6808 C 635.825 -3.42678 -0.408178 0
M  V30 6809 C 634.938 -4.28659 0.536212 0
M  V30 6810 C 634.073 -5.30599 -0.252521 0
M  V30 6811 C 633.112 -6.08234 0.686822 0
M  V30 6812 N 632.249 -7.02068 -0.0670902 0
M  V30 6813 H 637.089 -2.72531 1.20544 0
M  V30 6814 H 634.626 -1.34047 0.605779 0
M  V30 6815 H 636.584 -4.07986 -0.871962 0
M  V30 6816 H 635.214 -2.99103 -1.21397 0
M  V30 6817 H 634.266 -3.63584 1.1185 0
M  V30 6818 H 635.578 -4.8274 1.25552 0
M  V30 6819 H 634.732 -6.01694 -0.777801 0
M  V30 6820 H 633.471 -4.77233 -1.005 0
M  V30 6821 H 632.476 -5.3601 1.22366 0
M  V30 6822 H 633.701 -6.63689 1.43852 0
M  V30 6823 H 631.647 -6.5108 -0.801955 0
M  V30 6824 H 631.564 -7.53675 0.59243 0
M  V30 6825 H 632.832 -7.77392 -0.572851 0
M  V30 6826 N 637.061 -0.65484 -1.43351 0
M  V30 6827 C 638.008 0.0357713 -2.30772 0
M  V30 6828 C 638.978 0.813035 -1.44841 0
M  V30 6829 O 640.163 0.789314 -1.73708 0
M  V30 6830 C 637.303 0.995084 -3.30442 0
M  V30 6831 C 636.416 0.21375 -4.31471 0
M  V30 6832 C 635.551 1.16701 -5.18222 0
M  V30 6833 C 634.59 0.376201 -6.10943 0
M  V30 6834 N 633.727 1.28113 -6.90313 0
M  V30 6835 H 638.567 -0.71559 -2.89281 0
M  V30 6836 H 636.104 -0.364645 -1.42509 0
M  V30 6837 H 638.062 1.5649 -3.86739 0
M  V30 6838 H 636.692 1.7133 -2.7358 0
M  V30 6839 H 635.744 -0.472377 -3.77456 0
M  V30 6840 H 637.056 -0.401103 -4.97185 0
M  V30 6841 H 636.21 1.8074 -5.79153 0
M  V30 6842 H 634.949 1.81577 -4.52638 0
M  V30 6843 H 633.954 -0.277534 -5.49099 0
M  V30 6844 H 635.179 -0.268178 -6.7857 0
M  V30 6845 H 633.125 1.91666 -6.27376 0
M  V30 6846 H 633.042 0.720879 -7.52555 0
M  V30 6847 H 634.31 1.90962 -7.55747 0
M  V30 6848 N 638.539 1.52521 -0.396863 0
M  V30 6849 C 639.502 2.2527 0.422604 0
M  V30 6850 C 640.502 1.27184 0.983913 0
M  V30 6851 O 641.692 1.51222 0.864723 0
M  V30 6852 C 638.824 3.01356 1.59365 0
M  V30 6853 H 640.017 2.99133 -0.214416 0
M  V30 6854 H 637.57 1.55587 -0.149128 0
M  V30 6855 H 638.305 2.31813 2.26789 0
M  V30 6856 H 638.09 3.73357 1.19779 0
M  V30 6857 H 639.58 3.56571 2.17363 0
M  V30 6858 N 640.017 0.126909 1.57088 0
M  V30 6859 C 640.965 -0.837618 2.16995 0
M  V30 6860 C 641.959 -1.26974 1.12133 0
M  V30 6861 O 643.165 -1.24056 1.30423 0
M  V30 6862 H 639.54 -0.288256 0.694559 0
M  V30 6863 H 641.511 -0.307957 2.96807 0
M  V30 6864 C 640.26 -2.07474 2.79016 0
M  V30 6865 H 639.583 -1.75117 3.59408 0
M  V30 6866 H 641.023 -2.72949 3.24461 0
M  V30 6867 C 639.482 -2.86967 1.76498 0
M  V30 6868 O 640.012 -3.82625 1.22316 0
M  V30 6869 N 638.218 -2.51111 1.46258 0
M  V30 6870 H 637.765 -1.73389 1.90509 0
M  V30 6871 H 637.723 -3.04594 0.779085 0
M  V30 6872 N 641.495 -1.56914 -0.146875 0
M  V30 6873 C 642.425 -2.01308 -1.1831 0
M  V30 6874 C 643.406 -0.892664 -1.44795 0
M  V30 6875 O 644.591 -1.16048 -1.55713 0
M  V30 6876 C 641.721 -2.3938 -2.51624 0
M  V30 6877 C 640.675 -3.54608 -2.3966 0
M  V30 6878 C 640.001 -3.78493 -3.77686 0
M  V30 6879 C 641.301 -4.87269 -1.88058 0
M  V30 6880 H 642.995 -2.88123 -0.813964 0
M  V30 6881 H 640.541 -1.38615 -0.3901 0
M  V30 6882 H 642.494 -2.69037 -3.24341 0
M  V30 6883 H 641.218 -1.49502 -2.90373 0
M  V30 6884 H 639.877 -3.25116 -1.69396 0
M  V30 6885 H 639.525 -2.85866 -4.13871 0
M  V30 6886 H 639.225 -4.56039 -3.70543 0
M  V30 6887 H 640.749 -4.10576 -4.51951 0
M  V30 6888 H 642.163 -5.15644 -2.50568 0
M  V30 6889 H 640.56 -5.68622 -1.91805 0
M  V30 6890 H 641.63 -4.77634 -0.836277 0
M  V30 6891 N 642.974 0.416227 -1.52004 0
M  V30 6892 C 643.906 1.52552 -1.71058 0
M  V30 6893 C 644.919 1.51693 -0.59102 0
M  V30 6894 O 646.108 1.56087 -0.865973 0
M  V30 6895 C 643.208 2.91455 -1.72937 0
M  V30 6896 C 642.381 3.16584 -3.01816 0
M  V30 6897 C 641.44 4.35322 -2.95603 0
M  V30 6898 O 640.466 4.32947 -3.6952 0
M  V30 6899 N 641.668 5.40049 -2.12903 0
M  V30 6900 H 644.433 1.36604 -2.66757 0
M  V30 6901 H 641.994 0.60544 -1.50153 0
M  V30 6902 H 643.986 3.68944 -1.66321 0
M  V30 6903 H 642.556 3.00895 -0.847418 0
M  V30 6904 H 641.776 2.27203 -3.22137 0
M  V30 6905 H 643.064 3.30213 -3.87088 0
M  V30 6906 H 642.462 5.44823 -1.52265 0
M  V30 6907 H 641.019 6.16308 -2.1215 0
M  V30 6908 N 644.452 1.42507 0.673017 0
M  V30 6909 C 645.682 1.46261 1.45916 0
M  V30 6910 C 646.09 0.0729724 1.89059 0
M  V30 6911 O 645.433 -0.922987 1.58829 0
M  V30 6912 C 645.495 2.32853 2.73898 0
M  V30 6913 C 645.159 3.80699 2.52819 0
M  V30 6914 C 646.156 4.72307 2.17306 0
M  V30 6915 C 643.841 4.24983 2.67758 0
M  V30 6916 C 645.835 6.06192 1.97003 0
M  V30 6917 C 643.522 5.58927 2.4707 0
M  V30 6918 C 644.52 6.49348 2.11746 0
M  V30 6919 O 644.208 7.80817 1.91259 0
M  V30 6920 H 643.94 0.499561 0.455428 0
M  V30 6921 H 646.494 1.87697 0.834196 0
M  V30 6922 H 644.724 1.86268 3.38882 0
M  V30 6923 H 646.413 2.28041 3.35786 0
M  V30 6924 H 647.179 4.39378 2.05359 0
M  V30 6925 H 643.058 3.54893 2.94231 0
M  V30 6926 H 646.602 6.76731 1.69355 0
M  V30 6927 H 642.499 5.91429 2.58615 0
M  V30 6928 H 643.267 7.92194 2.05843 0
M  V30 6929 N 645.93 -0.909495 1.28709 0
M  V30 6930 C 647.16 -1.69027 1.188 0
M  V30 6931 C 647.568 -1.87469 -0.255329 0
M  V30 6932 O 646.911 -1.40458 -1.18394 0
M  V30 6933 C 646.973 -3.10064 1.81936 0
M  V30 6934 C 646.637 -3.14891 3.31199 0
M  V30 6935 C 647.634 -2.95768 4.27571 0
M  V30 6936 C 645.319 -3.37269 3.7223 0
M  V30 6937 C 647.313 -2.98942 5.6295 0
M  V30 6938 C 645 -3.40074 5.07733 0
M  V30 6939 C 645.998 -3.20932 6.02903 0
M  V30 6940 O 645.686 -3.23507 7.35934 0
M  V30 6941 H 645.418 -0.535014 0.413203 0
M  V30 6942 H 647.972 -1.14645 1.70428 0
M  V30 6943 H 646.202 -3.66005 1.24808 0
M  V30 6944 H 647.891 -3.70185 1.66486 0
M  V30 6945 H 648.657 -2.78302 3.97206 0
M  V30 6946 H 644.536 -3.51212 2.98615 0
M  V30 6947 H 648.08 -2.83919 6.37209 0
M  V30 6948 H 643.977 -3.5707 5.37747 0
M  V30 6949 H 644.745 -3.3984 7.44615 0
M  V30 6950 N 647.408 -1.11026 -1.11852 0
M  V30 6951 C 648.371 -0.768006 -2.1595 0
M  V30 6952 C 649.371 0.210538 -1.59416 0
M  V30 6953 O 650.561 -0.0133978 -1.74195 0
M  V30 6954 C 647.693 -0.138678 -3.40618 0
M  V30 6955 H 648.886 -1.69012 -2.4774 0
M  V30 6956 H 646.439 -0.911578 -1.26964 0
M  V30 6957 H 647.174 0.793872 -3.14433 0
M  V30 6958 H 646.959 -0.843012 -3.8293 0
M  V30 6959 H 648.449 0.0848039 -4.17514 0
M  V30 6960 O 648.925 1.24197 -1.03235 0
M  V30 6961 H 649.616 1.80628 -0.699523 0
M  V30 END ATOM
M  V30 BEGIN BOND
M  V30 END BOND
M  V30 END CTAB
M  END
$$$$
