drugbank_target|P20906 Benzoylformate decarboxylase (DB02280)
 OpenBabel12092119513D

  0  0  0     0  0            999 V3000
M  V30 BEGIN CTAB
M  V30 COUNTS 7870 7966 0 0 0
M  V30 BEGIN ATOM
M  V30 1 H -0.908 1.98254 -0.117106 0
M  V30 2 N 0 1.576 0 0
M  V30 3 C 0.933 2.03868 1.02534 0
M  V30 4 C 1.911 0.928543 1.3348 0
M  V30 5 O 3.095 1.19667 1.45644 0
M  V30 6 C 0.222 2.43627 2.35294 0
M  V30 7 C -0.732 3.65373 2.2001 0
M  V30 8 S 0.101 5.13292 1.52614 0
M  V30 9 C 1.257 5.56322 2.86805 0
M  V30 10 H 1.49 2.90518 0.631377 0
M  V30 11 H -0.977 1.52953 0.210867 0
M  V30 12 H 0.981 2.67203 3.11629 0
M  V30 13 H -0.358 1.57376 2.7183 0
M  V30 14 H -1.165 3.90944 3.18086 0
M  V30 15 H -1.563 3.418 1.51819 0
M  V30 16 H 0.729 5.58782 3.83104 0
M  V30 17 H 1.672 6.56266 2.65933 0
M  V30 18 H 2.08 4.83886 2.90714 0
M  V30 19 N 1.4781 -0.272755 1.55222 0
M  V30 20 C 2.4411 -1.32041 1.87344 0
M  V30 21 C 3.4411 -1.42342 0.74803 0
M  V30 22 O 4.6311 -1.41488 1.0162 0
M  V30 23 C 1.7631 -2.70173 2.07893 0
M  V30 24 H 2.9561 -1.04789 2.80997 0
M  V30 25 H 0.5091 -0.51083 1.47717 0
M  V30 26 H 1.2441 -3.02605 1.16622 0
M  V30 27 H 1.0291 -2.64082 2.89833 0
M  V30 28 H 2.5191 -3.45869 2.34017 0
M  V30 29 N 2.9562 -1.48159 -0.537278 0
M  V30 30 C 4.1812 -1.59707 -1.32319 0
M  V30 31 C 4.6062 -0.254859 -1.86365 0
M  V30 32 O 3.9642 0.772378 -1.64024 0
M  V30 33 C 4.0122 -2.6412 -2.45505 0
M  V30 34 O 3.1162 -2.20774 -3.48328 0
M  V30 35 H 2.4572 -0.535791 -0.392204 0
M  V30 36 H 4.9872 -1.94092 -0.647268 0
M  V30 37 H 4.9972 -2.85166 -2.91795 0
M  V30 38 H 3.6722 -3.61567 -2.05528 0
M  V30 39 H 2.2492 -2.09911 -3.08207 0
M  V30 40 N 4.4343 0.785586 -1.36625 0
M  V30 41 C 5.6803 1.54591 -1.31261 0
M  V30 42 C 6.0133 1.93906 0.106823 0
M  V30 43 O 5.2883 1.63007 1.06108 0
M  V30 44 C 5.5713 2.82038 -2.23889 0
M  V30 45 C 5.4243 2.49066 -3.74548 0
M  V30 46 C 6.7433 3.83887 -2.15217 0
M  V30 47 H 3.8623 0.560846 -0.478143 0
M  V30 48 H 6.5043 0.902278 -1.67209 0
M  V30 49 H 4.6543 3.36961 -1.93363 0
M  V30 50 H 6.3263 2.00164 -4.15611 0
M  V30 51 H 4.5693 1.81954 -3.93796 0
M  V30 52 H 5.2403 3.40109 -4.34776 0
M  V30 53 H 7.7163 3.38421 -2.42096 0
M  V30 54 H 6.5923 4.70806 -2.82193 0
M  V30 55 H 6.8533 4.27131 -1.14068 0
M  V30 56 N 5.9124 1.20967 1.01018 0
M  V30 57 C 6.8624 0.93182 2.08089 0
M  V30 58 C 7.8464 -0.110898 1.60517 0
M  V30 59 O 9.0384 0.0973392 1.76732 0
M  V30 60 C 6.1674 0.492719 3.39746 0
M  V30 61 C 5.2534 1.56922 3.94 0
M  V30 62 N 5.6444 2.79312 4.21686 0
M  V30 63 C 3.9424 1.43688 4.2222 0
M  V30 64 C 4.6434 3.48797 4.65527 0
M  V30 65 N 3.6194 2.76224 4.68189 0
M  V30 66 H 7.4214 1.86175 2.27412 0
M  V30 67 H 4.9354 1.10463 1.19045 0
M  V30 68 H 6.9324 0.275044 4.15992 0
M  V30 69 H 5.5924 -0.430509 3.21833 0
M  V30 70 H 6.6034 3.15903 4.10397 0
M  V30 71 H 3.2804 0.578548 4.13472 0
M  V30 72 H 4.6704 4.53561 4.95714 0
M  V30 73 N 7.3905 -1.2043 1.01659 0
M  V30 74 C 8.6385 -1.89423 0.704522 0
M  V30 75 C 8.9595 -1.79231 -0.768197 0
M  V30 76 O 8.2295 -1.1947 -1.55254 0
M  V30 77 H 6.8095 -0.701178 0.257602 0
M  V30 78 H 9.4715 -1.4626 1.28818 0
M  V30 79 H 8.5675 -2.96052 0.987916 0
M  V30 80 N 8.8686 -0.792821 -1.36206 0
M  V30 81 C 10.0966 -0.378825 -2.03402 0
M  V30 82 C 10.5116 1.00586 -1.59774 0
M  V30 83 O 9.8686 1.64574 -0.788764 0
M  V30 84 C 9.9196 -0.43683 -3.58851 0
M  V30 85 O 9.6406 -1.76691 -4.00889 0
M  V30 86 C 11.1416 -0.0138943 -4.43298 0
M  V30 87 H 8.3616 -0.155673 -0.652692 0
M  V30 88 H 10.9056 -1.07261 -1.74113 0
M  V30 89 H 9.0606 0.208575 -3.86838 0
M  V30 90 H 9.4746 -1.72011 -4.95492 0
M  V30 91 H 10.9486 -0.105615 -5.51899 0
M  V30 92 H 11.4256 1.03915 -4.2673 0
M  V30 93 H 12.0316 -0.63192 -4.20579 0
M  V30 94 N 10.3467 1.47872 -0.545128 0
M  V30 95 C 11.5747 2.06889 -0.021084 0
M  V30 96 C 11.9897 1.39955 1.2672 0
M  V30 97 O 11.3467 0.492036 1.75742 0
M  V30 98 C 11.3977 3.60996 0.190817 0
M  V30 99 O 11.1187 4.25419 -1.04644 0
M  V30 100 C 12.6197 4.36849 0.753521 0
M  V30 101 H 9.8397 0.669785 -0.0403635 0
M  V30 102 H 12.3837 1.90049 -0.755095 0
M  V30 103 H 10.5387 3.77391 0.87492 0
M  V30 104 H 10.9527 5.17785 -0.836611 0
M  V30 105 H 12.4267 5.45399 0.851139 0
M  V30 106 H 12.9037 4.02306 1.762 0
M  V30 107 H 13.5097 4.25169 0.105503 0
M  V30 108 N 11.8248 0.280983 1.55075 0
M  V30 109 C 13.0548 -0.336804 2.03836 0
M  V30 110 C 13.4628 -1.49577 1.15859 0
M  V30 111 O 12.8058 -1.82888 0.172503 0
M  V30 112 C 12.8678 -0.874616 3.48699 0
M  V30 113 C 12.5318 0.156478 4.56732 0
M  V30 114 C 13.5288 0.978032 5.10618 0
M  V30 115 C 11.2138 0.292409 5.01448 0
M  V30 116 C 13.2078 1.92165 6.07743 0
M  V30 117 C 10.8948 1.23949 5.98398 0
M  V30 118 C 11.8928 2.05261 6.51427 0
M  V30 119 O 11.5808 2.98367 7.4648 0
M  V30 120 H 11.3128 -0.0800885 0.671239 0
M  V30 121 H 13.8668 0.412589 2.01213 0
M  V30 122 H 12.0968 -1.67418 3.4858 0
M  V30 123 H 13.7858 -1.40612 3.80766 0
M  V30 124 H 14.5518 0.883782 4.7688 0
M  V30 125 H 10.4308 -0.330498 4.59814 0
M  V30 126 H 13.9748 2.55672 6.49059 0
M  V30 127 H 9.8718 1.33454 6.31554 0
M  V30 128 H 10.6398 2.93116 7.64215 0
M  V30 129 N 13.3029 -1.57598 0.00835791 0
M  V30 130 C 14.2129 -2.12385 -0.996487 0
M  V30 131 C 15.2289 -1.07108 -1.37127 0
M  V30 132 O 16.4049 -1.39055 -1.4569 0
M  V30 133 C 13.4699 -2.62314 -2.26699 0
M  V30 134 C 12.5309 -3.82225 -1.95456 0
M  V30 135 C 11.7639 -4.29763 -3.16449 0
M  V30 136 O 11.9869 -3.76584 -4.28416 0
M  V30 137 O 10.9209 -5.21832 -2.99958 0
M  V30 138 H 14.7469 -2.98479 -0.560725 0
M  V30 139 H 12.3319 -1.47903 -0.210987 0
M  V30 140 H 14.2139 -2.94589 -3.01322 0
M  V30 141 H 12.8889 -1.79313 -2.69497 0
M  V30 142 H 11.7959 -3.54909 -1.18282 0
M  V30 143 H 13.1289 -4.66324 -1.57489 0
M  V30 144 N 14.781 0.264519 -1.55364 0
M  V30 145 C 15.711 1.33121 -1.91836 0
M  V30 146 C 16.692 1.51101 -0.781192 0
M  V30 147 O 17.877 1.64003 -1.04003 0
M  V30 148 C 15.007 2.68921 -2.19769 0
M  V30 149 C 13.961 2.65661 -3.35571 0
M  V30 150 C 13.287 4.05093 -3.49004 0
M  V30 151 C 14.587 2.24187 -4.71739 0
M  V30 152 H 16.281 1.02844 -2.81182 0
M  V30 153 H 13.827 0.493286 -1.35287 0
M  V30 154 H 15.78 3.43663 -2.43872 0
M  V30 155 H 14.504 3.00799 -1.27231 0
M  V30 156 H 13.163 1.93377 -3.1145 0
M  V30 157 H 12.811 4.34206 -2.53917 0
M  V30 158 H 12.511 4.03804 -4.26868 0
M  V30 159 H 14.035 4.81561 -3.75408 0
M  V30 160 H 15.449 2.88654 -4.9533 0
M  V30 161 H 13.846 2.34044 -5.52579 0
M  V30 162 H 14.916 1.19327 -4.69988 0
M  V30 163 N 16.2591 1.48442 0.529413 0
M  V30 164 C 17.1891 1.65902 1.64313 0
M  V30 165 C 18.1701 0.507897 1.6234 0
M  V30 166 O 19.3551 0.740503 1.79528 0
M  V30 167 C 16.4851 1.69911 3.02898 0
M  V30 168 C 15.4391 2.8453 3.19729 0
M  V30 169 C 14.7651 2.73629 4.59381 0
M  V30 170 C 16.0651 4.25821 3.02447 0
M  V30 171 H 17.7591 2.5914 1.49955 0
M  V30 172 H 15.3051 1.24709 0.719982 0
M  V30 173 H 17.2581 1.80715 3.80684 0
M  V30 174 H 15.9821 0.732524 3.18279 0
M  V30 175 H 14.6411 2.73283 2.44361 0
M  V30 176 H 14.2891 1.74938 4.71599 0
M  V30 177 H 13.9891 3.50541 4.71588 0
M  V30 178 H 15.5131 2.86401 5.39265 0
M  V30 179 H 16.9271 4.37898 3.70024 0
M  V30 180 H 15.3241 5.03735 3.26146 0
M  V30 181 H 16.3941 4.42244 1.98867 0
M  V30 182 N 17.7372 -0.778329 1.37039 0
M  V30 183 C 19.1532 -1.07796 1.17695 0
M  V30 184 C 19.3532 -2.01498 0.00860115 0
M  V30 185 O 18.4092 -2.43901 -0.653352 0
M  V30 186 C 19.7222 -1.68178 2.49272 0
M  V30 187 C 21.2702 -1.80467 2.55735 0
M  V30 188 C 21.7452 -2.44263 3.87427 0
M  V30 189 N 23.2362 -2.51721 3.88833 0
M  V30 190 C 23.9712 -3.01919 4.87476 0
M  V30 191 N 23.4672 -3.5234 5.96513 0
M  V30 192 N 25.2602 -3.00733 4.74885 0
M  V30 193 H 17.4112 -0.156032 2.11826 0
M  V30 194 H 19.6742 -0.131844 0.938787 0
M  V30 195 H 19.3802 -1.06796 3.35093 0
M  V30 196 H 19.2542 -2.67554 2.65885 0
M  V30 197 H 21.6412 -2.40984 1.70325 0
M  V30 198 H 21.7222 -0.798656 2.43013 0
M  V30 199 H 21.3662 -1.84388 4.73248 0
M  V30 200 H 21.2962 -3.45458 3.9745 0
M  V30 201 H 23.7872 -2.1603 3.10063 0
M  V30 202 H 24.1002 -3.89027 6.67741 0
M  V30 203 H 22.4452 -3.50462 6.00168 0
M  V30 204 H 25.6362 -2.60638 3.88826 0
M  V30 205 H 25.8092 -3.39545 5.51918 0
M  V30 206 N 19.2153 -1.21501 -1.00376 0
M  V30 207 C 20.6313 -0.972629 -1.26539 0
M  V30 208 C 20.8313 0.340257 -1.98606 0
M  V30 209 O 19.8873 1.06561 -2.28913 0
M  V30 210 C 21.2003 -2.16404 -2.08781 0
M  V30 211 C 22.7483 -2.20643 -2.22004 0
M  V30 212 C 23.2233 -3.39306 -3.07629 0
M  V30 213 N 24.7143 -3.39401 -3.15217 0
M  V30 214 C 25.4493 -4.27867 -3.81729 0
M  V30 215 N 24.9453 -5.26533 -4.5026 0
M  V30 216 N 26.7383 -4.15672 -3.78382 0
M  V30 217 H 18.8893 -2.05929 -0.520281 0
M  V30 218 H 21.1523 -0.901803 -0.292328 0
M  V30 219 H 20.8583 -3.11554 -1.63178 0
M  V30 220 H 20.7323 -2.15567 -3.09533 0
M  V30 221 H 23.1193 -1.26048 -2.66825 0
M  V30 222 H 23.2003 -2.25523 -1.20718 0
M  V30 223 H 22.8443 -4.34195 -2.63509 0
M  V30 224 H 22.7743 -3.31665 -4.09031 0
M  V30 225 H 25.2653 -2.67997 -2.66432 0
M  V30 226 H 25.5783 -5.90337 -4.98721 0
M  V30 227 H 23.9233 -5.30457 -4.49044 0
M  V30 228 H 27.1143 -3.3785 -3.23998 0
M  V30 229 H 27.2873 -4.84825 -4.2994 0
M  V30 230 N 20.6934 1.19889 -1.02296 0
M  V30 231 C 21.6254 2.22334 -0.556787 0
M  V30 232 C 22.6384 1.58674 0.364199 0
M  V30 233 O 23.8274 1.77768 0.161533 0
M  V30 234 C 20.9274 3.38257 0.208694 0
M  V30 235 C 20.1004 4.31504 -0.71577 0
M  V30 236 C 19.1594 5.262 0.00325597 0
M  V30 237 O 18.1854 5.65798 -0.621357 0
M  V30 238 N 19.3874 5.66303 1.27599 0
M  V30 239 H 22.1524 2.62957 -1.43784 0
M  V30 240 H 19.7134 1.34495 -0.901261 0
M  V30 241 H 21.7054 3.98616 0.699111 0
M  V30 242 H 20.2754 2.96472 0.991102 0
M  V30 243 H 19.4954 3.69016 -1.38638 0
M  V30 244 H 20.7834 4.9072 -1.34428 0
M  V30 245 H 20.1814 5.36155 1.80429 0
M  V30 246 H 18.7384 6.28942 1.71102 0
M  V30 247 N 22.1715 0.800033 1.35784 0
M  V30 248 C 23.4195 0.376597 1.9856 0
M  V30 249 C 23.7405 -1.05812 1.63795 0
M  V30 250 O 23.0105 -1.73103 0.917171 0
M  V30 251 H 21.5905 0.136261 0.734467 0
M  V30 252 H 24.2525 1.02442 1.65806 0
M  V30 253 H 23.3485 0.477002 3.08433 0
M  V30 254 N 23.6496 -1.47581 0.552962 0
M  V30 255 C 24.8986 -2.01684 0.0251995 0
M  V30 256 C 25.2116 -1.43317 -1.33115 0
M  V30 257 O 26.4176 -1.89057 -1.94858 0
M  V30 258 C 24.8736 -3.599 -0.00542052 0
M  V30 259 C 24.4816 -4.27257 1.34742 0
M  V30 260 C 26.2256 -4.21768 -0.4808 0
M  V30 261 C 24.1326 -5.77467 1.27614 0
M  V30 262 H 23.0626 -0.753979 0.00565033 0
M  V30 263 H 25.7136 -1.69616 0.70018 0
M  V30 264 H 24.0956 -3.88911 -0.745961 0
M  V30 265 H 25.2696 -4.09893 2.10534 0
M  V30 266 H 23.5846 -3.77358 1.76039 0
M  V30 267 H 26.1816 -5.31838 -0.55246 0
M  V30 268 H 26.5246 -3.88651 -1.49184 0
M  V30 269 H 27.0576 -3.97273 0.204752 0
M  V30 270 H 23.7966 -6.15196 2.26304 0
M  V30 271 H 23.3166 -5.9718 0.55996 0
M  V30 272 H 24.9956 -6.3959 0.976421 0
M  V30 273 N 25.1277 -0.289203 -1.54924 0
M  V30 274 C 26.4047 0.376032 -1.91951 0
M  V30 275 C 26.7847 1.72622 -1.21511 0
M  V30 276 O 26.1327 2.25853 -0.346767 0
M  V30 277 C 26.3427 0.502378 -3.45365 0
M  V30 278 C 27.6907 0.778741 -4.17398 0
M  V30 279 O 28.7147 0.586647 -3.51336 0
M  V30 280 O 27.5737 1.14698 -5.34328 0
M  V30 281 H 24.6677 0.208167 -0.800372 0
M  V30 282 H 27.2137 -0.336394 -1.66332 0
M  V30 283 H 25.9857 -0.447255 -3.88736 0
M  V30 284 H 25.6087 1.26373 -3.76982 0
M  V30 285 N 26.6058 1.57591 -0.0167156 0
M  V30 286 C 27.8338 1.95575 0.675128 0
M  V30 287 C 28.2488 0.892542 1.6637 0
M  V30 288 O 27.6058 -0.126912 1.82058 0
M  V30 289 C 27.6568 3.33608 1.39239 0
M  V30 290 O 27.3778 4.3585 0.443444 0
M  V30 291 C 28.8788 3.86151 2.17721 0
M  V30 292 H 26.0988 0.644423 0.186978 0
M  V30 293 H 28.6428 2.0437 -0.0728 0
M  V30 294 H 26.7978 3.2607 2.09182 0
M  V30 295 H 27.2118 5.158 0.951358 0
M  V30 296 H 28.6858 4.85114 2.63379 0
M  V30 297 H 29.1628 3.19738 3.01105 0
M  V30 298 H 29.7688 3.96918 1.52761 0
M  V30 299 N 28.0839 -0.256276 1.55502 0
M  V30 300 C 29.3299 -0.987079 1.77157 0
M  V30 301 C 29.6629 -1.85327 0.580315 0
M  V30 302 O 28.9379 -1.89874 -0.421686 0
M  V30 303 C 29.2209 -1.85553 3.08613 0
M  V30 304 C 29.0739 -1.01816 4.38125 0
M  V30 305 C 30.3929 -2.8397 3.36228 0
M  V30 306 H 27.5119 -0.357428 0.644526 0
M  V30 307 H 30.1539 -0.258239 1.88237 0
M  V30 308 H 28.3039 -2.47695 2.99298 0
M  V30 309 H 29.9759 -0.416159 4.59419 0
M  V30 310 H 28.2189 -0.322178 4.32602 0
M  V30 311 H 28.8899 -1.65939 5.26468 0
M  V30 312 H 31.3659 -2.31964 3.45445 0
M  V30 313 H 30.2419 -3.41864 4.29442 0
M  V30 314 H 30.5029 -3.59955 2.56681 0
M  V30 315 N 29.562 -1.4872 -0.521534 0
M  V30 316 C 30.809 -1.57168 -1.27689 0
M  V30 317 C 31.137 -0.249275 -1.92896 0
M  V30 318 O 30.392 0.761162 -1.80291 0
M  V30 319 C 30.691 -2.66497 -2.38148 0
M  V30 320 C 30.357 -4.08664 -1.90538 0
M  V30 321 C 29.019 -4.47357 -1.77271 0
M  V30 322 C 31.371 -4.97724 -1.54663 0
M  V30 323 C 28.699 -5.72905 -1.26478 0
M  V30 324 C 31.051 -6.2377 -1.05329 0
M  V30 325 C 29.715 -6.61311 -0.906861 0
M  V30 326 H 28.985 -0.575117 -0.467249 0
M  V30 327 H 31.632 -1.82472 -0.581051 0
M  V30 328 H 29.937 -2.35085 -3.13437 0
M  V30 329 H 31.634 -2.70246 -2.96257 0
M  V30 330 H 28.224 -3.78111 -2.01816 0
M  V30 331 H 32.408 -4.68501 -1.63768 0
M  V30 332 H 27.664 -6.00709 -1.13835 0
M  V30 333 H 31.838 -6.9217 -0.76644 0
M  V30 334 H 29.465 -7.5848 -0.511083 0
M  V30 335 N 31.0401 0.771051 -1.3745 0
M  V30 336 C 32.2881 1.52661 -1.32435 0
M  V30 337 C 32.6091 1.9479 0.0905024 0
M  V30 338 O 31.8791 1.66348 1.03466 0
M  V30 339 H 30.4591 0.566218 -0.487244 0
M  V30 340 H 33.1211 0.917636 -1.71946 0
M  V30 341 H 32.2171 2.42568 -1.96385 0
M  V30 342 N 32.5182 1.22032 0.997298 0
M  V30 343 C 33.4662 0.983634 2.10778 0
M  V30 344 C 34.4602 -0.0717564 1.69248 0
M  V30 345 O 35.6662 0.080304 1.79821 0
M  V30 346 H 32.0412 0.300877 0.689186 0
M  V30 347 H 34.0122 1.92606 2.27916 0
M  V30 348 C 32.7612 0.57326 3.42942 0
M  V30 349 H 32.0842 1.37702 3.75338 0
M  V30 350 H 33.5242 0.447031 4.21637 0
M  V30 351 C 31.9832 -0.7167 3.29188 0
M  V30 352 O 32.5132 -1.77027 3.60589 0
M  V30 353 N 30.7192 -0.686167 2.82383 0
M  V30 354 H 30.2662 0.171507 2.57028 0
M  V30 355 H 30.2242 -1.54955 2.73562 0
M  V30 356 N 33.9963 -1.19345 1.0293 0
M  V30 357 C 35.4073 -1.70725 0.755633 0
M  V30 358 C 35.7583 -1.82326 -0.724676 0
M  V30 359 O 34.8833 -1.49471 -1.56484 0
M  V30 360 C 35.4783 -3.10084 1.36503 0
M  V30 361 C 34.0373 -3.58723 1.13994 0
M  V30 362 C 33.1843 -2.35577 1.46283 0
M  V30 363 H 36.1353 -1.0418 1.19718 0
M  V30 364 H 36.1563 -3.72787 0.762217 0
M  V30 365 H 35.6683 -3.01609 2.44241 0
M  V30 366 H 33.7693 -3.72512 0.0807901 0
M  V30 367 H 33.8823 -4.42816 1.82894 0
M  V30 368 H 32.2463 -2.38935 0.88217 0
M  V30 369 H 33.0293 -2.29731 2.55105 0
M  V30 370 N 35.4744 -0.807222 -1.35358 0
M  V30 371 C 36.7224 -0.387122 -1.98358 0
M  V30 372 C 37.0434 1.04942 -1.64354 0
M  V30 373 O 36.3134 1.72615 -0.926339 0
M  V30 374 H 34.8934 -0.140154 -0.733734 0
M  V30 375 H 37.5554 -1.0332 -1.6526 0
M  V30 376 H 36.6514 -0.493352 -3.08176 0
M  V30 377 N 36.9525 1.47285 -0.560781 0
M  V30 378 C 38.1775 2.07359 -0.0410566 0
M  V30 379 C 38.6025 1.41017 1.24483 0
M  V30 380 O 37.9605 0.486368 1.74654 0
M  V30 381 C 38.0085 3.6035 0.134123 0
M  V30 382 O 37.1125 3.94681 1.19587 0
M  V30 383 H 36.4535 0.661887 -0.0529291 0
M  V30 384 H 38.9835 1.89252 -0.777482 0
M  V30 385 H 38.9935 4.0652 0.347207 0
M  V30 386 H 37.6685 4.08034 -0.805047 0
M  V30 387 H 36.2455 3.60251 0.962987 0
M  V30 388 N 38.4306 0.297415 1.54768 0
M  V30 389 C 39.3786 -0.596051 2.24833 0
M  V30 390 C 40.3726 -1.13992 1.25308 0
M  V30 391 O 41.5786 -1.09098 1.4317 0
M  V30 392 H 37.9536 -0.210814 0.721846 0
M  V30 393 H 39.9246 0.0174667 2.98395 0
M  V30 394 C 38.6736 -1.75818 2.99972 0
M  V30 395 H 37.9966 -1.3489 3.76357 0
M  V30 396 H 39.4366 -2.35949 3.52284 0
M  V30 397 C 37.8956 -2.66014 2.06732 0
M  V30 398 O 38.4256 -3.67009 1.63302 0
M  V30 399 N 36.6316 -2.33669 1.72763 0
M  V30 400 H 36.1786 -1.51586 2.08277 0
M  V30 401 H 36.1366 -2.94285 1.10652 0
M  V30 402 N 39.9087 -1.5758 0.0250728 0
M  V30 403 C 40.8187 -2.1343 -0.973905 0
M  V30 404 C 41.8347 -1.08556 -1.35984 0
M  V30 405 O 43.0107 -1.40592 -1.44207 0
M  V30 406 C 40.0757 -2.64703 -2.23904 0
M  V30 407 C 39.1367 -3.84276 -1.91391 0
M  V30 408 C 38.3697 -4.33095 -3.11873 0
M  V30 409 O 38.5927 -3.81107 -4.24398 0
M  V30 410 O 37.5267 -5.24984 -2.94406 0
M  V30 411 H 41.3527 -2.99057 -0.529036 0
M  V30 412 H 38.9377 -1.48118 -0.195288 0
M  V30 413 H 40.8197 -2.97769 -2.98181 0
M  V30 414 H 39.4947 -1.82161 -2.6758 0
M  V30 415 H 38.4017 -3.56143 -1.14511 0
M  V30 416 H 39.7347 -4.67968 -1.52534 0
M  V30 417 N 41.3868 0.248026 -1.55636 0
M  V30 418 C 42.3168 1.31079 -1.93237 0
M  V30 419 C 43.2978 1.50264 -0.797174 0
M  V30 420 O 44.4828 1.62891 -1.05737 0
M  V30 421 C 41.6128 2.66575 -2.22609 0
M  V30 422 C 40.5668 2.62087 -3.3837 0
M  V30 423 C 39.8928 4.01369 -3.53281 0
M  V30 424 C 41.1928 2.19171 -4.7409 0
M  V30 425 H 42.8868 0.998556 -2.82257 0
M  V30 426 H 40.4328 0.47891 -1.35803 0
M  V30 427 H 42.3858 3.41057 -2.47503 0
M  V30 428 H 41.1098 2.99432 -1.30414 0
M  V30 429 H 39.7688 1.90063 -3.13483 0
M  V30 430 H 39.4168 4.31489 -2.58508 0
M  V30 431 H 39.1168 3.99254 -4.31127 0
M  V30 432 H 40.6408 4.77552 -3.80495 0
M  V30 433 H 42.0548 2.83384 -4.98363 0
M  V30 434 H 40.4518 2.2817 -5.5503 0
M  V30 435 H 41.5218 1.14336 -4.71227 0
M  V30 436 N 42.8649 1.48995 0.513639 0
M  V30 437 C 44.2759 1.5119 1.09537 0
M  V30 438 C 44.6269 0.290906 1.94031 0
M  V30 439 O 43.7519 -0.60049 2.07902 0
M  V30 440 C 44.3469 2.73964 1.99322 0
M  V30 441 C 42.9059 2.78978 2.52682 0
M  V30 442 C 42.0529 2.44934 1.30009 0
M  V30 443 H 45.0039 1.55875 0.298125 0
M  V30 444 H 45.0249 2.53409 2.83838 0
M  V30 445 H 44.5369 3.62813 1.37799 0
M  V30 446 H 42.6379 1.94378 3.1788 0
M  V30 447 H 42.7509 3.8083 2.90698 0
M  V30 448 H 41.1149 1.9644 1.62122 0
M  V30 449 H 41.8979 3.36043 0.702131 0
M  V30 450 N 44.343 -0.763751 1.37857 0
M  V30 451 C 45.59 -1.52257 1.33506 0
M  V30 452 C 45.918 -1.94343 -0.078022 0
M  V30 453 O 45.173 -1.64958 -1.05297 0
M  V30 454 C 45.472 -2.79499 2.22745 0
M  V30 455 C 45.138 -2.56426 3.70886 0
M  V30 456 C 43.8 -2.49842 4.11257 0
M  V30 457 C 46.152 -2.36008 4.64704 0
M  V30 458 C 43.48 -2.20841 5.43549 0
M  V30 459 C 45.832 -2.0853 5.97242 0
M  V30 460 C 44.496 -2.00396 6.36709 0
M  V30 461 H 43.766 -0.557149 0.488534 0
M  V30 462 H 46.413 -0.879073 1.70131 0
M  V30 463 H 44.718 -3.48447 1.79142 0
M  V30 464 H 46.415 -3.37413 2.16688 0
M  V30 465 H 43.005 -2.62416 3.38874 0
M  V30 466 H 47.189 -2.40079 4.34368 0
M  V30 467 H 42.445 -2.13045 5.73081 0
M  V30 468 H 46.619 -1.91732 6.69486 0
M  V30 469 H 44.246 -1.77688 7.39142 0
M  V30 470 N 45.8211 -1.22559 -0.990812 0
M  V30 471 C 46.7511 -1.0218 -2.09956 0
M  V30 472 C 47.7321 0.0579394 -1.70001 0
M  V30 473 O 48.9171 -0.104684 -1.93918 0
M  V30 474 C 46.0471 -0.601023 -3.4206 0
M  V30 475 C 45.0011 -1.62694 -3.95872 0
M  V30 476 C 44.3271 -1.06193 -5.24049 0
M  V30 477 C 45.6271 -3.01743 -4.2632 0
M  V30 478 H 47.3211 -1.94916 -2.27262 0
M  V30 479 H 44.8671 -0.938566 -1.09211 0
M  V30 480 H 46.8201 -0.445561 -4.19038 0
M  V30 481 H 45.5441 0.362005 -3.24588 0
M  V30 482 H 44.2031 -1.77021 -3.21028 0
M  V30 483 H 43.8511 -0.0901903 -5.02919 0
M  V30 484 H 43.5511 -1.74732 -5.61019 0
M  V30 485 H 45.0751 -0.918092 -6.03658 0
M  V30 486 H 46.4891 -2.90777 -4.94087 0
M  V30 487 H 44.8861 -3.67425 -4.74467 0
M  V30 488 H 45.9561 -3.51518 -3.34011 0
M  V30 489 N 47.2992 1.18797 -1.03562 0
M  V30 490 C 48.2462 2.22253 -0.622259 0
M  V30 491 C 49.2162 1.61987 0.36736 0
M  V30 492 O 50.4012 1.88986 0.262492 0
M  V30 493 C 47.5412 3.45097 0.0138462 0
M  V30 494 C 46.6542 4.19722 -1.02263 0
M  V30 495 C 45.7892 5.30009 -0.355573 0
M  V30 496 C 44.8282 5.96399 -1.37749 0
M  V30 497 N 43.9652 6.98234 -0.735766 0
M  V30 498 H 48.8052 2.56968 -1.50903 0
M  V30 499 H 46.3422 1.26245 -0.755017 0
M  V30 500 H 48.3002 4.15279 0.399948 0
M  V30 501 H 46.9302 3.11018 0.864158 0
M  V30 502 H 45.9822 3.48418 -1.52673 0
M  V30 503 H 47.2942 4.65227 -1.79903 0
M  V30 504 H 46.4482 6.0664 0.0850095 0
M  V30 505 H 45.1872 4.85592 0.452967 0
M  V30 506 H 44.1922 5.18512 -1.82826 0
M  V30 507 H 45.4172 6.42899 -2.18764 0
M  V30 508 H 43.3632 6.55979 0.0525597 0
M  V30 509 H 43.2802 7.41965 -1.44995 0
M  V30 510 H 44.5482 7.78845 -0.31941 0
M  V30 511 N 48.7773 0.814389 1.34928 0
M  V30 512 C 50.0543 0.321363 1.92942 0
M  V30 513 C 50.4343 -1.19014 1.74353 0
M  V30 514 O 49.7823 -1.99328 1.11716 0
M  V30 515 C 49.9923 0.741323 3.41036 0
M  V30 516 C 51.3403 0.735266 4.18185 0
M  V30 517 O 52.3643 0.68336 3.49584 0
M  V30 518 O 51.2233 0.800703 5.40602 0
M  V30 519 H 48.3173 0.0858893 0.822528 0
M  V30 520 H 50.8633 0.898609 1.43955 0
M  V30 521 H 49.6353 1.78276 3.4833 0
M  V30 522 H 49.2583 0.139307 3.97356 0
M  V30 523 N 50.2554 -1.46986 0.568584 0
M  V30 524 C 51.5024 -2.02441 0.0487986 0
M  V30 525 C 51.8304 -1.44169 -1.30559 0
M  V30 526 O 51.0854 -0.591213 -1.86556 0
M  V30 527 C 51.3844 -3.57306 -0.081836 0
M  V30 528 C 51.0504 -4.34552 1.20313 0
M  V30 529 C 49.7124 -4.55376 1.5552 0
M  V30 530 C 52.0644 -4.79016 2.05411 0
M  V30 531 C 49.3924 -5.17913 2.7565 0
M  V30 532 C 51.7444 -5.42879 3.24754 0
M  V30 533 C 50.4084 -5.61933 3.60261 0
M  V30 534 H 49.6784 -0.740785 0.0178567 0
M  V30 535 H 52.3254 -1.76525 0.742384 0
M  V30 536 H 50.6304 -3.8228 -0.858463 0
M  V30 537 H 52.3274 -3.97876 -0.499546 0
M  V30 538 H 48.9174 -4.18631 0.919014 0
M  V30 539 H 53.1014 -4.62696 1.79516 0
M  V30 540 H 48.3574 -5.30858 3.03315 0
M  V30 541 H 52.5314 -5.76293 3.90973 0
M  V30 542 H 50.1584 -6.10161 4.53439 0
M  V30 543 N 51.7335 -0.305618 -1.54608 0
M  V30 544 C 53.1445 0.186098 -1.8577 0
M  V30 545 C 53.4955 1.53058 -1.22751 0
M  V30 546 O 52.6205 2.09888 -0.526893 0
M  V30 547 C 53.2155 0.344449 -3.37044 0
M  V30 548 C 51.7745 0.780384 -3.68221 0
M  V30 549 C 50.9215 -0.108554 -2.77087 0
M  V30 550 H 53.8725 -0.526485 -1.49712 0
M  V30 551 H 53.8935 1.17828 -3.61796 0
M  V30 552 H 53.4055 -0.634235 -3.82883 0
M  V30 553 H 51.5065 1.76945 -3.27904 0
M  V30 554 H 51.6195 0.596572 -4.75371 0
M  V30 555 H 49.9835 0.412931 -2.5133 0
M  V30 556 H 50.7665 -1.08368 -3.25747 0
M  V30 557 N 53.2116 1.57565 -0.0334293 0
M  V30 558 C 54.1216 2.13943 0.962572 0
M  V30 559 C 55.1376 1.09276 1.35406 0
M  V30 560 O 56.3136 1.41355 1.4346 0
M  V30 561 C 53.3786 2.65887 2.22497 0
M  V30 562 C 52.4396 3.85286 1.8935 0
M  V30 563 C 51.6726 4.34743 3.09571 0
M  V30 564 O 51.8956 3.83352 4.22371 0
M  V30 565 O 50.8296 5.26538 2.91618 0
M  V30 566 H 54.6556 2.99333 0.513169 0
M  V30 567 H 52.2406 1.4822 0.18743 0
M  V30 568 H 54.1226 2.99346 2.96598 0
M  V30 569 H 52.7976 1.83578 2.6661 0
M  V30 570 H 51.7046 3.56746 1.1262 0
M  V30 571 H 53.0376 4.68771 1.5005 0
M  V30 572 N 54.6897 -0.239769 1.55765 0
M  V30 573 C 55.9667 -0.990056 1.68693 0
M  V30 574 C 56.3467 -2.03107 0.5754 0
M  V30 575 O 55.6947 -2.24604 -0.42017 0
M  V30 576 C 55.9047 -1.61696 3.09282 0
M  V30 577 C 57.2527 -2.11613 3.6811 0
M  V30 578 O 58.2767 -1.71624 3.12127 0
M  V30 579 O 57.1357 -2.85057 4.66267 0
M  V30 580 H 54.2297 -0.461299 0.686391 0
M  V30 581 H 56.7757 -0.232991 1.68093 0
M  V30 582 H 55.5477 -0.864357 3.81634 0
M  V30 583 H 55.1707 -2.44005 3.13923 0
M  V30 584 N 56.1678 -1.49265 -0.50573 0
M  V30 585 C 57.4148 -1.58513 -1.26015 0
M  V30 586 C 57.7428 -0.26972 -1.92621 0
M  V30 587 O 56.9978 0.741997 -1.81088 0
M  V30 588 C 57.2968 -2.69008 -2.35308 0
M  V30 589 C 56.9628 -4.10662 -1.86192 0
M  V30 590 C 55.6248 -4.49212 -1.72516 0
M  V30 591 C 57.9768 -4.99336 -1.49375 0
M  V30 592 C 55.3048 -5.74214 -1.20394 0
M  V30 593 C 57.6568 -6.24852 -0.987072 0
M  V30 594 C 56.3208 -6.62236 -0.836669 0
M  V30 595 H 55.5908 -0.580041 -0.461122 0
M  V30 596 H 58.2378 -1.83078 -0.561665 0
M  V30 597 H 56.5428 -2.38396 -3.10926 0
M  V30 598 H 58.2398 -2.73373 -2.93374 0
M  V30 599 H 54.8298 -3.8023 -1.97795 0
M  V30 600 H 59.0138 -4.70212 -1.5879 0
M  V30 601 H 54.2698 -6.01883 -1.07458 0
M  V30 602 H 58.4438 -6.92944 -0.692983 0
M  V30 603 H 56.0708 -7.58979 -0.430607 0
M  V30 604 N 57.6459 0.756429 -1.3826 0
M  V30 605 C 59.0619 1.0591 -1.19395 0
M  V30 606 C 59.2619 2.01459 -0.0406567 0
M  V30 607 O 58.3179 2.44909 0.614467 0
M  V30 608 C 59.6309 1.64191 -2.51916 0
M  V30 609 C 61.1789 1.76376 -2.58574 0
M  V30 610 C 61.6539 2.38069 -3.91264 0
M  V30 611 N 63.1449 2.45503 -3.92788 0
M  V30 612 C 63.8799 2.94126 -4.92217 0
M  V30 613 N 63.3759 3.42805 -6.02043 0
M  V30 614 N 65.1689 2.9314 -4.7961 0
M  V30 615 H 57.3199 0.122313 -2.12048 0
M  V30 616 H 59.5829 0.116892 -0.940766 0
M  V30 617 H 59.2889 1.01451 -3.3675 0
M  V30 618 H 59.1629 2.6329 -2.70108 0
M  V30 619 H 61.5499 2.38244 -1.74137 0
M  V30 620 H 61.6309 0.759894 -2.44252 0
M  V30 621 H 61.2749 1.76835 -4.76121 0
M  V30 622 H 61.2049 3.39091 -4.02895 0
M  V30 623 H 63.6959 2.1107 -3.13461 0
M  V30 624 H 64.0089 3.78354 -6.73846 0
M  V30 625 H 62.3539 3.4087 -6.05667 0
M  V30 626 H 65.5449 2.54419 -3.92923 0
M  V30 627 H 65.7179 3.30721 -5.5725 0
M  V30 628 N 59.124 1.23083 0.984299 0
M  V30 629 C 60.354 1.08556 1.75781 0
M  V30 630 C 60.762 -0.366171 1.85623 0
M  V30 631 O 60.105 -1.26524 1.33182 0
M  V30 632 C 60.167 1.63208 3.20318 0
M  V30 633 C 59.831 3.11922 3.33997 0
M  V30 634 C 60.828 4.09259 3.2063 0
M  V30 635 C 58.513 3.51552 3.58771 0
M  V30 636 C 60.507 5.4421 3.31835 0
M  V30 637 C 58.194 4.86649 3.69616 0
M  V30 638 C 59.192 5.82787 3.56157 0
M  V30 639 O 58.88 7.15431 3.66626 0
M  V30 640 H 58.612 0.380713 0.5586 0
M  V30 641 H 61.166 1.63321 1.2456 0
M  V30 642 H 59.396 1.0286 3.72769 0
M  V30 643 H 61.085 1.44216 3.79416 0
M  V30 644 H 61.851 3.79984 3.01392 0
M  V30 645 H 57.73 2.77239 3.6832 0
M  V30 646 H 61.274 6.1923 3.21247 0
M  V30 647 H 57.171 5.15601 3.88363 0
M  V30 648 H 57.939 7.23127 3.83445 0
M  V30 649 N 60.6021 -1.18246 1.0419 0
M  V30 650 C 61.8511 -1.87588 0.741194 0
M  V30 651 C 62.1641 -1.81303 -0.734066 0
M  V30 652 O 63.3701 -2.46019 -1.14834 0
M  V30 653 C 61.8261 -3.36538 1.27555 0
M  V30 654 C 61.4341 -3.51349 2.77953 0
M  V30 655 C 63.1781 -4.11273 1.05143 0
M  V30 656 C 61.0851 -4.94265 3.2474 0
M  V30 657 H 60.0151 -0.702622 0.273565 0
M  V30 658 H 62.6661 -1.33601 1.25789 0
M  V30 659 H 61.0481 -3.9 0.686703 0
M  V30 660 H 62.2221 -3.08153 3.42605 0
M  V30 661 H 60.5371 -2.90022 2.98791 0
M  V30 662 H 63.1341 -5.16689 1.37611 0
M  V30 663 H 63.4771 -4.16298 -0.0112774 0
M  V30 664 H 64.0101 -3.63987 1.60495 0
M  V30 665 H 60.7491 -4.94408 4.30396 0
M  V30 666 H 60.2691 -5.38172 2.64823 0
M  V30 667 H 61.9481 -5.62987 3.18834 0
M  V30 668 N 62.0802 -0.821533 -1.34494 0
M  V30 669 C 63.0102 -0.257138 -2.3208 0
M  V30 670 C 63.9912 0.625645 -1.58176 0
M  V30 671 O 65.1762 0.552811 -1.86166 0
M  V30 672 C 62.3062 0.582958 -3.42372 0
M  V30 673 C 61.2602 -0.202571 -4.2752 0
M  V30 674 C 60.5862 0.760179 -5.29269 0
M  V30 675 C 61.8862 -1.40998 -5.02908 0
M  V30 676 H 63.5802 -1.07247 -2.79532 0
M  V30 677 H 61.1262 -0.517163 -1.34393 0
M  V30 678 H 63.0792 0.987972 -4.09655 0
M  V30 679 H 61.8032 1.43133 -2.93565 0
M  V30 680 H 60.4622 -0.588936 -3.61838 0
M  V30 681 H 60.1102 1.60447 -4.76724 0
M  V30 682 H 59.8102 0.238809 -5.87115 0
M  V30 683 H 61.3342 1.16308 -5.9942 0
M  V30 684 H 62.7482 -1.07905 -5.63054 0
M  V30 685 H 61.1452 -1.86689 -5.70322 0
M  V30 686 H 62.2152 -2.1889 -4.32684 0
M  V30 687 N 63.5583 1.46682 -0.576371 0
M  V30 688 C 64.5213 2.28707 0.150239 0
M  V30 689 C 65.5213 1.38035 0.824794 0
M  V30 690 O 66.7113 1.60476 0.677719 0
M  V30 691 C 63.8433 3.18248 1.22192 0
M  V30 692 H 65.0363 2.94423 -0.570521 0
M  V30 693 H 62.5893 1.52688 -0.334078 0
M  V30 694 H 63.3243 2.57265 1.97447 0
M  V30 695 H 63.1093 3.85 0.742812 0
M  V30 696 H 64.5993 3.80001 1.73172 0
M  V30 697 N 65.0364 0.313813 1.54444 0
M  V30 698 C 65.9664 -0.549454 2.26943 0
M  V30 699 C 66.9474 -1.12741 1.27372 0
M  V30 700 O 68.1324 -1.15436 1.56167 0
M  V30 701 C 65.2624 -1.71523 3.01989 0
M  V30 702 C 64.2164 -1.26703 4.08816 0
M  V30 703 C 63.5424 -2.51898 4.71647 0
M  V30 704 C 64.8424 -0.388962 5.2085 0
M  V30 705 H 66.5364 0.0552661 2.99349 0
M  V30 706 H 64.0824 0.0280207 1.43973 0
M  V30 707 H 66.0354 -2.32535 3.51433 0
M  V30 708 H 64.7594 -2.34639 2.27183 0
M  V30 709 H 63.4184 -0.679896 3.6024 0
M  V30 710 H 63.0664 -3.13356 3.93468 0
M  V30 711 H 62.7664 -2.22605 5.43802 0
M  V30 712 H 64.2904 -3.1369 5.23861 0
M  V30 713 H 65.7044 -0.905107 5.6611 0
M  V30 714 H 64.1014 -0.18924 5.99802 0
M  V30 715 H 65.1714 0.582699 4.81386 0
M  V30 716 N 66.5145 -1.57545 0.0417849 0
M  V30 717 C 67.4465 -2.07904 -0.964799 0
M  V30 718 C 68.4595 -1.00497 -1.28079 0
M  V30 719 O 69.6485 -1.28087 -1.24322 0
M  V30 720 C 66.7485 -2.49928 -2.28887 0
M  V30 721 C 65.9215 -3.80562 -2.15619 0
M  V30 722 C 64.9805 -4.08999 -3.31069 0
M  V30 723 O 64.0065 -4.79061 -3.0739 0
M  V30 724 N 65.2085 -3.6017 -4.55256 0
M  V30 725 H 67.9735 -2.94886 -0.535029 0
M  V30 726 H 65.5345 -1.61252 -0.144681 0
M  V30 727 H 67.5265 -2.66034 -3.04972 0
M  V30 728 H 66.0965 -1.68245 -2.63463 0
M  V30 729 H 65.3165 -3.74129 -1.24183 0
M  V30 730 H 66.6045 -4.66126 -2.03971 0
M  V30 731 H 66.0025 -3.03512 -4.77386 0
M  V30 732 H 64.5595 -3.81532 -5.28466 0
M  V30 733 N 67.9926 0.231505 -1.5589 0
M  V30 734 C 68.9026 1.308 -1.94752 0
M  V30 735 C 69.9186 1.51826 -0.849989 0
M  V30 736 O 71.0946 1.6515 -1.15271 0
M  V30 737 C 68.1596 2.63968 -2.24771 0
M  V30 738 C 67.2206 2.51331 -3.48039 0
M  V30 739 C 66.4536 3.78148 -3.76616 0
M  V30 740 O 66.6766 4.80722 -3.07022 0
M  V30 741 O 65.6106 3.75857 -4.70123 0
M  V30 742 H 69.4366 1.0083 -2.86474 0
M  V30 743 H 67.0216 0.433547 -1.42971 0
M  V30 744 H 68.9036 3.42633 -2.45318 0
M  V30 745 H 67.5786 2.9364 -1.36225 0
M  V30 746 H 66.4856 1.709 -3.32782 0
M  V30 747 H 67.8186 2.26601 -4.36936 0
M  V30 748 N 69.4707 1.49531 0.497807 0
M  V30 749 C 70.4337 1.65916 1.58128 0
M  V30 750 C 71.4337 0.530825 1.51786 0
M  V30 751 O 72.6237 0.797342 1.54881 0
M  V30 752 C 69.7557 1.65951 2.9778 0
M  V30 753 H 70.9487 2.62556 1.44929 0
M  V30 754 H 68.5017 1.38611 0.722275 0
M  V30 755 H 69.2367 0.709065 3.16453 0
M  V30 756 H 69.0217 2.47897 3.03792 0
M  V30 757 H 70.5117 1.80673 3.76493 0
M  V30 758 N 70.9488 -0.749086 1.3866 0
M  V30 759 C 72.1888 -1.52112 1.36534 0
M  V30 760 C 72.5528 -1.91951 -0.0432316 0
M  V30 761 O 73.7538 -2.68132 -0.189396 0
M  V30 762 C 72.0248 -2.73704 2.29828 0
M  V30 763 S 73.5838 -3.63519 2.45763 0
M  V30 764 H 70.4018 -0.520482 0.484375 0
M  V30 765 H 73.0038 -0.878963 1.74627 0
M  V30 766 H 71.7078 -2.42552 3.31054 0
M  V30 767 H 71.2388 -3.4286 1.929 0
M  V30 768 H 73.2538 -4.66712 1.68505 0
M  V30 769 N 72.4269 -1.23603 -0.977757 0
M  V30 770 C 73.6729 -1.07129 -1.72195 0
M  V30 771 C 74.0059 0.390501 -1.90233 0
M  V30 772 O 73.2809 1.28902 -1.45653 0
M  V30 773 C 73.5639 -1.80031 -3.11867 0
M  V30 774 C 73.4169 -3.33899 -3.01383 0
M  V30 775 C 74.7359 -1.56492 -4.11337 0
M  V30 776 H 71.8549 -0.390571 -0.624999 0
M  V30 777 H 74.4969 -1.52142 -1.13811 0
M  V30 778 H 72.6469 -1.41768 -3.6171 0
M  V30 779 H 74.3189 -3.81699 -2.59043 0
M  V30 780 H 72.5619 -3.62796 -2.37827 0
M  V30 781 H 73.2329 -3.801 -4.00285 0
M  V30 782 H 75.7089 -1.89757 -3.70313 0
M  V30 783 H 74.5849 -2.09973 -5.07151 0
M  V30 784 H 74.8459 -0.500874 -4.39254 0
M  V30 785 N 73.905 1.17692 -1.04816 0
M  V30 786 C 75.151 1.88137 -0.75711 0
M  V30 787 C 75.484 1.80604 0.713841 0
M  V30 788 O 74.759 1.21146 1.52164 0
M  V30 789 C 75.042 3.38318 -1.2334 0
M  V30 790 C 74.895 3.54622 -2.76701 0
M  V30 791 C 76.214 4.32214 -0.829415 0
M  V30 792 H 73.333 0.683163 -0.27651 0
M  V30 793 H 75.975 1.38424 -1.30149 0
M  V30 794 H 74.125 3.80787 -0.770286 0
M  V30 795 H 75.797 3.21194 -3.31107 0
M  V30 796 H 74.04 2.97026 -3.16161 0
M  V30 797 H 74.711 4.60028 -3.05088 0
M  V30 798 H 77.187 3.97565 -1.22805 0
M  V30 799 H 76.063 5.35838 -1.19033 0
M  V30 800 H 76.324 4.41294 0.266891 0
M  V30 801 N 75.3831 0.828654 1.34056 0
M  V30 802 C 76.6311 0.41863 1.97717 0
M  V30 803 C 76.9521 -1.02314 1.66002 0
M  V30 804 O 76.2221 -1.71119 0.953683 0
M  V30 805 H 74.8021 0.151809 0.731412 0
M  V30 806 H 77.4641 1.05936 1.63596 0
M  V30 807 H 76.5601 0.542318 3.07352 0
M  V30 808 N 76.8612 -1.46375 0.584142 0
M  V30 809 C 78.1102 -2.01585 0.0679741 0
M  V30 810 C 78.4232 -1.46109 -1.30045 0
M  V30 811 O 79.6292 -1.93148 -1.90804 0
M  V30 812 C 78.0852 -3.5983 0.0709207 0
M  V30 813 C 77.6932 -4.24303 1.43775 0
M  V30 814 C 79.4372 -4.22693 -0.391228 0
M  V30 815 C 77.3442 -5.74631 1.39834 0
M  V30 816 H 76.2742 -0.753689 0.0216421 0
M  V30 817 H 78.9252 -1.68093 0.736001 0
M  V30 818 H 77.3072 -3.90405 -0.663299 0
M  V30 819 H 78.4812 -4.05335 2.19181 0
M  V30 820 H 76.7962 -3.73539 1.84004 0
M  V30 821 H 79.3932 -5.3289 -0.439524 0
M  V30 822 H 79.7362 -3.91728 -1.40906 0
M  V30 823 H 80.2692 -3.96749 0.288974 0
M  V30 824 H 77.0082 -6.10258 2.39303 0
M  V30 825 H 76.5282 -5.95858 0.686505 0
M  V30 826 H 78.2072 -6.37375 1.11187 0
M  V30 827 N 78.3393 -0.321999 -1.54275 0
M  V30 828 C 79.3023 0.531975 -2.22941 0
M  V30 829 C 80.3023 1.04478 -1.22234 0
M  V30 830 O 81.4923 0.937452 -1.46825 0
M  V30 831 C 78.6243 1.73874 -2.93224 0
M  V30 832 H 79.8173 -0.0682612 -2.99822 0
M  V30 833 H 77.3703 -0.0730644 -1.56129 0
M  V30 834 H 78.1053 2.37825 -2.20476 0
M  V30 835 H 77.8903 1.37847 -3.6707 0
M  V30 836 H 79.3803 2.34496 -3.45545 0
M  V30 837 N 79.8174 1.5752 -0.0501392 0
M  V30 838 C 81.0944 1.83996 0.663685 0
M  V30 839 C 81.4744 0.938339 1.89099 0
M  V30 840 O 80.8224 -0.00087759 2.285 0
M  V30 841 C 81.0324 3.33702 1.02196 0
M  V30 842 C 82.3804 4.00691 1.40469 0
M  V30 843 O 83.4044 3.38321 1.11433 0
M  V30 844 O 82.2634 5.10658 1.94654 0
M  V30 845 H 79.3574 0.759385 0.32751 0
M  V30 846 H 81.9034 1.69514 -0.0794238 0
M  V30 847 H 80.6754 3.91015 0.149364 0
M  V30 848 H 80.2984 3.53368 1.82255 0
M  V30 849 N 81.2955 -0.223234 1.56011 0
M  V30 850 C 82.5435 -0.946003 1.78592 0
M  V30 851 C 82.8645 -1.84936 0.618349 0
M  V30 852 O 82.1345 -1.92473 -0.364833 0
M  V30 853 H 80.7145 -0.352298 0.658707 0
M  V30 854 H 83.3765 -0.235494 1.93472 0
M  V30 855 H 82.4725 -1.55381 2.70672 0
M  V30 856 N 82.7736 -1.49793 -0.48987 0
M  V30 857 C 84.0036 -1.6333 -1.26518 0
M  V30 858 C 84.4116 -0.308392 -1.8667 0
M  V30 859 O 83.7546 0.717512 -1.69108 0
M  V30 860 C 83.8166 -2.6522 -2.4269 0
M  V30 861 C 83.4806 -4.09279 -2.03321 0
M  V30 862 C 84.4776 -4.95738 -1.56652 0
M  V30 863 C 82.1626 -4.55082 -2.12616 0
M  V30 864 C 84.1566 -6.26041 -1.19795 0
M  V30 865 C 81.8436 -5.85396 -1.75371 0
M  V30 866 C 82.8416 -6.707 -1.29036 0
M  V30 867 O 82.5296 -7.98584 -0.92299 0
M  V30 868 H 82.2616 -0.552502 -0.389509 0
M  V30 869 H 84.8156 -1.96642 -0.593381 0
M  V30 870 H 83.0456 -2.27112 -3.12981 0
M  V30 871 H 84.7346 -2.68171 -3.04695 0
M  V30 872 H 85.5006 -4.61575 -1.48908 0
M  V30 873 H 81.3796 -3.88844 -2.47631 0
M  V30 874 H 84.9236 -6.92578 -0.835582 0
M  V30 875 H 80.8206 -6.19085 -1.82768 0
M  V30 876 H 81.5886 -8.11692 -1.05349 0
M  V30 877 N 84.2517 0.741722 -1.39055 0
M  V30 878 C 85.2147 1.83733 -1.37021 0
M  V30 879 C 86.2147 1.58542 -0.268534 0
M  V30 880 O 87.4047 1.66067 -0.526076 0
M  V30 881 C 84.5367 3.2141 -1.13617 0
M  V30 882 H 85.7297 1.86941 -2.34506 0
M  V30 883 H 83.2827 0.944676 -1.24521 0
M  V30 884 H 84.0177 3.23865 -0.167863 0
M  V30 885 H 83.8027 3.4109 -1.93391 0
M  V30 886 H 85.2927 4.01477 -1.14918 0
M  V30 887 N 85.7298 1.2412 0.971189 0
M  V30 888 C 86.6618 0.988349 2.06795 0
M  V30 889 C 87.6748 -0.0409541 1.62748 0
M  V30 890 O 88.8638 0.195673 1.77424 0
M  V30 891 C 85.9638 0.469023 3.35639 0
M  V30 892 C 85.1368 1.56065 4.08611 0
M  V30 893 C 84.1958 1.04458 5.15728 0
M  V30 894 O 83.2218 1.73553 5.42096 0
M  V30 895 N 84.4238 -0.122817 5.8037 0
M  V30 896 H 87.1888 1.93265 2.29061 0
M  V30 897 H 84.7498 1.15102 1.13856 0
M  V30 898 H 86.7418 0.108613 4.04554 0
M  V30 899 H 85.3118 -0.380919 3.1027 0
M  V30 900 H 84.5318 2.09341 3.34021 0
M  V30 901 H 85.8198 2.29449 4.54126 0
M  V30 902 H 85.2178 -0.700563 5.61345 0
M  V30 903 H 83.7748 -0.424404 6.50417 0
M  V30 904 N 87.2079 -1.17134 1.05439 0
M  V30 905 C 88.1709 -2.19439 0.661764 0
M  V30 906 C 89.1709 -1.58199 -0.288042 0
M  V30 907 O 90.3609 -1.74053 -0.0715803 0
M  V30 908 C 87.4929 -3.40889 -0.0276209 0
M  V30 909 H 88.6859 -2.55688 1.56728 0
M  V30 910 H 86.2389 -1.31259 0.848567 0
M  V30 911 H 86.9739 -3.10187 -0.94629 0
M  V30 912 H 86.7589 -3.86586 0.655238 0
M  V30 913 H 88.2489 -4.16603 -0.288342 0
M  V30 914 N 88.686 -0.835752 -1.33615 0
M  V30 915 C 89.911 -0.442389 -2.02627 0
M  V30 916 C 90.336 0.947735 -1.62479 0
M  V30 917 O 89.694 1.61907 -0.815826 0
M  V30 918 C 89.742 -0.567216 -3.56111 0
M  V30 919 O 88.846 0.407799 -4.10379 0
M  V30 920 H 88.187 -0.180278 -0.639059 0
M  V30 921 H 90.717 -1.12972 -1.70583 0
M  V30 922 H 90.727 -0.447708 -4.05536 0
M  V30 923 H 89.402 -1.58103 -3.84677 0
M  V30 924 H 87.979 0.246107 -3.72087 0
M  V30 925 N 90.1641 1.46063 -0.591896 0
M  V30 926 C 91.5801 1.57561 -0.254288 0
M  V30 927 C 91.7801 1.58565 1.24336 0
M  V30 928 O 90.8361 1.50753 2.02558 0
M  V30 929 C 92.1491 2.86549 -0.911611 0
M  V30 930 C 93.6971 3.00197 -0.886059 0
M  V30 931 C 94.1721 4.31933 -1.5231 0
M  V30 932 N 95.6631 4.38654 -1.48786 0
M  V30 933 C 96.3981 5.39222 -1.95006 0
M  V30 934 N 95.8941 6.46414 -2.49241 0
M  V30 935 N 97.6871 5.3048 -1.85868 0
M  V30 936 H 89.8381 1.43655 -1.56451 0
M  V30 937 H 92.1011 0.68583 -0.654478 0
M  V30 938 H 91.8071 2.91651 -1.96551 0
M  V30 939 H 91.6811 3.74794 -0.425368 0
M  V30 940 H 94.0681 2.9467 0.159246 0
M  V30 941 H 94.1491 2.13403 -1.41041 0
M  V30 942 H 93.7931 4.38217 -2.56765 0
M  V30 943 H 93.7231 5.17516 -0.973891 0
M  V30 944 H 96.2141 3.61793 -1.09151 0
M  V30 945 H 96.5271 7.19376 -2.82344 0
M  V30 946 H 94.8721 6.47208 -2.53272 0
M  V30 947 H 98.0631 4.45643 -1.43248 0
M  V30 948 H 98.2361 6.08711 -2.22204 0
M  V30 949 N 91.6422 0.330177 1.54103 0
M  V30 950 C 92.5892 -0.532762 2.24567 0
M  V30 951 C 93.5592 -1.10635 1.23892 0
M  V30 952 O 94.7442 -1.14546 1.5259 0
M  V30 953 C 91.8842 -1.6845 3.01195 0
M  V30 954 C 90.9972 -1.13951 4.167 0
M  V30 955 C 90.1322 -2.25746 4.80845 0
M  V30 956 C 89.1712 -1.6853 5.88442 0
M  V30 957 N 88.3082 -2.74014 6.46421 0
M  V30 958 H 93.1482 0.0746905 2.97906 0
M  V30 959 H 90.6852 0.048632 1.4702 0
M  V30 960 H 92.6432 -2.36234 3.43874 0
M  V30 961 H 91.2732 -2.26314 2.30178 0
M  V30 962 H 90.3252 -0.35301 3.78758 0
M  V30 963 H 91.6372 -0.680892 4.94131 0
M  V30 964 H 90.7912 -3.01422 5.26526 0
M  V30 965 H 89.5302 -2.74947 4.0281 0
M  V30 966 H 88.5352 -0.913543 5.42157 0
M  V30 967 H 89.7602 -1.20198 6.68378 0
M  V30 968 H 87.7062 -3.22494 5.71256 0
M  V30 969 H 87.6232 -2.32735 7.19285 0
M  V30 970 H 88.8912 -3.49499 6.96757 0
M  V30 971 N 93.1203 -1.57491 0.0584922 0
M  V30 972 C 94.5313 -1.80526 -0.476138 0
M  V30 973 C 94.8823 -0.971334 -1.70469 0
M  V30 974 O 94.0073 -0.190012 -2.15564 0
M  V30 975 C 94.6023 -3.27424 -0.870587 0
M  V30 976 C 93.1613 -3.51351 -1.35015 0
M  V30 977 C 92.3083 -2.75343 -0.32887 0
M  V30 978 H 95.2593 -1.56133 0.284312 0
M  V30 979 H 95.2803 -3.38745 -1.73299 0
M  V30 980 H 94.7923 -3.88093 0.0237627 0
M  V30 981 H 92.8933 -2.95971 -2.26345 0
M  V30 982 H 93.0063 -4.60059 -1.33726 0
M  V30 983 H 91.3703 -2.417 -0.803321 0
M  V30 984 H 92.1533 -3.38743 0.557521 0
M  V30 985 N 94.5984 0.214957 -1.56127 0
M  V30 986 C 95.5614 1.24997 -1.92116 0
M  V30 987 C 96.5614 1.39467 -0.800344 0
M  V30 988 O 97.7514 1.37619 -1.06802 0
M  V30 989 C 94.8834 2.62271 -2.17777 0
M  V30 990 H 96.0764 0.942875 -2.84693 0
M  V30 991 H 93.6294 0.455654 -1.49511 0
M  V30 992 H 94.3644 2.98068 -1.27773 0
M  V30 993 H 94.1494 2.53143 -2.99434 0
M  V30 994 H 95.6394 3.36946 -2.46693 0
M  V30 995 N 96.0765 1.50051 0.48192 0
M  V30 996 C 97.3235 1.60498 1.23477 0
M  V30 997 C 97.6515 0.300331 1.92167 0
M  V30 998 O 96.9065 -0.713094 1.82246 0
M  V30 999 C 97.2055 2.72717 2.30998 0
M  V30 1000 C 96.8715 4.13572 1.79636 0
M  V30 1001 C 95.5335 4.519 1.65348 0
M  V30 1002 C 97.8855 5.01649 1.41412 0
M  V30 1003 C 95.2135 5.76057 1.11244 0
M  V30 1004 C 97.5655 6.26343 0.887538 0
M  V30 1005 C 96.2295 6.63483 0.731207 0
M  V30 1006 H 95.4995 0.587303 0.451836 0
M  V30 1007 H 98.1465 1.83948 0.532468 0
M  V30 1008 H 96.4515 2.43312 3.07094 0
M  V30 1009 H 98.1485 2.78006 2.88988 0
M  V30 1010 H 94.7385 3.83329 1.91721 0
M  V30 1011 H 98.9225 4.72679 1.51289 0
M  V30 1012 H 94.1785 6.03516 0.978686 0
M  V30 1013 H 98.3525 6.93958 0.582654 0
M  V30 1014 H 95.9795 7.59568 0.309806 0
M  V30 1015 N 97.5546 -0.734337 1.39446 0
M  V30 1016 C 98.8036 -1.48937 1.36017 0
M  V30 1017 C 99.1166 -1.95557 -0.0409005 0
M  V30 1018 O 100.323 -2.70779 -0.19778 0
M  V30 1019 C 98.7786 -2.69125 2.38955 0
M  V30 1020 C 98.3866 -2.29452 3.8478 0
M  V30 1021 C 100.131 -3.46944 2.44603 0
M  V30 1022 C 98.0376 -3.46366 4.79358 0
M  V30 1023 H 96.9676 -0.559296 0.505672 0
M  V30 1024 H 99.6186 -0.800983 1.65095 0
M  V30 1025 H 98.0006 -3.40041 2.02948 0
M  V30 1026 H 99.1746 -1.66077 4.29831 0
M  V30 1027 H 97.4896 -1.64723 3.82433 0
M  V30 1028 H 100.087 -4.33907 3.12456 0
M  V30 1029 H 100.43 -3.89454 1.47076 0
M  V30 1030 H 100.963 -2.83056 2.79507 0
M  V30 1031 H 97.7016 -3.08905 5.78151 0
M  V30 1032 H 97.2216 -4.08719 4.38986 0
M  V30 1033 H 98.9006 -4.12691 4.98292 0
M  V30 1034 N 99.0327 -1.24633 -0.964593 0
M  V30 1035 C 99.9807 -1.03917 -2.08096 0
M  V30 1036 C 100.975 0.0268581 -1.69379 0
M  V30 1037 O 102.181 -0.127952 -1.79545 0
M  V30 1038 H 98.5557 -0.319044 -0.680966 0
M  V30 1039 H 100.527 -1.98581 -2.22729 0
M  V30 1040 C 99.2757 -0.663983 -3.41301 0
M  V30 1041 H 98.5987 -1.47605 -3.71555 0
M  V30 1042 H 100.039 -0.558663 -4.20303 0
M  V30 1043 C 98.4977 0.629169 -3.30973 0
M  V30 1044 O 99.0277 1.67404 -3.65156 0
M  V30 1045 N 97.2337 0.611057 -2.84103 0
M  V30 1046 H 96.7807 -0.239593 -2.56483 0
M  V30 1047 H 96.7387 1.47647 -2.77575 0
M  V30 1048 N 100.511 1.16574 -1.06058 0
M  V30 1049 C 101.441 2.23057 -0.690488 0
M  V30 1050 C 102.422 1.67141 0.315901 0
M  V30 1051 O 103.607 1.93253 0.191556 0
M  V30 1052 C 100.737 3.47222 -0.073625 0
M  V30 1053 C 99.6908 4.16016 -1.00573 0
M  V30 1054 C 99.0168 5.34104 -0.252289 0
M  V30 1055 C 100.317 4.67264 -2.33371 0
M  V30 1056 H 102.011 2.54271 -1.58072 0
M  V30 1057 H 99.5568 1.22218 -0.76149 0
M  V30 1058 H 101.51 4.20939 0.19714 0
M  V30 1059 H 100.234 3.15302 0.85161 0
M  V30 1060 H 98.8928 3.44223 -1.2612 0
M  V30 1061 H 98.5408 4.98437 0.675988 0
M  V30 1062 H 98.2408 5.81072 -0.873455 0
M  V30 1063 H 99.7648 6.10599 0.0109857 0
M  V30 1064 H 101.179 5.32573 -2.12223 0
M  V30 1065 H 99.5758 5.24843 -2.90963 0
M  V30 1066 H 100.646 3.83602 -2.96611 0
M  V30 1067 N 101.989 0.842826 1.3317 0
M  V30 1068 C 102.939 0.250877 2.26616 0
M  V30 1069 C 103.923 -0.596427 1.49437 0
M  V30 1070 O 105.115 -0.447747 1.71243 0
M  V30 1071 C 102.244 -0.569779 3.38539 0
M  V30 1072 C 101.33 0.289254 4.23112 0
M  V30 1073 N 101.721 1.36987 4.86897 0
M  V30 1074 C 100.019 0.0769631 4.45934 0
M  V30 1075 C 100.72 1.89737 5.49886 0
M  V30 1076 N 99.6959 1.19827 5.30229 0
M  V30 1077 H 103.498 1.07718 2.73448 0
M  V30 1078 H 101.012 0.687693 1.47121 0
M  V30 1079 H 103.009 -1.01018 4.04476 0
M  V30 1080 H 101.669 -1.39401 2.93253 0
M  V30 1081 H 102.68 1.75277 4.87338 0
M  V30 1082 H 99.3569 -0.713507 4.11358 0
M  V30 1083 H 100.747 2.80253 6.10662 0
M  V30 1084 N 103.467 -1.45747 0.599634 0
M  V30 1085 C 104.692 -2.07178 0.0960198 0
M  V30 1086 C 105.117 -1.44268 -1.207 0
M  V30 1087 O 104.475 -0.532503 -1.73303 0
M  V30 1088 C 104.523 -3.60579 -0.0385348 0
M  V30 1089 O 103.627 -3.97713 -1.0908 0
M  V30 1090 H 102.968 -0.660251 0.0704593 0
M  V30 1091 H 105.498 -1.87124 0.827385 0
M  V30 1092 H 105.508 -4.07298 -0.239304 0
M  V30 1093 H 104.183 -4.05756 0.912947 0
M  V30 1094 H 102.76 -3.62678 -0.867135 0
M  V30 1095 N 104.945 -0.338344 -1.53925 0
M  V30 1096 C 105.908 0.508299 -2.23493 0
M  V30 1097 C 106.908 1.03175 -1.23335 0
M  V30 1098 O 108.098 0.921826 -1.47811 0
M  V30 1099 C 105.23 1.70754 -2.95052 0
M  V30 1100 H 106.423 -0.100058 -2.99733 0
M  V30 1101 H 103.976 -0.0896198 -1.56043 0
M  V30 1102 H 104.711 2.35474 -2.22986 0
M  V30 1103 H 104.496 1.33946 -3.68512 0
M  V30 1104 H 105.986 2.30818 -3.48013 0
M  V30 1105 N 106.423 1.57458 -0.0668435 0
M  V30 1106 C 107.386 2.11323 0.887422 0
M  V30 1107 C 108.386 1.03618 1.22964 0
M  V30 1108 O 109.576 1.29626 1.16373 0
M  V30 1109 C 106.708 2.61048 2.19242 0
M  V30 1110 H 107.901 2.96942 0.420194 0
M  V30 1111 H 105.454 1.55239 0.181793 0
M  V30 1112 H 106.189 1.78868 2.70512 0
M  V30 1113 H 105.974 3.39769 1.95702 0
M  V30 1114 H 107.464 3.02814 2.87565 0
M  V30 1115 N 107.901 -0.206675 1.56239 0
M  V30 1116 C 109.149 -0.927007 1.79586 0
M  V30 1117 C 109.47 -1.8427 0.637929 0
M  V30 1118 O 108.74 -1.92849 -0.344398 0
M  V30 1119 H 107.32 -0.345292 0.662407 0
M  V30 1120 H 109.982 -0.21496 1.93711 0
M  V30 1121 H 109.078 -1.52501 2.72305 0
M  V30 1122 N 109.379 -1.50304 -0.473955 0
M  V30 1123 C 110.607 -1.64902 -1.24959 0
M  V30 1124 C 111.022 -0.331198 -1.85872 0
M  V30 1125 O 110.379 0.68652 -1.69095 0
M  V30 1126 C 110.43 -2.73803 -2.36038 0
M  V30 1127 O 110.151 -4.00477 -1.77624 0
M  V30 1128 C 111.652 -2.99349 -3.26964 0
M  V30 1129 H 108.872 -0.554383 -0.378022 0
M  V30 1130 H 111.416 -1.9651 -0.566054 0
M  V30 1131 H 109.571 -2.44898 -3.00173 0
M  V30 1132 H 109.985 -4.60678 -2.5075 0
M  V30 1133 H 111.459 -3.79217 -4.01121 0
M  V30 1134 H 111.936 -2.10307 -3.85574 0
M  V30 1135 H 112.542 -3.29774 -2.68569 0
M  V30 1136 N 110.857 0.726932 -1.39834 0
M  V30 1137 C 112.105 1.4837 -1.37225 0
M  V30 1138 C 112.426 1.94979 0.0284857 0
M  V30 1139 O 111.696 1.69555 0.981213 0
M  V30 1140 H 110.276 0.55043 -0.505011 0
M  V30 1141 H 112.938 0.862468 -1.74778 0
M  V30 1142 H 112.034 2.36198 -2.04003 0
M  V30 1143 N 112.336 1.25143 0.95797 0
M  V30 1144 C 113.284 1.05019 2.07542 0
M  V30 1145 C 114.278 -0.0178751 1.69391 0
M  V30 1146 O 115.484 0.137472 1.79474 0
M  V30 1147 H 111.859 0.32265 0.679265 0
M  V30 1148 H 113.83 1.99759 2.21673 0
M  V30 1149 C 112.579 0.682074 3.40944 0
M  V30 1150 H 111.902 1.49573 3.70767 0
M  V30 1151 H 113.342 0.580945 4.20001 0
M  V30 1152 C 111.801 -0.611608 3.31302 0
M  V30 1153 O 112.331 -1.65465 3.66038 0
M  V30 1154 N 110.537 -0.595982 2.84423 0
M  V30 1155 H 110.084 0.253192 2.56353 0
M  V30 1156 H 110.042 -1.46173 2.78354 0
M  V30 1157 N 113.814 -1.1601 1.06675 0
M  V30 1158 C 114.777 -2.18724 0.685001 0
M  V30 1159 C 115.777 -1.58496 -0.271246 0
M  V30 1160 O 116.967 -1.74119 -0.0531156 0
M  V30 1161 C 114.099 -3.40899 0.00853648 0
M  V30 1162 H 115.292 -2.54011 1.59431 0
M  V30 1163 H 112.845 -1.30352 0.862441 0
M  V30 1164 H 113.58 -3.11173 -0.913337 0
M  V30 1165 H 113.365 -3.8587 0.696204 0
M  V30 1166 H 114.855 -4.16886 -0.24414 0
M  V30 1167 N 115.292 -0.849877 -1.32721 0
M  V30 1168 C 116.225 -0.235903 -2.26977 0
M  V30 1169 C 117.203 0.623355 -1.50177 0
M  V30 1170 O 118.387 0.581207 -1.79316 0
M  V30 1171 C 115.514 0.667712 -3.32053 0
M  V30 1172 C 114.56 -0.11753 -4.26338 0
M  V30 1173 S 115.393 -1.48277 -5.14562 0
M  V30 1174 C 116.549 -0.584741 -6.23163 0
M  V30 1175 H 116.782 -1.03495 -2.78704 0
M  V30 1176 H 114.315 -0.64724 -1.40179 0
M  V30 1177 H 116.273 1.18343 -3.93072 0
M  V30 1178 H 114.934 1.44052 -2.7912 0
M  V30 1179 H 114.127 0.57051 -5.00761 0
M  V30 1180 H 113.729 -0.564668 -3.69713 0
M  V30 1181 H 116.021 0.212968 -6.77165 0
M  V30 1182 H 116.964 -1.29947 -6.96074 0
M  V30 1183 H 117.372 -0.161202 -5.6427 0
M  V30 1184 N 116.77 1.45427 -0.607355 0
M  V30 1185 C 118.018 2.01841 -0.102253 0
M  V30 1186 C 118.339 1.47832 1.27164 0
M  V30 1187 O 117.609 0.672497 1.83995 0
M  V30 1188 H 116.189 0.746188 -0.0348101 0
M  V30 1189 H 118.851 1.78229 -0.7887 0
M  V30 1190 H 117.947 3.12057 -0.0518585 0
M  V30 1191 N 118.248 0.346503 1.53744 0
M  V30 1192 C 119.211 -0.496439 2.23759 0
M  V30 1193 C 120.211 -1.0252 1.2388 0
M  V30 1194 O 121.401 -0.913974 1.48297 0
M  V30 1195 C 118.533 -1.69187 2.95954 0
M  V30 1196 H 119.726 0.115952 2.99676 0
M  V30 1197 H 117.279 0.0978939 1.55993 0
M  V30 1198 H 118.014 -2.34288 2.24231 0
M  V30 1199 H 117.799 -1.31989 3.69217 0
M  V30 1200 H 119.289 -2.28969 3.49232 0
M  V30 1201 N 119.726 -1.57421 0.075193 0
M  V30 1202 C 120.656 -2.15942 -0.888324 0
M  V30 1203 C 121.637 -1.08737 -1.30806 0
M  V30 1204 O 122.822 -1.36787 -1.37851 0
M  V30 1205 C 119.952 -2.72379 -2.1547 0
M  V30 1206 C 118.906 -3.8478 -1.87425 0
M  V30 1207 C 118.232 -4.27834 -3.20721 0
M  V30 1208 C 119.532 -5.08869 -1.17684 0
M  V30 1209 H 121.226 -2.96705 -0.400799 0
M  V30 1210 H 118.772 -1.42723 -0.191342 0
M  V30 1211 H 120.725 -3.11965 -2.83295 0
M  V30 1212 H 119.449 -1.88841 -2.6647 0
M  V30 1213 H 118.108 -3.45703 -1.22004 0
M  V30 1214 H 117.756 -3.41214 -3.6957 0
M  V30 1215 H 117.456 -5.03605 -3.02746 0
M  V30 1216 H 118.98 -4.70039 -3.89738 0
M  V30 1217 H 120.394 -5.4575 -1.75584 0
M  V30 1218 H 118.791 -5.8994 -1.09956 0
M  V30 1219 H 119.861 -4.84648 -0.156453 0
M  V30 1220 N 121.204 0.198386 -1.56346 0
M  V30 1221 C 122.429 0.939682 -1.84891 0
M  V30 1222 C 122.854 1.76202 -0.658369 0
M  V30 1223 O 122.212 1.76993 0.392851 0
M  V30 1224 C 122.26 1.81428 -3.11635 0
M  V30 1225 O 121.364 2.91265 -2.91956 0
M  V30 1226 H 120.705 0.264807 -0.608912 0
M  V30 1227 H 123.235 0.204695 -2.03573 0
M  V30 1228 H 123.245 2.21958 -3.42343 0
M  V30 1229 H 121.92 1.21004 -3.97908 0
M  V30 1230 H 120.497 2.54514 -2.72538 0
M  V30 1231 N 122.682 1.50554 0.465978 0
M  V30 1232 C 123.63 1.70324 1.58406 0
M  V30 1233 C 124.624 0.569139 1.59553 0
M  V30 1234 O 125.83 0.749776 1.63641 0
M  V30 1235 H 122.205 0.537688 0.525734 0
M  V30 1236 H 124.176 2.64104 1.38894 0
M  V30 1237 C 122.925 1.81928 2.96307 0
M  V30 1238 H 122.248 2.68586 2.96144 0
M  V30 1239 H 123.688 1.99784 3.73982 0
M  V30 1240 C 122.147 0.572095 3.32007 0
M  V30 1241 O 122.677 -0.286416 4.00678 0
M  V30 1242 N 120.883 0.424606 2.87481 0
M  V30 1243 H 120.43 1.12427 2.31771 0
M  V30 1244 H 120.388 -0.408697 3.11732 0
M  V30 1245 N 124.16 -0.719506 1.40217 0
M  V30 1246 C 125.123 -1.8153 1.39927 0
M  V30 1247 C 126.123 -1.58095 0.293723 0
M  V30 1248 O 127.313 -1.65209 0.552429 0
M  V30 1249 C 124.445 -3.19561 1.18716 0
M  V30 1250 H 125.638 -1.83186 2.37451 0
M  V30 1251 H 123.191 -0.924746 1.26008 0
M  V30 1252 H 123.926 -3.23557 0.219366 0
M  V30 1253 H 123.711 -3.3797 1.98793 0
M  V30 1254 H 125.201 -3.99598 1.21291 0
M  V30 1255 N 125.638 -1.25649 -0.95132 0
M  V30 1256 C 126.884 -1.11766 -1.69941 0
M  V30 1257 C 127.239 0.33735 -1.89419 0
M  V30 1258 O 126.532 1.24491 -1.45645 0
M  V30 1259 C 126.726 -1.80909 -3.08231 0
M  V30 1260 C 126.555 -3.32984 -3.02245 0
M  V30 1261 C 125.325 -4.02247 -3.05819 0
M  V30 1262 C 127.523 -4.29332 -2.83157 0
M  V30 1263 N 125.505 -5.41072 -2.90024 0
M  V30 1264 C 126.876 -5.55265 -2.75828 0
M  V30 1265 C 128.931 -4.19707 -2.67863 0
M  V30 1266 C 127.634 -6.72671 -2.54767 0
M  V30 1267 C 129.66 -5.36809 -2.48173 0
M  V30 1268 C 129.022 -6.61683 -2.41567 0
M  V30 1269 H 125.121 -0.463708 -0.629682 0
M  V30 1270 H 127.705 -1.58796 -1.12659 0
M  V30 1271 H 125.876 -1.36369 -3.63673 0
M  V30 1272 H 127.608 -1.59739 -3.71841 0
M  V30 1273 H 124.363 -3.53531 -3.15139 0
M  V30 1274 H 124.787 -6.13938 -2.85323 0
M  V30 1275 H 129.429 -3.23907 -2.71743 0
M  V30 1276 H 127.147 -7.68577 -2.49629 0
M  V30 1277 H 130.733 -5.31224 -2.37259 0
M  V30 1278 H 129.613 -7.50768 -2.26531 0
M  V30 1279 N 127.117 1.15442 -1.07289 0
M  V30 1280 C 128.065 2.22225 -0.686952 0
M  V30 1281 C 129.059 1.66688 0.30193 0
M  V30 1282 O 130.265 1.79236 0.165712 0
M  V30 1283 H 126.64 0.723783 -0.204064 0
M  V30 1284 H 128.611 2.52056 -1.5972 0
M  V30 1285 C 127.36 3.47556 -0.100149 0
M  V30 1286 H 126.683 3.90612 -0.852211 0
M  V30 1287 H 128.123 4.23794 0.132235 0
M  V30 1288 C 126.582 3.16337 1.159 0
M  V30 1289 O 127.112 3.33074 2.24555 0
M  V30 1290 N 125.318 2.70385 1.06491 0
M  V30 1291 H 124.865 2.56966 0.180668 0
M  V30 1292 H 124.823 2.49871 1.90819 0
M  V30 1293 N 128.595 0.856903 1.32268 0
M  V30 1294 C 129.82 0.474569 2.01897 0
M  V30 1295 C 130.245 -0.921766 1.63967 0
M  V30 1296 O 129.603 -1.60589 0.84148 0
M  V30 1297 C 129.651 0.623799 3.55164 0
M  V30 1298 O 128.755 -0.342459 4.10976 0
M  V30 1299 H 128.096 0.190422 0.63611 0
M  V30 1300 H 130.626 1.15672 1.68764 0
M  V30 1301 H 130.636 0.512169 4.04773 0
M  V30 1302 H 129.311 1.64202 3.82113 0
M  V30 1303 H 127.888 -0.18688 3.72431 0
M  V30 1304 N 130.073 -1.45103 0.615059 0
M  V30 1305 C 131.023 -2.27679 -0.120966 0
M  V30 1306 C 132.007 -1.3775 -0.831491 0
M  V30 1307 O 133.199 -1.61683 -0.720249 0
M  V30 1308 C 130.328 -3.24767 -1.1127 0
M  V30 1309 C 129.414 -4.22184 -0.402627 0
M  V30 1310 N 129.805 -5.02692 0.559884 0
M  V30 1311 C 128.103 -4.4125 -0.649202 0
M  V30 1312 C 128.804 -5.73421 0.977942 0
M  V30 1313 N 127.78 -5.42657 0.320104 0
M  V30 1314 H 131.582 -2.87325 0.618181 0
M  V30 1315 H 129.096 -1.56345 0.439304 0
M  V30 1316 H 131.093 -3.82666 -1.65446 0
M  V30 1317 H 129.753 -2.66682 -1.85232 0
M  V30 1318 H 130.764 -5.09354 0.936976 0
M  V30 1319 H 127.441 -3.9428 -1.37293 0
M  V30 1320 H 128.831 -6.48107 1.77222 0
M  V30 1321 N 131.551 -0.354651 -1.53558 0
M  V30 1322 C 132.776 0.242153 -2.05981 0
M  V30 1323 C 133.201 1.42553 -1.2272 0
M  V30 1324 O 132.559 1.79656 -0.243604 0
M  V30 1325 C 132.607 0.624367 -3.55154 0
M  V30 1326 O 131.711 1.72301 -3.74681 0
M  V30 1327 H 131.052 0.0378432 -0.662921 0
M  V30 1328 H 133.582 -0.512087 -1.98088 0
M  V30 1329 H 133.592 0.898433 -3.97985 0
M  V30 1330 H 132.267 -0.240989 -4.15201 0
M  V30 1331 H 130.844 1.44535 -3.4375 0
M  V30 1332 N 133.029 1.57378 -0.0835403 0
M  V30 1333 C 134.44 1.81261 0.447358 0
M  V30 1334 C 134.791 0.998331 1.68902 0
M  V30 1335 O 133.916 0.224282 2.15235 0
M  V30 1336 C 134.511 3.28767 0.818386 0
M  V30 1337 C 133.07 3.53455 1.29409 0
M  V30 1338 C 132.217 2.75831 0.285024 0
M  V30 1339 H 135.168 1.5566 -0.309115 0
M  V30 1340 H 135.189 3.41459 1.67887 0
M  V30 1341 H 134.701 3.88006 -0.0855019 0
M  V30 1342 H 132.802 2.99534 2.21608 0
M  V30 1343 H 132.915 4.62128 1.2639 0
M  V30 1344 H 131.279 2.42947 0.764767 0
M  V30 1345 H 132.062 3.37813 -0.611341 0
M  V30 1346 N 134.507 -0.190092 1.56449 0
M  V30 1347 C 135.437 -1.23816 1.97969 0
M  V30 1348 C 136.418 -1.47201 0.852395 0
M  V30 1349 O 137.603 -1.58854 1.1171 0
M  V30 1350 C 134.733 -2.5813 2.3235 0
M  V30 1351 C 133.687 -2.49348 3.47864 0
M  V30 1352 C 133.013 -3.8798 3.67934 0
M  V30 1353 C 134.313 -2.01424 4.81898 0
M  V30 1354 H 136.007 -0.89311 2.85769 0
M  V30 1355 H 133.553 -0.428177 1.37487 0
M  V30 1356 H 135.506 -3.31637 2.59991 0
M  V30 1357 H 134.23 -2.94386 1.41438 0
M  V30 1358 H 132.889 -1.78297 3.20321 0
M  V30 1359 H 132.537 -4.21597 2.74344 0
M  V30 1360 H 132.237 -3.82978 4.45648 0
M  V30 1361 H 133.761 -4.63101 3.97957 0
M  V30 1362 H 135.175 -2.64693 5.08538 0
M  V30 1363 H 133.572 -2.07413 5.63116 0
M  V30 1364 H 134.642 -0.967677 4.75146 0
M  V30 1365 N 135.985 -1.50799 -0.457987 0
M  V30 1366 C 137.234 -1.6168 -1.20593 0
M  V30 1367 C 137.547 -0.32888 -1.92815 0
M  V30 1368 O 138.753 -0.316773 -2.69646 0
M  V30 1369 C 137.209 -2.8545 -2.19195 0
M  V30 1370 C 136.817 -4.21168 -1.52715 0
M  V30 1371 C 138.561 -3.05681 -2.94549 0
M  V30 1372 C 136.468 -5.3611 -2.4968 0
M  V30 1373 H 135.398 -0.602134 -0.453818 0
M  V30 1374 H 138.049 -1.77245 -0.475031 0
M  V30 1375 H 136.431 -2.63472 -2.95632 0
M  V30 1376 H 137.605 -4.53449 -0.819775 0
M  V30 1377 H 135.92 -4.06648 -0.895922 0
M  V30 1378 H 138.517 -3.88727 -3.67145 0
M  V30 1379 H 138.86 -2.17929 -3.54701 0
M  V30 1380 H 139.393 -3.27901 -2.25223 0
M  V30 1381 H 136.132 -6.26057 -1.94249 0
M  V30 1382 H 135.652 -5.0823 -3.18532 0
M  V30 1383 H 137.331 -5.6722 -3.11241 0
M  V30 1384 N 137.463 0.71206 -1.40597 0
M  V30 1385 C 138.709 1.47416 -1.39271 0
M  V30 1386 C 139.042 1.942 0.00388791 0
M  V30 1387 O 138.317 1.68403 0.973179 0
M  V30 1388 C 138.6 2.69774 -2.38525 0
M  V30 1389 C 138.453 2.28861 -3.87224 0
M  V30 1390 C 139.772 3.71939 -2.35264 0
M  V30 1391 H 136.891 0.534713 -0.5072 0
M  V30 1392 H 139.533 0.812375 -1.71757 0
M  V30 1393 H 137.683 3.26238 -2.10953 0
M  V30 1394 H 139.355 1.77852 -4.25636 0
M  V30 1395 H 137.598 1.60824 -4.02887 0
M  V30 1396 H 138.269 3.16584 -4.52193 0
M  V30 1397 H 140.745 3.25113 -2.59694 0
M  V30 1398 H 139.621 4.55186 -3.06753 0
M  V30 1399 H 139.882 4.20484 -1.36549 0
M  V30 1400 N 138.941 1.26152 0.944643 0
M  V30 1401 C 140.169 1.14259 1.72489 0
M  V30 1402 C 140.584 -0.302555 1.8636 0
M  V30 1403 O 139.941 -1.20741 1.36849 0
M  V30 1404 C 139.992 1.80266 3.13347 0
M  V30 1405 O 139.713 3.19133 3.00143 0
M  V30 1406 C 141.214 1.74283 4.07603 0
M  V30 1407 H 138.434 0.398051 0.540181 0
M  V30 1408 H 140.978 1.66706 1.18446 0
M  V30 1409 H 139.133 1.31766 3.64303 0
M  V30 1410 H 139.547 3.51744 3.89071 0
M  V30 1411 H 141.021 2.25111 5.04013 0
M  V30 1412 H 141.498 0.708631 4.33446 0
M  V30 1413 H 142.104 2.22319 3.62567 0
M  V30 1414 N 140.419 -1.14872 1.07899 0
M  V30 1415 C 141.382 -2.17986 0.708161 0
M  V30 1416 C 142.382 -1.58775 -0.25442 0
M  V30 1417 O 143.572 -1.74166 -0.034645 0
M  V30 1418 C 140.704 -3.40871 0.0446929 0
M  V30 1419 H 141.897 -2.52306 1.62116 0
M  V30 1420 H 139.45 -1.2943 0.876218 0
M  V30 1421 H 140.185 -3.12124 -0.880281 0
M  V30 1422 H 139.97 -3.8511 0.737091 0
M  V30 1423 H 141.46 -4.17121 -0.19991 0
M  V30 1424 N 141.898 -0.863906 -1.31812 0
M  V30 1425 C 143.146 -0.470904 -1.96537 0
M  V30 1426 C 143.467 0.978771 -1.68657 0
M  V30 1427 O 142.737 1.6853 -0.998717 0
M  V30 1428 H 141.317 -0.171148 -0.72713 0
M  V30 1429 H 143.979 -1.10236 -1.60729 0
M  V30 1430 H 143.075 -0.623616 -3.05806 0
M  V30 1431 N 143.376 1.44774 -0.622745 0
M  V30 1432 C 144.308 2.28856 0.125485 0
M  V30 1433 C 145.321 1.40811 0.817069 0
M  V30 1434 O 146.51 1.65044 0.679918 0
M  V30 1435 C 143.61 3.16963 1.19949 0
M  V30 1436 C 142.783 4.33374 0.592064 0
M  V30 1437 C 141.842 5.02577 1.55893 0
M  V30 1438 O 140.868 5.58873 1.07933 0
M  V30 1439 N 142.07 5.03256 2.89334 0
M  V30 1440 H 144.835 2.93713 -0.596068 0
M  V30 1441 H 142.396 1.55129 -0.463303 0
M  V30 1442 H 144.388 3.60123 1.84644 0
M  V30 1443 H 142.958 2.53913 1.82337 0
M  V30 1444 H 142.178 3.93509 -0.233322 0
M  V30 1445 H 143.466 5.08527 0.166738 0
M  V30 1446 H 142.864 4.58836 3.30887 0
M  V30 1447 H 141.421 5.50232 3.49412 0
M  V30 1448 N 144.854 0.36279 1.53368 0
M  V30 1449 C 145.786 -0.519668 2.23231 0
M  V30 1450 C 146.799 -1.04844 1.24546 0
M  V30 1451 O 147.988 -0.955296 1.50786 0
M  V30 1452 C 145.088 -1.72995 2.9142 0
M  V30 1453 C 144.261 -1.33316 4.16588 0
M  V30 1454 C 143.32 -2.40521 4.68013 0
M  V30 1455 O 142.346 -2.03027 5.3176 0
M  V30 1456 N 143.548 -3.72065 4.45587 0
M  V30 1457 H 146.313 0.078751 2.99597 0
M  V30 1458 H 143.874 0.187833 1.60807 0
M  V30 1459 H 145.866 -2.44184 3.22733 0
M  V30 1460 H 144.436 -2.2353 2.18525 0
M  V30 1461 H 143.656 -0.451236 3.91609 0
M  V30 1462 H 144.944 -1.04432 4.97967 0
M  V30 1463 H 144.342 -4.05304 3.94646 0
M  V30 1464 H 142.899 -4.39366 4.81457 0
M  V30 1465 N 146.332 -1.57332 0.0918853 0
M  V30 1466 C 147.56 -1.98574 -0.581048 0
M  V30 1467 C 147.975 -0.970903 -1.61923 0
M  V30 1468 O 147.332 0.0399054 -1.82456 0
M  V30 1469 C 147.383 -3.39872 -1.23164 0
M  V30 1470 O 147.104 -4.37469 -0.234989 0
M  V30 1471 C 148.605 -3.96099 -1.99049 0
M  V30 1472 H 145.825 -0.65261 -0.156018 0
M  V30 1473 H 148.369 -2.0379 0.170225 0
M  V30 1474 H 146.524 -3.35679 -1.93386 0
M  V30 1475 H 146.938 -5.19751 -0.70418 0
M  V30 1476 H 148.412 -4.97127 -2.39934 0
M  V30 1477 H 148.889 -3.3374 -2.85507 0
M  V30 1478 H 149.495 -4.03755 -1.3365 0
M  V30 1479 N 147.81 0.181792 -1.56548 0
M  V30 1480 C 149.226 0.53316 -1.50431 0
M  V30 1481 C 149.426 1.85184 -0.794297 0
M  V30 1482 O 148.482 2.50058 -0.350318 0
M  V30 1483 C 149.795 0.575597 -2.9514 0
M  V30 1484 C 151.343 0.663519 -3.05886 0
M  V30 1485 C 151.818 0.736946 -4.52032 0
M  V30 1486 N 153.309 0.800118 -4.56237 0
M  V30 1487 C 154.044 0.877327 -5.66649 0
M  V30 1488 N 153.54 0.916016 -6.86718 0
M  V30 1489 N 155.333 0.915542 -5.54594 0
M  V30 1490 H 147.484 -0.683025 -2.01118 0
M  V30 1491 H 149.747 -0.244988 -0.915797 0
M  V30 1492 H 149.453 -0.324482 -3.502 0
M  V30 1493 H 149.327 1.42572 -3.49218 0
M  V30 1494 H 151.714 1.55403 -2.50867 0
M  V30 1495 H 151.795 -0.21307 -2.54911 0
M  V30 1496 H 151.439 -0.149262 -5.07681 0
M  V30 1497 H 151.369 1.62953 -5.00753 0
M  V30 1498 H 153.86 0.778926 -3.69785 0
M  V30 1499 H 154.173 0.975813 -7.66614 0
M  V30 1500 H 152.518 0.884469 -6.89349 0
M  V30 1501 H 155.709 0.882245 -4.59711 0
M  V30 1502 H 155.882 0.972253 -6.40665 0
M  V30 1503 N 149.288 1.51039 0.449983 0
M  V30 1504 C 150.251 1.70863 1.5277 0
M  V30 1505 C 151.251 0.578846 1.5002 0
M  V30 1506 O 152.441 0.846213 1.52266 0
M  V30 1507 C 149.573 1.75341 2.9235 0
M  V30 1508 H 150.766 2.67034 1.36502 0
M  V30 1509 H 148.319 1.40838 0.677812 0
M  V30 1510 H 149.054 0.809383 3.14037 0
M  V30 1511 H 148.839 2.57436 2.95752 0
M  V30 1512 H 150.329 1.92559 3.70555 0
M  V30 1513 N 150.766 -0.704594 1.40972 0
M  V30 1514 C 151.699 -1.82861 1.36518 0
M  V30 1515 C 152.677 -1.6091 0.23382 0
M  V30 1516 O 153.861 -1.83778 0.419271 0
M  V30 1517 C 150.988 -3.1939 1.12729 0
M  V30 1518 C 150.034 -3.60148 2.28463 0
M  V30 1519 S 150.867 -3.65994 3.90907 0
M  V30 1520 C 152.023 -5.05264 3.69403 0
M  V30 1521 H 152.256 -1.86361 2.3164 0
M  V30 1522 H 149.789 -0.872439 1.27389 0
M  V30 1523 H 151.747 -3.98211 0.996893 0
M  V30 1524 H 150.408 -3.1351 0.192427 0
M  V30 1525 H 149.601 -4.59309 2.07489 0
M  V30 1526 H 149.203 -2.88612 2.37863 0
M  V30 1527 H 151.495 -5.92504 3.28551 0
M  V30 1528 H 152.438 -5.31278 4.68134 0
M  V30 1529 H 152.846 -4.76377 3.02862 0
M  V30 1530 N 152.244 -1.26651 -0.937939 0
M  V30 1531 C 153.493 -1.11775 -1.67897 0
M  V30 1532 C 153.806 0.33794 -1.92659 0
M  V30 1533 O 155.012 0.607434 -2.64618 0
M  V30 1534 C 153.468 -1.9523 -3.02346 0
M  V30 1535 C 153.076 -3.45393 -2.8532 0
M  V30 1536 C 154.82 -1.88972 -3.80118 0
M  V30 1537 C 152.727 -4.21083 -4.15263 0
M  V30 1538 H 151.657 -0.414696 -0.629717 0
M  V30 1539 H 154.308 -1.50988 -1.04283 0
M  V30 1540 H 152.69 -1.48853 -3.66959 0
M  V30 1541 H 153.864 -3.99561 -2.29537 0
M  V30 1542 H 152.179 -3.52921 -2.20988 0
M  V30 1543 H 154.776 -2.42805 -4.76392 0
M  V30 1544 H 155.119 -0.86113 -4.07296 0
M  V30 1545 H 155.652 -2.33189 -3.22285 0
M  V30 1546 H 152.391 -5.24425 -3.93267 0
M  V30 1547 H 151.911 -3.71695 -4.70747 0
M  V30 1548 H 153.59 -4.29706 -4.83696 0
M  V30 1549 N 153.722 1.14298 -1.08507 0
M  V30 1550 C 154.97 1.84993 -0.813763 0
M  V30 1551 C 155.291 1.83405 0.662393 0
M  V30 1552 O 154.561 1.28319 1.48024 0
M  V30 1553 H 153.141 0.684966 -0.298045 0
M  V30 1554 H 155.803 1.385 -1.37126 0
M  V30 1555 H 154.899 2.89788 -1.15884 0
M  V30 1556 N 155.201 0.870884 1.31352 0
M  V30 1557 C 156.447 0.482987 1.96965 0
M  V30 1558 C 156.78 -0.962462 1.68672 0
M  V30 1559 O 156.055 -1.6779 0.98371 0
M  V30 1560 C 156.338 0.741752 3.52378 0
M  V30 1561 C 156.191 2.2368 3.9024 0
M  V30 1562 C 157.51 0.208838 4.39604 0
M  V30 1563 H 154.629 0.176955 0.715441 0
M  V30 1564 H 157.271 1.09229 1.55464 0
M  V30 1565 H 155.421 0.223149 3.87859 0
M  V30 1566 H 157.093 2.82273 3.64856 0
M  V30 1567 H 155.336 2.70901 3.38814 0
M  V30 1568 H 156.007 2.3685 4.98604 0
M  V30 1569 H 158.483 0.652529 4.10952 0
M  V30 1570 H 157.359 0.419336 5.47296 0
M  V30 1571 H 157.62 -0.889275 4.33064 0
M  V30 1572 N 156.679 -1.44442 0.630414 0
M  V30 1573 C 157.589 -2.34476 -0.0761693 0
M  V30 1574 C 158.605 -1.52576 -0.836449 0
M  V30 1575 O 159.781 -1.85307 -0.788874 0
M  V30 1576 C 156.846 -3.30545 -1.04599 0
M  V30 1577 C 155.907 -4.28352 -0.28516 0
M  V30 1578 C 155.14 -5.19831 -1.20878 0
M  V30 1579 O 155.363 -5.15223 -2.44747 0
M  V30 1580 O 154.297 -5.97892 -0.693491 0
M  V30 1581 H 158.123 -2.96345 0.664324 0
M  V30 1582 H 155.708 -1.44203 0.39061 0
M  V30 1583 H 157.59 -3.89681 -1.60396 0
M  V30 1584 H 156.265 -2.7121 -1.76711 0
M  V30 1585 H 155.172 -3.72764 0.315837 0
M  V30 1586 H 156.505 -4.90605 0.395924 0
M  V30 1587 N 158.157 -0.370918 -1.53173 0
M  V30 1588 C 159.12 0.460778 -2.24521 0
M  V30 1589 C 160.12 1.00536 -1.25496 0
M  V30 1590 O 161.31 0.890266 -1.49733 0
M  V30 1591 C 158.442 1.64457 -2.98608 0
M  V30 1592 H 159.635 -0.163613 -2.99453 0
M  V30 1593 H 157.188 -0.122699 -1.55818 0
M  V30 1594 H 157.923 2.30691 -2.2793 0
M  V30 1595 H 157.708 1.26099 -3.7127 0
M  V30 1596 H 159.198 2.23384 -3.5283 0
M  V30 1597 N 159.635 1.57281 -0.100228 0
M  V30 1598 C 160.565 2.17328 0.853857 0
M  V30 1599 C 161.546 1.10804 1.2906 0
M  V30 1600 O 162.731 1.38963 1.35657 0
M  V30 1601 C 159.861 2.75772 2.11109 0
M  V30 1602 C 158.815 3.87713 1.81279 0
M  V30 1603 C 158.141 4.32882 3.13874 0
M  V30 1604 C 159.441 5.10677 1.09574 0
M  V30 1605 H 161.135 2.97305 0.353545 0
M  V30 1606 H 158.681 1.43009 0.168612 0
M  V30 1607 H 160.634 3.16433 2.78296 0
M  V30 1608 H 159.358 1.93057 2.63432 0
M  V30 1609 H 158.017 3.476 1.16489 0
M  V30 1610 H 157.665 3.47051 3.64095 0
M  V30 1611 H 157.365 5.08358 2.94696 0
M  V30 1612 H 158.889 4.7618 3.82211 0
M  V30 1613 H 160.303 5.48474 1.66879 0
M  V30 1614 H 158.7 5.91615 1.00557 0
M  V30 1615 H 159.77 4.84835 0.0793299 0
M  V30 1616 N 161.113 -0.173488 1.56642 0
M  V30 1617 C 162.043 -1.2171 1.99271 0
M  V30 1618 C 163.024 -1.46289 0.867959 0
M  V30 1619 O 164.209 -1.5766 1.13388 0
M  V30 1620 C 161.339 -2.55651 2.35074 0
M  V30 1621 C 160.293 -2.45645 3.50489 0
M  V30 1622 C 159.619 -3.84056 3.72028 0
M  V30 1623 C 160.919 -1.96302 4.84007 0
M  V30 1624 H 162.613 -0.86275 2.867 0
M  V30 1625 H 160.159 -0.413571 1.37933 0
M  V30 1626 H 162.112 -3.2886 2.63494 0
M  V30 1627 H 160.836 -2.92869 1.44552 0
M  V30 1628 H 159.495 -1.7489 3.22194 0
M  V30 1629 H 159.143 -4.18664 2.788 0
M  V30 1630 H 158.843 -3.7823 4.49684 0
M  V30 1631 H 160.367 -4.58854 4.02846 0
M  V30 1632 H 161.781 -2.59284 5.11317 0
M  V30 1633 H 160.178 -2.01429 5.65284 0
M  V30 1634 H 161.248 -0.917226 4.76146 0
M  V30 1635 N 162.591 -1.51276 -0.441967 0
M  V30 1636 C 163.819 -1.67516 -1.21434 0
M  V30 1637 C 164.234 -0.37055 -1.85128 0
M  V30 1638 O 163.591 0.650498 -1.70513 0
M  V30 1639 C 163.642 -2.78748 -2.30177 0
M  V30 1640 O 163.363 -4.04154 -1.69089 0
M  V30 1641 C 164.864 -3.06217 -3.20541 0
M  V30 1642 H 162.084 -0.562276 -0.366178 0
M  V30 1643 H 164.628 -1.97666 -0.524244 0
M  V30 1644 H 162.783 -2.5121 -2.94911 0
M  V30 1645 H 163.197 -4.65894 -2.40922 0
M  V30 1646 H 164.671 -3.8764 -3.92987 0
M  V30 1647 H 165.148 -2.18439 -3.81026 0
M  V30 1648 H 165.754 -3.35397 -2.61513 0
M  V30 1649 N 164.069 0.697108 -1.41344 0
M  V30 1650 C 165.017 1.83237 -1.43272 0
M  V30 1651 C 166.011 1.66522 -0.310947 0
M  V30 1652 O 167.217 1.73402 -0.482899 0
M  V30 1653 H 163.592 0.603802 -0.448249 0
M  V30 1654 H 165.563 1.78727 -2.38954 0
M  V30 1655 C 164.312 3.21245 -1.33029 0
M  V30 1656 H 163.635 3.34723 -2.18633 0
M  V30 1657 H 165.075 4.00763 -1.38439 0
M  V30 1658 C 163.534 3.36873 -0.0424635 0
M  V30 1659 O 164.064 3.91177 0.913421 0
M  V30 1660 N 162.27 2.90581 0.0331145 0
M  V30 1661 H 161.817 2.46577 -0.745506 0
M  V30 1662 H 161.775 3.01416 0.894199 0
M  V30 1663 N 165.547 1.27147 0.931209 0
M  V30 1664 C 166.793 1.13446 1.68101 0
M  V30 1665 C 167.126 -0.319628 1.91552 0
M  V30 1666 O 166.401 -1.23407 1.50336 0
M  V30 1667 C 166.684 1.91482 3.0497 0
M  V30 1668 C 166.537 3.44855 2.88782 0
M  V30 1669 C 167.856 1.71651 4.05246 0
M  V30 1670 H 164.975 0.413498 0.610072 0
M  V30 1671 H 167.617 1.56261 1.08086 0
M  V30 1672 H 165.767 1.55095 3.56199 0
M  V30 1673 H 167.439 3.9105 2.44698 0
M  V30 1674 H 165.682 3.71373 2.24198 0
M  V30 1675 H 166.353 3.94694 3.85902 0
M  V30 1676 H 168.829 2.0337 3.63015 0
M  V30 1677 H 167.705 2.28651 4.99009 0
M  V30 1678 H 167.966 0.663555 4.37092 0
M  V30 1679 N 167.025 -1.13721 1.09112 0
M  V30 1680 C 168.302 -1.81155 0.737706 0
M  V30 1681 C 168.682 -1.96253 -0.777683 0
M  V30 1682 O 168.03 -1.52807 -1.69889 0
M  V30 1683 C 168.24 -3.16392 1.47299 0
M  V30 1684 C 169.588 -3.91787 1.63671 0
M  V30 1685 O 170.612 -3.26005 1.43524 0
M  V30 1686 O 169.471 -5.0977 1.96969 0
M  V30 1687 H 166.565 -0.783518 0.26463 0
M  V30 1688 H 169.111 -1.20676 1.19312 0
M  V30 1689 H 167.883 -3.0061 2.50498 0
M  V30 1690 H 167.506 -3.8457 1.00953 0
M  V30 1691 N 168.503 -0.877838 -1.30888 0
M  V30 1692 C 169.466 -0.344265 -2.266 0
M  V30 1693 C 170.466 0.50922 -1.52524 0
M  V30 1694 O 171.656 0.317398 -1.71284 0
M  V30 1695 C 168.788 0.510198 -3.37061 0
M  V30 1696 H 169.981 -1.1893 -2.7531 0
M  V30 1697 H 167.534 -0.654088 -1.41956 0
M  V30 1698 H 168.269 1.37612 -2.93655 0
M  V30 1699 H 168.054 -0.101047 -3.9197 0
M  V30 1700 H 169.544 0.875537 -4.08319 0
M  V30 1701 N 169.982 1.44106 -0.638065 0
M  V30 1702 C 170.945 2.29138 0.0531013 0
M  V30 1703 C 171.945 1.41409 0.765506 0
M  V30 1704 O 173.135 1.63206 0.609046 0
M  V30 1705 C 170.267 3.23144 1.08584 0
M  V30 1706 H 171.46 2.91739 -0.694883 0
M  V30 1707 H 169.013 1.51134 -0.398538 0
M  V30 1708 H 169.748 2.65408 1.86357 0
M  V30 1709 H 169.533 3.87804 0.578852 0
M  V30 1710 H 171.023 3.87004 1.56899 0
M  V30 1711 N 171.46 0.379036 1.52974 0
M  V30 1712 C 172.408 -0.476033 2.27677 0
M  V30 1713 C 173.402 -1.0719 1.31174 0
M  V30 1714 O 174.608 -1.01355 1.48752 0
M  V30 1715 H 170.983 -0.172255 0.732006 0
M  V30 1716 H 172.954 0.175615 2.97883 0
M  V30 1717 C 171.703 -1.5967 3.0887 0
M  V30 1718 H 171.026 -1.1475 3.82978 0
M  V30 1719 H 172.466 -2.16943 3.64296 0
M  V30 1720 C 170.925 -2.54682 2.20542 0
M  V30 1721 O 171.455 -3.57836 1.82527 0
M  V30 1722 N 169.661 -2.24183 1.84907 0
M  V30 1723 H 169.208 -1.40333 2.1602 0
M  V30 1724 H 169.166 -2.88006 1.26096 0
M  V30 1725 N 172.938 -1.57226 0.108567 0
M  V30 1726 C 173.868 -2.17778 -0.84232 0
M  V30 1727 C 174.849 -1.11487 -1.2847 0
M  V30 1728 O 176.034 -1.39681 -1.34918 0
M  V30 1729 C 173.164 -2.76888 -2.09644 0
M  V30 1730 C 172.118 -3.88669 -1.79221 0
M  V30 1731 C 171.444 -4.34541 -3.11574 0
M  V30 1732 C 172.744 -5.11251 -1.06864 0
M  V30 1733 H 174.438 -2.97489 -0.337774 0
M  V30 1734 H 171.984 -1.43097 -0.161025 0
M  V30 1735 H 173.937 -3.17904 -2.76614 0
M  V30 1736 H 172.661 -1.94451 -2.62405 0
M  V30 1737 H 171.32 -3.48213 -1.14644 0
M  V30 1738 H 170.968 -3.48977 -3.62249 0
M  V30 1739 H 170.668 -5.09914 -2.91996 0
M  V30 1740 H 172.192 -4.782 -3.7968 0
M  V30 1741 H 173.606 -5.49352 -1.63968 0
M  V30 1742 H 172.003 -5.9214 -0.974178 0
M  V30 1743 H 173.073 -4.8487 -0.0536168 0
M  V30 1744 N 174.416 0.165178 -1.56732 0
M  V30 1745 C 175.827 0.727046 -1.71962 0
M  V30 1746 C 176.178 1.82508 -0.720078 0
M  V30 1747 O 175.303 2.16082 0.117242 0
M  V30 1748 C 175.898 1.32559 -3.11791 0
M  V30 1749 C 174.457 1.83422 -3.28684 0
M  V30 1750 C 173.604 0.715567 -2.67908 0
M  V30 1751 H 176.555 -0.0602896 -1.58585 0
M  V30 1752 H 176.576 2.19533 -3.10782 0
M  V30 1753 H 176.088 0.526195 -3.84516 0
M  V30 1754 H 174.189 2.65986 -2.60926 0
M  V30 1755 H 174.302 1.97543 -4.36478 0
M  V30 1756 H 172.666 1.13758 -2.27884 0
M  V30 1757 H 173.449 -0.0720836 -3.43224 0
M  V30 1758 N 175.894 1.51508 0.433938 0
M  V30 1759 C 177.31 1.39759 0.770682 0
M  V30 1760 C 177.51 0.482594 1.95636 0
M  V30 1761 O 176.566 -0.0609691 2.52426 0
M  V30 1762 C 177.879 2.81851 1.04787 0
M  V30 1763 C 179.427 2.91025 1.1521 0
M  V30 1764 C 179.902 4.34032 1.46219 0
M  V30 1765 N 181.393 4.37154 1.53136 0
M  V30 1766 C 182.128 5.4484 1.78709 0
M  V30 1767 N 181.624 6.62682 2.02051 0
M  V30 1768 N 183.417 5.32324 1.80519 0
M  V30 1769 H 175.568 2.09548 -0.346892 0
M  V30 1770 H 177.831 0.943446 -0.0928074 0
M  V30 1771 H 177.537 3.50815 0.249304 0
M  V30 1772 H 177.411 3.21386 1.97461 0
M  V30 1773 H 179.798 2.22257 1.94128 0
M  V30 1774 H 179.879 2.54983 0.204281 0
M  V30 1775 H 179.523 5.03351 0.678274 0
M  V30 1776 H 179.453 4.6759 2.42212 0
M  V30 1777 H 181.944 3.52197 1.36987 0
M  V30 1778 H 182.257 7.40543 2.20943 0
M  V30 1779 H 180.602 6.65791 1.99366 0
M  V30 1780 H 183.793 4.39246 1.61805 0
M  V30 1781 H 183.966 6.16328 2.00111 0
M  V30 1782 N 177.372 -0.689602 1.41712 0
M  V30 1783 C 178.783 -1.26973 1.36875 0
M  V30 1784 C 179.134 -1.96124 0.054748 0
M  V30 1785 O 178.259 -1.99141 -0.84687 0
M  V30 1786 C 178.854 -2.30912 2.47922 0
M  V30 1787 C 177.413 -2.84486 2.46464 0
M  V30 1788 C 176.56 -1.58603 2.27465 0
M  V30 1789 H 179.511 -0.48396 1.51141 0
M  V30 1790 H 179.532 -3.12331 2.17323 0
M  V30 1791 H 179.044 -1.80554 3.43543 0
M  V30 1792 H 177.145 -3.39005 1.54617 0
M  V30 1793 H 177.258 -3.34511 3.42986 0
M  V30 1794 H 175.622 -1.84632 1.75451 0
M  V30 1795 H 176.405 -1.10233 3.25121 0
M  V30 1796 N 178.85 -1.27639 -0.924453 0
M  V30 1797 C 179.78 -1.13166 -2.04244 0
M  V30 1798 C 180.761 -0.032256 -1.70069 0
M  V30 1799 O 181.946 -0.207328 -1.9309 0
M  V30 1800 C 179.076 -0.781496 -3.38393 0
M  V30 1801 C 178.03 -1.83449 -3.86692 0
M  V30 1802 C 177.356 -1.33822 -5.17683 0
M  V30 1803 C 178.656 -3.23917 -4.09726 0
M  V30 1804 H 180.35 -2.06689 -2.1661 0
M  V30 1805 H 177.896 -0.995136 -1.04082 0
M  V30 1806 H 179.849 -0.667057 -4.16087 0
M  V30 1807 H 178.573 0.189439 -3.2605 0
M  V30 1808 H 177.232 -1.93789 -3.11193 0
M  V30 1809 H 176.88 -0.35665 -5.01734 0
M  V30 1810 H 176.58 -2.04224 -5.50968 0
M  V30 1811 H 178.104 -1.23679 -5.97943 0
M  V30 1812 H 179.518 -3.16559 -4.77978 0
M  V30 1813 H 177.915 -3.92059 -4.54324 0
M  V30 1814 H 178.985 -3.68729 -3.14908 0
M  V30 1815 N 180.328 1.1314 -1.09713 0
M  V30 1816 C 181.574 1.84757 -0.836224 0
M  V30 1817 C 181.907 1.8347 0.636598 0
M  V30 1818 O 181.182 1.27491 1.46889 0
M  V30 1819 C 181.465 3.32782 -1.37578 0
M  V30 1820 C 181.318 3.42567 -2.91493 0
M  V30 1821 C 182.637 4.28307 -1.01198 0
M  V30 1822 H 179.756 0.67082 -0.305236 0
M  V30 1823 H 182.398 1.3278 -1.35903 0
M  V30 1824 H 180.548 3.77177 -0.931097 0
M  V30 1825 H 182.22 3.06862 -3.44432 0
M  V30 1826 H 180.463 2.83349 -3.28475 0
M  V30 1827 H 181.134 4.46674 -3.24324 0
M  V30 1828 H 183.61 3.91999 -1.39556 0
M  V30 1829 H 182.486 5.30307 -1.41653 0
M  V30 1830 H 182.747 4.42029 0.0794833 0
M  V30 1831 N 181.806 0.884767 1.30421 0
M  V30 1832 C 182.753 0.349642 2.28136 0
M  V30 1833 C 183.723 -0.560061 1.56373 0
M  V30 1834 O 184.908 -0.488524 1.8444 0
M  V30 1835 C 182.048 -0.42999 3.42411 0
M  V30 1836 C 181.161 0.508907 4.28992 0
M  V30 1837 C 180.296 -0.286301 5.30428 0
M  V30 1838 C 179.335 0.648079 6.08659 0
M  V30 1839 N 178.472 -0.111792 7.02011 0
M  V30 1840 H 183.312 1.18807 2.73293 0
M  V30 1841 H 180.849 0.597231 1.3443 0
M  V30 1842 H 182.807 -0.897923 4.07423 0
M  V30 1843 H 181.437 -1.23299 2.98324 0
M  V30 1844 H 180.489 1.09533 3.64289 0
M  V30 1845 H 181.801 1.22475 4.8353 0
M  V30 1846 H 180.955 -0.816098 6.01186 0
M  V30 1847 H 179.694 -1.03536 4.76583 0
M  V30 1848 H 178.699 1.18951 5.36778 0
M  V30 1849 H 179.924 1.39623 6.64592 0
M  V30 1850 H 177.87 -0.843395 6.50556 0
M  V30 1851 H 177.787 0.544429 7.54037 0
M  V30 1852 H 179.055 -0.622339 7.77012 0
M  V30 1853 N 183.284 -1.43765 0.645699 0
M  V30 1854 C 184.53 -2.02731 0.164844 0
M  V30 1855 C 184.885 -1.49983 -1.2051 0
M  V30 1856 O 184.178 -0.680208 -1.79119 0
M  V30 1857 C 184.372 -3.57238 0.107679 0
M  V30 1858 C 184.201 -4.24977 1.47054 0
M  V30 1859 C 182.971 -4.61356 2.06103 0
M  V30 1860 C 185.169 -4.54476 2.40741 0
M  V30 1861 N 183.151 -5.14132 3.35473 0
M  V30 1862 C 184.522 -5.08489 3.54737 0
M  V30 1863 C 186.577 -4.36438 2.39637 0
M  V30 1864 C 185.28 -5.46364 4.67845 0
M  V30 1865 C 187.306 -4.7537 3.5182 0
M  V30 1866 C 186.668 -5.2951 4.64541 0
M  V30 1867 H 182.767 -0.774976 0.104578 0
M  V30 1868 H 185.351 -1.75051 0.852367 0
M  V30 1869 H 183.522 -3.84498 -0.549165 0
M  V30 1870 H 185.254 -4.0288 -0.383351 0
M  V30 1871 H 182.009 -4.46151 1.58892 0
M  V30 1872 H 182.433 -5.4498 4.01654 0
M  V30 1873 H 187.075 -3.93861 1.53731 0
M  V30 1874 H 184.793 -5.87888 5.54448 0
M  V30 1875 H 188.379 -4.63115 3.52159 0
M  V30 1876 H 187.259 -5.59077 5.49911 0
M  V30 1877 N 184.763 -0.387143 -1.52771 0
M  V30 1878 C 185.988 0.198407 -2.06449 0
M  V30 1879 C 186.413 1.39918 -1.25716 0
M  V30 1880 O 185.771 1.79099 -0.281657 0
M  V30 1881 C 185.819 0.548893 -3.56398 0
M  V30 1882 O 184.923 1.64315 -3.78252 0
M  V30 1883 H 184.264 0.0237731 -0.663574 0
M  V30 1884 H 186.794 -0.553989 -1.96957 0
M  V30 1885 H 186.804 0.813812 -3.99801 0
M  V30 1886 H 185.479 -0.329005 -4.14597 0
M  V30 1887 H 184.056 1.37211 -3.46738 0
M  V30 1888 N 186.241 1.57166 -0.116904 0
M  V30 1889 C 187.471 1.99184 0.548586 0
M  V30 1890 C 187.879 0.995436 1.60897 0
M  V30 1891 O 187.222 -0.0201293 1.83689 0
M  V30 1892 C 187.284 3.37611 1.23526 0
M  V30 1893 C 186.948 4.55857 0.323077 0
M  V30 1894 C 187.945 5.18056 -0.437476 0
M  V30 1895 C 185.63 5.01751 0.234761 0
M  V30 1896 C 187.624 6.24536 -1.2741 0
M  V30 1897 C 185.311 6.08093 -0.605496 0
M  V30 1898 C 186.309 6.69352 -1.35856 0
M  V30 1899 O 185.997 7.7364 -2.18487 0
M  V30 1900 H 185.729 0.659148 0.149999 0
M  V30 1901 H 188.283 2.0443 -0.199428 0
M  V30 1902 H 186.513 3.29113 2.0303 0
M  V30 1903 H 188.202 3.63932 1.79745 0
M  V30 1904 H 188.968 4.83516 -0.379105 0
M  V30 1905 H 184.847 4.53817 0.810601 0
M  V30 1906 H 188.391 6.72281 -1.86237 0
M  V30 1907 H 184.288 6.42063 -0.665268 0
M  V30 1908 H 185.056 7.90727 -2.11406 0
M  V30 1909 N 187.719 -0.156864 1.56817 0
M  V30 1910 C 188.629 -1.2136 2.00771 0
M  V30 1911 C 189.645 -1.47598 0.921459 0
M  V30 1912 O 190.821 -1.59462 1.2302 0
M  V30 1913 C 187.886 -2.52943 2.37109 0
M  V30 1914 C 186.947 -2.34439 3.59634 0
M  V30 1915 C 186.18 -3.59748 3.94229 0
M  V30 1916 O 186.403 -4.65526 3.29609 0
M  V30 1917 O 185.337 -3.52998 4.8752 0
M  V30 1918 H 189.163 -0.870468 2.90958 0
M  V30 1919 H 186.748 -0.36484 1.44877 0
M  V30 1920 H 188.63 -3.30538 2.61386 0
M  V30 1921 H 187.305 -2.86806 1.5008 0
M  V30 1922 H 186.212 -1.54828 3.40557 0
M  V30 1923 H 187.545 -2.05496 4.4725 0
M  V30 1924 N 189.197 -1.51736 -0.425897 0
M  V30 1925 C 190.608 -1.5732 -1.00536 0
M  V30 1926 C 190.959 -0.403537 -1.92005 0
M  V30 1927 O 190.084 0.478256 -2.11049 0
M  V30 1928 C 190.679 -2.85119 -1.8301 0
M  V30 1929 C 189.238 -2.93236 -2.35987 0
M  V30 1930 C 188.385 -2.52098 -1.15508 0
M  V30 1931 H 191.336 -1.57348 -0.206739 0
M  V30 1932 H 191.357 -2.69526 -2.68581 0
M  V30 1933 H 190.869 -3.7023 -1.16411 0
M  V30 1934 H 188.97 -2.12581 -3.06007 0
M  V30 1935 H 189.083 -3.9713 -2.68001 0
M  V30 1936 H 187.447 -2.05558 -1.50393 0
M  V30 1937 H 188.23 -3.39565 -0.505014 0
M  V30 1938 N 190.675 0.682077 -1.42076 0
M  V30 1939 C 191.638 1.77756 -1.44691 0
M  V30 1940 C 192.638 1.5726 -0.335535 0
M  V30 1941 O 193.828 1.63686 -0.596037 0
M  V30 1942 C 190.96 3.16301 -1.27146 0
M  V30 1943 H 192.153 1.76826 -2.42224 0
M  V30 1944 H 189.706 0.891012 -1.28416 0
M  V30 1945 H 190.441 3.22862 -0.305075 0
M  V30 1946 H 190.226 3.32581 -2.07683 0
M  V30 1947 H 191.716 3.96241 -1.31843 0
M  V30 1948 N 192.153 1.28127 0.917671 0
M  V30 1949 C 193.378 1.18007 1.70555 0
M  V30 1950 C 193.803 -0.258257 1.86319 0
M  V30 1951 O 193.161 -1.1869 1.37049 0
M  V30 1952 C 193.209 1.87948 3.07746 0
M  V30 1953 O 192.313 1.18427 3.9503 0
M  V30 1954 H 191.654 0.409867 0.522403 0
M  V30 1955 H 194.184 1.69379 1.1477 0
M  V30 1956 H 194.194 1.95701 3.58001 0
M  V30 1957 H 192.869 2.92573 2.95591 0
M  V30 1958 H 191.446 1.18811 3.53466 0
M  V30 1959 N 193.631 -1.12557 1.10312 0
M  V30 1960 C 194.594 -2.16434 0.75424 0
M  V30 1961 C 195.594 -1.59278 -0.220685 0
M  V30 1962 O 196.784 -1.742 0.00230591 0
M  V30 1963 C 193.916 -3.40699 0.116987 0
M  V30 1964 H 195.109 -2.48811 1.67431 0
M  V30 1965 H 192.662 -1.27542 0.903475 0
M  V30 1966 H 193.397 -3.13921 -0.813877 0
M  V30 1967 H 193.182 -3.83459 0.818613 0
M  V30 1968 H 194.672 -4.17451 -0.111387 0
M  V30 1969 N 195.109 -0.891671 -1.2995 0
M  V30 1970 C 196.072 -0.36828 -2.26222 0
M  V30 1971 C 197.072 0.493014 -1.53056 0
M  V30 1972 O 198.262 0.299213 -1.71611 0
M  V30 1973 C 195.394 0.47442 -3.37583 0
M  V30 1974 H 196.587 -1.21844 -2.74033 0
M  V30 1975 H 194.14 -0.669107 -1.41254 0
M  V30 1976 H 194.875 1.34489 -2.95099 0
M  V30 1977 H 194.66 -0.142615 -3.91841 0
M  V30 1978 H 196.15 0.83218 -4.09224 0
M  V30 1979 N 196.587 1.43421 -0.653314 0
M  V30 1980 C 197.497 2.34568 0.0388565 0
M  V30 1981 C 198.513 1.53888 0.81207 0
M  V30 1982 O 199.689 1.86539 0.759294 0
M  V30 1983 C 196.754 3.32167 0.993269 0
M  V30 1984 C 195.815 4.28751 0.216977 0
M  V30 1985 C 195.048 5.21688 1.12593 0
M  V30 1986 O 195.271 5.19052 2.36519 0
M  V30 1987 O 194.205 5.98919 0.598284 0
M  V30 1988 H 198.031 2.95251 -0.711386 0
M  V30 1989 H 195.616 1.43564 -0.413502 0
M  V30 1990 H 197.498 3.92183 1.54176 0
M  V30 1991 H 196.173 2.73987 1.72374 0
M  V30 1992 H 195.08 3.72215 -0.375101 0
M  V30 1993 H 196.413 4.89913 -0.473924 0
M  V30 1994 N 198.065 0.39524 1.52563 0
M  V30 1995 C 199.311 -0.185318 2.01952 0
M  V30 1996 C 199.644 -1.45964 1.28095 0
M  V30 1997 O 198.919 -1.90689 0.38315 0
M  V30 1998 C 199.202 -0.447193 3.57312 0
M  V30 1999 C 199.055 0.842828 4.41833 0
M  V30 2000 C 200.374 -1.23529 4.22408 0
M  V30 2001 H 197.493 -0.0658788 0.73405 0
M  V30 2002 H 200.135 0.525975 1.82575 0
M  V30 2003 H 198.285 -1.05312 3.73954 0
M  V30 2004 H 199.957 1.4795 4.36931 0
M  V30 2005 H 198.2 1.45686 4.08605 0
M  V30 2006 H 198.871 0.614165 5.48573 0
M  V30 2007 H 201.347 -0.722445 4.0978 0
M  V30 2008 H 200.223 -1.38727 5.3108 0
M  V30 2009 H 200.484 -2.25213 3.80436 0
M  V30 2010 N 199.544 -1.57102 0.125237 0
M  V30 2011 C 200.955 -1.82384 -0.399142 0
M  V30 2012 C 201.306 -1.04276 -1.66195 0
M  V30 2013 O 200.431 -0.281269 -2.14564 0
M  V30 2014 C 201.026 -3.30821 -0.730932 0
M  V30 2015 C 199.585 -3.56762 -1.19992 0
M  V30 2016 C 198.732 -2.7649 -0.211792 0
M  V30 2017 H 201.683 -1.54786 0.350277 0
M  V30 2018 H 201.704 -3.4579 -1.58775 0
M  V30 2019 H 201.216 -3.87643 0.188345 0
M  V30 2020 H 199.317 -3.05305 -2.13588 0
M  V30 2021 H 199.43 -4.65317 -1.14093 0
M  V30 2022 H 197.794 -2.4489 -0.700085 0
M  V30 2023 H 198.577 -3.36073 0.700691 0
M  V30 2024 N 201.022 0.148545 -1.56898 0
M  V30 2025 C 201.972 1.1886 -1.94567 0
M  V30 2026 C 202.956 1.3863 -0.816735 0
M  V30 2027 O 204.148 1.40218 -1.08018 0
M  V30 2028 C 201.277 2.52262 -2.32849 0
M  V30 2029 C 200.363 2.36092 -3.52309 0
M  V30 2030 N 200.754 1.89674 -4.6889 0
M  V30 2031 C 199.052 2.66848 -3.57363 0
M  V30 2032 C 199.753 1.86511 -5.50989 0
M  V30 2033 N 198.729 2.29766 -4.92655 0
M  V30 2034 H 202.531 0.821793 -2.82177 0
M  V30 2035 H 200.045 0.356615 -1.58436 0
M  V30 2036 H 202.042 3.27447 -2.58039 0
M  V30 2037 H 200.702 2.89727 -1.46589 0
M  V30 2038 H 201.713 1.59663 -4.92674 0
M  V30 2039 H 198.39 3.08198 -2.81639 0
M  V30 2040 H 199.78 1.52128 -6.54452 0
M  V30 2041 N 202.5 1.5196 0.417844 0
M  V30 2042 C 203.463 1.74065 1.49111 0
M  V30 2043 C 204.463 0.610537 1.48758 0
M  V30 2044 O 205.653 0.87832 1.50437 0
M  V30 2045 C 202.785 1.81502 2.88565 0
M  V30 2046 H 203.978 2.69869 1.30807 0
M  V30 2047 H 201.531 1.42244 0.647785 0
M  V30 2048 H 202.266 0.875813 3.1225 0
M  V30 2049 H 202.051 2.63651 2.90225 0
M  V30 2050 H 203.541 2.00376 3.66387 0
M  V30 2051 N 203.978 -0.674533 1.42435 0
M  V30 2052 C 204.911 -1.79924 1.40366 0
M  V30 2053 C 205.889 -1.60378 0.267899 0
M  V30 2054 O 207.073 -1.82847 0.458159 0
M  V30 2055 C 204.2 -3.16927 1.19478 0
M  V30 2056 C 203.246 -3.55221 2.36051 0
M  V30 2057 S 204.079 -3.5762 3.98583 0
M  V30 2058 C 205.235 -4.97315 3.80038 0
M  V30 2059 H 205.468 -1.81405 2.35541 0
M  V30 2060 H 203.001 -0.845221 1.29211 0
M  V30 2061 H 204.959 -3.96007 1.08114 0
M  V30 2062 H 203.62 -3.13031 0.258883 0
M  V30 2063 H 202.813 -4.54804 2.17185 0
M  V30 2064 H 202.415 -2.83502 2.43932 0
M  V30 2065 H 204.707 -5.85401 3.41045 0
M  V30 2066 H 205.65 -5.21228 4.79298 0
M  V30 2067 H 206.058 -4.69845 3.12899 0
M  V30 2068 N 205.456 -1.28612 -0.910864 0
M  V30 2069 C 206.681 -1.1891 -1.69927 0
M  V30 2070 C 207.106 0.248372 -1.86453 0
M  V30 2071 O 206.464 1.17961 -1.37676 0
M  V30 2072 C 206.512 -1.89578 -3.06745 0
M  V30 2073 O 205.616 -1.20521 -3.94396 0
M  V30 2074 H 204.957 -0.412632 -0.520222 0
M  V30 2075 H 207.487 -1.69985 -1.1387 0
M  V30 2076 H 207.497 -1.97597 -3.56958 0
M  V30 2077 H 206.172 -2.94136 -2.94035 0
M  V30 2078 H 204.749 -1.20684 -3.52831 0
M  V30 2079 N 206.934 1.1197 -1.10907 0
M  V30 2080 C 208.35 1.35591 -0.841852 0
M  V30 2081 C 208.55 1.94233 0.536246 0
M  V30 2082 O 207.606 2.1717 1.28816 0
M  V30 2083 C 208.919 2.29284 -1.94549 0
M  V30 2084 C 210.467 2.42862 -1.97451 0
M  V30 2085 C 210.942 3.39873 -3.07002 0
M  V30 2086 N 212.433 3.47433 -3.06341 0
M  V30 2087 C 213.168 4.22421 -3.87748 0
M  V30 2088 N 212.664 5.00432 -4.79103 0
M  V30 2089 N 214.457 4.17876 -3.75946 0
M  V30 2090 H 206.608 0.722664 -1.99728 0
M  V30 2091 H 208.871 0.380635 -0.868229 0
M  V30 2092 H 208.577 1.93378 -2.93765 0
M  V30 2093 H 208.451 3.29452 -1.83688 0
M  V30 2094 H 210.838 2.78046 -0.988645 0
M  V30 2095 H 210.919 1.42566 -2.12388 0
M  V30 2096 H 210.563 3.05417 -4.05811 0
M  V30 2097 H 210.493 4.40011 -2.89306 0
M  V30 2098 H 212.984 2.91784 -2.40147 0
M  V30 2099 H 213.297 5.55002 -5.37766 0
M  V30 2100 H 211.642 4.99612 -4.83128 0
M  V30 2101 H 214.833 3.56016 -3.03924 0
M  V30 2102 H 215.006 4.76061 -4.39624 0
M  V30 2103 N 208.412 0.89855 1.29475 0
M  V30 2104 C 209.375 0.380272 2.26023 0
M  V30 2105 C 210.375 -0.484891 1.53315 0
M  V30 2106 O 211.565 -0.290108 1.71767 0
M  V30 2107 C 208.697 -0.45651 3.3783 0
M  V30 2108 H 209.89 1.23295 2.73383 0
M  V30 2109 H 207.443 0.676589 1.40897 0
M  V30 2110 H 208.178 -1.32922 2.95808 0
M  V30 2111 H 207.963 0.163393 3.91759 0
M  V30 2112 H 209.453 -0.810466 4.0966 0
M  V30 2113 N 209.89 -1.43072 0.660911 0
M  V30 2114 C 211.139 -2.00942 0.174735 0
M  V30 2115 C 211.452 -1.52797 -1.22117 0
M  V30 2116 O 212.658 -2.02991 -1.80297 0
M  V30 2117 C 211.114 -3.58948 0.261559 0
M  V30 2118 C 210.722 -4.16085 1.66064 0
M  V30 2119 C 212.466 -4.24173 -0.166617 0
M  V30 2120 C 210.373 -5.6641 1.70098 0
M  V30 2121 H 209.303 -0.751483 0.0615631 0
M  V30 2122 H 211.954 -1.63955 0.824069 0
M  V30 2123 H 210.336 -3.93372 -0.455421 0
M  V30 2124 H 211.51 -3.93147 2.40359 0
M  V30 2125 H 209.825 -3.6326 2.03546 0
M  V30 2126 H 212.422 -5.34471 -0.156433 0
M  V30 2127 H 212.765 -3.98647 -1.19943 0
M  V30 2128 H 213.298 -3.94659 0.498875 0
M  V30 2129 H 210.037 -5.96715 2.71315 0
M  V30 2130 H 209.557 -5.91382 1.00139 0
M  V30 2131 H 211.236 -6.30585 1.44816 0
M  V30 2132 N 211.368 -0.403325 -1.52352 0
M  V30 2133 C 212.318 0.442244 -2.2367 0
M  V30 2134 C 213.302 1.01823 -1.24583 0
M  V30 2135 O 214.494 0.942005 -1.49851 0
M  V30 2136 C 211.623 1.5615 -3.05732 0
M  V30 2137 C 210.709 0.996575 -4.12225 0
M  V30 2138 N 211.1 0.157804 -5.05554 0
M  V30 2139 C 209.398 1.26767 -4.27605 0
M  V30 2140 C 210.099 -0.155853 -5.81491 0
M  V30 2141 N 209.075 0.451775 -5.41719 0
M  V30 2142 H 212.877 -0.204964 -2.93184 0
M  V30 2143 H 210.391 -0.213418 -1.60992 0
M  V30 2144 H 212.388 2.17981 -3.55373 0
M  V30 2145 H 211.048 2.21139 -2.37755 0
M  V30 2146 H 212.059 -0.206049 -5.1749 0
M  V30 2147 H 208.736 1.91757 -3.70858 0
M  V30 2148 H 210.126 -0.836329 -6.66675 0
M  V30 2149 N 212.846 1.57033 -0.133567 0
M  V30 2150 C 213.779 2.11824 0.848872 0
M  V30 2151 C 214.757 1.03833 1.2513 0
M  V30 2152 O 215.941 1.31579 1.34978 0
M  V30 2153 C 213.068 2.62692 2.138 0
M  V30 2154 C 212.114 3.82705 1.88253 0
M  V30 2155 S 212.947 5.2438 1.08563 0
M  V30 2156 C 214.103 5.78627 2.38624 0
M  V30 2157 H 214.336 2.94824 0.38289 0
M  V30 2158 H 211.869 1.5419 0.0804796 0
M  V30 2159 H 213.827 2.92652 2.87863 0
M  V30 2160 H 212.488 1.79847 2.57515 0
M  V30 2161 H 211.681 4.16496 2.83809 0
M  V30 2162 H 211.283 3.53437 1.22305 0
M  V30 2163 H 213.575 5.8924 3.34369 0
M  V30 2164 H 214.518 6.76443 2.09358 0
M  V30 2165 H 214.926 5.06783 2.48658 0
M  V30 2166 N 214.325 -0.140222 1.56975 0
M  V30 2167 C 215.288 -1.15689 1.97861 0
M  V30 2168 C 216.288 -1.3549 0.865974 0
M  V30 2169 O 217.478 -1.32367 1.13246 0
M  V30 2170 C 214.61 -2.51582 2.30042 0
M  V30 2171 H 215.803 -0.805971 2.88867 0
M  V30 2172 H 213.356 -0.383801 1.51515 0
M  V30 2173 H 214.091 -2.91632 1.41849 0
M  V30 2174 H 213.876 -2.38569 3.11171 0
M  V30 2175 H 215.366 -3.24792 2.62488 0
M  V30 2176 N 215.803 -1.52179 -0.40978 0
M  V30 2177 C 217.028 -1.70347 -1.18308 0
M  V30 2178 C 217.453 -0.411887 -1.83535 0
M  V30 2179 O 216.811 0.630587 -1.6998 0
M  V30 2180 C 216.859 -2.83977 -2.22238 0
M  V30 2181 O 215.963 -2.495 -3.28365 0
M  V30 2182 H 215.304 -0.567103 -0.345384 0
M  V30 2183 H 217.834 -1.98879 -0.480445 0
M  V30 2184 H 217.844 -3.0887 -2.66577 0
M  V30 2185 H 216.519 -3.77685 -1.74146 0
M  V30 2186 H 215.096 -2.35277 -2.89308 0
M  V30 2187 N 217.281 0.66697 -1.42791 0
M  V30 2188 C 218.214 1.79177 -1.41318 0
M  V30 2189 C 219.192 1.60234 -0.276401 0
M  V30 2190 O 220.376 1.82602 -0.46785 0
M  V30 2191 C 217.503 3.16289 -1.21157 0
M  V30 2192 C 216.549 3.53964 -2.37932 0
M  V30 2193 S 217.382 3.55501 -4.00474 0
M  V30 2194 C 218.538 4.95292 -3.8267 0
M  V30 2195 H 218.771 1.80153 -2.365 0
M  V30 2196 H 216.304 0.838357 -1.29657 0
M  V30 2197 H 218.262 3.95428 -1.10212 0
M  V30 2198 H 216.923 3.1289 -0.275481 0
M  V30 2199 H 216.116 4.53646 -2.19594 0
M  V30 2200 H 215.718 2.82204 -2.45432 0
M  V30 2201 H 218.01 5.83584 -3.44145 0
M  V30 2202 H 218.953 5.18679 -4.82055 0
M  V30 2203 H 219.361 4.68179 -3.15386 0
M  V30 2204 N 218.759 1.29093 0.90403 0
M  V30 2205 C 219.722 1.1386 1.98919 0
M  V30 2206 C 220.722 0.0753457 1.60623 0
M  V30 2207 O 221.912 0.321931 1.71199 0
M  V30 2208 C 219.044 0.740198 3.32767 0
M  V30 2209 H 220.237 2.10246 2.13861 0
M  V30 2210 H 217.79 1.12218 1.08797 0
M  V30 2211 H 218.525 -0.223997 3.23525 0
M  V30 2212 H 218.31 1.50838 3.61926 0
M  V30 2213 H 219.8 0.656546 4.12407 0
M  V30 2214 N 220.237 -1.11381 1.11499 0
M  V30 2215 C 221.648 -1.6465 0.880191 0
M  V30 2216 C 221.999 -1.87199 -0.587434 0
M  V30 2217 O 221.124 -1.60667 -1.44966 0
M  V30 2218 C 221.719 -2.99105 1.59128 0
M  V30 2219 C 220.278 -3.49279 1.40289 0
M  V30 2220 C 219.425 -2.24077 1.63354 0
M  V30 2221 H 222.376 -0.950123 1.27116 0
M  V30 2222 H 222.397 -3.66107 1.03664 0
M  V30 2223 H 221.909 -2.82661 2.65941 0
M  V30 2224 H 220.01 -3.70887 0.356888 0
M  V30 2225 H 220.123 -4.2803 2.15238 0
M  V30 2226 H 218.487 -2.31733 1.05698 0
M  V30 2227 H 219.27 -2.10175 2.71443 0
M  V30 2228 N 221.715 -0.905404 -1.28997 0
M  V30 2229 C 222.647 -0.344748 -2.26592 0
M  V30 2230 C 223.66 0.512135 -1.54535 0
M  V30 2231 O 224.849 0.328368 -1.75454 0
M  V30 2232 C 221.949 0.526587 -3.34784 0
M  V30 2233 C 221.122 -0.305871 -4.36329 0
M  V30 2234 C 220.181 0.499209 -5.23827 0
M  V30 2235 O 219.207 -0.0853004 -5.69136 0
M  V30 2236 N 220.409 1.80408 -5.51755 0
M  V30 2237 H 223.174 -1.18359 -2.75338 0
M  V30 2238 H 220.735 -0.770481 -1.42391 0
M  V30 2239 H 222.727 1.07171 -3.90252 0
M  V30 2240 H 221.297 1.26613 -2.85811 0
M  V30 2241 H 220.517 -1.0324 -3.80441 0
M  V30 2242 H 221.805 -0.875773 -5.01206 0
M  V30 2243 H 221.203 2.3016 -5.16762 0
M  V30 2244 H 219.76 2.29621 -6.10014 0
M  V30 2245 N 223.193 1.4272 -0.668489 0
M  V30 2246 C 224.441 2.01226 -0.187769 0
M  V30 2247 C 224.762 1.53092 1.2078 0
M  V30 2248 O 224.032 0.74993 1.80977 0
M  V30 2249 H 222.612 0.744041 -0.0664272 0
M  V30 2250 H 225.274 1.74723 -0.863583 0
M  V30 2251 H 224.37 3.11556 -0.184166 0
M  V30 2252 N 224.671 0.411399 1.52136 0
M  V30 2253 C 226.082 -0.0576826 1.86611 0
M  V30 2254 C 226.433 -1.44238 1.33003 0
M  V30 2255 O 225.558 -2.05759 0.670228 0
M  V30 2256 C 226.153 -0.111448 3.38617 0
M  V30 2257 C 224.712 -0.52487 3.72723 0
M  V30 2258 C 223.859 0.299176 2.75681 0
M  V30 2259 H 226.81 0.628368 1.4573 0
M  V30 2260 H 226.831 -0.926252 3.69054 0
M  V30 2261 H 226.343 0.896488 3.77604 0
M  V30 2262 H 224.444 -1.53936 3.39315 0
M  V30 2263 H 224.557 -0.267681 4.78352 0
M  V30 2264 H 222.921 -0.238814 2.53578 0
M  V30 2265 H 223.704 1.3055 3.17508 0
M  V30 2266 N 226.149 -1.5696 0.141893 0
M  V30 2267 C 227.395 -1.9625 -0.511248 0
M  V30 2268 C 227.728 -1.02654 -1.64851 0
M  V30 2269 O 227.003 -0.0679676 -1.94381 0
M  V30 2270 C 227.286 -3.45285 -1.02227 0
M  V30 2271 C 227.139 -4.49658 0.113138 0
M  V30 2272 C 228.458 -3.96698 -1.90574 0
M  V30 2273 H 225.577 -0.713567 -0.184367 0
M  V30 2274 H 228.219 -1.88698 0.222087 0
M  V30 2275 H 226.369 -3.51852 -1.64719 0
M  V30 2276 H 228.041 -4.55174 0.749302 0
M  V30 2277 H 226.284 -4.26857 0.773026 0
M  V30 2278 H 226.955 -5.51258 -0.286053 0
M  V30 2279 H 229.431 -3.92578 -1.37918 0
M  V30 2280 H 228.307 -5.01453 -2.2324 0
M  V30 2281 H 228.568 -3.3875 -2.84079 0
M  V30 2282 N 227.627 0.131896 -1.57047 0
M  V30 2283 C 228.857 0.855219 -1.88068 0
M  V30 2284 C 229.265 1.74557 -0.729817 0
M  V30 2285 O 228.608 1.81083 0.308962 0
M  V30 2286 C 228.67 1.75119 -3.13964 0
M  V30 2287 C 228.334 1.03646 -4.45091 0
M  V30 2288 C 229.331 0.383276 -5.18485 0
M  V30 2289 C 227.016 1.02148 -4.91804 0
M  V30 2290 C 229.01 -0.275347 -6.36805 0
M  V30 2291 C 226.697 0.359047 -6.10044 0
M  V30 2292 C 227.695 -0.288222 -6.82392 0
M  V30 2293 O 227.383 -0.94011 -7.98384 0
M  V30 2294 H 227.115 0.251864 -0.627328 0
M  V30 2295 H 229.669 0.124782 -2.05021 0
M  V30 2296 H 227.899 2.52295 -2.9306 0
M  V30 2297 H 229.588 2.3478 -3.31109 0
M  V30 2298 H 230.354 0.386562 -4.83457 0
M  V30 2299 H 226.233 1.5147 -4.35405 0
M  V30 2300 H 229.777 -0.781148 -6.93213 0
M  V30 2301 H 225.674 0.35348 -6.44531 0
M  V30 2302 H 226.442 -0.84329 -8.14144 0
M  V30 2303 N 229.106 1.52395 0.401703 0
M  V30 2304 C 230.036 1.79231 1.49661 0
M  V30 2305 C 231.017 0.643654 1.57452 0
M  V30 2306 O 232.202 0.889989 1.72606 0
M  V30 2307 C 229.332 1.94971 2.87409 0
M  V30 2308 C 228.286 3.10604 2.94465 0
M  V30 2309 C 227.612 3.11577 4.34538 0
M  V30 2310 C 228.912 4.49921 2.6527 0
M  V30 2311 H 230.606 2.70917 1.27454 0
M  V30 2312 H 228.152 1.30362 0.6117 0
M  V30 2313 H 230.105 2.12328 3.63999 0
M  V30 2314 H 228.829 0.999632 3.10926 0
M  V30 2315 H 227.488 2.93009 2.20321 0
M  V30 2316 H 227.136 2.14277 4.55076 0
M  V30 2317 H 226.836 3.89247 4.40183 0
M  V30 2318 H 228.36 3.31073 5.13053 0
M  V30 2319 H 229.774 4.67683 3.31581 0
M  V30 2320 H 228.171 5.29564 2.82281 0
M  V30 2321 H 229.241 4.57507 1.60671 0
M  V30 2322 N 230.584 -0.659388 1.43143 0
M  V30 2323 C 231.809 -1.45221 1.48073 0
M  V30 2324 C 232.234 -1.87845 0.097995 0
M  V30 2325 O 231.592 -1.56985 -0.90694 0
M  V30 2326 C 231.64 -2.66748 2.42647 0
M  V30 2327 O 230.744 -3.65583 1.90848 0
M  V30 2328 H 230.085 -0.435669 0.501088 0
M  V30 2329 H 232.615 -0.807432 1.87994 0
M  V30 2330 H 232.625 -3.14637 2.59745 0
M  V30 2331 H 231.3 -2.35067 3.43098 0
M  V30 2332 H 229.877 -3.24693 1.83381 0
M  V30 2333 N 232.062 -1.29571 -0.897171 0
M  V30 2334 C 233.308 -1.17863 -1.65034 0
M  V30 2335 C 233.641 0.268729 -1.92332 0
M  V30 2336 O 232.916 1.19378 -1.53555 0
M  V30 2337 C 233.199 -1.995 -2.99786 0
M  V30 2338 C 233.052 -3.5239 -2.79538 0
M  V30 2339 C 234.371 -1.82335 -4.00552 0
M  V30 2340 H 231.49 -0.429528 -0.598895 0
M  V30 2341 H 234.132 -1.59072 -1.03905 0
M  V30 2342 H 232.282 -1.64485 -3.51962 0
M  V30 2343 H 233.954 -3.97401 -2.34244 0
M  V30 2344 H 232.197 -3.77187 -2.14273 0
M  V30 2345 H 232.868 -4.04787 -3.75302 0
M  V30 2346 H 235.344 -2.12924 -3.57495 0
M  V30 2347 H 234.22 -2.41801 -4.92771 0
M  V30 2348 H 234.481 -0.779209 -4.35179 0
M  V30 2349 N 233.54 1.10788 -1.12088 0
M  V30 2350 C 234.951 1.64181 -0.88891 0
M  V30 2351 C 235.302 1.87508 0.577498 0
M  V30 2352 O 234.427 1.61434 1.44112 0
M  V30 2353 C 235.022 2.98257 -1.60712 0
M  V30 2354 C 233.581 3.4853 -1.42139 0
M  V30 2355 C 232.728 2.23208 -1.6454 0
M  V30 2356 H 235.679 0.943368 -1.27618 0
M  V30 2357 H 235.7 3.65552 -1.05604 0
M  V30 2358 H 235.212 2.81246 -2.67436 0
M  V30 2359 H 233.313 3.70692 -0.376552 0
M  V30 2360 H 233.426 4.26882 -2.17505 0
M  V30 2361 H 231.79 2.31169 -1.06925 0
M  V30 2362 H 232.573 2.08733 -2.72554 0
M  V30 2363 N 235.018 0.912232 1.28515 0
M  V30 2364 C 236.248 0.559604 1.98877 0
M  V30 2365 C 236.656 -0.863113 1.68366 0
M  V30 2366 O 235.999 -1.58304 0.931969 0
M  V30 2367 C 236.061 0.68703 3.52874 0
M  V30 2368 C 235.725 2.07901 4.06972 0
M  V30 2369 C 236.722 3.05157 4.20922 0
M  V30 2370 C 234.407 2.39178 4.417 0
M  V30 2371 C 236.401 4.31806 4.68852 0
M  V30 2372 C 234.088 3.66068 4.89324 0
M  V30 2373 C 235.086 4.62195 5.02856 0
M  V30 2374 O 234.774 5.86829 5.49442 0
M  V30 2375 H 234.506 0.212191 0.641834 0
M  V30 2376 H 237.06 1.22712 1.64715 0
M  V30 2377 H 235.29 -0.0375486 3.86682 0
M  V30 2378 H 236.979 0.341727 4.04459 0
M  V30 2379 H 237.745 2.82311 3.94367 0
M  V30 2380 H 233.624 1.65109 4.30418 0
M  V30 2381 H 237.168 5.06842 4.79329 0
M  V30 2382 H 233.065 3.88739 5.15318 0
M  V30 2383 H 233.833 5.89597 5.6773 0
M  V30 2384 N 236.496 -1.42363 0.676048 0
M  V30 2385 C 237.773 -1.95183 0.127726 0
M  V30 2386 C 238.153 -1.61641 -1.35777 0
M  V30 2387 O 237.501 -0.913216 -2.09458 0
M  V30 2388 C 237.711 -3.46721 0.398199 0
M  V30 2389 C 239.059 -4.23427 0.315383 0
M  V30 2390 O 240.083 -3.54649 0.332016 0
M  V30 2391 O 238.942 -5.45888 0.25865 0
M  V30 2392 H 236.036 -0.826992 0.00359427 0
M  V30 2393 H 238.582 -1.52184 0.750864 0
M  V30 2394 H 237.354 -3.64344 1.4272 0
M  V30 2395 H 236.977 -3.96769 -0.256885 0
M  V30 2396 N 237.974 -0.419461 -1.51915 0
M  V30 2397 C 239.251 0.211999 -1.94448 0
M  V30 2398 C 239.631 1.61703 -1.35703 0
M  V30 2399 O 238.979 2.22102 -0.536931 0
M  V30 2400 C 239.189 0.207872 -3.4838 0
M  V30 2401 C 240.537 0.422192 -4.22496 0
M  V30 2402 O 241.561 0.286778 -3.55044 0
M  V30 2403 O 240.42 0.690009 -5.42126 0
M  V30 2404 H 237.514 0.139586 -0.815135 0
M  V30 2405 H 240.06 -0.476151 -1.62883 0
M  V30 2406 H 238.832 -0.775102 -3.83546 0
M  V30 2407 H 238.455 0.939688 -3.86336 0
M  V30 2408 N 239.452 1.56882 -0.150215 0
M  V30 2409 C 240.698 1.97299 0.494427 0
M  V30 2410 C 241.053 1.0338 1.62266 0
M  V30 2411 O 240.346 0.0694497 1.91474 0
M  V30 2412 C 240.54 3.41801 1.04437 0
M  V30 2413 C 240.369 4.49691 -0.0290451 0
M  V30 2414 C 239.139 5.03095 -0.47156 0
M  V30 2415 C 241.337 5.07693 -0.821703 0
M  V30 2416 N 239.319 5.94593 -1.52749 0
M  V30 2417 C 240.69 5.95431 -1.72805 0
M  V30 2418 C 242.745 4.90256 -0.869134 0
M  V30 2419 C 241.448 6.67599 -2.67777 0
M  V30 2420 C 243.474 5.63127 -1.8067 0
M  V30 2421 C 242.836 6.50576 -2.70057 0
M  V30 2422 H 238.935 0.76755 0.149639 0
M  V30 2423 H 241.519 1.93145 -0.24556 0
M  V30 2424 H 239.69 3.46541 1.75396 0
M  V30 2425 H 241.422 3.69272 1.6559 0
M  V30 2426 H 238.177 4.73543 -0.0732101 0
M  V30 2427 H 238.601 6.45047 -2.05531 0
M  V30 2428 H 243.243 4.22363 -0.192134 0
M  V30 2429 H 240.961 7.34717 -3.36476 0
M  V30 2430 H 244.547 5.51629 -1.84924 0
M  V30 2431 H 243.427 7.05974 -3.41424 0
M  V30 2432 N 240.93 -0.123565 1.57115 0
M  V30 2433 C 242.207 -0.862196 1.75572 0
M  V30 2434 C 242.587 -1.98279 0.724475 0
M  V30 2435 O 241.935 -2.27102 -0.252407 0
M  V30 2436 C 242.145 -1.38309 3.20424 0
M  V30 2437 C 243.493 -1.83724 3.82793 0
M  V30 2438 O 244.517 -1.47999 3.23998 0
M  V30 2439 O 243.376 -2.49685 4.86127 0
M  V30 2440 H 240.47 -0.409113 0.718718 0
M  V30 2441 H 243.016 -0.107661 1.69358 0
M  V30 2442 H 241.788 -0.578889 3.86994 0
M  V30 2443 H 241.411 -2.20046 3.31158 0
M  V30 2444 N 242.408 -1.52605 -0.393616 0
M  V30 2445 C 243.355 -1.77055 -1.48054 0
M  V30 2446 C 244.325 -0.61358 -1.54352 0
M  V30 2447 O 245.51 -0.852806 -1.70681 0
M  V30 2448 C 242.65 -1.94108 -2.85335 0
M  V30 2449 C 241.763 -3.21792 -2.88226 0
M  V30 2450 C 240.898 -3.29188 -4.16904 0
M  V30 2451 C 239.937 -4.51013 -4.13828 0
M  V30 2452 N 239.074 -4.55716 -5.34105 0
M  V30 2453 H 243.914 -2.69815 -1.26506 0
M  V30 2454 H 241.451 -1.33683 -0.61379 0
M  V30 2455 H 243.409 -2.01979 -3.65049 0
M  V30 2456 H 242.039 -1.04713 -3.05344 0
M  V30 2457 H 241.091 -3.23015 -2.00911 0
M  V30 2458 H 242.403 -4.11557 -2.8182 0
M  V30 2459 H 241.557 -3.36216 -5.05018 0
M  V30 2460 H 240.296 -2.37389 -4.26026 0
M  V30 2461 H 239.301 -4.44115 -3.24102 0
M  V30 2462 H 240.526 -5.44123 -4.06333 0
M  V30 2463 H 238.472 -3.66807 -5.43865 0
M  V30 2464 H 238.389 -5.39346 -5.29756 0
M  V30 2465 H 239.657 -4.66993 -6.2413 0
M  V30 2466 N 243.887 0.651787 -1.4349 0
M  V30 2467 C 245.164 1.40909 -1.35661 0
M  V30 2468 C 245.544 2.11099 -0.00511733 0
M  V30 2469 O 244.892 2.04892 1.0115 0
M  V30 2470 C 245.102 2.3926 -2.54078 0
M  V30 2471 C 246.45 3.03217 -2.97228 0
M  V30 2472 O 247.474 2.49588 -2.54135 0
M  V30 2473 O 246.333 4.00455 -3.71885 0
M  V30 2474 H 243.427 0.629625 -0.536191 0
M  V30 2475 H 245.973 0.678575 -1.55542 0
M  V30 2476 H 244.745 1.86352 -3.44076 0
M  V30 2477 H 244.368 3.1976 -2.36303 0
M  V30 2478 N 245.365 1.30045 0.890287 0
M  V30 2479 C 246.328 1.15963 1.977 0
M  V30 2480 C 247.328 0.0923777 1.60534 0
M  V30 2481 O 248.518 0.340071 1.70848 0
M  V30 2482 C 245.65 0.775451 3.31963 0
M  V30 2483 H 246.843 2.12502 2.11619 0
M  V30 2484 H 244.396 1.13366 1.07601 0
M  V30 2485 H 245.131 -0.189671 3.23745 0
M  V30 2486 H 244.916 1.54668 3.60306 0
M  V30 2487 H 246.406 0.700251 4.11687 0
M  V30 2488 N 246.843 -1.10192 1.12674 0
M  V30 2489 C 248.12 -1.78717 0.794965 0
M  V30 2490 C 248.5 -1.98628 -0.714853 0
M  V30 2491 O 247.848 -1.58135 -1.64941 0
M  V30 2492 C 248.058 -3.11546 1.5729 0
M  V30 2493 C 249.406 -3.86382 1.76052 0
M  V30 2494 O 250.43 -3.21274 1.53823 0
M  V30 2495 O 249.289 -5.03246 2.13087 0
M  V30 2496 H 246.383 -0.774702 0.289423 0
M  V30 2497 H 248.929 -1.16819 1.23091 0
M  V30 2498 H 247.701 -2.92489 2.59935 0
M  V30 2499 H 247.324 -3.81164 1.13137 0
M  V30 2500 N 248.321 -0.919034 -1.28029 0
M  V30 2501 C 249.732 -0.600735 -1.76771 0
M  V30 2502 C 250.083 0.884024 -1.75156 0
M  V30 2503 O 249.208 1.69163 -1.34956 0
M  V30 2504 C 249.803 -1.08372 -3.21 0
M  V30 2505 C 248.362 -0.816248 -3.67443 0
M  V30 2506 C 247.509 -1.24742 -2.47658 0
M  V30 2507 H 250.46 -1.09974 -1.14418 0
M  V30 2508 H 250.481 -0.427512 -3.78091 0
M  V30 2509 H 249.993 -2.16437 -3.22144 0
M  V30 2510 H 248.094 0.250968 -3.71754 0
M  V30 2511 H 248.207 -1.4277 -4.57333 0
M  V30 2512 H 246.571 -0.666083 -2.45836 0
M  V30 2513 H 247.354 -2.33653 -2.51518 0
M  V30 2514 N 249.799 1.42003 -0.683588 0
M  V30 2515 C 250.731 2.29183 0.0283068 0
M  V30 2516 C 251.744 1.4415 0.756611 0
M  V30 2517 O 252.933 1.67779 0.609306 0
M  V30 2518 C 250.033 3.21765 1.06398 0
M  V30 2519 C 249.206 4.35496 0.407723 0
M  V30 2520 C 248.265 5.08737 1.34437 0
M  V30 2521 O 247.291 5.62948 0.841318 0
M  V30 2522 N 248.493 5.15075 2.67728 0
M  V30 2523 H 251.258 2.9092 -0.720105 0
M  V30 2524 H 248.819 1.53025 -0.528682 0
M  V30 2525 H 250.811 3.6763 1.69204 0
M  V30 2526 H 249.381 2.61418 1.71404 0
M  V30 2527 H 248.601 3.92165 -0.400012 0
M  V30 2528 H 249.889 5.08776 -0.0490956 0
M  V30 2529 H 249.287 4.72457 3.11129 0
M  V30 2530 H 247.844 5.64556 3.2576 0
M  V30 2531 N 251.277 0.427512 1.51691 0
M  V30 2532 C 252.502 -0.143601 2.06902 0
M  V30 2533 C 252.927 -1.36536 1.29382 0
M  V30 2534 O 252.285 -1.78289 0.329043 0
M  V30 2535 C 252.333 -0.454207 3.57728 0
M  V30 2536 O 251.437 -1.54228 3.82475 0
M  V30 2537 H 250.778 -0.00617128 0.663971 0
M  V30 2538 H 253.308 0.606014 1.95419 0
M  V30 2539 H 253.318 -0.707525 4.01818 0
M  V30 2540 H 251.993 0.438812 4.13579 0
M  V30 2541 H 250.57 -1.2797 3.50254 0
M  V30 2542 N 252.755 -1.56801 0.158532 0
M  V30 2543 C 253.705 -2.13923 -0.788738 0
M  V30 2544 C 254.689 -1.07006 -1.2016 0
M  V30 2545 O 255.881 -1.33159 -1.1661 0
M  V30 2546 C 253.01 -2.77348 -2.02319 0
M  V30 2547 C 252.096 -3.91404 -1.6329 0
M  V30 2548 N 252.487 -4.9677 -0.951463 0
M  V30 2549 C 250.785 -4.02326 -1.92482 0
M  V30 2550 C 251.486 -5.76698 -0.761221 0
M  V30 2551 N 250.462 -5.27859 -1.29869 0
M  V30 2552 H 254.264 -2.92757 -0.258995 0
M  V30 2553 H 251.778 -1.62344 -0.0426055 0
M  V30 2554 H 253.775 -3.16639 -2.71192 0
M  V30 2555 H 252.435 -1.99991 -2.558 0
M  V30 2556 H 253.446 -5.14284 -0.610928 0
M  V30 2557 H 250.123 -3.36059 -2.47732 0
M  V30 2558 H 251.513 -6.71529 -0.223284 0
M  V30 2559 N 254.233 0.115231 -1.57178 0
M  V30 2560 C 255.183 1.14707 -1.97044 0
M  V30 2561 C 256.167 1.36866 -0.845957 0
M  V30 2562 O 257.359 1.37895 -1.10968 0
M  V30 2563 C 254.488 2.47266 -2.38148 0
M  V30 2564 C 253.574 2.28566 -3.57237 0
M  V30 2565 N 253.965 1.79685 -4.72807 0
M  V30 2566 C 252.263 2.59208 -3.62943 0
M  V30 2567 C 252.964 1.74781 -5.54821 0
M  V30 2568 N 251.94 2.19264 -4.97417 0
M  V30 2569 H 255.742 0.761754 -2.83857 0
M  V30 2570 H 253.256 0.322928 -1.59157 0
M  V30 2571 H 255.253 3.219 -2.64927 0
M  V30 2572 H 253.913 2.86552 -1.52702 0
M  V30 2573 H 254.924 1.49177 -4.9595 0
M  V30 2574 H 251.601 3.02154 -2.88113 0
M  V30 2575 H 252.991 1.38212 -6.57531 0
M  V30 2576 N 255.711 1.52812 0.385517 0
M  V30 2577 C 256.641 1.80808 1.47752 0
M  V30 2578 C 257.622 0.660318 1.5676 0
M  V30 2579 O 258.807 0.908246 1.71652 0
M  V30 2580 C 255.937 1.98008 2.85324 0
M  V30 2581 C 254.891 3.13709 2.91154 0
M  V30 2582 C 254.217 3.16169 4.31209 0
M  V30 2583 C 255.517 4.52709 2.60483 0
M  V30 2584 H 257.211 2.72253 1.24573 0
M  V30 2585 H 254.757 1.31003 0.597839 0
M  V30 2586 H 256.71 2.16176 3.61726 0
M  V30 2587 H 255.434 1.03255 3.09848 0
M  V30 2588 H 254.093 2.95329 2.17201 0
M  V30 2589 H 253.741 2.19092 4.52778 0
M  V30 2590 H 253.441 3.93894 4.36029 0
M  V30 2591 H 254.965 3.36496 5.09512 0
M  V30 2592 H 256.379 4.71173 3.26602 0
M  V30 2593 H 254.776 5.32528 2.76648 0
M  V30 2594 H 255.846 4.59186 1.55809 0
M  V30 2595 N 257.189 -0.644168 1.43834 0
M  V30 2596 C 258.436 -1.40395 1.4593 0
M  V30 2597 C 258.764 -1.94305 0.0869658 0
M  V30 2598 O 258.019 -1.73288 -0.909378 0
M  V30 2599 C 258.318 -2.59615 2.45631 0
M  V30 2600 C 257.984 -2.2407 3.91284 0
M  V30 2601 C 256.646 -2.14089 4.30952 0
M  V30 2602 C 258.998 -1.95775 4.83034 0
M  V30 2603 C 256.326 -1.73981 5.6031 0
M  V30 2604 C 258.678 -1.57163 6.12766 0
M  V30 2605 C 257.342 -1.45713 6.51402 0
M  V30 2606 H 256.612 -0.513741 0.533995 0
M  V30 2607 H 259.259 -0.731724 1.76969 0
M  V30 2608 H 257.564 -3.32011 2.08028 0
M  V30 2609 H 259.261 -3.17834 2.44504 0
M  V30 2610 H 255.851 -2.32753 3.59895 0
M  V30 2611 H 260.035 -2.02403 4.53152 0
M  V30 2612 H 255.291 -1.63709 5.89075 0
M  V30 2613 H 259.465 -1.34303 6.83327 0
M  V30 2614 H 257.092 -1.14406 7.51542 0
M  V30 2615 N 258.668 -1.30515 -0.883378 0
M  V30 2616 C 259.945 -1.10086 -1.6168 0
M  V30 2617 C 260.325 0.349269 -2.08191 0
M  V30 2618 O 259.673 1.34105 -1.85008 0
M  V30 2619 C 259.883 -2.10315 -2.78511 0
M  V30 2620 C 261.231 -2.42119 -3.48803 0
M  V30 2621 O 262.255 -2.08638 -2.88702 0
M  V30 2622 O 261.114 -2.99396 -4.57192 0
M  V30 2623 H 258.208 -0.422907 -0.710689 0
M  V30 2624 H 260.754 -1.41947 -0.930015 0
M  V30 2625 H 259.526 -3.07917 -2.41459 0
M  V30 2626 H 259.149 -1.79282 -3.54886 0
M  V30 2627 N 260.146 1.09593 -1.13257 0
M  V30 2628 C 261.562 1.33775 -0.870423 0
M  V30 2629 C 261.762 1.95327 0.494926 0
M  V30 2630 O 260.818 2.19853 1.2418 0
M  V30 2631 C 262.131 2.25106 -1.99369 0
M  V30 2632 C 263.679 2.3862 -2.02558 0
M  V30 2633 C 264.154 3.33285 -3.14142 0
M  V30 2634 N 265.645 3.40857 -3.13641 0
M  V30 2635 C 266.38 4.14101 -3.96621 0
M  V30 2636 N 265.876 4.90157 -4.8961 0
M  V30 2637 N 267.669 4.09808 -3.84726 0
M  V30 2638 H 259.82 0.680136 -2.01216 0
M  V30 2639 H 262.083 0.362133 -0.876107 0
M  V30 2640 H 261.789 1.87103 -2.97801 0
M  V30 2641 H 261.663 3.25481 -1.90635 0
M  V30 2642 H 264.05 2.75887 -1.0474 0
M  V30 2643 H 264.131 1.38028 -2.15364 0
M  V30 2644 H 263.775 2.96741 -4.12198 0
M  V30 2645 H 263.705 4.33776 -2.98574 0
M  V30 2646 H 266.196 2.86624 -2.46282 0
M  V30 2647 H 266.509 5.4347 -5.49418 0
M  V30 2648 H 264.854 4.89251 -4.93617 0
M  V30 2649 H 268.045 3.4949 -3.11408 0
M  V30 2650 H 268.218 4.66629 -4.49623 0
M  V30 2651 N 261.624 0.925811 1.2754 0
M  V30 2652 C 262.574 0.394488 2.24561 0
M  V30 2653 C 263.558 -0.500183 1.52928 0
M  V30 2654 O 264.75 -0.337936 1.73744 0
M  V30 2655 C 261.879 -0.353328 3.41477 0
M  V30 2656 C 260.965 0.557752 4.20416 0
M  V30 2657 N 261.356 1.67674 4.77199 0
M  V30 2658 C 259.654 0.360404 4.44541 0
M  V30 2659 C 260.355 2.24324 5.36706 0
M  V30 2660 N 259.331 1.53305 5.21535 0
M  V30 2661 H 263.133 1.2489 2.66045 0
M  V30 2662 H 260.647 0.779864 1.4245 0
M  V30 2663 H 262.644 -0.7509 4.10082 0
M  V30 2664 H 261.304 -1.20469 3.01525 0
M  V30 2665 H 262.315 2.05915 4.75204 0
M  V30 2666 H 258.992 -0.450454 4.15063 0
M  V30 2667 H 260.382 3.18521 5.91603 0
M  V30 2668 N 263.102 -1.41638 0.69111 0
M  V30 2669 C 264.348 -2.01598 0.220519 0
M  V30 2670 C 264.681 -1.54594 -1.17535 0
M  V30 2671 O 263.956 -0.755177 -1.79241 0
M  V30 2672 C 264.239 -3.59062 0.273243 0
M  V30 2673 C 264.092 -4.16203 1.70573 0
M  V30 2674 C 265.411 -4.38546 -0.369457 0
M  V30 2675 H 262.53 -0.732468 0.0816045 0
M  V30 2676 H 265.172 -1.68445 0.878986 0
M  V30 2677 H 263.322 -3.87435 -0.287411 0
M  V30 2678 H 264.994 -3.98722 2.31989 0
M  V30 2679 H 263.237 -3.71414 2.2413 0
M  V30 2680 H 263.908 -5.25358 1.69419 0
M  V30 2681 H 266.384 -4.1596 0.107977 0
M  V30 2682 H 265.26 -5.48069 -0.302002 0
M  V30 2683 H 265.521 -4.17662 -1.44951 0
M  V30 2684 N 264.58 -0.43555 -1.51462 0
M  V30 2685 C 265.805 0.132627 -2.06976 0
M  V30 2686 C 266.23 1.35848 -1.30104 0
M  V30 2687 O 265.588 1.78112 -0.338493 0
M  V30 2688 C 265.636 0.43523 -3.57964 0
M  V30 2689 O 264.74 1.52198 -3.83288 0
M  V30 2690 H 264.081 0.00265 -0.663995 0
M  V30 2691 H 266.611 -0.616369 -1.95095 0
M  V30 2692 H 266.621 0.686206 -4.02188 0
M  V30 2693 H 265.296 -0.460739 -4.1334 0
M  V30 2694 H 263.873 1.2611 -3.50928 0
M  V30 2695 N 266.058 1.56714 -0.166846 0
M  V30 2696 C 267.283 2.01557 0.488833 0
M  V30 2697 C 267.708 1.0463 1.56314 0
M  V30 2698 O 267.066 0.0251304 1.81283 0
M  V30 2699 C 267.114 3.4503 1.04818 0
M  V30 2700 O 266.218 3.51163 2.16236 0
M  V30 2701 H 265.559 0.653516 0.117526 0
M  V30 2702 H 268.089 2.02818 -0.269421 0
M  V30 2703 H 268.099 3.84243 1.37191 0
M  V30 2704 H 266.774 4.15077 0.261572 0
M  V30 2705 H 265.351 3.23807 1.84942 0
M  V30 2706 N 267.536 -0.106894 1.57237 0
M  V30 2707 C 268.761 -0.830287 1.90055 0
M  V30 2708 C 269.186 -1.72064 0.75998 0
M  V30 2709 O 268.544 -1.78982 -0.288991 0
M  V30 2710 C 268.592 -1.6295 3.21683 0
M  V30 2711 O 267.696 -2.73748 3.08441 0
M  V30 2712 H 267.037 -0.228855 0.623315 0
M  V30 2713 H 269.567 -0.085658 2.04421 0
M  V30 2714 H 269.577 -2.01621 3.54701 0
M  V30 2715 H 268.252 -0.975989 4.04286 0
M  V30 2716 H 266.829 -2.38192 2.86913 0
M  V30 2717 N 269.014 -1.53014 -0.377408 0
M  V30 2718 C 270.26 -1.68872 -1.12294 0
M  V30 2719 C 270.593 -0.433224 -1.89306 0
M  V30 2720 O 269.868 0.569258 -1.85983 0
M  V30 2721 C 270.151 -2.93115 -2.09179 0
M  V30 2722 C 270.004 -4.28794 -1.35853 0
M  V30 2723 C 271.323 -3.12928 -3.09458 0
M  V30 2724 H 268.442 -0.614518 -0.406862 0
M  V30 2725 H 271.084 -1.85633 -0.40503 0
M  V30 2726 H 269.234 -2.78956 -2.70399 0
M  V30 2727 H 270.906 -4.54742 -0.775082 0
M  V30 2728 H 269.149 -4.28744 -0.660364 0
M  V30 2729 H 269.82 -5.11837 -2.06706 0
M  V30 2730 H 272.296 -3.26194 -2.58334 0
M  V30 2731 H 271.172 -4.01316 -3.74482 0
M  V30 2732 H 271.433 -2.27669 -3.78971 0
M  V30 2733 N 270.492 0.636531 -1.44174 0
M  V30 2734 C 271.908 0.954104 -1.27941 0
M  V30 2735 C 272.108 2.0039 -0.211248 0
M  V30 2736 O 271.164 2.49236 0.404695 0
M  V30 2737 C 272.477 1.4225 -2.64925 0
M  V30 2738 C 274.025 1.53827 -2.72592 0
M  V30 2739 C 274.5 2.04053 -4.10032 0
M  V30 2740 N 275.991 2.11331 -4.12182 0
M  V30 2741 C 276.726 2.51352 -5.15374 0
M  V30 2742 N 276.222 2.90549 -6.2893 0
M  V30 2743 N 278.015 2.51438 -5.02728 0
M  V30 2744 H 270.166 -0.0578386 -2.12321 0
M  V30 2745 H 272.429 0.0367406 -0.947288 0
M  V30 2746 H 272.135 0.725466 -3.44136 0
M  V30 2747 H 272.009 2.39451 -2.9145 0
M  V30 2748 H 274.396 2.22628 -1.93702 0
M  V30 2749 H 274.477 0.550154 -2.49814 0
M  V30 2750 H 274.121 1.35848 -4.89395 0
M  V30 2751 H 274.051 3.03726 -4.30184 0
M  V30 2752 H 276.542 1.83745 -3.30222 0
M  V30 2753 H 276.855 3.19884 -7.03487 0
M  V30 2754 H 275.2 2.88313 -6.32377 0
M  V30 2755 H 278.391 2.20203 -4.13072 0
M  V30 2756 H 278.564 2.82304 -5.83274 0
M  V30 2757 N 271.97 1.30982 0.876444 0
M  V30 2758 C 272.9 1.20668 1.99903 0
M  V30 2759 C 273.881 0.095354 1.69833 0
M  V30 2760 O 275.066 0.27885 1.92188 0
M  V30 2761 C 272.196 0.90655 3.3526 0
M  V30 2762 C 271.15 1.97675 3.79617 0
M  V30 2763 C 270.476 1.52943 5.1236 0
M  V30 2764 C 271.776 3.389 3.97422 0
M  V30 2765 H 273.47 2.14586 2.0879 0
M  V30 2766 H 271.016 1.03308 1.00317 0
M  V30 2767 H 272.969 0.821025 4.13324 0
M  V30 2768 H 271.693 -0.0682969 3.26529 0
M  V30 2769 H 270.352 2.05205 3.03787 0
M  V30 2770 H 270 0.54262 5.00065 0
M  V30 2771 H 269.7 2.24532 5.43009 0
M  V30 2772 H 271.224 1.45786 5.92941 0
M  V30 2773 H 272.638 3.34081 4.659 0
M  V30 2774 H 271.035 4.0865 4.3946 0
M  V30 2775 H 272.105 3.80163 3.01006 0
M  V30 2776 N 273.449 -1.08991 1.13837 0
M  V30 2777 C 274.397 -2.17841 0.815347 0
M  V30 2778 C 275.391 -1.68164 -0.204233 0
M  V30 2779 O 276.597 -1.79897 -0.0609304 0
M  V30 2780 H 272.972 -0.710654 0.245915 0
M  V30 2781 H 274.943 -2.42315 1.74143 0
M  V30 2782 C 273.692 -3.46381 0.302614 0
M  V30 2783 H 273.015 -3.84979 1.0785 0
M  V30 2784 H 274.455 -4.23844 0.115074 0
M  V30 2785 C 272.914 -3.22556 -0.972591 0
M  V30 2786 O 273.444 -3.45599 -2.04754 0
M  V30 2787 N 271.65 -2.76134 -0.905455 0
M  V30 2788 H 271.197 -2.57582 -0.0305421 0
M  V30 2789 H 271.155 -2.60571 -1.75926 0
M  V30 2790 N 274.927 -0.932562 -1.27047 0
M  V30 2791 C 276.204 -0.49377 -1.89265 0
M  V30 2792 C 276.584 1.02833 -1.8436 0
M  V30 2793 O 275.932 1.88461 -1.29209 0
M  V30 2794 C 276.142 -1.04536 -3.32976 0
M  V30 2795 C 277.49 -1.10879 -4.09867 0
M  V30 2796 O 278.514 -0.995327 -3.42011 0
M  V30 2797 O 277.373 -1.28417 -5.31198 0
M  V30 2798 H 274.467 -0.159596 -0.811454 0
M  V30 2799 H 277.013 -1.02457 -1.3528 0
M  V30 2800 H 275.785 -2.08913 -3.30864 0
M  V30 2801 H 275.408 -0.496494 -3.94488 0
M  V30 2802 N 276.405 1.4127 -0.698611 0
M  V30 2803 C 277.337 2.292 0.00399731 0
M  V30 2804 C 278.35 1.44944 0.741279 0
M  V30 2805 O 279.539 1.68416 0.591477 0
M  V30 2806 C 276.639 3.22875 1.02979 0
M  V30 2807 C 275.812 4.35904 0.36151 0
M  V30 2808 C 274.871 5.10134 1.29033 0
M  V30 2809 O 273.897 5.63809 0.781562 0
M  V30 2810 N 275.099 5.17885 2.6225 0
M  V30 2811 H 277.864 2.9014 -0.750921 0
M  V30 2812 H 275.425 1.52455 -0.544882 0
M  V30 2813 H 277.417 3.69404 1.65296 0
M  V30 2814 H 275.987 2.63221 1.68622 0
M  V30 2815 H 275.207 3.91719 -0.441584 0
M  V30 2816 H 276.495 5.08696 -0.103055 0
M  V30 2817 H 275.893 4.7573 3.061 0
M  V30 2818 H 274.45 5.6798 3.19754 0
M  V30 2819 N 277.883 0.443576 1.51229 0
M  V30 2820 C 279.16 -0.181038 1.9476 0
M  V30 2821 C 279.54 -1.59523 1.38259 0
M  V30 2822 O 278.888 -2.2122 0.572198 0
M  V30 2823 C 279.098 -0.152422 3.48667 0
M  V30 2824 C 280.446 -0.354923 4.23114 0
M  V30 2825 O 281.47 -0.230257 3.55455 0
M  V30 2826 O 280.329 -0.603674 5.43156 0
M  V30 2827 H 277.423 -0.1266 0.817252 0
M  V30 2828 H 279.969 0.502004 1.62105 0
M  V30 2829 H 278.741 0.836022 3.82265 0
M  V30 2830 H 278.364 -0.878107 3.87782 0
M  V30 2831 N 279.361 -1.56624 0.175154 0
M  V30 2832 C 280.291 -2.21155 -0.749195 0
M  V30 2833 C 281.272 -1.16836 -1.23626 0
M  V30 2834 O 282.457 -1.45277 -1.28873 0
M  V30 2835 C 279.587 -2.8553 -1.97711 0
M  V30 2836 C 278.541 -3.95921 -1.62575 0
M  V30 2837 C 277.867 -4.47365 -2.92864 0
M  V30 2838 C 279.167 -5.15323 -0.850838 0
M  V30 2839 H 280.861 -2.98653 -0.211295 0
M  V30 2840 H 278.407 -1.43651 -0.100188 0
M  V30 2841 H 280.36 -3.2935 -2.62881 0
M  V30 2842 H 279.084 -2.05406 -2.53921 0
M  V30 2843 H 277.743 -3.52762 -0.997719 0
M  V30 2844 H 277.391 -3.64027 -3.47122 0
M  V30 2845 H 277.091 -5.21839 -2.70106 0
M  V30 2846 H 278.615 -4.93873 -3.59056 0
M  V30 2847 H 280.029 -5.55812 -1.40521 0
M  V30 2848 H 278.426 -5.95739 -0.722154 0
M  V30 2849 H 279.496 -4.84661 0.152082 0
M  V30 2850 N 280.839 0.0985539 -1.57292 0
M  V30 2851 C 282.116 0.834155 -1.76921 0
M  V30 2852 C 282.496 1.97101 -0.755928 0
M  V30 2853 O 281.844 2.27474 0.216245 0
M  V30 2854 C 282.054 1.33194 -3.22584 0
M  V30 2855 C 283.402 1.77611 -3.85668 0
M  V30 2856 O 284.426 1.42825 -3.26312 0
M  V30 2857 O 283.285 2.4192 -4.90038 0
M  V30 2858 H 280.379 0.397628 -0.725135 0
M  V30 2859 H 282.925 0.0807044 -1.69508 0
M  V30 2860 H 281.697 0.517248 -3.87866 0
M  V30 2861 H 281.32 2.1475 -3.34616 0
M  V30 2862 N 282.317 1.53212 0.369288 0
M  V30 2863 C 283.566 1.68436 1.10961 0
M  V30 2864 C 283.879 0.440738 1.9057 0
M  V30 2865 O 285.085 0.473446 2.6734 0
M  V30 2866 C 283.541 2.97744 2.0218 0
M  V30 2867 C 283.149 4.29355 1.279 0
M  V30 2868 C 284.893 3.22334 2.76226 0
M  V30 2869 C 282.8 5.49755 2.17999 0
M  V30 2870 H 281.73 0.627568 0.41794 0
M  V30 2871 H 284.381 1.79713 0.370884 0
M  V30 2872 H 282.763 2.8026 2.79768 0
M  V30 2873 H 283.937 4.57458 0.554007 0
M  V30 2874 H 282.252 4.11179 0.657311 0
M  V30 2875 H 284.849 4.09471 3.43857 0
M  V30 2876 H 285.192 2.38238 3.41392 0
M  V30 2877 H 285.725 3.40475 2.05723 0
M  V30 2878 H 282.464 6.36318 1.57417 0
M  V30 2879 H 281.984 5.25937 2.88359 0
M  V30 2880 H 283.663 5.84401 2.77641 0
M  V30 2881 N 283.795 -0.628877 1.44509 0
M  V30 2882 C 284.725 -1.75187 1.54376 0
M  V30 2883 C 285.706 -1.65411 0.396618 0
M  V30 2884 O 286.891 -1.84137 0.617031 0
M  V30 2885 C 284.021 -3.13725 1.48976 0
M  V30 2886 C 282.975 -3.38291 2.62189 0
M  V30 2887 C 282.301 -4.76883 2.41841 0
M  V30 2888 C 283.601 -3.30632 4.04326 0
M  V30 2889 H 285.295 -1.67187 2.48373 0
M  V30 2890 H 282.841 -0.802909 1.19538 0
M  V30 2891 H 284.794 -3.92064 1.54478 0
M  V30 2892 H 283.518 -3.22515 0.514961 0
M  V30 2893 H 282.177 -2.62334 2.56079 0
M  V30 2894 H 281.825 -4.82378 1.42548 0
M  V30 2895 H 281.525 -4.94278 3.17747 0
M  V30 2896 H 283.049 -5.57449 2.49165 0
M  V30 2897 H 284.463 -3.98873 4.11793 0
M  V30 2898 H 282.86 -3.59561 4.80454 0
M  V30 2899 H 283.93 -2.28404 4.27738 0
M  V30 2900 N 285.273 -1.31445 -0.869486 0
M  V30 2901 C 286.519 -1.21337 -1.62496 0
M  V30 2902 C 286.852 0.227872 -1.92858 0
M  V30 2903 O 286.127 1.16094 -1.56053 0
M  V30 2904 C 286.41 -2.05814 -2.95487 0
M  V30 2905 C 286.263 -3.5824 -2.72 0
M  V30 2906 C 287.582 -1.9079 -3.96594 0
M  V30 2907 H 284.701 -0.442135 -0.589649 0
M  V30 2908 H 287.343 -1.6124 -1.00507 0
M  V30 2909 H 285.493 -1.71913 -3.48394 0
M  V30 2910 H 287.165 -4.0228 -2.25762 0
M  V30 2911 H 285.408 -3.81647 -2.06224 0
M  V30 2912 H 286.079 -4.12657 -3.66631 0
M  V30 2913 H 288.555 -2.20459 -3.52898 0
M  V30 2914 H 287.431 -2.52199 -4.87531 0
M  V30 2915 H 287.692 -0.871341 -4.33428 0
M  V30 2916 N 286.751 1.08385 -1.14413 0
M  V30 2917 C 287.698 2.15311 -0.831265 0
M  V30 2918 C 288.668 1.64751 0.211292 0
M  V30 2919 O 289.853 1.90627 0.0811674 0
M  V30 2920 C 286.993 3.43658 -0.315143 0
M  V30 2921 C 286.106 4.08064 -1.41802 0
M  V30 2922 C 285.241 5.24207 -0.859126 0
M  V30 2923 C 284.28 5.80554 -1.93967 0
M  V30 2924 N 283.417 6.88042 -1.39793 0
M  V30 2925 H 288.257 2.41415 -1.74708 0
M  V30 2926 H 285.794 1.18474 -0.871909 0
M  V30 2927 H 287.752 4.172 0.00230884 0
M  V30 2928 H 286.382 3.17839 0.56378 0
M  V30 2929 H 285.434 3.3228 -1.85187 0
M  V30 2930 H 286.746 4.45962 -2.23427 0
M  V30 2931 H 285.9 6.04689 -0.49359 0
M  V30 2932 H 284.639 4.87699 -0.011932 0
M  V30 2933 H 283.644 4.98725 -2.31415 0
M  V30 2934 H 284.869 6.19121 -2.79046 0
M  V30 2935 H 282.815 6.53493 -0.572919 0
M  V30 2936 H 282.732 7.24767 -2.15054 0
M  V30 2937 H 284 7.72255 -1.0603 0
M  V30 2938 N 288.23 0.939286 1.26551 0
M  V30 2939 C 289.193 0.451987 2.24699 0
M  V30 2940 C 290.193 -0.435869 1.5478 0
M  V30 2941 O 291.383 -0.235314 1.72603 0
M  V30 2942 C 288.515 -0.348801 3.39111 0
M  V30 2943 H 289.708 1.3193 2.69322 0
M  V30 2944 H 287.261 0.721072 1.38673 0
M  V30 2945 H 287.996 -1.23444 2.99887 0
M  V30 2946 H 287.781 0.287945 3.91041 0
M  V30 2947 H 289.271 -0.679726 4.12031 0
M  V30 2948 N 289.708 -1.40897 0.706093 0
M  V30 2949 C 290.638 -2.33418 0.0620085 0
M  V30 2950 C 291.619 -1.52385 -0.755827 0
M  V30 2951 O 292.804 -1.80886 -0.706674 0
M  V30 2952 C 289.934 -3.36293 -0.867445 0
M  V30 2953 C 288.888 -4.27716 -0.155932 0
M  V30 2954 C 288.214 -5.2105 -1.20046 0
M  V30 2955 C 289.514 -5.12944 0.984149 0
M  V30 2956 H 291.208 -2.87527 0.83477 0
M  V30 2957 H 288.754 -1.38249 0.402875 0
M  V30 2958 H 290.707 -3.99949 -1.32735 0
M  V30 2959 H 289.431 -2.80556 -1.67199 0
M  V30 2960 H 288.09 -3.65498 0.284047 0
M  V30 2961 H 287.738 -4.61624 -1.99781 0
M  V30 2962 H 287.438 -5.83056 -0.729328 0
M  V30 2963 H 288.962 -5.87584 -1.66066 0
M  V30 2964 H 290.376 -5.70109 0.604048 0
M  V30 2965 H 288.773 -5.83945 1.38304 0
M  V30 2966 H 289.843 -4.49485 1.81911 0
M  V30 2967 N 291.186 -0.45159 -1.50991 0
M  V30 2968 C 292.134 0.366864 -2.29689 0
M  V30 2969 C 293.128 1.00809 -1.36139 0
M  V30 2970 O 294.334 0.941427 -1.53418 0
M  V30 2971 H 290.709 0.137133 -0.739391 0
M  V30 2972 H 292.68 -0.317538 -2.96706 0
M  V30 2973 C 291.429 1.44751 -3.16137 0
M  V30 2974 H 290.752 0.963473 -3.88017 0
M  V30 2975 H 292.192 1.99315 -3.74232 0
M  V30 2976 C 290.651 2.43869 -2.32442 0
M  V30 2977 O 291.181 3.4872 -1.99392 0
M  V30 2978 N 289.387 2.15105 -1.95392 0
M  V30 2979 H 288.934 1.29866 -2.22469 0
M  V30 2980 H 288.892 2.81661 -1.39693 0
M  V30 2981 N 292.664 1.56529 -0.183458 0
M  V30 2982 C 293.889 2.02064 0.467428 0
M  V30 2983 C 294.314 1.06282 1.55196 0
M  V30 2984 O 293.672 0.0443565 1.81246 0
M  V30 2985 C 293.72 3.46122 1.01153 0
M  V30 2986 O 292.824 3.53437 2.12499 0
M  V30 2987 H 292.165 0.654726 0.110588 0
M  V30 2988 H 294.695 2.02521 -0.290917 0
M  V30 2989 H 294.705 3.85676 1.33108 0
M  V30 2990 H 293.38 4.15331 0.217533 0
M  V30 2991 H 291.957 3.2575 1.81497 0
M  V30 2992 N 294.142 -0.090211 1.57342 0
M  V30 2993 C 295.105 -1.09335 2.01441 0
M  V30 2994 C 296.105 -1.32666 0.908641 0
M  V30 2995 O 297.295 -1.28697 1.174 0
M  V30 2996 C 294.427 -2.44136 2.3793 0
M  V30 2997 H 295.62 -0.713662 2.91285 0
M  V30 2998 H 293.173 -0.335404 1.52659 0
M  V30 2999 H 293.908 -2.86972 1.51055 0
M  V30 3000 H 293.693 -2.28548 3.18603 0
M  V30 3001 H 295.183 -3.16277 2.72688 0
M  V30 3002 N 295.62 -1.53406 -0.361157 0
M  V30 3003 C 296.845 -1.74024 -1.12829 0
M  V30 3004 C 297.27 -0.470069 -1.82132 0
M  V30 3005 O 296.628 0.57619 -1.719 0
M  V30 3006 C 296.676 -2.90903 -2.13091 0
M  V30 3007 O 295.78 -2.59821 -3.20261 0
M  V30 3008 H 295.121 -0.577804 -0.327168 0
M  V30 3009 H 297.651 -2.00307 -0.41693 0
M  V30 3010 H 297.661 -3.17194 -2.56616 0
M  V30 3011 H 296.336 -3.83034 -1.62042 0
M  V30 3012 H 294.913 -2.44362 -2.81677 0
M  V30 3013 N 297.098 0.621204 -1.44841 0
M  V30 3014 C 298.046 1.75385 -1.52784 0
M  V30 3015 C 299.04 1.64639 -0.398779 0
M  V30 3016 O 300.246 1.70598 -0.574137 0
M  V30 3017 H 296.621 0.579193 -0.479625 0
M  V30 3018 H 298.592 1.6581 -2.48092 0
M  V30 3019 C 297.341 3.13742 -1.4987 0
M  V30 3020 H 296.664 3.22663 -2.36069 0
M  V30 3021 H 298.104 3.92861 -1.59487 0
M  V30 3022 C 296.563 3.36175 -0.220973 0
M  V30 3023 O 297.093 3.95469 0.704782 0
M  V30 3024 N 295.299 2.90348 -0.120963 0
M  V30 3025 H 294.846 2.42278 -0.875162 0
M  V30 3026 H 294.804 3.05732 0.733168 0
M  V30 3027 N 298.576 1.31904 0.862503 0
M  V30 3028 C 299.987 1.19803 1.43193 0
M  V30 3029 C 300.338 -0.192567 1.95253 0
M  V30 3030 O 299.463 -1.09081 1.86896 0
M  V30 3031 C 300.058 2.16883 2.60283 0
M  V30 3032 C 298.617 2.08692 3.13248 0
M  V30 3033 C 297.764 2.05691 1.85975 0
M  V30 3034 H 300.715 1.43846 0.670365 0
M  V30 3035 H 300.736 1.76278 3.37204 0
M  V30 3036 H 300.248 3.18083 2.22363 0
M  V30 3037 H 298.349 1.10713 3.55771 0
M  V30 3038 H 298.462 2.9815 3.75025 0
M  V30 3039 H 296.826 1.50814 2.05249 0
M  V30 3040 H 297.609 3.08659 1.50282 0
M  V30 3041 N 300.054 -1.07777 1.14986 0
M  V30 3042 C 301.017 -2.13041 0.845358 0
M  V30 3043 C 302.017 -1.60071 -0.152931 0
M  V30 3044 O 303.207 -1.74033 0.0761879 0
M  V30 3045 C 300.339 -3.39896 0.261383 0
M  V30 3046 H 301.532 -2.41485 1.77834 0
M  V30 3047 H 299.085 -1.23595 0.956757 0
M  V30 3048 H 299.82 -3.17091 -0.68 0
M  V30 3049 H 299.605 -3.79642 0.980514 0
M  V30 3050 H 301.095 -4.17548 0.0657687 0
M  V30 3051 N 301.532 -0.945985 -1.26051 0
M  V30 3052 C 302.781 -0.591836 -1.92822 0
M  V30 3053 C 303.094 0.873956 -1.7499 0
M  V30 3054 O 304.3 1.33769 -2.36259 0
M  V30 3055 C 302.756 -1.00776 -3.45503 0
M  V30 3056 C 302.364 -2.4955 -3.7206 0
M  V30 3057 C 304.108 -0.725735 -4.1825 0
M  V30 3058 C 302.015 -2.84988 -5.18205 0
M  V30 3059 H 300.945 -0.217635 -0.721908 0
M  V30 3060 H 303.596 -1.14927 -1.43052 0
M  V30 3061 H 301.978 -0.378812 -3.94184 0
M  V30 3062 H 303.152 -3.1739 -3.34066 0
M  V30 3063 H 301.467 -2.75133 -3.12555 0
M  V30 3064 H 304.064 -0.966771 -5.25887 0
M  V30 3065 H 304.407 0.337639 -4.14929 0
M  V30 3066 H 304.94 -1.31463 -3.7545 0
M  V30 3067 H 301.679 -3.90307 -5.26631 0
M  V30 3068 H 301.199 -2.21813 -5.57278 0
M  V30 3069 H 302.878 -2.73712 -5.86252 0
M  V30 3070 N 303.011 1.40521 -0.713556 0
M  V30 3071 C 304.257 2.01221 -0.252564 0
M  V30 3072 C 304.59 1.56444 1.1506 0
M  V30 3073 O 303.865 0.783597 1.78017 0
M  V30 3074 C 304.148 3.58582 -0.330332 0
M  V30 3075 C 304.001 4.13437 -1.77173 0
M  V30 3076 C 305.32 4.39079 0.299641 0
M  V30 3077 H 302.439 0.731077 -0.0932471 0
M  V30 3078 H 305.081 1.67026 -0.905673 0
M  V30 3079 H 303.231 3.87844 0.225737 0
M  V30 3080 H 304.903 3.9498 -2.38303 0
M  V30 3081 H 303.146 3.67801 -2.3001 0
M  V30 3082 H 303.817 5.22597 -1.77755 0
M  V30 3083 H 306.293 4.15735 -0.174139 0
M  V30 3084 H 305.169 5.4848 0.214771 0
M  V30 3085 H 305.43 4.19915 1.38288 0
M  V30 3086 N 304.489 0.459591 1.5075 0
M  V30 3087 C 305.419 -0.330644 2.31147 0
M  V30 3088 C 306.4 -1.00087 1.37538 0
M  V30 3089 O 307.585 -1.00025 1.66459 0
M  V30 3090 C 304.715 -1.41958 3.16962 0
M  V30 3091 C 303.669 -0.871608 4.19031 0
M  V30 3092 C 302.995 -2.05797 4.9351 0
M  V30 3093 C 304.295 0.109251 5.22186 0
M  V30 3094 H 305.989 0.340336 2.97459 0
M  V30 3095 H 303.535 0.165119 1.4305 0
M  V30 3096 H 305.488 -1.9798 3.71997 0
M  V30 3097 H 304.212 -2.11917 2.48513 0
M  V30 3098 H 302.871 -0.333442 3.6508 0
M  V30 3099 H 302.519 -2.74427 4.21544 0
M  V30 3100 H 302.219 -1.6976 5.62544 0
M  V30 3101 H 303.743 -2.62331 5.51375 0
M  V30 3102 H 305.157 -0.361405 5.7216 0
M  V30 3103 H 303.554 0.383316 5.98875 0
M  V30 3104 H 304.624 1.03887 4.73641 0
M  V30 3105 N 305.967 -1.56429 0.191757 0
M  V30 3106 C 307.215 -1.97095 -0.447006 0
M  V30 3107 C 307.536 -1.07967 -1.62383 0
M  V30 3108 O 306.806 -0.150248 -1.95323 0
M  V30 3109 H 305.386 -0.727832 -0.168135 0
M  V30 3110 H 308.048 -1.92911 0.27771 0
M  V30 3111 H 307.144 -3.01848 -0.793371 0
M  V30 3112 N 307.445 0.0818655 -1.57387 0
M  V30 3113 C 308.856 0.634871 -1.75574 0
M  V30 3114 C 309.207 1.78435 -0.815809 0
M  V30 3115 O 308.332 2.164 0.0025366 0
M  V30 3116 C 308.927 1.15845 -3.18379 0
M  V30 3117 C 307.486 1.65741 -3.37945 0
M  V30 3118 C 306.633 0.572549 -2.71325 0
M  V30 3119 H 309.584 -0.144268 -1.58043 0
M  V30 3120 H 309.605 2.02751 -3.21982 0
M  V30 3121 H 309.117 0.321631 -3.86765 0
M  V30 3122 H 307.218 2.51781 -2.74658 0
M  V30 3123 H 307.331 1.74129 -4.46336 0
M  V30 3124 H 305.695 1.01518 -2.33594 0
M  V30 3125 H 306.478 -0.253918 -3.4236 0
M  V30 3126 N 308.923 1.53595 0.353017 0
M  V30 3127 C 310.2 1.61002 1.11075 0
M  V30 3128 C 310.58 0.425356 2.0677 0
M  V30 3129 O 309.928 -0.583267 2.2093 0
M  V30 3130 C 310.138 2.96631 1.83877 0
M  V30 3131 C 311.486 3.51653 2.37961 0
M  V30 3132 O 312.51 2.98743 1.93987 0
M  V30 3133 O 311.369 4.44177 3.18386 0
M  V30 3134 H 308.463 0.650825 0.510251 0
M  V30 3135 H 311.009 1.6594 0.35527 0
M  V30 3136 H 309.781 3.74293 1.14108 0
M  V30 3137 H 309.404 2.95242 2.66304 0
M  V30 3138 N 310.401 -0.613514 1.45168 0
M  V30 3139 C 311.647 -1.37471 1.49096 0
M  V30 3140 C 311.98 -1.93765 0.129901 0
M  V30 3141 O 311.255 -1.74707 -0.854858 0
M  V30 3142 C 311.538 -2.52701 2.56542 0
M  V30 3143 C 311.391 -2.01643 4.0207 0
M  V30 3144 C 312.71 -3.54849 2.60327 0
M  V30 3145 H 309.829 -0.498502 0.54283 0
M  V30 3146 H 312.471 -0.692125 1.76945 0
M  V30 3147 H 310.621 -3.10931 2.32926 0
M  V30 3148 H 312.293 -1.48108 4.36877 0
M  V30 3149 H 310.536 -1.32688 4.13009 0
M  V30 3150 H 311.207 -2.84681 4.72928 0
M  V30 3151 H 313.683 -3.0645 2.81474 0
M  V30 3152 H 312.559 -4.32973 3.37381 0
M  V30 3153 H 312.82 -4.10079 1.6519 0
M  V30 3154 N 311.879 -1.3236 -0.855495 0
M  V30 3155 C 313.156 -1.13491 -1.59309 0
M  V30 3156 C 313.536 0.30503 -2.08885 0
M  V30 3157 O 312.884 1.30151 -1.87811 0
M  V30 3158 C 313.094 -2.16176 -2.73987 0
M  V30 3159 C 314.442 -2.49463 -3.43589 0
M  V30 3160 O 315.466 -2.14715 -2.84211 0
M  V30 3161 O 314.325 -3.09027 -4.50738 0
M  V30 3162 H 311.419 -0.437887 -0.701559 0
M  V30 3163 H 313.965 -1.43887 -0.899696 0
M  V30 3164 H 312.737 -3.1297 -2.34873 0
M  V30 3165 H 312.36 -1.86769 -3.51003 0
M  V30 3166 N 313.357 1.07166 -1.15556 0
M  V30 3167 C 314.32 2.12589 -0.856644 0
M  V30 3168 C 315.32 1.6015 0.14444 0
M  V30 3169 O 316.51 1.7399 -0.0854163 0
M  V30 3170 C 313.642 3.39753 -0.279405 0
M  V30 3171 H 314.835 2.40539 -1.79112 0
M  V30 3172 H 312.388 1.23086 -0.963298 0
M  V30 3173 H 313.123 3.17447 0.663174 0
M  V30 3174 H 312.908 3.79117 -1.00063 0
M  V30 3175 H 314.398 4.17507 -0.0879113 0
M  V30 3176 N 314.835 0.952656 1.25548 0
M  V30 3177 C 315.798 0.475794 2.24207 0
M  V30 3178 C 316.798 -0.419428 1.55234 0
M  V30 3179 O 317.988 -0.216994 1.72843 0
M  V30 3180 C 315.12 -0.312814 3.39462 0
M  V30 3181 H 316.313 1.34779 2.67908 0
M  V30 3182 H 313.866 0.735739 1.37901 0
M  V30 3183 H 314.601 -1.20257 3.01179 0
M  V30 3184 H 314.386 0.329404 3.90714 0
M  V30 3185 H 315.876 -0.635986 4.12729 0
M  V30 3186 N 316.313 -1.40141 0.720998 0
M  V30 3187 C 317.261 -2.3252 0.0608547 0
M  V30 3188 C 318.255 -1.52326 -0.741152 0
M  V30 3189 O 319.461 -1.68089 -0.643911 0
M  V30 3190 H 315.836 -0.751999 0.000876664 0
M  V30 3191 H 317.807 -2.8584 0.856614 0
M  V30 3192 C 316.556 -3.37331 -0.842809 0
M  V30 3193 H 315.879 -3.99108 -0.235084 0
M  V30 3194 H 317.319 -4.04452 -1.27257 0
M  V30 3195 C 315.778 -2.73246 -1.97074 0
M  V30 3196 O 316.308 -2.59998 -3.06209 0
M  V30 3197 N 314.514 -2.31547 -1.75597 0
M  V30 3198 H 314.061 -2.42522 -0.868368 0
M  V30 3199 H 314.019 -1.89007 -2.51244 0
M  V30 3200 N 317.792 -0.46758 -1.50504 0
M  V30 3201 C 318.755 0.317059 -2.26996 0
M  V30 3202 C 319.755 0.923513 -1.31635 0
M  V30 3203 O 320.945 0.793239 -1.55091 0
M  V30 3204 C 318.077 1.45134 -3.08462 0
M  V30 3205 H 319.27 -0.353723 -2.97807 0
M  V30 3206 H 316.823 -0.221545 -1.54722 0
M  V30 3207 H 317.558 2.15728 -2.4214 0
M  V30 3208 H 317.343 1.02232 -3.78538 0
M  V30 3209 H 318.833 2.00493 -3.66323 0
M  V30 3210 N 319.27 1.56325 -0.20005 0
M  V30 3211 C 320.218 2.20666 0.735482 0
M  V30 3212 C 321.212 1.17934 1.21605 0
M  V30 3213 O 322.418 1.36068 1.17837 0
M  V30 3214 H 318.793 0.70725 0.255542 0
M  V30 3215 H 320.764 2.9792 0.169166 0
M  V30 3216 C 319.513 2.88391 1.94232 0
M  V30 3217 H 318.836 3.67185 1.58161 0
M  V30 3218 H 320.276 3.3684 2.57517 0
M  V30 3219 C 318.735 1.89692 2.78421 0
M  V30 3220 O 319.265 1.40032 3.76502 0
M  V30 3221 N 317.471 1.57813 2.44015 0
M  V30 3222 H 317.018 1.9839 1.64314 0
M  V30 3223 H 316.976 0.920325 3.00628 0
M  V30 3224 N 320.748 -0.0735177 1.57428 0
M  V30 3225 C 321.711 -1.07192 2.02589 0
M  V30 3226 C 322.711 -1.31695 0.922661 0
M  V30 3227 O 323.901 -1.27445 1.18758 0
M  V30 3228 C 321.033 -2.41599 2.40506 0
M  V30 3229 H 322.226 -0.682727 2.92025 0
M  V30 3230 H 319.779 -0.319193 1.53006 0
M  V30 3231 H 320.514 -2.85354 1.5409 0
M  V30 3232 H 320.299 -2.25156 3.21009 0
M  V30 3233 H 321.789 -3.13367 2.76027 0
M  V30 3234 N 322.226 -1.5378 -0.344866 0
M  V30 3235 C 323.503 -1.61589 -1.10219 0
M  V30 3236 C 323.883 -0.436316 -2.06542 0
M  V30 3237 O 323.231 0.571543 -2.21237 0
M  V30 3238 C 323.441 -2.97602 -1.82301 0
M  V30 3239 C 324.789 -3.5291 -2.36093 0
M  V30 3240 O 325.813 -2.99768 -1.924 0
M  V30 3241 O 324.672 -4.45859 -3.16026 0
M  V30 3242 H 321.766 -0.653522 -0.506792 0
M  V30 3243 H 324.312 -1.66126 -0.346465 0
M  V30 3244 H 323.084 -3.74893 -1.12121 0
M  V30 3245 H 322.707 -2.9665 -2.64735 0
M  V30 3246 N 323.704 0.605807 -1.45491 0
M  V30 3247 C 324.944 1.37606 -1.51142 0
M  V30 3248 C 325.308 1.91413 -0.150075 0
M  V30 3249 O 326.509 2.68677 -0.0812828 0
M  V30 3250 C 324.78 2.49197 -2.56195 0
M  V30 3251 S 326.339 3.36953 -2.81083 0
M  V30 3252 H 323.157 0.469118 -0.534275 0
M  V30 3253 H 325.759 0.698845 -1.82583 0
M  V30 3254 H 324.463 2.0802 -3.53773 0
M  V30 3255 H 323.994 3.21717 -2.26411 0
M  V30 3256 H 326.009 4.47395 -2.14598 0
M  V30 3257 N 325.182 1.32811 0.848464 0
M  V30 3258 C 326.428 1.23907 1.60546 0
M  V30 3259 C 326.761 -0.197161 1.93197 0
M  V30 3260 O 326.036 -1.13596 1.5788 0
M  V30 3261 C 326.319 2.10489 2.92175 0
M  V30 3262 C 326.172 3.62522 2.66266 0
M  V30 3263 C 327.491 1.97075 3.93509 0
M  V30 3264 H 324.61 0.451459 0.58254 0
M  V30 3265 H 327.252 1.62818 0.979296 0
M  V30 3266 H 325.402 1.77434 3.45614 0
M  V30 3267 H 327.074 4.05821 2.19334 0
M  V30 3268 H 325.317 3.84879 2.00126 0
M  V30 3269 H 325.988 4.18437 3.6002 0
M  V30 3270 H 328.464 2.26045 3.49346 0
M  V30 3271 H 327.34 2.59923 4.83457 0
M  V30 3272 H 327.601 0.940186 4.31987 0
M  V30 3273 N 326.66 -1.06551 1.16123 0
M  V30 3274 C 327.593 -2.13382 0.80892 0
M  V30 3275 C 328.571 -1.61128 -0.21827 0
M  V30 3276 O 329.755 -1.88219 -0.102952 0
M  V30 3277 C 326.882 -3.38083 0.204303 0
M  V30 3278 C 325.928 -4.09133 1.20469 0
M  V30 3279 S 326.761 -4.5948 2.75024 0
M  V30 3280 C 327.917 -5.87446 2.16005 0
M  V30 3281 H 328.15 -2.42937 1.71373 0
M  V30 3282 H 325.683 -1.18947 0.984428 0
M  V30 3283 H 327.641 -4.10268 -0.138081 0
M  V30 3284 H 326.302 -3.0669 -0.678234 0
M  V30 3285 H 325.495 -4.98685 0.730019 0
M  V30 3286 H 325.097 -3.4295 1.49202 0
M  V30 3287 H 327.389 -6.60065 1.5271 0
M  V30 3288 H 328.332 -6.39639 3.03756 0
M  V30 3289 H 328.74 -5.41354 1.59989 0
M  V30 3290 N 328.138 -0.959301 -1.25041 0
M  V30 3291 C 329.068 -0.501388 -2.28053 0
M  V30 3292 C 330.049 0.454673 -1.63911 0
M  V30 3293 O 331.234 0.352618 -1.90972 0
M  V30 3294 C 328.364 0.217224 -3.4662 0
M  V30 3295 C 327.318 -0.654034 -4.22973 0
M  V30 3296 C 326.644 0.195589 -5.34342 0
M  V30 3297 C 327.944 -1.93447 -4.85155 0
M  V30 3298 H 329.638 -1.36238 -2.66608 0
M  V30 3299 H 327.184 -0.656534 -1.28163 0
M  V30 3300 H 329.137 0.548732 -4.17812 0
M  V30 3301 H 327.861 1.1125 -3.07068 0
M  V30 3302 H 326.52 -0.968693 -3.5357 0
M  V30 3303 H 326.168 1.09076 -4.91031 0
M  V30 3304 H 325.868 -0.384091 -5.86343 0
M  V30 3305 H 327.392 0.521958 -6.08365 0
M  V30 3306 H 328.806 -1.66908 -5.48466 0
M  V30 3307 H 327.203 -2.46018 -5.47353 0
M  V30 3308 H 328.273 -2.63466 -4.07079 0
M  V30 3309 N 329.616 1.39756 -0.72842 0
M  V30 3310 C 330.579 2.29012 -0.0927297 0
M  V30 3311 C 331.579 1.45992 0.674025 0
M  V30 3312 O 332.769 1.66749 0.50402 0
M  V30 3313 C 329.901 3.29396 0.878137 0
M  V30 3314 H 331.094 2.86729 -0.879011 0
M  V30 3315 H 328.647 1.48293 -0.493847 0
M  V30 3316 H 329.382 2.76722 1.69101 0
M  V30 3317 H 329.167 3.907 0.331051 0
M  V30 3318 H 330.657 3.96199 1.3197 0
M  V30 3319 N 331.094 0.475555 1.50254 0
M  V30 3320 C 332.004 -0.321501 2.32387 0
M  V30 3321 C 333.02 -0.991755 1.42969 0
M  V30 3322 O 334.196 -0.978747 1.76018 0
M  V30 3323 C 331.261 -1.38667 3.17762 0
M  V30 3324 C 330.322 -0.732538 4.23004 0
M  V30 3325 C 329.555 -1.74695 5.04299 0
M  V30 3326 O 329.778 -2.97399 4.86734 0
M  V30 3327 O 328.712 -1.31631 5.8733 0
M  V30 3328 H 332.538 0.350071 3.01676 0
M  V30 3329 H 330.123 0.237321 1.47503 0
M  V30 3330 H 332.005 -2.00354 3.70724 0
M  V30 3331 H 330.68 -2.04163 2.51196 0
M  V30 3332 H 329.587 -0.0765902 3.74022 0
M  V30 3333 H 330.92 -0.120452 4.92053 0
M  V30 3334 N 332.573 -1.56217 0.208337 0
M  V30 3335 C 333.989 -1.58919 -0.14729 0
M  V30 3336 C 334.189 -1.22486 -1.59998 0
M  V30 3337 O 333.245 -0.953849 -2.3379 0
M  V30 3338 C 334.558 -3.00236 0.167048 0
M  V30 3339 C 336.106 -3.12813 0.108219 0
M  V30 3340 C 336.581 -4.56284 0.396049 0
M  V30 3341 N 338.072 -4.61912 0.345142 0
M  V30 3342 C 338.807 -5.70837 0.541523 0
M  V30 3343 N 338.303 -6.88178 0.798968 0
M  V30 3344 N 340.096 -5.60091 0.474867 0
M  V30 3345 H 332.247 -1.78177 1.15614 0
M  V30 3346 H 334.51 -0.827555 0.462446 0
M  V30 3347 H 334.216 -3.31499 1.1748 0
M  V30 3348 H 334.09 -3.7354 -0.524184 0
M  V30 3349 H 336.477 -2.81354 -0.890157 0
M  V30 3350 H 336.558 -2.41866 0.832729 0
M  V30 3351 H 336.202 -4.88458 1.3918 0
M  V30 3352 H 336.132 -5.25439 -0.349502 0
M  V30 3353 H 338.623 -3.77589 0.153316 0
M  V30 3354 H 338.936 -7.67095 0.93727 0
M  V30 3355 H 337.281 -6.89953 0.836013 0
M  V30 3356 H 340.472 -4.67297 0.274064 0
M  V30 3357 H 340.645 -6.44917 0.631326 0
M  V30 3358 N 334.051 0.0651679 -1.57465 0
M  V30 3359 C 334.981 1.07693 -2.07182 0
M  V30 3360 C 335.962 1.39962 -0.966673 0
M  V30 3361 O 337.147 1.49475 -1.2398 0
M  V30 3362 C 334.277 2.3885 -2.52127 0
M  V30 3363 C 333.231 2.20917 -3.66579 0
M  V30 3364 C 332.557 3.57515 -3.97601 0
M  V30 3365 C 333.857 1.62493 -4.9638 0
M  V30 3366 H 335.551 0.663199 -2.91962 0
M  V30 3367 H 333.097 0.317569 -1.40455 0
M  V30 3368 H 335.05 3.09928 -2.85522 0
M  V30 3369 H 333.774 2.82215 -1.64384 0
M  V30 3370 H 332.433 1.52279 -3.33477 0
M  V30 3371 H 332.081 3.98463 -3.06979 0
M  V30 3372 H 331.781 3.46353 -4.74672 0
M  V30 3373 H 333.305 4.30013 -4.33499 0
M  V30 3374 H 334.719 2.23445 -5.27963 0
M  V30 3375 H 333.116 1.62009 -5.77818 0
M  V30 3376 H 334.186 0.587041 -4.81333 0
M  V30 3377 N 335.529 1.53961 0.336706 0
M  V30 3378 C 336.476 1.82428 1.41381 0
M  V30 3379 C 337.446 0.670444 1.51968 0
M  V30 3380 O 338.631 0.915565 1.67398 0
M  V30 3381 C 335.771 2.04564 2.77934 0
M  V30 3382 C 334.884 3.32267 2.76084 0
M  V30 3383 C 334.019 3.44434 4.04399 0
M  V30 3384 C 333.058 4.66061 3.96804 0
M  V30 3385 N 332.195 4.75224 5.16823 0
M  V30 3386 H 337.035 2.74324 1.16405 0
M  V30 3387 H 334.572 1.35869 0.563752 0
M  V30 3388 H 336.53 2.15388 3.57301 0
M  V30 3389 H 335.16 1.15974 3.01247 0
M  V30 3390 H 334.212 3.3025 1.88784 0
M  V30 3391 H 335.524 4.21733 2.66351 0
M  V30 3392 H 334.678 3.54728 4.92192 0
M  V30 3393 H 333.417 2.53037 4.16921 0
M  V30 3394 H 332.422 4.55838 3.07396 0
M  V30 3395 H 333.647 5.58829 3.85858 0
M  V30 3396 H 331.593 3.86739 5.29876 0
M  V30 3397 H 331.51 5.58636 5.09374 0
M  V30 3398 H 332.778 4.89835 6.06367 0
M  V30 3399 N 337.007 -0.598083 1.45811 0
M  V30 3400 C 337.97 -1.69018 1.54808 0
M  V30 3401 C 338.97 -1.55037 0.426652 0
M  V30 3402 O 340.16 -1.59932 0.690456 0
M  V30 3403 C 337.292 -3.0835 1.45371 0
M  V30 3404 H 338.485 -1.62403 2.52121 0
M  V30 3405 H 336.038 -0.814626 1.33392 0
M  V30 3406 H 336.773 -3.20534 0.492793 0
M  V30 3407 H 336.558 -3.19907 2.26721 0
M  V30 3408 H 338.048 -3.8788 1.54721 0
M  V30 3409 N 338.485 -1.33259 -0.841409 0
M  V30 3410 C 339.896 -1.22066 -1.41269 0
M  V30 3411 C 340.247 0.161479 -1.95534 0
M  V30 3412 O 339.372 1.06094 -1.88608 0
M  V30 3413 C 339.967 -2.20996 -2.568 0
M  V30 3414 C 338.526 -2.13649 -3.09888 0
M  V30 3415 C 337.673 -2.08623 -1.82679 0
M  V30 3416 H 340.624 -1.44895 -0.647395 0
M  V30 3417 H 340.645 -1.81621 -3.34356 0
M  V30 3418 H 340.157 -3.2158 -2.17274 0
M  V30 3419 H 338.258 -1.16359 -3.53965 0
M  V30 3420 H 338.371 -3.04079 -3.70234 0
M  V30 3421 H 336.735 -1.54061 -2.02824 0
M  V30 3422 H 337.518 -3.1101 -1.45353 0
M  V30 3423 N 339.963 1.05934 -1.16686 0
M  V30 3424 C 341.209 1.79065 -0.95203 0
M  V30 3425 C 341.542 1.87147 0.518629 0
M  V30 3426 O 340.817 1.36574 1.38484 0
M  V30 3427 C 341.1 3.23359 -1.58464 0
M  V30 3428 C 340.953 3.23336 -3.12689 0
M  V30 3429 C 342.272 4.21004 -1.28232 0
M  V30 3430 H 339.391 0.65005 -0.34728 0
M  V30 3431 H 342.033 1.23868 -1.44072 0
M  V30 3432 H 340.183 3.70493 -1.16908 0
M  V30 3433 H 341.855 2.84336 -3.6325 0
M  V30 3434 H 340.098 2.61886 -3.4583 0
M  V30 3435 H 340.769 4.25144 -3.52075 0
M  V30 3436 H 343.245 3.8233 -1.64203 0
M  V30 3437 H 342.121 5.20225 -1.75092 0
M  V30 3438 H 342.382 4.41639 -0.201791 0
M  V30 3439 N 341.441 0.965919 1.2453 0
M  V30 3440 C 342.687 0.637349 1.93156 0
M  V30 3441 C 343.042 -0.818261 1.74133 0
M  V30 3442 O 342.335 -1.58079 1.08266 0
M  V30 3443 C 342.529 0.945428 3.44669 0
M  V30 3444 C 342.358 2.42944 3.78429 0
M  V30 3445 C 341.128 3.08895 3.9989 0
M  V30 3446 C 343.326 3.40941 3.8505 0
M  V30 3447 N 341.308 4.47052 4.20735 0
M  V30 3448 C 342.679 4.64448 4.10717 0
M  V30 3449 C 344.734 3.35624 3.67779 0
M  V30 3450 C 343.437 5.83292 4.20907 0
M  V30 3451 C 345.463 4.53818 3.79214 0
M  V30 3452 C 344.825 5.76114 4.05304 0
M  V30 3453 H 340.924 0.284034 0.728594 0
M  V30 3454 H 343.508 1.24041 1.50073 0
M  V30 3455 H 341.679 0.371193 3.86622 0
M  V30 3456 H 343.411 0.575613 4.00586 0
M  V30 3457 H 340.166 2.59432 3.96222 0
M  V30 3458 H 340.59 5.18634 4.35141 0
M  V30 3459 H 345.232 2.4211 3.46616 0
M  V30 3460 H 342.95 6.77236 4.40883 0
M  V30 3461 H 346.536 4.51263 3.67224 0
M  V30 3462 H 345.416 6.66045 4.13949 0
M  V30 3463 N 342.919 -1.39368 0.735821 0
M  V30 3464 C 344.165 -2.00794 0.284544 0
M  V30 3465 C 344.498 -1.58255 -1.12557 0
M  V30 3466 O 343.773 -0.811819 -1.76748 0
M  V30 3467 C 344.056 -3.58011 0.387337 0
M  V30 3468 C 343.909 -4.10566 1.83728 0
M  V30 3469 C 345.228 -4.395 -0.22975 0
M  V30 3470 H 342.347 -0.729501 0.104866 0
M  V30 3471 H 344.989 -1.65564 0.93213 0
M  V30 3472 H 343.139 -3.88154 -0.164006 0
M  V30 3473 H 344.811 -3.91139 2.44556 0
M  V30 3474 H 343.054 -3.64095 2.35833 0
M  V30 3475 H 343.725 -5.19702 1.86047 0
M  V30 3476 H 346.201 -4.15406 0.240257 0
M  V30 3477 H 345.077 -5.48752 -0.127485 0
M  V30 3478 H 345.338 -4.22062 -1.3159 0
M  V30 3479 N 344.397 -0.483516 -1.5 0
M  V30 3480 C 345.36 0.292965 -2.2732 0
M  V30 3481 C 346.36 0.909499 -1.32608 0
M  V30 3482 O 347.55 0.776745 -1.55924 0
M  V30 3483 C 344.682 1.41854 -3.09984 0
M  V30 3484 H 345.875 -0.385289 -2.97415 0
M  V30 3485 H 343.428 -0.237942 -1.54478 0
M  V30 3486 H 344.163 2.13148 -2.44414 0
M  V30 3487 H 343.948 0.982114 -3.79601 0
M  V30 3488 H 345.438 1.96597 -3.68429 0
M  V30 3489 N 345.875 1.56104 -0.216619 0
M  V30 3490 C 347.286 1.844 0.292128 0
M  V30 3491 C 347.637 1.13788 1.59833 0
M  V30 3492 O 346.762 0.405888 2.12559 0
M  V30 3493 C 347.357 3.3452 0.53681 0
M  V30 3494 C 345.916 3.63151 0.989876 0
M  V30 3495 C 345.063 2.77255 0.0502302 0
M  V30 3496 H 348.014 1.52481 -0.439926 0
M  V30 3497 H 348.035 3.54459 1.38345 0
M  V30 3498 H 347.547 3.85885 -0.414031 0
M  V30 3499 H 345.648 3.17238 1.95425 0
M  V30 3500 H 345.761 4.71177 0.867698 0
M  V30 3501 H 344.125 2.48555 0.556117 0
M  V30 3502 H 344.908 3.31416 -0.89544 0
M  V30 3503 N 347.353 -0.0568162 1.57498 0
M  V30 3504 C 348.578 -0.769402 1.92601 0
M  V30 3505 C 349.003 -1.69559 0.814336 0
M  V30 3506 O 348.361 -1.79811 -0.231903 0
M  V30 3507 C 348.409 -1.52634 3.26704 0
M  V30 3508 O 347.513 -2.63797 3.16994 0
M  V30 3509 H 346.854 -0.208909 0.63028 0
M  V30 3510 H 349.384 -0.0205798 2.0459 0
M  V30 3511 H 349.394 -1.90234 3.60936 0
M  V30 3512 H 348.069 -0.846875 4.07186 0
M  V30 3513 H 346.646 -2.28943 2.94346 0
M  V30 3514 N 348.832 -1.54138 -0.328536 0
M  V30 3515 C 349.795 -1.82462 -1.38709 0
M  V30 3516 C 350.795 -0.696229 -1.44946 0
M  V30 3517 O 351.985 -0.964535 -1.4506 0
M  V30 3518 C 349.117 -1.98018 -2.77492 0
M  V30 3519 H 350.31 -2.77037 -1.14851 0
M  V30 3520 H 347.863 -1.45779 -0.563751 0
M  V30 3521 H 348.598 -1.05637 -3.06613 0
M  V30 3522 H 348.383 -2.80124 -2.74359 0
M  V30 3523 H 349.873 -2.21396 -3.54081 0
M  V30 3524 N 350.31 0.590341 -1.46126 0
M  V30 3525 C 351.721 1.17243 -1.45296 0
M  V30 3526 C 352.072 1.95281 -0.189723 0
M  V30 3527 O 351.197 2.04502 0.707674 0
M  V30 3528 C 351.792 2.13284 -2.6324 0
M  V30 3529 C 350.351 2.66832 -2.65476 0
M  V30 3530 C 349.498 1.42557 -2.3785 0
M  V30 3531 H 352.449 0.378692 -1.54116 0
M  V30 3532 H 352.47 2.96619 -2.38323 0
M  V30 3533 H 351.982 1.56459 -3.55165 0
M  V30 3534 H 350.083 3.27548 -1.77603 0
M  V30 3535 H 350.196 3.10088 -3.65215 0
M  V30 3536 H 348.56 1.72107 -1.87753 0
M  V30 3537 H 349.343 0.875741 -3.31942 0
M  V30 3538 N 351.788 1.33704 0.83433 0
M  V30 3539 C 353.204 1.13137 1.12571 0
M  V30 3540 C 353.404 -0.0747261 2.01361 0
M  V30 3541 O 352.46 -0.753647 2.4099 0
M  V30 3542 C 353.773 2.42105 1.78342 0
M  V30 3543 C 355.321 2.48054 1.90888 0
M  V30 3544 C 355.796 3.76995 2.60075 0
M  V30 3545 N 357.287 3.78092 2.67584 0
M  V30 3546 C 358.022 4.74574 3.21818 0
M  V30 3547 N 357.518 5.81434 3.76705 0
M  V30 3548 N 359.311 4.62044 3.20112 0
M  V30 3549 H 351.462 2.11 0.243489 0
M  V30 3550 H 353.725 0.932532 0.17055 0
M  V30 3551 H 353.431 3.30391 1.20561 0
M  V30 3552 H 353.305 2.54594 2.7832 0
M  V30 3553 H 355.692 1.60215 2.47821 0
M  V30 3554 H 355.773 2.39502 0.898459 0
M  V30 3555 H 355.417 4.65219 2.03799 0
M  V30 3556 H 355.347 3.82825 3.61597 0
M  V30 3557 H 357.838 3.00865 2.28667 0
M  V30 3558 H 358.151 6.51084 4.16305 0
M  V30 3559 H 356.496 5.85163 3.7498 0
M  V30 3560 H 359.687 3.77716 2.76493 0
M  V30 3561 H 359.86 5.37406 3.62076 0
M  V30 3562 N 353.266 -1.05314 1.17247 0
M  V30 3563 C 354.506 -1.79869 0.970898 0
M  V30 3564 C 354.87 -1.85594 -0.491808 0
M  V30 3565 O 356.071 -2.56229 -0.812409 0
M  V30 3566 C 354.342 -3.19937 1.59295 0
M  V30 3567 S 355.901 -4.10986 1.53741 0
M  V30 3568 H 352.719 -0.61949 0.348931 0
M  V30 3569 H 355.321 -1.26368 1.49169 0
M  V30 3570 H 354.025 -3.13372 2.65003 0
M  V30 3571 H 353.556 -3.78515 1.07191 0
M  V30 3572 H 355.571 -4.93203 0.544537 0
M  V30 3573 N 354.744 -0.972509 -1.24016 0
M  V30 3574 C 356.155 -0.67517 -1.74064 0
M  V30 3575 C 356.506 0.808939 -1.78747 0
M  V30 3576 O 355.631 1.63286 -1.42009 0
M  V30 3577 C 356.226 -1.21889 -3.16115 0
M  V30 3578 C 354.785 -0.971358 -3.6365 0
M  V30 3579 C 353.932 -1.35134 -2.42145 0
M  V30 3580 H 356.883 -1.14727 -1.09651 0
M  V30 3581 H 356.904 -0.587489 -3.75937 0
M  V30 3582 H 356.416 -2.29906 -3.12674 0
M  V30 3583 H 354.517 0.0930686 -3.72484 0
M  V30 3584 H 354.63 -1.62039 -4.50866 0
M  V30 3585 H 352.994 -0.769751 -2.4279 0
M  V30 3586 H 353.777 -2.4411 -2.41381 0
M  V30 3587 N 356.222 1.38976 -0.743202 0
M  V30 3588 C 357.469 2.00343 -0.294752 0
M  V30 3589 C 357.797 1.58983 1.12047 0
M  V30 3590 O 357.052 0.813809 1.77977 0
M  V30 3591 C 357.351 3.55647 -0.353517 0
M  V30 3592 C 357.017 4.16685 -1.72292 0
M  V30 3593 C 355.679 4.3307 -2.09771 0
M  V30 3594 C 358.031 4.50464 -2.62168 0
M  V30 3595 C 355.359 4.80526 -3.36618 0
M  V30 3596 C 357.711 4.99332 -3.88395 0
M  V30 3597 C 356.375 5.13924 -4.25956 0
M  V30 3598 H 355.645 0.733108 -0.107857 0
M  V30 3599 H 358.292 1.6618 -0.951651 0
M  V30 3600 H 356.597 3.89884 0.386954 0
M  V30 3601 H 358.294 4.00998 0.0117269 0
M  V30 3602 H 354.884 4.04339 -1.42155 0
M  V30 3603 H 359.068 4.37416 -2.3448 0
M  V30 3604 H 354.324 4.90008 -3.65653 0
M  V30 3605 H 358.498 5.2444 -4.58187 0
M  V30 3606 H 356.125 5.50457 -5.2431 0
M  V30 3607 N 357.7 0.491464 1.49741 0
M  V30 3608 C 359.111 0.0413169 1.86654 0
M  V30 3609 C 359.462 -1.36985 1.40462 0
M  V30 3610 O 358.587 -2.01917 0.778354 0
M  V30 3611 C 359.182 0.0682023 3.38731 0
M  V30 3612 C 357.741 -0.32656 3.74981 0
M  V30 3613 C 356.888 0.444888 2.73708 0
M  V30 3614 H 359.839 0.704733 1.42194 0
M  V30 3615 H 359.86 -0.729322 3.73445 0
M  V30 3616 H 359.372 1.09539 3.72321 0
M  V30 3617 H 357.473 -1.35734 3.46997 0
M  V30 3618 H 357.586 -0.013741 4.79098 0
M  V30 3619 H 355.95 -0.104062 2.54487 0
M  V30 3620 H 356.733 1.47197 3.10142 0
M  V30 3621 N 359.178 -1.55987 0.224894 0
M  V30 3622 C 360.406 -2.02784 -0.410665 0
M  V30 3623 C 360.821 -1.10464 -1.53112 0
M  V30 3624 O 360.178 -0.114871 -1.82138 0
M  V30 3625 C 360.229 -3.49087 -0.939165 0
M  V30 3626 O 359.95 -4.37887 0.136614 0
M  V30 3627 C 361.451 -4.11543 -1.64763 0
M  V30 3628 H 358.671 -0.663484 -0.100148 0
M  V30 3629 H 361.215 -2.01614 0.342326 0
M  V30 3630 H 359.37 -3.50861 -1.64242 0
M  V30 3631 H 359.784 -5.23849 -0.261155 0
M  V30 3632 H 361.258 -5.15673 -1.96939 0
M  V30 3633 H 361.735 -3.56736 -2.56195 0
M  V30 3634 H 362.341 -4.13629 -0.989503 0
M  V30 3635 N 360.656 0.0484629 -1.57525 0
M  V30 3636 C 362.072 0.40375 -1.54409 0
M  V30 3637 C 362.272 1.77786 -0.948384 0
M  V30 3638 O 361.328 2.46189 -0.560983 0
M  V30 3639 C 362.641 0.323394 -2.98956 0
M  V30 3640 C 364.189 0.401892 -3.10409 0
M  V30 3641 C 364.664 0.351195 -4.56652 0
M  V30 3642 N 366.155 0.410576 -4.61377 0
M  V30 3643 C 366.89 0.393933 -5.72045 0
M  V30 3644 N 366.386 0.330724 -6.9201 0
M  V30 3645 N 368.179 0.442227 -5.60358 0
M  V30 3646 H 360.33 -0.851016 -1.94606 0
M  V30 3647 H 362.593 -0.321721 -0.89174 0
M  V30 3648 H 362.299 -0.62011 -3.4619 0
M  V30 3649 H 362.173 1.12463 -3.60044 0
M  V30 3650 H 364.56 1.33582 -2.63134 0
M  V30 3651 H 364.641 -0.428342 -2.52188 0
M  V30 3652 H 364.285 -0.578987 -5.04589 0
M  V30 3653 H 364.215 1.19928 -5.12762 0
M  V30 3654 H 366.706 0.462729 -3.75056 0
M  V30 3655 H 367.019 0.322592 -7.72126 0
M  V30 3656 H 365.364 0.29706 -6.94365 0
M  V30 3657 H 368.555 0.489464 -4.65534 0
M  V30 3658 H 368.728 0.425788 -6.466 0
M  V30 3659 N 362.134 1.5431 0.320358 0
M  V30 3660 C 363.084 1.803 1.39556 0
M  V30 3661 C 364.068 0.659166 1.46778 0
M  V30 3662 O 365.26 0.91926 1.51257 0
M  V30 3663 C 362.389 2.03665 2.76361 0
M  V30 3664 C 361.475 3.24178 2.73439 0
M  V30 3665 N 361.866 4.4516 2.40137 0
M  V30 3666 C 360.164 3.25816 3.04565 0
M  V30 3667 C 360.865 5.27109 2.4603 0
M  V30 3668 N 359.841 4.64368 2.82601 0
M  V30 3669 H 363.643 2.71416 1.12742 0
M  V30 3670 H 361.157 1.53548 0.528856 0
M  V30 3671 H 363.154 2.20425 3.53862 0
M  V30 3672 H 361.814 1.13805 3.04103 0
M  V30 3673 H 362.825 4.72104 2.12927 0
M  V30 3674 H 359.502 2.46001 3.37328 0
M  V30 3675 H 360.892 6.33728 2.23246 0
M  V30 3676 N 363.613 -0.582584 1.46437 0
M  V30 3677 C 365.024 -1.1647 1.45916 0
M  V30 3678 C 365.375 -1.95177 0.200077 0
M  V30 3679 O 364.5 -2.04874 -0.696819 0
M  V30 3680 C 365.095 -2.11885 2.64367 0
M  V30 3681 C 363.654 -2.65421 2.66887 0
M  V30 3682 C 362.801 -1.41294 2.38603 0
M  V30 3683 H 365.752 -0.370514 1.54314 0
M  V30 3684 H 365.773 -2.9535 2.39892 0
M  V30 3685 H 365.285 -1.54573 3.5599 0
M  V30 3686 H 363.386 -3.26602 1.79338 0
M  V30 3687 H 363.499 -3.08147 3.66854 0
M  V30 3688 H 361.863 -1.71109 1.88663 0
M  V30 3689 H 362.646 -0.858125 3.32402 0
M  V30 3690 N 365.091 -1.34144 -0.827227 0
M  V30 3691 C 366.331 -1.27603 -1.59677 0
M  V30 3692 C 366.695 0.153035 -1.91389 0
M  V30 3693 O 367.896 0.342566 -2.66608 0
M  V30 3694 C 366.167 -2.13784 -2.86411 0
M  V30 3695 S 367.726 -2.24552 -3.76991 0
M  V30 3696 H 364.544 -0.453789 -0.547354 0
M  V30 3697 H 367.146 -1.69309 -0.977479 0
M  V30 3698 H 365.85 -3.16627 -2.61104 0
M  V30 3699 H 365.381 -1.72959 -3.5334 0
M  V30 3700 H 367.396 -1.41514 -4.75593 0
M  V30 3701 N 366.569 1.04691 -1.17803 0
M  V30 3702 C 367.816 1.77782 -0.969532 0
M  V30 3703 C 368.144 1.87926 0.501401 0
M  V30 3704 O 367.399 1.37918 1.38842 0
M  V30 3705 C 367.698 3.21467 -1.56186 0
M  V30 3706 C 367.364 3.3137 -3.05786 0
M  V30 3707 C 366.026 3.3378 -3.46619 0
M  V30 3708 C 368.378 3.31976 -4.01797 0
M  V30 3709 C 365.706 3.34431 -4.82051 0
M  V30 3710 C 368.058 3.34167 -5.37136 0
M  V30 3711 C 366.722 3.34866 -5.77426 0
M  V30 3712 H 365.992 0.650549 -0.354777 0
M  V30 3713 H 368.639 1.23006 -1.46772 0
M  V30 3714 H 366.944 3.79203 -0.985515 0
M  V30 3715 H 368.641 3.76652 -1.37602 0
M  V30 3716 H 365.231 3.3021 -2.73238 0
M  V30 3717 H 369.415 3.29311 -3.71306 0
M  V30 3718 H 364.671 3.33285 -5.12573 0
M  V30 3719 H 368.845 3.33585 -6.11305 0
M  V30 3720 H 366.472 3.35124 -6.82346 0
M  V30 3721 N 368.047 0.979072 1.23499 0
M  V30 3722 C 369.463 0.687475 1.44034 0
M  V30 3723 C 369.663 -0.746801 1.8715 0
M  V30 3724 O 368.719 -1.51939 2.0167 0
M  V30 3725 C 370.032 1.68127 2.49307 0
M  V30 3726 C 371.58 1.69516 2.63122 0
M  V30 3727 C 372.055 2.67723 3.71603 0
M  V30 3728 N 373.546 2.66233 3.79044 0
M  V30 3729 C 374.281 3.38891 4.62537 0
M  V30 3730 N 373.777 4.21103 5.50131 0
M  V30 3731 N 375.57 3.27661 4.56721 0
M  V30 3732 H 367.721 1.90559 0.938135 0
M  V30 3733 H 369.984 0.821051 0.473897 0
M  V30 3734 H 369.69 2.70693 2.2454 0
M  V30 3735 H 369.564 1.46306 3.4767 0
M  V30 3736 H 371.951 0.676561 2.8724 0
M  V30 3737 H 372.032 1.95404 1.65079 0
M  V30 3738 H 371.676 3.69724 3.48233 0
M  V30 3739 H 371.606 2.39111 4.69184 0
M  V30 3740 H 374.097 2.06568 3.16446 0
M  V30 3741 H 374.41 4.73403 6.10827 0
M  V30 3742 H 372.755 4.25195 5.49759 0
M  V30 3743 H 375.946 2.62887 3.87309 0
M  V30 3744 H 376.119 3.84547 5.21562 0
M  V30 3745 N 369.525 -1.3858 0.750561 0
M  V30 3746 C 370.773 -1.99789 0.30477 0
M  V30 3747 C 371.094 -1.59874 -1.11649 0
M  V30 3748 O 370.364 -0.85417 -1.76297 0
M  V30 3749 H 368.944 -0.738902 0.109694 0
M  V30 3750 H 371.606 -1.69391 0.963983 0
M  V30 3751 H 370.702 -3.09952 0.365499 0
M  V30 3752 N 371.003 -0.499398 -1.49478 0
M  V30 3753 C 371.933 0.269244 -2.31943 0
M  V30 3754 C 372.914 0.964054 -1.40143 0
M  V30 3755 O 374.099 0.955767 -1.69052 0
M  V30 3756 C 371.229 1.33504 -3.20615 0
M  V30 3757 C 370.183 0.760202 -4.21195 0
M  V30 3758 C 369.509 1.9264 -4.98792 0
M  V30 3759 C 370.809 -0.247661 -5.21712 0
M  V30 3760 H 372.503 -0.419082 -2.96452 0
M  V30 3761 H 370.049 -0.202988 -1.42562 0
M  V30 3762 H 372.002 1.88048 -3.77115 0
M  V30 3763 H 370.726 2.05253 -2.54045 0
M  V30 3764 H 369.385 0.23653 -3.65836 0
M  V30 3765 H 369.033 2.63154 -4.28671 0
M  V30 3766 H 368.733 1.54785 -5.66847 0
M  V30 3767 H 370.257 2.4762 -5.58137 0
M  V30 3768 H 371.671 0.209579 -5.72917 0
M  V30 3769 H 370.068 -0.541962 -5.97648 0
M  V30 3770 H 371.138 -1.16409 -4.7072 0
M  V30 3771 N 372.481 1.55866 -0.233164 0
M  V30 3772 C 373.414 2.16794 0.712442 0
M  V30 3773 C 374.392 1.1158 1.18273 0
M  V30 3774 O 375.576 1.39897 1.26337 0
M  V30 3775 C 372.703 2.75757 1.96661 0
M  V30 3776 C 371.749 3.93902 1.63533 0
M  V30 3777 S 372.582 5.30223 0.74995 0
M  V30 3778 C 373.738 5.92631 2.01343 0
M  V30 3779 H 373.971 2.96662 0.194617 0
M  V30 3780 H 371.504 1.5439 -0.0177425 0
M  V30 3781 H 373.462 3.10367 2.68668 0
M  V30 3782 H 372.123 1.9586 2.45556 0
M  V30 3783 H 371.316 4.33702 2.56747 0
M  V30 3784 H 370.918 3.60499 0.995804 0
M  V30 3785 H 373.21 6.09312 2.96219 0
M  V30 3786 H 374.153 6.88388 1.65915 0
M  V30 3787 H 374.561 5.21571 2.15925 0
M  V30 3788 N 373.959 -0.0401083 1.57549 0
M  V30 3789 C 375.37 -0.588097 1.77196 0
M  V30 3790 C 375.721 -1.76209 0.862832 0
M  V30 3791 O 374.846 -2.16331 0.0548389 0
M  V30 3792 C 375.441 -1.07363 3.21339 0
M  V30 3793 C 374 -1.56723 3.42221 0
M  V30 3794 C 373.147 -0.50041 2.72747 0
M  V30 3795 H 376.098 0.186119 1.57605 0
M  V30 3796 H 376.119 -1.94143 3.27244 0
M  V30 3797 H 375.631 -0.218975 3.87482 0
M  V30 3798 H 373.732 -2.4441 2.81237 0
M  V30 3799 H 373.845 -1.62234 4.50796 0
M  V30 3800 H 372.209 -0.952894 2.36203 0
M  V30 3801 H 372.992 0.344599 3.41566 0
M  V30 3802 N 375.437 -1.54477 -0.31217 0
M  V30 3803 C 376.4 -1.83923 -1.36766 0
M  V30 3804 C 377.4 -0.711563 -1.44199 0
M  V30 3805 O 378.59 -0.979866 -1.44029 0
M  V30 3806 C 375.722 -2.0095 -2.75376 0
M  V30 3807 H 376.915 -2.78239 -1.11906 0
M  V30 3808 H 374.468 -1.46369 -0.548257 0
M  V30 3809 H 375.203 -1.08883 -3.05475 0
M  V30 3810 H 374.988 -2.83018 -2.71373 0
M  V30 3811 H 376.478 -2.2514 -3.51713 0
M  V30 3812 N 376.915 0.57481 -1.46744 0
M  V30 3813 C 378.163 1.33009 -1.52161 0
M  V30 3814 C 378.484 1.94185 -0.178092 0
M  V30 3815 O 377.754 1.7899 0.796196 0
M  V30 3816 H 376.334 0.493873 -0.560445 0
M  V30 3817 H 378.996 0.672589 -1.82927 0
M  V30 3818 H 378.092 2.13273 -2.27862 0
M  V30 3819 N 378.394 1.34581 0.820102 0
M  V30 3820 C 379.643 1.26437 1.57151 0
M  V30 3821 C 379.956 -0.163111 1.94919 0
M  V30 3822 O 381.162 -0.366722 2.69012 0
M  V30 3823 C 379.618 2.21658 2.83541 0
M  V30 3824 C 379.226 3.69679 2.53065 0
M  V30 3825 C 380.97 2.22428 3.61561 0
M  V30 3826 C 378.877 4.56761 3.75664 0
M  V30 3827 H 377.807 0.469707 0.589823 0
M  V30 3828 H 380.458 1.59763 0.902656 0
M  V30 3829 H 378.84 1.81287 3.52067 0
M  V30 3830 H 380.014 4.18605 1.92631 0
M  V30 3831 H 378.329 3.71384 1.88316 0
M  V30 3832 H 380.926 2.8471 4.52597 0
M  V30 3833 H 381.269 1.22434 3.97889 0
M  V30 3834 H 381.802 2.61259 2.99981 0
M  V30 3835 H 378.541 5.57702 3.44454 0
M  V30 3836 H 378.061 4.12568 4.35371 0
M  V30 3837 H 379.74 4.71509 4.43044 0
M  V30 3838 N 379.872 -1.04064 1.18357 0
M  V30 3839 C 380.835 -2.10243 0.912707 0
M  V30 3840 C 381.835 -1.60477 -0.101928 0
M  V30 3841 O 383.025 -1.73703 0.131517 0
M  V30 3842 C 380.157 -3.38893 0.369387 0
M  V30 3843 H 381.35 -2.35706 1.85426 0
M  V30 3844 H 378.903 -1.20489 0.995594 0
M  V30 3845 H 379.638 -3.19094 -0.578776 0
M  V30 3846 H 379.423 -3.76331 1.1008 0
M  V30 3847 H 380.913 -4.17128 0.198575 0
M  V30 3848 N 381.35 -0.985608 -1.22978 0
M  V30 3849 C 382.313 -0.535071 -2.22867 0
M  V30 3850 C 383.313 0.378123 -1.56291 0
M  V30 3851 O 384.503 0.171092 -1.73358 0
M  V30 3852 C 381.635 0.222702 -3.40172 0
M  V30 3853 H 382.828 -1.41835 -2.6424 0
M  V30 3854 H 380.381 -0.772042 -1.35901 0
M  V30 3855 H 381.116 1.12229 -3.04262 0
M  V30 3856 H 380.901 -0.43288 -3.89703 0
M  V30 3857 H 382.391 0.526335 -4.1427 0
M  V30 3858 N 382.828 1.3818 -0.7579 0
M  V30 3859 C 384.077 1.99261 -0.312744 0
M  V30 3860 C 384.39 1.60846 1.11301 0
M  V30 3861 O 385.596 2.14929 1.65885 0
M  V30 3862 C 384.052 3.56294 -0.50821 0
M  V30 3863 C 383.66 4.03657 -1.94333 0
M  V30 3864 C 385.404 4.24313 -0.125982 0
M  V30 3865 C 383.311 5.53347 -2.08712 0
M  V30 3866 H 382.241 0.745456 -0.113185 0
M  V30 3867 H 384.892 1.57889 -0.935056 0
M  V30 3868 H 383.274 3.95575 0.183353 0
M  V30 3869 H 384.448 3.75655 -2.66871 0
M  V30 3870 H 382.763 3.48376 -2.28086 0
M  V30 3871 H 385.36 5.34279 -0.212125 0
M  V30 3872 H 385.703 4.05962 0.921964 0
M  V30 3873 H 386.236 3.90285 -0.769563 0
M  V30 3874 H 382.975 5.76607 -3.11777 0
M  V30 3875 H 382.495 5.83078 -1.4064 0
M  V30 3876 H 384.174 6.19111 -1.87912 0
M  V30 3877 N 384.306 0.507319 1.49211 0
M  V30 3878 C 385.531 -0.033725 2.07373 0
M  V30 3879 C 385.956 -1.29485 1.36437 0
M  V30 3880 O 385.314 -1.76294 0.423087 0
M  V30 3881 C 385.362 -0.263945 3.59633 0
M  V30 3882 O 384.466 -1.33737 3.90113 0
M  V30 3883 H 383.807 0.0290331 0.663365 0
M  V30 3884 H 386.337 0.708749 1.91932 0
M  V30 3885 H 386.347 -0.493536 4.05004 0
M  V30 3886 H 385.022 0.657424 4.10671 0
M  V30 3887 H 383.599 -1.09224 3.56545 0
M  V30 3888 N 385.784 -1.5574 0.241426 0
M  V30 3889 C 386.716 -2.18469 -0.693091 0
M  V30 3890 C 387.729 -1.15942 -1.14286 0
M  V30 3891 O 388.918 -1.42832 -1.07058 0
M  V30 3892 C 386.018 -2.7696 -1.95311 0
M  V30 3893 C 385.191 -4.04853 -1.65568 0
M  V30 3894 C 384.25 -4.47715 -2.76474 0
M  V30 3895 O 383.276 -5.14205 -2.44094 0
M  V30 3896 N 384.478 -4.15044 -4.05855 0
M  V30 3897 H 387.243 -2.99292 -0.156388 0
M  V30 3898 H 384.804 -1.61784 0.0611752 0
M  V30 3899 H 386.796 -3.02594 -2.68736 0
M  V30 3900 H 385.366 -2.00326 -2.39975 0
M  V30 3901 H 384.586 -3.86865 -0.756886 0
M  V30 3902 H 385.874 -4.88246 -1.43153 0
M  V30 3903 H 385.272 -3.61654 -4.34998 0
M  V30 3904 H 383.829 -4.45526 -4.75762 0
M  V30 3905 N 387.262 0.0317525 -1.57568 0
M  V30 3906 C 388.192 1.03274 -2.0942 0
M  V30 3907 C 389.173 1.3788 -0.996143 0
M  V30 3908 O 390.358 1.46811 -1.27122 0
M  V30 3909 C 387.488 2.33448 -2.57137 0
M  V30 3910 C 386.442 2.13091 -3.71182 0
M  V30 3911 C 385.768 3.49001 -4.05095 0
M  V30 3912 C 387.068 1.51928 -4.99715 0
M  V30 3913 H 388.762 0.60112 -2.93303 0
M  V30 3914 H 386.308 0.287705 -1.41097 0
M  V30 3915 H 388.261 3.03802 -2.92032 0
M  V30 3916 H 386.985 2.78665 -1.70333 0
M  V30 3917 H 385.644 1.45171 -3.36632 0
M  V30 3918 H 385.292 3.91862 -3.15362 0
M  V30 3919 H 384.992 3.36207 -4.81911 0
M  V30 3920 H 386.516 4.20721 -4.42522 0
M  V30 3921 H 387.93 2.12196 -5.32584 0
M  V30 3922 H 386.327 1.49716 -5.81124 0
M  V30 3923 H 387.397 0.484811 -4.8247 0
M  V30 3924 N 388.74 1.54641 0.303973 0
M  V30 3925 C 389.67 1.88386 1.3796 0
M  V30 3926 C 390.651 0.742485 1.5304 0
M  V30 3927 O 391.836 0.997959 1.66597 0
M  V30 3928 C 388.966 2.12854 2.74427 0
M  V30 3929 C 387.92 3.28702 2.74115 0
M  V30 3930 C 387.246 3.38582 4.13844 0
M  V30 3931 C 388.546 4.65881 2.3612 0
M  V30 3932 H 390.24 2.78474 1.09966 0
M  V30 3933 H 387.786 1.33988 0.527556 0
M  V30 3934 H 389.739 2.35047 3.49758 0
M  V30 3935 H 388.463 1.19535 3.03939 0
M  V30 3936 H 387.122 3.06428 2.0124 0
M  V30 3937 H 386.77 2.42784 4.40528 0
M  V30 3938 H 386.47 4.16453 4.14537 0
M  V30 3939 H 387.994 3.63031 4.90959 0
M  V30 3940 H 389.408 4.87823 3.01167 0
M  V30 3941 H 387.805 5.46444 2.48031 0
M  V30 3942 H 388.875 4.66799 1.3125 0
M  V30 3943 N 390.218 -0.567019 1.47046 0
M  V30 3944 C 391.128 -1.70247 1.6141 0
M  V30 3945 C 392.144 -1.66746 0.497157 0
M  V30 3946 O 393.32 -1.86371 0.763389 0
M  V30 3947 C 390.385 -3.06756 1.61561 0
M  V30 3948 C 389.446 -3.21399 2.84607 0
M  V30 3949 C 388.679 -4.51396 2.84741 0
M  V30 3950 O 388.902 -5.36255 1.94388 0
M  V30 3951 O 387.836 -4.69621 3.76483 0
M  V30 3952 H 391.662 -1.61073 2.57467 0
M  V30 3953 H 389.247 -0.735894 1.30019 0
M  V30 3954 H 391.129 -3.8801 1.64396 0
M  V30 3955 H 389.804 -3.16333 0.686684 0
M  V30 3956 H 388.711 -2.39579 2.8732 0
M  V30 3957 H 390.044 -3.16721 3.76761 0
M  V30 3958 N 391.696 -1.35014 -0.812953 0
M  V30 3959 C 392.944 -1.27678 -1.56661 0
M  V30 3960 C 393.265 0.150359 -1.94419 0
M  V30 3961 O 392.535 1.08532 -1.63088 0
M  V30 3962 H 391.115 -0.469602 -0.580933 0
M  V30 3963 H 393.777 -1.69043 -0.970076 0
M  V30 3964 H 392.873 -1.88833 -2.48492 0
M  V30 3965 N 393.175 1.03435 -1.18907 0
M  V30 3966 C 394.125 2.09924 -0.889706 0
M  V30 3967 C 395.109 1.60261 0.143216 0
M  V30 3968 O 396.301 1.76892 -0.0617122 0
M  V30 3969 C 393.43 3.40669 -0.424168 0
M  V30 3970 C 392.516 3.97082 -1.48952 0
M  V30 3971 N 392.907 4.27227 -2.70759 0
M  V30 3972 C 391.205 4.25029 -1.35152 0
M  V30 3973 C 391.906 4.7246 -3.39347 0
M  V30 3974 N 390.882 4.7366 -2.66735 0
M  V30 3975 H 394.684 2.31116 -1.81555 0
M  V30 3976 H 392.198 1.21246 -1.08042 0
M  V30 3977 H 394.195 4.16461 -0.191176 0
M  V30 3978 H 392.855 3.20901 0.495263 0
M  V30 3979 H 393.866 4.16678 -3.0757 0
M  V30 3980 H 390.543 4.14554 -0.495126 0
M  V30 3981 H 391.933 5.04751 -4.43481 0
M  V30 3982 N 394.653 0.992116 1.22453 0
M  V30 3983 C 395.93 0.583508 1.86694 0
M  V30 3984 C 396.31 -0.9392 1.89056 0
M  V30 3985 O 395.658 -1.82081 1.38053 0
M  V30 3986 C 395.868 1.20304 3.2761 0
M  V30 3987 C 397.216 1.30308 4.0411 0
M  V30 3988 O 398.24 1.15737 3.36873 0
M  V30 3989 O 397.099 1.53615 5.24466 0
M  V30 3990 H 394.193 0.198129 0.802916 0
M  V30 3991 H 396.739 1.08794 1.30238 0
M  V30 3992 H 395.511 2.24461 3.2052 0
M  V30 3993 H 395.134 0.684144 3.9167 0
M  V30 3994 N 396.131 -1.37776 0.765217 0
M  V30 3995 C 397.377 -2.00145 0.327072 0
M  V30 3996 C 397.71 -1.60607 -1.09175 0
M  V30 3997 O 396.985 -0.849127 -1.74986 0
M  V30 3998 C 397.268 -3.57109 0.46319 0
M  V30 3999 C 397.121 -4.06576 1.92395 0
M  V30 4000 C 398.44 -4.39888 -0.136473 0
M  V30 4001 H 395.559 -0.727113 0.120316 0
M  V30 4002 H 398.201 -1.63549 0.967039 0
M  V30 4003 H 396.351 -3.88414 -0.0816358 0
M  V30 4004 H 398.023 -3.85864 2.52798 0
M  V30 4005 H 396.266 -3.59011 2.43503 0
M  V30 4006 H 396.937 -5.15639 1.97028 0
M  V30 4007 H 399.413 -4.14803 0.328317 0
M  V30 4008 H 398.289 -5.48899 -0.0110582 0
M  V30 4009 H 398.55 -4.24758 -1.22608 0
M  V30 4010 N 397.609 -0.515225 -1.4894 0
M  V30 4011 C 398.855 0.0242508 -2.02785 0
M  V30 4012 C 399.188 1.35323 -1.39289 0
M  V30 4013 O 398.463 1.87041 -0.533469 0
M  V30 4014 C 398.746 0.16184 -3.59736 0
M  V30 4015 C 398.599 -1.19127 -4.33738 0
M  V30 4016 C 399.918 0.895719 -4.30888 0
M  V30 4017 H 397.037 0.00733914 -0.736963 0
M  V30 4018 H 399.679 -0.669395 -1.77818 0
M  V30 4019 H 397.829 0.752624 -3.8114 0
M  V30 4020 H 399.501 -1.82202 -4.23792 0
M  V30 4021 H 397.744 -1.77695 -3.95736 0
M  V30 4022 H 398.415 -1.04815 -5.41957 0
M  V30 4023 H 400.891 0.394528 -4.14225 0
M  V30 4024 H 399.767 0.960859 -5.40425 0
M  V30 4025 H 400.028 1.9427 -3.97129 0
M  V30 4026 N 399.087 1.5561 -0.249682 0
M  V30 4027 C 400.017 2.24477 0.642826 0
M  V30 4028 C 400.998 1.22601 1.17911 0
M  V30 4029 O 402.183 1.5126 1.21795 0
M  V30 4030 C 399.313 2.94638 1.83863 0
M  V30 4031 C 398.267 4.03227 1.435 0
M  V30 4032 C 397.593 4.60828 2.71186 0
M  V30 4033 C 398.893 5.18796 0.604002 0
M  V30 4034 H 400.587 2.99321 0.0685625 0
M  V30 4035 H 398.133 1.43965 0.0315363 0
M  V30 4036 H 400.086 3.41517 2.46868 0
M  V30 4037 H 398.81 2.17287 2.43832 0
M  V30 4038 H 397.469 3.57121 0.828275 0
M  V30 4039 H 397.117 3.80174 3.29358 0
M  V30 4040 H 396.817 5.34132 2.44901 0
M  V30 4041 H 398.341 5.10442 3.35084 0
M  V30 4042 H 399.755 5.61883 1.13842 0
M  V30 4043 H 398.152 5.98506 0.437097 0
M  V30 4044 H 399.222 4.83384 -0.383147 0
M  V30 4045 N 400.565 -0.0233959 1.57583 0
M  V30 4046 C 401.811 -0.714119 1.89811 0
M  V30 4047 C 402.144 -1.74702 0.848113 0
M  V30 4048 O 401.419 -1.94023 -0.136135 0
M  V30 4049 C 401.702 -1.37853 3.32669 0
M  V30 4050 C 401.555 -0.358764 4.48367 0
M  V30 4051 C 402.874 -2.31101 3.7454 0
M  V30 4052 H 399.993 -0.25814 0.690314 0
M  V30 4053 H 402.635 0.0230927 1.89986 0
M  V30 4054 H 400.785 -2.00689 3.3265 0
M  V30 4055 H 402.457 0.268115 4.6052 0
M  V30 4056 H 400.7 0.321387 4.32608 0
M  V30 4057 H 401.371 -0.862242 5.45224 0
M  V30 4058 H 403.847 -1.78304 3.75961 0
M  V30 4059 H 402.723 -2.74567 4.75294 0
M  V30 4060 H 402.984 -3.18018 3.0711 0
M  V30 4061 N 402.043 -1.548 -0.295768 0
M  V30 4062 C 403.292 -1.73538 -1.02798 0
M  V30 4063 C 403.605 -0.531159 -1.8825 0
M  V30 4064 O 404.811 -0.600458 -2.64777 0
M  V30 4065 C 403.267 -3.07051 -1.87744 0
M  V30 4066 C 402.875 -4.34968 -1.07269 0
M  V30 4067 C 404.619 -3.35146 -2.60533 0
M  V30 4068 C 402.526 -5.5953 -1.91521 0
M  V30 4069 H 401.456 -0.646794 -0.387522 0
M  V30 4070 H 404.107 -1.81278 -0.284718 0
M  V30 4071 H 402.489 -2.93289 -2.66078 0
M  V30 4072 H 403.663 -4.5958 -0.335117 0
M  V30 4073 H 401.978 -4.13847 -0.460384 0
M  V30 4074 H 404.575 -4.2541 -3.23929 0
M  V30 4075 H 404.918 -2.54255 -3.29636 0
M  V30 4076 H 405.451 -3.49902 -1.89244 0
M  V30 4077 H 402.19 -6.43103 -1.26878 0
M  V30 4078 H 401.71 -5.39096 -2.62937 0
M  V30 4079 H 403.389 -5.96982 -2.49442 0
M  V30 4080 N 403.521 0.559213 -1.47345 0
M  V30 4081 C 404.769 1.31388 -1.53563 0
M  V30 4082 C 405.09 1.93985 -0.198678 0
M  V30 4083 O 404.36 1.79825 0.777167 0
M  V30 4084 H 402.94 0.487901 -0.565652 0
M  V30 4085 H 405.602 0.65315 -1.8363 0
M  V30 4086 H 404.698 2.10844 -2.30111 0
M  V30 4087 N 404.999 1.35443 0.805782 0
M  V30 4088 C 405.962 1.28301 1.89925 0
M  V30 4089 C 406.962 0.194285 1.59622 0
M  V30 4090 O 408.152 0.448036 1.6834 0
M  V30 4091 C 405.284 0.984997 3.2636 0
M  V30 4092 H 406.477 2.2553 1.97677 0
M  V30 4093 H 404.03 1.19979 1.00173 0
M  V30 4094 H 404.765 0.016603 3.24296 0
M  V30 4095 H 404.55 1.77269 3.4974 0
M  V30 4096 H 406.04 0.960651 4.064 0
M  V30 4097 N 406.477 -1.02803 1.19454 0
M  V30 4098 C 407.888 -1.57667 0.999899 0
M  V30 4099 C 408.239 -1.91041 -0.446956 0
M  V30 4100 O 407.364 -1.70978 -1.32648 0
M  V30 4101 C 407.959 -2.86477 1.80877 0
M  V30 4102 C 406.518 -3.37911 1.65811 0
M  V30 4103 C 405.665 -2.11343 1.79526 0
M  V30 4104 H 408.616 -0.853214 1.33813 0
M  V30 4105 H 408.637 -3.57408 1.30536 0
M  V30 4106 H 408.149 -2.62155 2.86175 0
M  V30 4107 H 406.25 -3.67218 0.63102 0
M  V30 4108 H 406.363 -4.10885 2.46395 0
M  V30 4109 H 404.727 -2.23254 1.22596 0
M  V30 4110 H 405.51 -1.89461 2.86285 0
M  V30 4111 N 407.956 -0.998596 -1.21925 0
M  V30 4112 C 409.202 -0.678667 -1.91107 0
M  V30 4113 C 409.535 0.78791 -1.77498 0
M  V30 4114 O 408.81 1.57043 -1.1475 0
M  V30 4115 C 409.093 -1.09245 -3.43129 0
M  V30 4116 C 408.946 -2.61801 -3.6576 0
M  V30 4117 C 410.265 -0.649984 -4.35274 0
M  V30 4118 H 407.384 -0.248025 -0.694012 0
M  V30 4119 H 410.026 -1.24314 -1.43688 0
M  V30 4120 H 408.176 -0.612171 -3.83647 0
M  V30 4121 H 409.848 -3.17543 -3.34611 0
M  V30 4122 H 408.091 -3.03609 -3.09845 0
M  V30 4123 H 408.762 -2.85804 -4.7225 0
M  V30 4124 H 411.238 -1.0626 -4.02303 0
M  V30 4125 H 410.114 -0.967743 -5.40302 0
M  V30 4126 H 410.375 0.449139 -4.39813 0
M  V30 4127 N 409.434 1.37368 -0.772513 0
M  V30 4128 C 410.681 1.99673 -0.337182 0
M  V30 4129 C 411.009 1.61324 1.0865 0
M  V30 4130 O 410.264 0.851377 1.7621 0
M  V30 4131 C 410.563 3.54817 -0.428876 0
M  V30 4132 C 410.229 4.12936 -1.81092 0
M  V30 4133 C 408.891 4.28523 -2.1891 0
M  V30 4134 C 411.243 4.44801 -2.71664 0
M  V30 4135 C 408.571 4.73277 -3.46735 0
M  V30 4136 C 410.923 4.90981 -3.98899 0
M  V30 4137 C 409.587 5.04773 -4.36761 0
M  V30 4138 H 408.857 0.730656 -0.123384 0
M  V30 4139 H 411.504 1.64124 -0.986686 0
M  V30 4140 H 409.809 3.90618 0.304167 0
M  V30 4141 H 411.506 4.00933 -0.0733334 0
M  V30 4142 H 408.096 4.01233 -1.50699 0
M  V30 4143 H 412.28 4.32344 -2.43706 0
M  V30 4144 H 407.536 4.82142 -3.75964 0
M  V30 4145 H 411.71 5.14603 -4.69208 0
M  V30 4146 H 409.337 5.39211 -5.35868 0
M  V30 4147 N 410.912 0.523116 1.48665 0
M  V30 4148 C 412.328 0.180511 1.58576 0
M  V30 4149 C 412.528 -1.31597 1.52592 0
M  V30 4150 O 411.584 -2.0937 1.4114 0
M  V30 4151 C 412.897 0.776949 2.90489 0
M  V30 4152 C 414.445 0.745058 3.04003 0
M  V30 4153 C 414.92 1.31995 4.38567 0
M  V30 4154 N 416.411 1.28162 4.45117 0
M  V30 4155 C 417.146 1.6964 5.47731 0
M  V30 4156 N 416.642 2.18816 6.57337 0
M  V30 4157 N 418.435 1.6092 5.38573 0
M  V30 4158 H 410.586 1.4958 1.50797 0
M  V30 4159 H 412.849 0.621772 0.715614 0
M  V30 4160 H 412.555 1.82732 3.00503 0
M  V30 4161 H 412.429 0.25007 3.7637 0
M  V30 4162 H 414.816 -0.296532 2.93606 0
M  V30 4163 H 414.897 1.30933 2.1975 0
M  V30 4164 H 414.541 2.36043 4.49718 0
M  V30 4165 H 414.471 0.731418 5.21496 0
M  V30 4166 H 416.962 0.92155 3.66491 0
M  V30 4167 H 417.275 2.48478 7.31764 0
M  V30 4168 H 415.62 2.22805 6.58318 0
M  V30 4169 H 418.811 1.22304 4.5184 0
M  V30 4170 H 418.984 1.93567 6.18414 0
M  V30 4171 N 412.39 -1.55475 0.257931 0
M  V30 4172 C 413.62 -2.03314 -0.367026 0
M  V30 4173 C 414.028 -1.13625 -1.51281 0
M  V30 4174 O 413.371 -0.145334 -1.83124 0
M  V30 4175 C 413.433 -3.47362 -0.926284 0
M  V30 4176 C 413.097 -4.56914 0.0886584 0
M  V30 4177 C 414.094 -5.12013 0.902123 0
M  V30 4178 C 411.779 -5.01827 0.217936 0
M  V30 4179 C 413.773 -6.10529 1.83122 0
M  V30 4180 C 411.46 -6.00172 1.15052 0
M  V30 4181 C 412.458 -6.54402 1.95568 0
M  V30 4182 O 412.146 -7.50827 2.87253 0
M  V30 4183 H 411.878 -0.669976 -0.0900443 0
M  V30 4184 H 414.432 -2.01804 0.382673 0
M  V30 4185 H 412.662 -3.46056 -1.72575 0
M  V30 4186 H 414.351 -3.78637 -1.46249 0
M  V30 4187 H 415.117 -4.78139 0.812891 0
M  V30 4188 H 410.996 -4.59272 -0.398721 0
M  V30 4189 H 414.54 -6.52783 2.46008 0
M  V30 4190 H 410.437 -6.33465 1.24064 0
M  V30 4191 H 411.205 -7.68483 2.81739 0
M  V30 4192 N 413.868 0.0150385 -1.57593 0
M  V30 4193 C 414.818 1.01943 -2.0394 0
M  V30 4194 C 415.802 1.31209 -0.931286 0
M  V30 4195 O 416.994 1.30559 -1.19513 0
M  V30 4196 C 414.123 2.31621 -2.53391 0
M  V30 4197 C 413.209 2.05384 -3.7105 0
M  V30 4198 N 413.6 1.49253 -4.83278 0
M  V30 4199 C 411.898 2.35601 -3.78693 0
M  V30 4200 C 412.599 1.39143 -5.64813 0
M  V30 4201 N 411.575 1.87187 -5.10355 0
M  V30 4202 H 415.377 0.57969 -2.88126 0
M  V30 4203 H 412.891 0.221056 -1.60888 0
M  V30 4204 H 414.888 3.044 -2.84862 0
M  V30 4205 H 413.548 2.76261 -1.70616 0
M  V30 4206 H 414.559 1.17334 -5.04433 0
M  V30 4207 H 411.236 2.8322 -3.06746 0
M  V30 4208 H 412.626 0.961153 -6.6499 0
M  V30 4209 N 415.346 1.54954 0.287554 0
M  V30 4210 C 416.278 1.83224 1.37701 0
M  V30 4211 C 417.291 0.715898 1.46215 0
M  V30 4212 O 418.48 0.993565 1.48292 0
M  V30 4213 C 415.58 1.96723 2.75959 0
M  V30 4214 C 414.753 3.27253 2.90215 0
M  V30 4215 C 413.812 3.30998 4.09056 0
M  V30 4216 O 412.838 4.04457 4.00503 0
M  V30 4217 N 414.04 2.57353 5.20336 0
M  V30 4218 H 416.805 2.77254 1.138 0
M  V30 4219 H 414.366 1.54694 0.477652 0
M  V30 4220 H 416.358 1.96615 3.5373 0
M  V30 4221 H 414.928 1.09626 2.92747 0
M  V30 4222 H 414.148 3.40022 1.99447 0
M  V30 4223 H 415.436 4.13365 2.96659 0
M  V30 4224 H 414.834 1.97327 5.30169 0
M  V30 4225 H 413.391 2.62984 5.96391 0
M  V30 4226 N 416.824 -0.551391 1.4764 0
M  V30 4227 C 418.054 -1.33163 1.57959 0
M  V30 4228 C 418.462 -1.87785 0.23094 0
M  V30 4229 O 417.805 -1.65996 -0.786825 0
M  V30 4230 C 417.867 -2.53449 2.54958 0
M  V30 4231 C 417.531 -2.20071 4.00522 0
M  V30 4232 C 418.528 -1.77017 4.88836 0
M  V30 4233 C 416.213 -2.31252 4.45901 0
M  V30 4234 C 418.207 -1.4558 6.20552 0
M  V30 4235 C 415.894 -1.99427 5.77644 0
M  V30 4236 C 416.892 -1.56659 6.64791 0
M  V30 4237 O 416.58 -1.25242 7.94084 0
M  V30 4238 H 416.312 -0.412022 0.535923 0
M  V30 4239 H 418.866 -0.674186 1.9402 0
M  V30 4240 H 417.096 -3.22104 2.13976 0
M  V30 4241 H 418.785 -3.15523 2.55343 0
M  V30 4242 H 419.551 -1.67867 4.55023 0
M  V30 4243 H 415.43 -2.63498 3.78272 0
M  V30 4244 H 418.974 -1.12125 6.8853 0
M  V30 4245 H 414.871 -2.08211 6.10998 0
M  V30 4246 H 415.639 -1.38822 8.06642 0
M  V30 4247 N 418.302 -1.35869 -0.798587 0
M  V30 4248 C 419.579 -1.20145 -1.54352 0
M  V30 4249 C 419.959 0.216161 -2.0999 0
M  V30 4250 O 419.307 1.22068 -1.93162 0
M  V30 4251 C 419.517 -2.27602 -2.64572 0
M  V30 4252 C 420.865 -2.63811 -3.32699 0
M  V30 4253 O 421.889 -2.26576 -2.74849 0
M  V30 4254 O 420.748 -3.27866 -4.37226 0
M  V30 4255 H 417.842 -0.467248 -0.682355 0
M  V30 4256 H 420.388 -1.47574 -0.837859 0
M  V30 4257 H 419.16 -3.2265 -2.21388 0
M  V30 4258 H 418.783 -2.01488 -3.42766 0
M  V30 4259 N 419.78 1.02168 -1.19998 0
M  V30 4260 C 421.191 1.57135 -1.00825 0
M  V30 4261 C 421.542 1.91276 0.436818 0
M  V30 4262 O 420.667 1.71679 1.3174 0
M  V30 4263 C 421.262 2.85514 -1.82393 0
M  V30 4264 C 419.821 3.37027 -1.67601 0
M  V30 4265 C 418.968 2.10388 -1.80644 0
M  V30 4266 H 421.919 0.846106 -1.34264 0
M  V30 4267 H 421.94 3.56711 -1.32429 0
M  V30 4268 H 421.452 2.60634 -2.87561 0
M  V30 4269 H 419.553 3.66878 -0.650485 0
M  V30 4270 H 419.666 4.09572 -2.4857 0
M  V30 4271 H 418.03 2.22601 -1.23778 0
M  V30 4272 H 418.813 1.8794 -2.87286 0
M  V30 4273 N 421.258 1.00505 1.21394 0
M  V30 4274 C 422.506 0.686415 1.90086 0
M  V30 4275 C 422.827 -0.785264 1.7849 0
M  V30 4276 O 422.097 -1.56387 1.17983 0
M  V30 4277 H 420.677 0.2509 0.703604 0
M  V30 4278 H 423.339 1.27417 1.47482 0
M  V30 4279 H 422.435 0.959621 2.96981 0
M  V30 4280 N 422.737 -1.36956 0.779787 0
M  V30 4281 C 423.669 -2.28833 0.129639 0
M  V30 4282 C 424.682 -1.4902 -0.655511 0
M  V30 4283 O 425.871 -1.71578 -0.492279 0
M  V30 4284 C 422.971 -3.2833 -0.839792 0
M  V30 4285 C 422.144 -4.3727 -0.10675 0
M  V30 4286 C 421.203 -5.16789 -0.990717 0
M  V30 4287 O 420.229 -5.67406 -0.451516 0
M  V30 4288 N 421.431 -5.32294 -2.3161 0
M  V30 4289 H 424.196 -2.85268 0.918803 0
M  V30 4290 H 421.757 -1.49019 0.632841 0
M  V30 4291 H 423.749 -3.78413 -1.43477 0
M  V30 4292 H 422.319 -2.72605 -1.52988 0
M  V30 4293 H 421.539 -3.88478 0.669216 0
M  V30 4294 H 422.827 -5.07229 0.399464 0
M  V30 4295 H 422.225 -4.92768 -2.77843 0
M  V30 4296 H 420.782 -5.85656 -2.86095 0
M  V30 4297 N 424.215 -0.530993 -1.48385 0
M  V30 4298 C 425.445 -0.00133928 -2.066 0
M  V30 4299 C 425.853 1.28599 -1.38777 0
M  V30 4300 O 425.196 1.77599 -0.469495 0
M  V30 4301 C 425.258 0.292137 -3.58311 0
M  V30 4302 C 424.922 -0.901864 -4.48013 0
M  V30 4303 C 425.919 -1.80053 -4.87726 0
M  V30 4304 C 423.604 -1.10915 -4.89901 0
M  V30 4305 C 425.598 -2.89038 -5.68098 0
M  V30 4306 C 423.285 -2.20213 -5.70043 0
M  V30 4307 C 424.283 -3.09107 -6.0905 0
M  V30 4308 O 423.971 -4.16514 -6.87583 0
M  V30 4309 H 423.703 -0.0308475 -0.675296 0
M  V30 4310 H 426.257 -0.736335 -1.91748 0
M  V30 4311 H 424.487 1.08112 -3.7128 0
M  V30 4312 H 426.176 0.763994 -3.98645 0
M  V30 4313 H 426.942 -1.65234 -4.55986 0
M  V30 4314 H 422.821 -0.426498 -4.59023 0
M  V30 4315 H 426.365 -3.58451 -5.98464 0
M  V30 4316 H 422.262 -2.35016 -6.01197 0
M  V30 4317 H 423.03 -4.14237 -7.05939 0
M  V30 4318 N 425.693 1.55336 -0.266172 0
M  V30 4319 C 426.623 2.25146 0.618981 0
M  V30 4320 C 427.604 1.23845 1.16604 0
M  V30 4321 O 428.789 1.52544 1.20183 0
M  V30 4322 C 425.919 2.96572 1.80728 0
M  V30 4323 C 424.873 4.04726 1.39215 0
M  V30 4324 C 424.199 4.63678 2.66283 0
M  V30 4325 C 425.499 5.19407 0.548942 0
M  V30 4326 H 427.193 2.99377 0.0368116 0
M  V30 4327 H 424.739 1.43991 0.0162651 0
M  V30 4328 H 426.692 3.44116 2.43232 0
M  V30 4329 H 425.416 2.19861 2.41514 0
M  V30 4330 H 424.075 3.57979 0.790351 0
M  V30 4331 H 423.723 3.83646 3.25308 0
M  V30 4332 H 423.423 5.367 2.39222 0
M  V30 4333 H 424.947 5.13967 3.29651 0
M  V30 4334 H 426.361 5.63059 1.07876 0
M  V30 4335 H 424.758 5.98936 0.373593 0
M  V30 4336 H 425.828 4.8295 -0.434394 0
M  V30 4337 N 427.171 -0.0066808 1.57599 0
M  V30 4338 C 428.118 -1.00024 2.08 0
M  V30 4339 C 429.088 -1.34549 0.973943 0
M  V30 4340 O 430.273 -1.44502 1.24595 0
M  V30 4341 C 427.413 -2.2891 2.58252 0
M  V30 4342 C 426.526 -2.00346 3.82734 0
M  V30 4343 C 425.661 -3.23265 4.21513 0
M  V30 4344 C 424.7 -2.90357 5.3885 0
M  V30 4345 N 423.837 -4.05793 5.72954 0
M  V30 4346 H 428.677 -0.563499 2.92624 0
M  V30 4347 H 426.214 -0.266592 1.44664 0
M  V30 4348 H 428.172 -3.04247 2.85464 0
M  V30 4349 H 426.802 -2.70265 1.76512 0
M  V30 4350 H 425.854 -1.15406 3.62471 0
M  V30 4351 H 427.166 -1.72086 4.68175 0
M  V30 4352 H 426.32 -4.06953 4.49971 0
M  V30 4353 H 425.059 -3.54657 3.34768 0
M  V30 4354 H 424.064 -2.05075 5.10122 0
M  V30 4355 H 425.289 -2.60219 6.27266 0
M  V30 4356 H 423.235 -4.37094 4.89167 0
M  V30 4357 H 423.152 -3.81034 6.52954 0
M  V30 4358 H 424.42 -4.90289 6.06001 0
M  V30 4359 N 428.649 -1.55105 -0.279332 0
M  V30 4360 C 430.06 -1.66186 -0.850832 0
M  V30 4361 C 430.411 -0.584707 -1.87285 0
M  V30 4362 O 429.536 0.274919 -2.14647 0
M  V30 4363 C 430.131 -3.01264 -1.55001 0
M  V30 4364 C 428.69 -3.14394 -2.06963 0
M  V30 4365 C 427.837 -2.61959 -0.909536 0
M  V30 4366 H 430.788 -1.58602 -0.0558235 0
M  V30 4367 H 430.809 -2.93899 -2.41669 0
M  V30 4368 H 430.321 -3.7964 -0.805931 0
M  V30 4369 H 428.422 -2.4078 -2.84352 0
M  V30 4370 H 428.535 -4.20867 -2.28928 0
M  V30 4371 H 426.899 -2.18957 -1.30116 0
M  V30 4372 H 427.682 -3.42833 -0.179062 0
M  V30 4373 N 430.127 0.543554 -1.4793 0
M  V30 4374 C 431.375 1.29752 -1.54948 0
M  V30 4375 C 431.696 1.93764 -0.219242 0
M  V30 4376 O 430.966 1.80639 0.75805 0
M  V30 4377 H 429.546 0.481874 -0.570795 0
M  V30 4378 H 432.208 0.633636 -1.84312 0
M  V30 4379 H 431.304 2.08392 -2.32334 0
M  V30 4380 N 431.605 1.3629 0.791371 0
M  V30 4381 C 432.833 1.33562 1.58016 0
M  V30 4382 C 433.248 -0.0835616 1.88615 0
M  V30 4383 O 432.605 -1.0399 1.49974 0
M  V30 4384 C 432.656 2.15517 2.90232 0
M  V30 4385 O 432.377 3.51902 2.60953 0
M  V30 4386 C 433.878 2.20546 3.84544 0
M  V30 4387 H 431.098 0.458226 0.490173 0
M  V30 4388 H 433.642 1.79361 0.982345 0
M  V30 4389 H 431.797 1.73278 3.46487 0
M  V30 4390 H 432.211 3.94644 3.4548 0
M  V30 4391 H 433.685 2.82252 4.74382 0
M  V30 4392 H 434.162 1.20838 4.2225 0
M  V30 4393 H 434.768 2.63013 3.34222 0
M  V30 4394 N 433.083 -1.0153 1.20538 0
M  V30 4395 C 434.499 -1.27461 0.96051 0
M  V30 4396 C 434.699 -1.98273 -0.359193 0
M  V30 4397 O 433.755 -2.27886 -1.0874 0
M  V30 4398 C 435.068 -2.10837 2.14402 0
M  V30 4399 C 436.616 -2.24099 2.18515 0
M  V30 4400 C 437.091 -3.10852 3.36355 0
M  V30 4401 N 438.582 -3.18441 3.36377 0
M  V30 4402 C 439.317 -3.85795 4.24205 0
M  V30 4403 N 438.813 -4.55264 5.22213 0
M  V30 4404 N 440.606 -3.82331 4.12043 0
M  V30 4405 H 432.757 -0.539907 2.05423 0
M  V30 4406 H 435.02 -0.30092 0.898972 0
M  V30 4407 H 434.726 -1.66144 3.09983 0
M  V30 4408 H 434.6 -3.11576 2.12604 0
M  V30 4409 H 436.987 -2.68016 1.23497 0
M  V30 4410 H 437.068 -1.22865 2.24361 0
M  V30 4411 H 436.712 -2.6764 4.31661 0
M  V30 4412 H 436.642 -4.12177 3.27746 0
M  V30 4413 H 439.133 -2.68978 2.65442 0
M  V30 4414 H 439.446 -5.04331 5.85551 0
M  V30 4415 H 437.791 -4.54085 5.26148 0
M  V30 4416 H 440.982 -3.27207 3.34743 0
M  V30 4417 H 441.155 -4.34547 4.807 0
M  V30 4418 N 434.561 -1.01147 -1.20859 0
M  V30 4419 C 435.491 -0.597663 -2.25722 0
M  V30 4420 C 436.472 0.384744 -1.65692 0
M  V30 4421 O 437.657 0.271303 -1.92296 0
M  V30 4422 C 434.787 0.0700149 -3.47229 0
M  V30 4423 C 433.741 -0.832843 -4.19819 0
M  V30 4424 C 433.067 -0.0312202 -5.34691 0
M  V30 4425 C 434.367 -2.1385 -4.76514 0
M  V30 4426 H 436.061 -1.47423 -2.60589 0
M  V30 4427 H 433.607 -0.710301 -1.25263 0
M  V30 4428 H 435.56 0.37103 -4.19763 0
M  V30 4429 H 434.284 0.981259 -3.11511 0
M  V30 4430 H 432.943 -1.11778 -3.49144 0
M  V30 4431 H 432.591 0.881515 -4.95215 0
M  V30 4432 H 432.291 -0.632434 -5.84187 0
M  V30 4433 H 433.815 0.26346 -6.10031 0
M  V30 4434 H 435.229 -1.9002 -5.40893 0
M  V30 4435 H 433.626 -2.69012 -5.36426 0
M  V30 4436 H 434.696 -2.80495 -3.95538 0
M  V30 4437 N 436.039 1.36541 -0.78704 0
M  V30 4438 C 437.288 1.98552 -0.35494 0
M  V30 4439 C 437.601 1.63171 1.07864 0
M  V30 4440 O 438.807 2.18399 1.61289 0
M  V30 4441 C 437.263 3.55136 -0.583671 0
M  V30 4442 C 436.871 3.99444 -2.02851 0
M  V30 4443 C 438.615 4.2395 -0.215957 0
M  V30 4444 C 436.522 5.48796 -2.20403 0
M  V30 4445 H 435.452 0.742888 -0.128972 0
M  V30 4446 H 438.103 1.5587 -0.968337 0
M  V30 4447 H 436.485 3.95875 0.0994046 0
M  V30 4448 H 437.659 3.6991 -2.74779 0
M  V30 4449 H 435.974 3.43459 -2.35425 0
M  V30 4450 H 438.571 5.33709 -0.325405 0
M  V30 4451 H 438.914 4.07827 0.835646 0
M  V30 4452 H 439.447 3.88565 -0.852175 0
M  V30 4453 H 436.186 5.69864 -3.23937 0
M  V30 4454 H 435.706 5.79964 -1.52977 0
M  V30 4455 H 437.385 6.14986 -2.01002 0
M  V30 4456 N 437.518 0.538854 1.48102 0
M  V30 4457 C 438.743 0.0102694 2.07397 0
M  V30 4458 C 439.168 -1.26562 1.39153 0
M  V30 4459 O 438.526 -1.75357 0.460387 0
M  V30 4460 C 438.574 -0.187602 3.60112 0
M  V30 4461 O 437.678 -1.25432 3.92862 0
M  V30 4462 H 437.019 0.0430975 0.6626 0
M  V30 4463 H 439.549 0.749301 1.90385 0
M  V30 4464 H 439.559 -0.407517 4.0596 0
M  V30 4465 H 438.234 0.744386 4.09184 0
M  V30 4466 H 436.811 -1.01636 3.58782 0
M  V30 4467 N 438.996 -1.55193 0.274407 0
M  V30 4468 C 440.242 -1.99877 -0.343086 0
M  V30 4469 C 440.575 -1.16256 -1.55558 0
M  V30 4470 O 439.85 -0.232462 -1.93106 0
M  V30 4471 C 440.133 -3.52706 -0.725965 0
M  V30 4472 C 439.986 -4.47081 0.493818 0
M  V30 4473 C 441.305 -4.11422 -1.56268 0
M  V30 4474 H 438.424 -0.726625 -0.123229 0
M  V30 4475 H 441.066 -1.86136 0.38121 0
M  V30 4476 H 439.216 -3.64546 -1.34307 0
M  V30 4477 H 440.888 -4.47186 1.13237 0
M  V30 4478 H 439.131 -4.1877 1.13201 0
M  V30 4479 H 439.802 -5.51699 0.18217 0
M  V30 4480 H 442.278 -4.02855 -1.04151 0
M  V30 4481 H 441.154 -5.18568 -1.79939 0
M  V30 4482 H 441.415 -3.61607 -2.54348 0
M  V30 4483 N 440.474 -0.00167713 -1.576 0
M  V30 4484 C 441.702 0.693759 -1.94922 0
M  V30 4485 C 442.117 1.67215 -0.876626 0
M  V30 4486 O 441.474 1.81929 0.144279 0
M  V30 4487 C 441.525 1.42416 -3.32265 0
M  V30 4488 O 441.246 0.485014 -4.35407 0
M  V30 4489 C 442.747 2.21395 -3.84056 0
M  V30 4490 H 439.967 0.193118 -0.642609 0
M  V30 4491 H 442.511 -0.0532952 -2.04431 0
M  V30 4492 H 440.666 2.12284 -3.24059 0
M  V30 4493 H 441.08 1.00053 -5.14868 0
M  V30 4494 H 442.554 2.67996 -4.82578 0
M  V30 4495 H 443.031 3.04142 -3.16851 0
M  V30 4496 H 443.637 1.56542 -3.95443 0
M  V30 4497 N 441.952 1.55251 0.271103 0
M  V30 4498 C 443.192 1.77698 1.01008 0
M  V30 4499 C 443.556 0.567246 1.83429 0
M  V30 4500 O 444.757 0.670013 2.60316 0
M  V30 4501 C 443.028 3.04715 1.86772 0
M  V30 4502 S 444.587 3.48289 2.66909 0
M  V30 4503 H 441.405 0.624343 0.340172 0
M  V30 4504 H 444.007 1.9348 0.280315 0
M  V30 4505 H 442.711 3.90853 1.25149 0
M  V30 4506 H 442.242 2.91604 2.64066 0
M  V30 4507 H 444.257 3.07712 3.89266 0
M  V30 4508 N 443.43 -0.535701 1.48216 0
M  V30 4509 C 444.707 -1.29683 1.46429 0
M  V30 4510 C 445.087 -2.10391 0.172852 0
M  V30 4511 O 444.435 -2.12282 -0.845488 0
M  V30 4512 C 444.645 -2.18313 2.72287 0
M  V30 4513 C 445.993 -2.78639 3.20383 0
M  V30 4514 O 447.017 -2.28604 2.73164 0
M  V30 4515 O 445.876 -3.69636 4.02531 0
M  V30 4516 H 442.97 -0.585026 0.584529 0
M  V30 4517 H 445.516 -0.552827 1.60443 0
M  V30 4518 H 444.288 -1.58421 3.57797 0
M  V30 4519 H 443.911 -2.99971 2.60966 0
M  V30 4520 N 444.908 -1.36708 -0.784132 0
M  V30 4521 C 446.319 -1.27947 -1.35965 0
M  V30 4522 C 446.67 0.0784013 -1.96043 0
M  V30 4523 O 445.795 0.979989 -1.92938 0
M  V30 4524 C 446.39 -2.31689 -2.47195 0
M  V30 4525 C 444.949 -2.26601 -3.00548 0
M  V30 4526 C 444.096 -2.16184 -1.73666 0
M  V30 4527 H 447.047 -1.4751 -0.585358 0
M  V30 4528 H 447.068 -1.95638 -3.26352 0
M  V30 4529 H 446.58 -3.30506 -2.03439 0
M  V30 4530 H 444.681 -1.31268 -3.48711 0
M  V30 4531 H 444.794 -3.19508 -3.57004 0
M  V30 4532 H 443.158 -1.62524 -1.96107 0
M  V30 4533 H 443.941 -3.16896 -1.32031 0
M  V30 4534 N 446.386 1.0089 -1.21074 0
M  V30 4535 C 447.316 2.1145 -0.990523 0
M  V30 4536 C 448.297 1.69897 0.0831699 0
M  V30 4537 O 449.482 1.94052 -0.0758853 0
M  V30 4538 C 446.612 3.42914 -0.550177 0
M  V30 4539 C 445.566 3.98244 -1.56799 0
M  V30 4540 C 444.892 5.25568 -0.984013 0
M  V30 4541 C 446.192 4.30752 -2.95381 0
M  V30 4542 H 447.886 2.3013 -1.91521 0
M  V30 4543 H 445.432 1.10592 -0.92225 0
M  V30 4544 H 447.385 4.19653 -0.383305 0
M  V30 4545 H 446.109 3.24014 0.41015 0
M  V30 4546 H 444.768 3.23621 -1.72236 0
M  V30 4547 H 444.416 5.02998 -0.0155216 0
M  V30 4548 H 444.116 5.63551 -1.66384 0
M  V30 4549 H 445.64 6.04955 -0.828378 0
M  V30 4550 H 447.054 4.98349 -2.8341 0
M  V30 4551 H 445.451 4.79869 -3.60341 0
M  V30 4552 H 446.521 3.39192 -3.46521 0
M  V30 4553 N 447.864 1.01787 1.20321 0
M  V30 4554 C 448.774 0.598898 2.26827 0
M  V30 4555 C 449.79 -0.36418 1.70146 0
M  V30 4556 O 450.966 -0.224812 2.00141 0
M  V30 4557 C 448.031 -0.0549769 3.46656 0
M  V30 4558 C 447.092 0.954205 4.18561 0
M  V30 4559 C 446.325 0.331439 5.3267 0
M  V30 4560 O 446.548 -0.86851 5.63749 0
M  V30 4561 O 445.482 1.0488 5.92692 0
M  V30 4562 H 449.308 1.48562 2.64883 0
M  V30 4563 H 446.893 0.787434 1.26964 0
M  V30 4564 H 448.775 -0.420102 4.19301 0
M  V30 4565 H 447.45 -0.915876 3.10473 0
M  V30 4566 H 446.357 1.37072 3.48083 0
M  V30 4567 H 447.69 1.78511 4.58688 0
M  V30 4568 N 449.342 -1.36122 0.79427 0
M  V30 4569 C 450.305 -2.28309 0.201889 0
M  V30 4570 C 451.305 -1.49041 -0.603603 0
M  V30 4571 O 452.495 -1.68964 -0.423888 0
M  V30 4572 C 449.627 -3.3321 -0.719978 0
M  V30 4573 H 450.82 -2.82208 1.01481 0
M  V30 4574 H 448.373 -1.45768 0.564037 0
M  V30 4575 H 449.108 -2.84475 -1.55706 0
M  V30 4576 H 448.893 -3.91835 -0.144266 0
M  V30 4577 H 450.383 -4.02044 -1.12916 0
M  V30 4578 N 450.82 -0.546701 -1.47814 0
M  V30 4579 C 451.783 0.196287 -2.28358 0
M  V30 4580 C 452.783 0.852437 -1.36346 0
M  V30 4581 O 453.973 0.709913 -1.59078 0
M  V30 4582 C 451.105 1.28579 -3.15722 0
M  V30 4583 H 452.298 -0.511086 -2.95513 0
M  V30 4584 H 449.851 -0.303248 -1.5333 0
M  V30 4585 H 450.586 2.0259 -2.53235 0
M  V30 4586 H 450.371 0.820229 -3.83425 0
M  V30 4587 H 451.861 1.80793 -3.76435 0
M  V30 4588 N 452.299 1.55045 -0.282633 0
M  V30 4589 C 453.715 1.59441 0.0712997 0
M  V30 4590 C 453.915 1.2998 1.53972 0
M  V30 4591 O 452.971 1.06431 2.28973 0
M  V30 4592 C 454.284 2.99097 -0.310104 0
M  V30 4593 C 455.832 3.1194 -0.257343 0
M  V30 4594 C 456.307 4.53875 -0.613297 0
M  V30 4595 N 457.798 4.5974 -0.565134 0
M  V30 4596 C 458.533 5.67603 -0.81326 0
M  V30 4597 N 458.029 6.83582 -1.1264 0
M  V30 4598 N 459.822 5.57187 -0.741553 0
M  V30 4599 H 451.973 1.72458 -1.23984 0
M  V30 4600 H 454.236 0.804549 -0.501403 0
M  V30 4601 H 453.942 3.25516 -1.33163 0
M  V30 4602 H 453.816 3.75616 0.345366 0
M  V30 4603 H 456.203 2.85281 0.754905 0
M  V30 4604 H 456.284 2.37618 -0.947178 0
M  V30 4605 H 455.928 4.81261 -1.62327 0
M  V30 4606 H 455.858 5.26508 0.09841 0
M  V30 4607 H 458.349 3.76427 -0.333294 0
M  V30 4608 H 458.662 7.6175 -1.30219 0
M  V30 4609 H 457.007 6.85179 -1.16425 0
M  V30 4610 H 460.198 4.65457 -0.496705 0
M  V30 4611 H 460.371 6.41171 -0.938306 0
M  V30 4612 N 453.777 0.010035 1.57597 0
M  V30 4613 C 454.74 -0.963029 2.07986 0
M  V30 4614 C 455.74 -1.26619 0.991173 0
M  V30 4615 O 456.93 -1.2097 1.25347 0
M  V30 4616 C 454.062 -2.2851 2.52974 0
M  V30 4617 H 455.255 -0.526971 2.95234 0
M  V30 4618 H 452.808 -0.237639 1.54483 0
M  V30 4619 H 453.543 -2.76784 1.69 0
M  V30 4620 H 453.328 -2.07824 3.32493 0
M  V30 4621 H 454.818 -2.98294 2.9225 0
M  V30 4622 N 455.255 -1.55392 -0.262866 0
M  V30 4623 C 456.666 -1.67079 -0.833158 0
M  V30 4624 C 457.017 -0.604539 -1.86654 0
M  V30 4625 O 456.142 0.252138 -2.14926 0
M  V30 4626 C 456.737 -3.02891 -1.51797 0
M  V30 4627 C 455.296 -3.16571 -2.03617 0
M  V30 4628 C 454.443 -2.62909 -0.881701 0
M  V30 4629 H 457.394 -1.58652 -0.0389986 0
M  V30 4630 H 457.415 -2.96445 -2.38538 0
M  V30 4631 H 456.927 -3.80473 -0.765619 0
M  V30 4632 H 455.028 -2.43782 -2.81782 0
M  V30 4633 H 455.141 -4.23271 -2.24452 0
M  V30 4634 H 453.505 -2.20324 -1.27786 0
M  V30 4635 H 454.288 -3.43003 -0.14269 0
M  V30 4636 N 456.733 0.527833 -1.48498 0
M  V30 4637 C 457.666 1.64892 -1.57753 0
M  V30 4638 C 458.644 1.5687 -0.427867 0
M  V30 4639 O 459.828 1.77311 -0.639764 0
M  V30 4640 C 456.955 3.03301 -1.50752 0
M  V30 4641 C 456.001 3.29675 -2.70586 0
M  V30 4642 S 456.834 3.15712 -4.32535 0
M  V30 4643 C 457.99 4.56564 -4.28136 0
M  V30 4644 H 458.223 1.56792 -2.52594 0
M  V30 4645 H 455.756 0.710959 -1.37057 0
M  V30 4646 H 457.714 3.83123 -1.474 0
M  V30 4647 H 456.375 3.08839 -0.572454 0
M  V30 4648 H 455.568 4.3065 -2.61833 0
M  V30 4649 H 455.17 2.57526 -2.71212 0
M  V30 4650 H 457.462 5.48126 -3.98201 0
M  V30 4651 H 458.405 4.70371 -5.29298 0
M  V30 4652 H 458.813 4.35987 -3.58574 0
M  V30 4653 N 458.211 1.37122 0.776871 0
M  V30 4654 C 459.459 1.31787 1.53221 0
M  V30 4655 C 459.78 -0.0987589 1.9475 0
M  V30 4656 O 459.05 -1.0417 1.65908 0
M  V30 4657 H 457.63 0.484839 0.568278 0
M  V30 4658 H 460.292 1.71556 0.924917 0
M  V30 4659 H 459.388 1.95355 2.43398 0
M  V30 4660 N 459.689 -1.00246 1.21608 0
M  V30 4661 C 460.966 -1.71336 0.943568 0
M  V30 4662 C 461.346 -2.03972 -0.543943 0
M  V30 4663 O 460.694 -1.71545 -1.50946 0
M  V30 4664 C 460.904 -2.97094 1.83128 0
M  V30 4665 C 462.252 -3.70071 2.08165 0
M  V30 4666 O 463.276 -3.07081 1.80498 0
M  V30 4667 O 462.135 -4.83376 2.54971 0
M  V30 4668 H 459.229 -0.747386 0.354039 0
M  V30 4669 H 461.775 -1.05967 1.32549 0
M  V30 4670 H 460.547 -2.69407 2.83788 0
M  V30 4671 H 460.17 -3.70204 1.45034 0
M  V30 4672 N 461.167 -1.02423 -1.1978 0
M  V30 4673 C 462.13 -0.605703 -2.21052 0
M  V30 4674 C 463.13 0.328209 -1.57415 0
M  V30 4675 O 464.32 0.115853 -1.73814 0
M  V30 4676 C 461.452 0.114366 -3.40708 0
M  V30 4677 H 462.645 -1.5017 -2.59594 0
M  V30 4678 H 460.198 -0.814888 -1.33376 0
M  V30 4679 H 460.933 1.02492 -3.07678 0
M  V30 4680 H 460.718 -0.556641 -3.88129 0
M  V30 4681 H 462.208 0.394272 -4.15735 0
M  V30 4682 N 462.645 1.35699 -0.801477 0
M  V30 4683 C 463.894 1.98165 -0.375979 0
M  V30 4684 C 464.207 1.64306 1.06127 0
M  V30 4685 O 465.413 2.20097 1.58964 0
M  V30 4686 C 463.869 3.54497 -0.621305 0
M  V30 4687 C 463.477 3.9727 -2.07076 0
M  V30 4688 C 465.221 4.23697 -0.26091 0
M  V30 4689 C 463.128 5.46427 -2.26211 0
M  V30 4690 H 462.058 0.741478 -0.136844 0
M  V30 4691 H 464.709 1.54834 -0.984814 0
M  V30 4692 H 463.091 3.95958 0.0574112 0
M  V30 4693 H 464.265 3.66974 -2.78687 0
M  V30 4694 H 462.58 3.40943 -2.39054 0
M  V30 4695 H 465.177 5.33334 -0.381994 0
M  V30 4696 H 465.52 4.0869 0.792344 0
M  V30 4697 H 466.053 3.87639 -0.893339 0
M  V30 4698 H 462.792 5.66396 -3.29963 0
M  V30 4699 H 462.312 5.78309 -1.59119 0
M  V30 4700 H 463.991 6.12819 -2.07513 0
M  V30 4701 N 464.123 0.554532 1.47522 0
M  V30 4702 C 465.369 0.0295227 2.02779 0
M  V30 4703 C 465.702 -1.31582 1.42828 0
M  V30 4704 O 464.977 -1.85561 0.582872 0
M  V30 4705 C 465.26 -0.0664057 3.60039 0
M  V30 4706 C 465.113 1.30585 4.30427 0
M  V30 4707 C 466.432 -0.781162 4.33112 0
M  V30 4708 H 463.551 0.0122027 0.736899 0
M  V30 4709 H 466.193 0.716305 1.7598 0
M  V30 4710 H 464.343 -0.651307 3.83002 0
M  V30 4711 H 466.015 1.93374 4.18813 0
M  V30 4712 H 464.258 1.88125 3.90886 0
M  V30 4713 H 464.929 1.19147 5.38988 0
M  V30 4714 H 467.405 -0.284565 4.15126 0
M  V30 4715 H 466.281 -0.817237 5.42782 0
M  V30 4716 H 466.542 -1.83672 4.0214 0
M  V30 4717 N 465.601 -1.54893 0.290851 0
M  V30 4718 C 466.564 -2.21824 -0.576784 0
M  V30 4719 C 467.564 -1.20104 -1.06919 0
M  V30 4720 O 468.754 -1.44906 -0.966843 0
M  V30 4721 C 465.886 -2.89662 -1.79747 0
M  V30 4722 H 467.079 -2.99899 0.00784051 0
M  V30 4723 H 464.632 -1.56245 0.0415934 0
M  V30 4724 H 465.367 -2.15639 -2.42219 0
M  V30 4725 H 465.152 -3.64219 -1.45214 0
M  V30 4726 H 466.642 -3.4075 -2.4141 0
M  V30 4727 N 467.08 -0.0183926 -1.57589 0
M  V30 4728 C 468.357 0.700621 -1.82622 0
M  V30 4729 C 468.737 1.90951 -0.90005 0
M  V30 4730 O 468.085 2.28452 0.0469145 0
M  V30 4731 C 468.295 1.08899 -3.31575 0
M  V30 4732 C 469.643 1.48514 -3.9778 0
M  V30 4733 O 470.667 1.18227 -3.36007 0
M  V30 4734 O 469.526 2.04903 -5.06633 0
M  V30 4735 H 466.62 0.342743 -0.752633 0
M  V30 4736 H 469.166 -0.0452548 -1.6964 0
M  V30 4737 H 467.938 0.228113 -3.90635 0
M  V30 4738 H 467.561 1.89338 -3.49624 0
M  V30 4739 N 468.558 1.5553 0.254621 0
M  V30 4740 C 469.807 1.76202 0.981612 0
M  V30 4741 C 470.12 0.580883 1.86776 0
M  V30 4742 O 471.326 0.670448 2.63092 0
M  V30 4743 C 469.782 3.11921 1.79537 0
M  V30 4744 C 469.39 4.37659 0.956991 0
M  V30 4745 C 471.134 3.41936 2.51555 0
M  V30 4746 C 469.041 5.64411 1.76619 0
M  V30 4747 H 467.971 0.656841 0.370237 0
M  V30 4748 H 470.622 1.81969 0.236556 0
M  V30 4749 H 469.004 3.00241 2.58208 0
M  V30 4750 H 470.178 4.60307 0.21315 0
M  V30 4751 H 468.493 4.14922 0.350497 0
M  V30 4752 H 471.09 4.33849 3.12536 0
M  V30 4753 H 471.433 2.62905 3.22779 0
M  V30 4754 H 471.966 3.54797 1.799 0
M  V30 4755 H 468.705 6.46241 1.09783 0
M  V30 4756 H 468.225 5.45877 2.48551 0
M  V30 4757 H 469.904 6.03386 2.33527 0
M  V30 4758 N 470.036 -0.519951 1.48776 0
M  V30 4759 C 471.284 -1.2727 1.56993 0
M  V30 4760 C 471.605 -1.9339 0.25004 0
M  V30 4761 O 470.875 -1.81822 -0.729216 0
M  V30 4762 H 469.455 -0.472732 0.578389 0
M  V30 4763 H 472.117 -0.604234 1.85297 0
M  V30 4764 H 471.213 -2.04669 2.3562 0
M  V30 4765 N 471.514 -1.37532 -0.769588 0
M  V30 4766 C 472.477 -1.33292 -1.86456 0
M  V30 4767 C 473.477 -0.236537 -1.59051 0
M  V30 4768 O 474.667 -0.492511 -1.67093 0
M  V30 4769 C 471.799 -1.07118 -3.23633 0
M  V30 4770 H 472.992 -2.30692 -1.91628 0
M  V30 4771 H 470.545 -1.22593 -0.969572 0
M  V30 4772 H 471.28 -0.102578 -3.24138 0
M  V30 4773 H 471.065 -1.86479 -3.44917 0
M  V30 4774 H 472.555 -1.06806 -4.03711 0
M  V30 4775 N 472.992 0.995999 -1.22138 0
M  V30 4776 C 473.925 2.08302 -0.931952 0
M  V30 4777 C 474.903 1.62127 0.123956 0
M  V30 4778 O 476.087 1.88499 -0.00696004 0
M  V30 4779 C 473.214 3.36317 -0.401068 0
M  V30 4780 C 472.26 4.01413 -1.44117 0
M  V30 4781 S 473.093 4.42664 -3.01345 0
M  V30 4782 C 474.249 5.73853 -2.49887 0
M  V30 4783 H 474.482 2.32532 -1.85246 0
M  V30 4784 H 472.015 1.13005 -1.0521 0
M  V30 4785 H 473.973 4.10375 -0.101352 0
M  V30 4786 H 472.634 3.10123 0.498272 0
M  V30 4787 H 471.827 4.9358 -1.01952 0
M  V30 4788 H 471.429 3.33668 -1.68943 0
M  V30 4789 H 473.721 6.50039 -1.90934 0
M  V30 4790 H 474.664 6.20841 -3.40532 0
M  V30 4791 H 475.072 5.31105 -1.9128 0
M  V30 4792 N 474.47 1.03057 1.19235 0
M  V30 4793 C 475.433 0.617418 2.20727 0
M  V30 4794 C 476.433 -0.319856 1.57587 0
M  V30 4795 O 477.623 -0.106633 1.73873 0
M  V30 4796 C 474.755 -0.096296 3.40764 0
M  V30 4797 H 475.948 1.51544 2.58794 0
M  V30 4798 H 473.501 0.821949 1.32942 0
M  V30 4799 H 474.236 -1.00859 3.08217 0
M  V30 4800 H 474.021 0.577217 3.87828 0
M  V30 4801 H 475.511 -0.372219 4.15938 0
M  V30 4802 N 475.948 -1.35272 0.808662 0
M  V30 4803 C 477.173 -2.03477 0.401475 0
M  V30 4804 C 477.598 -1.60537 -0.980279 0
M  V30 4805 O 476.956 -0.78304 -1.63518 0
M  V30 4806 C 477.004 -3.57181 0.495354 0
M  V30 4807 O 476.108 -4.09474 -0.490397 0
M  V30 4808 H 475.449 -0.642561 0.167366 0
M  V30 4809 H 477.979 -1.72824 1.09512 0
M  V30 4810 H 477.989 -4.06356 0.365912 0
M  V30 4811 H 476.664 -3.87784 1.5032 0
M  V30 4812 H 475.241 -3.71516 -0.321023 0
M  V30 4813 N 477.426 -0.562348 -1.47226 0
M  V30 4814 C 478.389 0.172056 -2.28553 0
M  V30 4815 C 479.389 0.837928 -1.37242 0
M  V30 4816 O 480.579 0.693001 -1.59822 0
M  V30 4817 C 477.711 1.25223 -3.17068 0
M  V30 4818 H 478.904 -0.542401 -2.94954 0
M  V30 4819 H 476.457 -0.319493 -1.53 0
M  V30 4820 H 477.192 1.99892 -2.55369 0
M  V30 4821 H 476.977 0.779515 -3.84273 0
M  V30 4822 H 478.467 1.76791 -3.78332 0
M  V30 4823 N 478.904 1.54736 -0.299062 0
M  V30 4824 C 479.834 2.26409 0.571085 0
M  V30 4825 C 480.815 1.2629 1.13951 0
M  V30 4826 O 482 1.55059 1.16921 0
M  V30 4827 C 479.13 3.00338 1.74396 0
M  V30 4828 C 478.084 4.07588 1.30599 0
M  V30 4829 C 477.41 4.69222 2.56387 0
M  V30 4830 C 478.71 5.20455 0.438645 0
M  V30 4831 H 480.404 2.99388 -0.0266991 0
M  V30 4832 H 477.95 1.43993 -0.0142812 0
M  V30 4833 H 479.903 3.49198 2.35878 0
M  V30 4834 H 478.627 2.24934 2.36796 0
M  V30 4835 H 477.286 3.59575 0.71424 0
M  V30 4836 H 476.934 3.9046 3.17097 0
M  V30 4837 H 476.634 5.41653 2.27784 0
M  V30 4838 H 478.158 5.20844 3.18675 0
M  V30 4839 H 479.572 5.65221 0.959085 0
M  V30 4840 H 477.969 5.99594 0.246466 0
M  V30 4841 H 479.039 4.8192 -0.536738 0
M  V30 4842 N 480.382 0.0267497 1.57577 0
M  V30 4843 C 481.345 -0.940916 2.08996 0
M  V30 4844 C 482.345 -1.25561 1.00455 0
M  V30 4845 O 483.535 -1.19634 1.26623 0
M  V30 4846 C 480.667 -2.25814 2.55384 0
M  V30 4847 H 481.86 -0.495628 2.95776 0
M  V30 4848 H 479.413 -0.221241 1.54726 0
M  V30 4849 H 480.148 -2.74976 1.71926 0
M  V30 4850 H 479.933 -2.04285 3.34679 0
M  V30 4851 H 481.423 -2.95178 2.95398 0
M  V30 4852 N 481.861 -1.55662 -0.24637 0
M  V30 4853 C 482.809 -1.91186 -1.3248 0
M  V30 4854 C 483.803 -0.790996 -1.49799 0
M  V30 4855 O 485.009 -0.975617 -1.51267 0
M  V30 4856 H 481.384 -0.607207 -0.443626 0
M  V30 4857 H 483.355 -2.81221 -0.997853 0
M  V30 4858 C 482.104 -2.22349 -2.67313 0
M  V30 4859 H 481.427 -3.08097 -2.54786 0
M  V30 4860 H 482.867 -2.51107 -3.41645 0
M  V30 4861 C 481.326 -1.04001 -3.20446 0
M  V30 4862 O 481.856 -0.28828 -4.00664 0
M  V30 4863 N 480.062 -0.830494 -2.7848 0
M  V30 4864 H 479.609 -1.4435 -2.13356 0
M  V30 4865 H 479.567 -0.0403258 -3.14374 0
M  V30 4866 N 483.339 0.512053 -1.4905 0
M  V30 4867 C 484.269 1.62365 -1.67809 0
M  V30 4868 C 485.25 1.61737 -0.526809 0
M  V30 4869 O 486.435 1.78651 -0.761404 0
M  V30 4870 C 483.565 3.00895 -1.73435 0
M  V30 4871 C 482.519 3.16387 -2.88242 0
M  V30 4872 C 481.845 4.56157 -2.78971 0
M  V30 4873 C 483.145 2.97457 -4.29321 0
M  V30 4874 H 484.839 1.46921 -2.60873 0
M  V30 4875 H 482.385 0.705379 -1.2554 0
M  V30 4876 H 484.338 3.78549 -1.85145 0
M  V30 4877 H 483.062 3.17403 -0.769619 0
M  V30 4878 H 481.721 2.41155 -2.76116 0
M  V30 4879 H 481.369 4.69525 -1.8043 0
M  V30 4880 H 481.069 4.67465 -3.5602 0
M  V30 4881 H 482.593 5.35886 -2.92675 0
M  V30 4882 H 484.007 3.64888 -4.42187 0
M  V30 4883 H 482.404 3.20245 -5.07507 0
M  V30 4884 H 483.474 1.93692 -4.44535 0
M  V30 4885 N 484.817 1.37938 0.762283 0
M  V30 4886 C 486.063 1.33866 1.52341 0
M  V30 4887 C 486.396 -0.0738961 1.94059 0
M  V30 4888 O 485.671 -1.03326 1.64785 0
M  V30 4889 C 485.954 2.28644 2.78197 0
M  V30 4890 C 485.807 3.78722 2.42672 0
M  V30 4891 C 487.126 2.21702 3.80179 0
M  V30 4892 H 484.245 0.487593 0.55265 0
M  V30 4893 H 486.887 1.68717 0.873767 0
M  V30 4894 H 485.037 1.99055 3.33631 0
M  V30 4895 H 486.709 4.18948 1.93081 0
M  V30 4896 H 484.952 3.96827 1.75244 0
M  V30 4897 H 485.623 4.40486 3.3268 0
M  V30 4898 H 488.099 2.47805 3.34263 0
M  V30 4899 H 486.975 2.90143 4.65949 0
M  V30 4900 H 487.236 1.21301 4.25133 0
M  V30 4901 N 486.295 -0.989507 1.22664 0
M  V30 4902 C 487.205 -2.11449 1.01619 0
M  V30 4903 C 488.221 -1.73962 -0.036545 0
M  V30 4904 O 489.397 -2.00788 0.156924 0
M  V30 4905 C 486.462 -3.41465 0.600204 0
M  V30 4906 C 485.523 -3.93033 1.72695 0
M  V30 4907 C 484.756 -5.16844 1.33071 0
M  V30 4908 O 484.979 -5.7001 0.210975 0
M  V30 4909 O 483.913 -5.6225 2.14845 0
M  V30 4910 H 487.739 -2.32088 1.9588 0
M  V30 4911 H 485.324 -1.09823 1.01289 0
M  V30 4912 H 487.206 -4.19695 0.37873 0
M  V30 4913 H 485.881 -3.22178 -0.313511 0
M  V30 4914 H 484.788 -3.15961 2.00298 0
M  V30 4915 H 486.121 -4.16758 2.61865 0
M  V30 4916 N 487.773 -1.03688 -1.18687 0
M  V30 4917 C 488.683 -0.634908 -2.25845 0
M  V30 4918 C 489.699 0.337065 -1.70704 0
M  V30 4919 O 490.875 0.192943 -2.00474 0
M  V30 4920 C 487.94 -0.000180054 -3.467 0
M  V30 4921 C 487.001 -1.02067 -4.1699 0
M  V30 4922 C 486.234 -0.41614 -5.32075 0
M  V30 4923 O 486.457 0.778712 -5.65059 0
M  V30 4924 O 485.391 -1.14296 -5.90948 0
M  V30 4925 H 489.217 -1.52757 -2.62486 0
M  V30 4926 H 486.802 -0.807533 -1.25695 0
M  V30 4927 H 488.684 0.353342 -4.19916 0
M  V30 4928 H 487.359 0.866367 -3.11891 0
M  V30 4929 H 486.266 -1.42592 -3.45859 0
M  V30 4930 H 487.599 -1.85786 -4.5579 0
M  V30 4931 N 489.251 1.34841 -0.815825 0
M  V30 4932 C 490.476 2.03261 -0.41226 0
M  V30 4933 C 490.901 1.61055 0.971751 0
M  V30 4934 O 490.259 0.7917 1.63101 0
M  V30 4935 C 490.307 3.56914 -0.514289 0
M  V30 4936 O 489.411 4.09728 0.468675 0
M  V30 4937 H 488.752 0.641664 -0.170771 0
M  V30 4938 H 491.282 1.72241 -1.10427 0
M  V30 4939 H 491.292 4.06156 -0.387457 0
M  V30 4940 H 489.967 3.86982 -1.52375 0
M  V30 4941 H 488.544 3.71681 0.301316 0
M  V30 4942 N 490.729 0.570148 1.46925 0
M  V30 4943 C 491.954 0.0542592 2.07329 0
M  V30 4944 C 492.379 -1.23582 1.41806 0
M  V30 4945 O 491.737 -1.74341 0.497479 0
M  V30 4946 C 491.785 -0.111175 3.60429 0
M  V30 4947 O 490.889 -1.17071 3.95434 0
M  V30 4948 H 490.23 0.0571425 0.661537 0
M  V30 4949 H 492.76 0.789516 1.88753 0
M  V30 4950 H 492.77 -0.321315 4.06733 0
M  V30 4951 H 491.445 0.831012 4.07513 0
M  V30 4952 H 490.022 -0.940029 3.60857 0
M  V30 4953 N 492.207 -1.54576 0.307264 0
M  V30 4954 C 493.623 -1.59534 -0.0459251 0
M  V30 4955 C 493.823 -1.32414 -1.51884 0
M  V30 4956 O 492.879 -1.1006 -2.27251 0
M  V30 4957 C 494.192 -2.98566 0.357649 0
M  V30 4958 C 495.74 -3.11491 0.306937 0
M  V30 4959 C 496.215 -4.52842 0.685427 0
M  V30 4960 N 497.706 -4.58782 0.638203 0
M  V30 4961 C 498.441 -5.66238 0.903458 0
M  V30 4962 N 497.937 -6.81703 1.23501 0
M  V30 4963 N 499.73 -5.55937 0.830102 0
M  V30 4964 H 491.881 -1.70464 1.26712 0
M  V30 4965 H 494.144 -0.79647 0.514139 0
M  V30 4966 H 493.85 -3.23356 1.38325 0
M  V30 4967 H 493.724 -3.76117 -0.285565 0
M  V30 4968 H 496.111 -2.86446 -0.709424 0
M  V30 4969 H 496.192 -2.36081 0.984861 0
M  V30 4970 H 495.836 -4.78618 1.69963 0
M  V30 4971 H 495.766 -5.26598 -0.0146346 0
M  V30 4972 H 498.257 -3.75849 0.393138 0
M  V30 4973 H 498.57 -7.59582 1.42322 0
M  V30 4974 H 496.915 -6.8324 1.27311 0
M  V30 4975 H 500.106 -4.64608 0.570693 0
M  V30 4976 H 500.279 -6.39597 1.04019 0
M  V30 4977 N 493.685 -0.035106 -1.57561 0
M  V30 4978 C 494.617 0.973604 -2.07494 0
M  V30 4979 C 495.63 1.28504 -0.999534 0
M  V30 4980 O 496.819 1.24864 -1.27559 0
M  V30 4981 C 493.919 2.29945 -2.48955 0
M  V30 4982 C 493.092 2.1723 -3.79644 0
M  V30 4983 C 492.151 3.328 -4.07592 0
M  V30 4984 O 491.177 3.09418 -4.77754 0
M  V30 4985 N 492.379 4.56779 -3.58236 0
M  V30 4986 H 495.144 0.547525 -2.94656 0
M  V30 4987 H 492.705 0.151515 -1.61189 0
M  V30 4988 H 494.697 3.06097 -2.64739 0
M  V30 4989 H 493.267 2.64173 -1.67126 0
M  V30 4990 H 492.487 1.25768 -3.73599 0
M  V30 4991 H 493.775 2.05945 -4.65257 0
M  V30 4992 H 493.173 4.78668 -3.01485 0
M  V30 4993 H 491.73 5.30079 -3.79288 0
M  V30 4994 N 495.163 1.55791 0.238111 0
M  V30 4995 C 496.093 1.94068 1.29846 0
M  V30 4996 C 497.074 0.806726 1.49753 0
M  V30 4997 O 498.259 1.06772 1.62214 0
M  V30 4998 C 495.389 2.24302 2.65153 0
M  V30 4999 C 494.343 3.40032 2.59927 0
M  V30 5000 C 493.669 3.55829 3.99111 0
M  V30 5001 C 494.969 4.75476 2.16148 0
M  V30 5002 H 496.663 2.82887 0.980563 0
M  V30 5003 H 494.209 1.36105 0.470253 0
M  V30 5004 H 496.162 2.4967 3.39475 0
M  V30 5005 H 494.886 1.32318 2.98596 0
M  V30 5006 H 493.545 3.14687 1.88063 0
M  V30 5007 H 493.193 2.6125 4.29834 0
M  V30 5008 H 492.893 4.3366 3.96501 0
M  V30 5009 H 494.417 3.83528 4.7512 0
M  V30 5010 H 495.831 5.00158 2.80205 0
M  V30 5011 H 494.228 5.56472 2.24631 0
M  V30 5012 H 495.298 4.71946 1.11333 0
M  V30 5013 N 496.642 -0.504142 1.49319 0
M  V30 5014 C 498.053 -1.08572 1.51885 0
M  V30 5015 C 498.404 -1.93842 0.303255 0
M  V30 5016 O 497.529 -2.0828 -0.58724 0
M  V30 5017 C 498.124 -1.97574 2.75227 0
M  V30 5018 C 496.683 -2.509 2.80581 0
M  V30 5019 C 495.83 -1.28447 2.45757 0
M  V30 5020 H 498.781 -0.288194 1.56061 0
M  V30 5021 H 498.802 -2.82219 2.55211 0
M  V30 5022 H 498.314 -1.35486 3.63683 0
M  V30 5023 H 496.415 -3.16636 1.96398 0
M  V30 5024 H 496.528 -2.88268 3.82673 0
M  V30 5025 H 494.892 -1.60868 1.97468 0
M  V30 5026 H 495.675 -0.68072 3.36483 0
M  V30 5027 N 498.12 -1.38341 -0.754957 0
M  V30 5028 C 499.348 -1.37704 -1.54419 0
M  V30 5029 C 499.763 0.0335243 -1.8877 0
M  V30 5030 O 499.12 0.999773 -1.52679 0
M  V30 5031 C 499.171 -2.23136 -2.84416 0
M  V30 5032 O 498.892 -3.58697 -2.51531 0
M  V30 5033 C 500.393 -2.30664 -3.78562 0
M  V30 5034 H 497.613 -0.471061 -0.477852 0
M  V30 5035 H 500.157 -1.81902 -0.934446 0
M  V30 5036 H 498.312 -1.82403 -3.41772 0
M  V30 5037 H 498.726 -4.03665 -3.34896 0
M  V30 5038 H 500.2 -2.9473 -4.66732 0
M  V30 5039 H 500.677 -1.3199 -4.18898 0
M  V30 5040 H 501.283 -2.71781 -3.27131 0
M  V30 5041 N 499.598 0.982988 -1.23187 0
M  V30 5042 C 500.561 2.05649 -1.01198 0
M  V30 5043 C 501.561 1.6078 0.0252464 0
M  V30 5044 O 502.751 1.72878 -0.214243 0
M  V30 5045 C 499.883 3.36744 -0.530656 0
M  V30 5046 H 501.076 2.2659 -1.96461 0
M  V30 5047 H 498.629 1.15602 -1.05195 0
M  V30 5048 H 499.364 3.21492 0.425873 0
M  V30 5049 H 499.149 3.7065 -1.2791 0
M  V30 5050 H 500.639 4.15705 -0.397366 0
M  V30 5051 N 501.076 1.04316 1.18135 0
M  V30 5052 C 502.039 0.640794 2.2006 0
M  V30 5053 C 503.039 -0.303124 1.57917 0
M  V30 5054 O 504.229 -0.0881855 1.73977 0
M  V30 5055 C 501.361 -0.060148 3.40847 0
M  V30 5056 H 502.554 1.54281 2.57172 0
M  V30 5057 H 500.107 0.836004 1.32063 0
M  V30 5058 H 500.842 -0.975845 3.0927 0
M  V30 5059 H 500.627 0.618319 3.87194 0
M  V30 5060 H 502.117 -0.328082 4.16309 0
M  V30 5061 N 502.554 -1.34406 0.822964 0
M  V30 5062 C 503.965 -1.8069 0.469879 0
M  V30 5063 C 504.316 -1.68223 -1.00972 0
M  V30 5064 O 503.441 -1.22226 -1.78577 0
M  V30 5065 C 504.036 -3.28064 0.846118 0
M  V30 5066 C 502.595 -3.72428 0.545402 0
M  V30 5067 C 501.742 -2.56116 1.06301 0
M  V30 5068 H 504.693 -1.22153 1.01313 0
M  V30 5069 H 504.714 -3.80205 0.149922 0
M  V30 5070 H 504.226 -3.37107 1.92304 0
M  V30 5071 H 502.327 -3.68924 -0.522109 0
M  V30 5072 H 502.44 -4.66548 1.0895 0
M  V30 5073 H 500.804 -2.50048 0.484554 0
M  V30 5074 H 501.587 -2.67928 2.14638 0
M  V30 5075 N 504.032 -0.577932 -1.46621 0
M  V30 5076 C 504.942 0.160651 -2.34049 0
M  V30 5077 C 505.958 0.890911 -1.49462 0
M  V30 5078 O 507.134 0.855166 -1.82343 0
M  V30 5079 C 504.199 1.16447 -3.26559 0
M  V30 5080 C 503.26 0.4394 -4.27045 0
M  V30 5081 C 502.493 1.3954 -5.15135 0
M  V30 5082 O 502.716 2.63162 -5.06065 0
M  V30 5083 O 501.65 0.908585 -5.95003 0
M  V30 5084 H 505.476 -0.557057 -2.98547 0
M  V30 5085 H 503.061 -0.338369 -1.45518 0
M  V30 5086 H 504.943 1.7434 -3.83645 0
M  V30 5087 H 503.618 1.86373 -2.64663 0
M  V30 5088 H 502.525 -0.181247 -3.73661 0
M  V30 5089 H 503.858 -0.218799 -4.91713 0
M  V30 5090 N 505.51 1.54411 -0.315457 0
M  V30 5091 C 506.921 1.85885 0.174265 0
M  V30 5092 C 507.272 1.23723 1.52273 0
M  V30 5093 O 506.397 0.540246 2.09548 0
M  V30 5094 C 506.992 3.37257 0.322981 0
M  V30 5095 C 505.551 3.68711 0.756922 0
M  V30 5096 C 504.698 2.77013 -0.126195 0
M  V30 5097 H 507.649 1.49374 -0.536007 0
M  V30 5098 H 507.67 3.62539 1.15522 0
M  V30 5099 H 507.182 3.82471 -0.658602 0
M  V30 5100 H 505.283 3.29024 1.74854 0
M  V30 5101 H 505.396 4.75741 0.566291 0
M  V30 5102 H 503.76 2.51588 0.39692 0
M  V30 5103 H 504.543 3.25051 -1.1044 0
M  V30 5104 N 506.988 0.0434614 1.5754 0
M  V30 5105 C 507.951 -0.918696 2.09982 0
M  V30 5106 C 508.951 -1.24488 1.01781 0
M  V30 5107 O 510.141 -1.18284 1.27885 0
M  V30 5108 C 507.273 -2.23093 2.57764 0
M  V30 5109 H 508.466 -0.464229 2.96285 0
M  V30 5110 H 506.019 -0.204818 1.54952 0
M  V30 5111 H 506.754 -2.73137 1.74832 0
M  V30 5112 H 506.539 -2.00724 3.36827 0
M  V30 5113 H 508.029 -2.92028 2.98512 0
M  V30 5114 N 508.466 -1.55915 -0.229846 0
M  V30 5115 C 509.413 -1.91734 -1.28478 0
M  V30 5116 C 510.383 -0.773539 -1.46988 0
M  V30 5117 O 511.568 -1.02871 -1.60693 0
M  V30 5118 C 508.708 -2.23224 -2.63182 0
M  V30 5119 C 507.821 -3.50497 -2.52539 0
M  V30 5120 C 506.956 -3.71474 -3.79711 0
M  V30 5121 C 505.995 -4.92289 -3.63755 0
M  V30 5122 N 505.132 -5.09698 -4.82858 0
M  V30 5123 H 509.972 -2.81692 -0.972308 0
M  V30 5124 H 507.509 -1.39429 -0.468815 0
M  V30 5125 H 509.467 -2.3949 -3.41614 0
M  V30 5126 H 508.097 -1.36451 -2.92542 0
M  V30 5127 H 507.149 -3.4247 -1.65585 0
M  V30 5128 H 508.461 -4.39079 -2.36666 0
M  V30 5129 H 507.615 -3.87791 -4.66586 0
M  V30 5130 H 506.354 -2.81157 -3.985 0
M  V30 5131 H 505.359 -4.7593 -2.75264 0
M  V30 5132 H 506.584 -5.84083 -3.46445 0
M  V30 5133 H 504.53 -4.22322 -5.01976 0
M  V30 5134 H 504.447 -5.92399 -4.69681 0
M  V30 5135 H 505.715 -5.30443 -5.71183 0
M  V30 5136 N 509.944 0.496216 -1.49584 0
M  V30 5137 C 511.19 1.25189 -1.59548 0
M  V30 5138 C 511.523 1.9212 -0.283466 0
M  V30 5139 O 510.798 1.80947 0.713324 0
M  V30 5140 C 511.081 2.31516 -2.75812 0
M  V30 5141 C 510.934 1.69054 -4.16822 0
M  V30 5142 C 512.253 3.3304 -2.87702 0
M  V30 5143 H 509.372 0.45379 -0.580727 0
M  V30 5144 H 512.014 0.549327 -1.81886 0
M  V30 5145 H 510.164 2.91438 -2.56897 0
M  V30 5146 H 511.836 1.12923 -4.47265 0
M  V30 5147 H 510.079 0.994485 -4.22247 0
M  V30 5148 H 510.75 2.462 -4.94054 0
M  V30 5149 H 513.226 2.83114 -3.04936 0
M  V30 5150 H 512.102 4.04794 -3.7072 0
M  V30 5151 H 512.363 3.95655 -1.97255 0
M  V30 5152 N 511.423 1.38739 0.74761 0
M  V30 5153 C 512.7 1.25791 1.49786 0
M  V30 5154 C 513.08 -0.138075 2.10648 0
M  V30 5155 O 512.428 -1.14815 1.9756 0
M  V30 5156 C 512.638 2.37265 2.55942 0
M  V30 5157 C 513.986 2.75978 3.22679 0
M  V30 5158 O 515.01 2.36621 2.6625 0
M  V30 5159 O 513.869 3.43867 4.24756 0
M  V30 5160 H 510.963 0.492251 0.664543 0
M  V30 5161 H 513.509 1.50582 0.782511 0
M  V30 5162 H 512.281 3.30644 2.0926 0
M  V30 5163 H 511.904 2.14071 3.35051 0
M  V30 5164 N 512.901 -0.976442 1.23707 0
M  V30 5165 C 513.833 -2.07212 0.979574 0
M  V30 5166 C 514.846 -1.6273 -0.0478528 0
M  V30 5167 O 516.035 -1.77506 0.18815 0
M  V30 5168 C 513.135 -3.35835 0.45479 0
M  V30 5169 C 512.308 -4.09268 1.54331 0
M  V30 5170 C 511.367 -5.16166 1.02271 0
M  V30 5171 O 510.393 -5.42827 1.71254 0
M  V30 5172 N 511.595 -5.80313 -0.147419 0
M  V30 5173 H 514.36 -2.29878 1.92292 0
M  V30 5174 H 511.921 -1.14343 1.14618 0
M  V30 5175 H 513.913 -4.04597 0.0914631 0
M  V30 5176 H 512.483 -3.10106 -0.394068 0
M  V30 5177 H 511.703 -3.34906 2.07923 0
M  V30 5178 H 512.991 -4.55095 2.27522 0
M  V30 5179 H 512.389 -5.61043 -0.724353 0
M  V30 5180 H 510.946 -6.50231 -0.451972 0
M  V30 5181 N 514.379 -1.04941 -1.1758 0
M  V30 5182 C 515.656 -0.671918 -1.83697 0
M  V30 5183 C 516.036 0.847929 -1.93322 0
M  V30 5184 O 515.384 1.75287 -1.46583 0
M  V30 5185 C 515.594 -1.35797 -3.21497 0
M  V30 5186 C 516.942 -1.4944 -3.97433 0
M  V30 5187 O 517.966 -1.31678 -3.30967 0
M  V30 5188 O 516.825 -1.78463 -5.1654 0
M  V30 5189 H 513.919 -0.236212 -0.792548 0
M  V30 5190 H 516.465 -1.14884 -1.24899 0
M  V30 5191 H 515.237 -2.39498 -3.09446 0
M  V30 5192 H 514.86 -0.870236 -3.8796 0
M  V30 5193 N 515.857 1.33968 -0.830081 0
M  V30 5194 C 516.82 2.27694 -0.26235 0
M  V30 5195 C 517.82 1.50589 0.563876 0
M  V30 5196 O 519.01 1.70028 0.378941 0
M  V30 5197 C 516.142 3.35002 0.63138 0
M  V30 5198 H 517.335 2.79419 -1.08928 0
M  V30 5199 H 514.888 1.44221 -0.602486 0
M  V30 5200 H 515.623 2.88504 1.48109 0
M  V30 5201 H 515.408 3.92079 0.0403276 0
M  V30 5202 H 516.898 4.04897 1.02217 0
M  V30 5203 N 517.335 0.585699 1.46312 0
M  V30 5204 C 518.583 0.072278 2.01971 0
M  V30 5205 C 518.904 -1.29345 1.45928 0
M  V30 5206 O 518.174 -1.84973 0.645109 0
M  V30 5207 H 516.754 0.023729 0.746623 0
M  V30 5208 H 519.416 0.762155 1.7938 0
M  V30 5209 H 518.512 0.00552767 3.121 0
M  V30 5210 N 518.813 -1.54241 0.323641 0
M  V30 5211 C 520.229 -1.59574 -0.0290018 0
M  V30 5212 C 520.429 -1.34017 -1.50472 0
M  V30 5213 O 519.485 -1.12464 -2.26071 0
M  V30 5214 C 520.798 -2.98169 0.389295 0
M  V30 5215 C 522.346 -3.11148 0.339958 0
M  V30 5216 C 522.821 -4.5209 0.733418 0
M  V30 5217 N 524.312 -4.5808 0.686827 0
M  V30 5218 C 525.047 -5.65248 0.963464 0
M  V30 5219 N 524.543 -6.80355 1.30724 0
M  V30 5220 N 526.336 -5.55025 0.88902 0
M  V30 5221 H 518.487 -1.6911 1.28512 0
M  V30 5222 H 520.75 -0.790972 0.522558 0
M  V30 5223 H 520.456 -3.21871 1.41746 0
M  V30 5224 H 520.33 -3.76399 -0.245657 0
M  V30 5225 H 522.717 -2.87182 -0.679002 0
M  V30 5226 H 522.798 -2.35023 1.00985 0
M  V30 5227 H 522.442 -4.76788 1.75029 0
M  V30 5228 H 522.372 -5.26584 0.0412189 0
M  V30 5229 H 524.863 -3.75411 0.43298 0
M  V30 5230 H 525.176 -7.58029 1.5037 0
M  V30 5231 H 523.521 -6.81851 1.3455 0
M  V30 5232 H 526.712 -4.63977 0.619939 0
M  V30 5233 H 526.885 -6.38458 1.10797 0
M  V30 5234 N 520.291 -0.0518155 -1.57515 0
M  V30 5235 C 521.221 0.920283 -2.146 0
M  V30 5236 C 522.202 1.32406 -1.06783 0
M  V30 5237 O 523.387 1.39866 -1.34726 0
M  V30 5238 C 520.517 2.1949 -2.6915 0
M  V30 5239 C 519.471 1.93116 -3.81956 0
M  V30 5240 C 518.797 3.27037 -4.23026 0
M  V30 5241 C 520.097 1.25225 -5.07066 0
M  V30 5242 H 521.791 0.444801 -2.96077 0
M  V30 5243 H 519.337 0.212508 -1.42423 0
M  V30 5244 H 521.29 2.87894 -3.07725 0
M  V30 5245 H 520.014 2.69244 -1.84865 0
M  V30 5246 H 518.673 1.27123 -3.43854 0
M  V30 5247 H 518.321 3.74595 -3.3569 0
M  V30 5248 H 518.021 3.10189 -4.99056 0
M  V30 5249 H 519.545 3.96673 -4.64202 0
M  V30 5250 H 520.959 1.83666 -5.43083 0
M  V30 5251 H 519.356 1.18702 -5.88243 0
M  V30 5252 H 520.426 0.228382 -4.84362 0
M  V30 5253 N 521.769 1.56035 0.221574 0
M  V30 5254 C 522.719 1.8881 1.27807 0
M  V30 5255 C 523.703 0.751177 1.42289 0
M  V30 5256 O 524.895 1.01359 1.45104 0
M  V30 5257 C 522.024 2.20828 2.6285 0
M  V30 5258 C 521.11 3.40912 2.52269 0
M  V30 5259 N 521.501 4.59531 2.1134 0
M  V30 5260 C 519.799 3.44526 2.83228 0
M  V30 5261 C 520.5 5.41689 2.1201 0
M  V30 5262 N 519.476 4.814 2.52497 0
M  V30 5263 H 523.278 2.78036 0.952529 0
M  V30 5264 H 520.792 1.566 0.430134 0
M  V30 5265 H 522.789 2.42483 3.39127 0
M  V30 5266 H 521.449 1.32914 2.9625 0
M  V30 5267 H 522.46 4.8469 1.82472 0
M  V30 5268 H 519.137 2.66956 3.21 0
M  V30 5269 H 520.527 6.46643 1.82491 0
M  V30 5270 N 523.247 -0.488276 1.49845 0
M  V30 5271 C 524.658 -1.06955 1.53028 0
M  V30 5272 C 525.009 -1.9351 0.323797 0
M  V30 5273 O 524.134 -2.08891 -0.565116 0
M  V30 5274 C 524.729 -1.94643 2.77307 0
M  V30 5275 C 523.288 -2.4791 2.83227 0
M  V30 5276 C 522.435 -1.25833 2.47106 0
M  V30 5277 H 525.386 -0.271626 1.56358 0
M  V30 5278 H 525.407 -2.79496 2.5819 0
M  V30 5279 H 524.919 -1.31621 3.65099 0
M  V30 5280 H 523.02 -3.14535 1.99745 0
M  V30 5281 H 523.133 -2.84193 3.85709 0
M  V30 5282 H 521.497 -1.58764 1.99163 0
M  V30 5283 H 522.28 -0.644993 3.37186 0
M  V30 5284 N 524.725 -1.39134 -0.740242 0
M  V30 5285 C 525.635 -1.39697 -1.88473 0
M  V30 5286 C 526.651 -0.292403 -1.71526 0
M  V30 5287 O 527.827 -0.533021 -1.94219 0
M  V30 5288 C 524.892 -1.23382 -3.24003 0
M  V30 5289 C 523.953 -2.43763 -3.53381 0
M  V30 5290 C 523.186 -2.28216 -4.82445 0
M  V30 5291 O 523.409 -1.28288 -5.55786 0
M  V30 5292 O 522.343 -3.1709 -5.11603 0
M  V30 5293 H 526.169 -2.36159 -1.90952 0
M  V30 5294 H 523.754 -1.20194 -0.887346 0
M  V30 5295 H 525.636 -1.16395 -4.05006 0
M  V30 5296 H 524.311 -0.300121 -3.22306 0
M  V30 5297 H 523.218 -2.56325 -2.72485 0
M  V30 5298 H 524.551 -3.35808 -3.59852 0
M  V30 5299 N 526.204 0.969867 -1.24223 0
M  V30 5300 C 527.432 1.74756 -1.10761 0
M  V30 5301 C 527.847 1.85713 0.340041 0
M  V30 5302 O 527.204 1.34389 1.23474 0
M  V30 5303 C 527.255 3.16915 -1.73917 0
M  V30 5304 O 526.976 3.06511 -3.13021 0
M  V30 5305 C 528.477 4.11032 -1.66036 0
M  V30 5306 H 525.697 0.548092 -0.387087 0
M  V30 5307 H 528.241 1.2178 -1.64286 0
M  V30 5308 H 526.396 3.66884 -1.244 0
M  V30 5309 H 526.81 3.96079 -3.43834 0
M  V30 5310 H 528.284 5.08446 -2.14911 0
M  V30 5311 H 528.761 4.34785 -0.621159 0
M  V30 5312 H 529.367 3.66972 -2.14969 0
M  V30 5313 N 527.682 1.05563 1.17022 0
M  V30 5314 C 528.928 0.769074 1.87652 0
M  V30 5315 C 529.261 -0.702326 1.81055 0
M  V30 5316 O 528.536 -1.5139 1.22112 0
M  V30 5317 C 528.819 1.25492 3.37526 0
M  V30 5318 C 528.672 2.78953 3.52853 0
M  V30 5319 C 529.991 0.856919 4.31677 0
M  V30 5320 H 527.11 0.280854 0.681388 0
M  V30 5321 H 529.752 1.31027 1.37593 0
M  V30 5322 H 527.902 0.794516 3.80289 0
M  V30 5323 H 529.574 3.33146 3.19079 0
M  V30 5324 H 527.817 3.18046 2.95007 0
M  V30 5325 H 528.488 3.08011 4.58076 0
M  V30 5326 H 530.964 1.25334 3.96775 0
M  V30 5327 H 529.84 1.22443 5.35069 0
M  V30 5328 H 530.101 -0.238787 4.41455 0
M  V30 5329 N 529.16 -1.33526 0.837174 0
M  V30 5330 C 530.407 -1.97837 0.432064 0
M  V30 5331 C 530.735 -1.66324 -1.00829 0
M  V30 5332 O 529.99 -0.93448 -1.71948 0
M  V30 5333 C 530.289 -3.52367 0.597675 0
M  V30 5334 C 529.955 -4.03826 2.00587 0
M  V30 5335 C 528.617 -4.1759 2.39106 0
M  V30 5336 C 530.969 -4.31333 2.92576 0
M  V30 5337 C 528.297 -4.56195 3.68921 0
M  V30 5338 C 530.649 -4.7139 4.2187 0
M  V30 5339 C 529.313 -4.8336 4.60347 0
M  V30 5340 H 528.583 -0.723937 0.158104 0
M  V30 5341 H 531.23 -1.5923 1.06387 0
M  V30 5342 H 529.535 -3.91624 -0.117452 0
M  V30 5343 H 531.232 -4.00126 0.26454 0
M  V30 5344 H 527.822 -3.93586 1.69671 0
M  V30 5345 H 532.006 -4.20224 2.64056 0
M  V30 5346 H 527.262 -4.63655 3.9854 0
M  V30 5347 H 531.436 -4.91631 4.93226 0
M  V30 5348 H 529.063 -5.1303 5.60985 0
M  V30 5349 N 530.638 -0.59345 -1.46 0
M  V30 5350 C 531.915 -0.0157933 -1.95594 0
M  V30 5351 C 532.295 1.44807 -1.53604 0
M  V30 5352 O 531.643 2.14342 -0.791824 0
M  V30 5353 C 531.853 -0.199081 -3.48432 0
M  V30 5354 C 533.201 -0.0724943 -4.24538 0
M  V30 5355 O 534.225 -0.128469 -3.55968 0
M  V30 5356 O 533.084 0.0542426 -5.46473 0
M  V30 5357 H 530.178 0.043749 -0.825842 0
M  V30 5358 H 532.724 -0.662522 -1.56233 0
M  V30 5359 H 531.496 -1.21631 -3.71916 0
M  V30 5360 H 531.119 0.483576 -3.94648 0
M  V30 5361 N 532.116 1.54067 -0.331816 0
M  V30 5362 C 533.344 2.05131 0.269996 0
M  V30 5363 C 533.759 1.20749 1.45138 0
M  V30 5364 O 533.116 0.240069 1.80914 0
M  V30 5365 C 533.167 3.54728 0.696456 0
M  V30 5366 O 532.888 4.35906 -0.43794 0
M  V30 5367 C 534.389 4.21916 1.36021 0
M  V30 5368 H 531.609 0.668807 0.0542042 0
M  V30 5369 H 534.153 1.98777 -0.4804 0
M  V30 5370 H 532.308 3.61342 1.39681 0
M  V30 5371 H 532.722 5.24404 -0.100334 0
M  V30 5372 H 534.196 5.28015 1.60947 0
M  V30 5373 H 534.673 3.73538 2.31011 0
M  V30 5374 H 535.279 4.19463 0.702212 0
M  V30 5375 N 533.594 0.0601682 1.57485 0
M  V30 5376 C 534.524 -0.90889 2.15085 0
M  V30 5377 C 535.505 -1.31838 1.07484 0
M  V30 5378 O 536.69 -1.3915 1.35466 0
M  V30 5379 C 533.82 -2.18059 2.7031 0
M  V30 5380 C 532.774 -1.91088 3.82974 0
M  V30 5381 C 532.1 -3.24789 4.24754 0
M  V30 5382 C 533.4 -1.22535 5.07723 0
M  V30 5383 H 535.094 -0.429093 2.96309 0
M  V30 5384 H 532.64 -0.204952 1.42534 0
M  V30 5385 H 534.593 -2.86258 3.09248 0
M  V30 5386 H 533.317 -2.6826 1.8629 0
M  V30 5387 H 531.976 -1.25297 3.44523 0
M  V30 5388 H 531.624 -3.72809 3.37672 0
M  V30 5389 H 531.324 -3.07538 5.00694 0
M  V30 5390 H 532.848 -3.94205 4.66299 0
M  V30 5391 H 534.262 -1.80783 5.4405 0
M  V30 5392 H 532.659 -1.1558 5.88864 0
M  V30 5393 H 533.729 -0.202692 4.84476 0
M  V30 5394 N 535.072 -1.5615 -0.213296 0
M  V30 5395 C 536.02 -1.93953 -1.28394 0
M  V30 5396 C 537.014 -0.822592 -1.48087 0
M  V30 5397 O 538.22 -1.00748 -1.49164 0
M  V30 5398 H 534.595 -0.61648 -0.430646 0
M  V30 5399 H 536.566 -2.83275 -0.937977 0
M  V30 5400 C 535.315 -2.27969 -2.62537 0
M  V30 5401 H 534.638 -3.13432 -2.48194 0
M  V30 5402 H 536.078 -2.58297 -3.36242 0
M  V30 5403 C 534.537 -1.10775 -3.18167 0
M  V30 5404 O 535.067 -0.373201 -3.99963 0
M  V30 5405 N 533.273 -0.889377 -2.76656 0
M  V30 5406 H 532.82 -1.48843 -2.10246 0
M  V30 5407 H 532.778 -0.107 -3.14218 0
M  V30 5408 N 536.55 0.480323 -1.50102 0
M  V30 5409 C 537.827 1.24159 -1.51142 0
M  V30 5410 C 538.207 2.09605 -0.250818 0
M  V30 5411 O 537.555 2.15274 0.766118 0
M  V30 5412 C 537.765 2.08057 -2.80202 0
M  V30 5413 C 539.113 2.66556 -3.30504 0
M  V30 5414 O 540.137 2.18308 -2.81461 0
M  V30 5415 O 538.996 3.54442 -4.15973 0
M  V30 5416 H 536.09 0.562928 -0.605839 0
M  V30 5417 H 538.636 0.492899 -1.62384 0
M  V30 5418 H 537.408 1.45032 -3.6343 0
M  V30 5419 H 537.031 2.90079 -2.71919 0
M  V30 5420 N 538.028 1.39524 0.732853 0
M  V30 5421 C 538.961 1.32806 1.85574 0
M  V30 5422 C 539.939 0.201354 1.61348 0
M  V30 5423 O 541.123 0.38216 1.84585 0
M  V30 5424 C 538.25 1.06271 3.21596 0
M  V30 5425 C 537.296 2.21161 3.64678 0
M  V30 5426 S 538.129 3.83454 3.73796 0
M  V30 5427 C 539.285 3.59149 5.12604 0
M  V30 5428 H 539.518 2.27838 1.9099 0
M  V30 5429 H 537.051 1.25605 0.897927 0
M  V30 5430 H 539.009 0.916461 4.00139 0
M  V30 5431 H 537.67 0.129223 3.13834 0
M  V30 5432 H 536.863 1.98193 4.63396 0
M  V30 5433 H 536.465 2.32 2.93346 0
M  V30 5434 H 538.757 3.16547 5.99003 0
M  V30 5435 H 539.7 4.57335 5.40602 0
M  V30 5436 H 540.108 2.93203 4.82382 0
M  V30 5437 N 539.506 -0.963266 1.24736 0
M  V30 5438 C 540.469 -2.04013 1.04457 0
M  V30 5439 C 541.469 -1.608 0.000335555 0
M  V30 5440 O 542.659 -1.72515 0.241719 0
M  V30 5441 C 539.791 -3.35858 0.584162 0
M  V30 5442 H 540.984 -2.23436 2.00041 0
M  V30 5443 H 538.537 -1.13914 1.07021 0
M  V30 5444 H 539.272 -3.22128 -0.374673 0
M  V30 5445 H 539.057 -3.68568 1.3379 0
M  V30 5446 H 540.547 -4.1502 0.463451 0
M  V30 5447 N 540.985 -1.06182 -1.16461 0
M  V30 5448 C 542.396 -0.802426 -1.68576 0
M  V30 5449 C 542.747 0.67412 -1.84255 0
M  V30 5450 O 541.872 1.52303 -1.5373 0
M  V30 5451 C 542.467 -1.45002 -3.06202 0
M  V30 5452 C 541.026 -1.23843 -3.55443 0
M  V30 5453 C 540.173 -1.52724 -2.31454 0
M  V30 5454 H 543.124 -1.22545 -1.00839 0
M  V30 5455 H 543.145 -0.864731 -3.70544 0
M  V30 5456 H 542.657 -2.52466 -2.94759 0
M  V30 5457 H 540.758 -0.183487 -3.72148 0
M  V30 5458 H 540.871 -1.95036 -4.37604 0
M  V30 5459 H 539.235 -0.947726 -2.36411 0
M  V30 5460 H 540.018 -2.61343 -2.22609 0
M  V30 5461 N 542.463 1.3308 -0.844243 0
M  V30 5462 C 543.373 2.32876 -0.283922 0
M  V30 5463 C 544.389 1.63589 0.592846 0
M  V30 5464 O 545.565 1.95205 0.495693 0
M  V30 5465 C 542.63 3.42667 0.527283 0
M  V30 5466 C 541.691 4.27664 -0.374394 0
M  V30 5467 C 540.924 5.32212 0.39819 0
M  V30 5468 O 541.147 5.46635 1.62932 0
M  V30 5469 O 540.081 6.01458 -0.2306 0
M  V30 5470 H 543.907 2.82671 -1.11045 0
M  V30 5471 H 541.492 1.36518 -0.606903 0
M  V30 5472 H 543.374 4.09652 0.988078 0
M  V30 5473 H 542.049 2.95079 1.33078 0
M  V30 5474 H 540.956 3.63526 -0.883144 0
M  V30 5475 H 542.289 4.78749 -1.1428 0
M  V30 5476 N 543.941 0.601185 1.45683 0
M  V30 5477 C 544.889 -0.133955 2.32214 0
M  V30 5478 C 545.883 -0.866034 1.45589 0
M  V30 5479 O 547.089 -0.782326 1.6211 0
M  V30 5480 H 543.464 -0.0620613 0.749435 0
M  V30 5481 H 545.435 0.614389 2.92007 0
M  V30 5482 C 544.184 -1.12216 3.29094 0
M  V30 5483 H 543.507 -0.568273 3.95741 0
M  V30 5484 H 544.947 -1.60659 3.92383 0
M  V30 5485 C 543.406 -2.19251 2.55794 0
M  V30 5486 O 543.936 -3.26894 2.33459 0
M  V30 5487 N 542.142 -1.9436 2.16039 0
M  V30 5488 H 541.689 -1.06829 2.34404 0
M  V30 5489 H 541.647 -2.66181 1.67318 0
M  V30 5490 N 545.419 -1.53889 0.339982 0
M  V30 5491 C 546.382 -2.23547 -0.50592 0
M  V30 5492 C 547.382 -1.23445 -1.03044 0
M  V30 5493 O 548.572 -1.47909 -0.920253 0
M  V30 5494 C 545.704 -2.95234 -1.7044 0
M  V30 5495 H 546.897 -2.99722 0.103247 0
M  V30 5496 H 544.45 -1.56033 0.0912804 0
M  V30 5497 H 545.185 -2.23236 -2.35236 0
M  V30 5498 H 544.97 -3.68654 -1.33553 0
M  V30 5499 H 546.46 -3.48258 -2.30447 0
M  V30 5500 N 546.897 -0.0685191 -1.57451 0
M  V30 5501 C 548.146 0.600898 -1.92541 0
M  V30 5502 C 548.459 1.70967 -0.950239 0
M  V30 5503 O 549.665 2.43844 -1.19384 0
M  V30 5504 C 548.121 1.12019 -3.42023 0
M  V30 5505 C 547.729 0.0426028 -4.4798 0
M  V30 5506 C 549.473 1.76386 -3.86119 0
M  V30 5507 C 547.38 0.575759 -5.88591 0
M  V30 5508 H 546.31 0.228225 -0.71863 0
M  V30 5509 H 548.961 -0.140223 -1.82963 0
M  V30 5510 H 547.343 1.91418 -3.46663 0
M  V30 5511 H 548.517 -0.73182 -4.54952 0
M  V30 5512 H 546.832 -0.504642 -4.13331 0
M  V30 5513 H 549.429 2.17302 -4.88553 0
M  V30 5514 H 549.772 2.62255 -3.23308 0
M  V30 5515 H 550.305 1.03615 -3.84069 0
M  V30 5516 H 547.044 -0.245691 -6.55039 0
M  V30 5517 H 546.564 1.31778 -5.85145 0
M  V30 5518 H 548.243 1.0532 -6.3837 0
M  V30 5519 N 548.375 1.56261 0.205012 0
M  V30 5520 C 549.605 1.83874 0.942018 0
M  V30 5521 C 550.013 0.647595 1.77772 0
M  V30 5522 O 549.356 -0.393098 1.79445 0
M  V30 5523 C 549.418 3.05453 1.89575 0
M  V30 5524 C 549.082 4.39772 1.24296 0
M  V30 5525 C 550.079 5.16133 0.624724 0
M  V30 5526 C 547.764 4.86504 1.24978 0
M  V30 5527 C 549.758 6.37396 0.0220117 0
M  V30 5528 C 547.445 6.07705 0.643232 0
M  V30 5529 C 548.443 6.82993 0.0304164 0
M  V30 5530 O 548.131 8.019 -0.566654 0
M  V30 5531 H 547.863 0.614896 0.280854 0
M  V30 5532 H 550.417 2.04215 0.220285 0
M  V30 5533 H 548.647 2.80972 2.65691 0
M  V30 5534 H 550.336 3.19797 2.4997 0
M  V30 5535 H 551.102 4.81127 0.611666 0
M  V30 5536 H 546.981 4.27865 1.71616 0
M  V30 5537 H 550.525 6.96102 -0.456926 0
M  V30 5538 H 546.422 6.42181 0.653759 0
M  V30 5539 H 547.19 8.17192 -0.462588 0
M  V30 5540 N 549.853 -0.472356 1.50355 0
M  V30 5541 C 550.783 -1.57859 1.72055 0
M  V30 5542 C 551.764 -1.60283 0.569505 0
M  V30 5543 O 552.949 -1.7657 0.808503 0
M  V30 5544 C 550.079 -2.96191 1.81351 0
M  V30 5545 C 549.033 -3.08633 2.96529 0
M  V30 5546 C 548.359 -4.486 2.90968 0
M  V30 5547 C 549.659 -2.85969 4.37057 0
M  V30 5548 H 551.353 -1.39953 2.64676 0
M  V30 5549 H 548.899 -0.671846 1.27367 0
M  V30 5550 H 550.852 -3.73507 1.95117 0
M  V30 5551 H 549.576 -3.15251 0.853502 0
M  V30 5552 H 548.235 -2.33749 2.82413 0
M  V30 5553 H 547.883 -4.64577 1.92815 0
M  V30 5554 H 547.583 -4.57861 3.68289 0
M  V30 5555 H 549.107 -5.27938 3.0678 0
M  V30 5556 H 550.521 -3.53036 4.51706 0
M  V30 5557 H 548.918 -3.06677 5.15819 0
M  V30 5558 H 549.988 -1.81838 4.49514 0
M  V30 5559 N 551.331 -1.39911 -0.725443 0
M  V30 5560 C 552.279 -1.39552 -1.86086 0
M  V30 5561 C 553.273 -0.277334 -1.67114 0
M  V30 5562 O 554.479 -0.447865 -1.74339 0
M  V30 5563 H 550.854 -0.435993 -0.612711 0
M  V30 5564 H 552.825 -2.35305 -1.83505 0
M  V30 5565 C 551.574 -1.26529 -3.2386 0
M  V30 5566 H 550.897 -2.11845 -3.3906 0
M  V30 5567 H 552.337 -1.30336 -4.03471 0
M  V30 5568 C 550.796 0.0254168 -3.3689 0
M  V30 5569 O 551.326 0.992048 -3.89257 0
M  V30 5570 N 549.532 0.0916528 -2.90455 0
M  V30 5571 H 549.079 -0.695675 -2.48028 0
M  V30 5572 H 549.037 0.954745 -2.99553 0
M  V30 5573 N 552.809 0.956637 -1.25245 0
M  V30 5574 C 553.719 2.0868 -1.0719 0
M  V30 5575 C 554.735 1.73997 -0.00959074 0
M  V30 5576 O 555.911 2.00301 -0.210104 0
M  V30 5577 C 552.976 3.39754 -0.690526 0
M  V30 5578 C 552.037 3.88316 -1.83055 0
M  V30 5579 C 551.27 5.13134 -1.46728 0
M  V30 5580 O 551.493 5.6925 -0.362029 0
M  V30 5581 O 550.427 5.56356 -2.29677 0
M  V30 5582 H 554.253 2.26813 -2.01965 0
M  V30 5583 H 551.838 1.07098 -1.04165 0
M  V30 5584 H 553.72 4.18543 -0.489871 0
M  V30 5585 H 552.395 3.22896 0.227981 0
M  V30 5586 H 551.302 3.1054 -2.08604 0
M  V30 5587 H 552.635 4.09669 -2.72822 0
M  V30 5588 N 554.287 1.06798 1.15896 0
M  V30 5589 C 555.512 0.808739 1.90982 0
M  V30 5590 C 555.937 -0.6316 1.77179 0
M  V30 5591 O 555.295 -1.4407 1.10061 0
M  V30 5592 C 555.343 1.21468 3.39526 0
M  V30 5593 O 554.447 0.356562 4.10856 0
M  V30 5594 H 553.788 0.29512 0.594811 0
M  V30 5595 H 556.318 1.42513 1.46804 0
M  V30 5596 H 556.328 1.18844 3.90308 0
M  V30 5597 H 555.003 2.26379 3.48891 0
M  V30 5598 H 553.58 0.444808 3.70238 0
M  V30 5599 N 555.766 -1.3263 0.851289 0
M  V30 5600 C 556.994 -2.01563 0.466899 0
M  V30 5601 C 557.409 -1.63996 -0.935447 0
M  V30 5602 O 556.766 -0.85957 -1.6099 0
M  V30 5603 C 556.817 -3.56613 0.592433 0
M  V30 5604 O 556.538 -3.92828 1.93954 0
M  V30 5605 C 558.039 -4.42818 0.206612 0
M  V30 5606 H 555.259 -0.645307 0.183902 0
M  V30 5607 H 557.803 -1.69285 1.1473 0
M  V30 5608 H 555.958 -3.87379 -0.0401936 0
M  V30 5609 H 556.372 -4.87545 1.9339 0
M  V30 5610 H 557.846 -5.50918 0.345462 0
M  V30 5611 H 558.323 -4.30844 -0.85264 0
M  V30 5612 H 558.929 -4.17434 0.814176 0
M  V30 5613 N 557.244 -0.608902 -1.45362 0
M  V30 5614 C 558.469 -0.10921 -2.07112 0
M  V30 5615 C 558.894 1.19779 -1.45033 0
M  V30 5616 O 558.252 1.72961 -0.543527 0
M  V30 5617 C 558.3 0.0155745 -3.60597 0
M  V30 5618 O 557.404 1.06546 -3.98399 0
M  V30 5619 H 556.745 -0.0746619 -0.659789 0
M  V30 5620 H 559.275 -0.839283 -1.86594 0
M  V30 5621 H 559.285 0.213364 -4.07442 0
M  V30 5622 H 557.96 -0.938765 -4.05167 0
M  V30 5623 H 556.537 0.844024 -3.63223 0
M  V30 5624 N 558.722 1.53707 -0.348139 0
M  V30 5625 C 559.95 2.05406 0.248224 0
M  V30 5626 C 560.365 1.22282 1.43849 0
M  V30 5627 O 559.722 0.259244 1.80649 0
M  V30 5628 C 559.773 3.55446 0.658793 0
M  V30 5629 O 559.494 4.35417 -0.484149 0
M  V30 5630 C 560.995 4.23335 1.31539 0
M  V30 5631 H 558.215 0.669344 0.0471075 0
M  V30 5632 H 560.759 1.98257 -0.501456 0
M  V30 5633 H 558.914 3.62803 1.35841 0
M  V30 5634 H 559.328 5.24268 -0.155949 0
M  V30 5635 H 560.802 5.29692 1.55338 0
M  V30 5636 H 561.279 3.75967 2.27036 0
M  V30 5637 H 561.885 4.20184 0.657683 0
M  V30 5638 N 560.2 0.0768682 1.57412 0
M  V30 5639 C 561.428 -0.59997 1.9801 0
M  V30 5640 C 561.843 -1.62842 0.955408 0
M  V30 5641 O 561.2 -1.8241 -0.057314 0
M  V30 5642 C 561.251 -1.26401 3.38681 0
M  V30 5643 O 560.972 -0.276723 4.37225 0
M  V30 5644 C 562.473 -2.0282 3.94182 0
M  V30 5645 H 559.693 -0.162239 0.651091 0
M  V30 5646 H 562.237 0.150771 2.03943 0
M  V30 5647 H 560.392 -1.96581 3.33819 0
M  V30 5648 H 560.806 -0.753744 5.19056 0
M  V30 5649 H 562.28 -2.44667 4.94815 0
M  V30 5650 H 562.757 -2.88678 3.31001 0
M  V30 5651 H 563.363 -1.37496 4.02461 0
M  V30 5652 N 561.678 -1.56367 -0.196722 0
M  V30 5653 C 562.641 -1.93561 -1.22746 0
M  V30 5654 C 563.641 -0.816566 -1.38524 0
M  V30 5655 O 564.831 -1.084 -1.36363 0
M  V30 5656 C 561.963 -2.20823 -2.59712 0
M  V30 5657 H 563.156 -2.85774 -0.909586 0
M  V30 5658 H 560.709 -1.50032 -0.438174 0
M  V30 5659 H 561.444 -1.31243 -2.96557 0
M  V30 5660 H 561.229 -3.02368 -2.49632 0
M  V30 5661 H 562.719 -2.50608 -3.34044 0
M  V30 5662 N 563.156 0.464375 -1.50603 0
M  V30 5663 C 564.088 1.57916 -1.66118 0
M  V30 5664 C 565.101 1.53497 -0.54246 0
M  V30 5665 O 566.29 1.58763 -0.815877 0
M  V30 5666 C 563.39 2.96809 -1.63577 0
M  V30 5667 C 562.563 3.26026 -2.91592 0
M  V30 5668 C 561.622 4.44506 -2.81604 0
M  V30 5669 O 560.648 4.44484 -3.55559 0
M  V30 5670 N 561.85 5.46549 -1.95614 0
M  V30 5671 H 564.615 1.45022 -2.62276 0
M  V30 5672 H 562.176 0.652903 -1.48151 0
M  V30 5673 H 564.168 3.74048 -1.54499 0
M  V30 5674 H 562.738 3.03438 -0.751262 0
M  V30 5675 H 561.958 2.37337 -3.14746 0
M  V30 5676 H 563.246 3.42361 -3.76386 0
M  V30 5677 H 562.644 5.49391 -1.34854 0
M  V30 5678 H 561.201 6.22746 -1.92435 0
M  V30 5679 N 564.634 1.40294 0.718013 0
M  V30 5680 C 565.567 1.34767 1.84155 0
M  V30 5681 C 566.545 0.218455 1.61126 0
M  V30 5682 O 567.729 0.401716 1.8417 0
M  V30 5683 C 564.856 1.09676 3.20451 0
M  V30 5684 C 563.902 2.25016 3.62312 0
M  V30 5685 S 564.735 3.87397 3.69707 0
M  V30 5686 C 565.891 3.64565 5.08766 0
M  V30 5687 H 566.124 2.29851 1.88562 0
M  V30 5688 H 563.657 1.2655 0.884555 0
M  V30 5689 H 565.615 0.95885 3.99144 0
M  V30 5690 H 564.276 0.162502 3.13679 0
M  V30 5691 H 563.469 2.03097 4.61268 0
M  V30 5692 H 563.071 2.35098 2.90869 0
M  V30 5693 H 565.363 3.22882 5.95612 0
M  V30 5694 H 566.306 4.63043 5.35721 0
M  V30 5695 H 566.714 2.98303 4.79245 0
M  V30 5696 N 566.112 -0.949982 1.2575 0
M  V30 5697 C 567.358 -1.69822 1.11947 0
M  V30 5698 C 567.713 -1.89455 -0.335334 0
M  V30 5699 O 567.006 -1.45778 -1.24336 0
M  V30 5700 C 567.2 -3.08039 1.81237 0
M  V30 5701 C 567.029 -3.0189 3.33305 0
M  V30 5702 C 565.799 -3.05391 4.02573 0
M  V30 5703 C 567.997 -2.827 4.29634 0
M  V30 5704 N 565.979 -2.89449 5.4138 0
M  V30 5705 C 567.35 -2.75237 5.55558 0
M  V30 5706 C 569.405 -2.67416 4.19992 0
M  V30 5707 C 568.108 -2.54051 6.72942 0
M  V30 5708 C 570.134 -2.47602 5.37073 0
M  V30 5709 C 569.496 -2.40863 6.6194 0
M  V30 5710 H 565.595 -0.629188 0.464378 0
M  V30 5711 H 568.179 -1.1249 1.58916 0
M  V30 5712 H 566.35 -3.63528 1.36756 0
M  V30 5713 H 568.082 -3.71671 1.60134 0
M  V30 5714 H 564.837 -3.14763 3.53866 0
M  V30 5715 H 565.261 -2.84669 6.14241 0
M  V30 5716 H 569.903 -2.71398 3.24196 0
M  V30 5717 H 567.621 -2.48811 7.68842 0
M  V30 5718 H 571.207 -2.36694 5.31477 0
M  V30 5719 H 570.087 -2.25732 7.51009 0
M  V30 5720 N 567.59 -1.07411 -1.15328 0
M  V30 5721 C 568.522 -0.652924 -2.19703 0
M  V30 5722 C 569.535 0.294869 -1.60107 0
M  V30 5723 O 570.724 0.0840932 -1.78302 0
M  V30 5724 C 567.824 0.061434 -3.38844 0
M  V30 5725 C 566.997 -0.902696 -4.27984 0
M  V30 5726 C 566.056 -0.225521 -5.25717 0
M  V30 5727 O 565.082 -0.86676 -5.62562 0
M  V30 5728 N 566.284 1.02858 -5.71315 0
M  V30 5729 H 569.049 -1.55081 -2.56457 0
M  V30 5730 H 566.61 -0.958883 -1.30449 0
M  V30 5731 H 568.602 0.525145 -4.01278 0
M  V30 5732 H 567.172 0.861269 -3.00501 0
M  V30 5733 H 566.392 -1.54551 -3.6264 0
M  V30 5734 H 567.68 -1.55636 -4.84412 0
M  V30 5735 H 567.078 1.56948 -5.43492 0
M  V30 5736 H 565.635 1.43596 -6.35786 0
M  V30 5737 N 569.068 1.32177 -0.85831 0
M  V30 5738 C 570.484 1.49873 -0.548656 0
M  V30 5739 C 570.684 1.79278 0.919874 0
M  V30 5740 O 569.74 1.86451 1.70271 0
M  V30 5741 C 571.053 2.64043 -1.4388 0
M  V30 5742 C 572.601 2.77928 -1.43961 0
M  V30 5743 C 573.076 3.95182 -2.31506 0
M  V30 5744 N 574.567 4.0245 -2.29321 0
M  V30 5745 C 575.302 4.9242 -2.93786 0
M  V30 5746 N 574.798 5.87373 -3.67376 0
M  V30 5747 N 576.591 4.85572 -2.83155 0
M  V30 5748 H 568.742 1.11357 -1.80868 0
M  V30 5749 H 571.005 0.549175 -0.772729 0
M  V30 5750 H 570.711 2.49055 -2.48324 0
M  V30 5751 H 570.585 3.59912 -1.12885 0
M  V30 5752 H 572.972 2.92338 -0.402813 0
M  V30 5753 H 573.053 1.82762 -1.78974 0
M  V30 5754 H 572.697 3.81531 -3.35256 0
M  V30 5755 H 572.627 4.89633 -1.93823 0
M  V30 5756 H 575.118 3.34507 -1.75822 0
M  V30 5757 H 575.431 6.52728 -4.13722 0
M  V30 5758 H 573.776 5.87388 -3.71484 0
M  V30 5759 H 576.967 4.10363 -2.25211 0
M  V30 5760 H 577.14 5.55486 -3.33676 0
M  V30 5761 N 570.547 0.616602 1.45037 0
M  V30 5762 C 571.477 -0.0840787 2.33349 0
M  V30 5763 C 572.458 -0.849641 1.4736 0
M  V30 5764 O 573.643 -0.818407 1.76113 0
M  V30 5765 C 570.773 -1.07604 3.3021 0
M  V30 5766 C 569.727 -0.423096 4.25904 0
M  V30 5767 C 569.053 -1.52394 5.12523 0
M  V30 5768 C 570.353 0.661457 5.18095 0
M  V30 5769 H 572.047 0.653333 2.92185 0
M  V30 5770 H 569.593 0.315634 1.40498 0
M  V30 5771 H 571.546 -1.57485 3.90866 0
M  V30 5772 H 570.27 -1.84416 2.69552 0
M  V30 5773 H 568.929 0.05493 3.66559 0
M  V30 5774 H 568.577 -2.28257 4.48227 0
M  V30 5775 H 568.277 -1.09251 5.77354 0
M  V30 5776 H 569.801 -2.02485 5.76049 0
M  V30 5777 H 571.215 0.246353 5.7277 0
M  V30 5778 H 569.612 1.01517 5.91451 0
M  V30 5779 H 570.682 1.53446 4.59981 0
M  V30 5780 N 572.025 -1.5352 0.356285 0
M  V30 5781 C 572.973 -2.26945 -0.50978 0
M  V30 5782 C 573.967 -1.29569 -1.09125 0
M  V30 5783 O 575.173 -1.47231 -1.03552 0
M  V30 5784 H 571.548 -0.729368 -0.183102 0
M  V30 5785 H 573.519 -2.98111 0.131374 0
M  V30 5786 C 572.268 -3.06466 -1.64237 0
M  V30 5787 H 571.591 -3.81233 -1.20423 0
M  V30 5788 H 573.031 -3.61035 -2.22327 0
M  V30 5789 C 571.49 -2.16737 -2.57928 0
M  V30 5790 O 572.02 -1.77195 -3.60507 0
M  V30 5791 N 570.226 -1.81558 -2.26903 0
M  V30 5792 H 569.773 -2.13913 -1.43524 0
M  V30 5793 H 569.731 -1.21806 -2.89846 0
M  V30 5794 N 573.503 -0.0852151 -1.57369 0
M  V30 5795 C 574.436 0.913608 -2.09113 0
M  V30 5796 C 575.414 1.28264 -0.999358 0
M  V30 5797 O 576.598 1.3896 -1.27367 0
M  V30 5798 C 573.725 2.21777 -2.55993 0
M  V30 5799 C 572.771 1.99932 -3.76735 0
M  V30 5800 S 573.604 1.24637 -5.20794 0
M  V30 5801 C 574.76 2.56304 -5.71016 0
M  V30 5802 H 574.993 0.473369 -2.93507 0
M  V30 5803 H 572.526 0.127856 -1.5387 0
M  V30 5804 H 574.484 2.96726 -2.83662 0
M  V30 5805 H 573.145 2.62923 -1.71843 0
M  V30 5806 H 572.338 2.96482 -4.07571 0
M  V30 5807 H 571.94 1.33116 -3.49509 0
M  V30 5808 H 574.232 3.5233 -5.78679 0
M  V30 5809 H 575.175 2.3006 -6.69685 0
M  V30 5810 H 575.583 2.64125 -4.98897 0
M  V30 5811 N 574.981 1.5647 0.188427 0
M  V30 5812 C 576.397 1.50204 0.539532 0
M  V30 5813 C 576.597 0.78644 1.85519 0
M  V30 5814 O 575.653 0.339714 2.50204 0
M  V30 5815 C 576.966 2.94893 0.588103 0
M  V30 5816 C 578.514 3.05602 0.67648 0
M  V30 5817 C 578.989 4.51716 0.756101 0
M  V30 5818 N 580.48 4.55894 0.819451 0
M  V30 5819 C 581.215 5.66272 0.90134 0
M  V30 5820 N 580.711 6.86323 0.945118 0
M  V30 5821 N 582.504 5.54201 0.939043 0
M  V30 5822 H 574.655 2.01406 -0.674493 0
M  V30 5823 H 576.918 0.916828 -0.241103 0
M  V30 5824 H 576.624 3.50334 -0.309633 0
M  V30 5825 H 576.498 3.4861 1.44051 0
M  V30 5826 H 578.885 2.50206 1.56465 0
M  V30 5827 H 578.966 2.54999 -0.202262 0
M  V30 5828 H 578.61 5.07739 -0.12774 0
M  V30 5829 H 578.54 5.00058 1.65074 0
M  V30 5830 H 581.031 3.69452 0.794594 0
M  V30 5831 H 581.344 7.66194 1.0083 0
M  V30 5832 H 579.689 6.88968 0.913683 0
M  V30 5833 H 582.88 4.59333 0.901725 0
M  V30 5834 H 583.053 6.40247 0.999402 0
M  V30 5835 N 576.459 -0.456382 1.50847 0
M  V30 5836 C 577.407 -1.57318 1.71329 0
M  V30 5837 C 578.401 -1.59187 0.579287 0
M  V30 5838 O 579.607 -1.6316 0.76018 0
M  V30 5839 H 575.982 -0.5223 0.541024 0
M  V30 5840 H 577.953 -1.3721 2.64983 0
M  V30 5841 C 576.702 -2.95142 1.83811 0
M  V30 5842 H 576.025 -2.94428 2.70467 0
M  V30 5843 H 577.465 -3.72702 2.02161 0
M  V30 5844 C 575.924 -3.31636 0.593224 0
M  V30 5845 O 576.454 -4.00852 -0.260898 0
M  V30 5846 N 574.66 -2.87205 0.442902 0
M  V30 5847 H 574.207 -2.31051 1.13901 0
M  V30 5848 H 574.165 -3.11986 -0.38884 0
M  V30 5849 N 577.937 -1.40673 -0.710563 0
M  V30 5850 C 579.348 -1.34975 -1.28991 0
M  V30 5851 C 579.699 -0.0256272 -1.96183 0
M  V30 5852 O 578.824 0.876339 -1.97862 0
M  V30 5853 C 579.419 -2.44467 -2.34567 0
M  V30 5854 C 577.978 -2.42213 -2.88114 0
M  V30 5855 C 577.125 -2.25085 -1.61963 0
M  V30 5856 H 580.076 -1.50406 -0.506343 0
M  V30 5857 H 580.097 -2.12663 -3.15523 0
M  V30 5858 H 579.609 -3.40825 -1.85634 0
M  V30 5859 H 577.71 -1.49568 -3.41263 0
M  V30 5860 H 577.823 -3.37983 -3.39565 0
M  V30 5861 H 576.187 -1.72691 -1.87216 0
M  V30 5862 H 576.97 -3.23449 -1.15047 0
M  V30 5863 N 579.415 0.9433 -1.26252 0
M  V30 5864 C 580.663 1.68592 -1.11451 0
M  V30 5865 C 580.984 1.91957 0.343123 0
M  V30 5866 O 580.254 1.51475 1.24226 0
M  V30 5867 H 578.834 0.624789 -0.409448 0
M  V30 5868 H 581.496 1.13351 -1.58548 0
M  V30 5869 H 580.592 2.66054 -1.63162 0
M  V30 5870 N 580.893 1.08022 1.14757 0
M  V30 5871 C 582.118 0.82895 1.90114 0
M  V30 5872 C 582.543 -0.612772 1.77839 0
M  V30 5873 O 581.901 -1.42895 1.11583 0
M  V30 5874 C 581.949 1.25062 3.38219 0
M  V30 5875 O 581.053 0.400119 4.10454 0
M  V30 5876 H 580.394 0.301412 0.591648 0
M  V30 5877 H 582.924 1.44062 1.45284 0
M  V30 5878 H 582.934 1.22977 3.89025 0
M  V30 5879 H 581.609 2.30067 3.46471 0
M  V30 5880 H 580.186 0.484052 3.69745 0
M  V30 5881 N 582.371 -1.3172 0.865308 0
M  V30 5882 C 583.601 -2.00765 0.487543 0
M  V30 5883 C 584.009 -1.65145 -0.92325 0
M  V30 5884 O 583.352 -0.874294 -1.61561 0
M  V30 5885 C 583.414 -3.55122 0.559369 0
M  V30 5886 C 583.078 -4.14202 1.93095 0
M  V30 5887 C 584.075 -4.3165 2.89784 0
M  V30 5888 C 581.76 -4.50036 2.23099 0
M  V30 5889 C 583.754 -4.84114 4.14623 0
M  V30 5890 C 581.441 -5.02203 3.48189 0
M  V30 5891 C 582.439 -5.19192 4.43767 0
M  V30 5892 O 582.127 -5.70241 5.6664 0
M  V30 5893 H 581.859 -0.649066 0.188915 0
M  V30 5894 H 584.413 -1.69032 1.16694 0
M  V30 5895 H 582.643 -3.86295 -0.176926 0
M  V30 5896 H 584.332 -4.05428 0.195694 0
M  V30 5897 H 585.098 -4.04288 2.6791 0
M  V30 5898 H 580.977 -4.36091 1.49485 0
M  V30 5899 H 584.521 -4.9729 4.89233 0
M  V30 5900 H 580.418 -5.28997 3.69908 0
M  V30 5901 H 581.186 -5.88617 5.68746 0
M  V30 5902 N 583.85 -0.624285 -1.44708 0
M  V30 5903 C 585.08 -0.132726 -2.06173 0
M  V30 5904 C 585.488 1.19513 -1.46674 0
M  V30 5905 O 584.831 1.74254 -0.581491 0
M  V30 5906 C 584.893 0.0636732 -3.59444 0
M  V30 5907 C 584.557 -1.18496 -4.4137 0
M  V30 5908 C 585.553 -2.10706 -4.75288 0
M  V30 5909 C 583.239 -1.41846 -4.81856 0
M  V30 5910 C 585.233 -3.24582 -5.48567 0
M  V30 5911 C 582.92 -2.5602 -5.54885 0
M  V30 5912 C 583.918 -3.47215 -5.88159 0
M  V30 5913 O 583.606 -4.59399 -6.59703 0
M  V30 5914 H 583.338 -0.0737313 -0.671967 0
M  V30 5915 H 585.892 -0.856789 -1.86677 0
M  V30 5916 H 584.122 0.842809 -3.77404 0
M  V30 5917 H 585.811 0.508924 -4.02697 0
M  V30 5918 H 586.577 -1.93898 -4.44554 0
M  V30 5919 H 582.456 -0.717556 -4.55381 0
M  V30 5920 H 586 -3.95785 -5.74456 0
M  V30 5921 H 581.897 -2.72774 -5.85034 0
M  V30 5922 H 582.665 -4.58293 -6.78166 0
M  V30 5923 N 585.328 1.53329 -0.364422 0
M  V30 5924 C 586.575 2.01239 0.225634 0
M  V30 5925 C 586.903 1.25172 1.48869 0
M  V30 5926 O 586.158 0.333289 1.92841 0
M  V30 5927 C 586.457 3.52911 0.564661 0
M  V30 5928 C 586.123 4.46837 -0.603936 0
M  V30 5929 C 584.785 4.72234 -0.924585 0
M  V30 5930 C 587.137 5.02409 -1.38691 0
M  V30 5931 C 584.465 5.50454 -2.0302 0
M  V30 5932 C 586.817 5.81836 -2.48293 0
M  V30 5933 C 585.481 6.0552 -2.80894 0
M  V30 5934 H 584.751 0.736386 0.0825654 0
M  V30 5935 H 587.398 1.84948 -0.496645 0
M  V30 5936 H 585.703 3.67144 1.36794 0
M  V30 5937 H 587.4 3.87455 1.03344 0
M  V30 5938 H 583.99 4.27217 -0.343983 0
M  V30 5939 H 588.174 4.82735 -1.15243 0
M  V30 5940 H 583.43 5.67024 -2.28678 0
M  V30 5941 H 587.604 6.23905 -3.0938 0
M  V30 5942 H 585.231 6.65916 -3.66688 0
M  V30 5943 N 586.806 0.0935595 1.57322 0
M  V30 5944 C 588.046 -0.573901 1.96178 0
M  V30 5945 C 588.41 -1.65445 0.97426 0
M  V30 5946 O 589.611 -2.37901 1.25126 0
M  V30 5947 C 587.882 -1.11612 3.39526 0
M  V30 5948 S 589.441 -1.79566 4.00377 0
M  V30 5949 H 586.259 -0.187315 0.685882 0
M  V30 5950 H 588.861 0.172597 1.94737 0
M  V30 5951 H 587.565 -0.31815 4.09165 0
M  V30 5952 H 587.096 -1.89848 3.4456 0
M  V30 5953 H 589.111 -3.07978 3.89056 0
M  V30 5954 N 588.284 -1.56567 -0.180126 0
M  V30 5955 C 589.247 -1.94852 -1.20686 0
M  V30 5956 C 590.247 -0.831212 -1.3765 0
M  V30 5957 O 591.437 -1.09841 -1.35206 0
M  V30 5958 C 588.569 -2.23565 -2.57355 0
M  V30 5959 H 589.762 -2.86722 -0.879225 0
M  V30 5960 H 587.315 -1.50489 -0.422237 0
M  V30 5961 H 588.05 -1.34381 -2.95148 0
M  V30 5962 H 587.835 -3.04999 -2.46411 0
M  V30 5963 H 589.325 -2.54137 -3.31367 0
M  V30 5964 N 589.762 0.448376 -1.51087 0
M  V30 5965 C 590.725 1.52588 -1.71025 0
M  V30 5966 C 591.725 1.49958 -0.580442 0
M  V30 5967 O 592.915 1.52176 -0.847833 0
M  V30 5968 C 590.047 2.92163 -1.75652 0
M  V30 5969 H 591.24 1.36218 -2.67179 0
M  V30 5970 H 588.793 0.676313 -1.4091 0
M  V30 5971 H 589.528 3.13951 -0.812724 0
M  V30 5972 H 589.313 2.95478 -2.57751 0
M  V30 5973 H 590.803 3.70349 -1.92953 0
M  V30 5974 N 591.24 1.41047 0.703093 0
M  V30 5975 C 592.488 1.39723 1.4602 0
M  V30 5976 C 592.809 0.00461257 1.94999 0
M  V30 5977 O 592.079 -0.952292 1.71196 0
M  V30 5978 H 590.659 0.514281 0.541779 0
M  V30 5979 H 593.321 1.76217 0.832678 0
M  V30 5980 H 592.417 2.07982 2.32701 0
M  V30 5981 N 592.718 -0.936591 1.26751 0
M  V30 5982 C 593.966 -1.67998 1.12343 0
M  V30 5983 C 594.287 -1.92137 -0.332938 0
M  V30 5984 O 593.557 -1.52132 -1.23421 0
M  V30 5985 H 592.137 -0.622609 0.412756 0
M  V30 5986 H 594.799 -1.12509 1.59147 0
M  V30 5987 H 593.895 -2.65185 1.64571 0
M  V30 5988 N 594.196 -1.08629 -1.14182 0
M  V30 5989 C 595.126 -0.740003 -2.21464 0
M  V30 5990 C 596.107 0.278591 -1.67803 0
M  V30 5991 O 597.292 0.148461 -1.93632 0
M  V30 5992 C 594.422 -0.150952 -3.46972 0
M  V30 5993 C 593.376 -1.09815 -4.13672 0
M  V30 5994 C 592.702 -0.3712 -5.3341 0
M  V30 5995 C 594.002 -2.43722 -4.61949 0
M  V30 5996 H 595.696 -1.63697 -2.50686 0
M  V30 5997 H 593.242 -0.788526 -1.20492 0
M  V30 5998 H 595.195 0.103325 -4.21273 0
M  V30 5999 H 593.919 0.781164 -3.1712 0
M  V30 6000 H 592.578 -1.33756 -3.41328 0
M  V30 6001 H 592.226 0.564792 -4.99819 0
M  V30 6002 H 591.926 -1.00267 -5.78982 0
M  V30 6003 H 593.45 -0.12503 -6.10472 0
M  V30 6004 H 594.864 -2.24034 -5.27714 0
M  V30 6005 H 593.261 -3.02582 -5.18232 0
M  V30 6006 H 594.331 -3.05082 -3.76899 0
M  V30 6007 N 595.674 1.31259 -0.872281 0
M  V30 6008 C 596.922 1.96233 -0.483409 0
M  V30 6009 C 597.243 1.69276 0.968012 0
M  V30 6010 O 596.513 1.00943 1.67891 0
M  V30 6011 H 595.093 0.726025 -0.175774 0
M  V30 6012 H 597.755 1.60024 -1.11258 0
M  V30 6013 H 596.851 3.05403 -0.643075 0
M  V30 6014 N 597.152 0.631951 1.44375 0
M  V30 6015 C 598.399 0.136767 2.02038 0
M  V30 6016 C 598.727 -1.24168 1.49709 0
M  V30 6017 O 597.982 -1.83809 0.671763 0
M  V30 6018 C 598.281 0.0735861 3.57324 0
M  V30 6019 C 597.947 1.39092 4.28911 0
M  V30 6020 C 596.609 1.75171 4.48184 0
M  V30 6021 C 598.961 2.26042 4.69632 0
M  V30 6022 C 596.289 2.97907 5.05439 0
M  V30 6023 C 598.641 3.4805 5.28246 0
M  V30 6024 C 597.305 3.84351 5.45738 0
M  V30 6025 H 596.575 0.0500466 0.739308 0
M  V30 6026 H 599.222 0.818429 1.7313 0
M  V30 6027 H 597.527 -0.691449 3.8565 0
M  V30 6028 H 599.224 -0.326091 3.99672 0
M  V30 6029 H 595.814 1.10015 4.1424 0
M  V30 6030 H 599.998 1.99463 4.54454 0
M  V30 6031 H 595.254 3.26108 5.17169 0
M  V30 6032 H 599.428 4.15658 5.5875 0
M  V30 6033 H 597.055 4.79538 5.8987 0
M  V30 6034 N 598.631 -1.53133 0.372548 0
M  V30 6035 C 599.594 -2.24569 -0.458389 0
M  V30 6036 C 600.594 -1.25603 -1.00402 0
M  V30 6037 O 601.784 -1.49827 -0.888672 0
M  V30 6038 C 598.916 -2.98783 -1.6414 0
M  V30 6039 H 600.109 -2.99436 0.166799 0
M  V30 6040 H 597.662 -1.55805 0.124357 0
M  V30 6041 H 598.397 -2.28176 -2.30448 0
M  V30 6042 H 598.182 -3.71404 -1.25704 0
M  V30 6043 H 599.672 -3.53068 -2.23008 0
M  V30 6044 N 600.109 -0.101901 -1.5727 0
M  V30 6045 C 601.039 0.851544 -2.17419 0
M  V30 6046 C 602.02 1.28942 -1.10941 0
M  V30 6047 O 603.205 1.35509 -1.39107 0
M  V30 6048 C 600.335 2.10816 -2.75996 0
M  V30 6049 C 599.289 1.80867 -3.87906 0
M  V30 6050 C 598.615 3.13413 -4.33216 0
M  V30 6051 C 599.915 1.0903 -5.10793 0
M  V30 6052 H 601.609 0.350381 -2.97343 0
M  V30 6053 H 599.155 0.16709 -1.43027 0
M  V30 6054 H 601.108 2.77959 -3.16729 0
M  V30 6055 H 599.832 2.63227 -1.93337 0
M  V30 6056 H 598.491 1.16119 -3.47724 0
M  V30 6057 H 598.139 3.63725 -3.47438 0
M  V30 6058 H 597.839 2.94155 -5.08671 0
M  V30 6059 H 599.363 3.81704 -4.76586 0
M  V30 6060 H 600.777 1.66295 -5.48652 0
M  V30 6061 H 599.174 0.99927 -5.91722 0
M  V30 6062 H 600.244 0.0741704 -4.84843 0
M  V30 6063 N 601.587 1.56661 0.17182 0
M  V30 6064 C 602.998 1.71652 0.734329 0
M  V30 6065 C 603.349 0.712335 1.82812 0
M  V30 6066 O 602.474 -0.126401 2.16031 0
M  V30 6067 C 603.069 3.11226 1.3388 0
M  V30 6068 C 601.628 3.27904 1.84813 0
M  V30 6069 C 600.775 2.67603 0.726917 0
M  V30 6070 H 603.726 1.5861 -0.0535665 0
M  V30 6071 H 603.747 3.09849 2.20849 0
M  V30 6072 H 603.259 3.8429 0.54249 0
M  V30 6073 H 601.36 2.59796 2.6709 0
M  V30 6074 H 601.473 4.35637 1.99392 0
M  V30 6075 H 599.837 2.274 1.14723 0
M  V30 6076 H 600.62 3.43252 -0.0575334 0
M  V30 6077 N 603.065 -0.440357 1.51323 0
M  V30 6078 C 604.028 -1.51679 1.71832 0
M  V30 6079 C 605.028 -1.49648 0.588386 0
M  V30 6080 O 606.218 -1.51724 0.855891 0
M  V30 6081 C 603.35 -2.91228 1.77199 0
M  V30 6082 H 604.543 -1.34799 2.67898 0
M  V30 6083 H 602.096 -0.66883 1.41267 0
M  V30 6084 H 602.831 -3.13516 0.829363 0
M  V30 6085 H 602.616 -2.94107 2.59314 0
M  V30 6086 H 604.106 -3.69321 1.94915 0
M  V30 6087 N 604.543 -1.41418 -0.695603 0
M  V30 6088 C 605.506 -1.42988 -1.79129 0
M  V30 6089 C 606.506 -0.320514 -1.57573 0
M  V30 6090 O 607.696 -0.58039 -1.64247 0
M  V30 6091 C 604.828 -1.24122 -3.175 0
M  V30 6092 H 606.021 -2.40526 -1.7913 0
M  V30 6093 H 603.574 -1.2756 -0.903225 0
M  V30 6094 H 604.309 -0.274253 -3.23138 0
M  V30 6095 H 604.094 -2.045 -3.34547 0
M  V30 6096 H 605.584 -1.28056 -3.97481 0
M  V30 6097 N 606.021 0.929856 -1.27246 0
M  V30 6098 C 607.27 1.67182 -1.12842 0
M  V30 6099 C 607.583 1.9287 0.325666 0
M  V30 6100 O 608.789 2.64999 0.590572 0
M  V30 6101 C 607.245 3.01097 -1.97151 0
M  V30 6102 C 606.853 2.83115 -3.47203 0
M  V30 6103 C 608.597 3.78907 -1.91389 0
M  V30 6104 C 606.504 4.12573 -4.23719 0
M  V30 6105 H 605.434 0.627064 -0.418697 0
M  V30 6106 H 608.085 1.0332 -1.51649 0
M  V30 6107 H 606.467 3.66004 -1.51186 0
M  V30 6108 H 607.641 2.26989 -4.01015 0
M  V30 6109 H 605.956 2.18736 -3.54321 0
M  V30 6110 H 608.553 4.74837 -2.45834 0
M  V30 6111 H 608.896 4.0674 -0.887047 0
M  V30 6112 H 609.429 3.20794 -2.35237 0
M  V30 6113 H 606.168 3.8992 -5.26918 0
M  V30 6114 H 605.688 4.68371 -3.74685 0
M  V30 6115 H 607.367 4.8095 -4.32777 0
M  V30 6116 N 607.499 1.09233 1.13605 0
M  V30 6117 C 608.747 0.825525 1.84471 0
M  V30 6118 C 609.068 -0.650702 1.83823 0
M  V30 6119 O 608.338 -1.47204 1.29259 0
M  V30 6120 H 606.918 0.3024 0.683054 0
M  V30 6121 H 609.58 1.38006 1.37624 0
M  V30 6122 H 608.676 1.17727 2.89045 0
M  V30 6123 N 608.977 -1.30795 0.87923 0
M  V30 6124 C 610.223 -1.96653 0.495519 0
M  V30 6125 C 610.556 -1.69282 -0.951703 0
M  V30 6126 O 609.831 -0.994374 -1.6716 0
M  V30 6127 C 610.114 -3.51898 0.764174 0
M  V30 6128 C 609.967 -3.88808 2.2616 0
M  V30 6129 C 611.286 -4.39462 0.236825 0
M  V30 6130 H 608.405 -0.7143 0.181507 0
M  V30 6131 H 611.047 -1.54765 1.10217 0
M  V30 6132 H 609.197 -3.87709 0.247841 0
M  V30 6133 H 610.869 -3.63051 2.8459 0
M  V30 6134 H 609.112 -3.37082 2.73053 0
M  V30 6135 H 609.783 -4.97086 2.4002 0
M  V30 6136 H 612.259 -4.10528 0.678683 0
M  V30 6137 H 611.135 -5.47018 0.454176 0
M  V30 6138 H 611.396 -4.33621 -0.861683 0
M  V30 6139 N 610.455 -0.639598 -1.44038 0
M  V30 6140 C 611.387 0.0987684 -2.28987 0
M  V30 6141 C 612.4 0.80058 -1.41755 0
M  V30 6142 O 613.589 0.660611 -1.65826 0
M  V30 6143 C 610.689 1.16242 -3.18341 0
M  V30 6144 C 609.862 0.541447 -4.34036 0
M  V30 6145 C 608.921 1.50017 -5.04362 0
M  V30 6146 O 607.947 1.01403 -5.60095 0
M  V30 6147 N 609.149 2.83441 -5.06598 0
M  V30 6148 H 611.914 -0.630305 -2.92997 0
M  V30 6149 H 609.475 -0.481376 -1.54578 0
M  V30 6150 H 611.467 1.80429 -3.62253 0
M  V30 6151 H 610.037 1.79362 -2.56024 0
M  V30 6152 H 609.257 -0.27923 -3.9321 0
M  V30 6153 H 610.545 0.107379 -5.08687 0
M  V30 6154 H 609.943 3.2551 -4.62666 0
M  V30 6155 H 608.5 3.42966 -5.54272 0
M  V30 6156 N 611.933 1.52934 -0.380664 0
M  V30 6157 C 612.863 2.29118 0.450268 0
M  V30 6158 C 613.844 1.32153 1.07096 0
M  V30 6159 O 615.029 1.61038 1.08537 0
M  V30 6160 C 612.159 3.09161 1.58231 0
M  V30 6161 C 611.113 4.13938 1.0881 0
M  V30 6162 C 610.439 4.82153 2.31155 0
M  V30 6163 C 611.739 5.22048 0.162146 0
M  V30 6164 H 613.433 2.98826 -0.185361 0
M  V30 6165 H 610.979 1.43715 -0.0905886 0
M  V30 6166 H 612.932 3.61211 2.17036 0
M  V30 6167 H 611.656 2.3717 2.2454 0
M  V30 6168 H 610.315 3.62855 0.522633 0
M  V30 6169 H 609.963 4.06719 2.95953 0
M  V30 6170 H 609.663 5.52966 1.98752 0
M  V30 6171 H 611.187 5.37004 2.90618 0
M  V30 6172 H 612.601 5.6951 0.658126 0
M  V30 6173 H 610.998 6.00057 -0.0717122 0
M  V30 6174 H 612.068 4.78398 -0.791438 0
M  V30 6175 N 613.412 0.11024 1.57214 0
M  V30 6176 C 614.375 -0.828808 2.1369 0
M  V30 6177 C 615.375 -1.20059 1.06969 0
M  V30 6178 O 616.565 -1.12754 1.32786 0
M  V30 6179 C 613.697 -2.11959 2.66994 0
M  V30 6180 H 614.89 -0.338146 2.97988 0
M  V30 6181 H 612.443 -0.138913 1.55681 0
M  V30 6182 H 613.178 -2.65476 1.8626 0
M  V30 6183 H 612.963 -1.86258 3.45037 0
M  V30 6184 H 614.453 -2.79105 3.10629 0
M  V30 6185 N 614.89 -1.56749 -0.16351 0
M  V30 6186 C 615.8 -2.00255 -1.2221 0
M  V30 6187 C 616.816 -0.915194 -1.47987 0
M  V30 6188 O 617.992 -1.22342 -1.59982 0
M  V30 6189 C 615.057 -2.36035 -2.53946 0
M  V30 6190 C 614.118 -3.58637 -2.35962 0
M  V30 6191 C 613.351 -3.92701 -3.61416 0
M  V30 6192 O 613.574 -3.27632 -4.66919 0
M  V30 6193 O 612.508 -4.86019 -3.55062 0
M  V30 6194 H 616.334 -2.90586 -0.882794 0
M  V30 6195 H 613.919 -1.44721 -0.370978 0
M  V30 6196 H 615.801 -2.59982 -3.31643 0
M  V30 6197 H 614.476 -1.48863 -2.8744 0
M  V30 6198 H 613.383 -3.39898 -1.5627 0
M  V30 6199 H 614.716 -4.46374 -2.0739 0
M  V30 6200 N 616.368 0.432326 -1.51554 0
M  V30 6201 C 617.779 1.01202 -1.56892 0
M  V30 6202 C 618.13 1.92175 -0.395394 0
M  V30 6203 O 617.255 2.10844 0.487198 0
M  V30 6204 C 617.85 1.84217 -2.8434 0
M  V30 6205 C 616.409 2.37228 -2.92233 0
M  V30 6206 C 615.556 1.16576 -2.51606 0
M  V30 6207 H 618.507 0.213407 -1.57259 0
M  V30 6208 H 618.528 2.69721 -2.68385 0
M  V30 6209 H 618.04 1.17979 -3.69733 0
M  V30 6210 H 616.141 3.06905 -2.11282 0
M  V30 6211 H 616.254 2.69682 -3.95991 0
M  V30 6212 H 614.618 1.51263 -2.04919 0
M  V30 6213 H 615.401 0.519404 -3.39348 0
M  V30 6214 N 617.846 1.41785 0.688094 0
M  V30 6215 C 618.756 1.46596 1.83158 0
M  V30 6216 C 619.772 0.355862 1.70322 0
M  V30 6217 O 620.948 0.604737 1.92106 0
M  V30 6218 C 618.013 1.35322 3.192 0
M  V30 6219 C 617.074 2.56711 3.4409 0
M  V30 6220 C 616.307 2.45965 4.73642 0
M  V30 6221 O 616.53 1.48827 5.50642 0
M  V30 6222 O 615.464 3.35859 4.99482 0
M  V30 6223 H 619.29 2.43083 1.82056 0
M  V30 6224 H 616.875 1.23404 0.842126 0
M  V30 6225 H 618.757 1.31347 4.00407 0
M  V30 6226 H 617.432 0.419536 3.2097 0
M  V30 6227 H 616.339 2.66262 2.62784 0
M  V30 6228 H 617.672 3.48933 3.47141 0
M  V30 6229 N 619.324 -0.923095 1.27737 0
M  V30 6230 C 620.74 -1.19985 1.05241 0
M  V30 6231 C 620.94 -2.00391 -0.21113 0
M  V30 6232 O 619.996 -2.35324 -0.915366 0
M  V30 6233 C 621.309 -1.94352 2.29451 0
M  V30 6234 C 622.857 -2.07273 2.34536 0
M  V30 6235 C 623.332 -2.85046 3.58487 0
M  V30 6236 N 624.823 -2.92612 3.59072 0
M  V30 6237 C 625.558 -3.53266 4.51654 0
M  V30 6238 N 625.054 -4.15274 5.54545 0
M  V30 6239 N 626.847 -3.50714 4.39268 0
M  V30 6240 H 618.998 -0.386042 2.08862 0
M  V30 6241 H 621.261 -0.233407 0.918817 0
M  V30 6242 H 620.967 -1.42692 3.21453 0
M  V30 6243 H 620.841 -2.94947 2.3513 0
M  V30 6244 H 623.228 -2.58117 1.43037 0
M  V30 6245 H 623.309 -1.05884 2.32857 0
M  V30 6246 H 622.953 -2.34884 4.50324 0
M  V30 6247 H 622.883 -3.8673 3.57418 0
M  V30 6248 H 625.374 -2.48547 2.84663 0
M  V30 6249 H 625.687 -4.59507 6.21348 0
M  V30 6250 H 624.032 -4.13806 5.58382 0
M  V30 6251 H 627.223 -3.01475 3.58093 0
M  V30 6252 H 627.396 -3.97693 5.1161 0
M  V30 6253 N 620.802 -1.09834 -1.13024 0
M  V30 6254 C 621.734 -0.699379 -2.18269 0
M  V30 6255 C 622.747 0.260841 -1.60697 0
M  V30 6256 O 623.936 0.0462538 -1.7844 0
M  V30 6257 C 621.036 -0.0104537 -3.38898 0
M  V30 6258 C 620.209 -0.993275 -4.25973 0
M  V30 6259 C 619.268 -0.336982 -5.2512 0
M  V30 6260 O 618.294 -0.985892 -5.60597 0
M  V30 6261 N 619.496 0.90716 -5.73368 0
M  V30 6262 H 622.261 -1.60486 -2.5311 0
M  V30 6263 H 619.822 -0.986337 -1.28386 0
M  V30 6264 H 621.814 0.43991 -4.02302 0
M  V30 6265 H 620.384 0.797335 -3.0226 0
M  V30 6266 H 619.604 -1.62208 -3.5928 0
M  V30 6267 H 620.892 -1.65876 -4.81002 0
M  V30 6268 H 620.29 1.45384 -5.46699 0
M  V30 6269 H 618.847 1.30077 -6.38689 0
M  V30 6270 N 622.28 1.30327 -0.886154 0
M  V30 6271 C 623.526 1.96388 -0.505941 0
M  V30 6272 C 623.859 1.69784 0.942712 0
M  V30 6273 O 623.134 1.00322 1.6663 0
M  V30 6274 C 623.417 3.51488 -0.782826 0
M  V30 6275 C 623.27 3.87603 -2.28219 0
M  V30 6276 C 624.589 4.39331 -0.260128 0
M  V30 6277 H 621.708 0.713327 -0.185292 0
M  V30 6278 H 624.35 1.54178 -1.11036 0
M  V30 6279 H 622.5 3.87572 -0.268399 0
M  V30 6280 H 624.172 3.61537 -2.86512 0
M  V30 6281 H 622.415 3.3563 -2.74837 0
M  V30 6282 H 623.086 4.95806 -2.42653 0
M  V30 6283 H 625.562 4.10162 -0.700444 0
M  V30 6284 H 624.438 5.46769 -0.483179 0
M  V30 6285 H 624.699 4.34072 0.838674 0
M  V30 6286 N 623.758 0.647228 1.43697 0
M  V30 6287 C 625.007 0.155552 2.01099 0
M  V30 6288 C 625.32 -1.23569 1.51624 0
M  V30 6289 O 626.526 -1.82226 2.01261 0
M  V30 6290 C 624.982 0.227296 3.59182 0
M  V30 6291 C 624.59 1.62086 4.17651 0
M  V30 6292 C 626.334 -0.207085 4.23995 0
M  V30 6293 C 624.241 1.64685 5.68008 0
M  V30 6294 H 623.171 0.0543895 0.752036 0
M  V30 6295 H 625.822 0.808386 1.64734 0
M  V30 6296 H 624.204 -0.492937 3.9292 0
M  V30 6297 H 625.378 2.36597 3.95422 0
M  V30 6298 H 623.693 2.0007 3.65186 0
M  V30 6299 H 626.29 -0.207426 5.34298 0
M  V30 6300 H 626.633 -1.23742 3.97484 0
M  V30 6301 H 627.166 0.461193 3.95118 0
M  V30 6302 H 623.905 2.65608 5.99277 0
M  V30 6303 H 623.425 0.944914 5.9231 0
M  V30 6304 H 625.104 1.38792 6.31938 0
M  V30 6305 N 625.236 -1.5273 0.388769 0
M  V30 6306 C 626.199 -2.25043 -0.434544 0
M  V30 6307 C 627.199 -1.26661 -0.990644 0
M  V30 6308 O 628.389 -1.50762 -0.872731 0
M  V30 6309 C 625.521 -3.00507 -1.60961 0
M  V30 6310 H 626.714 -2.99242 0.198549 0
M  V30 6311 H 624.267 -1.55664 0.140875 0
M  V30 6312 H 625.002 -2.30607 -2.28015 0
M  V30 6313 H 624.787 -3.72716 -1.21757 0
M  V30 6314 H 626.277 -3.55413 -2.19251 0
M  V30 6315 N 626.714 -0.118576 -1.57153 0
M  V30 6316 C 627.96 0.540326 -1.95469 0
M  V30 6317 C 628.293 1.66356 -1.00196 0
M  V30 6318 O 627.568 1.94461 -0.039104 0
M  V30 6319 C 627.851 1.07342 -3.43729 0
M  V30 6320 C 627.704 -0.0463732 -4.49776 0
M  V30 6321 C 629.023 1.96442 -3.93826 0
M  V30 6322 H 626.142 0.19494 -0.710751 0
M  V30 6323 H 628.784 -0.19405 -1.89006 0
M  V30 6324 H 626.934 1.69925 -3.49368 0
M  V30 6325 H 628.606 -0.681648 -4.56236 0
M  V30 6326 H 626.849 -0.709574 -4.27957 0
M  V30 6327 H 627.52 0.367856 -5.50773 0
M  V30 6328 H 629.996 1.43731 -3.90488 0
M  V30 6329 H 628.872 2.3066 -4.98084 0
M  V30 6330 H 629.133 2.89077 -3.34495 0
M  V30 6331 N 628.193 1.56834 0.155195 0
M  V30 6332 C 629.442 1.82088 0.867567 0
M  V30 6333 C 629.755 0.69849 1.82703 0
M  V30 6334 O 630.961 0.836407 2.58295 0
M  V30 6335 C 629.417 3.22707 1.59336 0
M  V30 6336 C 629.025 4.42859 0.676719 0
M  V30 6337 C 630.769 3.57242 2.293 0
M  V30 6338 C 628.676 5.74501 1.40367 0
M  V30 6339 H 627.606 0.679057 0.327715 0
M  V30 6340 H 630.257 1.83105 0.120351 0
M  V30 6341 H 628.639 3.16054 2.38591 0
M  V30 6342 H 629.813 4.60731 -0.0800196 0
M  V30 6343 H 628.128 4.16311 0.0859129 0
M  V30 6344 H 630.725 4.52847 2.84312 0
M  V30 6345 H 631.068 2.82901 3.05406 0
M  V30 6346 H 631.601 3.6552 1.56972 0
M  V30 6347 H 628.34 6.51915 0.684623 0
M  V30 6348 H 627.86 5.60579 2.13332 0
M  V30 6349 H 629.539 6.17016 1.94681 0
M  V30 6350 N 629.671 -0.424282 1.51781 0
M  V30 6351 C 630.919 -1.17028 1.64769 0
M  V30 6352 C 631.24 -1.91409 0.372523 0
M  V30 6353 O 630.51 -1.86091 -0.612108 0
M  V30 6354 H 629.09 -0.434992 0.607282 0
M  V30 6355 H 631.752 -0.485169 1.88765 0
M  V30 6356 H 630.848 -1.8927 2.4816 0
M  V30 6357 N 631.149 -1.42148 -0.680565 0
M  V30 6358 C 632.426 -1.32795 -1.43614 0
M  V30 6359 C 632.806 0.037415 -2.11067 0
M  V30 6360 O 632.154 1.05258 -2.02813 0
M  V30 6361 C 632.364 -2.49206 -2.44331 0
M  V30 6362 C 633.712 -2.91059 -3.09144 0
M  V30 6363 O 634.736 -2.49054 -2.54657 0
M  V30 6364 O 633.595 -3.63741 -4.07866 0
M  V30 6365 H 630.689 -0.523397 -0.640301 0
M  V30 6366 H 633.235 -1.54144 -0.709775 0
M  V30 6367 H 632.007 -3.40252 -1.93247 0
M  V30 6368 H 631.63 -2.29813 -3.24456 0
M  V30 6369 N 632.627 0.916307 -1.28225 0
M  V30 6370 C 633.875 1.6619 -1.15002 0
M  V30 6371 C 634.196 1.92642 0.302329 0
M  V30 6372 O 633.466 1.54076 1.20985 0
M  V30 6373 H 632.046 0.615964 -0.422608 0
M  V30 6374 H 634.708 1.09963 -1.60917 0
M  V30 6375 H 633.804 2.62533 -1.68769 0
M  V30 6376 N 634.105 1.10431 1.1244 0
M  V30 6377 C 635.33 0.869089 1.88313 0
M  V30 6378 C 635.755 -0.574912 1.79099 0
M  V30 6379 O 635.113 -1.40496 1.14589 0
M  V30 6380 C 635.161 1.32208 3.3549 0
M  V30 6381 O 634.265 0.487092 4.09513 0
M  V30 6382 H 633.606 0.313894 0.585121 0
M  V30 6383 H 636.136 1.47111 1.42195 0
M  V30 6384 H 636.146 1.31201 3.86329 0
M  V30 6385 H 634.821 2.37364 3.41513 0
M  V30 6386 H 633.398 0.562372 3.68635 0
M  V30 6387 N 635.583 -1.29855 0.893053 0
M  V30 6388 C 636.546 -2.26183 0.370687 0
M  V30 6389 C 637.546 -1.53108 -0.491385 0
M  V30 6390 O 638.736 -1.71643 -0.297386 0
M  V30 6391 C 635.868 -3.37633 -0.470827 0
M  V30 6392 H 637.061 -2.73903 1.22135 0
M  V30 6393 H 634.614 -1.41183 0.67061 0
M  V30 6394 H 635.349 -2.95241 -1.34175 0
M  V30 6395 H 635.134 -3.91825 0.146784 0
M  V30 6396 H 636.624 -4.09313 -0.827825 0
M  V30 6397 N 637.061 -0.65484 -1.43351 0
M  V30 6398 C 638.009 0.0476784 -2.32551 0
M  V30 6399 C 639.003 0.811403 -1.48703 0
M  V30 6400 O 640.209 0.721621 -1.64902 0
M  V30 6401 H 636.584 0.0342038 -0.751222 0
M  V30 6402 H 638.555 -0.722342 -2.89525 0
M  V30 6403 C 637.304 0.999251 -3.33032 0
M  V30 6404 H 636.627 0.421005 -3.97577 0
M  V30 6405 H 638.067 1.45986 -3.98076 0
M  V30 6406 C 636.526 2.09606 -2.63756 0
M  V30 6407 O 637.056 3.18004 -2.4543 0
M  V30 6408 N 635.262 1.86207 -2.23103 0
M  V30 6409 H 634.809 0.980555 -2.38208 0
M  V30 6410 H 634.767 2.59787 -1.77081 0
M  V30 6411 N 638.539 1.52521 -0.396863 0
M  V30 6412 C 639.769 2.05792 0.182485 0
M  V30 6413 C 640.177 1.26784 1.40436 0
M  V30 6414 O 639.52 0.309617 1.81072 0
M  V30 6415 C 639.582 3.54291 0.609781 0
M  V30 6416 C 639.246 4.5426 -0.499674 0
M  V30 6417 C 640.243 5.01812 -1.35944 0
M  V30 6418 C 637.928 4.97827 -0.668864 0
M  V30 6419 C 639.922 5.91562 -2.37346 0
M  V30 6420 C 637.609 5.87376 -1.68621 0
M  V30 6421 C 638.607 6.34137 -2.53692 0
M  V30 6422 O 638.295 7.21915 -3.53686 0
M  V30 6423 H 638.027 0.675362 0.0293583 0
M  V30 6424 H 640.581 1.97539 -0.56281 0
M  V30 6425 H 638.811 3.60188 1.40717 0
M  V30 6426 H 640.5 3.90267 1.11565 0
M  V30 6427 H 641.266 4.68879 -1.24008 0
M  V30 6428 H 637.145 4.60997 -0.0163971 0
M  V30 6429 H 640.689 6.27983 -3.03782 0
M  V30 6430 H 636.586 6.19723 -1.80593 0
M  V30 6431 H 637.354 7.39996 -3.49784 0
M  V30 6432 N 640.017 0.126909 1.57088 0
M  V30 6433 C 641.242 -0.53997 2.00248 0
M  V30 6434 C 641.667 -1.58927 1.00618 0
M  V30 6435 O 641.025 -1.81288 -0.0210131 0
M  V30 6436 C 641.073 -1.13565 3.4225 0
M  V30 6437 O 640.177 -2.25103 3.45547 0
M  V30 6438 H 639.518 -0.13412 0.650314 0
M  V30 6439 H 642.048 0.217718 2.03438 0
M  V30 6440 H 642.058 -1.46925 3.80627 0
M  V30 6441 H 640.733 -0.367122 4.14277 0
M  V30 6442 H 639.31 -1.93123 3.18995 0
M  V30 6443 N 641.495 -1.56914 -0.146875 0
M  V30 6444 C 642.744 -1.82546 -0.857898 0
M  V30 6445 C 643.057 -0.708169 -1.8233 0
M  V30 6446 O 644.263 -0.850093 -2.57848 0
M  V30 6447 C 642.719 -3.23548 -1.57623 0
M  V30 6448 C 642.327 -4.43212 -0.653224 0
M  V30 6449 C 644.071 -3.58453 -2.27402 0
M  V30 6450 C 641.978 -5.75237 -1.37318 0
M  V30 6451 H 640.908 -0.680786 -0.32411 0
M  V30 6452 H 643.559 -1.83166 -0.110639 0
M  V30 6453 H 641.941 -3.17315 -2.36912 0
M  V30 6454 H 643.115 -4.60682 0.104452 0
M  V30 6455 H 641.43 -4.16351 -0.0638336 0
M  V30 6456 H 644.027 -4.54349 -2.81907 0
M  V30 6457 H 644.37 -2.84516 -3.03901 0
M  V30 6458 H 644.903 -3.66347 -1.55032 0
M  V30 6459 H 641.642 -6.52269 -0.650041 0
M  V30 6460 H 641.162 -5.61703 -2.10357 0
M  V30 6461 H 642.841 -6.18039 -1.91406 0
M  V30 6462 N 642.974 0.416227 -1.52004 0
M  V30 6463 C 644.199 1.19029 -1.69843 0
M  V30 6464 C 644.624 1.83708 -0.404103 0
M  V30 6465 O 643.982 1.69711 0.637787 0
M  V30 6466 C 644.03 2.23439 -2.83032 0
M  V30 6467 O 643.134 3.29419 -2.48106 0
M  V30 6468 H 642.475 0.347785 -0.565634 0
M  V30 6469 H 645.005 0.488871 -1.98674 0
M  V30 6470 H 645.015 2.67884 -3.07737 0
M  V30 6471 H 643.69 1.75745 -3.76944 0
M  V30 6472 H 642.267 2.90303 -2.34048 0
M  V30 6473 N 644.452 1.42507 0.673017 0
M  V30 6474 C 645.415 1.4582 1.76831 0
M  V30 6475 C 646.415 0.345542 1.57043 0
M  V30 6476 O 647.605 0.606447 1.63303 0
M  V30 6477 C 644.737 1.29158 3.15485 0
M  V30 6478 H 645.93 2.43345 1.7528 0
M  V30 6479 H 643.483 1.28981 0.882817 0
M  V30 6480 H 644.218 0.325626 3.22661 0
M  V30 6481 H 644.003 2.09797 3.31252 0
M  V30 6482 H 645.493 1.34363 3.95394 0
M  V30 6483 N 645.93 -0.909495 1.28709 0
M  V30 6484 C 646.86 -2.0291 1.15542 0
M  V30 6485 C 647.841 -1.7002 0.0521017 0
M  V30 6486 O 649.026 -1.92835 0.229849 0
M  V30 6487 C 646.156 -3.37458 0.820935 0
M  V30 6488 C 645.11 -3.84524 1.87949 0
M  V30 6489 C 644.436 -5.16086 1.39854 0
M  V30 6490 C 645.736 -4.05918 3.28676 0
M  V30 6491 H 647.43 -2.14183 2.09203 0
M  V30 6492 H 644.976 -1.02913 1.00722 0
M  V30 6493 H 646.929 -4.1528 0.715571 0
M  V30 6494 H 645.653 -3.26249 -0.151374 0
M  V30 6495 H 644.312 -3.08911 1.97408 0
M  V30 6496 H 643.96 -5.01284 0.41518 0
M  V30 6497 H 643.66 -5.48547 2.1064 0
M  V30 6498 H 645.184 -5.96459 1.30649 0
M  V30 6499 H 646.598 -4.74252 3.22115 0
M  V30 6500 H 644.995 -4.49717 3.97334 0
M  V30 6501 H 646.065 -3.10583 3.72379 0
M  V30 6502 N 647.408 -1.11026 -1.11852 0
M  V30 6503 C 648.654 -0.867633 -1.83967 0
M  V30 6504 C 649.009 0.600309 -1.82795 0
M  V30 6505 O 648.302 1.43731 -1.26696 0
M  V30 6506 C 648.496 -1.35777 -3.30604 0
M  V30 6507 C 648.325 -2.87183 -3.46058 0
M  V30 6508 C 647.095 -3.55256 -3.59334 0
M  V30 6509 C 649.293 -3.85258 -3.40706 0
M  V30 6510 N 647.275 -4.94923 -3.63215 0
M  V30 6511 C 648.646 -5.1097 -3.51155 0
M  V30 6512 C 650.701 -3.77879 -3.2421 0
M  V30 6513 C 649.404 -6.30171 -3.46809 0
M  V30 6514 C 651.43 -4.96586 -3.2118 0
M  V30 6515 C 650.792 -6.21149 -3.32196 0
M  V30 6516 H 646.891 -0.370574 -0.688621 0
M  V30 6517 H 649.475 -1.41379 -1.33865 0
M  V30 6518 H 647.646 -0.83885 -3.79233 0
M  V30 6519 H 649.378 -1.05874 -3.90606 0
M  V30 6520 H 646.133 -3.05714 -3.61713 0
M  V30 6521 H 646.557 -5.67726 -3.68804 0
M  V30 6522 H 651.199 -2.82485 -3.14582 0
M  V30 6523 H 648.917 -7.25847 -3.55206 0
M  V30 6524 H 652.503 -4.92591 -3.09589 0
M  V30 6525 H 651.383 -7.11463 -3.29834 0
M  V30 6526 N 648.886 1.2938 -0.899927 0
M  V30 6527 C 650.114 1.99691 -0.541386 0
M  V30 6528 C 650.529 1.67355 0.873936 0
M  V30 6529 O 649.886 0.918728 1.57688 0
M  V30 6530 C 649.937 3.54168 -0.72438 0
M  V30 6531 O 649.658 3.85359 -2.08399 0
M  V30 6532 C 651.159 4.41746 -0.370819 0
M  V30 6533 H 648.379 0.638037 -0.207726 0
M  V30 6534 H 650.923 1.6491 -1.20934 0
M  V30 6535 H 649.078 3.87261 -0.103607 0
M  V30 6536 H 649.492 4.80032 -2.11352 0
M  V30 6537 H 650.966 5.49256 -0.549693 0
M  V30 6538 H 651.443 4.33712 0.692148 0
M  V30 6539 H 652.049 4.14125 -0.968543 0
M  V30 6540 N 650.364 0.662433 1.43002 0
M  V30 6541 C 651.327 -0.0142016 2.29196 0
M  V30 6542 C 652.327 -0.741394 1.42688 0
M  V30 6543 O 653.517 -0.581257 1.64216 0
M  V30 6544 C 650.649 -1.03084 3.24941 0
M  V30 6545 H 651.842 0.7443 2.90517 0
M  V30 6546 H 649.395 0.424133 1.50435 0
M  V30 6547 H 650.13 -1.81826 2.68533 0
M  V30 6548 H 649.915 -0.512946 3.8873 0
M  V30 6549 H 651.405 -1.50308 3.89612 0
M  V30 6550 N 651.842 -1.52309 0.404946 0
M  V30 6551 C 652.805 -2.25491 -0.410651 0
M  V30 6552 C 653.805 -1.27704 -0.977154 0
M  V30 6553 O 654.995 -1.51679 -0.856691 0
M  V30 6554 C 652.127 -3.02197 -1.57765 0
M  V30 6555 H 653.32 -2.99015 0.230277 0
M  V30 6556 H 650.873 -1.55506 0.157377 0
M  V30 6557 H 651.608 -2.33013 -2.25556 0
M  V30 6558 H 651.393 -3.73987 -1.17797 0
M  V30 6559 H 652.883 -3.57719 -2.15469 0
M  V30 6560 N 653.32 -0.135238 -1.57019 0
M  V30 6561 C 654.252 0.839675 -2.13265 0
M  V30 6562 C 655.265 1.21887 -1.07923 0
M  V30 6563 O 656.454 1.16499 -1.35241 0
M  V30 6564 C 653.554 2.13647 -2.63075 0
M  V30 6565 C 652.727 1.92646 -3.92691 0
M  V30 6566 C 651.786 3.06205 -4.27931 0
M  V30 6567 O 650.812 2.78409 -4.96465 0
M  V30 6568 N 652.014 4.33072 -3.86561 0
M  V30 6569 H 654.779 0.359026 -2.97542 0
M  V30 6570 H 652.34 0.0486979 -1.61827 0
M  V30 6571 H 654.332 2.88641 -2.8367 0
M  V30 6572 H 652.902 2.5301 -1.83588 0
M  V30 6573 H 652.122 1.01754 -3.80841 0
M  V30 6574 H 653.41 1.75939 -4.77413 0
M  V30 6575 H 652.808 4.58526 -3.31316 0
M  V30 6576 H 651.365 5.04885 -4.12231 0
M  V30 6577 N 654.798 1.5699 0.138552 0
M  V30 6578 C 656.028 1.87704 0.863184 0
M  V30 6579 C 656.436 0.722411 1.74865 0
M  V30 6580 O 655.779 -0.316636 1.80951 0
M  V30 6581 C 655.841 3.13219 1.76449 0
M  V30 6582 C 655.505 4.44648 1.05532 0
M  V30 6583 C 656.502 5.18318 0.405252 0
M  V30 6584 C 654.187 4.91367 1.04231 0
M  V30 6585 C 656.181 6.36916 -0.24835 0
M  V30 6586 C 653.868 6.09887 0.384904 0
M  V30 6587 C 654.866 6.82508 -0.259292 0
M  V30 6588 O 654.554 7.98775 -0.906258 0
M  V30 6589 H 654.286 0.626255 0.254521 0
M  V30 6590 H 656.84 2.04966 0.133472 0
M  V30 6591 H 655.07 2.91988 2.53535 0
M  V30 6592 H 656.759 3.30111 2.36181 0
M  V30 6593 H 657.525 4.83289 0.407053 0
M  V30 6594 H 653.404 4.34759 1.53315 0
M  V30 6595 H 656.948 6.93538 -0.751755 0
M  V30 6596 H 652.845 6.44376 0.380799 0
M  V30 6597 H 653.613 8.14494 -0.80877 0
M  V30 6598 N 656.276 -0.40816 1.52223 0
M  V30 6599 C 657.224 -1.51788 1.76248 0
M  V30 6600 C 658.218 -1.57264 0.629638 0
M  V30 6601 O 659.424 -1.60659 0.811704 0
M  V30 6602 H 655.799 -0.504823 0.557367 0
M  V30 6603 H 657.77 -1.2871 2.69214 0
M  V30 6604 C 656.519 -2.89145 1.93107 0
M  V30 6605 H 655.842 -2.85674 2.79697 0
M  V30 6606 H 657.282 -3.66082 2.13916 0
M  V30 6607 C 655.741 -3.29581 0.698431 0
M  V30 6608 O 656.271 -4.01479 -0.133238 0
M  V30 6609 N 654.477 -2.85651 0.53405 0
M  V30 6610 H 654.024 -2.2731 1.21194 0
M  V30 6611 H 653.982 -3.13065 -0.289387 0
M  V30 6612 N 657.755 -1.42862 -0.66545 0
M  V30 6613 C 659.004 -1.43119 -1.42126 0
M  V30 6614 C 659.317 -0.0545297 -1.95524 0
M  V30 6615 O 660.523 0.0654747 -2.71421 0
M  V30 6616 C 658.979 -2.51797 -2.5715 0
M  V30 6617 C 658.587 -3.95514 -2.10411 0
M  V30 6618 C 660.331 -2.61233 -3.346 0
M  V30 6619 C 658.238 -4.95682 -3.22573 0
M  V30 6620 H 657.168 -0.532349 -0.533966 0
M  V30 6621 H 659.819 -1.68806 -0.719506 0
M  V30 6622 H 658.201 -2.19292 -3.29738 0
M  V30 6623 H 659.375 -4.3742 -1.44915 0
M  V30 6624 H 657.69 -3.90012 -1.45874 0
M  V30 6625 H 660.287 -3.33248 -4.18151 0
M  V30 6626 H 660.63 -1.65896 -3.81817 0
M  V30 6627 H 661.163 -2.9298 -2.69087 0
M  V30 6628 H 657.902 -5.92529 -2.80338 0
M  V30 6629 H 657.422 -4.58399 -3.86821 0
M  V30 6630 H 659.101 -5.17828 -3.87896 0
M  V30 6631 N 659.233 0.902656 -1.29189 0
M  V30 6632 C 660.644 1.46809 -1.15343 0
M  V30 6633 C 660.995 1.94568 0.252517 0
M  V30 6634 O 660.12 1.83454 1.14777 0
M  V30 6635 C 660.715 2.66829 -2.08776 0
M  V30 6636 C 659.274 3.19518 -1.98961 0
M  V30 6637 C 658.421 1.92212 -1.99874 0
M  V30 6638 H 661.372 0.714282 -1.41717 0
M  V30 6639 H 661.393 3.42465 -1.65826 0
M  V30 6640 H 660.905 2.32039 -3.11094 0
M  V30 6641 H 659.006 3.59008 -0.99721 0
M  V30 6642 H 659.119 3.84016 -2.86477 0
M  V30 6643 H 657.483 2.0979 -1.44431 0
M  V30 6644 H 658.266 1.59702 -3.03891 0
M  V30 6645 N 660.711 1.11618 1.11262 0
M  V30 6646 C 661.939 0.888739 1.8684 0
M  V30 6647 C 662.354 -0.561558 1.80255 0
M  V30 6648 O 661.711 -1.38782 1.18515 0
M  V30 6649 C 661.762 1.34422 3.35579 0
M  V30 6650 O 661.483 2.73766 3.42029 0
M  V30 6651 C 662.984 1.15246 4.28058 0
M  V30 6652 H 660.204 0.318152 0.590779 0
M  V30 6653 H 662.748 1.48398 1.40707 0
M  V30 6654 H 660.903 0.79239 3.7921 0
M  V30 6655 H 661.317 2.9355 4.34659 0
M  V30 6656 H 662.791 1.52015 5.30656 0
M  V30 6657 H 663.268 0.0922007 4.39103 0
M  V30 6658 H 663.874 1.69136 3.90222 0
M  V30 6659 N 662.189 -1.289 0.906776 0
M  V30 6660 C 663.438 -1.9455 0.532262 0
M  V30 6661 C 663.751 -1.72219 -0.927353 0
M  V30 6662 O 664.957 -2.32033 -1.40971 0
M  V30 6663 C 663.413 -3.48438 0.901041 0
M  V30 6664 C 663.021 -3.79558 2.37991 0
M  V30 6665 C 664.765 -4.20284 0.596777 0
M  V30 6666 C 662.672 -5.26723 2.68918 0
M  V30 6667 H 661.602 -0.728259 0.195333 0
M  V30 6668 H 664.253 -1.46519 1.10474 0
M  V30 6669 H 662.635 -3.95162 0.257419 0
M  V30 6670 H 663.809 -3.43668 3.06967 0
M  V30 6671 H 662.124 -3.20868 2.65391 0
M  V30 6672 H 664.721 -5.28612 0.8046 0
M  V30 6673 H 665.064 -4.13694 -0.465072 0
M  V30 6674 H 665.597 -3.79315 1.19855 0
M  V30 6675 H 662.336 -5.38384 3.73928 0
M  V30 6676 H 661.856 -5.63836 2.04571 0
M  V30 6677 H 663.535 -5.94391 2.55555 0
M  V30 6678 N 663.667 -0.670007 -1.42649 0
M  V30 6679 C 664.914 -0.190286 -2.01604 0
M  V30 6680 C 665.242 1.20155 -1.52948 0
M  V30 6681 O 664.497 1.81964 -0.72026 0
M  V30 6682 C 664.796 -0.168298 -3.57004 0
M  V30 6683 C 664.462 -1.50415 -4.25072 0
M  V30 6684 C 663.124 -1.86992 -4.43382 0
M  V30 6685 C 665.476 -2.38414 -4.63474 0
M  V30 6686 C 662.804 -3.11203 -4.97363 0
M  V30 6687 C 665.156 -3.61933 -5.18833 0
M  V30 6688 C 663.82 -3.98685 -5.35356 0
M  V30 6689 H 663.09 -0.0696305 -0.737721 0
M  V30 6690 H 665.737 -0.864044 -1.70899 0
M  V30 6691 H 664.042 0.588958 -3.87348 0
M  V30 6692 H 665.739 0.22001 -4.00396 0
M  V30 6693 H 662.329 -1.20959 -4.11177 0
M  V30 6694 H 666.513 -2.11442 -4.49006 0
M  V30 6695 H 661.769 -3.39705 -5.08341 0
M  V30 6696 H 665.943 -4.30326 -5.47533 0
M  V30 6697 H 663.57 -4.95009 -5.76949 0
M  V30 6698 N 665.145 1.52092 -0.413018 0
M  V30 6699 C 666.391 2.02154 0.161737 0
M  V30 6700 C 666.724 1.29789 1.44459 0
M  V30 6701 O 665.999 0.405378 1.90229 0
M  V30 6702 C 666.282 3.5781 0.405463 0
M  V30 6703 C 666.135 4.40819 -0.894335 0
M  V30 6704 C 667.454 4.23821 1.18591 0
M  V30 6705 H 664.573 0.734769 0.0573077 0
M  V30 6706 H 667.215 1.81948 -0.547247 0
M  V30 6707 H 665.365 3.75158 1.0094 0
M  V30 6708 H 667.037 4.35175 -1.53039 0
M  V30 6709 H 665.28 4.06877 -1.50444 0
M  V30 6710 H 665.951 5.47819 -0.678144 0
M  V30 6711 H 668.427 4.10596 0.674573 0
M  V30 6712 H 667.303 5.32663 1.3252 0
M  V30 6713 H 667.564 3.83038 2.20758 0
M  V30 6714 N 666.623 0.143563 1.56945 0
M  V30 6715 C 667.872 -0.50835 1.95189 0
M  V30 6716 C 668.185 -1.66239 1.03073 0
M  V30 6717 O 669.391 -2.3787 1.30882 0
M  V30 6718 C 667.847 -0.955735 3.46978 0
M  V30 6719 C 667.455 0.171183 4.47673 0
M  V30 6720 C 669.199 -1.57763 3.94095 0
M  V30 6721 C 667.106 -0.294279 5.90667 0
M  V30 6722 H 666.036 -0.193679 0.728701 0
M  V30 6723 H 668.687 0.227357 1.82086 0
M  V30 6724 H 667.069 -1.7466 3.55401 0
M  V30 6725 H 668.243 0.948049 4.50942 0
M  V30 6726 H 666.558 0.701273 4.10452 0
M  V30 6727 H 669.155 -1.93745 4.98364 0
M  V30 6728 H 669.498 -2.46531 3.35452 0
M  V30 6729 H 670.031 -0.851728 3.88575 0
M  V30 6730 H 666.77 0.557939 6.53121 0
M  V30 6731 H 666.29 -1.0371 5.90766 0
M  V30 6732 H 667.969 -0.747426 6.42668 0
M  V30 6733 N 668.101 -1.57061 -0.130224 0
M  V30 6734 C 669.034 -1.94698 -1.19029 0
M  V30 6735 C 670.012 -0.815074 -1.40696 0
M  V30 6736 O 671.196 -1.07223 -1.55034 0
M  V30 6737 C 668.323 -2.23352 -2.5462 0
M  V30 6738 C 667.369 -3.45945 -2.49448 0
M  V30 6739 S 668.202 -4.98927 -1.94505 0
M  V30 6740 C 669.358 -5.30721 -3.31792 0
M  V30 6741 H 669.591 -2.84308 -0.869272 0
M  V30 6742 H 667.124 -1.50688 -0.336531 0
M  V30 6743 H 669.082 -2.40539 -3.32643 0
M  V30 6744 H 667.743 -1.34376 -2.83905 0
M  V30 6745 H 666.936 -3.63324 -3.49302 0
M  V30 6746 H 666.538 -3.28086 -1.79543 0
M  V30 6747 H 668.83 -5.25215 -4.27966 0
M  V30 6748 H 669.773 -6.32048 -3.19251 0
M  V30 6749 H 670.181 -4.5821 -3.29703 0
M  V30 6750 N 669.579 0.400081 -1.52437 0
M  V30 6751 C 670.527 1.50851 -1.7705 0
M  V30 6752 C 671.521 1.56928 -0.637969 0
M  V30 6753 O 672.727 1.60226 -0.820212 0
M  V30 6754 H 669.102 0.50186 -0.560036 0
M  V30 6755 H 671.073 1.27281 -2.69893 0
M  V30 6756 C 669.822 2.88117 -1.94638 0
M  V30 6757 H 669.145 2.84187 -2.81208 0
M  V30 6758 H 670.585 3.64942 -2.15855 0
M  V30 6759 C 669.044 3.29206 -0.715899 0
M  V30 6760 O 669.574 4.01544 0.111944 0
M  V30 6761 N 667.78 2.85363 -0.549191 0
M  V30 6762 H 667.327 2.26664 -1.22397 0
M  V30 6763 H 667.285 3.13214 0.27278 0
M  V30 6764 N 671.057 1.43213 0.657864 0
M  V30 6765 C 672.005 1.48271 1.79216 0
M  V30 6766 C 672.999 0.35675 1.65601 0
M  V30 6767 O 674.205 0.530535 1.72004 0
M  V30 6768 H 670.58 0.464729 0.591211 0
M  V30 6769 H 672.551 2.43792 1.7207 0
M  V30 6770 C 671.3 1.41837 3.17455 0
M  V30 6771 H 670.623 2.27781 3.28567 0
M  V30 6772 H 672.063 1.49438 3.96793 0
M  V30 6773 C 670.522 0.135347 3.36628 0
M  V30 6774 O 671.052 -0.805199 3.93547 0
M  V30 6775 N 669.258 0.0470316 2.90562 0
M  V30 6776 H 668.805 0.813221 2.44427 0
M  V30 6777 H 668.763 -0.810737 3.03767 0
M  V30 6778 N 672.536 -0.895792 1.29666 0
M  V30 6779 C 673.784 -1.64339 1.17631 0
M  V30 6780 C 674.105 -1.93099 -0.271643 0
M  V30 6781 O 673.375 -1.55981 -1.18518 0
M  V30 6782 H 671.955 -0.609162 0.432354 0
M  V30 6783 H 674.617 -1.07389 1.62646 0
M  V30 6784 H 673.713 -2.59815 1.72924 0
M  V30 6785 N 674.014 -1.12206 -1.10668 0
M  V30 6786 C 675.242 -0.898635 -1.86366 0
M  V30 6787 C 675.657 0.551991 -1.80551 0
M  V30 6788 O 675.014 1.38152 -1.19249 0
M  V30 6789 C 675.065 -1.36199 -3.34861 0
M  V30 6790 O 674.786 -2.75576 -3.40573 0
M  V30 6791 C 676.287 -1.17515 -4.2744 0
M  V30 6792 H 673.507 -0.321281 -0.589084 0
M  V30 6793 H 676.051 -1.49142 -1.39918 0
M  V30 6794 H 674.206 -0.81249 -3.78784 0
M  V30 6795 H 674.62 -2.95851 -4.33096 0
M  V30 6796 H 676.094 -1.54827 -5.29842 0
M  V30 6797 H 676.571 -0.115486 -4.39048 0
M  V30 6798 H 677.177 -1.71203 -3.89319 0
M  V30 6799 N 675.492 1.28418 -0.913599 0
M  V30 6800 C 676.722 1.98817 -0.56172 0
M  V30 6801 C 677.13 1.68457 0.861321 0
M  V30 6802 O 676.473 0.933653 1.58204 0
M  V30 6803 C 676.535 3.52801 -0.690785 0
M  V30 6804 C 676.199 4.0675 -2.08334 0
M  V30 6805 C 677.196 4.20597 -3.05604 0
M  V30 6806 C 674.881 4.41445 -2.39648 0
M  V30 6807 C 676.875 4.68392 -4.32305 0
M  V30 6808 C 674.562 4.88934 -3.66588 0
M  V30 6809 C 675.56 5.02364 -4.6273 0
M  V30 6810 O 675.248 5.48817 -5.87414 0
M  V30 6811 H 674.98 0.641608 -0.212874 0
M  V30 6812 H 677.534 1.64584 -1.22887 0
M  V30 6813 H 675.764 3.86686 0.0334336 0
M  V30 6814 H 677.453 4.04422 -0.346031 0
M  V30 6815 H 678.219 3.94067 -2.8273 0
M  V30 6816 H 674.098 4.30242 -1.65567 0
M  V30 6817 H 677.642 4.7879 -5.07352 0
M  V30 6818 H 673.539 5.14904 -3.89287 0
M  V30 6819 H 674.307 5.67103 -5.90201 0
M  V30 6820 N 676.97 0.677563 1.42291 0
M  V30 6821 C 678.218 0.200578 2.01102 0
M  V30 6822 C 678.539 -1.19803 1.53858 0
M  V30 6823 O 677.809 -1.80496 0.761439 0
M  V30 6824 H 676.389 0.0711634 0.743603 0
M  V30 6825 H 679.051 0.874691 1.7417 0
M  V30 6826 H 678.147 0.204 3.11433 0
M  V30 6827 N 678.448 -1.51871 0.421078 0
M  V30 6828 C 679.411 -2.25914 -0.386712 0
M  V30 6829 C 680.411 -1.28733 -0.963555 0
M  V30 6830 O 681.601 -1.52579 -0.840556 0
M  V30 6831 C 678.733 -3.03853 -1.54551 0
M  V30 6832 H 679.926 -2.98754 0.261978 0
M  V30 6833 H 677.479 -1.5533 0.173862 0
M  V30 6834 H 678.214 -2.35392 -2.23072 0
M  V30 6835 H 677.999 -3.75215 -1.13824 0
M  V30 6836 H 679.489 -3.59984 -2.11663 0
M  V30 6837 N 679.926 -0.151884 -1.56866 0
M  V30 6838 C 680.856 0.781943 -2.20018 0
M  V30 6839 C 681.837 1.25347 -1.14987 0
M  V30 6840 O 683.022 1.31015 -1.43348 0
M  V30 6841 C 680.152 2.01928 -2.82564 0
M  V30 6842 C 679.106 1.68434 -3.93464 0
M  V30 6843 C 678.432 2.99472 -4.42968 0
M  V30 6844 C 679.732 0.927244 -5.14003 0
M  V30 6845 H 681.426 0.255607 -2.98307 0
M  V30 6846 H 678.972 0.121502 -1.43486 0
M  V30 6847 H 680.925 2.67741 -3.25411 0
M  V30 6848 H 679.649 2.56943 -2.01614 0
M  V30 6849 H 678.308 1.04998 -3.51242 0
M  V30 6850 H 677.956 3.52488 -3.58834 0
M  V30 6851 H 677.656 2.77823 -5.17772 0
M  V30 6852 H 679.18 3.66348 -4.88489 0
M  V30 6853 H 680.594 1.48756 -5.53665 0
M  V30 6854 H 678.991 0.810513 -5.94601 0
M  V30 6855 H 680.061 -0.0801163 -4.84834 0
M  V30 6856 N 681.404 1.57128 0.121893 0
M  V30 6857 C 682.82 1.52357 0.47534 0
M  V30 6858 C 683.02 0.864417 1.82017 0
M  V30 6859 O 682.076 0.445529 2.48538 0
M  V30 6860 C 683.389 2.97122 0.4625 0
M  V30 6861 C 684.937 3.08196 0.546255 0
M  V30 6862 C 685.412 4.54516 0.563833 0
M  V30 6863 N 686.903 4.58959 0.625353 0
M  V30 6864 C 687.638 5.69585 0.660354 0
M  V30 6865 N 687.134 6.89714 0.653175 0
M  V30 6866 N 688.927 5.57685 0.703143 0
M  V30 6867 H 681.078 1.98364 -0.75931 0
M  V30 6868 H 683.341 0.905777 -0.279772 0
M  V30 6869 H 683.047 3.48706 -0.457943 0
M  V30 6870 H 682.921 3.54406 1.29136 0
M  V30 6871 H 685.308 2.56617 1.45712 0
M  V30 6872 H 685.389 2.53912 -0.310234 0
M  V30 6873 H 685.033 5.06741 -0.342974 0
M  V30 6874 H 684.963 5.06609 1.43716 0
M  V30 6875 H 687.454 3.72489 0.637182 0
M  V30 6876 H 687.767 7.69781 0.682425 0
M  V30 6877 H 686.112 6.92223 0.620646 0
M  V30 6878 H 689.303 4.62744 0.706095 0
M  V30 6879 H 689.476 6.43909 0.726952 0
M  V30 6880 N 682.882 -0.391992 1.52647 0
M  V30 6881 C 684.128 -1.13563 1.68745 0
M  V30 6882 C 684.483 -1.87745 0.420685 0
M  V30 6883 O 683.776 -1.82434 -0.585529 0
M  V30 6884 C 683.97 -2.14401 2.85949 0
M  V30 6885 C 683.799 -1.50124 4.23902 0
M  V30 6886 C 682.569 -1.2666 4.89168 0
M  V30 6887 C 684.767 -0.952933 5.05395 0
M  V30 6888 N 682.749 -0.584555 6.11111 0
M  V30 6889 C 684.12 -0.398784 6.18716 0
M  V30 6890 C 686.175 -0.849053 4.90607 0
M  V30 6891 C 684.878 0.249084 7.18869 0
M  V30 6892 C 686.904 -0.215011 5.91009 0
M  V30 6893 C 686.266 0.328382 7.03634 0
M  V30 6894 H 682.365 -0.401628 0.670984 0
M  V30 6895 H 684.949 -0.425585 1.89992 0
M  V30 6896 H 683.12 -2.82746 2.66288 0
M  V30 6897 H 684.852 -2.8125 2.90999 0
M  V30 6898 H 681.607 -1.54078 4.47836 0
M  V30 6899 H 682.031 -0.259663 6.76502 0
M  V30 6900 H 686.673 -1.25497 4.03745 0
M  V30 6901 H 684.391 0.667019 8.05342 0
M  V30 6902 H 687.977 -0.135921 5.81641 0
M  V30 6903 H 686.857 0.811257 7.79992 0
M  V30 6904 N 684.36 -1.4356 -0.65026 0
M  V30 6905 C 685.607 -1.45333 -1.41012 0
M  V30 6906 C 685.935 -0.0787282 -1.94341 0
M  V30 6907 O 685.19 0.916715 -1.72901 0
M  V30 6908 C 685.489 -2.44528 -2.60654 0
M  V30 6909 C 685.155 -3.90331 -2.25727 0
M  V30 6910 C 683.817 -4.3004 -2.15914 0
M  V30 6911 C 686.169 -4.822 -1.97821 0
M  V30 6912 C 683.497 -5.59568 -1.76354 0
M  V30 6913 C 685.849 -6.12095 -1.59759 0
M  V30 6914 C 684.513 -6.50778 -1.48473 0
M  V30 6915 H 683.783 -0.531813 -0.516 0
M  V30 6916 H 686.43 -1.76657 -0.739219 0
M  V30 6917 H 684.735 -2.06619 -3.3289 0
M  V30 6918 H 686.432 -2.43155 -3.18868 0
M  V30 6919 H 683.022 -3.58905 -2.34276 0
M  V30 6920 H 687.206 -4.5229 -2.04322 0
M  V30 6921 H 682.462 -5.88376 -1.66205 0
M  V30 6922 H 686.636 -6.82751 -1.37198 0
M  V30 6923 H 684.263 -7.5105 -1.17591 0
M  V30 6924 N 685.838 0.888903 -1.30139 0
M  V30 6925 C 686.801 1.97576 -1.16174 0
M  V30 6926 C 687.801 1.60525 -0.094086 0
M  V30 6927 O 688.991 1.70812 -0.341889 0
M  V30 6928 C 686.123 3.3188 -0.778983 0
M  V30 6929 H 687.316 2.11393 -2.12728 0
M  V30 6930 H 684.869 1.0748 -1.1348 0
M  V30 6931 H 685.604 3.23765 0.186225 0
M  V30 6932 H 685.389 3.60141 -1.55051 0
M  V30 6933 H 686.879 4.11612 -0.704631 0
M  V30 6934 N 687.317 1.12792 1.10072 0
M  V30 6935 C 688.565 0.883796 1.81751 0
M  V30 6936 C 688.886 -0.591891 1.858 0
M  V30 6937 O 688.156 -1.43017 1.33876 0
M  V30 6938 H 686.736 0.323978 0.673088 0
M  V30 6939 H 689.398 1.42314 1.33164 0
M  V30 6940 H 688.494 1.26863 2.85153 0
M  V30 6941 N 688.795 -1.27931 0.920396 0
M  V30 6942 C 690.041 -1.94977 0.557832 0
M  V30 6943 C 690.374 -1.72224 -0.897365 0
M  V30 6944 O 689.649 -1.04705 -1.63912 0
M  V30 6945 C 689.932 -3.49289 0.875741 0
M  V30 6946 C 689.785 -3.81416 2.38416 0
M  V30 6947 C 691.104 -4.38486 0.376517 0
M  V30 6948 H 688.223 -0.708164 0.20414 0
M  V30 6949 H 690.865 -1.5118 1.15085 0
M  V30 6950 H 689.015 -3.86724 0.371062 0
M  V30 6951 H 690.687 -3.53813 2.95997 0
M  V30 6952 H 688.93 -3.28225 2.83639 0
M  V30 6953 H 689.601 -4.89198 2.55713 0
M  V30 6954 H 692.077 -4.08161 0.808945 0
M  V30 6955 H 690.953 -5.45296 0.627976 0
M  V30 6956 H 691.214 -4.36143 -0.723293 0
M  V30 6957 N 690.273 -0.685099 -1.4193 0
M  V30 6958 C 691.203 -0.0273506 -2.33484 0
M  V30 6959 C 692.184 0.778366 -1.51246 0
M  V30 6960 O 693.369 0.733449 -1.79817 0
M  V30 6961 C 690.499 0.917272 -3.34968 0
M  V30 6962 C 689.453 0.21941 -4.27437 0
M  V30 6963 C 688.779 1.27768 -5.1921 0
M  V30 6964 C 690.079 -0.907894 -5.14349 0
M  V30 6965 H 691.773 -0.791994 -2.88735 0
M  V30 6966 H 689.319 -0.382308 -1.38832 0
M  V30 6967 H 691.272 1.38657 -3.97935 0
M  V30 6968 H 689.996 1.71346 -2.78043 0
M  V30 6969 H 688.655 -0.229757 -3.65879 0
M  V30 6970 H 688.303 2.06612 -4.58607 0
M  V30 6971 H 688.003 0.815803 -5.81909 0
M  V30 6972 H 689.527 1.7477 -5.85054 0
M  V30 6973 H 690.941 -0.519348 -5.70943 0
M  V30 6974 H 689.338 -1.2962 -5.85934 0
M  V30 6975 H 690.408 -1.75218 -4.52136 0
M  V30 6976 N 691.751 1.51645 -0.429126 0
M  V30 6977 C 692.661 2.31288 0.392809 0
M  V30 6978 C 693.677 1.39852 1.03525 0
M  V30 6979 O 694.853 1.72926 1.03241 0
M  V30 6980 C 691.918 3.13347 1.48372 0
M  V30 6981 C 690.979 4.20551 0.862268 0
M  V30 6982 C 690.212 4.98688 1.9012 0
M  V30 6983 O 690.435 4.77359 3.12225 0
M  V30 6984 O 689.369 5.83005 1.4963 0
M  V30 6985 H 693.195 3.02609 -0.257138 0
M  V30 6986 H 690.78 1.48163 -0.191851 0
M  V30 6987 H 692.662 3.64387 2.1166 0
M  V30 6988 H 691.337 2.44799 2.1179 0
M  V30 6989 H 690.244 3.73609 0.191568 0
M  V30 6990 H 691.577 4.91449 0.271704 0
M  V30 6991 N 693.229 0.160201 1.56784 0
M  V30 6992 C 694.192 -0.760405 2.16219 0
M  V30 6993 C 695.192 -1.16595 1.10735 0
M  V30 6994 O 696.382 -1.08472 1.36306 0
M  V30 6995 C 693.514 -2.03358 2.73603 0
M  V30 6996 H 694.707 -0.243173 2.98912 0
M  V30 6997 H 692.26 -0.0893139 1.56045 0
M  V30 6998 H 692.995 -2.59416 1.94612 0
M  V30 6999 H 692.78 -1.75186 3.50788 0
M  V30 7000 H 694.27 -2.69081 3.19351 0
M  V30 7001 N 694.707 -1.5719 -0.113559 0
M  V30 7002 C 695.617 -2.04041 -1.15777 0
M  V30 7003 C 696.633 -0.961812 -1.45001 0
M  V30 7004 O 697.809 -1.2737 -1.56009 0
M  V30 7005 C 694.874 -2.43994 -2.46308 0
M  V30 7006 C 693.935 -3.65962 -2.24433 0
M  V30 7007 C 693.168 -4.04 -3.4874 0
M  V30 7008 O 693.391 -3.42321 -4.56259 0
M  V30 7009 O 692.325 -4.97069 -3.3942 0
M  V30 7010 H 696.151 -2.93248 -0.789899 0
M  V30 7011 H 693.736 -1.45828 -0.324748 0
M  V30 7012 H 695.618 -2.70401 -3.23204 0
M  V30 7013 H 694.293 -1.57932 -2.82558 0
M  V30 7014 H 693.2 -3.44697 -1.45377 0
M  V30 7015 H 694.533 -4.52746 -1.93084 0
M  V30 7016 N 696.185 0.383891 -1.52853 0
M  V30 7017 C 697.133 1.48965 -1.7864 0
M  V30 7018 C 698.127 1.56242 -0.654577 0
M  V30 7019 O 699.333 1.59347 -0.83716 0
M  V30 7020 H 695.708 0.495892 -0.565328 0
M  V30 7021 H 697.679 1.24411 -2.71228 0
M  V30 7022 C 696.428 2.86036 -1.97683 0
M  V30 7023 H 695.751 2.81188 -2.84206 0
M  V30 7024 H 697.191 3.62632 -2.19713 0
M  V30 7025 C 695.65 3.28428 -0.750776 0
M  V30 7026 O 696.18 4.0164 0.0693491 0
M  V30 7027 N 694.386 2.84765 -0.579427 0
M  V30 7028 H 693.933 2.25353 -1.24795 0
M  V30 7029 H 693.891 3.13486 0.239544 0
M  V30 7030 N 697.663 1.43903 0.642637 0
M  V30 7031 C 698.909 1.46296 1.40447 0
M  V30 7032 C 699.242 0.0908361 1.93987 0
M  V30 7033 O 698.517 -0.889884 1.72949 0
M  V30 7034 C 698.8 2.51399 2.57819 0
M  V30 7035 C 698.653 3.97926 2.09702 0
M  V30 7036 C 699.972 2.53125 3.60022 0
M  V30 7037 H 697.091 0.532676 0.509338 0
M  V30 7038 H 699.733 1.75515 0.727635 0
M  V30 7039 H 697.883 2.26614 3.1556 0
M  V30 7040 H 699.555 4.33804 1.5688 0
M  V30 7041 H 697.798 4.10252 1.40982 0
M  V30 7042 H 698.469 4.67096 2.94152 0
M  V30 7043 H 700.945 2.75242 3.12059 0
M  V30 7044 H 699.821 3.28589 4.39682 0
M  V30 7045 H 700.082 1.56895 4.13324 0
M  V30 7046 N 699.141 -0.881989 1.30609 0
M  V30 7047 C 700.552 -1.44956 1.17664 0
M  V30 7048 C 700.903 -1.94945 -0.221531 0
M  V30 7049 O 700.028 -1.85257 -1.11844 0
M  V30 7050 C 700.623 -2.63474 2.12995 0
M  V30 7051 C 699.182 -3.16312 2.04019 0
M  V30 7052 C 698.329 -1.89008 2.02907 0
M  V30 7053 H 701.28 -0.691645 1.42835 0
M  V30 7054 H 701.301 -3.39783 1.71253 0
M  V30 7055 H 700.813 -2.2706 3.14746 0
M  V30 7056 H 698.914 -3.57376 1.0542 0
M  V30 7057 H 699.027 -3.79409 2.9255 0
M  V30 7058 H 697.391 -2.07465 1.47751 0
M  V30 7059 H 698.174 -1.54848 3.06394 0
M  V30 7060 N 700.619 -1.13374 -1.09472 0
M  V30 7061 C 701.867 -0.893422 -1.8128 0
M  V30 7062 C 702.188 0.582029 -1.86111 0
M  V30 7063 O 701.458 1.42305 -1.34633 0
M  V30 7064 H 700.038 -0.327543 -0.67136 0
M  V30 7065 H 702.7 -1.43018 -1.32408 0
M  V30 7066 H 701.796 -1.28374 -2.84476 0
M  V30 7067 N 702.098 1.27442 -0.927168 0
M  V30 7068 C 703.028 2.29256 -0.443188 0
M  V30 7069 C 704.009 1.62701 0.49624 0
M  V30 7070 O 705.194 1.90013 0.401105 0
M  V30 7071 C 702.324 3.45955 0.305366 0
M  V30 7072 C 701.278 4.24501 -0.546178 0
M  V30 7073 C 700.604 5.33671 0.331512 0
M  V30 7074 C 701.904 4.89921 -1.81037 0
M  V30 7075 H 703.598 2.69988 -1.29409 0
M  V30 7076 H 701.144 1.29792 -0.623705 0
M  V30 7077 H 703.097 4.1628 0.654885 0
M  V30 7078 H 701.821 3.04138 1.19029 0
M  V30 7079 H 700.48 3.55921 -0.878398 0
M  V30 7080 H 700.128 4.88096 1.21537 0
M  V30 7081 H 699.828 5.87131 -0.234746 0
M  V30 7082 H 701.352 6.0684 0.676614 0
M  V30 7083 H 702.766 5.52536 -1.52895 0
M  V30 7084 H 701.163 5.53436 -2.32009 0
M  V30 7085 H 702.233 4.13652 -2.53021 0
M  V30 7086 N 703.576 0.692616 1.41565 0
M  V30 7087 C 704.853 0.150496 1.9502 0
M  V30 7088 C 705.233 -1.33881 1.63215 0
M  V30 7089 O 704.581 -2.08378 0.937598 0
M  V30 7090 C 704.791 0.438636 3.46233 0
M  V30 7091 C 706.139 0.364777 4.2303 0
M  V30 7092 O 707.163 0.373383 3.54238 0
M  V30 7093 O 706.022 0.32234 5.45549 0
M  V30 7094 H 703.116 0.0132454 0.826894 0
M  V30 7095 H 705.662 0.768574 1.51298 0
M  V30 7096 H 704.434 1.46962 3.62654 0
M  V30 7097 H 704.057 -0.210562 3.97042 0
M  V30 7098 N 705.054 -1.51416 0.437162 0
M  V30 7099 C 706.3 -2.02386 -0.129555 0
M  V30 7100 C 706.633 -1.32071 -1.42376 0
M  V30 7101 O 705.908 -0.43559 -1.8956 0
M  V30 7102 C 706.191 -3.5841 -0.348487 0
M  V30 7103 C 706.044 -4.39341 0.964352 0
M  V30 7104 C 707.363 -4.25654 -1.11834 0
M  V30 7105 H 704.482 -0.735587 -0.0456109 0
M  V30 7106 H 707.124 -1.81055 0.576124 0
M  V30 7107 H 705.274 -3.76716 -0.949592 0
M  V30 7108 H 706.946 -4.32685 1.59942 0
M  V30 7109 H 705.189 -4.04432 1.56898 0
M  V30 7110 H 705.86 -5.4667 0.765212 0
M  V30 7111 H 708.336 -4.11617 -0.609165 0
M  V30 7112 H 707.212 -5.34704 -1.24029 0
M  V30 7113 H 707.473 -3.86502 -2.14636 0
M  V30 7114 N 706.532 -0.168513 -1.56696 0
M  V30 7115 C 707.943 0.348694 -1.83415 0
M  V30 7116 C 708.294 1.63257 -1.0882 0
M  V30 7117 O 707.419 2.13707 -0.340333 0
M  V30 7118 C 708.014 0.639423 -3.32711 0
M  V30 7119 C 706.573 1.10108 -3.59935 0
M  V30 7120 C 705.72 0.135464 -2.76969 0
M  V30 7121 H 708.671 -0.392829 -1.53761 0
M  V30 7122 H 708.692 1.49179 -3.50037 0
M  V30 7123 H 708.204 -0.295173 -3.86976 0
M  V30 7124 H 706.305 2.05088 -3.11079 0
M  V30 7125 H 706.418 1.01218 -4.68286 0
M  V30 7126 H 704.782 0.632286 -2.46727 0
M  V30 7127 H 705.565 -0.793104 -3.34013 0
M  V30 7128 N 708.01 1.57248 0.105221 0
M  V30 7129 C 709.258 1.85204 0.808951 0
M  V30 7130 C 709.579 0.75574 1.7976 0
M  V30 7131 O 708.849 -0.218984 1.94672 0
M  V30 7132 H 707.429 0.683346 0.301739 0
M  V30 7133 H 710.091 1.94695 0.0892605 0
M  V30 7134 H 709.187 2.81595 1.34575 0
M  V30 7135 N 709.488 -0.375779 1.53054 0
M  V30 7136 C 710.737 -1.11674 1.67964 0
M  V30 7137 C 711.05 -1.90755 0.432655 0
M  V30 7138 O 712.256 -2.67538 0.462109 0
M  V30 7139 C 710.712 -2.0344 2.96884 0
M  V30 7140 C 710.32 -1.29719 4.28809 0
M  V30 7141 C 712.064 -2.7759 3.2116 0
M  V30 7142 C 709.971 -2.20327 5.48826 0
M  V30 7143 H 708.901 -0.420597 0.625791 0
M  V30 7144 H 711.552 -0.378499 1.79554 0
M  V30 7145 H 709.934 -2.80953 2.79072 0
M  V30 7146 H 711.108 -0.573394 4.57219 0
M  V30 7147 H 709.423 -0.674735 4.10897 0
M  V30 7148 H 712.02 -3.4559 4.0801 0
M  V30 7149 H 712.363 -3.42399 2.36789 0
M  V30 7150 H 712.896 -2.07164 3.396 0
M  V30 7151 H 709.635 -1.60113 6.35645 0
M  V30 7152 H 709.155 -2.90585 5.2471 0
M  V30 7153 H 710.834 -2.80116 5.83219 0
M  V30 7154 N 710.966 -1.44241 -0.634997 0
M  V30 7155 C 712.243 -1.37296 -1.39317 0
M  V30 7156 C 712.623 -0.0297532 -2.11079 0
M  V30 7157 O 711.971 0.987524 -2.06059 0
M  V30 7158 C 712.181 -2.56853 -2.36279 0
M  V30 7159 C 713.529 -3.00747 -2.99728 0
M  V30 7160 O 714.553 -2.5703 -2.46605 0
M  V30 7161 O 713.412 -3.76533 -3.96087 0
M  V30 7162 H 710.506 -0.543503 -0.623325 0
M  V30 7163 H 713.052 -1.56324 -0.660376 0
M  V30 7164 H 711.824 -3.46228 -1.82324 0
M  V30 7165 H 711.447 -2.40019 -3.16981 0
M  V30 7166 N 712.444 0.87505 -1.31075 0
M  V30 7167 C 713.691 1.62768 -1.20469 0
M  V30 7168 C 714.019 1.93034 0.23834 0
M  V30 7169 O 713.274 1.55693 1.18567 0
M  V30 7170 C 713.573 2.96948 -1.98888 0
M  V30 7171 C 713.239 2.86195 -3.4843 0
M  V30 7172 C 711.901 2.82969 -3.89207 0
M  V30 7173 C 714.253 2.73599 -4.43614 0
M  V30 7174 C 711.581 2.64999 -5.23443 0
M  V30 7175 C 713.933 2.57166 -5.77969 0
M  V30 7176 C 712.597 2.52321 -6.17973 0
M  V30 7177 H 711.867 0.595611 -0.440827 0
M  V30 7178 H 714.514 1.01665 -1.62285 0
M  V30 7179 H 712.819 3.62058 -1.49737 0
M  V30 7180 H 714.516 3.54164 -1.88067 0
M  V30 7181 H 711.106 2.8952 -3.16032 0
M  V30 7182 H 715.29 2.7515 -4.13045 0
M  V30 7183 H 710.546 2.5967 -5.53517 0
M  V30 7184 H 714.72 2.46396 -6.51354 0
M  V30 7185 H 712.347 2.38156 -7.21932 0
M  V30 7186 N 713.922 1.13953 1.08869 0
M  V30 7187 C 715.338 0.878924 1.33218 0
M  V30 7188 C 715.538 -0.482478 1.95638 0
M  V30 7189 O 714.594 -1.22778 2.2064 0
M  V30 7190 C 715.907 2.00798 2.23832 0
M  V30 7191 C 717.455 2.04073 2.37325 0
M  V30 7192 C 717.93 3.16258 3.31278 0
M  V30 7193 N 719.421 3.15805 3.38853 0
M  V30 7194 C 720.156 3.99249 4.11567 0
M  V30 7195 N 719.652 4.92721 4.87029 0
M  V30 7196 N 721.445 3.87327 4.0735 0
M  V30 7197 H 713.596 2.01645 0.66731 0
M  V30 7198 H 715.859 0.878395 0.356547 0
M  V30 7199 H 715.565 2.98986 1.85203 0
M  V30 7200 H 715.439 1.92704 3.24261 0
M  V30 7201 H 717.826 1.06495 2.75214 0
M  V30 7202 H 717.907 2.16239 1.36654 0
M  V30 7203 H 717.551 4.14079 2.9411 0
M  V30 7204 H 717.481 3.0133 4.31866 0
M  V30 7205 H 719.972 2.48102 2.8505 0
M  V30 7206 H 720.285 5.52867 5.39961 0
M  V30 7207 H 718.63 4.96723 4.86098 0
M  V30 7208 H 721.821 3.13627 3.475 0
M  V30 7209 H 721.994 4.52585 4.63757 0
M  V30 7210 N 715.4 -1.26948 0.933913 0
M  V30 7211 C 716.363 -2.24889 0.442457 0
M  V30 7212 C 717.363 -1.54594 -0.442426 0
M  V30 7213 O 718.553 -1.72502 -0.242629 0
M  V30 7214 C 715.685 -3.3896 -0.363173 0
M  V30 7215 H 716.878 -2.69879 1.30787 0
M  V30 7216 H 714.431 -1.38978 0.715187 0
M  V30 7217 H 715.166 -2.99361 -1.24714 0
M  V30 7218 H 714.951 -3.9116 0.271366 0
M  V30 7219 H 716.441 -4.11739 -0.697186 0
M  V30 7220 N 716.879 -0.700114 -1.41195 0
M  V30 7221 C 717.809 -0.0521132 -2.33442 0
M  V30 7222 C 718.79 0.76228 -1.52063 0
M  V30 7223 O 719.975 0.714336 -1.80585 0
M  V30 7224 C 717.105 0.881693 -3.35922 0
M  V30 7225 C 716.059 0.174062 -4.27646 0
M  V30 7226 C 715.385 1.22254 -5.20536 0
M  V30 7227 C 716.685 -0.962396 -5.13357 0
M  V30 7228 H 718.379 -0.822574 -2.87879 0
M  V30 7229 H 715.925 -0.397011 -1.38419 0
M  V30 7230 H 717.878 1.34429 -3.99383 0
M  V30 7231 H 716.602 1.68387 -2.79845 0
M  V30 7232 H 715.261 -0.268551 -3.65615 0
M  V30 7233 H 714.909 2.01736 -4.60773 0
M  V30 7234 H 714.609 0.754038 -5.82742 0
M  V30 7235 H 716.133 1.68555 -5.86874 0
M  V30 7236 H 717.547 -0.579875 -5.7036 0
M  V30 7237 H 715.944 -1.35828 -5.84526 0
M  V30 7238 H 717.014 -1.80003 -4.50252 0
M  V30 7239 N 718.357 1.51182 -0.445186 0
M  V30 7240 C 719.32 2.26501 0.350722 0
M  V30 7241 C 720.32 1.3025 0.942952 0
M  V30 7242 O 721.51 1.53897 0.816175 0
M  V30 7243 C 718.642 3.06274 1.49697 0
M  V30 7244 H 719.835 2.98299 -0.309474 0
M  V30 7245 H 717.388 1.55034 -0.198551 0
M  V30 7246 H 718.123 2.38911 2.19299 0
M  V30 7247 H 717.908 3.76979 1.0784 0
M  V30 7248 H 719.398 3.63306 2.05909 0
M  V30 7249 N 719.835 0.176821 1.56605 0
M  V30 7250 C 720.782 -0.751312 2.18229 0
M  V30 7251 C 721.752 -1.22297 1.12395 0
M  V30 7252 O 722.937 -1.29015 1.40569 0
M  V30 7253 C 720.077 -1.97291 2.83143 0
M  V30 7254 C 719.19 -1.54431 4.03454 0
M  V30 7255 C 718.325 -2.72 4.56278 0
M  V30 7256 C 717.364 -2.25657 5.68986 0
M  V30 7257 N 716.501 -3.36338 6.16296 0
M  V30 7258 H 721.341 -0.219033 2.97194 0
M  V30 7259 H 718.878 -0.0963803 1.46784 0
M  V30 7260 H 720.836 -2.68949 3.1894 0
M  V30 7261 H 719.466 -2.4788 2.06773 0
M  V30 7262 H 718.518 -0.724273 3.73441 0
M  V30 7263 H 719.83 -1.16417 4.85024 0
M  V30 7264 H 718.984 -3.51806 4.94285 0
M  V30 7265 H 717.723 -3.13277 3.73777 0
M  V30 7266 H 716.728 -1.44299 5.30526 0
M  V30 7267 H 717.953 -1.85432 6.53293 0
M  V30 7268 H 715.899 -3.7718 5.36723 0
M  V30 7269 H 715.816 -3.02435 6.9287 0
M  V30 7270 H 717.084 -4.16413 6.58954 0
M  V30 7271 N 721.313 -1.57302 -0.09688 0
M  V30 7272 C 722.561 -1.8563 -0.799117 0
M  V30 7273 C 722.882 -0.765263 -1.79356 0
M  V30 7274 O 722.152 0.208657 -1.94786 0
M  V30 7275 H 720.732 -0.684937 -0.298111 0
M  V30 7276 H 723.394 -1.9474 -0.0789341 0
M  V30 7277 H 722.49 -2.82305 -1.3308 0
M  V30 7278 N 722.791 0.367657 -1.53252 0
M  V30 7279 C 724.021 1.12955 -1.72988 0
M  V30 7280 C 724.429 1.8358 -0.457708 0
M  V30 7281 O 723.772 1.74336 0.579006 0
M  V30 7282 C 723.834 2.20545 -2.83902 0
M  V30 7283 C 723.498 1.69704 -4.24323 0
M  V30 7284 C 724.495 1.16223 -5.06743 0
M  V30 7285 C 722.18 1.7528 -4.70725 0
M  V30 7286 C 724.174 0.689935 -6.33655 0
M  V30 7287 C 721.861 1.27662 -5.97617 0
M  V30 7288 C 722.859 0.746083 -6.78913 0
M  V30 7289 O 722.547 0.276925 -8.03423 0
M  V30 7290 H 722.279 0.343753 -0.582074 0
M  V30 7291 H 724.833 0.433106 -2.00782 0
M  V30 7292 H 723.063 2.93676 -2.51577 0
M  V30 7293 H 724.752 2.82111 -2.91836 0
M  V30 7294 H 725.518 1.11256 -4.72067 0
M  V30 7295 H 721.397 2.15515 -4.07522 0
M  V30 7296 H 724.941 0.275164 -6.97057 0
M  V30 7297 H 720.838 1.32322 -6.31792 0
M  V30 7298 H 721.606 0.396445 -8.17539 0
M  V30 7299 N 724.269 1.44576 0.627338 0
M  V30 7300 C 725.517 1.47267 1.38408 0
M  V30 7301 C 725.838 0.107971 1.94701 0
M  V30 7302 O 725.108 -0.860206 1.76004 0
M  V30 7303 H 723.688 0.542276 0.513756 0
M  V30 7304 H 726.35 1.80383 0.738099 0
M  V30 7305 H 725.446 2.20025 2.21349 0
M  V30 7306 N 725.747 -0.868086 1.31537 0
M  V30 7307 C 726.993 -1.62367 1.2151 0
M  V30 7308 C 727.326 -1.92883 -0.225819 0
M  V30 7309 O 726.601 -1.56176 -1.15927 0
M  V30 7310 C 726.884 -2.95268 2.06129 0
M  V30 7311 C 726.737 -2.71619 3.58529 0
M  V30 7312 C 728.056 -3.96391 1.91212 0
M  V30 7313 H 725.175 -0.589178 0.442762 0
M  V30 7314 H 727.817 -1.00336 1.61347 0
M  V30 7315 H 725.967 -3.4821 1.72284 0
M  V30 7316 H 727.639 -2.25334 4.0252 0
M  V30 7317 H 725.882 -2.05817 3.81866 0
M  V30 7318 H 726.553 -3.66192 4.13047 0
M  V30 7319 H 729.029 -3.52663 2.20834 0
M  V30 7320 H 727.905 -4.87263 2.52718 0
M  V30 7321 H 728.166 -4.33335 0.875953 0
M  V30 7322 N 727.225 -1.14528 -1.08264 0
M  V30 7323 C 728.157 -0.791325 -2.15106 0
M  V30 7324 C 729.17 0.192449 -1.61659 0
M  V30 7325 O 730.359 -0.0294704 -1.78476 0
M  V30 7326 C 727.459 -0.154183 -3.38549 0
M  V30 7327 C 726.632 -1.17305 -4.21377 0
M  V30 7328 C 725.691 -0.559401 -5.23218 0
M  V30 7329 O 724.717 -1.22277 -5.55911 0
M  V30 7330 N 725.919 0.663159 -5.767 0
M  V30 7331 H 728.684 -1.71076 -2.46075 0
M  V30 7332 H 726.245 -1.0399 -1.24087 0
M  V30 7333 H 728.237 0.268884 -4.03806 0
M  V30 7334 H 726.807 0.668418 -3.0537 0
M  V30 7335 H 726.027 -1.773 -3.52077 0
M  V30 7336 H 727.315 -1.86128 -4.73533 0
M  V30 7337 H 726.713 1.22066 -5.52373 0
M  V30 7338 H 725.27 1.02871 -6.43631 0
M  V30 7339 N 728.703 1.26451 -0.940633 0
M  V30 7340 C 729.666 2.24651 -0.454378 0
M  V30 7341 C 730.666 1.54826 0.434222 0
M  V30 7342 O 731.856 1.72628 0.233477 0
M  V30 7343 C 728.988 3.39148 0.345192 0
M  V30 7344 H 730.181 2.69182 -1.32217 0
M  V30 7345 H 727.734 1.38596 -0.722547 0
M  V30 7346 H 728.469 3.00018 1.23125 0
M  V30 7347 H 728.254 3.9101 -0.292107 0
M  V30 7348 H 729.744 4.12103 0.675341 0
M  V30 7349 N 730.181 0.707592 1.40822 0
M  V30 7350 C 731.111 0.0644925 2.33411 0
M  V30 7351 C 732.092 -0.754205 1.52466 0
M  V30 7352 O 733.277 -0.704749 1.80961 0
M  V30 7353 C 730.407 -0.863865 3.36385 0
M  V30 7354 C 729.361 -0.15138 4.27732 0
M  V30 7355 C 728.687 -1.19491 5.21177 0
M  V30 7356 C 729.987 0.989607 5.12839 0
M  V30 7357 H 731.681 0.837829 2.87438 0
M  V30 7358 H 729.227 0.404346 1.38207 0
M  V30 7359 H 731.18 -1.32309 4.0009 0
M  V30 7360 H 729.904 -1.66901 2.80734 0
M  V30 7361 H 728.563 0.287937 3.65467 0
M  V30 7362 H 728.211 -1.9929 4.61836 0
M  V30 7363 H 727.911 -0.723123 5.83134 0
M  V30 7364 H 729.435 -1.6544 5.8776 0
M  V30 7365 H 730.849 0.610114 5.70044 0
M  V30 7366 H 729.246 1.38926 5.83798 0
M  V30 7367 H 730.316 1.82389 4.49291 0
M  V30 7368 N 731.66 -1.50943 0.453197 0
M  V30 7369 C 732.607 -2.28128 -0.350197 0
M  V30 7370 C 733.577 -1.32398 -1.00299 0
M  V30 7371 O 734.762 -1.61319 -1.01887 0
M  V30 7372 C 731.902 -3.13782 -1.43649 0
M  V30 7373 C 731.015 -4.24523 -0.800255 0
M  V30 7374 C 730.15 -4.97462 -1.86293 0
M  V30 7375 C 729.189 -6.00102 -1.20598 0
M  V30 7376 N 728.326 -6.66387 -2.21071 0
M  V30 7377 H 733.166 -2.96337 0.31434 0
M  V30 7378 H 730.703 -1.46151 0.166863 0
M  V30 7379 H 732.661 -3.6178 -2.07776 0
M  V30 7380 H 731.291 -2.47655 -2.07044 0
M  V30 7381 H 730.343 -3.80371 -0.0468651 0
M  V30 7382 H 731.655 -4.98009 -0.280777 0
M  V30 7383 H 730.809 -5.49088 -2.58044 0
M  V30 7384 H 729.548 -4.23642 -2.41617 0
M  V30 7385 H 728.553 -5.47753 -0.474 0
M  V30 7386 H 729.778 -6.75887 -0.659859 0
M  V30 7387 H 727.724 -5.9537 -2.75446 0
M  V30 7388 H 727.641 -7.3569 -1.74058 0
M  V30 7389 H 728.909 -7.22638 -2.92257 0
M  V30 7390 N 733.138 -0.185124 -1.56509 0
M  V30 7391 C 734.101 0.72591 -2.17401 0
M  V30 7392 C 735.101 1.14819 -1.12575 0
M  V30 7393 O 736.291 1.0629 -1.38015 0
M  V30 7394 C 733.423 1.98979 -2.76803 0
M  V30 7395 H 734.616 0.195588 -2.99262 0
M  V30 7396 H 732.169 0.0644772 -1.56167 0
M  V30 7397 H 732.904 2.56287 -1.98714 0
M  V30 7398 H 732.689 1.69583 -3.53531 0
M  V30 7399 H 734.179 2.63966 -3.23592 0
M  V30 7400 N 734.616 1.57351 0.0885366 0
M  V30 7401 C 735.893 1.77449 0.822873 0
M  V30 7402 C 736.273 0.768463 1.96616 0
M  V30 7403 O 735.621 -0.201757 2.27608 0
M  V30 7404 C 735.831 3.23425 1.31137 0
M  V30 7405 C 737.179 3.86791 1.75152 0
M  V30 7406 O 738.203 3.27215 1.40745 0
M  V30 7407 O 737.062 4.91568 2.38794 0
M  V30 7408 H 734.156 0.727653 0.393002 0
M  V30 7409 H 736.702 1.69556 0.0699095 0
M  V30 7410 H 735.474 3.88188 0.49254 0
M  V30 7411 H 735.097 3.35977 2.12615 0
M  V30 7412 N 736.094 -0.359525 1.53444 0
M  V30 7413 C 737.042 -1.46104 1.80987 0
M  V30 7414 C 738.036 -1.55181 0.679351 0
M  V30 7415 O 739.242 -1.57995 0.862405 0
M  V30 7416 H 735.617 -0.486835 0.573145 0
M  V30 7417 H 737.588 -1.2008 2.73173 0
M  V30 7418 C 736.337 -2.82855 2.02208 0
M  V30 7419 H 735.66 -2.76631 2.88644 0
M  V30 7420 H 737.1 -3.59091 2.25455 0
M  V30 7421 C 735.559 -3.27192 0.802931 0
M  V30 7422 O 736.089 -4.017 -0.00544286 0
M  V30 7423 N 734.295 -2.83807 0.624657 0
M  V30 7424 H 733.842 -2.23339 1.28364 0
M  V30 7425 H 733.8 -3.13828 -0.189641 0
M  V30 7426 N 737.572 -1.44907 -0.619662 0
M  V30 7427 C 738.502 -1.55488 -1.742 0
M  V30 7428 C 739.483 -0.407143 -1.65156 0
M  V30 7429 O 740.668 -0.628743 -1.8374 0
M  V30 7430 C 737.798 -1.5097 -3.1277 0
M  V30 7431 C 736.752 -2.64337 -3.36615 0
M  V30 7432 C 736.078 -2.44872 -4.75333 0
M  V30 7433 C 737.378 -4.06423 -3.28051 0
M  V30 7434 H 739.072 -2.49432 -1.65602 0
M  V30 7435 H 736.618 -1.20047 -0.795281 0
M  V30 7436 H 738.571 -1.56971 -3.91073 0
M  V30 7437 H 737.295 -0.535486 -3.2218 0
M  V30 7438 H 735.954 -2.57744 -2.60698 0
M  V30 7439 H 735.602 -1.45617 -4.81461 0
M  V30 7440 H 735.302 -3.20888 -4.92244 0
M  V30 7441 H 736.826 -2.52709 -5.55851 0
M  V30 7442 H 738.24 -4.14324 -3.96243 0
M  V30 7443 H 736.637 -4.82733 -3.56495 0
M  V30 7444 H 737.707 -4.29183 -2.25676 0
M  V30 7445 N 739.05 0.861098 -1.31996 0
M  V30 7446 C 739.96 2.00154 -1.22374 0
M  V30 7447 C 740.976 1.73447 -0.138631 0
M  V30 7448 O 742.152 1.98191 -0.358104 0
M  V30 7449 C 739.217 3.33696 -0.940645 0
M  V30 7450 C 738.278 3.73668 -2.11355 0
M  V30 7451 C 737.511 5.00837 -1.84386 0
M  V30 7452 O 737.734 5.64996 -0.783287 0
M  V30 7453 O 736.668 5.37787 -2.70313 0
M  V30 7454 H 740.494 2.11207 -2.18233 0
M  V30 7455 H 738.079 0.990768 -1.11822 0
M  V30 7456 H 739.961 4.13756 -0.798987 0
M  V30 7457 H 738.636 3.23698 -0.0121636 0
M  V30 7458 H 737.543 2.94211 -2.31065 0
M  V30 7459 H 738.876 3.88303 -3.02459 0
M  V30 7460 N 740.528 1.15101 1.07655 0
M  V30 7461 C 741.46 0.802722 2.14684 0
M  V30 7462 C 742.473 -0.183874 1.61758 0
M  V30 7463 O 743.662 0.0389349 1.78458 0
M  V30 7464 C 740.762 0.172135 3.38463 0
M  V30 7465 C 739.935 1.19538 4.20749 0
M  V30 7466 C 738.994 0.58714 5.22914 0
M  V30 7467 O 738.02 1.25224 5.55255 0
M  V30 7468 N 739.222 -0.632566 5.77043 0
M  V30 7469 H 741.987 1.72379 2.45164 0
M  V30 7470 H 739.548 1.04647 1.23534 0
M  V30 7471 H 741.54 -0.247465 4.03943 0
M  V30 7472 H 740.11 -0.652214 3.0572 0
M  V30 7473 H 739.33 1.79165 3.51132 0
M  V30 7474 H 740.618 1.88636 4.7254 0
M  V30 7475 H 740.016 -1.19135 5.53013 0
M  V30 7476 H 738.573 -0.994566 6.44167 0
M  V30 7477 N 742.006 -1.2595 0.947325 0
M  V30 7478 C 742.936 -2.28521 0.479604 0
M  V30 7479 C 743.917 -1.63469 -0.470293 0
M  V30 7480 O 745.102 -1.90627 -0.370824 0
M  V30 7481 C 742.232 -3.46397 -0.250289 0
M  V30 7482 C 741.186 -4.23578 0.613643 0
M  V30 7483 C 740.512 -5.34131 -0.246568 0
M  V30 7484 C 741.812 -4.86979 1.88809 0
M  V30 7485 H 743.506 -2.67895 1.33688 0
M  V30 7486 H 741.052 -1.28783 0.644274 0
M  V30 7487 H 743.005 -4.17269 -0.588576 0
M  V30 7488 H 741.729 -3.05993 -1.14175 0
M  V30 7489 H 740.388 -3.54478 0.93491 0
M  V30 7490 H 740.036 -4.89968 -1.13756 0
M  V30 7491 H 739.736 -5.86683 0.328123 0
M  V30 7492 H 741.26 -6.07839 -0.579986 0
M  V30 7493 H 742.674 -5.50034 1.61666 0
M  V30 7494 H 741.071 -5.49675 2.40784 0
M  V30 7495 H 742.141 -4.09575 2.5957 0
M  V30 7496 N 743.484 -0.715051 -1.40445 0
M  V30 7497 C 744.431 -0.0621393 -2.30716 0
M  V30 7498 C 745.401 0.750871 -1.48159 0
M  V30 7499 O 746.586 0.714928 -1.76899 0
M  V30 7500 C 743.726 0.854036 -3.34365 0
M  V30 7501 C 742.839 0.0305565 -4.31989 0
M  V30 7502 C 741.974 0.946162 -5.22706 0
M  V30 7503 C 741.013 0.116741 -6.11989 0
M  V30 7504 N 740.15 0.987194 -6.95125 0
M  V30 7505 H 744.99 -0.83764 -2.85985 0
M  V30 7506 H 742.527 -0.424759 -1.40834 0
M  V30 7507 H 744.485 1.39946 -3.93028 0
M  V30 7508 H 743.115 1.59572 -2.806 0
M  V30 7509 H 742.167 -0.632044 -3.75112 0
M  V30 7510 H 743.479 -0.611615 -4.95036 0
M  V30 7511 H 742.633 1.56014 -5.86297 0
M  V30 7512 H 741.372 1.62216 -4.59932 0
M  V30 7513 H 740.377 -0.510176 -5.47428 0
M  V30 7514 H 741.602 -0.555742 -6.76822 0
M  V30 7515 H 739.548 1.64885 -6.3494 0
M  V30 7516 H 739.465 0.401046 -7.54936 0
M  V30 7517 H 740.733 1.58737 -7.63166 0
M  V30 7518 N 744.962 1.50701 -0.461195 0
M  V30 7519 C 746.21 2.01867 0.0970051 0
M  V30 7520 C 746.531 1.34591 1.41104 0
M  V30 7521 O 745.801 0.488041 1.89723 0
M  V30 7522 H 744.381 0.74599 0.0388392 0
M  V30 7523 H 747.043 1.85129 -0.609357 0
M  V30 7524 H 746.139 3.11051 0.255688 0
M  V30 7525 N 746.441 0.193421 1.56409 0
M  V30 7526 C 747.666 -0.454552 2.02358 0
M  V30 7527 C 748.091 -1.54516 1.07268 0
M  V30 7528 O 747.449 -1.81214 0.0558962 0
M  V30 7529 C 747.497 -0.989469 3.46759 0
M  V30 7530 O 746.601 -2.10244 3.54783 0
M  V30 7531 H 745.942 -0.106417 0.655417 0
M  V30 7532 H 748.472 0.303807 2.02332 0
M  V30 7533 H 748.482 -1.30649 3.86516 0
M  V30 7534 H 747.157 -0.191083 4.15461 0
M  V30 7535 H 745.734 -1.79419 3.26899 0
M  V30 7536 N 747.919 -1.57396 -0.0801906 0
M  V30 7537 C 748.849 -2.06145 -1.09665 0
M  V30 7538 C 749.83 -0.953273 -1.40878 0
M  V30 7539 O 751.015 -1.22548 -1.50651 0
M  V30 7540 C 748.145 -2.49836 -2.41245 0
M  V30 7541 C 747.099 -3.64454 -2.24405 0
M  V30 7542 C 746.425 -3.94172 -3.61293 0
M  V30 7543 C 747.725 -4.94807 -1.67223 0
M  V30 7544 H 749.419 -2.91316 -0.691028 0
M  V30 7545 H 746.965 -1.40145 -0.330957 0
M  V30 7546 H 748.918 -2.82552 -3.12638 0
M  V30 7547 H 747.642 -1.61683 -2.83771 0
M  V30 7548 H 746.301 -3.32008 -1.55454 0
M  V30 7549 H 745.949 -3.03163 -4.01374 0
M  V30 7550 H 745.649 -4.71345 -3.50867 0
M  V30 7551 H 747.173 -4.29376 -4.3413 0
M  V30 7552 H 748.587 -5.25807 -2.28472 0
M  V30 7553 H 746.984 -5.76245 -1.67515 0
M  V30 7554 H 748.054 -4.80751 -0.632944 0
M  V30 7555 N 749.397 0.351382 -1.53633 0
M  V30 7556 C 750.329 1.45159 -1.77374 0
M  V30 7557 C 751.342 1.4905 -0.654826 0
M  V30 7558 O 752.531 1.52274 -0.931396 0
M  V30 7559 C 749.631 2.83858 -1.85143 0
M  V30 7560 C 748.804 3.03498 -3.14972 0
M  V30 7561 C 747.863 4.22393 -3.138 0
M  V30 7562 O 746.889 4.16885 -3.87551 0
M  V30 7563 N 748.091 5.30533 -2.35617 0
M  V30 7564 H 750.856 1.25167 -2.72311 0
M  V30 7565 H 748.417 0.54121 -1.52586 0
M  V30 7566 H 750.409 3.61557 -1.8182 0
M  V30 7567 H 748.979 2.9703 -0.974275 0
M  V30 7568 H 748.199 2.13336 -3.31484 0
M  V30 7569 H 749.487 3.13498 -4.00745 0
M  V30 7570 H 748.885 5.37875 -1.75235 0
M  V30 7571 H 747.442 6.06756 -2.38098 0
M  V30 7572 N 750.875 1.45233 0.611969 0
M  V30 7573 C 751.785 1.56098 1.7513 0
M  V30 7574 C 752.801 0.445646 1.68196 0
M  V30 7575 O 753.977 0.705718 1.88631 0
M  V30 7576 C 751.042 1.52052 3.11579 0
M  V30 7577 C 750.103 2.74589 3.29999 0
M  V30 7578 C 749.336 2.70726 4.59938 0
M  V30 7579 O 749.559 1.77806 5.41979 0
M  V30 7580 O 748.493 3.61864 4.80976 0
M  V30 7581 H 752.319 2.52392 1.68914 0
M  V30 7582 H 749.904 1.27695 0.775528 0
M  V30 7583 H 751.786 1.52387 3.92882 0
M  V30 7584 H 750.461 0.589085 3.18295 0
M  V30 7585 H 749.368 2.79817 2.48301 0
M  V30 7586 H 750.701 3.66843 3.28157 0
M  V30 7587 N 752.353 -0.854086 1.3245 0
M  V30 7588 C 753.316 -1.94427 1.21371 0
M  V30 7589 C 754.316 -1.60219 0.136613 0
M  V30 7590 O 755.506 -1.69846 0.387057 0
M  V30 7591 C 752.638 -3.29698 0.866701 0
M  V30 7592 H 753.831 -2.05679 2.18257 0
M  V30 7593 H 751.384 -1.04434 1.1629 0
M  V30 7594 H 752.119 -3.24145 -0.100319 0
M  V30 7595 H 751.904 -3.55903 1.64545 0
M  V30 7596 H 753.394 -4.09599 0.813515 0
M  V30 7597 N 753.831 -1.1567 -1.07043 0
M  V30 7598 C 754.761 -0.879348 -2.16309 0
M  V30 7599 C 755.742 0.171311 -1.69235 0
M  V30 7600 O 756.927 0.0250175 -1.94184 0
M  V30 7601 C 754.057 -0.371307 -3.45309 0
M  V30 7602 C 753.011 -1.359 -4.05851 0
M  V30 7603 C 752.337 -0.709678 -5.29969 0
M  V30 7604 C 753.637 -2.72606 -4.45514 0
M  V30 7605 H 755.331 -1.79308 -2.39768 0
M  V30 7606 H 752.877 -0.863558 -1.15233 0
M  V30 7607 H 754.83 -0.164798 -4.21078 0
M  V30 7608 H 753.554 0.577906 -3.21446 0
M  V30 7609 H 752.213 -1.55193 -3.32131 0
M  V30 7610 H 751.861 0.245782 -5.02399 0
M  V30 7611 H 751.561 -1.36886 -5.71433 0
M  V30 7612 H 753.085 -0.513015 -6.08441 0
M  V30 7613 H 754.499 -2.57141 -5.12398 0
M  V30 7614 H 752.896 -3.34927 -4.97939 0
M  V30 7615 H 753.966 -3.28434 -3.56734 0
M  V30 7616 N 755.309 1.25446 -0.953992 0
M  V30 7617 C 756.534 1.97755 -0.625129 0
M  V30 7618 C 756.959 1.70437 0.795787 0
M  V30 7619 O 756.317 0.95992 1.53803 0
M  V30 7620 C 756.365 3.49463 -0.889251 0
M  V30 7621 O 755.469 4.12387 0.0322757 0
M  V30 7622 H 754.81 0.61998 -0.237742 0
M  V30 7623 H 757.34 1.59582 -1.28041 0
M  V30 7624 H 757.35 3.99772 -0.815263 0
M  V30 7625 H 756.025 3.68676 -1.92487 0
M  V30 7626 H 754.602 3.72782 -0.0938625 0
M  V30 7627 N 756.787 0.722489 1.40064 0
M  V30 7628 C 757.75 0.0830209 2.2905 0
M  V30 7629 C 758.75 -0.680208 1.45705 0
M  V30 7630 O 759.94 -0.511084 1.66534 0
M  V30 7631 C 757.072 -0.892092 3.29021 0
M  V30 7632 H 758.265 0.866848 2.87099 0
M  V30 7633 H 755.818 0.487556 1.48501 0
M  V30 7634 H 756.553 -1.70273 2.76003 0
M  V30 7635 H 756.338 -0.34761 3.90556 0
M  V30 7636 H 757.828 -1.33648 3.95636 0
M  V30 7637 N 758.265 -1.50454 0.469181 0
M  V30 7638 C 759.212 -2.28486 -0.325982 0
M  V30 7639 C 760.182 -1.33455 -0.988893 0
M  V30 7640 O 761.367 -1.6239 -1.0017 0
M  V30 7641 C 758.507 -3.15288 -1.40313 0
M  V30 7642 C 757.62 -4.25348 -0.755183 0
M  V30 7643 C 756.755 -4.9941 -1.81006 0
M  V30 7644 C 755.794 -6.01348 -1.14226 0
M  V30 7645 N 754.931 -6.68695 -2.1399 0
M  V30 7646 H 759.771 -2.95987 0.345753 0
M  V30 7647 H 757.308 -1.45965 0.182355 0
M  V30 7648 H 759.266 -3.63964 -2.03927 0
M  V30 7649 H 757.896 -2.49837 -2.04405 0
M  V30 7650 H 756.948 -3.80399 -0.00651901 0
M  V30 7651 H 758.26 -4.98279 -0.227941 0
M  V30 7652 H 757.414 -5.51794 -2.52206 0
M  V30 7653 H 756.153 -4.26181 -2.3711 0
M  V30 7654 H 755.158 -5.48225 -0.415876 0
M  V30 7655 H 756.383 -6.76548 -0.588135 0
M  V30 7656 H 754.329 -5.98258 -2.69115 0
M  V30 7657 H 754.246 -7.37495 -1.66246 0
M  V30 7658 H 755.514 -7.25697 -2.84576 0
M  V30 7659 N 759.743 -0.201713 -1.56304 0
M  V30 7660 C 760.991 0.434447 -1.97375 0
M  V30 7661 C 761.312 1.61692 -1.08998 0
M  V30 7662 O 760.582 1.95223 -0.162682 0
M  V30 7663 H 759.162 0.163497 -0.728888 0
M  V30 7664 H 761.824 -0.289988 -1.92731 0
M  V30 7665 H 760.92 0.774136 -3.02347 0
M  V30 7666 N 761.222 1.57436 0.0718424 0
M  V30 7667 C 762.633 1.75975 0.623678 0
M  V30 7668 C 762.984 0.827155 1.77912 0
M  V30 7669 O 762.109 0.0112425 2.16397 0
M  V30 7670 C 762.704 3.1911 1.13816 0
M  V30 7671 C 761.263 3.38994 1.63586 0
M  V30 7672 C 760.41 2.71684 0.555261 0
M  V30 7673 H 763.361 1.57948 -0.154328 0
M  V30 7674 H 763.382 3.23267 2.00696 0
M  V30 7675 H 762.894 3.86962 0.296998 0
M  V30 7676 H 760.995 2.76256 2.50027 0
M  V30 7677 H 761.108 4.47436 1.71283 0
M  V30 7678 H 759.472 2.34236 1.00029 0
M  V30 7679 H 760.255 3.42191 -0.275712 0
M  V30 7680 N 762.7 -0.34323 1.53817 0
M  V30 7681 C 763.946 -1.08504 1.71332 0
M  V30 7682 C 764.279 -1.88294 0.475285 0
M  V30 7683 O 763.554 -1.87205 -0.527688 0
M  V30 7684 C 763.837 -2.02597 2.97702 0
M  V30 7685 C 763.69 -1.26268 4.31713 0
M  V30 7686 C 765.009 -3.0241 3.19744 0
M  V30 7687 H 762.128 -0.393072 0.623429 0
M  V30 7688 H 764.77 -0.363579 1.86489 0
M  V30 7689 H 762.92 -2.64118 2.8491 0
M  V30 7690 H 764.592 -0.673594 4.56356 0
M  V30 7691 H 762.835 -0.564696 4.30109 0
M  V30 7692 H 763.506 -1.95253 5.16314 0
M  V30 7693 H 765.982 -2.51004 3.31868 0
M  V30 7694 H 764.858 -3.65449 4.09558 0
M  V30 7695 H 765.119 -3.73806 2.36054 0
M  V30 7696 N 764.178 -1.45556 -0.604258 0
M  V30 7697 C 765.108 -1.57327 -1.72541 0
M  V30 7698 C 766.089 -0.424637 -1.64714 0
M  V30 7699 O 767.274 -0.648196 -1.83063 0
M  V30 7700 C 764.404 -1.54279 -3.11152 0
M  V30 7701 C 763.358 -2.67893 -3.33792 0
M  V30 7702 C 762.684 -2.499 -4.72709 0
M  V30 7703 C 763.984 -4.0988 -3.23722 0
M  V30 7704 H 765.678 -2.51175 -1.62947 0
M  V30 7705 H 763.224 -1.20884 -0.782504 0
M  V30 7706 H 765.177 -1.6111 -3.89386 0
M  V30 7707 H 763.901 -0.569627 -3.21594 0
M  V30 7708 H 762.56 -2.60495 -2.57949 0
M  V30 7709 H 762.208 -1.50715 -4.79889 0
M  V30 7710 H 761.908 -3.26091 -4.88813 0
M  V30 7711 H 763.432 -2.5859 -5.5314 0
M  V30 7712 H 764.846 -4.18503 -3.91826 0
M  V30 7713 H 763.243 -4.86487 -3.51355 0
M  V30 7714 H 764.313 -4.31553 -2.21111 0
M  V30 7715 N 765.656 0.84705 -1.32902 0
M  V30 7716 C 766.905 1.59667 -1.23245 0
M  V30 7717 C 767.218 1.94551 0.202349 0
M  V30 7718 O 768.424 2.68218 0.420847 0
M  V30 7719 C 766.88 2.8795 -2.15901 0
M  V30 7720 C 766.488 2.60461 -3.64505 0
M  V30 7721 C 768.232 3.65968 -2.15098 0
M  V30 7722 C 766.139 3.84791 -4.49099 0
M  V30 7723 H 765.069 0.599167 -0.457728 0
M  V30 7724 H 767.72 0.934662 -1.57912 0
M  V30 7725 H 766.102 3.55648 -1.74157 0
M  V30 7726 H 767.276 2.01026 -4.14639 0
M  V30 7727 H 765.591 1.9576 -3.67515 0
M  V30 7728 H 768.188 4.58241 -2.75534 0
M  V30 7729 H 768.531 4.00275 -1.14392 0
M  V30 7730 H 769.064 3.05184 -2.55162 0
M  V30 7731 H 765.803 3.55621 -5.50649 0
M  V30 7732 H 765.323 4.43594 -4.03713 0
M  V30 7733 H 767.002 4.52454 -4.62487 0
M  V30 7734 N 767.134 1.16236 1.06428 0
M  V30 7735 C 768.044 0.881976 2.1739 0
M  V30 7736 C 769.06 -0.145259 1.73393 0
M  V30 7737 O 770.236 0.0310558 2.01376 0
M  V30 7738 C 767.301 0.385496 3.4455 0
M  V30 7739 C 766.362 1.47779 4.03063 0
M  V30 7740 C 765.595 1.0049 5.24154 0
M  V30 7741 O 765.818 -0.145889 5.70213 0
M  V30 7742 O 764.752 1.79265 5.74585 0
M  V30 7743 H 768.578 1.80983 2.43883 0
M  V30 7744 H 766.163 0.942226 1.15942 0
M  V30 7745 H 768.045 0.115536 4.21242 0
M  V30 7746 H 766.72 -0.514369 3.19587 0
M  V30 7747 H 765.627 1.80147 3.27869 0
M  V30 7748 H 766.96 2.35291 4.32318 0
M  V30 7749 N 768.612 -1.24939 0.960631 0
M  V30 7750 C 769.858 -1.93104 0.61958 0
M  V30 7751 C 770.191 -1.74991 -0.84212 0
M  V30 7752 O 769.466 -1.09867 -1.60498 0
M  V30 7753 C 769.749 -3.46326 0.986422 0
M  V30 7754 C 769.602 -3.73638 2.50429 0
M  V30 7755 C 770.921 -4.37067 0.515827 0
M  V30 7756 H 768.04 -0.701311 0.226566 0
M  V30 7757 H 770.682 -1.47442 1.19836 0
M  V30 7758 H 768.832 -3.85348 0.493907 0
M  V30 7759 H 770.504 -3.44217 3.07103 0
M  V30 7760 H 768.747 -3.19035 2.93937 0
M  V30 7761 H 769.418 -4.80815 2.71147 0
M  V30 7762 H 771.894 -4.05381 0.938389 0
M  V30 7763 H 770.77 -5.43022 0.80114 0
M  V30 7764 H 771.031 -4.38224 -0.584171 0
M  V30 7765 N 770.09 -0.729906 -1.39679 0
M  V30 7766 C 771.315 -0.284345 -2.05442 0
M  V30 7767 C 771.74 1.07056 -1.54663 0
M  V30 7768 O 771.098 1.67732 -0.688157 0
M  V30 7769 C 771.146 -0.290089 -3.59431 0
M  V30 7770 O 770.25 0.723978 -4.05995 0
M  V30 7771 H 769.591 -0.130311 -0.651088 0
M  V30 7772 H 772.121 -0.994403 -1.78809 0
M  V30 7773 H 772.131 -0.132712 -4.07784 0
M  V30 7774 H 770.806 -1.27877 -3.95753 0
M  V30 7775 H 769.383 0.533154 -3.69069 0
M  V30 7776 N 771.568 1.50203 -0.477153 0
M  V30 7777 C 772.796 2.0677 0.0732489 0
M  V30 7778 C 773.211 1.34033 1.32968 0
M  V30 7779 O 772.568 0.411412 1.77802 0
M  V30 7780 C 772.619 3.59751 0.35518 0
M  V30 7781 O 772.34 4.29747 -0.851425 0
M  V30 7782 C 773.841 4.3296 0.951877 0
M  V30 7783 H 771.061 0.670929 -0.00978923 0
M  V30 7784 H 773.605 1.93293 -0.667676 0
M  V30 7785 H 771.76 3.7301 1.04605 0
M  V30 7786 H 772.174 5.2106 -0.599708 0
M  V30 7787 H 773.648 5.40952 1.09888 0
M  V30 7788 H 774.125 3.93856 1.94356 0
M  V30 7789 H 774.731 4.24246 0.299208 0
M  V30 7790 N 773.046 0.209999 1.56195 0
M  V30 7791 C 774.292 -0.425442 1.98287 0
M  V30 7792 C 774.625 -1.60232 1.09724 0
M  V30 7793 O 773.9 -1.93902 0.152414 0
M  V30 7794 C 774.183 -0.871189 3.49403 0
M  V30 7795 C 774.036 0.308527 4.48741 0
M  V30 7796 C 775.355 -1.73146 4.04609 0
M  V30 7797 H 772.474 -0.153169 0.720908 0
M  V30 7798 H 775.116 0.303916 1.87554 0
M  V30 7799 H 773.266 -1.49266 3.58681 0
M  V30 7800 H 774.938 0.946487 4.51486 0
M  V30 7801 H 773.181 0.957878 4.23092 0
M  V30 7802 H 773.852 -0.0461143 5.51981 0
M  V30 7803 H 776.328 -1.2072 3.98203 0
M  V30 7804 H 775.204 -2.01228 5.10684 0
M  V30 7805 H 775.465 -2.69083 3.5078 0
M  V30 7806 N 774.524 -1.57472 -0.0634922 0
M  V30 7807 C 775.749 -1.92273 -0.77756 0
M  V30 7808 C 776.174 -0.807141 -1.69902 0
M  V30 7809 O 775.532 0.239523 -1.79711 0
M  V30 7810 C 775.58 -3.26054 -1.54017 0
M  V30 7811 O 774.684 -3.15873 -2.65138 0
M  V30 7812 H 774.025 -0.629389 -0.211579 0
M  V30 7813 H 776.555 -2.04579 -0.0292523 0
M  V30 7814 H 776.565 -3.60127 -1.91763 0
M  V30 7815 H 775.24 -4.06824 -0.864128 0
M  V30 7816 H 773.817 -2.93373 -2.30189 0
M  V30 7817 N 776.003 0.335068 -1.53997 0
M  V30 7818 C 777.414 0.910191 -1.6301 0
M  V30 7819 C 777.765 1.89271 -0.516809 0
M  V30 7820 O 776.89 2.13516 0.352123 0
M  V30 7821 C 777.485 1.65761 -2.9548 0
M  V30 7822 C 776.044 2.18163 -3.06728 0
M  V30 7823 C 775.191 1.00338 -2.5851 0
M  V30 7824 H 778.142 0.112965 -1.58297 0
M  V30 7825 H 778.163 2.52107 -2.84995 0
M  V30 7826 H 777.675 0.94227 -3.76488 0
M  V30 7827 H 775.776 2.92847 -2.30372 0
M  V30 7828 H 775.889 2.43952 -4.1234 0
M  V30 7829 H 774.253 1.37925 -2.14124 0
M  V30 7830 H 775.036 0.30254 -3.41964 0
M  V30 7831 N 777.481 1.45874 0.596531 0
M  V30 7832 C 778.727 1.5069 1.35722 0
M  V30 7833 C 779.06 0.152506 1.936 0
M  V30 7834 O 778.335 -0.834411 1.75692 0
M  V30 7835 C 778.618 2.59474 2.4969 0
M  V30 7836 C 778.471 4.04396 1.96937 0
M  V30 7837 C 779.79 2.64451 3.51787 0
M  V30 7838 H 776.909 0.548611 0.492133 0
M  V30 7839 H 779.551 1.77741 0.671428 0
M  V30 7840 H 777.701 2.36539 3.08191 0
M  V30 7841 H 779.373 4.38576 1.43 0
M  V30 7842 H 777.616 4.14529 1.27859 0
M  V30 7843 H 778.287 4.76218 2.79143 0
M  V30 7844 H 780.763 2.85031 3.03145 0
M  V30 7845 H 779.639 3.42411 4.29006 0
M  V30 7846 H 779.9 1.69965 4.08123 0
M  V30 7847 N 778.959 -0.83999 1.33349 0
M  V30 7848 C 779.906 -1.94972 1.23509 0
M  V30 7849 C 780.876 -1.65709 0.113967 0
M  V30 7850 O 782.061 -1.88552 0.292045 0
M  V30 7851 C 779.201 -3.30919 0.979105 0
M  V30 7852 C 778.314 -3.72587 2.18639 0
M  V30 7853 C 777.449 -4.97397 1.86465 0
M  V30 7854 C 776.488 -5.31597 3.03432 0
M  V30 7855 N 775.625 -6.47584 2.71254 0
M  V30 7856 H 780.465 -2.0272 2.18423 0
M  V30 7857 H 778.002 -0.992017 1.08616 0
M  V30 7858 H 779.96 -4.09239 0.811126 0
M  V30 7859 H 778.59 -3.22731 0.0667099 0
M  V30 7860 H 777.642 -2.89799 2.46416 0
M  V30 7861 H 778.954 -3.93844 3.06086 0
M  V30 7862 H 778.108 -5.83462 1.66305 0
M  V30 7863 H 776.847 -4.78107 0.96254 0
M  V30 7864 H 775.852 -4.44037 3.24208 0
M  V30 7865 H 777.077 -5.52836 3.94397 0
M  V30 7866 H 775.023 -6.29783 1.836 0
M  V30 7867 H 774.94 -6.68931 3.52231 0
M  V30 7868 H 776.208 -7.36764 2.54558 0
M  V30 7869 O 780.476 -1.28535 -0.977803 0
M  V30 7870 H 781.167 -1.08805 -1.60253 0
M  V30 END ATOM
M  V30 BEGIN BOND
M  V30 END BOND
M  V30 END CTAB
M  END
$$$$
