drugbank_target|P62219 Protein RecA (DB02930; DB03222; DB04444)
 OpenBabel12092119513D

  0  0  0     0  0            999 V3000
M  V30 BEGIN CTAB
M  V30 COUNTS 5292 5325 0 0 0
M  V30 BEGIN ATOM
M  V30 1 H -0.908 1.98254 -0.117106 0
M  V30 2 N 0 1.576 0 0
M  V30 3 C 0.933 2.03868 1.02534 0
M  V30 4 C 1.911 0.928543 1.3348 0
M  V30 5 O 3.095 1.19667 1.45644 0
M  V30 6 C 0.222 2.43627 2.35294 0
M  V30 7 C -0.732 3.65373 2.2001 0
M  V30 8 S 0.101 5.13292 1.52614 0
M  V30 9 C 1.257 5.56322 2.86805 0
M  V30 10 H 1.49 2.90518 0.631377 0
M  V30 11 H -0.977 1.52953 0.210867 0
M  V30 12 H 0.981 2.67203 3.11629 0
M  V30 13 H -0.358 1.57376 2.7183 0
M  V30 14 H -1.165 3.90944 3.18086 0
M  V30 15 H -1.563 3.418 1.51819 0
M  V30 16 H 0.729 5.58782 3.83104 0
M  V30 17 H 1.672 6.56266 2.65933 0
M  V30 18 H 2.08 4.83886 2.90714 0
M  V30 19 N 1.4781 -0.272755 1.55222 0
M  V30 20 C 2.7061 -1.02255 1.79865 0
M  V30 21 C 3.1211 -1.79924 0.572088 0
M  V30 22 O 2.4781 -1.76638 -0.458842 0
M  V30 23 C 2.5291 -1.98094 3.02392 0
M  V30 24 O 2.2501 -1.23572 4.20311 0
M  V30 25 C 3.7511 -2.84884 3.39641 0
M  V30 26 H 0.9711 -0.302057 0.599168 0
M  V30 27 H 3.5151 -0.303465 2.02236 0
M  V30 28 H 1.6701 -2.65465 2.82147 0
M  V30 29 H 2.0841 -1.88172 4.89583 0
M  V30 30 H 3.5581 -3.47927 4.28545 0
M  V30 31 H 4.0351 -3.54665 2.59055 0
M  V30 32 H 4.6411 -2.23003 3.62146 0
M  V30 33 N 2.9562 -1.48159 -0.537278 0
M  V30 34 C 3.8882 -1.58218 -1.65831 0
M  V30 35 C 4.9012 -0.466948 -1.5596 0
M  V30 36 O 6.0902 -0.73747 -1.62553 0
M  V30 37 C 3.1902 -1.48906 -3.04434 0
M  V30 38 C 2.3632 -2.75343 -3.3986 0
M  V30 39 C 1.4222 -2.59588 -4.57712 0
M  V30 40 O 0.4482 -3.33457 -4.61297 0
M  V30 41 N 1.6502 -1.68724 -5.55439 0
M  V30 42 H 4.4152 -2.54891 -1.57641 0
M  V30 43 H 1.9762 -1.4479 -0.724386 0
M  V30 44 H 3.9682 -1.36072 -3.81139 0
M  V30 45 H 2.5382 -0.602368 -3.06741 0
M  V30 46 H 1.7582 -3.02795 -2.52406 0
M  V30 47 H 3.0462 -3.5924 -3.60311 0
M  V30 48 H 2.4442 -1.07898 -5.55315 0
M  V30 49 H 1.0012 -1.61832 -6.3139 0
M  V30 50 N 4.4343 0.785586 -1.36625 0
M  V30 51 C 5.3973 1.87999 -1.31107 0
M  V30 52 C 6.3973 1.59316 -0.217959 0
M  V30 53 O 7.5873 1.67656 -0.472977 0
M  V30 54 C 4.7193 3.24861 -1.03334 0
M  V30 55 H 5.9123 1.94307 -2.2844 0
M  V30 56 H 3.4653 0.983813 -1.21453 0
M  V30 57 H 4.2003 3.24235 -0.0647432 0
M  V30 58 H 3.9853 3.4707 -1.82441 0
M  V30 59 H 5.4753 4.04929 -1.02088 0
M  V30 60 N 5.9124 1.20967 1.01018 0
M  V30 61 C 7.3234 1.02319 1.56165 0
M  V30 62 C 7.6744 -0.418546 1.91684 0
M  V30 63 O 6.7994 -1.30096 1.72928 0
M  V30 64 C 7.3944 1.85109 2.8376 0
M  V30 65 C 5.9534 1.70809 3.35412 0
M  V30 66 C 5.1004 1.82643 2.08655 0
M  V30 67 H 8.0514 1.35065 0.833255 0
M  V30 68 H 8.0724 1.35827 3.55431 0
M  V30 69 H 7.5844 2.90035 2.57878 0
M  V30 70 H 5.6854 0.685464 3.66241 0
M  V30 71 H 5.7984 2.52467 4.07182 0
M  V30 72 H 4.1624 1.25896 2.21409 0
M  V30 73 H 4.9454 2.89066 1.85191 0
M  V30 74 N 7.3905 -1.2043 1.01659 0
M  V30 75 C 8.6675 -1.8548 0.621004 0
M  V30 76 C 9.0475 -1.9091 -0.900919 0
M  V30 77 O 8.3955 -1.41694 -1.79263 0
M  V30 78 C 8.6055 -3.25119 1.2688 0
M  V30 79 C 9.9535 -4.01403 1.38423 0
M  V30 80 O 10.9775 -3.34473 1.22501 0
M  V30 81 O 9.8365 -5.21265 1.64151 0
M  V30 82 H 6.9305 -0.798761 0.214266 0
M  V30 83 H 9.4765 -1.28019 1.11396 0
M  V30 84 H 8.2485 -3.15932 2.30873 0
M  V30 85 H 7.8715 -3.90212 0.762917 0
M  V30 86 N 8.8686 -0.792821 -1.36206 0
M  V30 87 C 10.2846 -0.474903 -1.52371 0
M  V30 88 C 10.4846 1.00622 -1.74578 0
M  V30 89 O 9.5406 1.79162 -1.77924 0
M  V30 90 C 10.8536 -1.3083 -2.70747 0
M  V30 91 C 12.4016 -1.30234 -2.84619 0
M  V30 92 C 12.8766 -2.11956 -4.06004 0
M  V30 93 N 14.3676 -2.09419 -4.13156 0
M  V30 94 C 15.1026 -2.69419 -5.06163 0
M  V30 95 N 14.5986 -3.3829 -6.04592 0
M  V30 96 N 16.3916 -2.59134 -4.98804 0
M  V30 97 H 8.5426 -1.75222 -1.20046 0
M  V30 98 H 10.8056 -0.745024 -0.586211 0
M  V30 99 H 10.5116 -2.35881 -2.6087 0
M  V30 100 H 10.3856 -0.95196 -3.6499 0
M  V30 101 H 12.7726 -0.259748 -2.93955 0
M  V30 102 H 12.8536 -1.69847 -1.91274 0
M  V30 103 H 12.4976 -3.16248 -3.97429 0
M  V30 104 H 12.4276 -1.69711 -4.98503 0
M  V30 105 H 14.9186 -1.59297 -3.42685 0
M  V30 106 H 15.2316 -3.81394 -6.7213 0
M  V30 107 H 13.5766 -3.42393 -6.04807 0
M  V30 108 H 16.7676 -2.04927 -4.20859 0
M  V30 109 H 16.9406 -3.06185 -5.711 0
M  V30 110 N 10.3467 1.47872 -0.545128 0
M  V30 111 C 11.2567 2.33633 0.212746 0
M  V30 112 C 12.2727 1.4744 0.923983 0
M  V30 113 O 13.4487 1.80393 0.895572 0
M  V30 114 C 10.5137 3.23884 1.23693 0
M  V30 115 C 9.5747 4.25961 0.534417 0
M  V30 116 C 8.8077 5.11899 1.5098 0
M  V30 117 O 9.0307 5.00077 2.7437 0
M  V30 118 O 7.9647 5.92831 1.0409 0
M  V30 119 H 11.7907 2.99714 -0.490416 0
M  V30 120 H 9.3757 1.46235 -0.305871 0
M  V30 121 H 11.2577 3.79666 1.82843 0
M  V30 122 H 9.9327 2.60446 1.92222 0
M  V30 123 H 8.8397 3.73972 -0.0979679 0
M  V30 124 H 10.1727 4.92079 -0.109213 0
M  V30 125 N 11.8248 0.280983 1.55075 0
M  V30 126 C 12.7718 -0.603937 2.22758 0
M  V30 127 C 13.7418 -1.1452 1.20309 0
M  V30 128 O 14.9268 -1.19343 1.48869 0
M  V30 129 C 12.0668 -1.77947 2.95684 0
M  V30 130 C 11.1798 -1.2715 4.12864 0
M  V30 131 C 10.3148 -2.4093 4.7342 0
M  V30 132 C 9.3538 -1.87165 5.82783 0
M  V30 133 N 8.4908 -2.94441 6.37377 0
M  V30 134 H 13.3308 -0.020124 2.97993 0
M  V30 135 H 10.8678 0.00183425 1.471 0
M  V30 136 H 12.8258 -2.47055 3.36184 0
M  V30 137 H 11.4558 -2.33522 2.22861 0
M  V30 138 H 10.5078 -0.473331 3.77444 0
M  V30 139 H 11.8198 -0.837751 4.91715 0
M  V30 140 H 10.9738 -3.18021 5.1667 0
M  V30 141 H 9.7128 -2.87623 3.93859 0
M  V30 142 H 8.7178 -1.08556 5.38976 0
M  V30 143 H 9.9428 -1.41401 6.64216 0
M  V30 144 H 7.8888 -3.40505 5.60707 0
M  V30 145 H 7.8058 -2.55501 7.11516 0
M  V30 146 H 9.0738 -3.71489 6.85285 0
M  V30 147 N 13.3029 -1.57598 0.00835791 0
M  V30 148 C 14.2659 -2.07884 -0.965242 0
M  V30 149 C 15.2659 -0.989825 -1.26725 0
M  V30 150 O 16.4559 -1.25218 -1.21104 0
M  V30 151 C 13.5879 -2.52731 -2.28779 0
M  V30 152 H 14.7809 -2.95178 -0.530112 0
M  V30 153 H 12.3339 -1.54458 -0.239283 0
M  V30 154 H 13.0689 -1.68705 -2.76964 0
M  V30 155 H 12.8539 -3.32272 -2.08177 0
M  V30 156 H 14.3439 -2.91933 -2.98605 0
M  V30 157 N 14.781 0.264519 -1.55364 0
M  V30 158 C 15.711 1.33121 -1.91836 0
M  V30 159 C 16.692 1.51101 -0.781192 0
M  V30 160 O 17.877 1.64003 -1.04003 0
M  V30 161 C 15.007 2.68921 -2.19769 0
M  V30 162 C 13.961 2.65661 -3.35571 0
M  V30 163 C 13.287 4.05093 -3.49004 0
M  V30 164 C 14.587 2.24187 -4.71739 0
M  V30 165 H 16.281 1.02844 -2.81182 0
M  V30 166 H 13.827 0.493286 -1.35287 0
M  V30 167 H 15.78 3.43663 -2.43872 0
M  V30 168 H 14.504 3.00799 -1.27231 0
M  V30 169 H 13.163 1.93377 -3.1145 0
M  V30 170 H 12.811 4.34206 -2.53917 0
M  V30 171 H 12.511 4.03804 -4.26868 0
M  V30 172 H 14.035 4.81561 -3.75408 0
M  V30 173 H 15.449 2.88654 -4.9533 0
M  V30 174 H 13.846 2.34044 -5.52579 0
M  V30 175 H 14.916 1.19327 -4.69988 0
M  V30 176 N 16.2591 1.48442 0.529413 0
M  V30 177 C 17.1691 1.6569 1.66084 0
M  V30 178 C 18.1851 0.539432 1.65427 0
M  V30 179 O 19.3611 0.810572 1.84368 0
M  V30 180 C 16.4261 1.69315 3.02545 0
M  V30 181 C 15.4871 2.92694 3.14052 0
M  V30 182 C 14.7201 2.96137 4.44003 0
M  V30 183 O 14.9431 2.07973 5.31134 0
M  V30 184 O 13.8771 3.88312 4.59888 0
M  V30 185 H 17.7031 2.61483 1.54469 0
M  V30 186 H 15.2881 1.3185 0.702567 0
M  V30 187 H 17.1701 1.74217 3.83701 0
M  V30 188 H 15.8451 0.766966 3.14483 0
M  V30 189 H 14.7521 2.93324 2.32189 0
M  V30 190 H 16.0851 3.84699 3.0703 0
M  V30 191 N 17.7372 -0.778329 1.37039 0
M  V30 192 C 18.6672 -1.90546 1.34962 0
M  V30 193 C 19.6482 -1.68681 0.219274 0
M  V30 194 O 20.8332 -1.89634 0.418624 0
M  V30 195 C 17.9632 -3.27734 1.14925 0
M  V30 196 C 16.9172 -3.64147 2.24902 0
M  V30 197 C 16.2432 -4.99806 1.89996 0
M  V30 198 C 17.5432 -3.71579 3.67051 0
M  V30 199 H 19.2372 -1.92541 2.29277 0
M  V30 200 H 16.7832 -0.924948 1.10366 0
M  V30 201 H 18.7362 -4.06215 1.12104 0
M  V30 202 H 17.4602 -3.26154 0.170631 0
M  V30 203 H 16.1192 -2.8797 2.26868 0
M  V30 204 H 15.7672 -4.94759 0.906796 0
M  V30 205 H 15.4672 -5.25139 2.63634 0
M  V30 206 H 16.9912 -5.80694 1.88749 0
M  V30 207 H 18.4052 -4.40227 3.67251 0
M  V30 208 H 16.8022 -4.08405 4.39688 0
M  V30 209 H 17.8722 -2.72404 4.01154 0
M  V30 210 N 19.2153 -1.21501 -1.00376 0
M  V30 211 C 20.1783 -0.976927 -2.07337 0
M  V30 212 C 21.1783 0.0525322 -1.60714 0
M  V30 213 O 22.3683 -0.184869 -1.73216 0
M  V30 214 C 19.5003 -0.473423 -3.37597 0
M  V30 215 H 20.6933 -1.92587 -2.29892 0
M  V30 216 H 18.2463 -1.03217 -1.17371 0
M  V30 217 H 18.9813 0.480379 -3.20722 0
M  V30 218 H 18.7663 -1.216 -3.72768 0
M  V30 219 H 20.2563 -0.32675 -4.1632 0
M  V30 220 N 20.6934 1.19889 -1.02296 0
M  V30 221 C 21.6264 2.21639 -0.543282 0
M  V30 222 C 22.6044 1.57275 0.412698 0
M  V30 223 O 23.7884 1.85568 0.331198 0
M  V30 224 C 20.9154 3.38057 0.208571 0
M  V30 225 C 19.9614 4.20751 -0.697933 0
M  V30 226 S 20.7944 4.89529 -2.17075 0
M  V30 227 C 21.9504 6.09363 -1.42923 0
M  V30 228 H 22.1834 2.61984 -1.40541 0
M  V30 229 H 19.7164 1.30041 -0.832387 0
M  V30 230 H 21.6744 4.05539 0.63624 0
M  V30 231 H 20.3354 2.96159 1.04635 0
M  V30 232 H 19.5284 5.03862 -0.117831 0
M  V30 233 H 19.1304 3.58556 -1.06366 0
M  V30 234 H 21.4224 6.73742 -0.712637 0
M  V30 235 H 22.3654 6.71845 -2.23673 0
M  V30 236 H 22.7734 5.56798 -0.929327 0
M  V30 237 N 22.1715 0.800033 1.35784 0
M  V30 238 C 23.1345 0.211565 2.28221 0
M  V30 239 C 24.1345 -0.59728 1.49296 0
M  V30 240 O 25.3245 -0.416721 1.69142 0
M  V30 241 C 22.4565 -0.705846 3.33513 0
M  V30 242 H 23.6495 1.02677 2.81776 0
M  V30 243 H 21.2025 0.570211 1.45528 0
M  V30 244 H 21.9375 -1.54498 2.85133 0
M  V30 245 H 21.7225 -0.127655 3.91892 0
M  V30 246 H 23.2125 -1.11211 4.02519 0
M  V30 247 N 23.6496 -1.47581 0.552962 0
M  V30 248 C 24.5816 -2.27997 -0.234533 0
M  V30 249 C 25.5946 -1.36753 -0.883321 0
M  V30 250 O 26.7836 -1.61612 -0.757889 0
M  V30 251 C 23.8836 -3.10879 -1.34935 0
M  V30 252 C 23.0566 -4.30056 -0.798158 0
M  V30 253 C 22.1156 -4.94567 -1.79694 0
M  V30 254 O 21.1416 -5.53087 -1.34474 0
M  V30 255 N 22.3436 -4.88878 -3.13015 0
M  V30 256 H 25.1086 -2.96222 0.455255 0
M  V30 257 H 22.6696 -1.57163 0.388761 0
M  V30 258 H 24.6616 -3.50903 -2.01616 0
M  V30 259 H 23.2316 -2.44924 -1.94244 0
M  V30 260 H 22.4516 -3.94174 0.0453079 0
M  V30 261 H 23.7396 -5.07152 -0.409173 0
M  V30 262 H 23.1376 -4.42526 -3.52402 0
M  V30 263 H 21.6946 -5.32934 -3.75266 0
M  V30 264 N 25.1277 -0.289203 -1.54924 0
M  V30 265 C 26.3767 0.324231 -1.99077 0
M  V30 266 C 26.6897 1.5591 -1.18117 0
M  V30 267 O 27.8957 2.24637 -1.52481 0
M  V30 268 C 26.3517 0.628209 -3.54375 0
M  V30 269 C 25.9597 -0.587647 -4.44129 0
M  V30 270 C 27.7037 1.20349 -4.07083 0
M  V30 271 C 25.6107 -0.257475 -5.90839 0
M  V30 272 H 24.5407 0.124924 -0.743579 0
M  V30 273 H 27.1917 -0.396063 -1.79175 0
M  V30 274 H 25.5737 1.40778 -3.70132 0
M  V30 275 H 26.7477 -1.36418 -4.40144 0
M  V30 276 H 25.0627 -1.08074 -4.0213 0
M  V30 277 H 27.6597 1.46456 -5.14252 0
M  V30 278 H 28.0027 2.14195 -3.56968 0
M  V30 279 H 28.5357 0.485889 -3.94821 0
M  V30 280 H 25.2747 -1.16419 -6.45079 0
M  V30 281 H 24.7947 0.482018 -5.9786 0
M  V30 282 H 26.4737 0.145238 -6.46837 0
M  V30 283 N 26.6058 1.57591 -0.0167156 0
M  V30 284 C 27.5158 2.1291 0.98521 0
M  V30 285 C 28.5318 1.07834 1.36557 0
M  V30 286 O 29.7078 1.39826 1.44951 0
M  V30 287 C 26.7728 2.63512 2.25305 0
M  V30 288 C 25.8338 3.83256 1.93426 0
M  V30 289 C 25.0668 4.31435 3.14165 0
M  V30 290 O 25.2898 3.78851 4.26413 0
M  V30 291 O 24.2238 5.23416 2.97186 0
M  V30 292 H 28.0498 2.98772 0.544888 0
M  V30 293 H 25.6348 1.48012 0.203141 0
M  V30 294 H 27.5168 2.96183 2.99756 0
M  V30 295 H 26.1918 1.8074 2.68542 0
M  V30 296 H 25.0988 3.55531 1.16398 0
M  V30 297 H 26.4318 4.67153 1.55013 0
M  V30 298 N 28.0839 -0.256276 1.55502 0
M  V30 299 C 29.0309 -1.31714 1.89526 0
M  V30 300 C 30.0009 -1.4828 0.748479 0
M  V30 301 O 31.1859 -1.62416 1.00128 0
M  V30 302 C 28.3259 -2.66933 2.18725 0
M  V30 303 C 27.4389 -2.58452 3.4616 0
M  V30 304 C 26.5739 -3.85961 3.64976 0
M  V30 305 C 25.6129 -3.72059 4.86044 0
M  V30 306 N 24.7499 -4.9144 5.01429 0
M  V30 307 H 29.5899 -1.01998 2.80001 0
M  V30 308 H 27.1269 -0.492413 1.38613 0
M  V30 309 H 29.0849 -3.4563 2.33657 0
M  V30 310 H 27.7149 -2.94816 1.31466 0
M  V30 311 H 26.7669 -1.71374 3.3961 0
M  V30 312 H 28.0789 -2.44085 4.34999 0
M  V30 313 H 27.2329 -4.73101 3.79816 0
M  V30 314 H 25.9719 -4.03215 2.74353 0
M  V30 315 H 24.9769 -2.83302 4.7119 0
M  V30 316 H 26.2019 -3.56309 5.78118 0
M  V30 317 H 24.1479 -5.09072 4.13741 0
M  V30 318 H 24.0649 -4.79668 5.84341 0
M  V30 319 H 25.3329 -5.80104 5.20672 0
M  V30 320 N 29.562 -1.4872 -0.521534 0
M  V30 321 C 30.787 -1.61101 -1.30618 0
M  V30 322 C 31.212 -0.274611 -1.86085 0
M  V30 323 O 30.57 0.754937 -1.64834 0
M  V30 324 C 30.618 -2.66709 -2.4269 0
M  V30 325 O 29.722 -2.24456 -3.45967 0
M  V30 326 H 29.063 -0.539921 -0.386499 0
M  V30 327 H 31.593 -1.94767 -0.626645 0
M  V30 328 H 31.603 -2.88245 -2.88754 0
M  V30 329 H 30.278 -3.63727 -2.01682 0
M  V30 330 H 28.855 -2.13168 -3.05964 0
M  V30 331 N 31.0401 0.771051 -1.3745 0
M  V30 332 C 32.2701 1.55789 -1.35696 0
M  V30 333 C 32.6781 1.89107 0.0594523 0
M  V30 334 O 32.0211 1.51984 1.03183 0
M  V30 335 C 32.0831 2.89515 -2.13123 0
M  V30 336 C 31.7471 2.78829 -3.62082 0
M  V30 337 C 32.7441 2.49812 -4.5595 0
M  V30 338 C 30.4291 2.9683 -4.05213 0
M  V30 339 C 32.4231 2.38923 -5.90927 0
M  V30 340 C 30.1101 2.85562 -5.40276 0
M  V30 341 C 31.1081 2.56649 -6.32946 0
M  V30 342 O 30.7961 2.45408 -7.65526 0
M  V30 343 H 30.5281 0.489257 -0.466481 0
M  V30 344 H 33.0821 0.963446 -1.81403 0
M  V30 345 H 31.3121 3.51081 -1.62107 0
M  V30 346 H 33.0011 3.50915 -2.03994 0
M  V30 347 H 33.7671 2.3559 -4.23937 0
M  V30 348 H 29.6461 3.18335 -3.33442 0
M  V30 349 H 33.1901 2.16277 -6.63227 0
M  V30 350 H 29.0871 2.99351 -5.71891 0
M  V30 351 H 29.8551 2.60753 -7.75855 0
M  V30 352 N 32.5182 1.22032 0.997298 0
M  V30 353 C 33.7662 1.04016 1.73278 0
M  V30 354 C 34.0872 -0.426255 1.90284 0
M  V30 355 O 33.3572 -1.30694 1.45931 0
M  V30 356 H 31.9372 0.381897 0.642 0
M  V30 357 H 34.5992 1.5347 1.20137 0
M  V30 358 H 33.6952 1.51441 2.72896 0
M  V30 359 N 33.9963 -1.19345 1.0293 0
M  V30 360 C 34.9433 -2.2258 0.610464 0
M  V30 361 C 35.9133 -1.6179 -0.375946 0
M  V30 362 O 37.0983 -1.88844 -0.272511 0
M  V30 363 C 34.2383 -3.45085 -0.0321473 0
M  V30 364 C 33.3513 -4.20258 1.00035 0
M  V30 365 C 32.4863 -5.3019 0.32746 0
M  V30 366 C 31.5253 -5.97121 1.34584 0
M  V30 367 N 30.6623 -6.98615 0.698726 0
M  V30 368 H 35.5023 -2.57764 1.49538 0
M  V30 369 H 33.0393 -1.26644 0.748311 0
M  V30 370 H 34.9973 -4.15061 -0.421966 0
M  V30 371 H 33.6273 -3.10555 -0.88064 0
M  V30 372 H 32.6793 -3.49223 1.50823 0
M  V30 373 H 33.9913 -4.66175 1.77433 0
M  V30 374 H 33.1453 -6.06587 -0.11718 0
M  V30 375 H 31.8843 -4.85345 -0.478713 0
M  V30 376 H 30.8893 -5.19474 1.80074 0
M  V30 377 H 32.1143 -6.4405 2.15352 0
M  V30 378 H 30.0603 -6.55942 -0.0873471 0
M  V30 379 H 29.9773 -7.42724 1.41058 0
M  V30 380 H 31.2453 -7.79004 0.278102 0
M  V30 381 N 35.4744 -0.807222 -1.35358 0
M  V30 382 C 36.7224 -0.387122 -1.98358 0
M  V30 383 C 37.0434 1.04942 -1.64354 0
M  V30 384 O 36.3134 1.72615 -0.926339 0
M  V30 385 H 34.8934 -0.140154 -0.733734 0
M  V30 386 H 37.5554 -1.0332 -1.6526 0
M  V30 387 H 36.6514 -0.493352 -3.08176 0
M  V30 388 N 36.9525 1.47285 -0.560781 0
M  V30 389 C 38.1775 2.07359 -0.0410566 0
M  V30 390 C 38.6025 1.41017 1.24483 0
M  V30 391 O 37.9605 0.486368 1.74654 0
M  V30 392 C 38.0085 3.6035 0.134123 0
M  V30 393 O 37.1125 3.94681 1.19587 0
M  V30 394 H 36.4535 0.661887 -0.0529291 0
M  V30 395 H 38.9835 1.89252 -0.777482 0
M  V30 396 H 38.9935 4.0652 0.347207 0
M  V30 397 H 37.6685 4.08034 -0.805047 0
M  V30 398 H 36.2455 3.60251 0.962987 0
M  V30 399 N 38.4306 0.297415 1.54768 0
M  V30 400 C 39.6766 -0.313376 2.00364 0
M  V30 401 C 40.0096 -1.53815 1.18553 0
M  V30 402 O 39.2846 -1.92739 0.261103 0
M  V30 403 C 39.5676 -0.673525 3.53745 0
M  V30 404 C 39.4206 0.560133 4.46299 0
M  V30 405 C 40.7396 -1.50143 4.13697 0
M  V30 406 H 37.8586 -0.112428 0.728374 0
M  V30 407 H 40.5006 0.4088 1.8555 0
M  V30 408 H 38.6506 -1.28881 3.665 0
M  V30 409 H 40.3226 1.19863 4.45455 0
M  V30 410 H 38.5656 1.19405 4.17043 0
M  V30 411 H 39.2366 0.26405 5.51368 0
M  V30 412 H 41.7126 -0.981588 4.04356 0
M  V30 413 H 40.5886 -1.72221 5.21182 0
M  V30 414 H 40.8496 -2.48952 3.65343 0
M  V30 415 N 39.9087 -1.5758 0.0250728 0
M  V30 416 C 40.8417 -2.05473 -0.992777 0
M  V30 417 C 41.8197 -0.949661 -1.31986 0
M  V30 418 O 43.0037 -1.21969 -1.43722 0
M  V30 419 C 40.1307 -2.4734 -2.31389 0
M  V30 420 C 39.1767 -3.68827 -2.1417 0
M  V30 421 S 40.0097 -5.15655 -1.44429 0
M  V30 422 C 41.1657 -5.60814 -2.77918 0
M  V30 423 H 41.3987 -2.91486 -0.585078 0
M  V30 424 H 38.9317 -1.53269 -0.186507 0
M  V30 425 H 40.8897 -2.72127 -3.07339 0
M  V30 426 H 39.5507 -1.6168 -2.69292 0
M  V30 427 H 38.7437 -3.95955 -3.11826 0
M  V30 428 H 38.3457 -3.44172 -1.46362 0
M  V30 429 H 40.6377 -5.64806 -3.74166 0
M  V30 430 H 41.5807 -6.60414 -2.55459 0
M  V30 431 H 41.9887 -4.8845 -2.82979 0
M  V30 432 N 41.3868 0.248026 -1.55636 0
M  V30 433 C 42.8028 0.596483 -1.48035 0
M  V30 434 C 43.0028 1.88386 -0.715039 0
M  V30 435 O 42.0588 2.51319 -0.243944 0
M  V30 436 C 43.3718 0.700258 -2.92433 0
M  V30 437 C 44.9198 0.792659 -3.02797 0
M  V30 438 C 45.3948 0.928005 -4.485 0
M  V30 439 N 46.8858 0.992903 -4.52433 0
M  V30 440 C 47.6208 1.11687 -5.62418 0
M  V30 441 N 47.1168 1.20645 -6.82214 0
M  V30 442 N 48.9098 1.14994 -5.50212 0
M  V30 443 H 41.0608 -0.597109 -2.03834 0
M  V30 444 H 43.3238 -0.205925 -0.925364 0
M  V30 445 H 43.0298 -0.175658 -3.51261 0
M  V30 446 H 42.9038 1.57255 -3.42857 0
M  V30 447 H 45.2908 1.65903 -2.4405 0
M  V30 448 H 45.3718 -0.104762 -2.55585 0
M  V30 449 H 45.0158 0.0661971 -5.07857 0
M  V30 450 H 44.9458 1.84045 -4.93391 0
M  V30 451 H 47.4368 0.935064 -3.66149 0
M  V30 452 H 47.7498 1.30008 -7.61786 0
M  V30 453 H 46.0948 1.17605 -6.84977 0
M  V30 454 H 49.2858 1.07643 -4.55555 0
M  V30 455 H 49.4588 1.24311 -6.35965 0
M  V30 456 N 42.8649 1.48995 0.513639 0
M  V30 457 C 43.7949 1.67636 1.62544 0
M  V30 458 C 44.7759 0.525087 1.61793 0
M  V30 459 O 45.9609 0.759502 1.78732 0
M  V30 460 C 43.0909 1.73114 3.01079 0
M  V30 461 C 42.0449 2.87905 3.16693 0
M  V30 462 C 41.3709 2.78486 4.56453 0
M  V30 463 C 42.6709 4.29005 2.97913 0
M  V30 464 H 44.3649 2.60716 1.47198 0
M  V30 465 H 41.9109 1.25465 0.706714 0
M  V30 466 H 43.8639 1.84742 3.78746 0
M  V30 467 H 42.5879 0.766241 3.17484 0
M  V30 468 H 41.2469 2.75859 2.41448 0
M  V30 469 H 40.8949 1.7993 4.69717 0
M  V30 470 H 40.5949 3.55523 4.67843 0
M  V30 471 H 42.1189 2.92104 5.36197 0
M  V30 472 H 43.5329 4.41798 3.65359 0
M  V30 473 H 41.9299 5.07166 3.20785 0
M  V30 474 H 42.9999 4.44329 1.94165 0
M  V30 475 N 44.343 -0.763751 1.37857 0
M  V30 476 C 45.591 -1.51957 1.33243 0
M  V30 477 C 45.912 -1.94835 -0.0801709 0
M  V30 478 O 45.182 -1.66894 -1.02582 0
M  V30 479 H 43.762 -0.563626 0.49024 0
M  V30 480 H 46.424 -0.908504 1.7243 0
M  V30 481 H 45.52 -2.41523 1.97669 0
M  V30 482 N 45.8211 -1.22559 -0.990812 0
M  V30 483 C 47.0981 -0.959875 -1.70428 0
M  V30 484 C 47.4781 0.524455 -2.04481 0
M  V30 485 O 46.8261 1.49302 -1.72977 0
M  V30 486 C 47.0361 -1.85955 -2.95333 0
M  V30 487 C 48.3841 -2.11687 -3.68068 0
M  V30 488 O 49.4081 -1.8342 -3.05345 0
M  V30 489 O 48.2671 -2.59572 -4.80921 0
M  V30 490 H 45.3611 -0.361154 -0.743974 0
M  V30 491 H 47.9071 -1.33554 -1.04697 0
M  V30 492 H 46.6791 -2.86346 -2.66687 0
M  V30 493 H 46.3021 -1.4856 -3.68803 0
M  V30 494 N 47.2992 1.18797 -1.03562 0
M  V30 495 C 48.2092 2.25913 -0.632505 0
M  V30 496 C 49.2252 1.70668 0.338882 0
M  V30 497 O 50.4012 2.00453 0.195076 0
M  V30 498 C 47.4662 3.467 0.00350942 0
M  V30 499 C 46.5272 4.17098 -1.01624 0
M  V30 500 C 45.7602 5.32119 -0.410478 0
M  V30 501 O 45.9832 5.64976 0.784725 0
M  V30 502 O 44.9172 5.9107 -1.13667 0
M  V30 503 H 48.7432 2.62648 -1.52478 0
M  V30 504 H 46.3282 1.25781 -0.806195 0
M  V30 505 H 48.2102 4.19878 0.35781 0
M  V30 506 H 46.8852 3.11798 0.869686 0
M  V30 507 H 45.7922 3.4601 -1.42224 0
M  V30 508 H 47.1252 4.55987 -1.85301 0
M  V30 509 N 48.7773 0.814389 1.34928 0
M  V30 510 C 49.7103 0.175641 2.27523 0
M  V30 511 C 50.6883 -0.662953 1.48471 0
M  V30 512 O 51.8723 -0.628545 1.77712 0
M  V30 513 C 48.9993 -0.755516 3.30166 0
M  V30 514 C 48.0453 0.00445305 4.265 0
M  V30 515 S 48.8783 1.34582 5.18313 0
M  V30 516 C 50.0343 0.419315 6.24494 0
M  V30 517 H 50.2673 0.960691 2.8135 0
M  V30 518 H 47.8003 0.609846 1.41846 0
M  V30 519 H 49.7583 -1.28723 3.89796 0
M  V30 520 H 48.4193 -1.51402 2.75202 0
M  V30 521 H 47.6123 -0.703077 4.99072 0
M  V30 522 H 47.2143 0.466447 3.7108 0
M  V30 523 H 49.5063 -0.392432 6.76362 0
M  V30 524 H 50.4493 1.11446 6.99275 0
M  V30 525 H 50.8573 0.0115389 5.64499 0
M  V30 526 N 50.2554 -1.46986 0.568584 0
M  V30 527 C 51.6714 -1.57946 0.229189 0
M  V30 528 C 51.8714 -1.56567 -1.26843 0
M  V30 529 O 50.9274 -1.47511 -2.04931 0
M  V30 530 C 52.2404 -2.87963 0.865909 0
M  V30 531 C 53.7884 -3.01568 0.838188 0
M  V30 532 C 54.2634 -4.34301 1.45419 0
M  V30 533 N 55.7544 -4.40965 1.41788 0
M  V30 534 C 56.4894 -5.42256 1.86403 0
M  V30 535 N 55.9854 -6.50297 2.38926 0
M  V30 536 N 57.7784 -5.3337 1.77405 0
M  V30 537 H 49.9294 -1.46126 1.54146 0
M  V30 538 H 52.1924 -0.696156 0.643484 0
M  V30 539 H 51.8984 -2.94742 1.91886 0
M  V30 540 H 51.7724 -3.75423 0.365687 0
M  V30 541 H 54.1594 -2.94379 -0.206106 0
M  V30 542 H 54.2404 -2.1562 1.37629 0
M  V30 543 H 53.8844 -4.42247 2.49761 0
M  V30 544 H 53.8144 -5.19 0.891435 0
M  V30 545 H 56.3054 -3.63484 1.03381 0
M  V30 546 H 56.6184 -7.23777 2.70863 0
M  V30 547 H 54.9634 -6.51155 2.42944 0
M  V30 548 H 58.1544 -4.47865 1.3614 0
M  V30 549 H 58.3274 -6.12169 2.12492 0
M  V30 550 N 51.7335 -0.305618 -1.54608 0
M  V30 551 C 52.6655 0.602161 -2.21149 0
M  V30 552 C 53.6785 1.09394 -1.20569 0
M  V30 553 O 54.8675 1.0106 -1.47136 0
M  V30 554 C 51.9675 1.83692 -2.84799 0
M  V30 555 C 51.1405 1.48686 -4.11353 0
M  V30 556 C 50.1995 2.57725 -4.58764 0
M  V30 557 O 49.2255 2.22623 -5.23858 0
M  V30 558 N 50.4275 3.88346 -4.31471 0
M  V30 559 H 53.1925 0.0324966 -2.99682 0
M  V30 560 H 50.7535 -0.128021 -1.61393 0
M  V30 561 H 52.7455 2.55994 -3.13448 0
M  V30 562 H 51.3155 2.31486 -2.10078 0
M  V30 563 H 50.5355 0.596269 -3.89664 0
M  V30 564 H 51.8235 1.22842 -4.93748 0
M  V30 565 H 51.2215 4.19671 -3.79331 0
M  V30 566 H 49.7785 4.56932 -4.64818 0
M  V30 567 N 53.2116 1.57565 -0.0334293 0
M  V30 568 C 54.6226 1.79746 0.504798 0
M  V30 569 C 54.9736 0.944091 1.71992 0
M  V30 570 O 54.0986 0.155694 2.15839 0
M  V30 571 C 54.6936 3.25997 0.922567 0
M  V30 572 C 53.2526 3.49159 1.40588 0
M  V30 573 C 52.3996 2.74785 0.372633 0
M  V30 574 H 55.3506 1.56565 -0.259436 0
M  V30 575 H 55.3716 3.35945 1.78666 0
M  V30 576 H 54.8836 3.88081 0.0379825 0
M  V30 577 H 52.9846 2.92332 2.31025 0
M  V30 578 H 53.0976 4.57873 1.41028 0
M  V30 579 H 51.4616 2.40391 0.841672 0
M  V30 580 H 52.2446 3.39587 -0.503559 0
M  V30 581 N 54.6897 -0.239769 1.55765 0
M  V30 582 C 55.9387 -0.964754 1.77131 0
M  V30 583 C 56.2517 -1.86213 0.59868 0
M  V30 584 O 57.4577 -2.6244 0.695522 0
M  V30 585 C 55.9137 -1.76552 3.1362 0
M  V30 586 C 55.5217 -0.915185 4.38553 0
M  V30 587 C 57.2657 -2.48281 3.44321 0
M  V30 588 C 55.1727 -1.71225 5.66071 0
M  V30 589 H 54.1027 -0.363953 0.660344 0
M  V30 590 H 56.7537 -0.219181 1.82186 0
M  V30 591 H 55.1357 -2.55331 3.02691 0
M  V30 592 H 56.3097 -0.169217 4.60489 0
M  V30 593 H 54.6247 -0.310889 4.15238 0
M  V30 594 H 57.2217 -3.08382 4.36812 0
M  V30 595 H 57.5647 -3.20256 2.65973 0
M  V30 596 H 58.0977 -1.76507 3.56497 0
M  V30 597 H 54.8367 -1.03612 6.4726 0
M  V30 598 H 54.3567 -2.43331 5.48224 0
M  V30 599 H 56.0357 -2.27758 6.05587 0
M  V30 600 N 56.1678 -1.49265 -0.50573 0
M  V30 601 C 57.3928 -1.62478 -1.28902 0
M  V30 602 C 57.8178 -0.294332 -1.85783 0
M  V30 603 O 57.1758 0.737412 -1.65626 0
M  V30 604 C 57.2238 -2.69268 -2.39848 0
M  V30 605 O 56.3278 -2.28113 -3.43567 0
M  V30 606 H 55.6688 -0.54399 -0.380751 0
M  V30 607 H 58.1988 -1.95421 -0.605952 0
M  V30 608 H 58.2088 -2.91291 -2.85681 0
M  V30 609 H 56.8838 -3.65846 -1.97812 0
M  V30 610 H 55.4608 -2.16401 -3.03685 0
M  V30 611 N 57.6459 0.756429 -1.3826 0
M  V30 612 C 58.8919 1.51772 -1.34511 0
M  V30 613 C 59.2249 1.94089 0.0656691 0
M  V30 614 O 58.4999 1.65221 1.02626 0
M  V30 615 C 58.7829 2.77226 -2.29821 0
M  V30 616 C 58.6359 2.41065 -3.79747 0
M  V30 617 C 59.9549 3.79236 -2.23312 0
M  V30 618 H 57.0739 0.550578 -0.489931 0
M  V30 619 H 59.7159 0.866607 -1.69086 0
M  V30 620 H 57.8659 3.32784 -2.00467 0
M  V30 621 H 59.5379 1.91303 -4.19763 0
M  V30 622 H 57.7809 1.7356 -3.97567 0
M  V30 623 H 58.4519 3.3081 -4.41892 0
M  V30 624 H 60.9279 3.3321 -2.49219 0
M  V30 625 H 59.8039 4.64714 -2.92116 0
M  V30 626 H 60.0649 4.24615 -1.23102 0
M  V30 627 N 59.124 1.23083 0.984299 0
M  V30 628 C 60.373 1.05466 1.71929 0
M  V30 629 C 60.686 -0.409211 1.91272 0
M  V30 630 O 61.892 -0.705226 2.62181 0
M  V30 631 C 60.348 1.83874 3.09384 0
M  V30 632 C 59.956 3.34566 2.97943 0
M  V30 633 C 61.7 1.74734 3.8687 0
M  V30 634 C 59.607 4.05381 4.30605 0
M  V30 635 H 58.537 0.391039 0.644674 0
M  V30 636 H 61.188 1.47013 1.09815 0
M  V30 637 H 59.57 1.35131 3.72231 0
M  V30 638 H 60.744 3.90767 2.44209 0
M  V30 639 H 59.059 3.44476 2.33934 0
M  V30 640 H 61.656 2.24957 4.85076 0
M  V30 641 H 61.999 0.709372 4.10212 0
M  V30 642 H 62.532 2.21067 3.30717 0
M  V30 643 H 59.271 5.09467 4.1246 0
M  V30 644 H 58.791 3.53967 4.84218 0
M  V30 645 H 60.47 4.11458 4.99311 0
M  V30 646 N 60.6021 -1.18246 1.0419 0
M  V30 647 C 62.0131 -1.69914 0.773698 0
M  V30 648 C 62.3641 -1.83085 -0.705297 0
M  V30 649 O 61.4891 -1.51123 -1.5489 0
M  V30 650 C 62.0841 -3.08619 1.39784 0
M  V30 651 C 60.6431 -3.57494 1.17792 0
M  V30 652 C 59.7901 -2.34013 1.48773 0
M  V30 653 H 62.7411 -1.02904 1.20816 0
M  V30 654 H 62.7621 -3.71958 0.801714 0
M  V30 655 H 62.2741 -2.99001 2.47426 0
M  V30 656 H 60.3751 -3.72406 0.120295 0
M  V30 657 H 60.4881 -4.40852 1.87581 0
M  V30 658 H 58.8521 -2.37986 0.907463 0
M  V30 659 H 59.6351 -2.27013 2.57527 0
M  V30 660 N 62.0802 -0.821533 -1.34494 0
M  V30 661 C 63.3082 -0.421884 -2.02553 0
M  V30 662 C 63.7232 0.971745 -1.61872 0
M  V30 663 O 63.0802 1.62864 -0.823496 0
M  V30 664 C 63.1312 -0.51285 -3.57844 0
M  V30 665 O 62.8522 -1.85155 -3.97051 0
M  V30 666 C 64.3532 -0.107921 -4.43169 0
M  V30 667 H 61.5732 -0.169482 -0.649243 0
M  V30 668 H 64.1172 -1.1093 -1.71798 0
M  V30 669 H 62.2722 0.126474 -3.87193 0
M  V30 670 H 62.6862 -1.82482 -4.91732 0
M  V30 671 H 64.1602 -0.222657 -5.51551 0
M  V30 672 H 64.6372 0.948401 -4.28838 0
M  V30 673 H 65.2432 -0.720989 -4.19144 0
M  V30 674 N 63.5583 1.46682 -0.576371 0
M  V30 675 C 64.8063 2.02013 -0.0594163 0
M  V30 676 C 65.1273 1.45101 1.30271 0
M  V30 677 O 64.3973 0.633317 1.8538 0
M  V30 678 H 62.9773 0.746759 -0.0189745 0
M  V30 679 H 65.6393 1.79862 -0.750717 0
M  V30 680 H 64.7353 3.12097 0.014345 0
M  V30 681 N 65.0364 0.313813 1.54444 0
M  V30 682 C 66.2614 -0.296681 2.05267 0
M  V30 683 C 66.6864 -1.45757 1.18897 0
M  V30 684 O 66.0444 -1.80239 0.195886 0
M  V30 685 C 66.0924 -0.71831 3.53373 0
M  V30 686 O 65.1964 -1.82175 3.69981 0
M  V30 687 H 64.5374 -0.0554061 0.661684 0
M  V30 688 H 67.0674 0.459387 1.99376 0
M  V30 689 H 67.0774 -1.00364 3.95463 0
M  V30 690 H 65.7524 0.130821 4.15694 0
M  V30 691 H 64.3294 -1.53598 3.39797 0
M  V30 692 N 66.5145 -1.57545 0.0417849 0
M  V30 693 C 67.7635 -1.91494 -0.633492 0
M  V30 694 C 68.0765 -0.921084 -1.72556 0
M  V30 695 O 69.2825 -1.15228 -2.45835 0
M  V30 696 C 67.7385 -3.40072 -1.17808 0
M  V30 697 C 67.3465 -4.47843 -0.118633 0
M  V30 698 C 69.0905 -3.8307 -1.82915 0
M  V30 699 C 66.9975 -5.87529 -0.675578 0
M  V30 700 H 65.9275 -0.714653 -0.24039 0
M  V30 701 H 68.5785 -1.83175 0.109148 0
M  V30 702 H 66.9605 -3.43364 -1.97274 0
M  V30 703 H 68.1345 -4.56128 0.654494 0
M  V30 704 H 66.4495 -4.14128 0.434414 0
M  V30 705 H 69.0465 -4.84794 -2.25563 0
M  V30 706 H 69.3895 -3.1881 -2.67705 0
M  V30 707 H 69.9225 -3.82255 -1.10119 0
M  V30 708 H 66.6615 -6.55362 0.134475 0
M  V30 709 H 66.1815 -5.82824 -1.4169 0
M  V30 710 H 67.8605 -6.36491 -1.1614 0
M  V30 711 N 67.9926 0.231505 -1.5589 0
M  V30 712 C 68.9556 1.27028 -1.90779 0
M  V30 713 C 69.9556 1.40308 -0.785507 0
M  V30 714 O 71.1456 1.38744 -1.05336 0
M  V30 715 C 68.2776 2.64566 -2.14983 0
M  V30 716 H 69.4706 0.973017 -2.83677 0
M  V30 717 H 67.0236 0.471486 -1.49019 0
M  V30 718 H 67.7586 2.99406 -1.24604 0
M  V30 719 H 67.5436 2.56305 -2.96732 0
M  V30 720 H 69.0336 3.39543 -2.43105 0
M  V30 721 N 69.4707 1.49531 0.497807 0
M  V30 722 C 70.4007 1.6935 1.60757 0
M  V30 723 C 71.3817 0.542218 1.61227 0
M  V30 724 O 72.5667 0.778417 1.77917 0
M  V30 725 C 69.6967 1.76298 2.99226 0
M  V30 726 C 68.6507 2.91248 3.13622 0
M  V30 727 C 67.9767 2.83312 4.53474 0
M  V30 728 C 69.2767 4.3214 2.93346 0
M  V30 729 H 70.9707 2.62263 1.44425 0
M  V30 730 H 68.5167 1.26208 0.693367 0
M  V30 731 H 70.4697 1.88749 3.76765 0
M  V30 732 H 69.1937 0.799871 3.16654 0
M  V30 733 H 67.8527 2.78404 2.38509 0
M  V30 734 H 67.5007 1.84902 4.67782 0
M  V30 735 H 67.2007 3.60465 4.64046 0
M  V30 736 H 68.7247 2.97775 5.33069 0
M  V30 737 H 70.1387 4.45649 3.60652 0
M  V30 738 H 68.5357 5.1054 3.15387 0
M  V30 739 H 69.6057 4.46363 1.89441 0
M  V30 740 N 70.9488 -0.749086 1.3866 0
M  V30 741 C 72.2258 -1.4992 1.25632 0
M  V30 742 C 72.6058 -2.10633 -0.140317 0
M  V30 743 O 71.9538 -1.97437 -1.15025 0
M  V30 744 C 72.1638 -2.56195 2.36992 0
M  V30 745 C 73.5118 -3.22972 2.75634 0
M  V30 746 O 74.5358 -2.66502 2.36337 0
M  V30 747 O 73.3948 -4.25122 3.43415 0
M  V30 748 H 70.4888 -0.665067 0.491544 0
M  V30 749 H 73.0348 -0.784113 1.50498 0
M  V30 750 H 71.8068 -2.09612 3.30422 0
M  V30 751 H 71.4298 -3.35279 2.13714 0
M  V30 752 N 72.4269 -1.23603 -0.977757 0
M  V30 753 C 73.6729 -1.07129 -1.72195 0
M  V30 754 C 74.0059 0.390501 -1.90233 0
M  V30 755 O 73.2809 1.28902 -1.45653 0
M  V30 756 C 73.5639 -1.80031 -3.11867 0
M  V30 757 C 73.4169 -3.33899 -3.01383 0
M  V30 758 C 74.7359 -1.56492 -4.11337 0
M  V30 759 H 71.8549 -0.390571 -0.624999 0
M  V30 760 H 74.4969 -1.52142 -1.13811 0
M  V30 761 H 72.6469 -1.41768 -3.6171 0
M  V30 762 H 74.3189 -3.81699 -2.59043 0
M  V30 763 H 72.5619 -3.62796 -2.37827 0
M  V30 764 H 73.2329 -3.801 -4.00285 0
M  V30 765 H 75.7089 -1.89757 -3.70313 0
M  V30 766 H 74.5849 -2.09973 -5.07151 0
M  V30 767 H 74.8459 -0.500874 -4.39254 0
M  V30 768 N 73.905 1.17692 -1.04816 0
M  V30 769 C 74.868 2.19787 -0.650117 0
M  V30 770 C 75.868 1.58044 0.296427 0
M  V30 771 O 77.058 1.74012 0.0808097 0
M  V30 772 C 74.19 3.40869 0.0456987 0
M  V30 773 H 75.383 2.56516 -1.5537 0
M  V30 774 H 72.936 1.31708 -0.841594 0
M  V30 775 H 73.671 3.09681 0.962726 0
M  V30 776 H 73.456 3.86928 -0.634727 0
M  V30 777 H 74.946 4.16445 0.310432 0
M  V30 778 N 75.3831 0.828654 1.34056 0
M  V30 779 C 76.3131 0.269443 2.3194 0
M  V30 780 C 77.2941 -0.617247 1.58506 0
M  V30 781 O 78.4791 -0.542931 1.86456 0
M  V30 782 C 75.6091 -0.564793 3.42677 0
M  V30 783 C 74.5631 0.225241 4.27407 0
M  V30 784 C 73.8891 -0.7321 5.29664 0
M  V30 785 C 75.1891 1.43663 5.02154 0
M  V30 786 H 76.8831 1.08728 2.7896 0
M  V30 787 H 74.4291 0.524283 1.34117 0
M  V30 788 H 76.3821 -0.966233 4.10173 0
M  V30 789 H 75.1061 -1.41574 2.9432 0
M  V30 790 H 73.7651 0.608117 3.61521 0
M  V30 791 H 73.4131 -1.57916 4.77568 0
M  V30 792 H 73.1131 -0.20767 5.87233 0
M  V30 793 H 74.6371 -1.13128 6.00029 0
M  V30 794 H 76.0511 1.1089 5.62473 0
M  V30 795 H 74.4481 1.89711 5.69324 0
M  V30 796 H 75.5181 2.21181 4.31517 0
M  V30 797 N 76.8612 -1.46375 0.584142 0
M  V30 798 C 78.1092 -2.01978 0.0701287 0
M  V30 799 C 78.4302 -1.4579 -1.295 0
M  V30 800 O 77.7002 -0.64314 -1.85042 0
M  V30 801 H 76.2802 -0.746648 0.0229345 0
M  V30 802 H 78.9422 -1.79461 0.760245 0
M  V30 803 H 78.0382 -3.121 0.0022064 0
M  V30 804 N 78.3393 -0.321999 -1.54275 0
M  V30 805 C 79.5883 0.281931 -1.9972 0
M  V30 806 C 79.9013 1.53369 -1.21397 0
M  V30 807 O 81.1073 2.21352 -1.57211 0
M  V30 808 C 79.5633 0.5529 -3.55628 0
M  V30 809 C 79.1713 -0.681721 -4.42783 0
M  V30 810 C 80.9153 1.11687 -4.09544 0
M  V30 811 C 78.8223 -0.382742 -5.9016 0
M  V30 812 H 77.7523 0.109124 -0.746062 0
M  V30 813 H 80.4033 -0.43398 -1.78294 0
M  V30 814 H 78.7853 1.32896 -3.73035 0
M  V30 815 H 79.9593 -1.45723 -4.37151 0
M  V30 816 H 78.2743 -1.1658 -3.99748 0
M  V30 817 H 80.8713 1.35515 -5.17242 0
M  V30 818 H 81.2143 2.06575 -3.61431 0
M  V30 819 H 81.7473 0.402032 -3.95763 0
M  V30 820 H 78.4863 -1.30076 -6.42464 0
M  V30 821 H 78.0063 0.355094 -5.98748 0
M  V30 822 H 79.6853 0.00800157 -6.47 0
M  V30 823 N 79.8174 1.5752 -0.0501392 0
M  V30 824 C 81.0654 1.9227 0.622642 0
M  V30 825 C 81.3864 0.929083 1.71444 0
M  V30 826 O 80.6564 -0.0262186 1.95882 0
M  V30 827 H 79.2364 0.709739 0.232981 0
M  V30 828 H 81.8984 1.94628 -0.102898 0
M  V30 829 H 80.9944 2.93479 1.06191 0
M  V30 830 N 81.2955 -0.223234 1.56011 0
M  V30 831 C 82.5435 -0.946003 1.78592 0
M  V30 832 C 82.8645 -1.84936 0.618349 0
M  V30 833 O 82.1345 -1.92473 -0.364833 0
M  V30 834 H 80.7145 -0.352298 0.658707 0
M  V30 835 H 83.3765 -0.235494 1.93472 0
M  V30 836 H 82.4725 -1.55381 2.70672 0
M  V30 837 N 82.7736 -1.49793 -0.48987 0
M  V30 838 C 83.7036 -1.70201 -1.59856 0
M  V30 839 C 84.6846 -0.55076 -1.60937 0
M  V30 840 O 85.8696 -0.787841 -1.77501 0
M  V30 841 C 82.9996 -1.77882 -2.98287 0
M  V30 842 C 81.9536 -2.92907 -3.12073 0
M  V30 843 C 81.2796 -2.85712 -4.51965 0
M  V30 844 C 82.5796 -4.3369 -2.91051 0
M  V30 845 H 84.2736 -2.63025 -1.43032 0
M  V30 846 H 81.8196 -1.26574 -0.686664 0
M  V30 847 H 83.7726 -1.90744 -3.75759 0
M  V30 848 H 82.4966 -0.816653 -3.16225 0
M  V30 849 H 81.1556 -2.79665 -2.37029 0
M  V30 850 H 80.8036 -1.8738 -4.66795 0
M  V30 851 H 80.5036 -3.62921 -4.62128 0
M  V30 852 H 82.0276 -3.00598 -5.31482 0
M  V30 853 H 83.4416 -4.47555 -3.58284 0
M  V30 854 H 81.8386 -5.12205 -3.12675 0
M  V30 855 H 82.9086 -4.47362 -1.87071 0
M  V30 856 N 84.2517 0.741722 -1.39055 0
M  V30 857 C 85.6627 1.31966 -1.32068 0
M  V30 858 C 86.0137 1.96192 0.0180797 0
M  V30 859 O 85.1387 1.95861 0.920196 0
M  V30 860 C 85.7337 2.39954 -2.39181 0
M  V30 861 C 84.2927 2.93438 -2.35735 0
M  V30 862 C 83.4397 1.66936 -2.21422 0
M  V30 863 H 86.3907 0.539721 -1.4924 0
M  V30 864 H 86.4117 3.20182 -2.05581 0
M  V30 865 H 85.9237 1.9318 -3.36605 0
M  V30 866 H 84.0247 3.4451 -1.41929 0
M  V30 867 H 84.1377 3.4701 -3.30335 0
M  V30 868 H 82.5017 1.91016 -1.68478 0
M  V30 869 H 83.2847 1.22224 -3.20806 0
M  V30 870 N 85.7298 1.2412 0.971189 0
M  V30 871 C 87.1458 1.00584 1.23916 0
M  V30 872 C 87.3458 -0.287481 1.99439 0
M  V30 873 O 86.4018 -1.00454 2.31658 0
M  V30 874 C 87.7148 2.21864 2.0297 0
M  V30 875 C 89.2628 2.26452 2.16076 0
M  V30 876 C 89.7378 3.47343 2.98524 0
M  V30 877 N 91.2288 3.47639 3.06107 0
M  V30 878 C 91.9638 4.37837 3.70251 0
M  V30 879 N 91.4598 5.38286 4.36142 0
M  V30 880 N 93.2528 4.25558 3.67228 0
M  V30 881 H 85.4038 2.07236 0.465499 0
M  V30 882 H 87.6668 0.909236 0.268315 0
M  V30 883 H 87.3728 3.15771 1.54861 0
M  V30 884 H 87.2468 2.23698 3.03709 0
M  V30 885 H 89.6338 1.33078 2.6339 0
M  V30 886 H 89.7148 2.28645 1.14696 0
M  V30 887 H 89.3588 4.41029 2.51905 0
M  V30 888 H 89.2888 3.42393 4.00093 0
M  V30 889 H 91.7798 2.74966 2.59233 0
M  V30 890 H 92.0928 6.03352 4.82894 0
M  V30 891 H 90.4378 5.42176 4.34822 0
M  V30 892 H 93.6288 3.46322 3.14927 0
M  V30 893 H 93.8018 4.96054 4.16935 0
M  V30 894 N 87.2079 -1.17134 1.05439 0
M  V30 895 C 88.4559 -1.87085 0.764429 0
M  V30 896 C 88.7769 -1.81584 -0.710787 0
M  V30 897 O 88.0469 -1.24349 -1.51374 0
M  V30 898 H 86.6269 -0.692627 0.279779 0
M  V30 899 H 89.2889 -1.42087 1.33406 0
M  V30 900 H 88.3849 -2.92759 1.0816 0
M  V30 901 N 88.686 -0.835752 -1.33615 0
M  V30 902 C 90.102 -0.523139 -1.50783 0
M  V30 903 C 90.302 0.950171 -1.77691 0
M  V30 904 O 89.358 1.73411 -1.83534 0
M  V30 905 C 90.671 -1.39378 -2.66448 0
M  V30 906 C 92.219 -1.39223 -2.80332 0
M  V30 907 C 92.694 -2.24765 -3.99055 0
M  V30 908 N 94.185 -2.22458 -4.06284 0
M  V30 909 C 94.92 -2.85386 -4.97336 0
M  V30 910 N 94.416 -3.57354 -5.93523 0
M  V30 911 N 96.209 -2.74872 -4.90308 0
M  V30 912 H 88.36 -1.78952 -1.14411 0
M  V30 913 H 90.623 -0.763297 -0.562212 0
M  V30 914 H 90.329 -2.44061 -2.53234 0
M  V30 915 H 90.203 -1.0676 -3.61776 0
M  V30 916 H 92.59 -0.353136 -2.92979 0
M  V30 917 H 92.671 -1.75846 -1.85773 0
M  V30 918 H 92.315 -3.28732 -3.87167 0
M  V30 919 H 92.245 -1.85485 -4.92852 0
M  V30 920 H 94.736 -1.70119 -3.37443 0
M  V30 921 H 95.049 -4.02584 -6.59656 0
M  V30 922 H 93.394 -3.61461 -5.93608 0
M  V30 923 H 96.585 -2.18213 -4.14126 0
M  V30 924 H 96.758 -3.24199 -5.61069 0
M  V30 925 N 90.1641 1.46063 -0.591896 0
M  V30 926 C 91.4101 2.02638 -0.0811191 0
M  V30 927 C 91.7431 1.4613 1.27905 0
M  V30 928 O 91.0181 0.629908 1.84017 0
M  V30 929 C 91.3011 3.60091 -0.0252436 0
M  V30 930 C 91.1541 4.26965 -1.41496 0
M  V30 931 C 92.4731 4.3496 0.670685 0
M  V30 932 H 89.5921 0.73635 -0.0309524 0
M  V30 933 H 92.2341 1.741 -0.760859 0
M  V30 934 H 90.3841 3.84535 0.553624 0
M  V30 935 H 92.0561 4.13756 -2.0397 0
M  V30 936 H 90.2991 3.85971 -1.98011 0
M  V30 937 H 90.9701 5.35781 -1.32825 0
M  V30 938 H 93.4461 4.15716 0.178825 0
M  V30 939 H 92.3221 5.44686 0.678837 0
M  V30 940 H 92.5831 4.06685 1.73379 0
M  V30 941 N 91.6422 0.330177 1.54103 0
M  V30 942 C 92.8882 -0.270806 2.00984 0
M  V30 943 C 93.2212 -1.51265 1.21789 0
M  V30 944 O 92.4962 -1.92142 0.301927 0
M  V30 945 C 92.7792 -0.598339 3.55094 0
M  V30 946 C 92.6322 0.654674 4.4501 0
M  V30 947 C 93.9512 -1.41334 4.16789 0
M  V30 948 H 91.0702 -0.0969531 0.730595 0
M  V30 949 H 93.7122 0.448066 1.84641 0
M  V30 950 H 91.8622 -1.21078 3.69151 0
M  V30 951 H 93.5342 1.29285 4.42813 0
M  V30 952 H 91.7772 1.28224 4.14416 0
M  V30 953 H 92.4482 0.380944 5.50684 0
M  V30 954 H 94.9242 -0.895597 4.06347 0
M  V30 955 H 93.8002 -1.61127 5.24718 0
M  V30 956 H 94.0612 -2.41146 3.70541 0
M  V30 957 N 93.1203 -1.57491 0.0584922 0
M  V30 958 C 94.0303 -2.15448 -0.928414 0
M  V30 959 C 95.0463 -1.11416 -1.3365 0
M  V30 960 O 96.2223 -1.4362 -1.41193 0
M  V30 961 C 93.2873 -2.69393 -2.18239 0
M  V30 962 C 92.3483 -3.88249 -1.83196 0
M  V30 963 C 91.5813 -4.39613 -3.02616 0
M  V30 964 O 91.8043 -3.90023 -4.16219 0
M  V30 965 O 90.7383 -5.31111 -2.83204 0
M  V30 966 H 94.5643 -3.00112 -0.465483 0
M  V30 967 H 92.1493 -1.48499 -0.163826 0
M  V30 968 H 94.0313 -3.04026 -2.91798 0
M  V30 969 H 92.7063 -1.87796 -2.63656 0
M  V30 970 H 91.6133 -3.58492 -1.06931 0
M  V30 971 H 92.9463 -4.71098 -1.42573 0
M  V30 972 N 94.5984 0.214957 -1.56127 0
M  V30 973 C 95.8474 0.936451 -1.78643 0
M  V30 974 C 96.1604 1.85237 -0.628229 0
M  V30 975 O 97.3664 2.613 -0.737186 0
M  V30 976 C 95.8224 1.7154 -3.16389 0
M  V30 977 C 95.4304 0.845299 -4.39953 0
M  V30 978 C 97.1744 2.42772 -3.48227 0
M  V30 979 C 95.0814 1.62198 -5.68723 0
M  V30 980 H 94.0114 0.353401 -0.666051 0
M  V30 981 H 96.6624 0.190169 -1.82512 0
M  V30 982 H 95.0444 2.50484 -3.06715 0
M  V30 983 H 96.2184 0.0959353 -4.607 0
M  V30 984 H 94.5334 0.244789 -4.1568 0
M  V30 985 H 97.1304 3.01394 -4.41663 0
M  V30 986 H 97.4734 3.15984 -2.71035 0
M  V30 987 H 98.0064 1.70813 -3.5926 0
M  V30 988 H 94.7454 0.933011 -6.48826 0
M  V30 989 H 94.2654 2.34579 -5.52026 0
M  V30 990 H 95.9444 2.18095 -6.09133 0
M  V30 991 N 96.0765 1.50051 0.48192 0
M  V30 992 C 97.3065 1.63999 1.2565 0
M  V30 993 C 97.7145 0.318288 1.86504 0
M  V30 994 O 97.0575 -0.708534 1.69486 0
M  V30 995 C 97.1195 2.66504 2.4128 0
M  V30 996 C 96.7835 4.10352 2.01148 0
M  V30 997 C 97.7805 4.96562 1.54021 0
M  V30 998 C 95.4655 4.56203 2.10199 0
M  V30 999 C 97.4595 6.26668 1.16473 0
M  V30 1000 C 95.1465 5.86318 1.72264 0
M  V30 1001 C 96.1445 6.71375 1.25477 0
M  V30 1002 O 95.8325 7.99062 0.880626 0
M  V30 1003 H 95.5645 0.55456 0.386574 0
M  V30 1004 H 98.1185 1.96954 0.582944 0
M  V30 1005 H 96.3485 2.28769 3.11772 0
M  V30 1006 H 98.0375 2.69783 3.03268 0
M  V30 1007 H 98.8035 4.62358 1.46458 0
M  V30 1008 H 94.6825 3.90152 2.45566 0
M  V30 1009 H 98.2265 6.93011 0.798841 0
M  V30 1010 H 94.1235 6.20046 1.79482 0
M  V30 1011 H 94.8915 8.12239 1.01043 0
M  V30 1012 N 97.5546 -0.734337 1.39446 0
M  V30 1013 C 98.8026 -1.49096 1.36436 0
M  V30 1014 C 99.1236 -1.94961 -0.0388255 0
M  V30 1015 O 98.3936 -1.69033 -0.990191 0
M  V30 1016 H 96.9736 -0.5531 0.502085 0
M  V30 1017 H 99.6356 -0.871725 1.74319 0
M  V30 1018 H 98.7316 -2.37276 2.02747 0
M  V30 1019 N 99.0327 -1.24633 -0.964593 0
M  V30 1020 C 100.444 -1.08045 -1.5226 0
M  V30 1021 C 100.795 0.347116 -1.93105 0
M  V30 1022 O 99.9197 1.23588 -1.77637 0
M  V30 1023 C 100.515 -1.95514 -2.76695 0
M  V30 1024 C 99.0737 -1.8314 -3.28841 0
M  V30 1025 C 98.2207 -1.90262 -2.01732 0
M  V30 1026 H 101.172 -1.38064 -0.782553 0
M  V30 1027 H 101.193 -1.48925 -3.50145 0
M  V30 1028 H 100.705 -2.99407 -2.46936 0
M  V30 1029 H 98.8057 -0.82092 -3.63444 0
M  V30 1030 H 98.9187 -2.67406 -3.97531 0
M  V30 1031 H 97.2827 -1.34027 -2.16584 0
M  V30 1032 H 98.0657 -2.9574 -1.74334 0
M  V30 1033 N 100.511 1.16574 -1.06058 0
M  V30 1034 C 101.421 2.2452 -0.680282 0
M  V30 1035 C 102.437 1.71348 0.302604 0
M  V30 1036 O 103.613 2.00822 0.152513 0
M  V30 1037 C 100.678 3.46629 -0.0700315 0
M  V30 1038 C 99.7388 4.14849 -1.10448 0
M  V30 1039 C 98.9718 5.31129 -0.523256 0
M  V30 1040 O 99.1948 5.66514 0.664709 0
M  V30 1041 O 98.1288 5.88526 -1.26179 0
M  V30 1042 H 101.955 2.59355 -1.58015 0
M  V30 1043 H 99.5398 1.24043 -0.832694 0
M  V30 1044 H 101.422 4.20543 0.268667 0
M  V30 1045 H 100.097 3.13573 0.803353 0
M  V30 1046 H 99.0038 3.42916 -1.49532 0
M  V30 1047 H 100.337 4.51954 -1.94931 0
M  V30 1048 N 101.989 0.842826 1.3317 0
M  V30 1049 C 103.214 0.453129 2.02389 0
M  V30 1050 C 103.639 -0.939105 1.6298 0
M  V30 1051 O 102.997 -1.61472 0.8244 0
M  V30 1052 C 103.045 0.586094 3.55805 0
M  V30 1053 O 102.149 -0.386029 4.10589 0
M  V30 1054 H 101.49 0.183664 0.638094 0
M  V30 1055 H 104.02 1.13875 1.69981 0
M  V30 1056 H 104.03 0.469209 4.05293 0
M  V30 1057 H 102.705 1.6014 3.83833 0
M  V30 1058 H 101.282 -0.226371 3.72212 0
M  V30 1059 N 103.467 -1.45747 0.599634 0
M  V30 1060 C 104.692 -2.07178 0.0960198 0
M  V30 1061 C 105.117 -1.44268 -1.207 0
M  V30 1062 O 104.475 -0.532503 -1.73303 0
M  V30 1063 C 104.523 -3.60579 -0.0385348 0
M  V30 1064 O 103.627 -3.97713 -1.0908 0
M  V30 1065 H 102.968 -0.660251 0.0704593 0
M  V30 1066 H 105.498 -1.87124 0.827385 0
M  V30 1067 H 105.508 -4.07298 -0.239304 0
M  V30 1068 H 104.183 -4.05756 0.912947 0
M  V30 1069 H 102.76 -3.62678 -0.867135 0
M  V30 1070 N 104.945 -0.338344 -1.53925 0
M  V30 1071 C 106.193 0.259245 -2.0043 0
M  V30 1072 C 106.514 1.51484 -1.22791 0
M  V30 1073 O 105.784 1.93037 -0.33368 0
M  V30 1074 H 104.364 0.0987845 -0.740439 0
M  V30 1075 H 107.026 -0.458302 -1.89435 0
M  V30 1076 H 106.122 0.505334 -3.07982 0
M  V30 1077 N 106.423 1.57458 -0.0668435 0
M  V30 1078 C 107.37 2.12439 0.902122 0
M  V30 1079 C 108.34 1.03565 1.2986 0
M  V30 1080 O 109.525 1.312 1.38532 0
M  V30 1081 C 106.665 2.6865 2.16614 0
M  V30 1082 C 105.778 3.91663 1.82274 0
M  V30 1083 C 104.913 4.36134 3.0325 0
M  V30 1084 C 103.952 5.51808 2.64904 0
M  V30 1085 N 103.089 5.9126 3.78624 0
M  V30 1086 H 107.929 2.94934 0.426382 0
M  V30 1087 H 105.466 1.4575 0.198819 0
M  V30 1088 H 107.424 2.99346 2.90599 0
M  V30 1089 H 106.054 1.88928 2.61737 0
M  V30 1090 H 105.106 3.6746 0.983719 0
M  V30 1091 H 106.418 4.75693 1.50059 0
M  V30 1092 H 105.572 4.68465 3.85519 0
M  V30 1093 H 104.311 3.50948 3.38655 0
M  V30 1094 H 103.316 5.19133 1.81055 0
M  V30 1095 H 104.541 6.38722 2.30675 0
M  V30 1096 H 102.487 5.09024 4.138 0
M  V30 1097 H 102.404 6.70018 3.5016 0
M  V30 1098 H 103.672 6.28212 4.61486 0
M  V30 1099 N 107.901 -0.206675 1.56239 0
M  V30 1100 C 109.129 -0.945345 1.8404 0
M  V30 1101 C 109.544 -1.77336 0.647885 0
M  V30 1102 O 108.901 -1.78425 -0.383511 0
M  V30 1103 C 108.952 -1.8509 3.10522 0
M  V30 1104 O 108.673 -1.05634 4.25174 0
M  V30 1105 C 110.174 -2.70222 3.51418 0
M  V30 1106 H 107.394 -0.276372 0.61144 0
M  V30 1107 H 109.938 -0.217417 2.03341 0
M  V30 1108 H 108.093 -2.53259 2.93153 0
M  V30 1109 H 108.507 -1.67238 4.97124 0
M  V30 1110 H 109.981 -3.29438 4.42916 0
M  V30 1111 H 110.458 -3.43358 2.73864 0
M  V30 1112 H 111.064 -2.07443 3.71278 0
M  V30 1113 N 109.379 -1.50304 -0.473955 0
M  V30 1114 C 110.607 -1.64902 -1.24959 0
M  V30 1115 C 111.022 -0.331198 -1.85872 0
M  V30 1116 O 110.379 0.68652 -1.69095 0
M  V30 1117 C 110.43 -2.73803 -2.36038 0
M  V30 1118 O 110.151 -4.00477 -1.77624 0
M  V30 1119 C 111.652 -2.99349 -3.26964 0
M  V30 1120 H 108.872 -0.554383 -0.378022 0
M  V30 1121 H 111.416 -1.9651 -0.566054 0
M  V30 1122 H 109.571 -2.44898 -3.00173 0
M  V30 1123 H 109.985 -4.60678 -2.5075 0
M  V30 1124 H 111.459 -3.79217 -4.01121 0
M  V30 1125 H 111.936 -2.10307 -3.85574 0
M  V30 1126 H 112.542 -3.29774 -2.68569 0
M  V30 1127 N 110.857 0.726932 -1.39834 0
M  V30 1128 C 112.103 1.48884 -1.377 0
M  V30 1129 C 112.436 1.94185 0.0244852 0
M  V30 1130 O 111.711 1.67361 0.990986 0
M  V30 1131 C 111.994 2.72288 -2.3565 0
M  V30 1132 C 111.847 2.32956 -3.84775 0
M  V30 1133 C 113.166 3.74414 -2.31306 0
M  V30 1134 H 110.285 0.540062 -0.5015 0
M  V30 1135 H 112.927 0.830547 -1.70886 0
M  V30 1136 H 111.077 3.28457 -2.07481 0
M  V30 1137 H 112.749 1.82356 -4.23726 0
M  V30 1138 H 110.992 1.65088 -4.01159 0
M  V30 1139 H 111.663 3.21362 -4.4881 0
M  V30 1140 H 114.139 3.27849 -2.56231 0
M  V30 1141 H 113.015 4.58414 -3.01907 0
M  V30 1142 H 113.276 4.21909 -1.32081 0
M  V30 1143 N 112.336 1.25143 0.95797 0
M  V30 1144 C 113.299 1.05321 2.03569 0
M  V30 1145 C 114.299 0.007152 1.60798 0
M  V30 1146 O 115.489 0.24903 1.72411 0
M  V30 1147 C 112.621 0.598394 3.35607 0
M  V30 1148 H 113.814 2.00986 2.22586 0
M  V30 1149 H 111.367 1.07502 1.13459 0
M  V30 1150 H 112.102 -0.361014 3.22284 0
M  V30 1151 H 111.887 1.35351 3.67998 0
M  V30 1152 H 113.377 0.48104 4.1482 0
M  V30 1153 N 113.814 -1.1601 1.06675 0
M  V30 1154 C 114.744 -2.22688 0.702307 0
M  V30 1155 C 115.725 -1.67306 -0.307032 0
M  V30 1156 O 116.91 -1.93352 -0.181305 0
M  V30 1157 C 114.04 -3.47178 0.092038 0
M  V30 1158 C 112.994 -4.15477 1.02777 0
M  V30 1159 C 112.32 -5.33963 0.28061 0
M  V30 1160 C 113.62 -4.66019 2.35846 0
M  V30 1161 H 115.314 -2.53429 1.59419 0
M  V30 1162 H 112.86 -1.21813 0.767961 0
M  V30 1163 H 114.813 -4.21037 -0.174814 0
M  V30 1164 H 113.537 -3.15749 -0.834877 0
M  V30 1165 H 112.196 -3.43549 1.27944 0
M  V30 1166 H 111.844 -4.98788 -0.649545 0
M  V30 1167 H 111.544 -5.806 0.904258 0
M  V30 1168 H 113.068 -6.10596 0.021396 0
M  V30 1169 H 114.482 -5.3144 2.15045 0
M  V30 1170 H 112.879 -5.23293 2.93743 0
M  V30 1171 H 113.949 -3.82023 2.98641 0
M  V30 1172 N 115.292 -0.849877 -1.32721 0
M  V30 1173 C 116.242 -0.262892 -2.26479 0
M  V30 1174 C 117.226 0.588493 -1.49752 0
M  V30 1175 O 118.418 0.438659 -1.71478 0
M  V30 1176 C 115.547 0.551818 -3.38836 0
M  V30 1177 C 114.633 -0.311689 -4.22953 0
M  V30 1178 N 115.024 -1.39567 -4.86163 0
M  V30 1179 C 113.322 -0.100611 -4.45887 0
M  V30 1180 C 114.023 -1.92651 -5.48872 0
M  V30 1181 N 112.999 -1.22637 -5.29586 0
M  V30 1182 H 116.801 -1.09166 -2.72873 0
M  V30 1183 H 114.315 -0.695486 -1.46754 0
M  V30 1184 H 116.312 0.988713 -4.05006 0
M  V30 1185 H 114.972 1.37844 -2.93988 0
M  V30 1186 H 115.983 -1.77859 -4.86402 0
M  V30 1187 H 112.66 0.691681 -4.11731 0
M  V30 1188 H 114.05 -2.83487 -6.09167 0
M  V30 1189 N 116.77 1.45427 -0.607355 0
M  V30 1190 C 117.733 2.28974 0.101693 0
M  V30 1191 C 118.733 1.39754 0.795329 0
M  V30 1192 O 119.923 1.61878 0.643527 0
M  V30 1193 C 117.055 3.20768 1.15414 0
M  V30 1194 H 118.248 2.93147 -0.632844 0
M  V30 1195 H 115.801 1.51945 -0.366391 0
M  V30 1196 H 116.536 2.61395 1.91945 0
M  V30 1197 H 116.321 3.86489 0.66098 0
M  V30 1198 H 117.811 3.83589 1.65073 0
M  V30 1199 N 118.248 0.346503 1.53744 0
M  V30 1200 C 119.494 -0.249473 2.0126 0
M  V30 1201 C 119.827 -1.49965 1.23386 0
M  V30 1202 O 119.102 -1.91811 0.32229 0
M  V30 1203 C 119.385 -0.560643 3.55709 0
M  V30 1204 C 119.238 0.701836 4.44291 0
M  V30 1205 C 120.557 -1.36905 4.18264 0
M  V30 1206 H 117.676 -0.0891987 0.731582 0
M  V30 1207 H 120.318 0.467624 1.84156 0
M  V30 1208 H 118.468 -1.17156 3.70414 0
M  V30 1209 H 120.14 1.33974 4.41417 0
M  V30 1210 H 118.383 1.32612 4.13033 0
M  V30 1211 H 119.054 0.43933 5.50249 0
M  V30 1212 H 121.53 -0.852448 4.07275 0
M  V30 1213 H 120.406 -1.55553 5.26398 0
M  V30 1214 H 120.667 -2.37203 3.73078 0
M  V30 1215 N 119.726 -1.57421 0.075193 0
M  V30 1216 C 120.689 -2.11791 -0.876203 0
M  V30 1217 C 121.689 -1.04268 -1.22412 0
M  V30 1218 O 122.879 -1.30242 -1.15684 0
M  V30 1219 C 120.011 -2.62207 -2.17854 0
M  V30 1220 H 121.204 -2.9716 -0.40444 0
M  V30 1221 H 118.757 -1.55333 -0.173557 0
M  V30 1222 H 119.492 -1.803 -2.6956 0
M  V30 1223 H 119.277 -3.40802 -1.93897 0
M  V30 1224 H 120.767 -3.04335 -2.85955 0
M  V30 1225 N 121.204 0.198386 -1.56346 0
M  V30 1226 C 122.152 1.26538 -1.95169 0
M  V30 1227 C 123.146 1.47295 -0.836685 0
M  V30 1228 O 124.352 1.48195 -1.02167 0
M  V30 1229 H 120.727 0.424744 -0.620561 0
M  V30 1230 H 122.698 0.910904 -2.84157 0
M  V30 1231 C 121.447 2.6035 -2.30463 0
M  V30 1232 H 120.77 2.45192 -3.15786 0
M  V30 1233 H 122.21 3.33762 -2.61494 0
M  V30 1234 C 120.669 3.17096 -1.13806 0
M  V30 1235 O 121.199 3.99588 -0.41135 0
M  V30 1236 N 119.405 2.75795 -0.915736 0
M  V30 1237 H 118.952 2.08816 -1.50843 0
M  V30 1238 H 118.91 3.14101 -0.136979 0
M  V30 1239 N 122.682 1.50554 0.465978 0
M  V30 1240 C 123.645 1.69233 1.54574 0
M  V30 1241 C 124.645 0.562901 1.50626 0
M  V30 1242 O 125.835 0.830016 1.53155 0
M  V30 1243 C 122.967 1.7223 2.94193 0
M  V30 1244 H 124.16 2.65571 1.39327 0
M  V30 1245 H 121.713 1.40111 0.692711 0
M  V30 1246 H 122.448 0.77603 3.14878 0
M  V30 1247 H 122.233 2.54285 2.98466 0
M  V30 1248 H 123.723 1.88618 3.72576 0
M  V30 1249 N 124.16 -0.719506 1.40217 0
M  V30 1250 C 125.092 -1.84428 1.36084 0
M  V30 1251 C 126.105 -1.60597 0.266913 0
M  V30 1252 O 127.294 -1.70544 0.526983 0
M  V30 1253 C 124.394 -3.20757 1.094 0
M  V30 1254 C 123.567 -3.71817 2.30372 0
M  V30 1255 C 122.626 -4.86748 1.99907 0
M  V30 1256 O 121.652 -4.99603 2.72737 0
M  V30 1257 N 122.854 -5.7226 0.974635 0
M  V30 1258 H 125.619 -1.88473 2.33019 0
M  V30 1259 H 123.18 -0.900885 1.3452 0
M  V30 1260 H 125.172 -3.95235 0.870116 0
M  V30 1261 H 123.742 -3.11884 0.211452 0
M  V30 1262 H 122.962 -2.88514 2.68614 0
M  V30 1263 H 124.25 -4.02666 3.11026 0
M  V30 1264 H 123.648 -5.6448 0.371368 0
M  V30 1265 H 122.205 -6.46739 0.810656 0
M  V30 1266 N 125.638 -1.25649 -0.95132 0
M  V30 1267 C 126.601 -1.06399 -2.03007 0
M  V30 1268 C 127.601 -0.0156794 -1.60792 0
M  V30 1269 O 128.791 -0.25817 -1.72276 0
M  V30 1270 C 125.923 -0.616184 -3.35285 0
M  V30 1271 H 127.116 -2.02164 -2.21517 0
M  V30 1272 H 124.669 -1.08103 -1.12887 0
M  V30 1273 H 125.404 0.343917 -3.22471 0
M  V30 1274 H 125.189 -1.37301 -3.67275 0
M  V30 1275 H 126.679 -0.503032 -4.14559 0
M  V30 1276 N 127.117 1.15442 -1.07289 0
M  V30 1277 C 128.08 2.18358 -0.696591 0
M  V30 1278 C 129.08 1.58637 0.262837 0
M  V30 1279 O 130.27 1.74145 0.0438809 0
M  V30 1280 C 127.402 3.4089 -0.0266151 0
M  V30 1281 H 128.595 2.53162 -1.60776 0
M  V30 1282 H 126.148 1.29893 -0.869342 0
M  V30 1283 H 126.883 3.11653 0.896822 0
M  V30 1284 H 126.668 3.85495 -0.716657 0
M  V30 1285 H 128.158 4.17009 0.222028 0
M  V30 1286 N 128.595 0.856903 1.32268 0
M  V30 1287 C 129.843 0.460474 1.96784 0
M  V30 1288 C 130.164 -0.987701 1.68135 0
M  V30 1289 O 129.434 -1.69058 0.989765 0
M  V30 1290 H 128.014 0.167289 0.728027 0
M  V30 1291 H 130.676 1.09383 1.61312 0
M  V30 1292 H 129.772 0.60739 3.06133 0
M  V30 1293 N 130.073 -1.45103 0.615059 0
M  V30 1294 C 131.321 -2.01784 0.112955 0
M  V30 1295 C 131.642 -1.48504 -1.26378 0
M  V30 1296 O 130.912 -0.682245 -1.83636 0
M  V30 1297 H 129.492 -0.745993 0.0387668 0
M  V30 1298 H 132.154 -1.77808 0.798141 0
M  V30 1299 H 131.25 -3.12025 0.0684069 0
M  V30 1300 N 131.551 -0.354651 -1.53558 0
M  V30 1301 C 132.797 0.238797 -2.01389 0
M  V30 1302 C 133.13 1.49309 -1.2418 0
M  V30 1303 O 132.405 1.91638 -0.332457 0
M  V30 1304 C 132.688 0.541771 -3.56001 0
M  V30 1305 C 132.541 -0.725388 -4.43912 0
M  V30 1306 C 133.86 1.34685 -4.18984 0
M  V30 1307 H 130.979 0.0853177 -0.732045 0
M  V30 1308 H 133.621 -0.477384 -1.83905 0
M  V30 1309 H 131.771 1.15189 -3.71031 0
M  V30 1310 H 133.443 -1.36313 -4.407 0
M  V30 1311 H 131.686 -1.34801 -4.12324 0
M  V30 1312 H 132.357 -0.468505 -5.50008 0
M  V30 1313 H 134.833 0.830837 -4.07721 0
M  V30 1314 H 133.709 1.52759 -5.27215 0
M  V30 1315 H 133.97 2.35221 -3.74331 0
M  V30 1316 N 133.029 1.57378 -0.0835403 0
M  V30 1317 C 133.992 2.12252 0.864959 0
M  V30 1318 C 134.992 1.04916 1.21858 0
M  V30 1319 O 136.182 1.30853 1.14991 0
M  V30 1320 C 133.314 2.63358 2.16461 0
M  V30 1321 H 134.507 2.97371 0.388676 0
M  V30 1322 H 132.06 1.55423 0.165317 0
M  V30 1323 H 132.795 1.81727 2.686 0
M  V30 1324 H 132.58 3.41826 1.92087 0
M  V30 1325 H 134.07 3.05847 2.84337 0
M  V30 1326 N 134.507 -0.190092 1.56449 0
M  V30 1327 C 135.47 -1.21925 1.9408 0
M  V30 1328 C 136.47 -1.38176 0.822431 0
M  V30 1329 O 137.66 -1.35903 1.08977 0
M  V30 1330 C 134.792 -2.58773 2.21922 0
M  V30 1331 H 135.985 -0.897464 2.86157 0
M  V30 1332 H 133.538 -0.43181 1.50217 0
M  V30 1333 H 134.273 -2.95998 1.32499 0
M  V30 1334 H 134.058 -2.48348 3.03424 0
M  V30 1335 H 135.548 -3.32978 2.52022 0
M  V30 1336 N 135.985 -1.50799 -0.457987 0
M  V30 1337 C 137.232 -1.62442 -1.20908 0
M  V30 1338 C 137.56 -0.330865 -1.91665 0
M  V30 1339 O 136.815 0.68401 -1.83357 0
M  V30 1340 C 137.114 -2.76358 -2.2663 0
M  V30 1341 C 136.78 -4.16378 -1.73033 0
M  V30 1342 C 135.442 -4.54473 -1.58138 0
M  V30 1343 C 137.794 -5.03836 -1.33413 0
M  V30 1344 C 135.122 -5.77754 -1.02065 0
M  V30 1345 C 137.474 -6.27676 -0.78778 0
M  V30 1346 C 136.138 -6.64562 -0.625561 0
M  V30 1347 H 135.408 -0.594417 -0.442435 0
M  V30 1348 H 138.055 -1.84772 -0.503136 0
M  V30 1349 H 136.36 -2.48167 -3.03184 0
M  V30 1350 H 138.057 -2.82568 -2.84528 0
M  V30 1351 H 134.647 -3.86331 -1.85598 0
M  V30 1352 H 138.831 -4.75026 -1.4375 0
M  V30 1353 H 134.087 -6.04997 -0.882547 0
M  V30 1354 H 138.261 -6.94797 -0.472177 0
M  V30 1355 H 135.888 -7.59965 -0.188926 0
M  V30 1356 N 137.463 0.71206 -1.40597 0
M  V30 1357 C 138.712 1.46754 -1.38369 0
M  V30 1358 C 139.025 1.95598 0.0097839 0
M  V30 1359 O 140.231 2.71059 0.154677 0
M  V30 1360 C 138.687 2.65289 -2.43207 0
M  V30 1361 C 138.295 2.23301 -3.88382 0
M  V30 1362 C 140.039 3.43008 -2.50091 0
M  V30 1363 C 137.946 3.38696 -4.84808 0
M  V30 1364 H 136.876 0.55118 -0.514506 0
M  V30 1365 H 139.527 0.774616 -1.66349 0
M  V30 1366 H 137.909 3.36769 -2.08332 0
M  V30 1367 H 139.083 1.59218 -4.32419 0
M  V30 1368 H 137.398 1.58618 -3.85006 0
M  V30 1369 H 139.995 4.28881 -3.1932 0
M  V30 1370 H 140.338 3.87065 -1.53253 0
M  V30 1371 H 140.871 2.78574 -2.83974 0
M  V30 1372 H 137.61 2.99668 -5.82992 0
M  V30 1373 H 137.13 4.01683 -4.45433 0
M  V30 1374 H 138.809 4.04712 -5.04794 0
M  V30 1375 N 138.941 1.26152 0.944643 0
M  V30 1376 C 140.218 1.02247 1.66748 0
M  V30 1377 C 140.598 -0.448202 2.06287 0
M  V30 1378 O 139.946 -1.42779 1.78399 0
M  V30 1379 C 140.156 1.96788 2.88228 0
M  V30 1380 C 141.504 2.25201 3.59958 0
M  V30 1381 O 142.528 1.94626 2.98327 0
M  V30 1382 O 141.387 2.77242 4.70956 0
M  V30 1383 H 138.481 0.388517 0.730057 0
M  V30 1384 H 141.027 1.37348 0.99668 0
M  V30 1385 H 139.799 2.96047 2.55875 0
M  V30 1386 H 139.422 1.62145 3.63035 0
M  V30 1387 N 140.419 -1.14872 1.07899 0
M  V30 1388 C 141.382 -2.17986 0.708161 0
M  V30 1389 C 142.382 -1.58775 -0.25442 0
M  V30 1390 O 143.572 -1.74166 -0.034645 0
M  V30 1391 C 140.704 -3.40871 0.0446929 0
M  V30 1392 H 141.897 -2.52306 1.62116 0
M  V30 1393 H 139.45 -1.2943 0.876218 0
M  V30 1394 H 140.185 -3.12124 -0.880281 0
M  V30 1395 H 139.97 -3.8511 0.737091 0
M  V30 1396 H 141.46 -4.17121 -0.19991 0
M  V30 1397 N 141.898 -0.863906 -1.31812 0
M  V30 1398 C 142.808 -0.318461 -2.32428 0
M  V30 1399 C 143.824 0.568496 -1.64451 0
M  V30 1400 O 145 0.46666 -1.95919 0
M  V30 1401 C 142.065 0.476355 -3.43412 0
M  V30 1402 C 141.126 -0.43784 -4.27061 0
M  V30 1403 C 140.359 0.319138 -5.32745 0
M  V30 1404 O 140.582 1.54799 -5.48993 0
M  V30 1405 O 139.516 -0.319861 -6.01049 0
M  V30 1406 H 143.342 -1.15229 -2.80991 0
M  V30 1407 H 140.927 -0.627103 -1.35602 0
M  V30 1408 H 142.809 0.927156 -4.11074 0
M  V30 1409 H 141.484 1.28683 -2.97022 0
M  V30 1410 H 140.391 -0.937013 -3.62175 0
M  V30 1411 H 141.724 -1.21375 -4.77 0
M  V30 1412 N 143.376 1.44774 -0.622745 0
M  V30 1413 C 144.326 2.2774 0.108889 0
M  V30 1414 C 145.31 1.38189 0.824175 0
M  V30 1415 O 146.502 1.62063 0.711664 0
M  V30 1416 C 143.631 3.25353 1.09546 0
M  V30 1417 C 142.717 4.22392 0.380232 0
M  V30 1418 N 143.108 5.02388 -0.586535 0
M  V30 1419 C 141.406 4.41588 0.625792 0
M  V30 1420 C 142.107 5.72894 -1.00834 0
M  V30 1421 N 141.083 5.42479 -0.348878 0
M  V30 1422 H 144.885 2.86993 -0.63341 0
M  V30 1423 H 142.399 1.5611 -0.447589 0
M  V30 1424 H 144.396 3.83538 1.63414 0
M  V30 1425 H 143.056 2.6766 1.83815 0
M  V30 1426 H 144.067 5.0885 -0.963975 0
M  V30 1427 H 140.744 3.95003 1.352 0
M  V30 1428 H 142.134 6.47158 -1.80656 0
M  V30 1429 N 144.854 0.36279 1.53368 0
M  V30 1430 C 145.817 -0.472679 2.24273 0
M  V30 1431 C 146.817 -1.012 1.24961 0
M  V30 1432 O 148.007 -0.898194 1.49259 0
M  V30 1433 C 145.139 -1.66039 2.97731 0
M  V30 1434 H 146.332 0.14773 2.99536 0
M  V30 1435 H 143.885 0.114434 1.55881 0
M  V30 1436 H 144.62 -2.31896 2.26704 0
M  V30 1437 H 144.405 -1.28066 3.70596 0
M  V30 1438 H 145.895 -2.25252 3.51641 0
M  V30 1439 N 146.332 -1.57332 0.0918853 0
M  V30 1440 C 147.262 -2.16872 -0.865371 0
M  V30 1441 C 148.243 -1.10118 -1.29646 0
M  V30 1442 O 149.428 -1.38242 -1.36392 0
M  V30 1443 C 146.558 -2.74649 -2.12569 0
M  V30 1444 C 145.512 -3.86747 -1.83333 0
M  V30 1445 C 144.838 -4.31212 -3.16166 0
M  V30 1446 C 146.138 -5.10089 -1.1228 0
M  V30 1447 H 147.832 -2.97114 -0.369307 0
M  V30 1448 H 145.378 -1.42918 -0.176194 0
M  V30 1449 H 147.331 -3.14952 -2.7997 0
M  V30 1450 H 146.055 -1.91657 -2.64452 0
M  V30 1451 H 144.714 -3.46978 -1.18331 0
M  V30 1452 H 144.362 -3.45115 -3.6593 0
M  V30 1453 H 144.062 -5.06788 -2.97388 0
M  V30 1454 H 145.586 -4.74146 -3.84731 0
M  V30 1455 H 147 -5.47582 -1.69785 0
M  V30 1456 H 145.397 -5.91073 -1.03693 0
M  V30 1457 H 146.467 -4.84786 -0.105041 0
M  V30 1458 N 147.81 0.181792 -1.56548 0
M  V30 1459 C 149.087 0.926765 -1.72251 0
M  V30 1460 C 149.467 2.00831 -0.650386 0
M  V30 1461 O 148.815 2.26008 0.336521 0
M  V30 1462 C 149.025 1.50106 -3.1507 0
M  V30 1463 C 150.373 1.97805 -3.75711 0
M  V30 1464 O 151.397 1.59922 -3.18282 0
M  V30 1465 O 150.256 2.67555 -4.76525 0
M  V30 1466 H 147.35 0.435506 -0.703039 0
M  V30 1467 H 149.896 0.170443 -1.68842 0
M  V30 1468 H 148.668 0.72212 -3.84579 0
M  V30 1469 H 148.291 2.32186 -3.22763 0
M  V30 1470 N 149.288 1.51039 0.449983 0
M  V30 1471 C 150.699 1.557 1.03026 0
M  V30 1472 C 151.05 0.372939 1.92623 0
M  V30 1473 O 150.175 -0.511771 2.10261 0
M  V30 1474 C 150.77 2.82171 1.87523 0
M  V30 1475 C 149.329 2.89444 2.40622 0
M  V30 1476 C 148.476 2.50228 1.19504 0
M  V30 1477 H 151.427 1.56999 0.231745 0
M  V30 1478 H 151.448 2.65219 2.72835 0
M  V30 1479 H 150.96 3.68331 1.22286 0
M  V30 1480 H 149.061 2.07685 3.0935 0
M  V30 1481 H 149.174 3.92816 2.74285 0
M  V30 1482 H 147.538 2.03139 1.53644 0
M  V30 1483 H 148.321 3.38719 0.558972 0
M  V30 1484 N 150.766 -0.704594 1.40972 0
M  V30 1485 C 151.676 -1.84856 1.44448 0
M  V30 1486 C 152.692 -1.70726 0.335961 0
M  V30 1487 O 153.868 -1.92799 0.582276 0
M  V30 1488 C 150.933 -3.20758 1.31587 0
M  V30 1489 C 149.994 -3.47063 2.52677 0
M  V30 1490 C 149.227 -4.76481 2.4042 0
M  V30 1491 O 149.45 -5.52341 1.42391 0
M  V30 1492 O 148.384 -5.03367 3.30007 0
M  V30 1493 H 152.21 -1.8488 2.40942 0
M  V30 1494 H 149.795 -0.85647 1.22413 0
M  V30 1495 H 151.677 -4.01913 1.26665 0
M  V30 1496 H 150.352 -3.21438 0.382049 0
M  V30 1497 H 149.259 -2.65873 2.63177 0
M  V30 1498 H 150.592 -3.5119 3.44858 0
M  V30 1499 N 152.244 -1.26651 -0.937939 0
M  V30 1500 C 153.474 -1.15006 -1.71631 0
M  V30 1501 C 153.882 0.297026 -1.86854 0
M  V30 1502 O 153.225 1.21493 -1.37786 0
M  V30 1503 C 153.287 -1.74984 -3.14039 0
M  V30 1504 C 152.951 -3.24103 -3.2219 0
M  V30 1505 C 153.948 -4.20877 -3.05219 0
M  V30 1506 C 151.633 -3.64625 -3.45476 0
M  V30 1507 C 153.627 -5.56151 -3.11408 0
M  V30 1508 C 151.314 -5.00032 -3.513 0
M  V30 1509 C 152.312 -5.95604 -3.34282 0
M  V30 1510 O 152 -7.28545 -3.3982 0
M  V30 1511 H 151.732 -0.401183 -0.544085 0
M  V30 1512 H 154.286 -1.67832 -1.18413 0
M  V30 1513 H 152.516 -1.16624 -3.68695 0
M  V30 1514 H 154.205 -1.58199 -3.73802 0
M  V30 1515 H 154.971 -3.90908 -2.87081 0
M  V30 1516 H 150.85 -2.90718 -3.57777 0
M  V30 1517 H 154.394 -6.30727 -2.98043 0
M  V30 1518 H 150.291 -5.29659 -3.68959 0
M  V30 1519 H 151.059 -7.3686 -3.56343 0
M  V30 1520 N 153.722 1.14298 -1.08507 0
M  V30 1521 C 154.685 2.17607 -0.719711 0
M  V30 1522 C 155.685 1.58907 0.245997 0
M  V30 1523 O 156.875 1.74181 0.0254081 0
M  V30 1524 C 154.007 3.40842 -0.0627695 0
M  V30 1525 H 155.2 2.51443 -1.63452 0
M  V30 1526 H 152.753 1.28963 -0.88307 0
M  V30 1527 H 153.488 3.12587 0.863716 0
M  V30 1528 H 153.273 3.84713 -0.757504 0
M  V30 1529 H 154.763 4.17221 0.177786 0
M  V30 1530 N 155.201 0.870884 1.31352 0
M  V30 1531 C 156.148 0.325425 2.28494 0
M  V30 1532 C 157.118 -0.576615 1.5577 0
M  V30 1533 O 158.303 -0.508059 1.83911 0
M  V30 1534 C 155.443 -0.466283 3.41935 0
M  V30 1535 C 154.556 0.463378 4.29508 0
M  V30 1536 C 153.691 -0.342544 5.30094 0
M  V30 1537 C 152.73 0.583486 6.09313 0
M  V30 1538 N 151.867 -0.186244 7.01853 0
M  V30 1539 H 156.707 1.15901 2.74538 0
M  V30 1540 H 154.244 0.58294 1.35056 0
M  V30 1541 H 156.202 -0.941085 4.06447 0
M  V30 1542 H 154.832 -1.26456 2.97 0
M  V30 1543 H 153.884 1.05663 3.65431 0
M  V30 1544 H 155.196 1.1734 4.84802 0
M  V30 1545 H 154.35 -0.879816 6.00287 0
M  V30 1546 H 153.089 -1.08585 4.75458 0
M  V30 1547 H 152.094 1.13251 5.3801 0
M  V30 1548 H 153.319 1.32566 6.66035 0
M  V30 1549 H 151.265 -0.912348 6.49625 0
M  V30 1550 H 151.182 0.464422 7.54572 0
M  V30 1551 H 152.45 -0.704716 7.76308 0
M  V30 1552 N 156.679 -1.44442 0.630414 0
M  V30 1553 C 157.626 -2.30678 -0.0749355 0
M  V30 1554 C 158.596 -1.4344 -0.837502 0
M  V30 1555 O 159.781 -1.72343 -0.818684 0
M  V30 1556 C 156.921 -3.28706 -1.05103 0
M  V30 1557 C 156.034 -4.31046 -0.286954 0
M  V30 1558 C 155.169 -5.16167 -1.2548 0
M  V30 1559 C 154.208 -6.10216 -0.479843 0
M  V30 1560 N 153.345 -6.88039 -1.39811 0
M  V30 1561 H 158.185 -2.90454 0.666386 0
M  V30 1562 H 155.722 -1.43107 0.340404 0
M  V30 1563 H 157.68 -3.84027 -1.63031 0
M  V30 1564 H 156.31 -2.70632 -1.75949 0
M  V30 1565 H 155.362 -3.78203 0.408243 0
M  V30 1566 H 156.674 -4.97794 0.316657 0
M  V30 1567 H 155.828 -5.76002 -1.90544 0
M  V30 1568 H 154.567 -4.49491 -1.89233 0
M  V30 1569 H 153.572 -5.49491 0.184295 0
M  V30 1570 H 154.797 -6.78928 0.152965 0
M  V30 1571 H 152.743 -6.24032 -2.02287 0
M  V30 1572 H 152.66 -7.51223 -0.848508 0
M  V30 1573 H 153.928 -7.52397 -2.03762 0
M  V30 1574 N 158.157 -0.370918 -1.53173 0
M  V30 1575 C 159.087 0.464847 -2.28826 0
M  V30 1576 C 160.068 1.07936 -1.31468 0
M  V30 1577 O 161.253 1.0956 -1.60344 0
M  V30 1578 C 158.383 1.60196 -3.08147 0
M  V30 1579 C 157.337 1.11443 -4.13237 0
M  V30 1580 C 156.663 2.3422 -4.80672 0
M  V30 1581 C 157.963 0.195384 -5.21934 0
M  V30 1582 H 159.657 -0.166329 -2.98938 0
M  V30 1583 H 157.203 -0.0814359 -1.4377 0
M  V30 1584 H 159.156 2.19332 -3.59822 0
M  V30 1585 H 157.88 2.26045 -2.35735 0
M  V30 1586 H 156.539 0.545727 -3.62515 0
M  V30 1587 H 156.187 2.98537 -4.04827 0
M  V30 1588 H 155.887 2.02269 -5.51689 0
M  V30 1589 H 157.411 2.94032 -5.35143 0
M  V30 1590 H 158.825 0.694375 -5.69079 0
M  V30 1591 H 157.222 -0.0335027 -6.00091 0
M  V30 1592 H 158.292 -0.760961 -4.78892 0
M  V30 1593 N 159.635 1.57281 -0.100228 0
M  V30 1594 C 160.883 1.94153 0.561157 0
M  V30 1595 C 161.204 0.983157 1.68401 0
M  V30 1596 O 160.474 0.0361132 1.95867 0
M  V30 1597 H 159.054 0.716791 0.210283 0
M  V30 1598 H 161.716 1.94202 -0.164765 0
M  V30 1599 H 160.812 2.96709 0.968008 0
M  V30 1600 N 161.113 -0.173488 1.56642 0
M  V30 1601 C 162.359 -0.891784 1.8214 0
M  V30 1602 C 162.692 -1.8199 0.677736 0
M  V30 1603 O 161.967 -1.91842 -0.320446 0
M  V30 1604 C 162.25 -1.68933 3.18015 0
M  V30 1605 C 162.103 -0.784487 4.42906 0
M  V30 1606 C 163.422 -2.65748 3.50808 0
M  V30 1607 H 160.541 -0.322761 0.662567 0
M  V30 1608 H 163.183 -0.158095 1.89341 0
M  V30 1609 H 161.333 -2.31482 3.12007 0
M  V30 1610 H 163.005 -0.172046 4.60979 0
M  V30 1611 H 161.248 -0.0924117 4.33702 0
M  V30 1612 H 161.919 -1.37799 5.34524 0
M  V30 1613 H 164.395 -2.13327 3.57255 0
M  V30 1614 H 163.271 -3.18619 4.4696 0
M  V30 1615 H 163.532 -3.45842 2.75401 0
M  V30 1616 N 162.591 -1.51276 -0.441967 0
M  V30 1617 C 163.868 -1.54252 -1.20273 0
M  V30 1618 C 164.248 -0.30408 -2.08898 0
M  V30 1619 O 163.596 0.711084 -2.17154 0
M  V30 1620 C 163.806 -2.85406 -2.00859 0
M  V30 1621 C 165.154 -3.37181 -2.58059 0
M  V30 1622 O 166.178 -2.86925 -2.11074 0
M  V30 1623 O 165.037 -4.24858 -3.43741 0
M  V30 1624 H 162.131 -0.619969 -0.547328 0
M  V30 1625 H 164.677 -1.63586 -0.451413 0
M  V30 1626 H 163.449 -3.67003 -1.35736 0
M  V30 1627 H 163.072 -2.79213 -2.83065 0
M  V30 1628 N 164.069 0.697108 -1.41344 0
M  V30 1629 C 165.297 1.48593 -1.43972 0
M  V30 1630 C 165.712 1.88747 -0.0445612 0
M  V30 1631 O 165.069 1.56682 0.935785 0
M  V30 1632 C 165.12 2.74946 -2.34706 0
M  V30 1633 O 164.841 2.36484 -3.68791 0
M  V30 1634 C 166.342 3.687 -2.46121 0
M  V30 1635 H 163.562 0.457964 -0.490418 0
M  V30 1636 H 166.106 0.858429 -1.8561 0
M  V30 1637 H 164.261 3.33937 -1.9638 0
M  V30 1638 H 164.675 3.17918 -4.17167 0
M  V30 1639 H 166.149 4.54145 -3.13777 0
M  V30 1640 H 166.626 4.13081 -1.49199 0
M  V30 1641 H 167.232 3.15613 -2.85076 0
M  V30 1642 N 165.547 1.27147 0.931209 0
M  V30 1643 C 166.824 1.0401 1.65654 0
M  V30 1644 C 167.204 -0.426297 2.06751 0
M  V30 1645 O 166.552 -1.40879 1.79904 0
M  V30 1646 C 166.762 1.99834 2.86125 0
M  V30 1647 C 168.11 2.29007 3.57549 0
M  V30 1648 O 169.134 1.97779 2.96246 0
M  V30 1649 O 167.993 2.82222 4.67989 0
M  V30 1650 H 165.087 0.396239 0.725895 0
M  V30 1651 H 167.633 1.38397 0.982056 0
M  V30 1652 H 166.405 2.98744 2.52721 0
M  V30 1653 H 166.028 1.65987 3.61295 0
M  V30 1654 N 167.025 -1.13721 1.09112 0
M  V30 1655 C 168.25 -1.89314 0.847053 0
M  V30 1656 C 168.675 -1.78416 -0.595774 0
M  V30 1657 O 168.033 -1.12942 -1.41823 0
M  V30 1658 C 168.081 -3.3701 1.28284 0
M  V30 1659 O 167.185 -4.10054 0.439267 0
M  V30 1660 H 166.526 -0.588745 0.307044 0
M  V30 1661 H 169.056 -1.43902 1.45442 0
M  V30 1662 H 169.066 -3.87834 1.26683 0
M  V30 1663 H 167.741 -3.4426 2.33363 0
M  V30 1664 H 166.318 -3.69266 0.519312 0
M  V30 1665 N 168.503 -0.877838 -1.30888 0
M  V30 1666 C 169.433 -0.35534 -2.3078 0
M  V30 1667 C 170.414 0.557994 -1.60687 0
M  V30 1668 O 171.599 0.473355 -1.88343 0
M  V30 1669 C 168.729 0.437221 -3.44537 0
M  V30 1670 C 167.683 -0.383715 -4.26276 0
M  V30 1671 C 167.009 0.535014 -5.32017 0
M  V30 1672 C 168.309 -1.62201 -4.96476 0
M  V30 1673 H 170.003 -1.19007 -2.74732 0
M  V30 1674 H 167.549 -0.573698 -1.32078 0
M  V30 1675 H 169.502 0.813334 -4.13477 0
M  V30 1676 H 168.226 1.30553 -2.99372 0
M  V30 1677 H 166.885 -0.741874 -3.59015 0
M  V30 1678 H 166.533 1.40083 -4.831 0
M  V30 1679 H 166.233 -0.0104211 -5.87599 0
M  V30 1680 H 167.757 0.907799 -6.03814 0
M  V30 1681 H 169.171 -1.31689 -5.5797 0
M  V30 1682 H 167.568 -2.10711 -5.61891 0
M  V30 1683 H 168.638 -2.37044 -4.23011 0
M  V30 1684 N 169.982 1.44106 -0.638065 0
M  V30 1685 C 170.912 2.33448 0.0494287 0
M  V30 1686 C 171.893 1.48606 0.827672 0
M  V30 1687 O 173.078 1.77308 0.792173 0
M  V30 1688 C 170.208 3.31771 1.02691 0
M  V30 1689 C 169.162 4.26485 0.359823 0
M  V30 1690 C 168.488 5.14729 1.44769 0
M  V30 1691 C 169.788 5.17056 -0.738296 0
M  V30 1692 H 171.482 2.91183 -0.696636 0
M  V30 1693 H 169.028 1.40014 -0.336456 0
M  V30 1694 H 170.981 3.93161 1.51666 0
M  V30 1695 H 169.705 2.7226 1.80395 0
M  V30 1696 H 168.364 3.66437 -0.10934 0
M  V30 1697 H 168.012 4.51566 2.21578 0
M  V30 1698 H 167.712 5.78913 1.00668 0
M  V30 1699 H 169.236 5.78991 1.93911 0
M  V30 1700 H 170.65 5.72342 -0.331354 0
M  V30 1701 H 169.047 5.89879 -1.10286 0
M  V30 1702 H 170.117 4.57652 -1.60258 0
M  V30 1703 N 171.46 0.379036 1.52974 0
M  V30 1704 C 172.706 -0.206727 2.01744 0
M  V30 1705 C 173.039 -1.47314 1.26539 0
M  V30 1706 O 172.314 -1.91084 0.362903 0
M  V30 1707 C 172.597 -0.485066 3.56818 0
M  V30 1708 C 172.45 0.795919 4.42702 0
M  V30 1709 C 173.769 -1.28003 4.21074 0
M  V30 1710 H 170.888 -0.0736607 0.73331 0
M  V30 1711 H 173.53 0.506581 1.83122 0
M  V30 1712 H 171.68 -1.09272 3.72816 0
M  V30 1713 H 173.352 1.43307 4.38476 0
M  V30 1714 H 171.595 1.41344 4.10127 0
M  V30 1715 H 172.266 0.555947 5.49193 0
M  V30 1716 H 174.742 -0.765867 4.08991 0
M  V30 1717 H 173.618 -1.44352 5.29579 0
M  V30 1718 H 173.879 -2.29236 3.78026 0
M  V30 1719 N 172.938 -1.57226 0.108567 0
M  V30 1720 C 174.163 -1.99604 -0.563303 0
M  V30 1721 C 174.588 -0.987563 -1.6009 0
M  V30 1722 O 173.946 0.0421687 -1.81251 0
M  V30 1723 C 173.994 -3.40902 -1.17552 0
M  V30 1724 O 173.098 -3.42896 -2.2912 0
M  V30 1725 H 172.439 -0.648704 -0.1417 0
M  V30 1726 H 174.969 -2.03679 0.193961 0
M  V30 1727 H 174.979 -3.78886 -1.51357 0
M  V30 1728 H 173.654 -4.1382 -0.415445 0
M  V30 1729 H 172.231 -3.1672 -1.96832 0
M  V30 1730 N 174.416 0.165178 -1.56732 0
M  V30 1731 C 175.348 1.22911 -1.93457 0
M  V30 1732 C 176.361 1.40152 -0.828333 0
M  V30 1733 O 177.55 1.40046 -1.10677 0
M  V30 1734 C 174.65 2.59686 -2.17753 0
M  V30 1735 C 173.823 2.63663 -3.48999 0
M  V30 1736 C 172.882 3.81845 -3.62051 0
M  V30 1737 O 171.908 3.67559 -4.34613 0
M  V30 1738 N 173.11 4.98557 -2.97357 0
M  V30 1739 H 175.875 0.917118 -2.85323 0
M  V30 1740 H 173.436 0.354895 -1.57962 0
M  V30 1741 H 175.428 3.37225 -2.23743 0
M  V30 1742 H 173.998 2.83251 -1.32242 0
M  V30 1743 H 173.218 1.72173 -3.54612 0
M  V30 1744 H 174.506 2.63336 -4.35352 0
M  V30 1745 H 173.904 5.13065 -2.38287 0
M  V30 1746 H 172.461 5.73936 -3.08934 0
M  V30 1747 N 175.894 1.51508 0.433938 0
M  V30 1748 C 177.305 1.56784 1.01369 0
M  V30 1749 C 177.656 0.393349 1.92217 0
M  V30 1750 O 176.781 -0.489441 2.10792 0
M  V30 1751 C 177.376 2.84144 1.8452 0
M  V30 1752 C 175.935 2.9198 2.37539 0
M  V30 1753 C 175.082 2.51482 1.16843 0
M  V30 1754 H 178.033 1.57236 0.215081 0
M  V30 1755 H 178.054 2.68098 2.70007 0
M  V30 1756 H 177.566 3.69607 1.18373 0
M  V30 1757 H 175.667 2.10955 3.0713 0
M  V30 1758 H 175.78 3.95704 2.70103 0
M  V30 1759 H 174.144 2.04758 1.51481 0
M  V30 1760 H 174.927 3.39293 0.523015 0
M  V30 1761 N 177.372 -0.689602 1.41712 0
M  V30 1762 C 178.649 -1.44457 1.31877 0
M  V30 1763 C 179.029 -2.11039 -0.0508537 0
M  V30 1764 O 178.377 -2.02138 -1.06547 0
M  V30 1765 C 178.587 -2.45913 2.47645 0
M  V30 1766 C 179.935 -3.10991 2.89084 0
M  V30 1767 O 180.959 -2.56238 2.47428 0
M  V30 1768 O 179.818 -4.10174 3.61137 0
M  V30 1769 H 176.912 -0.64362 0.519309 0
M  V30 1770 H 179.458 -0.719576 1.53689 0
M  V30 1771 H 178.23 -1.95409 3.39015 0
M  V30 1772 H 177.853 -3.25913 2.27742 0
M  V30 1773 N 178.85 -1.27639 -0.924453 0
M  V30 1774 C 180.078 -1.16989 -1.70649 0
M  V30 1775 C 180.493 0.272869 -1.86818 0
M  V30 1776 O 179.85 1.18549 -1.38753 0
M  V30 1777 C 179.901 -1.85229 -3.10439 0
M  V30 1778 O 179.622 -3.23868 -2.95028 0
M  V30 1779 C 181.123 -1.80746 -4.04779 0
M  V30 1780 H 178.343 -0.406595 -0.53378 0
M  V30 1781 H 180.887 -1.68569 -1.15778 0
M  V30 1782 H 179.042 -1.37545 -3.6216 0
M  V30 1783 H 179.456 -3.57889 -3.83426 0
M  V30 1784 H 180.93 -2.33101 -5.00368 0
M  V30 1785 H 181.407 -0.777499 -4.32263 0
M  V30 1786 H 182.013 -2.28059 -3.58984 0
M  V30 1787 N 180.328 1.1314 -1.09713 0
M  V30 1788 C 181.576 1.84119 -0.833338 0
M  V30 1789 C 181.897 1.84097 0.642904 0
M  V30 1790 O 181.167 1.29881 1.46655 0
M  V30 1791 H 179.747 0.681766 -0.305293 0
M  V30 1792 H 182.409 1.37038 -1.38588 0
M  V30 1793 H 181.505 2.88543 -1.18951 0
M  V30 1794 N 181.806 0.884767 1.30421 0
M  V30 1795 C 182.716 0.355398 2.31892 0
M  V30 1796 C 183.732 -0.542261 1.65335 0
M  V30 1797 O 184.908 -0.435432 1.96637 0
M  V30 1798 C 181.973 -0.421661 3.44126 0
M  V30 1799 C 181.034 0.505727 4.26311 0
M  V30 1800 C 180.267 -0.234343 5.33185 0
M  V30 1801 O 180.49 -1.46045 5.51386 0
M  V30 1802 O 179.424 0.415443 6.00465 0
M  V30 1803 H 183.25 1.19685 2.79122 0
M  V30 1804 H 180.835 0.648596 1.34587 0
M  V30 1805 H 182.717 -0.861641 4.12497 0
M  V30 1806 H 181.392 -1.23942 2.99032 0
M  V30 1807 H 180.299 0.994513 3.60639 0
M  V30 1808 H 181.632 1.28948 4.75009 0
M  V30 1809 N 183.284 -1.43765 0.645699 0
M  V30 1810 C 184.216 -2.29027 -0.0890605 0
M  V30 1811 C 185.229 -1.42093 -0.794563 0
M  V30 1812 O 186.418 -1.66104 -0.653575 0
M  V30 1813 C 183.518 -3.18831 -1.14891 0
M  V30 1814 C 182.691 -4.34261 -0.523043 0
M  V30 1815 C 181.75 -5.04994 -1.47878 0
M  V30 1816 O 180.776 -5.6052 -0.990277 0
M  V30 1817 N 181.978 -5.07795 -2.81291 0
M  V30 1818 H 184.743 -2.92727 0.64272 0
M  V30 1819 H 182.304 -1.54373 0.487924 0
M  V30 1820 H 184.296 -3.63015 -1.78892 0
M  V30 1821 H 182.866 -2.56782 -1.78275 0
M  V30 1822 H 182.086 -3.93088 0.295896 0
M  V30 1823 H 183.374 -5.08728 -0.0858147 0
M  V30 1824 H 182.772 -4.64042 -3.23546 0
M  V30 1825 H 181.329 -5.55721 -3.40614 0
M  V30 1826 N 184.763 -0.387143 -1.52771 0
M  V30 1827 C 185.726 0.436939 -2.24997 0
M  V30 1828 C 186.726 0.991991 -1.26555 0
M  V30 1829 O 187.916 0.874335 -1.50669 0
M  V30 1830 C 185.048 1.61281 -3.00335 0
M  V30 1831 H 186.241 -0.195365 -2.99263 0
M  V30 1832 H 183.794 -0.139218 -1.55679 0
M  V30 1833 H 184.529 2.2826 -2.30364 0
M  V30 1834 H 184.314 1.22154 -3.72587 0
M  V30 1835 H 185.804 2.19629 -3.5518 0
M  V30 1836 N 186.241 1.57166 -0.116904 0
M  V30 1837 C 187.171 2.18222 0.830759 0
M  V30 1838 C 188.152 1.12167 1.27877 0
M  V30 1839 O 189.337 1.40394 1.34176 0
M  V30 1840 C 186.467 2.77996 2.08172 0
M  V30 1841 C 185.421 3.89614 1.77157 0
M  V30 1842 C 184.747 4.36187 3.09265 0
M  V30 1843 C 186.047 5.1181 1.04151 0
M  V30 1844 H 187.741 2.97664 0.321992 0
M  V30 1845 H 185.287 1.4318 0.153434 0
M  V30 1846 H 187.24 3.19366 2.74924 0
M  V30 1847 H 185.964 1.9584 2.6137 0
M  V30 1848 H 184.623 3.48816 1.12796 0
M  V30 1849 H 184.271 3.50893 3.60393 0
M  V30 1850 H 183.971 5.11455 2.89288 0
M  V30 1851 H 185.495 4.80207 3.77139 0
M  V30 1852 H 186.909 5.50214 1.61052 0
M  V30 1853 H 185.306 5.92648 0.942762 0
M  V30 1854 H 186.376 4.84892 0.0279022 0
M  V30 1855 N 187.719 -0.156864 1.56817 0
M  V30 1856 C 188.629 -1.2136 2.00771 0
M  V30 1857 C 189.645 -1.47598 0.921459 0
M  V30 1858 O 190.821 -1.59462 1.2302 0
M  V30 1859 C 187.886 -2.52943 2.37109 0
M  V30 1860 C 186.947 -2.34439 3.59634 0
M  V30 1861 C 186.18 -3.59748 3.94229 0
M  V30 1862 O 186.403 -4.65526 3.29609 0
M  V30 1863 O 185.337 -3.52998 4.8752 0
M  V30 1864 H 189.163 -0.870468 2.90958 0
M  V30 1865 H 186.748 -0.36484 1.44877 0
M  V30 1866 H 188.63 -3.30538 2.61386 0
M  V30 1867 H 187.305 -2.86806 1.5008 0
M  V30 1868 H 186.212 -1.54828 3.40557 0
M  V30 1869 H 187.545 -2.05496 4.4725 0
M  V30 1870 N 189.197 -1.51736 -0.425897 0
M  V30 1871 C 190.446 -1.64201 -1.17136 0
M  V30 1872 C 190.759 -0.369705 -1.92074 0
M  V30 1873 O 191.965 -0.373898 -2.68913 0
M  V30 1874 C 190.421 -2.90035 -2.13091 0
M  V30 1875 C 190.029 -4.24312 -1.43747 0
M  V30 1876 C 191.773 -3.1186 -2.87999 0
M  V30 1877 C 189.68 -5.41285 -2.38253 0
M  V30 1878 H 188.61 -0.611624 -0.440944 0
M  V30 1879 H 191.261 -1.78212 -0.437328 0
M  V30 1880 H 189.643 -2.69684 -2.89977 0
M  V30 1881 H 190.817 -4.55086 -0.723408 0
M  V30 1882 H 189.132 -4.08456 -0.809465 0
M  V30 1883 H 191.729 -3.96427 -3.58817 0
M  V30 1884 H 192.072 -2.25403 -3.49999 0
M  V30 1885 H 192.605 -3.32605 -2.18217 0
M  V30 1886 H 189.344 -6.30037 -1.80925 0
M  V30 1887 H 188.864 -5.14872 -3.0768 0
M  V30 1888 H 190.543 -5.73694 -2.99139 0
M  V30 1889 N 190.675 0.682077 -1.42076 0
M  V30 1890 C 191.638 1.77756 -1.44691 0
M  V30 1891 C 192.638 1.5726 -0.335535 0
M  V30 1892 O 193.828 1.63686 -0.596037 0
M  V30 1893 C 190.96 3.16301 -1.27146 0
M  V30 1894 H 192.153 1.76826 -2.42224 0
M  V30 1895 H 189.706 0.891012 -1.28416 0
M  V30 1896 H 190.441 3.22862 -0.305075 0
M  V30 1897 H 190.226 3.32581 -2.07683 0
M  V30 1898 H 191.716 3.96241 -1.31843 0
M  V30 1899 N 192.153 1.28127 0.917671 0
M  V30 1900 C 193.43 1.05761 1.64542 0
M  V30 1901 C 193.81 -0.404344 2.07191 0
M  V30 1902 O 193.158 -1.38963 1.81388 0
M  V30 1903 C 193.368 2.02857 2.83989 0
M  V30 1904 C 194.716 2.32786 3.551 0
M  V30 1905 O 195.74 2.0091 2.94132 0
M  V30 1906 O 194.599 2.87169 4.64969 0
M  V30 1907 H 191.693 0.403916 0.721652 0
M  V30 1908 H 194.239 1.39431 0.967322 0
M  V30 1909 H 193.011 3.01407 2.49538 0
M  V30 1910 H 192.634 1.69809 3.59514 0
M  V30 1911 N 193.631 -1.12557 1.10312 0
M  V30 1912 C 194.564 -2.1737 0.694674 0
M  V30 1913 C 195.542 -1.59745 -0.303373 0
M  V30 1914 O 196.726 -1.87408 -0.202578 0
M  V30 1915 C 193.853 -3.38691 0.0248052 0
M  V30 1916 C 192.899 -4.14943 0.986121 0
M  V30 1917 S 193.732 -4.73413 2.50281 0
M  V30 1918 C 194.888 -5.9807 1.84562 0
M  V30 1919 H 195.121 -2.5168 1.58255 0
M  V30 1920 H 192.654 -1.23998 0.919992 0
M  V30 1921 H 194.612 -4.08959 -0.355361 0
M  V30 1922 H 193.273 -3.02664 -0.839851 0
M  V30 1923 H 192.466 -5.01854 0.464651 0
M  V30 1924 H 192.068 -3.50377 1.30813 0
M  V30 1925 H 194.36 -6.67232 1.17507 0
M  V30 1926 H 195.303 -6.54841 2.69423 0
M  V30 1927 H 195.711 -5.49073 1.31069 0
M  V30 1928 N 195.109 -0.891671 -1.2995 0
M  V30 1929 C 196.039 -0.379797 -2.30391 0
M  V30 1930 C 197.02 0.540919 -1.6127 0
M  V30 1931 O 198.205 0.453352 -1.88834 0
M  V30 1932 C 195.335 0.400654 -3.44981 0
M  V30 1933 C 194.289 -0.428905 -4.25846 0
M  V30 1934 C 193.615 0.478557 -5.32554 0
M  V30 1935 C 194.915 -1.67458 -4.94727 0
M  V30 1936 H 196.609 -1.21914 -2.73454 0
M  V30 1937 H 194.155 -0.587675 -1.31462 0
M  V30 1938 H 196.108 0.769434 -4.14316 0
M  V30 1939 H 194.832 1.27371 -3.0074 0
M  V30 1940 H 193.491 -0.779911 -3.58208 0
M  V30 1941 H 193.139 1.34951 -4.84559 0
M  V30 1942 H 192.839 -0.0727433 -5.87555 0
M  V30 1943 H 194.363 0.843705 -6.04743 0
M  V30 1944 H 195.777 -1.376 -5.56542 0
M  V30 1945 H 194.174 -2.16659 -5.59624 0
M  V30 1946 H 195.244 -2.41518 -4.20473 0
M  V30 1947 N 196.587 1.43421 -0.653314 0
M  V30 1948 C 197.836 2.01032 -0.164076 0
M  V30 1949 C 198.149 1.52147 1.22926 0
M  V30 1950 O 199.355 2.02031 1.81371 0
M  V30 1951 C 197.811 3.59082 -0.24252 0
M  V30 1952 C 197.419 4.1696 -1.63855 0
M  V30 1953 C 199.163 4.24079 0.18911 0
M  V30 1954 C 197.07 5.67304 -1.67092 0
M  V30 1955 H 196 0.751798 -0.0575769 0
M  V30 1956 H 198.651 1.6439 -0.815362 0
M  V30 1957 H 197.033 3.93125 0.476276 0
M  V30 1958 H 198.207 3.94416 -2.38271 0
M  V30 1959 H 196.522 3.64335 -2.01616 0
M  V30 1960 H 199.119 5.34381 0.184775 0
M  V30 1961 H 199.462 3.98005 1.22056 0
M  V30 1962 H 199.995 3.94918 -0.477938 0
M  V30 1963 H 196.734 5.98145 -2.68146 0
M  V30 1964 H 196.254 5.91904 -0.970014 0
M  V30 1965 H 197.933 6.31344 -1.4147 0
M  V30 1966 N 198.065 0.39524 1.52563 0
M  V30 1967 C 199.481 0.0454682 1.59535 0
M  V30 1968 C 199.681 -1.44056 1.4089 0
M  V30 1969 O 198.737 -2.20579 1.22888 0
M  V30 1970 C 200.05 0.527963 2.96029 0
M  V30 1971 C 201.598 0.484733 3.09224 0
M  V30 1972 C 202.073 0.943512 4.48176 0
M  V30 1973 N 203.564 0.899765 4.54377 0
M  V30 1974 C 204.299 1.22609 5.60138 0
M  V30 1975 N 203.795 1.62319 6.73516 0
M  V30 1976 N 205.588 1.14696 5.50274 0
M  V30 1977 H 197.739 1.36261 1.62931 0
M  V30 1978 H 200.002 0.558887 0.765735 0
M  V30 1979 H 199.708 1.56607 3.14908 0
M  V30 1980 H 199.582 -0.0698056 3.77135 0
M  V30 1981 H 201.969 -0.544298 2.90037 0
M  V30 1982 H 202.05 1.11838 2.30056 0
M  V30 1983 H 201.694 1.9708 4.68104 0
M  V30 1984 H 201.624 0.286817 5.25818 0
M  V30 1985 H 204.115 0.607632 3.72983 0
M  V30 1986 H 204.428 1.85567 7.5019 0
M  V30 1987 H 202.773 1.66211 6.74833 0
M  V30 1988 H 205.964 0.835701 4.6058 0
M  V30 1989 H 206.137 1.40459 6.32594 0
M  V30 1990 N 199.544 -1.57102 0.125237 0
M  V30 1991 C 200.769 -2.0019 -0.542101 0
M  V30 1992 C 201.194 -1.00449 -1.59034 0
M  V30 1993 O 200.552 0.0229423 -1.81285 0
M  V30 1994 C 200.6 -3.42129 -1.13929 0
M  V30 1995 O 199.704 -3.45307 -2.2547 0
M  V30 1996 H 199.045 -0.650171 -0.134812 0
M  V30 1997 H 201.575 -2.03461 0.215553 0
M  V30 1998 H 201.585 -3.80471 -1.4733 0
M  V30 1999 H 200.26 -4.14237 -0.371531 0
M  V30 2000 H 198.837 -3.1879 -1.93462 0
M  V30 2001 N 201.022 0.148545 -1.56898 0
M  V30 2002 C 202.27 0.859717 -1.82902 0
M  V30 2003 C 202.591 1.81775 -0.70588 0
M  V30 2004 O 201.861 1.93994 0.272586 0
M  V30 2005 H 200.441 0.320469 -0.674766 0
M  V30 2006 H 203.103 0.142918 -1.94375 0
M  V30 2007 H 202.199 1.4229 -2.77777 0
M  V30 2008 N 202.5 1.5196 0.417844 0
M  V30 2009 C 203.463 1.74065 1.49111 0
M  V30 2010 C 204.463 0.610537 1.48758 0
M  V30 2011 O 205.653 0.87832 1.50437 0
M  V30 2012 C 202.785 1.81502 2.88565 0
M  V30 2013 H 203.978 2.69869 1.30807 0
M  V30 2014 H 201.531 1.42244 0.647785 0
M  V30 2015 H 202.266 0.875813 3.1225 0
M  V30 2016 H 202.051 2.63651 2.90225 0
M  V30 2017 H 203.541 2.00376 3.66387 0
M  V30 2018 N 203.978 -0.674533 1.42435 0
M  V30 2019 C 204.908 -1.80009 1.48724 0
M  V30 2020 C 205.889 -1.6659 0.343793 0
M  V30 2021 O 207.074 -1.86007 0.558137 0
M  V30 2022 C 204.204 -3.18306 1.38919 0
M  V30 2023 C 203.158 -3.46461 2.51294 0
M  V30 2024 C 202.484 -4.84335 2.26547 0
M  V30 2025 C 203.784 -3.43328 3.93603 0
M  V30 2026 H 205.478 -1.75004 2.42928 0
M  V30 2027 H 203.024 -0.840533 1.16923 0
M  V30 2028 H 204.977 -3.9678 1.41927 0
M  V30 2029 H 203.701 -3.2399 0.412094 0
M  V30 2030 H 202.36 -2.70348 2.47604 0
M  V30 2031 H 202.008 -4.86669 1.2713 0
M  V30 2032 H 201.708 -5.04136 3.01861 0
M  V30 2033 H 203.232 -5.65094 2.31304 0
M  V30 2034 H 204.646 -4.11772 3.98894 0
M  V30 2035 H 203.043 -3.74664 4.68771 0
M  V30 2036 H 204.113 -2.41897 4.20255 0
M  V30 2037 N 205.456 -1.28612 -0.910864 0
M  V30 2038 C 206.733 -1.06632 -1.63979 0
M  V30 2039 C 207.113 0.393351 -2.07403 0
M  V30 2040 O 206.461 1.37999 -1.82122 0
M  V30 2041 C 206.671 -2.0436 -2.8291 0
M  V30 2042 C 208.019 -2.34666 -3.5386 0
M  V30 2043 O 209.043 -2.02467 -2.93062 0
M  V30 2044 O 207.902 -2.89631 -4.63439 0
M  V30 2045 H 204.996 -0.407737 -0.7195 0
M  V30 2046 H 207.542 -1.39942 -0.959914 0
M  V30 2047 H 206.314 -3.02727 -2.47936 0
M  V30 2048 H 205.937 -1.71714 -3.58609 0
M  V30 2049 N 206.934 1.1197 -1.10907 0
M  V30 2050 C 208.183 1.82947 -0.849302 0
M  V30 2051 C 208.496 1.85275 0.627112 0
M  V30 2052 O 209.702 2.52296 1.00295 0
M  V30 2053 C 208.158 3.28529 -1.46959 0
M  V30 2054 C 207.766 3.34546 -2.97965 0
M  V30 2055 C 209.51 4.04443 -1.28942 0
M  V30 2056 C 207.417 4.74491 -3.53004 0
M  V30 2057 H 206.347 0.685477 -0.314065 0
M  V30 2058 H 208.998 1.2604 -1.33365 0
M  V30 2059 H 207.38 3.85333 -0.912917 0
M  V30 2060 H 208.554 2.87654 -3.59989 0
M  V30 2061 H 206.869 2.72108 -3.15192 0
M  V30 2062 H 209.466 5.07787 -1.67502 0
M  V30 2063 H 209.809 4.15656 -0.231456 0
M  V30 2064 H 210.342 3.5401 -1.81443 0
M  V30 2065 H 207.081 4.68474 -4.58489 0
M  V30 2066 H 206.601 5.21816 -2.9575 0
M  V30 2067 H 208.28 5.4344 -3.51115 0
M  V30 2068 N 208.412 0.89855 1.29475 0
M  V30 2069 C 209.342 0.39201 2.30186 0
M  V30 2070 C 210.323 -0.532359 1.61555 0
M  V30 2071 O 211.508 -0.443331 1.89072 0
M  V30 2072 C 208.638 -0.382353 3.45189 0
M  V30 2073 C 207.592 0.451483 4.25612 0
M  V30 2074 C 206.918 -0.450307 5.328 0
M  V30 2075 C 208.218 1.70079 4.93832 0
M  V30 2076 H 209.912 1.23362 2.72804 0
M  V30 2077 H 207.458 0.594638 1.31149 0
M  V30 2078 H 209.411 -0.747451 4.14718 0
M  V30 2079 H 208.135 -1.25774 3.01411 0
M  V30 2080 H 206.794 0.798897 3.57789 0
M  V30 2081 H 206.442 -1.32379 4.85268 0
M  V30 2082 H 206.142 0.103902 5.87508 0
M  V30 2083 H 207.666 -0.811623 6.05182 0
M  V30 2084 H 209.08 1.40549 5.55805 0
M  V30 2085 H 207.477 2.19623 5.58467 0
M  V30 2086 H 208.547 2.43744 4.19186 0
M  V30 2087 N 209.89 -1.43072 0.660911 0
M  V30 2088 C 211.136 -2.0202 0.177708 0
M  V30 2089 C 211.469 -1.52066 -1.20787 0
M  V30 2090 O 210.744 -0.716987 -1.80802 0
M  V30 2091 C 211.027 -3.59561 0.197019 0
M  V30 2092 C 210.88 -4.19727 1.61706 0
M  V30 2093 C 212.199 -4.37664 -0.462396 0
M  V30 2094 H 209.318 -0.734034 0.0660494 0
M  V30 2095 H 211.96 -1.70272 0.843058 0
M  V30 2096 H 210.11 -3.86739 -0.369527 0
M  V30 2097 H 211.782 -4.03553 2.23479 0
M  V30 2098 H 210.025 -3.76084 2.16201 0
M  V30 2099 H 210.696 -5.28834 1.58237 0
M  V30 2100 H 213.172 -4.16095 0.0197215 0
M  V30 2101 H 212.048 -5.47305 -0.418188 0
M  V30 2102 H 212.309 -4.14493 -1.53778 0
M  V30 2103 N 211.368 -0.403325 -1.52352 0
M  V30 2104 C 212.617 0.175668 -2.00934 0
M  V30 2105 C 212.93 1.46718 -1.29356 0
M  V30 2106 O 214.136 2.12708 -1.68724 0
M  V30 2107 C 212.592 0.363612 -3.58058 0
M  V30 2108 C 212.2 -0.915472 -4.38547 0
M  V30 2109 C 213.944 0.89821 -4.14888 0
M  V30 2110 C 211.851 -0.695035 -5.87302 0
M  V30 2111 H 210.781 0.0694234 -0.750797 0
M  V30 2112 H 213.432 -0.527879 -1.75743 0
M  V30 2113 H 211.814 1.12935 -3.79555 0
M  V30 2114 H 212.988 -1.68691 -4.28812 0
M  V30 2115 H 211.303 -1.37606 -3.93006 0
M  V30 2116 H 213.9 1.07907 -5.23699 0
M  V30 2117 H 214.243 1.87126 -3.71873 0
M  V30 2118 H 214.776 0.191681 -3.97338 0
M  V30 2119 H 211.515 -1.63948 -6.34666 0
M  V30 2120 H 211.035 0.0372116 -5.99788 0
M  V30 2121 H 212.714 -0.33497 -6.46132 0
M  V30 2122 N 212.846 1.57033 -0.133567 0
M  V30 2123 C 214.123 1.87256 0.56522 0
M  V30 2124 C 214.503 1.03726 1.83859 0
M  V30 2125 O 213.851 0.120247 2.28183 0
M  V30 2126 C 214.061 3.3865 0.843636 0
M  V30 2127 C 215.409 4.07574 1.19032 0
M  V30 2128 O 216.433 3.43752 0.933429 0
M  V30 2129 O 215.292 5.20259 1.67312 0
M  V30 2130 H 212.386 0.775678 0.286796 0
M  V30 2131 H 214.932 1.68855 -0.169168 0
M  V30 2132 H 213.704 3.91257 -0.0581149 0
M  V30 2133 H 213.327 3.62532 1.63268 0
M  V30 2134 N 214.325 -0.140222 1.56975 0
M  V30 2135 C 215.55 -0.870414 1.88251 0
M  V30 2136 C 215.975 -1.73637 0.723312 0
M  V30 2137 O 215.333 -1.78329 -0.32689 0
M  V30 2138 C 215.381 -1.69737 3.18154 0
M  V30 2139 O 214.485 -2.80229 3.02565 0
M  V30 2140 H 213.826 -0.242025 0.61832 0
M  V30 2141 H 216.356 -0.128999 2.04193 0
M  V30 2142 H 216.366 -2.09099 3.50345 0
M  V30 2143 H 215.041 -1.06152 4.02125 0
M  V30 2144 H 213.618 -2.44224 2.81796 0
M  V30 2145 N 215.803 -1.52179 -0.40978 0
M  V30 2146 C 217.049 -1.66453 -1.15851 0
M  V30 2147 C 217.382 -0.392972 -1.90182 0
M  V30 2148 O 216.657 0.608579 -1.84734 0
M  V30 2149 C 216.94 -2.88612 -2.15349 0
M  V30 2150 C 216.793 -4.25815 -1.44918 0
M  V30 2151 C 218.112 -3.06294 -3.16026 0
M  V30 2152 H 215.231 -0.60575 -0.419805 0
M  V30 2153 H 217.873 -1.84732 -0.444314 0
M  V30 2154 H 216.023 -2.73158 -2.76255 0
M  V30 2155 H 217.695 -4.52995 -0.871365 0
M  V30 2156 H 215.938 -4.27247 -0.751159 0
M  V30 2157 H 216.609 -5.07337 -2.17516 0
M  V30 2158 H 219.085 -3.20641 -2.65195 0
M  V30 2159 H 217.961 -3.93283 -3.8291 0
M  V30 2160 H 218.222 -2.19579 -3.83715 0
M  V30 2161 N 217.281 0.66697 -1.42791 0
M  V30 2162 C 218.244 1.76211 -1.46568 0
M  V30 2163 C 219.244 1.56896 -0.352196 0
M  V30 2164 O 220.434 1.63044 -0.613364 0
M  V30 2165 C 217.566 3.14935 -1.30494 0
M  V30 2166 H 218.759 1.74247 -2.44086 0
M  V30 2167 H 216.312 0.877342 -1.29354 0
M  V30 2168 H 217.047 3.2252 -0.339301 0
M  V30 2169 H 216.832 3.30359 -2.11199 0
M  V30 2170 H 218.322 3.94821 -1.36038 0
M  V30 2171 N 218.759 1.29093 0.90403 0
M  V30 2172 C 219.722 1.1386 1.98919 0
M  V30 2173 C 220.722 0.0753457 1.60623 0
M  V30 2174 O 221.912 0.321931 1.71199 0
M  V30 2175 C 219.044 0.740198 3.32767 0
M  V30 2176 H 220.237 2.10246 2.13861 0
M  V30 2177 H 217.79 1.12218 1.08797 0
M  V30 2178 H 218.525 -0.223997 3.23525 0
M  V30 2179 H 218.31 1.50838 3.61926 0
M  V30 2180 H 219.8 0.656546 4.12407 0
M  V30 2181 N 220.237 -1.11381 1.11499 0
M  V30 2182 C 221.167 -2.19509 0.796125 0
M  V30 2183 C 222.148 -1.68458 -0.235796 0
M  V30 2184 O 223.333 -1.93947 -0.0991344 0
M  V30 2185 C 220.463 -3.46475 0.239205 0
M  V30 2186 C 219.417 -4.10744 1.20307 0
M  V30 2187 C 218.743 -5.32293 0.50683 0
M  V30 2188 C 220.043 -4.55597 2.55399 0
M  V30 2189 H 221.737 -2.46439 1.70024 0
M  V30 2190 H 219.283 -1.18446 0.818935 0
M  V30 2191 H 221.236 -4.214 0.00392006 0
M  V30 2192 H 219.96 -3.19006 -0.700206 0
M  V30 2193 H 218.619 -3.37813 1.42399 0
M  V30 2194 H 218.267 -5.01095 -0.437408 0
M  V30 2195 H 217.967 -5.76243 1.1497 0
M  V30 2196 H 219.491 -6.09956 0.280351 0
M  V30 2197 H 220.905 -5.21841 2.37391 0
M  V30 2198 H 219.302 -5.10363 3.15673 0
M  V30 2199 H 220.372 -3.69013 3.14575 0
M  V30 2200 N 221.715 -0.905404 -1.28997 0
M  V30 2201 C 222.961 -0.535039 -1.95615 0
M  V30 2202 C 223.294 0.917404 -1.71165 0
M  V30 2203 O 222.569 1.65123 -1.02785 0
M  V30 2204 C 222.852 -0.834918 -3.50287 0
M  V30 2205 C 222.705 -2.33948 -3.84172 0
M  V30 2206 C 224.024 -0.325318 -4.38896 0
M  V30 2207 H 221.143 -0.195861 -0.710498 0
M  V30 2208 H 223.785 -1.13313 -1.52513 0
M  V30 2209 H 221.935 -0.325904 -3.87131 0
M  V30 2210 H 223.607 -2.91847 -3.57243 0
M  V30 2211 H 221.85 -2.79789 -3.31513 0
M  V30 2212 H 222.521 -2.49987 -4.92149 0
M  V30 2213 H 224.997 -0.761256 -4.09077 0
M  V30 2214 H 223.873 -0.564295 -5.45992 0
M  V30 2215 H 224.134 0.774144 -4.35269 0
M  V30 2216 N 223.193 1.4272 -0.668489 0
M  V30 2217 C 224.604 1.84793 -0.266151 0
M  V30 2218 C 224.955 1.55959 1.19043 0
M  V30 2219 O 224.08 1.01622 1.91055 0
M  V30 2220 C 224.675 3.35436 -0.476271 0
M  V30 2221 C 223.234 3.76182 -0.128113 0
M  V30 2222 C 222.381 2.66344 -0.771777 0
M  V30 2223 H 225.332 1.32656 -0.871098 0
M  V30 2224 H 225.353 3.79515 0.273561 0
M  V30 2225 H 224.865 3.5639 -1.53647 0
M  V30 2226 H 222.966 3.60836 0.928891 0
M  V30 2227 H 223.079 4.75766 -0.564231 0
M  V30 2228 H 221.443 2.53885 -0.203652 0
M  V30 2229 H 222.226 2.90123 -1.83531 0
M  V30 2230 N 224.671 0.411399 1.52136 0
M  V30 2231 C 226.087 0.0623865 1.59478 0
M  V30 2232 C 226.287 -1.42554 1.4241 0
M  V30 2233 O 225.343 -2.19263 1.2522 0
M  V30 2234 C 226.656 0.559331 2.95452 0
M  V30 2235 C 228.204 0.517503 3.08692 0
M  V30 2236 C 228.679 0.990994 4.4715 0
M  V30 2237 N 230.17 0.947908 4.53397 0
M  V30 2238 C 230.905 1.28544 5.58806 0
M  V30 2239 N 230.401 1.69454 6.71757 0
M  V30 2240 N 232.194 1.20526 5.49026 0
M  V30 2241 H 224.345 1.37982 1.61477 0
M  V30 2242 H 226.608 0.566977 0.759764 0
M  V30 2243 H 226.314 1.59938 3.1323 0
M  V30 2244 H 226.188 -0.0298014 3.77188 0
M  V30 2245 H 228.575 -0.513505 2.90598 0
M  V30 2246 H 228.656 1.14272 2.28857 0
M  V30 2247 H 228.3 2.02034 4.65988 0
M  V30 2248 H 228.23 0.34257 5.25485 0
M  V30 2249 H 230.721 0.647157 3.72317 0
M  V30 2250 H 231.034 1.93513 7.48179 0
M  V30 2251 H 229.379 1.73359 6.73032 0
M  V30 2252 H 232.57 0.884505 4.59667 0
M  V30 2253 H 232.743 1.47161 6.31069 0
M  V30 2254 N 226.149 -1.5696 0.141893 0
M  V30 2255 C 227.112 -2.15316 -0.785587 0
M  V30 2256 C 228.112 -1.09366 -1.1788 0
M  V30 2257 O 229.302 -1.35031 -1.10056 0
M  V30 2258 C 226.434 -2.71211 -2.06537 0
M  V30 2259 H 227.627 -2.98608 -0.278041 0
M  V30 2260 H 225.18 -1.5593 -0.107519 0
M  V30 2261 H 225.915 -1.91571 -2.6167 0
M  V30 2262 H 225.7 -3.4872 -1.79268 0
M  V30 2263 H 227.19 -3.16189 -2.72789 0
M  V30 2264 N 227.627 0.131896 -1.57047 0
M  V30 2265 C 228.537 1.1815 -2.02676 0
M  V30 2266 C 229.553 1.46113 -0.944824 0
M  V30 2267 O 230.729 1.57485 -1.25541 0
M  V30 2268 C 227.794 2.49139 -2.41103 0
M  V30 2269 C 226.855 2.28688 -3.63318 0
M  V30 2270 C 226.088 3.53431 -3.99903 0
M  V30 2271 O 226.311 4.60223 -3.36973 0
M  V30 2272 O 225.245 3.45198 -4.93074 0
M  V30 2273 H 229.071 0.824069 -2.92306 0
M  V30 2274 H 226.656 0.341745 -1.45439 0
M  V30 2275 H 228.538 3.26338 -2.66611 0
M  V30 2276 H 227.213 2.84382 -1.54624 0
M  V30 2277 H 226.12 1.4939 -3.42977 0
M  V30 2278 H 227.453 1.98355 -4.50462 0
M  V30 2279 N 229.106 1.52395 0.401703 0
M  V30 2280 C 230.036 1.79231 1.49661 0
M  V30 2281 C 231.017 0.643654 1.57452 0
M  V30 2282 O 232.202 0.889989 1.72606 0
M  V30 2283 C 229.332 1.94971 2.87409 0
M  V30 2284 C 228.286 3.10604 2.94465 0
M  V30 2285 C 227.612 3.11577 4.34538 0
M  V30 2286 C 228.912 4.49921 2.6527 0
M  V30 2287 H 230.606 2.70917 1.27454 0
M  V30 2288 H 228.152 1.30362 0.6117 0
M  V30 2289 H 230.105 2.12328 3.63999 0
M  V30 2290 H 228.829 0.999632 3.10926 0
M  V30 2291 H 227.488 2.93009 2.20321 0
M  V30 2292 H 227.136 2.14277 4.55076 0
M  V30 2293 H 226.836 3.89247 4.40183 0
M  V30 2294 H 228.36 3.31073 5.13053 0
M  V30 2295 H 229.774 4.67683 3.31581 0
M  V30 2296 H 228.171 5.29564 2.82281 0
M  V30 2297 H 229.241 4.57507 1.60671 0
M  V30 2298 N 230.584 -0.659388 1.43143 0
M  V30 2299 C 231.494 -1.80167 1.50256 0
M  V30 2300 C 232.51 -1.69571 0.390106 0
M  V30 2301 O 233.686 -1.90849 0.643319 0
M  V30 2302 C 230.751 -3.16409 1.41725 0
M  V30 2303 C 229.812 -3.38848 2.63591 0
M  V30 2304 C 229.045 -4.68591 2.55458 0
M  V30 2305 O 229.268 -5.47532 1.59891 0
M  V30 2306 O 228.202 -4.92614 3.45854 0
M  V30 2307 H 232.028 -1.77121 2.46702 0
M  V30 2308 H 229.613 -0.817092 1.25076 0
M  V30 2309 H 231.495 -3.9768 1.39387 0
M  V30 2310 H 230.17 -3.20059 0.484118 0
M  V30 2311 H 229.077 -2.57366 2.71502 0
M  V30 2312 H 230.41 -3.4004 3.55856 0
M  V30 2313 N 232.062 -1.29571 -0.897171 0
M  V30 2314 C 233.31 -1.17456 -1.64464 0
M  V30 2315 C 233.631 0.273698 -1.9307 0
M  V30 2316 O 232.901 1.18684 -1.55855 0
M  V30 2317 H 231.481 -0.431706 -0.609622 0
M  V30 2318 H 234.143 -1.62531 -1.07562 0
M  V30 2319 H 233.239 -1.72648 -2.59998 0
M  V30 2320 N 233.54 1.10788 -1.12088 0
M  V30 2321 C 234.45 2.20599 -0.798338 0
M  V30 2322 C 235.466 1.72712 0.21135 0
M  V30 2323 O 236.642 2.01348 0.0458477 0
M  V30 2324 C 233.707 3.45771 -0.253674 0
M  V30 2325 C 232.768 4.08411 -1.32283 0
M  V30 2326 C 232.001 5.27608 -0.80406 0
M  V30 2327 O 232.224 5.69241 0.363478 0
M  V30 2328 O 231.158 5.8101 -1.57198 0
M  V30 2329 H 234.984 2.50614 -1.7154 0
M  V30 2330 H 232.569 1.19454 -0.897275 0
M  V30 2331 H 234.451 4.21376 0.0453691 0
M  V30 2332 H 233.126 3.1739 0.636005 0
M  V30 2333 H 232.033 3.34507 -1.67499 0
M  V30 2334 H 233.366 4.40986 -2.18614 0
M  V30 2335 N 235.018 0.912232 1.28515 0
M  V30 2336 C 235.951 0.343928 2.25593 0
M  V30 2337 C 236.929 -0.550994 1.5298 0
M  V30 2338 O 238.113 -0.494991 1.81885 0
M  V30 2339 C 235.24 -0.508525 3.34861 0
M  V30 2340 C 234.286 0.320808 4.25292 0
M  V30 2341 S 235.119 1.72658 5.06902 0
M  V30 2342 C 236.275 0.881394 6.19663 0
M  V30 2343 H 236.508 1.16674 2.73449 0
M  V30 2344 H 234.041 0.713384 1.36931 0
M  V30 2345 H 235.999 -0.994539 3.9827 0
M  V30 2346 H 234.66 -1.30571 2.85675 0
M  V30 2347 H 233.853 -0.330941 5.02912 0
M  V30 2348 H 233.455 0.74042 3.66598 0
M  V30 2349 H 235.747 0.110359 6.7741 0
M  V30 2350 H 236.69 1.63009 6.89082 0
M  V30 2351 H 237.098 0.430239 5.62858 0
M  V30 2352 N 236.496 -1.42363 0.676048 0
M  V30 2353 C 237.744 -2.01123 0.198437 0
M  V30 2354 C 238.065 -1.53731 -1.19966 0
M  V30 2355 O 237.335 -0.759518 -1.80577 0
M  V30 2356 H 235.915 -0.743678 0.0703721 0
M  V30 2357 H 238.577 -1.74263 0.872837 0
M  V30 2358 H 237.673 -3.11454 0.200686 0
M  V30 2359 N 237.974 -0.419461 -1.51915 0
M  V30 2360 C 239.251 0.211999 -1.94448 0
M  V30 2361 C 239.631 1.61703 -1.35703 0
M  V30 2362 O 238.979 2.22102 -0.536931 0
M  V30 2363 C 239.189 0.207872 -3.4838 0
M  V30 2364 C 240.537 0.422192 -4.22496 0
M  V30 2365 O 241.561 0.286778 -3.55044 0
M  V30 2366 O 240.42 0.690009 -5.42126 0
M  V30 2367 H 237.514 0.139586 -0.815135 0
M  V30 2368 H 240.06 -0.476151 -1.62883 0
M  V30 2369 H 238.832 -0.775102 -3.83546 0
M  V30 2370 H 238.455 0.939688 -3.86336 0
M  V30 2371 N 239.452 1.56882 -0.150215 0
M  V30 2372 C 240.677 2.01027 0.510184 0
M  V30 2373 C 241.102 1.02966 1.57415 0
M  V30 2374 O 240.46 0.00590158 1.81299 0
M  V30 2375 C 240.508 3.43899 1.08472 0
M  V30 2376 O 239.612 3.4885 2.19948 0
M  V30 2377 H 238.953 0.652233 0.124451 0
M  V30 2378 H 241.483 2.03093 -0.247894 0
M  V30 2379 H 241.493 3.82766 1.41259 0
M  V30 2380 H 240.168 4.14776 0.305582 0
M  V30 2381 H 238.745 3.21827 1.88366 0
M  V30 2382 N 240.93 -0.123565 1.57115 0
M  V30 2383 C 241.88 -1.1575 1.96433 0
M  V30 2384 C 242.864 -1.37313 0.838686 0
M  V30 2385 O 244.056 -1.38482 1.10235 0
M  V30 2386 C 241.185 -2.48526 2.36833 0
M  V30 2387 C 240.271 -2.30457 3.5602 0
M  V30 2388 N 240.662 -1.8219 4.71848 0
M  V30 2389 C 238.96 -2.61129 3.61563 0
M  V30 2390 C 239.661 -1.77721 5.53886 0
M  V30 2391 N 238.637 -2.21899 4.96248 0
M  V30 2392 H 242.439 -0.776797 2.83449 0
M  V30 2393 H 239.953 -0.331364 1.58983 0
M  V30 2394 H 241.95 -3.233 2.63216 0
M  V30 2395 H 240.61 -2.87358 1.5118 0
M  V30 2396 H 241.621 -1.51805 4.95152 0
M  V30 2397 H 238.298 -3.03678 2.86507 0
M  V30 2398 H 239.688 -1.41697 6.56789 0
M  V30 2399 N 242.408 -1.52605 -0.393616 0
M  V30 2400 C 243.654 -1.67672 -1.14079 0
M  V30 2401 C 243.987 -0.413121 -1.89755 0
M  V30 2402 O 243.262 0.588952 -1.85369 0
M  V30 2403 C 243.545 -2.9088 -2.12276 0
M  V30 2404 C 243.398 -4.27329 -1.40394 0
M  V30 2405 C 244.717 -3.09628 -3.12759 0
M  V30 2406 H 241.836 -0.610168 -0.413356 0
M  V30 2407 H 244.478 -1.85193 -0.424696 0
M  V30 2408 H 242.628 -2.76073 -2.73342 0
M  V30 2409 H 244.3 -4.53894 -0.82327 0
M  V30 2410 H 242.543 -4.2802 -0.705801 0
M  V30 2411 H 243.214 -5.09615 -2.12123 0
M  V30 2412 H 245.69 -3.23436 -2.61779 0
M  V30 2413 H 244.566 -3.97322 -3.78717 0
M  V30 2414 H 244.827 -2.23637 -3.81365 0
M  V30 2415 N 243.887 0.651787 -1.4349 0
M  V30 2416 C 245.135 1.40888 -1.44897 0
M  V30 2417 C 245.456 1.94856 -0.0749086 0
M  V30 2418 O 244.726 1.74518 0.889956 0
M  V30 2419 H 243.306 0.522887 -0.533478 0
M  V30 2420 H 245.968 0.768609 -1.79104 0
M  V30 2421 H 245.064 2.25052 -2.16236 0
M  V30 2422 N 245.365 1.30045 0.890287 0
M  V30 2423 C 246.295 1.18541 2.01172 0
M  V30 2424 C 247.276 0.0773356 1.69924 0
M  V30 2425 O 248.461 0.25845 1.92473 0
M  V30 2426 C 245.591 0.870941 3.36202 0
M  V30 2427 C 244.545 1.93637 3.81692 0
M  V30 2428 C 243.871 1.475 5.13953 0
M  V30 2429 C 245.171 3.34666 4.00994 0
M  V30 2430 H 246.865 2.12359 2.11054 0
M  V30 2431 H 244.411 1.02238 1.01407 0
M  V30 2432 H 246.364 0.777141 4.14172 0
M  V30 2433 H 245.088 -0.102926 3.26438 0
M  V30 2434 H 243.747 2.01972 3.05946 0
M  V30 2435 H 243.395 0.489551 5.00612 0
M  V30 2436 H 243.095 2.1876 5.4536 0
M  V30 2437 H 244.619 1.39489 5.94454 0
M  V30 2438 H 246.033 3.2912 4.69417 0
M  V30 2439 H 244.43 4.03966 4.43769 0
M  V30 2440 H 245.5 3.76949 3.05021 0
M  V30 2441 N 246.843 -1.10192 1.12674 0
M  V30 2442 C 247.775 -2.16418 0.754701 0
M  V30 2443 C 248.788 -1.61309 -0.21986 0
M  V30 2444 O 249.977 -1.785 -0.000826841 0
M  V30 2445 C 247.077 -3.38762 0.096698 0
M  V30 2446 C 246.25 -4.23307 1.10136 0
M  V30 2447 C 245.309 -5.24092 0.470513 0
M  V30 2448 O 244.335 -5.57906 1.12824 0
M  V30 2449 N 245.537 -5.75491 -0.760948 0
M  V30 2450 H 248.302 -2.48943 1.66875 0
M  V30 2451 H 245.863 -1.25834 1.01869 0
M  V30 2452 H 247.855 -4.03291 -0.337384 0
M  V30 2453 H 246.425 -3.04192 -0.720153 0
M  V30 2454 H 245.645 -3.55036 1.71299 0
M  V30 2455 H 246.933 -4.76624 1.78064 0
M  V30 2456 H 246.331 -5.50222 -1.31424 0
M  V30 2457 H 244.888 -6.41792 -1.13781 0
M  V30 2458 N 248.321 -0.919034 -1.28029 0
M  V30 2459 C 249.284 -0.416182 -2.2539 0
M  V30 2460 C 250.284 0.460438 -1.54067 0
M  V30 2461 O 251.474 0.262744 -1.72207 0
M  V30 2462 C 248.606 0.402707 -3.38513 0
M  V30 2463 H 249.799 -1.27629 -2.71387 0
M  V30 2464 H 247.352 -0.698919 -1.39803 0
M  V30 2465 H 248.087 1.282 -2.97885 0
M  V30 2466 H 247.872 -0.225698 -3.9145 0
M  V30 2467 H 249.362 0.745191 -4.10897 0
M  V30 2468 N 249.799 1.42003 -0.683588 0
M  V30 2469 C 251.215 1.55625 -0.353976 0
M  V30 2470 C 251.415 1.66151 1.14 0
M  V30 2471 O 250.471 1.63329 1.92561 0
M  V30 2472 C 251.784 2.80171 -1.092 0
M  V30 2473 C 253.332 2.93954 -1.07518 0
M  V30 2474 C 253.807 4.21372 -1.79471 0
M  V30 2475 N 255.298 4.28303 -1.76381 0
M  V30 2476 C 256.033 5.25729 -2.28904 0
M  V30 2477 N 255.529 6.29254 -2.89846 0
M  V30 2478 N 257.322 5.17586 -2.19228 0
M  V30 2479 H 249.473 1.33415 -1.6527 0
M  V30 2480 H 251.736 0.64282 -0.696769 0
M  V30 2481 H 251.442 2.78561 -2.14701 0
M  V30 2482 H 251.316 3.7133 -0.662862 0
M  V30 2483 H 253.703 2.95086 -0.028475 0
M  V30 2484 H 253.784 2.04002 -1.54328 0
M  V30 2485 H 253.428 4.21001 -2.84114 0
M  V30 2486 H 253.358 5.10275 -1.30104 0
M  V30 2487 H 255.849 3.54119 -1.31939 0
M  V30 2488 H 256.162 6.99964 -3.27522 0
M  V30 2489 H 254.507 6.29791 -2.93919 0
M  V30 2490 H 257.698 4.35631 -1.71299 0
M  V30 2491 H 257.871 5.93348 -2.60466 0
M  V30 2492 N 251.277 0.427512 1.51691 0
M  V30 2493 C 252.207 -0.3796 2.30394 0
M  V30 2494 C 253.188 -1.02982 1.35384 0
M  V30 2495 O 254.373 -1.03534 1.643 0
M  V30 2496 C 251.503 -1.48649 3.1388 0
M  V30 2497 C 250.457 -0.960294 4.17088 0
M  V30 2498 C 249.783 -2.16219 4.89033 0
M  V30 2499 C 251.083 -0.00153679 5.223 0
M  V30 2500 H 252.777 0.277164 2.98114 0
M  V30 2501 H 250.323 0.134739 1.43368 0
M  V30 2502 H 252.276 -2.05826 3.67714 0
M  V30 2503 H 251 -2.1714 2.43962 0
M  V30 2504 H 249.659 -0.410806 3.64291 0
M  V30 2505 H 249.307 -2.83307 4.15628 0
M  V30 2506 H 249.007 -1.81654 5.58816 0
M  V30 2507 H 250.531 -2.73968 5.45687 0
M  V30 2508 H 251.945 -0.482687 5.71264 0
M  V30 2509 H 250.342 0.256199 5.99553 0
M  V30 2510 H 251.412 0.938174 4.75738 0
M  V30 2511 N 252.755 -1.56801 0.158532 0
M  V30 2512 C 253.688 -2.13148 -0.815065 0
M  V30 2513 C 254.666 -1.0581 -1.23462 0
M  V30 2514 O 255.85 -1.3371 -1.32868 0
M  V30 2515 C 252.977 -2.6606 -2.09594 0
M  V30 2516 C 252.023 -3.85651 -1.82141 0
M  V30 2517 S 252.856 -5.26041 -1.00207 0
M  V30 2518 C 254.012 -5.8235 -2.29389 0
M  V30 2519 H 254.245 -2.95396 -0.335937 0
M  V30 2520 H 251.778 -1.54299 -0.0559391 0
M  V30 2521 H 253.736 -2.97195 -2.8317 0
M  V30 2522 H 252.397 -1.83921 -2.54621 0
M  V30 2523 H 251.59 -4.20958 -2.77147 0
M  V30 2524 H 251.192 -3.55338 -1.16667 0
M  V30 2525 H 253.484 -5.94485 -3.24952 0
M  V30 2526 H 254.427 -6.79688 -1.9857 0
M  V30 2527 H 254.835 -5.10675 -2.40564 0
M  V30 2528 N 254.233 0.115231 -1.57178 0
M  V30 2529 C 255.458 0.840354 -1.89612 0
M  V30 2530 C 255.883 1.72464 -0.750845 0
M  V30 2531 O 255.241 1.78826 0.298478 0
M  V30 2532 C 255.289 1.64654 -3.20814 0
M  V30 2533 O 254.393 2.7538 -3.06985 0
M  V30 2534 H 253.734 0.232158 -0.622092 0
M  V30 2535 H 256.264 0.0964977 -2.04372 0
M  V30 2536 H 256.274 2.03499 -3.53627 0
M  V30 2537 H 254.949 0.997416 -4.03763 0
M  V30 2538 H 253.526 2.3971 -2.85646 0
M  V30 2539 N 255.711 1.52812 0.385517 0
M  V30 2540 C 256.643 1.74096 1.49074 0
M  V30 2541 C 257.656 0.621462 1.50472 0
M  V30 2542 O 258.845 0.897245 1.54311 0
M  V30 2543 C 255.945 1.78774 2.87911 0
M  V30 2544 C 255.118 3.08134 3.10439 0
M  V30 2545 C 254.177 3.04313 4.29278 0
M  V30 2546 O 253.203 3.78168 4.25415 0
M  V30 2547 N 254.405 2.23741 5.35649 0
M  V30 2548 H 257.17 2.69455 1.31202 0
M  V30 2549 H 254.731 1.51343 0.575065 0
M  V30 2550 H 256.723 1.73721 3.65518 0
M  V30 2551 H 255.293 0.907869 2.99126 0
M  V30 2552 H 254.513 3.26649 2.20667 0
M  V30 2553 H 255.801 3.93662 3.22347 0
M  V30 2554 H 255.199 1.63211 5.41645 0
M  V30 2555 H 253.756 2.24524 6.11909 0
M  V30 2556 N 257.189 -0.644168 1.43834 0
M  V30 2557 C 258.152 -1.73857 1.49353 0
M  V30 2558 C 259.152 -1.56315 0.377112 0
M  V30 2559 O 260.342 -1.62048 0.639226 0
M  V30 2560 C 257.474 -3.12819 1.35488 0
M  V30 2561 H 258.667 -1.70342 2.46827 0
M  V30 2562 H 256.22 -0.856652 1.30733 0
M  V30 2563 H 256.955 -3.2194 0.390569 0
M  V30 2564 H 256.74 -3.26958 2.16428 0
M  V30 2565 H 258.23 -3.92606 1.42302 0
M  V30 2566 N 258.668 -1.30515 -0.883378 0
M  V30 2567 C 259.598 -1.19607 -2.00541 0
M  V30 2568 C 260.579 -0.086346 -1.69881 0
M  V30 2569 O 261.764 -0.268654 -1.92333 0
M  V30 2570 C 258.894 -0.888758 -3.35736 0
M  V30 2571 C 257.848 -1.95659 -3.8066 0
M  V30 2572 C 257.174 -1.50224 -5.13164 0
M  V30 2573 C 258.474 -3.36788 -3.99213 0
M  V30 2574 H 260.168 -2.13476 -2.09925 0
M  V30 2575 H 257.714 -1.02775 -1.00863 0
M  V30 2576 H 259.667 -0.799094 -4.13754 0
M  V30 2577 H 258.391 0.0856125 -3.26488 0
M  V30 2578 H 257.05 -2.03591 -3.04871 0
M  V30 2579 H 256.698 -0.516092 -5.00345 0
M  V30 2580 H 256.398 -2.2165 -5.44192 0
M  V30 2581 H 257.922 -1.42639 -5.93706 0
M  V30 2582 H 259.336 -3.31605 -4.67665 0
M  V30 2583 H 257.733 -4.06314 -4.41621 0
M  V30 2584 H 258.803 -3.78561 -3.03017 0
M  V30 2585 N 260.146 1.09593 -1.13257 0
M  V30 2586 C 261.562 1.33775 -0.870423 0
M  V30 2587 C 261.762 1.95327 0.494926 0
M  V30 2588 O 260.818 2.19853 1.2418 0
M  V30 2589 C 262.131 2.25106 -1.99369 0
M  V30 2590 C 263.679 2.3862 -2.02558 0
M  V30 2591 C 264.154 3.33285 -3.14142 0
M  V30 2592 N 265.645 3.40857 -3.13641 0
M  V30 2593 C 266.38 4.14101 -3.96621 0
M  V30 2594 N 265.876 4.90157 -4.8961 0
M  V30 2595 N 267.669 4.09808 -3.84726 0
M  V30 2596 H 259.82 0.680136 -2.01216 0
M  V30 2597 H 262.083 0.362133 -0.876107 0
M  V30 2598 H 261.789 1.87103 -2.97801 0
M  V30 2599 H 261.663 3.25481 -1.90635 0
M  V30 2600 H 264.05 2.75887 -1.0474 0
M  V30 2601 H 264.131 1.38028 -2.15364 0
M  V30 2602 H 263.775 2.96741 -4.12198 0
M  V30 2603 H 263.705 4.33776 -2.98574 0
M  V30 2604 H 266.196 2.86624 -2.46282 0
M  V30 2605 H 266.509 5.4347 -5.49418 0
M  V30 2606 H 264.854 4.89251 -4.93617 0
M  V30 2607 H 268.045 3.4949 -3.11408 0
M  V30 2608 H 268.218 4.66629 -4.49623 0
M  V30 2609 N 261.624 0.925811 1.2754 0
M  V30 2610 C 262.571 0.422045 2.26908 0
M  V30 2611 C 263.541 -0.510029 1.58076 0
M  V30 2612 O 264.726 -0.429599 1.85901 0
M  V30 2613 C 261.866 -0.320837 3.43605 0
M  V30 2614 C 260.979 0.64513 4.27156 0
M  V30 2615 C 260.114 -0.117405 5.3107 0
M  V30 2616 C 259.153 0.841391 6.0629 0
M  V30 2617 N 258.29 0.111604 7.02011 0
M  V30 2618 H 263.13 1.27441 2.69375 0
M  V30 2619 H 260.667 0.639697 1.32462 0
M  V30 2620 H 262.625 -0.76785 4.10073 0
M  V30 2621 H 261.255 -1.13745 3.02096 0
M  V30 2622 H 260.307 1.21067 3.6062 0
M  V30 2623 H 261.619 1.37797 4.79389 0
M  V30 2624 H 260.773 -0.624422 6.03478 0
M  V30 2625 H 259.512 -0.883219 4.79636 0
M  V30 2626 H 258.517 1.35967 5.32722 0
M  V30 2627 H 259.742 1.60696 6.59813 0
M  V30 2628 H 257.688 -0.635999 6.5291 0
M  V30 2629 H 257.605 0.784044 7.51923 0
M  V30 2630 H 258.873 -0.374823 7.78598 0
M  V30 2631 N 263.102 -1.41638 0.69111 0
M  V30 2632 C 264.035 -2.28183 -0.0274913 0
M  V30 2633 C 265.013 -1.41984 -0.792424 0
M  V30 2634 O 266.197 -1.71415 -0.784169 0
M  V30 2635 C 263.324 -3.22135 -1.04628 0
M  V30 2636 C 262.37 -4.24848 -0.375037 0
M  V30 2637 S 263.203 -5.28231 0.879321 0
M  V30 2638 C 264.359 -6.25748 -0.137983 0
M  V30 2639 H 264.592 -2.88782 0.706553 0
M  V30 2640 H 262.125 -1.46709 0.481222 0
M  V30 2641 H 264.083 -3.76797 -1.62894 0
M  V30 2642 H 262.744 -2.6064 -1.75287 0
M  V30 2643 H 261.937 -4.90837 -1.14433 0
M  V30 2644 H 261.539 -3.73758 0.134434 0
M  V30 2645 H 263.831 -6.70188 -0.992659 0
M  V30 2646 H 264.774 -7.06417 0.487867 0
M  V30 2647 H 265.182 -5.62363 -0.490762 0
M  V30 2648 N 264.58 -0.43555 -1.51462 0
M  V30 2649 C 265.808 0.130242 -2.0649 0
M  V30 2650 C 266.223 1.36614 -1.30315 0
M  V30 2651 O 265.58 1.78869 -0.362223 0
M  V30 2652 C 265.631 0.454253 -3.58635 0
M  V30 2653 O 265.352 -0.73259 -4.31931 0
M  V30 2654 C 266.853 1.07091 -4.3017 0
M  V30 2655 H 264.073 0.00871669 -0.670943 0
M  V30 2656 H 266.617 -0.614117 -1.95061 0
M  V30 2657 H 264.772 1.14851 -3.69984 0
M  V30 2658 H 265.186 -0.455787 -5.22516 0
M  V30 2659 H 266.66 1.24764 -5.37716 0
M  V30 2660 H 267.137 2.05144 -3.88346 0
M  V30 2661 H 267.743 0.416089 -4.2326 0
M  V30 2662 N 266.058 1.56714 -0.166846 0
M  V30 2663 C 267.306 1.96358 0.478305 0
M  V30 2664 C 267.627 1.0537 1.6408 0
M  V30 2665 O 266.897 0.119154 1.95537 0
M  V30 2666 H 265.477 0.725065 0.179692 0
M  V30 2667 H 268.139 1.93329 -0.246985 0
M  V30 2668 H 267.235 3.00547 0.841292 0
M  V30 2669 N 267.536 -0.106894 1.57237 0
M  V30 2670 C 268.499 -1.11466 2.0027 0
M  V30 2671 C 269.499 -1.33623 0.894519 0
M  V30 2672 O 270.689 -1.29935 1.16028 0
M  V30 2673 C 267.821 -2.46646 2.35327 0
M  V30 2674 H 269.014 -0.744516 2.90512 0
M  V30 2675 H 266.567 -0.351576 1.52295 0
M  V30 2676 H 267.302 -2.88558 1.48003 0
M  V30 2677 H 267.087 -2.31915 3.16161 0
M  V30 2678 H 268.577 -3.19151 2.69318 0
M  V30 2679 N 269.014 -1.53014 -0.377408 0
M  V30 2680 C 269.944 -1.81589 -1.46791 0
M  V30 2681 C 270.925 -0.668622 -1.56408 0
M  V30 2682 O 272.11 -0.917337 -1.71168 0
M  V30 2683 C 269.24 -1.99519 -2.8427 0
M  V30 2684 C 268.194 -3.15249 -2.89486 0
M  V30 2685 C 267.52 -3.18451 -4.29527 0
M  V30 2686 C 268.82 -4.54084 -2.58079 0
M  V30 2687 H 270.514 -2.7291 -1.23127 0
M  V30 2688 H 268.06 -1.31319 -0.590883 0
M  V30 2689 H 270.013 -2.18092 -3.60575 0
M  V30 2690 H 268.737 -1.04897 -3.09296 0
M  V30 2691 H 267.396 -2.96477 -2.15631 0
M  V30 2692 H 267.044 -2.2149 -4.5161 0
M  V30 2693 H 266.744 -3.962 -4.33934 0
M  V30 2694 H 268.268 -3.39193 -5.07721 0
M  V30 2695 H 269.682 -4.72899 -3.24098 0
M  V30 2696 H 268.079 -5.33987 -2.7382 0
M  V30 2697 H 269.149 -4.60006 -1.53372 0
M  V30 2698 N 270.492 0.636531 -1.44174 0
M  V30 2699 C 271.44 1.76995 -1.50915 0
M  V30 2700 C 272.434 1.65053 -0.381295 0
M  V30 2701 O 273.64 1.71197 -0.55601 0
M  V30 2702 H 270.015 0.584247 -0.473455 0
M  V30 2703 H 271.986 1.68432 -2.4632 0
M  V30 2704 C 270.735 3.15314 -1.46534 0
M  V30 2705 H 270.058 3.25149 -2.32633 0
M  V30 2706 H 271.498 3.9453 -1.55312 0
M  V30 2707 C 269.957 3.3639 -0.185305 0
M  V30 2708 O 270.487 3.94699 0.746688 0
M  V30 2709 N 268.693 2.9046 -0.0901606 0
M  V30 2710 H 268.24 2.43193 -0.849416 0
M  V30 2711 H 268.198 3.04937 0.765553 0
M  V30 2712 N 271.97 1.30982 0.876444 0
M  V30 2713 C 272.918 1.18006 2.00443 0
M  V30 2714 C 273.912 0.0898871 1.69161 0
M  V30 2715 O 275.118 0.251333 1.78237 0
M  V30 2716 H 271.493 0.365196 0.65737 0
M  V30 2717 H 273.464 2.13453 2.0852 0
M  V30 2718 C 272.213 0.897521 3.35916 0
M  V30 2719 H 271.536 1.7285 3.60504 0
M  V30 2720 H 272.976 0.846874 4.15456 0
M  V30 2721 C 271.435 -0.399674 3.34521 0
M  V30 2722 O 271.965 -1.41852 3.7582 0
M  V30 2723 N 270.171 -0.413893 2.87637 0
M  V30 2724 H 269.718 0.41571 2.54224 0
M  V30 2725 H 269.676 -1.28175 2.87086 0
M  V30 2726 N 273.449 -1.08991 1.13837 0
M  V30 2727 C 274.674 -1.85551 0.926585 0
M  V30 2728 C 275.099 -1.80782 -0.519566 0
M  V30 2729 O 274.457 -1.18855 -1.36906 0
M  V30 2730 C 274.505 -3.31266 1.42462 0
M  V30 2731 O 273.609 -4.07822 0.612789 0
M  V30 2732 H 272.95 -0.575192 0.331738 0
M  V30 2733 H 275.48 -1.37604 1.51414 0
M  V30 2734 H 275.49 -3.82112 1.43019 0
M  V30 2735 H 274.165 -3.34052 2.47754 0
M  V30 2736 H 272.742 -3.66731 0.675463 0
M  V30 2737 N 274.927 -0.932562 -1.27047 0
M  V30 2738 C 276.175 -0.574422 -1.93765 0
M  V30 2739 C 276.496 0.887993 -1.73608 0
M  V30 2740 O 275.766 1.62999 -1.08665 0
M  V30 2741 H 274.346 -0.209451 -0.717035 0
M  V30 2742 H 277.008 -1.18601 -1.5466 0
M  V30 2743 H 276.104 -0.784841 -3.02071 0
M  V30 2744 N 276.405 1.4127 -0.698611 0
M  V30 2745 C 277.633 2.05503 -0.239992 0
M  V30 2746 C 278.048 1.52584 1.11191 0
M  V30 2747 O 277.405 0.675323 1.69545 0
M  V30 2748 C 277.456 3.60987 -0.192429 0
M  V30 2749 O 277.177 4.1195 -1.49094 0
M  V30 2750 C 278.678 4.42371 0.28681 0
M  V30 2751 H 275.898 0.661748 -0.111045 0
M  V30 2752 H 278.442 1.80987 -0.95205 0
M  V30 2753 H 276.597 3.84533 0.470472 0
M  V30 2754 H 277.011 5.06018 -1.38007 0
M  V30 2755 H 278.485 5.51344 0.26896 0
M  V30 2756 H 278.962 4.18699 1.32619 0
M  V30 2757 H 279.568 4.23897 -0.345201 0
M  V30 2758 N 277.883 0.443576 1.51229 0
M  V30 2759 C 279.111 -0.11929 2.06556 0
M  V30 2760 C 279.526 -1.35921 1.31038 0
M  V30 2761 O 278.883 -1.78675 0.371704 0
M  V30 2762 C 278.934 -0.435228 3.5887 0
M  V30 2763 O 278.655 0.755486 4.31537 0
M  V30 2764 C 280.156 -1.04808 4.30732 0
M  V30 2765 H 277.376 -0.0051584 0.67098 0
M  V30 2766 H 279.92 0.624453 1.94733 0
M  V30 2767 H 278.075 -1.12887 3.70588 0
M  V30 2768 H 278.489 0.483491 5.22267 0
M  V30 2769 H 279.963 -1.2191 5.3837 0
M  V30 2770 H 280.44 -2.03081 3.89429 0
M  V30 2771 H 281.046 -0.393637 4.23474 0
M  V30 2772 N 279.361 -1.56624 0.175154 0
M  V30 2773 C 280.324 -2.16934 -0.739738 0
M  V30 2774 C 281.324 -1.11842 -1.15533 0
M  V30 2775 O 282.514 -1.37335 -1.07167 0
M  V30 2776 C 279.646 -2.75531 -2.00738 0
M  V30 2777 H 280.839 -2.99131 -0.214639 0
M  V30 2778 H 278.392 -1.56123 -0.0744197 0
M  V30 2779 H 279.127 -1.97078 -2.57548 0
M  V30 2780 H 278.912 -3.52444 -1.71831 0
M  V30 2781 H 280.402 -3.21904 -2.66021 0
M  V30 2782 N 280.839 0.0985539 -1.57292 0
M  V30 2783 C 282.088 0.801358 -1.85098 0
M  V30 2784 C 282.401 1.80066 -0.763902 0
M  V30 2785 O 283.607 2.55112 -0.928981 0
M  V30 2786 C 282.063 1.47599 -3.28242 0
M  V30 2787 C 281.671 0.516624 -4.45011 0
M  V30 2788 C 283.415 2.16272 -3.65276 0
M  V30 2789 C 281.322 1.19564 -5.79188 0
M  V30 2790 H 280.252 0.303022 -0.69043 0
M  V30 2791 H 282.903 0.0542623 -1.8342 0
M  V30 2792 H 281.285 2.27042 -3.2445 0
M  V30 2793 H 282.459 -0.246065 -4.60143 0
M  V30 2794 H 280.774 -0.064227 -4.1635 0
M  V30 2795 H 283.371 2.67802 -4.62803 0
M  V30 2796 H 283.714 2.95009 -2.93727 0
M  V30 2797 H 284.247 1.43693 -3.70941 0
M  V30 2798 H 280.986 0.449157 -6.53959 0
M  V30 2799 H 280.506 1.92984 -5.67906 0
M  V30 2800 H 282.185 1.7231 -6.23633 0
M  V30 2801 N 282.317 1.53212 0.369288 0
M  V30 2802 C 283.564 1.69215 1.11232 0
M  V30 2803 C 283.892 0.442048 1.8941 0
M  V30 2804 O 283.147 -0.575944 1.87033 0
M  V30 2805 C 283.446 2.89101 2.10132 0
M  V30 2806 C 283.112 4.25758 1.48463 0
M  V30 2807 C 281.774 4.6292 1.31372 0
M  V30 2808 C 284.126 5.10757 1.03811 0
M  V30 2809 C 281.454 5.82722 0.68207 0
M  V30 2810 C 283.806 6.31201 0.420487 0
M  V30 2811 C 282.47 6.67079 0.237038 0
M  V30 2812 H 281.74 0.619201 0.407027 0
M  V30 2813 H 284.387 1.87391 0.394552 0
M  V30 2814 H 282.692 2.65421 2.88199 0
M  V30 2815 H 284.389 2.98676 2.6757 0
M  V30 2816 H 280.979 3.96494 1.62758 0
M  V30 2817 H 285.163 4.82599 1.1581 0
M  V30 2818 H 280.419 6.09113 0.528316 0
M  V30 2819 H 284.593 6.96368 0.0662874 0
M  V30 2820 H 282.22 7.59774 -0.254477 0
M  V30 2821 N 283.795 -0.628877 1.44509 0
M  V30 2822 C 285.044 -1.38437 1.4669 0
M  V30 2823 C 285.357 -1.95322 0.104272 0
M  V30 2824 O 286.563 -2.715 0.00362163 0
M  V30 2825 C 285.019 -2.50659 2.5826 0
M  V30 2826 C 284.627 -2.00277 4.0074 0
M  V30 2827 C 286.371 -3.27844 2.69664 0
M  V30 2828 C 284.278 -3.09854 5.0373 0
M  V30 2829 H 283.208 -0.520245 0.545766 0
M  V30 2830 H 285.859 -0.676313 1.70582 0
M  V30 2831 H 284.241 -3.2405 2.27612 0
M  V30 2832 H 285.415 -1.33736 4.40966 0
M  V30 2833 H 283.73 -1.35901 3.93599 0
M  V30 2834 H 286.327 -4.09534 3.43781 0
M  V30 2835 H 286.67 -3.77471 1.75559 0
M  V30 2836 H 287.203 -2.61543 2.99733 0
M  V30 2837 H 283.942 -2.65168 5.99472 0
M  V30 2838 H 283.462 -3.7503 4.68095 0
M  V30 2839 H 285.141 -3.74592 5.27532 0
M  V30 2840 N 285.273 -1.31445 -0.869486 0
M  V30 2841 C 286.221 -1.19067 -1.99814 0
M  V30 2842 C 287.215 -0.0988569 -1.69111 0
M  V30 2843 O 288.421 -0.260781 -1.78101 0
M  V30 2844 H 284.796 -0.368677 -0.655425 0
M  V30 2845 H 286.767 -2.14555 -2.07385 0
M  V30 2846 C 285.516 -0.915323 -3.35436 0
M  V30 2847 H 284.839 -1.74759 -3.59582 0
M  V30 2848 H 286.279 -0.868895 -4.15001 0
M  V30 2849 C 284.738 0.381928 -3.34728 0
M  V30 2850 O 285.268 1.39857 -3.76567 0
M  V30 2851 N 283.474 0.398633 -2.87853 0
M  V30 2852 H 283.021 -0.429186 -2.54 0
M  V30 2853 H 282.979 1.26651 -2.87762 0
M  V30 2854 N 286.751 1.08385 -1.14413 0
M  V30 2855 C 287.683 2.1519 -0.789036 0
M  V30 2856 C 288.696 1.61638 0.19417 0
M  V30 2857 O 289.885 1.78479 -0.0275711 0
M  V30 2858 C 286.985 3.38565 -0.15058 0
M  V30 2859 C 286.158 4.21501 -1.16857 0
M  V30 2860 C 285.217 5.23277 -0.553832 0
M  V30 2861 O 284.243 5.56041 -1.21686 0
M  V30 2862 N 285.445 5.76629 0.669296 0
M  V30 2863 H 288.21 2.46257 -1.70814 0
M  V30 2864 H 285.771 1.24198 -1.03858 0
M  V30 2865 H 287.763 4.03777 0.273181 0
M  V30 2866 H 286.333 3.05299 0.671667 0
M  V30 2867 H 285.553 3.52265 -1.76926 0
M  V30 2868 H 286.841 4.73731 -1.85624 0
M  V30 2869 H 286.239 5.52243 1.22654 0
M  V30 2870 H 284.796 6.43521 1.03556 0
M  V30 2871 N 288.23 0.939286 1.26551 0
M  V30 2872 C 289.16 0.465044 2.28822 0
M  V30 2873 C 290.141 -0.480692 1.63167 0
M  V30 2874 O 291.326 -0.382955 1.90387 0
M  V30 2875 C 288.456 -0.27234 3.46231 0
M  V30 2876 C 287.41 0.58666 4.2396 0
M  V30 2877 C 286.736 -0.280573 5.33963 0
M  V30 2878 C 288.036 1.85704 4.88171 0
M  V30 2879 H 289.73 1.31979 2.68741 0
M  V30 2880 H 287.276 0.636061 1.29191 0
M  V30 2881 H 289.229 -0.615133 4.16886 0
M  V30 2882 H 287.953 -1.16121 3.0526 0
M  V30 2883 H 286.612 0.91232 3.55067 0
M  V30 2884 H 286.26 -1.16874 4.89234 0
M  V30 2885 H 285.96 0.29076 5.8688 0
M  V30 2886 H 287.484 -0.618678 6.07458 0
M  V30 2887 H 288.898 1.58161 5.51052 0
M  V30 2888 H 287.295 2.37279 5.51197 0
M  V30 2889 H 288.365 2.56957 4.11219 0
M  V30 2890 N 289.708 -1.40897 0.706093 0
M  V30 2891 C 291.124 -1.55042 0.37869 0
M  V30 2892 C 291.324 -1.67944 -1.11342 0
M  V30 2893 O 290.38 -1.66372 -1.89938 0
M  V30 2894 C 291.693 -2.78398 1.13643 0
M  V30 2895 C 293.241 -2.92206 1.12181 0
M  V30 2896 C 293.716 -4.18463 1.86152 0
M  V30 2897 N 295.207 -4.25443 1.83173 0
M  V30 2898 C 295.942 -5.2202 2.37239 0
M  V30 2899 N 295.438 -6.24563 2.99821 0
M  V30 2900 N 297.231 -5.14033 2.27435 0
M  V30 2901 H 289.382 -1.30769 1.67372 0
M  V30 2902 H 291.645 -0.631653 0.706907 0
M  V30 2903 H 291.351 -2.7511 2.19106 0
M  V30 2904 H 291.225 -3.70228 0.721853 0
M  V30 2905 H 293.612 -2.95004 0.0754171 0
M  V30 2906 H 293.693 -2.01521 1.57554 0
M  V30 2907 H 293.337 -4.16427 2.90776 0
M  V30 2908 H 293.267 -5.08141 1.38206 0
M  V30 2909 H 295.758 -3.51976 1.37556 0
M  V30 2910 H 296.071 -6.94665 3.38616 0
M  V30 2911 H 294.416 -6.25035 3.03902 0
M  V30 2912 H 297.607 -4.3285 1.78208 0
M  V30 2913 H 297.78 -5.89129 2.69873 0
M  V30 2914 N 291.186 -0.45159 -1.50991 0
M  V30 2915 C 292.096 0.358431 -2.31846 0
M  V30 2916 C 293.112 1.01438 -1.41373 0
M  V30 2917 O 294.288 1.00663 -1.74439 0
M  V30 2918 C 291.353 1.43704 -3.15515 0
M  V30 2919 C 290.414 0.799742 -4.21785 0
M  V30 2920 C 289.647 1.82696 -5.01456 0
M  V30 2921 O 289.87 3.05105 -4.81941 0
M  V30 2922 O 288.804 1.40958 -5.85162 0
M  V30 2923 H 292.63 -0.302032 -3.02194 0
M  V30 2924 H 290.215 -0.213825 -1.47862 0
M  V30 2925 H 292.097 2.06227 -3.67489 0
M  V30 2926 H 290.772 2.08133 -2.47916 0
M  V30 2927 H 289.679 0.136084 -3.73852 0
M  V30 2928 H 291.012 0.198718 -4.91799 0
M  V30 2929 N 292.664 1.56529 -0.183458 0
M  V30 2930 C 293.611 2.18546 0.742055 0
M  V30 2931 C 294.581 1.12912 1.2182 0
M  V30 2932 O 295.766 1.41115 1.28418 0
M  V30 2933 C 292.906 2.83977 1.96089 0
M  V30 2934 C 292.019 4.04105 1.52719 0
M  V30 2935 C 291.154 4.57427 2.70063 0
M  V30 2936 C 290.193 5.69938 2.23243 0
M  V30 2937 N 289.33 6.17717 3.33722 0
M  V30 2938 H 294.17 2.97284 0.206432 0
M  V30 2939 H 291.707 1.46823 0.0901571 0
M  V30 2940 H 293.665 3.20077 2.67594 0
M  V30 2941 H 292.295 2.07822 2.47002 0
M  V30 2942 H 291.347 3.73745 0.708436 0
M  V30 2943 H 292.659 4.85513 1.1436 0
M  V30 2944 H 291.813 4.95772 3.49708 0
M  V30 2945 H 290.552 3.75101 3.11689 0
M  V30 2946 H 289.557 5.31133 1.42048 0
M  V30 2947 H 290.782 6.54073 1.82661 0
M  V30 2948 H 288.728 5.38317 3.74902 0
M  V30 2949 H 288.645 6.94146 2.99495 0
M  V30 2950 H 289.913 6.60713 4.13616 0
M  V30 2951 N 294.142 -0.090211 1.57342 0
M  V30 2952 C 295.391 -0.791531 1.8552 0
M  V30 2953 C 295.704 -1.79659 0.773441 0
M  V30 2954 O 296.91 -2.54616 0.942497 0
M  V30 2955 C 295.366 -1.45856 3.2902 0
M  V30 2956 C 294.974 -0.493017 4.45279 0
M  V30 2957 C 296.718 -2.14332 3.66418 0
M  V30 2958 C 294.625 -1.16491 5.79814 0
M  V30 2959 H 293.555 -0.299356 0.692027 0
M  V30 2960 H 296.206 -0.0445343 1.83446 0
M  V30 2961 H 294.588 -2.25318 3.2565 0
M  V30 2962 H 295.762 0.270464 4.60006 0
M  V30 2963 H 294.077 0.0863061 4.16311 0
M  V30 2964 H 296.674 -2.65344 4.64216 0
M  V30 2965 H 297.017 -2.93447 2.95287 0
M  V30 2966 H 297.55 -1.41724 3.71698 0
M  V30 2967 H 294.289 -0.41447 6.54188 0
M  V30 2968 H 293.809 -1.8997 5.68921 0
M  V30 2969 H 295.488 -1.69001 6.24538 0
M  V30 2970 N 295.62 -1.53406 -0.361157 0
M  V30 2971 C 296.868 -1.69467 -1.10115 0
M  V30 2972 C 297.189 -0.451352 -1.89705 0
M  V30 2973 O 296.459 0.534636 -1.88463 0
M  V30 2974 H 295.039 -0.624749 -0.409508 0
M  V30 2975 H 297.701 -1.90609 -0.406699 0
M  V30 2976 H 296.797 -2.55774 -1.78847 0
M  V30 2977 N 297.098 0.621204 -1.44841 0
M  V30 2978 C 298.344 1.3826 -1.48365 0
M  V30 2979 C 298.677 1.93831 -0.119624 0
M  V30 2980 O 297.952 1.74251 0.864111 0
M  V30 2981 C 298.235 2.54058 -2.55199 0
M  V30 2982 C 298.088 2.03772 -4.00995 0
M  V30 2983 C 299.407 3.56225 -2.58442 0
M  V30 2984 H 296.526 0.501374 -0.540179 0
M  V30 2985 H 299.168 0.7015 -1.76576 0
M  V30 2986 H 297.318 3.12162 -2.31274 0
M  V30 2987 H 298.99 1.50423 -4.36086 0
M  V30 2988 H 297.233 1.34876 -4.12299 0
M  V30 2989 H 297.904 2.87185 -4.71411 0
M  V30 2990 H 300.38 3.07939 -2.79844 0
M  V30 2991 H 299.256 4.34756 -3.3508 0
M  V30 2992 H 299.517 4.10949 -1.63013 0
M  V30 2993 N 298.576 1.31904 0.862503 0
M  V30 2994 C 299.509 1.14514 1.97388 0
M  V30 2995 C 300.487 0.0466493 1.62533 0
M  V30 2996 O 301.671 0.204484 1.87388 0
M  V30 2997 C 298.798 0.751347 3.30261 0
M  V30 2998 C 297.844 1.85395 3.84098 0
M  V30 2999 S 298.677 3.46081 4.08642 0
M  V30 3000 C 299.833 3.08655 5.44502 0
M  V30 3001 H 300.066 2.08597 2.11836 0
M  V30 3002 H 297.599 1.16475 1.01356 0
M  V30 3003 H 299.557 0.530901 4.07052 0
M  V30 3004 H 298.218 -0.170493 3.13637 0
M  V30 3005 H 297.411 1.53122 4.80177 0
M  V30 3006 H 297.013 2.02984 3.14123 0
M  V30 3007 H 299.305 2.58012 6.26447 0
M  V30 3008 H 300.248 4.03726 5.81731 0
M  V30 3009 H 300.656 2.45891 5.08132 0
M  V30 3010 N 300.054 -1.07777 1.14986 0
M  V30 3011 C 301.301 -1.8029 0.922056 0
M  V30 3012 C 301.629 -1.86531 -0.55105 0
M  V30 3013 O 300.884 -1.34189 -1.42449 0
M  V30 3014 C 301.183 -3.25495 1.47608 0
M  V30 3015 C 300.849 -3.39361 2.96893 0
M  V30 3016 C 299.511 -3.42852 3.37647 0
M  V30 3017 C 301.863 -3.42512 3.92854 0
M  V30 3018 C 299.191 -3.47094 4.73015 0
M  V30 3019 C 301.543 -3.4829 5.28088 0
M  V30 3020 C 300.207 -3.50058 5.68345 0
M  V30 3021 H 299.477 -0.659727 0.337404 0
M  V30 3022 H 302.124 -1.26854 1.43459 0
M  V30 3023 H 300.429 -3.81683 0.88463 0
M  V30 3024 H 302.126 -3.80168 1.27568 0
M  V30 3025 H 298.716 -3.37339 2.64387 0
M  V30 3026 H 302.9 -3.3904 3.62444 0
M  V30 3027 H 298.156 -3.46758 5.03556 0
M  V30 3028 H 302.33 -3.49675 6.02246 0
M  V30 3029 H 299.957 -3.53097 6.73221 0
M  V30 3030 N 301.532 -0.945985 -1.26051 0
M  V30 3031 C 302.78 -0.594941 -1.93145 0
M  V30 3032 C 303.101 0.86953 -1.7454 0
M  V30 3033 O 302.371 1.61838 -1.10387 0
M  V30 3034 H 300.951 -0.217044 -0.714773 0
M  V30 3035 H 303.613 -1.20235 -1.53393 0
M  V30 3036 H 302.709 -0.816835 -3.01221 0
M  V30 3037 N 303.011 1.40521 -0.713556 0
M  V30 3038 C 304.236 2.05759 -0.26035 0
M  V30 3039 C 304.661 1.53403 1.08854 0
M  V30 3040 O 304.019 0.668535 1.68524 0
M  V30 3041 C 304.067 3.59745 -0.248122 0
M  V30 3042 O 303.171 4.05123 0.77131 0
M  V30 3043 H 302.512 0.652564 -0.122703 0
M  V30 3044 H 305.042 1.79958 -0.973467 0
M  V30 3045 H 305.052 4.07911 -0.0851129 0
M  V30 3046 H 303.727 3.97218 -1.2325 0
M  V30 3047 H 302.304 3.68422 0.57619 0
M  V30 3048 N 304.489 0.459591 1.5075 0
M  V30 3049 C 305.9 0.00171547 1.867 0
M  V30 3050 C 306.251 -1.39934 1.37525 0
M  V30 3051 O 305.376 -2.03523 0.735349 0
M  V30 3052 C 305.971 -0.00366298 3.388 0
M  V30 3053 C 304.53 -0.406026 3.74204 0
M  V30 3054 C 303.677 0.38673 2.7459 0
M  V30 3055 H 306.628 0.674413 1.43657 0
M  V30 3056 H 306.649 -0.808371 3.71814 0
M  V30 3057 H 306.161 1.01617 3.74561 0
M  V30 3058 H 304.262 -1.43063 3.4404 0
M  V30 3059 H 304.375 -0.115362 4.78961 0
M  V30 3060 H 302.739 -0.158019 2.54209 0
M  V30 3061 H 303.522 1.40585 3.13194 0
M  V30 3062 N 305.967 -1.56429 0.191757 0
M  V30 3063 C 306.877 -2.22541 -0.742481 0
M  V30 3064 C 307.893 -1.22342 -1.23727 0
M  V30 3065 O 309.069 -1.55069 -1.28513 0
M  V30 3066 C 306.134 -2.8692 -1.94623 0
M  V30 3067 C 305.195 -4.02378 -1.49633 0
M  V30 3068 C 304.428 -4.63678 -2.6427 0
M  V30 3069 O 304.651 -4.23895 -3.81666 0
M  V30 3070 O 303.585 -5.53202 -2.37174 0
M  V30 3071 H 307.411 -3.02977 -0.209462 0
M  V30 3072 H 304.996 -1.49353 -0.0373832 0
M  V30 3073 H 306.878 -3.27663 -2.64982 0
M  V30 3074 H 305.553 -2.09466 -2.46791 0
M  V30 3075 H 304.46 -3.66265 -0.761636 0
M  V30 3076 H 305.793 -4.81487 -1.02134 0
M  V30 3077 N 307.445 0.0818655 -1.57387 0
M  V30 3078 C 308.673 0.796108 -1.9097 0
M  V30 3079 C 309.088 1.71626 -0.786757 0
M  V30 3080 O 308.445 1.80908 0.240513 0
M  V30 3081 C 308.496 1.59829 -3.24248 0
M  V30 3082 O 308.217 0.715131 -4.32224 0
M  V30 3083 C 309.718 2.41442 -3.7178 0
M  V30 3084 H 306.938 0.22691 -0.631469 0
M  V30 3085 H 309.482 0.0551439 -2.04426 0
M  V30 3086 H 307.637 2.29163 -3.12351 0
M  V30 3087 H 308.051 1.27205 -5.08841 0
M  V30 3088 H 309.525 2.932 -4.67694 0
M  V30 3089 H 310.002 3.2051 -3.00283 0
M  V30 3090 H 310.608 1.77283 -3.86589 0
M  V30 3091 N 308.923 1.53595 0.353017 0
M  V30 3092 C 310.151 1.74311 1.1146 0
M  V30 3093 C 310.566 0.477854 1.82653 0
M  V30 3094 O 309.923 -0.549977 1.74016 0
M  V30 3095 C 309.974 2.91694 2.13534 0
M  V30 3096 O 309.695 4.13325 1.45238 0
M  V30 3097 C 311.196 3.24384 3.02142 0
M  V30 3098 H 308.416 0.582669 0.332773 0
M  V30 3099 H 310.96 2.00386 0.408107 0
M  V30 3100 H 309.115 2.67977 2.79763 0
M  V30 3101 H 309.529 4.79148 2.13349 0
M  V30 3102 H 311.003 4.09893 3.69718 0
M  V30 3103 H 311.48 2.40282 3.67643 0
M  V30 3104 H 312.086 3.50073 2.41514 0
M  V30 3105 N 310.401 -0.613514 1.45168 0
M  V30 3106 C 311.629 -1.39946 1.5239 0
M  V30 3107 C 312.044 -1.88167 0.154531 0
M  V30 3108 O 311.401 -1.61872 -0.842843 0
M  V30 3109 C 311.452 -2.60795 2.50337 0
M  V30 3110 O 311.173 -2.1458 3.81952 0
M  V30 3111 C 312.674 -3.53723 2.67198 0
M  V30 3112 H 309.894 -0.428593 0.516284 0
M  V30 3113 H 312.438 -0.748753 1.903 0
M  V30 3114 H 310.593 -3.21919 2.15515 0
M  V30 3115 H 311.007 -2.93055 4.34993 0
M  V30 3116 H 312.481 -4.35079 3.39721 0
M  V30 3117 H 312.958 -4.0368 1.73029 0
M  V30 3118 H 313.564 -2.98456 3.02992 0
M  V30 3119 N 311.879 -1.3236 -0.855495 0
M  V30 3120 C 313.127 -1.22629 -1.60644 0
M  V30 3121 C 313.448 0.212136 -1.93843 0
M  V30 3122 O 312.718 1.13666 -1.59552 0
M  V30 3123 H 311.298 -0.450882 -0.595579 0
M  V30 3124 H 313.96 -1.65871 -1.02337 0
M  V30 3125 H 313.056 -1.80832 -2.54374 0
M  V30 3126 N 313.357 1.07166 -1.15556 0
M  V30 3127 C 314.605 1.79443 -0.929764 0
M  V30 3128 C 314.926 1.87246 0.544414 0
M  V30 3129 O 314.196 1.37473 1.39564 0
M  V30 3130 H 312.776 0.664625 -0.341003 0
M  V30 3131 H 315.438 1.29499 -1.45657 0
M  V30 3132 H 314.534 2.81832 -1.34079 0
M  V30 3133 N 314.835 0.952656 1.25548 0
M  V30 3134 C 315.782 0.47008 2.25962 0
M  V30 3135 C 316.752 -0.476384 1.59122 0
M  V30 3136 O 317.937 -0.39007 1.8677 0
M  V30 3137 C 315.077 -0.247881 3.44209 0
M  V30 3138 C 314.19 0.735591 4.25691 0
M  V30 3139 C 313.325 -0.0047306 5.312 0
M  V30 3140 C 312.364 0.969805 6.04368 0
M  V30 3141 N 311.501 0.260486 7.01617 0
M  V30 3142 H 316.341 1.33126 2.66611 0
M  V30 3143 H 313.878 0.66765 1.31076 0
M  V30 3144 H 315.836 -0.680695 4.1161 0
M  V30 3145 H 314.466 -1.07312 3.0444 0
M  V30 3146 H 313.518 1.28689 3.57971 0
M  V30 3147 H 314.83 1.47934 4.76358 0
M  V30 3148 H 313.984 -0.496275 6.04667 0
M  V30 3149 H 312.723 -0.781282 4.81401 0
M  V30 3150 H 311.728 1.47237 5.29718 0
M  V30 3151 H 312.953 1.74655 6.56256 0
M  V30 3152 H 310.899 -0.497364 6.54112 0
M  V30 3153 H 310.816 0.943362 7.50091 0
M  V30 3154 H 312.084 -0.209587 7.79218 0
M  V30 3155 N 316.313 -1.40141 0.720998 0
M  V30 3156 C 317.276 -2.29058 0.0805834 0
M  V30 3157 C 318.276 -1.45632 -0.681758 0
M  V30 3158 O 319.466 -1.6648 -0.512856 0
M  V30 3159 C 316.598 -3.28925 -0.895593 0
M  V30 3160 H 317.791 -2.87191 0.863793 0
M  V30 3161 H 315.344 -1.48553 0.485975 0
M  V30 3162 H 316.079 -2.75822 -1.70566 0
M  V30 3163 H 315.864 -3.90519 -0.351766 0
M  V30 3164 H 317.354 -3.95494 -1.34069 0
M  V30 3165 N 317.792 -0.46758 -1.50504 0
M  V30 3166 C 318.722 0.318381 -2.31319 0
M  V30 3167 C 319.703 0.993564 -1.38066 0
M  V30 3168 O 320.888 0.991411 -1.66987 0
M  V30 3169 C 318.018 1.40275 -3.17711 0
M  V30 3170 C 316.972 0.849373 -4.19487 0
M  V30 3171 C 316.298 2.03177 -4.94594 0
M  V30 3172 C 317.598 -0.136942 -5.2212 0
M  V30 3173 H 319.292 -0.356106 -2.97275 0
M  V30 3174 H 316.838 -0.172703 -1.42961 0
M  V30 3175 H 318.791 1.96004 -3.73042 0
M  V30 3176 H 317.515 2.10596 -2.49634 0
M  V30 3177 H 316.174 0.314076 -3.65252 0
M  V30 3178 H 315.822 2.72187 -4.22993 0
M  V30 3179 H 315.522 1.66774 -5.63436 0
M  V30 3180 H 317.046 2.59403 -5.52759 0
M  V30 3181 H 318.46 0.331056 -5.72343 0
M  V30 3182 H 316.857 -0.41507 -5.98663 0
M  V30 3183 H 317.927 -1.06398 -4.73083 0
M  V30 3184 N 319.27 1.56325 -0.20005 0
M  V30 3185 C 320.217 2.1932 0.718833 0
M  V30 3186 C 321.187 1.14198 1.20615 0
M  V30 3187 O 322.372 1.42469 1.26914 0
M  V30 3188 C 319.512 2.86041 1.93066 0
M  V30 3189 C 318.625 4.05702 1.48425 0
M  V30 3190 C 317.76 4.60266 2.65196 0
M  V30 3191 C 316.799 5.72273 2.17185 0
M  V30 3192 N 315.936 6.21221 3.27152 0
M  V30 3193 H 320.776 2.97486 0.17489 0
M  V30 3194 H 318.313 1.46911 0.0745794 0
M  V30 3195 H 320.271 3.22897 2.64184 0
M  V30 3196 H 318.901 2.1043 2.44783 0
M  V30 3197 H 317.953 3.74475 0.668755 0
M  V30 3198 H 319.265 4.86699 1.09204 0
M  V30 3199 H 318.419 4.99453 3.4443 0
M  V30 3200 H 317.158 3.78386 3.07693 0
M  V30 3201 H 316.163 5.3261 1.36407 0
M  V30 3202 H 317.388 6.55974 1.75713 0
M  V30 3203 H 315.334 5.42263 3.69171 0
M  V30 3204 H 315.251 6.97284 2.92116 0
M  V30 3205 H 316.519 6.65063 4.06585 0
M  V30 3206 N 320.748 -0.0735177 1.57428 0
M  V30 3207 C 321.995 -0.772999 1.87166 0
M  V30 3208 C 322.323 -1.77665 0.791551 0
M  V30 3209 O 321.578 -1.94541 -0.212636 0
M  V30 3210 C 321.877 -1.51799 3.23561 0
M  V30 3211 C 321.543 -0.654484 4.46125 0
M  V30 3212 C 320.205 -0.416511 4.79394 0
M  V30 3213 C 322.557 -0.0555862 5.2117 0
M  V30 3214 C 319.885 0.429869 5.85123 0
M  V30 3215 C 322.237 0.778239 6.27795 0
M  V30 3216 C 320.901 1.0261 6.59566 0
M  V30 3217 H 320.171 -0.282861 0.684888 0
M  V30 3218 H 322.818 -0.0338272 1.9147 0
M  V30 3219 H 321.123 -2.32932 3.1504 0
M  V30 3220 H 322.82 -2.06397 3.43804 0
M  V30 3221 H 319.41 -0.850091 4.20085 0
M  V30 3222 H 323.594 -0.226558 4.95783 0
M  V30 3223 H 318.85 0.630665 6.08139 0
M  V30 3224 H 323.024 1.24906 6.85107 0
M  V30 3225 H 320.651 1.68371 7.4132 0
M  V30 3226 N 322.226 -1.5378 -0.344866 0
M  V30 3227 C 323.456 -1.74646 -1.10374 0
M  V30 3228 C 323.864 -0.48491 -1.8288 0
M  V30 3229 O 323.207 0.553062 -1.75177 0
M  V30 3230 C 323.269 -2.87145 -2.16306 0
M  V30 3231 C 322.933 -4.26795 -1.63386 0
M  V30 3232 C 323.93 -5.08412 -1.08688 0
M  V30 3233 C 321.615 -4.73276 -1.68272 0
M  V30 3234 C 323.609 -6.34609 -0.595792 0
M  V30 3235 C 321.296 -5.99446 -1.18776 0
M  V30 3236 C 322.294 -6.79946 -0.645215 0
M  V30 3237 O 321.982 -8.03745 -0.157626 0
M  V30 3238 H 321.714 -0.587112 -0.335075 0
M  V30 3239 H 324.268 -2.01403 -0.403252 0
M  V30 3240 H 322.498 -2.55909 -2.89909 0
M  V30 3241 H 324.187 -2.95992 -2.77747 0
M  V30 3242 H 324.953 -4.73666 -1.04236 0
M  V30 3243 H 320.832 -4.10677 -2.09442 0
M  V30 3244 H 324.376 -6.97389 -0.171654 0
M  V30 3245 H 320.273 -6.33687 -1.22928 0
M  V30 3246 H 321.041 -8.18038 -0.275037 0
M  V30 3247 N 323.704 0.605807 -1.45491 0
M  V30 3248 C 324.667 1.69836 -1.5391 0
M  V30 3249 C 325.667 1.55261 -0.418424 0
M  V30 3250 O 326.857 1.60296 -0.681965 0
M  V30 3251 C 323.989 3.09117 -1.43734 0
M  V30 3252 H 325.182 1.63738 -2.51257 0
M  V30 3253 H 322.735 0.821689 -1.32959 0
M  V30 3254 H 323.47 3.20791 -0.475788 0
M  V30 3255 H 323.255 3.21104 -2.25021 0
M  V30 3256 H 324.745 3.88696 -1.52661 0
M  V30 3257 N 325.182 1.32811 0.848464 0
M  V30 3258 C 326.407 1.26882 1.6406 0
M  V30 3259 C 326.832 -0.15913 1.87426 0
M  V30 3260 O 326.19 -1.11258 1.43148 0
M  V30 3261 C 326.238 2.03997 2.97351 0
M  V30 3262 O 325.342 1.39201 3.88197 0
M  V30 3263 H 324.683 0.436982 0.499943 0
M  V30 3264 H 327.213 1.75224 1.0563 0
M  V30 3265 H 327.223 2.14403 3.47124 0
M  V30 3266 H 325.898 3.0783 2.79666 0
M  V30 3267 H 324.475 1.37381 3.46671 0
M  V30 3268 N 326.66 -1.06551 1.16123 0
M  V30 3269 C 327.906 -1.79567 0.94252 0
M  V30 3270 C 328.239 -1.86869 -0.528547 0
M  V30 3271 O 327.514 -1.35838 -1.39206 0
M  V30 3272 C 327.797 -3.24195 1.56747 0
M  V30 3273 C 327.65 -3.24989 3.10969 0
M  V30 3274 C 328.969 -4.21678 1.25998 0
M  V30 3275 H 326.088 -0.651883 0.343828 0
M  V30 3276 H 328.73 -1.2463 1.43413 0
M  V30 3277 H 326.88 -3.71107 1.14942 0
M  V30 3278 H 328.552 -2.86258 3.61737 0
M  V30 3279 H 326.795 -2.63716 3.44436 0
M  V30 3280 H 327.466 -4.27005 3.49815 0
M  V30 3281 H 329.942 -3.83196 1.62174 0
M  V30 3282 H 328.818 -5.21146 1.7233 0
M  V30 3283 H 329.079 -4.4174 0.178367 0
M  V30 3284 N 328.138 -0.959301 -1.25041 0
M  V30 3285 C 329.554 -0.664474 -1.4511 0
M  V30 3286 C 329.754 0.776481 -1.85938 0
M  V30 3287 O 328.81 1.55128 -1.99227 0
M  V30 3288 C 330.123 -1.64139 -2.5195 0
M  V30 3289 C 331.671 -1.65309 -2.65786 0
M  V30 3290 C 332.146 -2.61777 -3.75815 0
M  V30 3291 N 333.637 -2.60169 -3.83231 0
M  V30 3292 C 334.372 -3.31489 -4.6787 0
M  V30 3293 N 333.868 -4.12298 -5.56761 0
M  V30 3294 N 335.661 -3.20354 -4.61876 0
M  V30 3295 H 327.812 -1.89043 -0.968332 0
M  V30 3296 H 330.075 -0.813408 -0.4869 0
M  V30 3297 H 329.781 -2.67086 -2.28819 0
M  V30 3298 H 329.655 -1.40756 -3.49954 0
M  V30 3299 H 332.042 -0.630778 -2.8828 0
M  V30 3300 H 332.123 -1.92753 -1.68167 0
M  V30 3301 H 331.767 -3.64137 -3.54071 0
M  V30 3302 H 331.697 -2.31616 -4.72929 0
M  V30 3303 H 334.188 -2.01507 -3.19692 0
M  V30 3304 H 334.501 -4.63625 -6.18281 0
M  V30 3305 H 332.846 -4.16395 -5.56454 0
M  V30 3306 H 336.037 -2.56692 -3.91442 0
M  V30 3307 H 336.21 -3.76201 -5.27614 0
M  V30 3308 N 329.616 1.39756 -0.72842 0
M  V30 3309 C 330.549 2.28176 -0.0330172 0
M  V30 3310 C 331.527 1.44035 0.754501 0
M  V30 3311 O 332.711 1.73434 0.738445 0
M  V30 3312 C 329.838 3.24795 0.960504 0
M  V30 3313 C 328.884 4.25693 0.262264 0
M  V30 3314 S 329.717 5.25714 -1.01906 0
M  V30 3315 C 330.873 6.25894 -0.0279717 0
M  V30 3316 H 331.106 2.86807 -0.78287 0
M  V30 3317 H 328.639 1.45382 -0.519951 0
M  V30 3318 H 330.597 3.80983 1.52846 0
M  V30 3319 H 329.258 2.65196 1.68315 0
M  V30 3320 H 328.451 4.93699 1.01379 0
M  V30 3321 H 328.053 3.7327 -0.233482 0
M  V30 3322 H 330.345 6.72585 0.814621 0
M  V30 3323 H 331.288 7.04876 -0.67499 0
M  V30 3324 H 331.696 5.63466 0.341489 0
M  V30 3325 N 331.094 0.475555 1.50254 0
M  V30 3326 C 332.371 -0.139685 1.95101 0
M  V30 3327 C 332.751 -1.56555 1.41611 0
M  V30 3328 O 332.099 -2.19956 0.618993 0
M  V30 3329 C 332.309 -0.0784298 3.48912 0
M  V30 3330 C 333.657 -0.265095 4.23772 0
M  V30 3331 O 334.681 -0.154808 3.55863 0
M  V30 3332 O 333.54 -0.488327 5.44314 0
M  V30 3333 H 330.634 -0.109236 0.819754 0
M  V30 3334 H 333.18 0.536276 1.61004 0
M  V30 3335 H 331.952 0.916918 3.80405 0
M  V30 3336 H 331.575 -0.795655 3.89558 0
M  V30 3337 N 332.573 -1.56217 0.208337 0
M  V30 3338 C 333.819 -1.98242 -0.427552 0
M  V30 3339 C 334.152 -1.09554 -1.60348 0
M  V30 3340 O 333.427 -0.15035 -1.93918 0
M  V30 3341 C 333.71 -3.4931 -0.874907 0
M  V30 3342 C 333.563 -4.48773 0.303751 0
M  V30 3343 C 334.882 -4.04424 -1.73577 0
M  V30 3344 H 332.001 -0.720744 -0.153936 0
M  V30 3345 H 334.643 -1.87586 0.30192 0
M  V30 3346 H 332.793 -3.58522 -1.49648 0
M  V30 3347 H 334.465 -4.51586 0.941682 0
M  V30 3348 H 332.708 -4.23194 0.953375 0
M  V30 3349 H 333.379 -5.51976 -0.0519883 0
M  V30 3350 H 335.855 -3.98075 -1.21143 0
M  V30 3351 H 334.731 -5.1047 -2.01771 0
M  V30 3352 H 334.992 -3.50494 -2.69456 0
M  V30 3353 N 334.051 0.0651679 -1.57465 0
M  V30 3354 C 335.467 0.420105 -1.53972 0
M  V30 3355 C 335.667 1.78782 -0.929474 0
M  V30 3356 O 334.723 2.46771 -0.534839 0
M  V30 3357 C 336.036 0.355084 -2.98596 0
M  V30 3358 C 337.584 0.434792 -3.09965 0
M  V30 3359 C 338.059 0.399609 -4.56253 0
M  V30 3360 N 339.55 0.459488 -4.60915 0
M  V30 3361 C 340.285 0.454584 -5.71595 0
M  V30 3362 N 339.781 0.404102 -6.9162 0
M  V30 3363 N 341.574 0.501635 -5.59857 0
M  V30 3364 H 333.725 -0.830328 -1.95498 0
M  V30 3365 H 335.988 -0.312244 -0.895102 0
M  V30 3366 H 335.694 -0.583357 -3.46828 0
M  V30 3367 H 335.568 1.16275 -3.58831 0
M  V30 3368 H 337.955 1.36366 -2.61703 0
M  V30 3369 H 338.036 -0.40157 -2.52628 0
M  V30 3370 H 337.68 -0.525436 -5.05175 0
M  V30 3371 H 337.61 1.25359 -5.11461 0
M  V30 3372 H 340.101 0.502482 -3.74544 0
M  V30 3373 H 340.414 0.404468 -7.71741 0
M  V30 3374 H 338.759 0.37069 -6.94011 0
M  V30 3375 H 341.95 0.538812 -4.64989 0
M  V30 3376 H 342.123 0.494345 -6.46112 0
M  V30 3377 N 335.529 1.53961 0.336706 0
M  V30 3378 C 336.945 1.44378 0.680241 0
M  V30 3379 C 337.145 0.606034 1.9217 0
M  V30 3380 O 336.201 0.099688 2.52303 0
M  V30 3381 C 337.514 2.87945 0.8665 0
M  V30 3382 C 339.062 2.97763 0.964682 0
M  V30 3383 C 339.537 4.42453 1.18321 0
M  V30 3384 N 341.028 4.46008 1.25025 0
M  V30 3385 C 341.763 5.55102 1.43697 0
M  V30 3386 N 341.259 6.7419 1.59498 0
M  V30 3387 N 343.052 5.42727 1.463 0
M  V30 3388 H 335.203 2.06918 -0.479455 0
M  V30 3389 H 337.466 0.935634 -0.152619 0
M  V30 3390 H 337.172 3.51691 0.0256937 0
M  V30 3391 H 337.046 3.33293 1.76623 0
M  V30 3392 H 339.433 2.34153 1.796 0
M  V30 3393 H 339.514 2.55766 0.041708 0
M  V30 3394 H 339.158 5.06645 0.356788 0
M  V30 3395 H 339.088 4.82048 2.11985 0
M  V30 3396 H 341.579 3.60196 1.14312 0
M  V30 3397 H 341.892 7.53095 1.734 0
M  V30 3398 H 340.237 6.77123 1.56621 0
M  V30 3399 H 343.428 4.48647 1.33543 0
M  V30 3400 H 343.601 6.27806 1.6051 0
M  V30 3401 N 337.007 -0.598083 1.45811 0
M  V30 3402 C 338.256 -1.35295 1.49594 0
M  V30 3403 C 338.569 -1.95057 0.145679 0
M  V30 3404 O 339.775 -2.71431 0.0612099 0
M  V30 3405 C 338.231 -2.45124 2.63519 0
M  V30 3406 C 337.839 -1.91732 4.04899 0
M  V30 3407 C 339.583 -3.2205 2.76558 0
M  V30 3408 C 337.49 -2.991 5.1019 0
M  V30 3409 H 336.42 -0.508552 0.556679 0
M  V30 3410 H 339.071 -0.639977 1.71978 0
M  V30 3411 H 337.453 -3.19149 2.34435 0
M  V30 3412 H 338.627 -1.24352 4.43704 0
M  V30 3413 H 336.942 -1.27522 3.96393 0
M  V30 3414 H 339.539 -4.0215 3.52391 0
M  V30 3415 H 339.882 -3.73663 1.83526 0
M  V30 3416 H 340.415 -2.55127 3.05213 0
M  V30 3417 H 337.154 -2.52393 6.04961 0
M  V30 3418 H 336.674 -3.65017 4.75944 0
M  V30 3419 H 338.353 -3.63318 5.35359 0
M  V30 3420 N 338.485 -1.33259 -0.841409 0
M  V30 3421 C 339.395 -1.25332 -1.98316 0
M  V30 3422 C 340.411 -0.164364 -1.73222 0
M  V30 3423 O 341.587 -0.387486 -1.97637 0
M  V30 3424 C 338.652 -0.990078 -3.32262 0
M  V30 3425 C 337.713 -2.16879 -3.70489 0
M  V30 3426 C 336.946 -1.91801 -4.98044 0
M  V30 3427 O 337.169 -0.867075 -5.63771 0
M  V30 3428 O 336.103 -2.78267 -5.33714 0
M  V30 3429 H 339.929 -2.21344 -2.07944 0
M  V30 3430 H 337.514 -1.1328 -0.974058 0
M  V30 3431 H 339.396 -0.860321 -4.12524 0
M  V30 3432 H 338.071 -0.0602155 -3.23644 0
M  V30 3433 H 336.978 -2.35407 -2.90748 0
M  V30 3434 H 338.311 -3.0819 -3.8377 0
M  V30 3435 N 339.963 1.05934 -1.16686 0
M  V30 3436 C 341.191 1.8249 -0.974929 0
M  V30 3437 C 341.606 1.82679 0.476861 0
M  V30 3438 O 340.963 1.2486 1.33103 0
M  V30 3439 C 341.014 3.28943 -1.49929 0
M  V30 3440 O 340.735 3.28886 -2.89423 0
M  V30 3441 C 342.236 4.22215 -1.35089 0
M  V30 3442 H 339.456 0.575295 -0.345365 0
M  V30 3443 H 342 1.33631 -1.548 0
M  V30 3444 H 340.155 3.751 -0.968423 0
M  V30 3445 H 340.569 4.20493 -3.13506 0
M  V30 3446 H 342.043 5.22987 -1.76603 0
M  V30 3447 H 342.52 4.38195 -0.296935 0
M  V30 3448 H 343.126 3.81907 -1.87155 0
M  V30 3449 N 341.441 0.965919 1.2453 0
M  V30 3450 C 342.371 0.513476 2.27784 0
M  V30 3451 C 343.352 -0.445974 1.6415 0
M  V30 3452 O 344.537 -0.342485 1.91156 0
M  V30 3453 C 341.667 -0.198839 3.4673 0
M  V30 3454 C 340.621 0.676456 4.2262 0
M  V30 3455 C 339.947 -0.167248 5.34438 0
M  V30 3456 C 341.247 1.96017 4.84123 0
M  V30 3457 H 342.941 1.3765 2.65881 0
M  V30 3458 H 340.487 0.663321 1.27813 0
M  V30 3459 H 342.44 -0.526567 4.18097 0
M  V30 3460 H 341.164 -1.0962 3.07654 0
M  V30 3461 H 339.823 0.98743 3.53052 0
M  V30 3462 H 339.471 -1.0647 4.91603 0
M  V30 3463 H 339.171 0.415181 5.86131 0
M  V30 3464 H 340.695 -0.489688 6.08633 0
M  V30 3465 H 342.109 1.69814 5.47573 0
M  V30 3466 H 340.506 2.48918 5.4604 0
M  V30 3467 H 341.576 2.65622 4.05676 0
M  V30 3468 N 342.919 -1.39368 0.735821 0
M  V30 3469 C 343.866 -2.30599 0.0963825 0
M  V30 3470 C 344.836 -1.49257 -0.728794 0
M  V30 3471 O 346.021 -1.77941 -0.688588 0
M  V30 3472 C 343.161 -3.35596 -0.804305 0
M  V30 3473 C 342.274 -4.31987 0.0335761 0
M  V30 3474 C 341.409 -5.24053 -0.868461 0
M  V30 3475 C 340.448 -6.12095 -0.0258776 0
M  V30 3476 N 339.585 -6.96514 -0.883893 0
M  V30 3477 H 344.425 -2.8471 0.880002 0
M  V30 3478 H 341.962 -1.40188 0.445619 0
M  V30 3479 H 343.92 -3.95062 -1.34096 0
M  V30 3480 H 342.55 -2.82938 -1.55389 0
M  V30 3481 H 341.602 -3.74133 0.68766 0
M  V30 3482 H 342.914 -4.94074 0.685036 0
M  V30 3483 H 342.068 -5.88549 -1.47293 0
M  V30 3484 H 340.807 -4.62289 -1.5537 0
M  V30 3485 H 339.812 -5.4661 0.591386 0
M  V30 3486 H 341.037 -6.75923 0.656156 0
M  V30 3487 H 338.983 -6.37318 -1.55441 0
M  V30 3488 H 338.9 -7.55448 -0.288931 0
M  V30 3489 H 340.168 -7.65439 -1.4739 0
M  V30 3490 N 344.397 -0.483516 -1.5 0
M  V30 3491 C 345.674 0.129337 -1.95172 0
M  V30 3492 C 346.054 1.55802 -1.4244 0
M  V30 3493 O 345.402 2.19625 -0.630649 0
M  V30 3494 C 345.612 0.0599251 -3.48949 0
M  V30 3495 C 346.96 0.242617 -4.23906 0
M  V30 3496 O 347.984 0.135933 -3.55941 0
M  V30 3497 O 346.843 0.459454 -5.44565 0
M  V30 3498 H 343.937 0.104887 -0.820322 0
M  V30 3499 H 346.483 -0.544807 -1.60717 0
M  V30 3500 H 345.255 -0.937079 -3.79914 0
M  V30 3501 H 344.878 0.774984 -3.89974 0
M  V30 3502 N 345.875 1.56104 -0.216619 0
M  V30 3503 C 347.123 1.97781 0.415593 0
M  V30 3504 C 347.444 1.10536 1.60645 0
M  V30 3505 O 346.714 0.181303 1.95059 0
M  V30 3506 H 345.294 0.730415 0.156534 0
M  V30 3507 H 347.956 1.92445 -0.308366 0
M  V30 3508 H 347.052 3.03072 0.74525 0
M  V30 3509 N 347.353 -0.0568162 1.57498 0
M  V30 3510 C 348.581 -0.765626 1.92213 0
M  V30 3511 C 348.996 -1.70353 0.813961 0
M  V30 3512 O 348.353 -1.81268 -0.211701 0
M  V30 3513 C 348.404 -1.5465 3.2675 0
M  V30 3514 O 348.125 -0.646278 4.33307 0
M  V30 3515 C 349.626 -2.35497 3.75574 0
M  V30 3516 H 346.846 -0.216835 0.634999 0
M  V30 3517 H 349.39 -0.0226146 2.04487 0
M  V30 3518 H 347.545 -2.24165 3.15957 0
M  V30 3519 H 347.959 -1.19093 5.108 0
M  V30 3520 H 349.433 -2.85722 4.72299 0
M  V30 3521 H 349.91 -3.15692 3.05344 0
M  V30 3522 H 350.516 -1.7111 3.8936 0
M  V30 3523 N 348.832 -1.54138 -0.328536 0
M  V30 3524 C 349.78 -1.83894 -1.42428 0
M  V30 3525 C 350.774 -0.710478 -1.53781 0
M  V30 3526 O 351.98 -0.894062 -1.56226 0
M  V30 3527 H 348.355 -0.582837 -0.475189 0
M  V30 3528 H 350.326 -2.75537 -1.14552 0
M  V30 3529 C 349.075 -2.07866 -2.78724 0
M  V30 3530 H 348.398 -2.94158 -2.7076 0
M  V30 3531 H 349.838 -2.32644 -3.54476 0
M  V30 3532 C 348.297 -0.868689 -3.25508 0
M  V30 3533 O 348.827 -0.0754908 -4.01629 0
M  V30 3534 N 347.033 -0.681711 -2.82491 0
M  V30 3535 H 346.58 -1.32838 -2.20708 0
M  V30 3536 H 346.538 0.126374 -3.14146 0
M  V30 3537 N 350.31 0.590341 -1.46126 0
M  V30 3538 C 351.273 1.68194 -1.55703 0
M  V30 3539 C 352.273 1.54808 -0.434868 0
M  V30 3540 O 353.463 1.59564 -0.698928 0
M  V30 3541 C 350.595 3.07575 -1.47005 0
M  V30 3542 H 351.788 1.61064 -2.52979 0
M  V30 3543 H 349.341 0.807541 -1.33823 0
M  V30 3544 H 350.076 3.20268 -0.509785 0
M  V30 3545 H 349.861 3.187 -2.28414 0
M  V30 3546 H 351.351 3.87055 -1.56776 0
M  V30 3547 N 351.788 1.33704 0.83433 0
M  V30 3548 C 353.034 1.25603 1.59222 0
M  V30 3549 C 353.367 -0.176659 1.93395 0
M  V30 3550 O 352.642 -1.11915 1.59076 0
M  V30 3551 C 352.925 2.13576 2.89926 0
M  V30 3552 C 352.778 3.65326 2.62406 0
M  V30 3553 C 354.097 2.01238 3.91397 0
M  V30 3554 H 351.216 0.457613 0.577719 0
M  V30 3555 H 353.858 1.63848 0.961972 0
M  V30 3556 H 352.008 1.8109 3.43713 0
M  V30 3557 H 353.68 4.08124 2.15017 0
M  V30 3558 H 351.923 3.8698 1.96033 0
M  V30 3559 H 352.594 4.22232 3.55562 0
M  V30 3560 H 355.07 2.29738 3.46929 0
M  V30 3561 H 353.946 2.65036 4.80673 0
M  V30 3562 H 354.207 0.985951 4.30966 0
M  V30 3563 N 353.266 -1.05314 1.17247 0
M  V30 3564 C 354.514 -1.77941 0.958194 0
M  V30 3565 C 354.835 -1.88089 -0.514556 0
M  V30 3566 O 354.105 -1.39676 -1.37359 0
M  V30 3567 H 352.685 -0.659116 0.351533 0
M  V30 3568 H 355.347 -1.27166 1.47699 0
M  V30 3569 H 354.443 -2.79663 1.38546 0
M  V30 3570 N 354.744 -0.972509 -1.24016 0
M  V30 3571 C 355.692 -0.498562 -2.27194 0
M  V30 3572 C 356.686 0.440372 -1.63576 0
M  V30 3573 O 357.892 0.315133 -1.7722 0
M  V30 3574 H 354.267 -0.142775 -0.738322 0
M  V30 3575 H 356.238 -1.38065 -2.64539 0
M  V30 3576 C 354.987 0.191072 -3.47175 0
M  V30 3577 H 354.31 -0.522318 -3.96373 0
M  V30 3578 H 355.75 0.486445 -4.212 0
M  V30 3579 C 354.209 1.41967 -3.05527 0
M  V30 3580 O 354.739 2.51642 -3.13112 0
M  V30 3581 N 352.945 1.28746 -2.60524 0
M  V30 3582 H 352.492 0.395089 -2.54552 0
M  V30 3583 H 352.45 2.11061 -2.33025 0
M  V30 3584 N 356.222 1.38976 -0.743202 0
M  V30 3585 C 357.638 1.53984 -0.419664 0
M  V30 3586 C 357.838 1.70837 1.0685 0
M  V30 3587 O 356.894 1.7135 1.8546 0
M  V30 3588 C 358.207 2.75287 -1.20985 0
M  V30 3589 C 359.755 2.89129 -1.19889 0
M  V30 3590 C 360.23 4.13381 -1.97181 0
M  V30 3591 N 361.721 4.20437 -1.94389 0
M  V30 3592 C 362.456 5.15547 -2.50996 0
M  V30 3593 N 361.952 6.16395 -3.16274 0
M  V30 3594 N 363.745 5.07822 -2.40984 0
M  V30 3595 H 355.896 1.26285 -1.7078 0
M  V30 3596 H 358.159 0.612689 -0.723406 0
M  V30 3597 H 357.865 2.69204 -2.26323 0
M  V30 3598 H 357.739 3.68184 -0.819759 0
M  V30 3599 H 360.126 2.947 -0.153606 0
M  V30 3600 H 360.207 1.97272 -1.62841 0
M  V30 3601 H 359.851 4.08572 -3.01714 0
M  V30 3602 H 359.781 5.04298 -1.51629 0
M  V30 3603 H 362.272 3.48205 -1.46839 0
M  V30 3604 H 362.585 6.85443 -3.56915 0
M  V30 3605 H 360.93 6.16758 -3.20367 0
M  V30 3606 H 364.121 4.27973 -1.89622 0
M  V30 3607 H 364.294 5.81767 -2.85397 0
M  V30 3608 N 357.7 0.491464 1.49741 0
M  V30 3609 C 358.928 -0.0535151 2.06831 0
M  V30 3610 C 359.343 -1.31683 1.35296 0
M  V30 3611 O 358.7 -1.77402 0.42836 0
M  V30 3612 C 358.751 -0.320835 3.60073 0
M  V30 3613 O 358.472 0.892394 4.28915 0
M  V30 3614 C 359.973 -0.910519 4.33848 0
M  V30 3615 H 357.193 0.0161909 0.670805 0
M  V30 3616 H 359.737 0.68609 1.92647 0
M  V30 3617 H 357.892 -1.0104 3.73991 0
M  V30 3618 H 358.306 0.649401 5.20464 0
M  V30 3619 H 359.78 -1.04721 5.41976 0
M  V30 3620 H 360.257 -1.90589 3.95692 0
M  V30 3621 H 360.863 -0.258712 4.24512 0
M  V30 3622 N 359.178 -1.55987 0.224894 0
M  V30 3623 C 360.594 -1.59066 -0.130426 0
M  V30 3624 C 360.794 -1.24176 -1.5869 0
M  V30 3625 O 359.85 -0.978592 -2.32766 0
M  V30 3626 C 361.163 -3.00042 0.198883 0
M  V30 3627 C 362.711 -3.1268 0.141391 0
M  V30 3628 C 363.186 -4.55839 0.444422 0
M  V30 3629 N 364.677 -4.6152 0.394115 0
M  V30 3630 C 365.412 -5.70231 0.602038 0
M  V30 3631 N 364.908 -6.87291 0.871914 0
M  V30 3632 N 366.701 -5.59555 0.534245 0
M  V30 3633 H 358.852 -1.76941 1.17497 0
M  V30 3634 H 361.115 -0.822604 0.471197 0
M  V30 3635 H 360.821 -3.30234 1.2099 0
M  V30 3636 H 360.695 -3.74075 -0.484535 0
M  V30 3637 H 363.082 -2.82283 -0.860265 0
M  V30 3638 H 363.163 -2.40969 0.858335 0
M  V30 3639 H 362.807 -4.86954 1.44353 0
M  V30 3640 H 362.737 -5.2578 -0.293752 0
M  V30 3641 H 365.228 -3.77405 0.193356 0
M  V30 3642 H 365.541 -7.66058 1.01858 0
M  V30 3643 H 363.886 -6.89028 0.909145 0
M  V30 3644 H 367.077 -4.6698 0.323612 0
M  V30 3645 H 367.25 -6.44211 0.699693 0
M  V30 3646 N 360.656 0.0484629 -1.57525 0
M  V30 3647 C 361.902 0.744226 -1.88651 0
M  V30 3648 C 362.235 1.76029 -0.820212 0
M  V30 3649 O 361.51 1.93782 0.166985 0
M  V30 3650 C 361.793 1.43128 -3.30434 0
M  V30 3651 C 361.646 0.43005 -4.47739 0
M  V30 3652 C 362.965 2.37031 -3.70816 0
M  V30 3653 H 360.084 0.269089 -0.68612 0
M  V30 3654 H 362.726 0.00713532 -1.89999 0
M  V30 3655 H 360.876 2.05956 -3.29415 0
M  V30 3656 H 362.548 -0.194816 -4.60888 0
M  V30 3657 H 360.791 -0.252522 -4.33064 0
M  V30 3658 H 361.462 0.948874 -5.43783 0
M  V30 3659 H 363.938 1.84263 -3.73077 0
M  V30 3660 H 362.814 2.82094 -4.70865 0
M  V30 3661 H 363.075 3.22864 -3.02012 0
M  V30 3662 N 362.134 1.5431 0.320358 0
M  V30 3663 C 363.081 1.83918 1.39438 0
M  V30 3664 C 364.051 0.686525 1.51248 0
M  V30 3665 O 365.236 0.933269 1.66417 0
M  V30 3666 C 362.376 2.075 2.75749 0
M  V30 3667 C 361.489 3.35177 2.72544 0
M  V30 3668 C 360.624 3.48704 4.00723 0
M  V30 3669 C 359.663 4.70244 3.91838 0
M  V30 3670 N 358.8 4.80679 5.11754 0
M  V30 3671 H 363.64 2.75544 1.13489 0
M  V30 3672 H 361.177 1.36459 0.549309 0
M  V30 3673 H 363.135 2.19166 3.54996 0
M  V30 3674 H 361.765 1.19163 3 0
M  V30 3675 H 360.817 3.32233 1.85271 0
M  V30 3676 H 362.129 4.24534 2.61863 0
M  V30 3677 H 361.283 3.59928 4.88402 0
M  V30 3678 H 360.022 2.57445 4.14214 0
M  V30 3679 H 359.027 4.59072 3.02544 0
M  V30 3680 H 360.252 5.6289 3.7991 0
M  V30 3681 H 358.198 3.92337 5.25745 0
M  V30 3682 H 358.115 5.64007 5.0342 0
M  V30 3683 H 359.383 4.96239 6.01138 0
M  V30 3684 N 363.613 -0.582584 1.46437 0
M  V30 3685 C 364.862 -1.337 1.5102 0
M  V30 3686 C 365.175 -1.94891 0.166359 0
M  V30 3687 O 366.381 -2.71351 0.0899954 0
M  V30 3688 C 364.837 -2.42315 2.66104 0
M  V30 3689 C 364.445 -1.87427 4.06909 0
M  V30 3690 C 366.189 -3.19099 2.79958 0
M  V30 3691 C 364.096 -2.93672 5.13333 0
M  V30 3692 H 363.026 -0.502619 0.562041 0
M  V30 3693 H 365.677 -0.621701 1.72647 0
M  V30 3694 H 364.059 -3.16645 2.37807 0
M  V30 3695 H 365.233 -1.19639 4.44998 0
M  V30 3696 H 363.548 -1.2331 3.97723 0
M  V30 3697 H 366.145 -3.9839 3.56636 0
M  V30 3698 H 366.488 -3.71695 1.87479 0
M  V30 3699 H 367.021 -2.51875 3.07902 0
M  V30 3700 H 363.76 -2.45962 6.07604 0
M  V30 3701 H 363.28 -3.59948 4.79789 0
M  V30 3702 H 364.959 -3.5762 5.39182 0
M  V30 3703 N 365.091 -1.34144 -0.827227 0
M  V30 3704 C 366.337 -1.26446 -1.58554 0
M  V30 3705 C 366.67 0.1664 -1.93486 0
M  V30 3706 O 365.945 1.1107 -1.59667 0
M  V30 3707 C 366.228 -2.15111 -2.8879 0
M  V30 3708 C 366.081 -3.66712 -2.60465 0
M  V30 3709 C 367.4 -2.03311 -3.90324 0
M  V30 3710 H 364.519 -0.46067 -0.575284 0
M  V30 3711 H 367.161 -1.64356 -0.953269 0
M  V30 3712 H 365.311 -1.8291 -3.42748 0
M  V30 3713 H 366.983 -4.09259 -2.1285 0
M  V30 3714 H 365.226 -3.88014 -1.93978 0
M  V30 3715 H 365.897 -4.24112 -3.53317 0
M  V30 3716 H 368.373 -2.31574 -3.45706 0
M  V30 3717 H 367.249 -2.67582 -4.79261 0
M  V30 3718 H 367.51 -1.00879 -4.30437 0
M  V30 3719 N 366.569 1.04691 -1.17803 0
M  V30 3720 C 367.516 2.12557 -0.899343 0
M  V30 3721 C 368.486 1.65339 0.158771 0
M  V30 3722 O 369.671 1.90789 0.0204797 0
M  V30 3723 C 366.811 3.42481 -0.424315 0
M  V30 3724 C 365.924 4.03346 -1.54713 0
M  V30 3725 C 365.059 5.21208 -1.02546 0
M  V30 3726 C 364.098 5.74089 -2.12339 0
M  V30 3727 N 363.235 6.83247 -1.61612 0
M  V30 3728 H 368.075 2.35734 -1.823 0
M  V30 3729 H 365.612 1.1564 -0.909159 0
M  V30 3730 H 367.57 4.16996 -0.130421 0
M  V30 3731 H 366.2 3.19471 0.462377 0
M  V30 3732 H 365.252 3.2622 -1.95664 0
M  V30 3733 H 366.564 4.38628 -2.37501 0
M  V30 3734 H 365.718 6.02812 -0.685718 0
M  V30 3735 H 364.457 4.87414 -0.167084 0
M  V30 3736 H 363.462 4.91111 -2.47165 0
M  V30 3737 H 364.687 6.0993 -2.98601 0
M  V30 3738 H 362.633 6.5134 -0.780533 0
M  V30 3739 H 362.55 7.17559 -2.38003 0
M  V30 3740 H 363.818 7.68491 -1.30545 0
M  V30 3741 N 368.047 0.979072 1.23499 0
M  V30 3742 C 368.995 0.510604 2.26926 0
M  V30 3743 C 369.989 -0.431691 1.63807 0
M  V30 3744 O 371.195 -0.30573 1.77385 0
M  V30 3745 H 367.57 0.146688 0.737554 0
M  V30 3746 H 369.541 1.39466 2.63803 0
M  V30 3747 C 368.29 -0.172658 3.47271 0
M  V30 3748 H 367.613 0.543331 3.96091 0
M  V30 3749 H 369.053 -0.464101 4.21452 0
M  V30 3750 C 367.512 -1.40345 3.06276 0
M  V30 3751 O 368.042 -2.49978 3.14442 0
M  V30 3752 N 366.248 -1.27362 2.61203 0
M  V30 3753 H 365.795 -0.381584 2.54758 0
M  V30 3754 H 365.753 -2.09822 2.34141 0
M  V30 3755 N 369.525 -1.3858 0.750561 0
M  V30 3756 C 370.472 -2.30483 0.120835 0
M  V30 3757 C 371.442 -1.50022 -0.712923 0
M  V30 3758 O 372.627 -1.78662 -0.669676 0
M  V30 3759 C 369.767 -3.36431 -0.768666 0
M  V30 3760 C 368.88 -4.31927 0.0793922 0
M  V30 3761 C 368.015 -5.24944 -0.81283 0
M  V30 3762 C 367.054 -6.12088 0.0390447 0
M  V30 3763 N 366.191 -6.97412 -0.809969 0
M  V30 3764 H 371.031 -2.83761 0.91015 0
M  V30 3765 H 368.568 -1.39707 0.460463 0
M  V30 3766 H 370.526 -3.96462 -1.29898 0
M  V30 3767 H 369.156 -2.8457 -1.5238 0
M  V30 3768 H 368.208 -3.73382 0.727303 0
M  V30 3769 H 369.52 -4.93319 0.737401 0
M  V30 3770 H 368.674 -5.90078 -1.41042 0
M  V30 3771 H 367.413 -4.63911 -1.50458 0
M  V30 3772 H 366.418 -5.45952 0.649328 0
M  V30 3773 H 367.643 -6.75189 0.727809 0
M  V30 3774 H 365.589 -6.38931 -1.48672 0
M  V30 3775 H 365.506 -7.55712 -0.208789 0
M  V30 3776 H 366.774 -7.66959 -1.39263 0
M  V30 3777 N 371.003 -0.499398 -1.49478 0
M  V30 3778 C 372.249 0.0457576 -2.02748 0
M  V30 3779 C 372.582 1.36793 -1.37846 0
M  V30 3780 O 371.857 1.87596 -0.513601 0
M  V30 3781 C 372.14 0.199986 -3.59544 0
M  V30 3782 C 371.993 -1.1452 -4.34977 0
M  V30 3783 C 373.312 0.94137 -4.29914 0
M  V30 3784 H 370.431 0.0151552 -0.736844 0
M  V30 3785 H 373.073 -0.650498 -1.78518 0
M  V30 3786 H 371.223 0.793007 -3.8032 0
M  V30 3787 H 372.895 -1.77697 -4.25701 0
M  V30 3788 H 371.138 -1.73488 -3.97598 0
M  V30 3789 H 371.809 -0.990607 -5.43039 0
M  V30 3790 H 374.285 0.43844 -4.13784 0
M  V30 3791 H 373.161 1.01812 -5.39375 0
M  V30 3792 H 373.422 1.98471 -3.95046 0
M  V30 3793 N 372.481 1.55866 -0.233164 0
M  V30 3794 C 373.706 2.03449 0.402906 0
M  V30 3795 C 374.131 1.11166 1.51736 0
M  V30 3796 O 373.489 0.101996 1.81013 0
M  V30 3797 C 373.537 3.49165 0.9009 0
M  V30 3798 O 372.641 3.60019 2.01147 0
M  V30 3799 H 371.982 0.657913 0.0897025 0
M  V30 3800 H 374.512 2.01493 -0.355201 0
M  V30 3801 H 374.522 3.89716 1.2077 0
M  V30 3802 H 373.197 4.15813 0.0852889 0
M  V30 3803 H 371.774 3.3136 1.71042 0
M  V30 3804 N 373.959 -0.0401083 1.57549 0
M  V30 3805 C 375.37 -0.588097 1.77196 0
M  V30 3806 C 375.721 -1.76209 0.862832 0
M  V30 3807 O 374.846 -2.16331 0.0548389 0
M  V30 3808 C 375.441 -1.07363 3.21339 0
M  V30 3809 C 374 -1.56723 3.42221 0
M  V30 3810 C 373.147 -0.50041 2.72747 0
M  V30 3811 H 376.098 0.186119 1.57605 0
M  V30 3812 H 376.119 -1.94143 3.27244 0
M  V30 3813 H 375.631 -0.218975 3.87482 0
M  V30 3814 H 373.732 -2.4441 2.81237 0
M  V30 3815 H 373.845 -1.62234 4.50796 0
M  V30 3816 H 372.209 -0.952894 2.36203 0
M  V30 3817 H 372.992 0.344599 3.41566 0
M  V30 3818 N 375.437 -1.54477 -0.31217 0
M  V30 3819 C 376.848 -1.64344 -0.885891 0
M  V30 3820 C 377.199 -0.54485 -1.88483 0
M  V30 3821 O 376.324 0.320387 -2.14015 0
M  V30 3822 C 376.919 -2.97908 -1.61357 0
M  V30 3823 C 375.478 -3.09933 -2.13585 0
M  V30 3824 C 374.625 -2.59971 -0.964897 0
M  V30 3825 H 377.576 -1.58448 -0.0894528 0
M  V30 3826 H 377.597 -2.88706 -2.47848 0
M  V30 3827 H 377.109 -3.77845 -0.886277 0
M  V30 3828 H 375.21 -2.34694 -2.89395 0
M  V30 3829 H 375.323 -4.15916 -2.37804 0
M  V30 3830 H 373.687 -2.16147 -1.34731 0
M  V30 3831 H 374.47 -3.42376 -0.251742 0
M  V30 3832 N 376.915 0.57481 -1.46744 0
M  V30 3833 C 378.162 1.33272 -1.52462 0
M  V30 3834 C 378.49 1.93669 -0.179572 0
M  V30 3835 O 377.745 1.7743 0.825664 0
M  V30 3836 C 378.044 2.476 -2.57738 0
M  V30 3837 C 377.71 2.05146 -4.01529 0
M  V30 3838 C 376.372 1.93284 -4.40676 0
M  V30 3839 C 378.724 1.72506 -4.91824 0
M  V30 3840 C 376.052 1.47049 -5.67973 0
M  V30 3841 C 378.404 1.27748 -6.19567 0
M  V30 3842 C 377.068 1.14468 -6.57612 0
M  V30 3843 H 376.338 0.487678 -0.557899 0
M  V30 3844 H 378.985 0.646456 -1.80259 0
M  V30 3845 H 377.29 3.21708 -2.23632 0
M  V30 3846 H 378.987 3.05807 -2.5939 0
M  V30 3847 H 375.577 2.15316 -3.7059 0
M  V30 3848 H 379.761 1.80552 -4.62293 0
M  V30 3849 H 375.017 1.35417 -5.96215 0
M  V30 3850 H 379.191 1.01547 -6.88957 0
M  V30 3851 H 376.818 0.78419 -7.56145 0
M  V30 3852 N 378.394 1.34581 0.820102 0
M  V30 3853 C 379.341 1.2639 1.93117 0
M  V30 3854 C 380.311 0.138554 1.65521 0
M  V30 3855 O 381.496 0.320004 1.88097 0
M  V30 3856 C 378.636 1.02812 3.29429 0
M  V30 3857 C 377.749 2.24146 3.693 0
M  V30 3858 C 376.884 1.93829 4.94574 0
M  V30 3859 C 375.923 3.1129 5.27034 0
M  V30 3860 N 375.06 2.80838 6.43486 0
M  V30 3861 H 379.9 2.21408 1.99455 0
M  V30 3862 H 377.437 1.10077 0.975784 0
M  V30 3863 H 379.395 0.871788 4.0799 0
M  V30 3864 H 378.025 0.114612 3.22596 0
M  V30 3865 H 377.077 2.50691 2.86109 0
M  V30 3866 H 378.389 3.11899 3.89257 0
M  V30 3867 H 377.543 1.74948 5.80929 0
M  V30 3868 H 376.282 1.03341 4.76626 0
M  V30 3869 H 375.287 3.30764 4.39175 0
M  V30 3870 H 376.512 4.02561 5.4692 0
M  V30 3871 H 374.458 1.92929 6.26988 0
M  V30 3872 H 374.375 3.62123 6.63629 0
M  V30 3873 H 375.643 2.65467 7.32903 0
M  V30 3874 N 379.872 -1.04064 1.18357 0
M  V30 3875 C 380.804 -2.12114 0.868358 0
M  V30 3876 C 381.817 -1.62247 -0.134045 0
M  V30 3877 O 383.006 -1.78253 0.0937933 0
M  V30 3878 C 380.106 -3.37773 0.276132 0
M  V30 3879 C 379.279 -4.16874 1.3242 0
M  V30 3880 C 378.338 -5.20861 0.747662 0
M  V30 3881 O 377.364 -5.51141 1.42239 0
M  V30 3882 N 378.566 -5.78715 -0.454823 0
M  V30 3883 H 381.331 -2.39748 1.79836 0
M  V30 3884 H 378.892 -1.20258 1.08396 0
M  V30 3885 H 380.884 -4.04513 -0.123133 0
M  V30 3886 H 379.454 -3.07581 -0.557895 0
M  V30 3887 H 378.674 -3.45456 1.89878 0
M  V30 3888 H 379.962 -4.66516 2.03078 0
M  V30 3889 H 379.36 -5.56415 -1.02073 0
M  V30 3890 H 377.917 -6.46921 -0.79601 0
M  V30 3891 N 381.35 -0.985608 -1.22978 0
M  V30 3892 C 382.313 -0.535071 -2.22867 0
M  V30 3893 C 383.313 0.378123 -1.56291 0
M  V30 3894 O 384.503 0.171092 -1.73358 0
M  V30 3895 C 381.635 0.222702 -3.40172 0
M  V30 3896 H 382.828 -1.41835 -2.6424 0
M  V30 3897 H 380.381 -0.772042 -1.35901 0
M  V30 3898 H 381.116 1.12229 -3.04262 0
M  V30 3899 H 380.901 -0.43288 -3.89703 0
M  V30 3900 H 382.391 0.526335 -4.1427 0
M  V30 3901 N 382.828 1.3818 -0.7579 0
M  V30 3902 C 383.738 2.3421 -0.135247 0
M  V30 3903 C 384.754 1.59487 0.695683 0
M  V30 3904 O 385.93 1.91657 0.618832 0
M  V30 3905 C 382.995 3.3862 0.744139 0
M  V30 3906 C 382.056 4.2918 -0.101658 0
M  V30 3907 C 381.289 5.28603 0.735851 0
M  V30 3908 O 381.512 5.35166 1.97366 0
M  V30 3909 O 380.446 6.01707 0.152372 0
M  V30 3910 H 384.272 2.8916 -0.928436 0
M  V30 3911 H 381.857 1.40101 -0.518855 0
M  V30 3912 H 383.739 4.02539 1.2466 0
M  V30 3913 H 382.414 2.86019 1.51575 0
M  V30 3914 H 381.321 3.68407 -0.650167 0
M  V30 3915 H 382.654 4.85048 -0.836024 0
M  V30 3916 N 384.306 0.507319 1.49211 0
M  V30 3917 C 385.553 -0.0349529 2.0247 0
M  V30 3918 C 385.881 -1.36409 1.38647 0
M  V30 3919 O 385.136 -1.88841 0.513566 0
M  V30 3920 C 385.435 -0.229513 3.56662 0
M  V30 3921 C 385.101 1.02241 4.39156 0
M  V30 3922 C 383.763 1.36557 4.61417 0
M  V30 3923 C 386.115 1.85428 4.871 0
M  V30 3924 C 383.443 2.53999 5.28868 0
M  V30 3925 C 385.795 3.02028 5.55843 0
M  V30 3926 C 384.459 3.36717 5.76349 0
M  V30 3927 H 383.729 -0.0127902 0.74089 0
M  V30 3928 H 386.376 0.668756 1.79443 0
M  V30 3929 H 384.681 -1.0158 3.78403 0
M  V30 3930 H 386.378 -0.663641 3.9547 0
M  V30 3931 H 382.968 0.745124 4.22073 0
M  V30 3932 H 387.152 1.6023 4.69723 0
M  V30 3933 H 382.408 2.81105 5.42946 0
M  V30 3934 H 386.582 3.66808 5.91967 0
M  V30 3935 H 384.209 4.27821 6.28389 0
M  V30 3936 N 385.784 -1.5574 0.241426 0
M  V30 3937 C 387.061 -1.90704 -0.434881 0
M  V30 3938 C 387.441 -1.16145 -1.76277 0
M  V30 3939 O 386.789 -0.277152 -2.26813 0
M  V30 3940 C 386.999 -3.43657 -0.608343 0
M  V30 3941 C 388.347 -4.14806 -0.906725 0
M  V30 3942 O 389.371 -3.49366 -0.694408 0
M  V30 3943 O 388.23 -5.30548 -1.31075 0
M  V30 3944 H 385.324 -0.793592 -0.23268 0
M  V30 3945 H 387.87 -1.67288 0.285086 0
M  V30 3946 H 386.642 -3.89927 0.327505 0
M  V30 3947 H 386.265 -3.72918 -1.37906 0
M  V30 3948 N 387.262 0.0317525 -1.57568 0
M  V30 3949 C 388.511 0.722131 -1.8833 0
M  V30 3950 C 388.824 1.76664 -0.839587 0
M  V30 3951 O 390.03 2.50942 -1.03635 0
M  V30 3952 C 388.486 1.33544 -3.34207 0
M  V30 3953 C 388.094 0.327415 -4.46802 0
M  V30 3954 C 389.838 2.00585 -3.7412 0
M  V30 3955 C 387.745 0.948915 -5.83738 0
M  V30 3956 H 386.675 0.273466 -0.702661 0
M  V30 3957 H 389.326 -0.0235811 -1.83485 0
M  V30 3958 H 387.708 2.13077 -3.33788 0
M  V30 3959 H 388.882 -0.441006 -4.58685 0
M  V30 3960 H 387.197 -0.240758 -4.15703 0
M  V30 3961 H 389.794 2.47932 -4.73744 0
M  V30 3962 H 390.137 2.82285 -3.05975 0
M  V30 3963 H 390.67 1.27831 -3.76702 0
M  V30 3964 H 387.409 0.171387 -6.55276 0
M  V30 3965 H 386.929 1.68724 -5.7558 0
M  V30 3966 H 388.608 1.45705 -6.3038 0
M  V30 3967 N 388.74 1.54641 0.303973 0
M  V30 3968 C 389.67 1.88386 1.3796 0
M  V30 3969 C 390.651 0.742485 1.5304 0
M  V30 3970 O 391.836 0.997959 1.66597 0
M  V30 3971 C 388.966 2.12854 2.74427 0
M  V30 3972 C 387.92 3.28702 2.74115 0
M  V30 3973 C 387.246 3.38582 4.13844 0
M  V30 3974 C 388.546 4.65881 2.3612 0
M  V30 3975 H 390.24 2.78474 1.09966 0
M  V30 3976 H 387.786 1.33988 0.527556 0
M  V30 3977 H 389.739 2.35047 3.49758 0
M  V30 3978 H 388.463 1.19535 3.03939 0
M  V30 3979 H 387.122 3.06428 2.0124 0
M  V30 3980 H 386.77 2.42784 4.40528 0
M  V30 3981 H 386.47 4.16453 4.14537 0
M  V30 3982 H 387.994 3.63031 4.90959 0
M  V30 3983 H 389.408 4.87823 3.01167 0
M  V30 3984 H 387.805 5.46444 2.48031 0
M  V30 3985 H 388.875 4.66799 1.3125 0
M  V30 3986 N 390.218 -0.567019 1.47046 0
M  V30 3987 C 391.448 -1.34831 1.56538 0
M  V30 3988 C 391.856 -1.8802 0.21101 0
M  V30 3989 O 391.199 -1.65152 -0.804387 0
M  V30 3990 C 391.261 -2.56139 2.52256 0
M  V30 3991 C 390.925 -2.24307 3.98165 0
M  V30 3992 C 391.922 -1.82192 4.86931 0
M  V30 3993 C 389.607 -2.35968 4.43423 0
M  V30 3994 C 391.601 -1.52153 6.18973 0
M  V30 3995 C 389.288 -2.05542 5.75496 0
M  V30 3996 C 390.286 -1.63701 6.63092 0
M  V30 3997 O 389.974 -1.33657 7.92711 0
M  V30 3998 H 389.706 -0.417683 0.531523 0
M  V30 3999 H 392.26 -0.694726 1.93294 0
M  V30 4000 H 390.49 -3.24356 2.10548 0
M  V30 4001 H 392.179 -3.18214 2.51982 0
M  V30 4002 H 392.945 -1.72684 4.53217 0
M  V30 4003 H 388.824 -2.67495 3.75456 0
M  V30 4004 H 392.368 -1.19421 6.87302 0
M  V30 4005 H 388.265 -2.14679 6.08755 0
M  V30 4006 H 389.033 -1.4737 8.05124 0
M  V30 4007 N 391.696 -1.35014 -0.812953 0
M  V30 4008 C 392.944 -1.27678 -1.56661 0
M  V30 4009 C 393.265 0.150359 -1.94419 0
M  V30 4010 O 392.535 1.08532 -1.63088 0
M  V30 4011 H 391.115 -0.469602 -0.580933 0
M  V30 4012 H 393.777 -1.69043 -0.970076 0
M  V30 4013 H 392.873 -1.88833 -2.48492 0
M  V30 4014 N 393.175 1.03435 -1.18907 0
M  V30 4015 C 394.591 1.28973 -0.940111 0
M  V30 4016 C 394.791 1.97676 0.390691 0
M  V30 4017 O 393.847 2.26127 1.12352 0
M  V30 4018 C 395.16 2.14221 -2.11021 0
M  V30 4019 C 396.708 2.27547 -2.14922 0
M  V30 4020 C 397.183 3.16164 -3.31367 0
M  V30 4021 N 398.674 3.23752 -3.31269 0
M  V30 4022 C 399.409 3.92495 -4.18014 0
M  V30 4023 N 398.905 4.63515 -5.14904 0
M  V30 4024 N 400.698 3.88838 -4.05908 0
M  V30 4025 H 392.849 0.57252 -2.04538 0
M  V30 4026 H 395.112 0.315184 -0.894071 0
M  V30 4027 H 394.818 1.71054 -3.073 0
M  V30 4028 H 394.692 3.14919 -2.0762 0
M  V30 4029 H 397.079 2.69947 -1.19217 0
M  V30 4030 H 397.16 1.26418 -2.22378 0
M  V30 4031 H 396.804 2.74474 -4.27348 0
M  V30 4032 H 396.734 4.17339 -3.21148 0
M  V30 4033 H 399.225 2.73167 -2.61129 0
M  V30 4034 H 399.538 5.13583 -5.77453 0
M  V30 4035 H 397.883 4.62398 -5.18857 0
M  V30 4036 H 401.074 3.32491 -3.29495 0
M  V30 4037 H 401.247 4.4214 -4.73726 0
M  V30 4038 N 394.653 0.992116 1.22453 0
M  V30 4039 C 395.901 0.666215 1.90804 0
M  V30 4040 C 396.222 -0.804152 1.77647 0
M  V30 4041 O 395.492 -1.57629 1.16318 0
M  V30 4042 H 394.072 0.243423 0.706225 0
M  V30 4043 H 396.734 1.25845 1.48825 0
M  V30 4044 H 395.83 0.928069 2.97982 0
M  V30 4045 N 396.131 -1.37776 0.765217 0
M  V30 4046 C 397.38 -1.99092 0.323307 0
M  V30 4047 C 397.693 -1.61434 -1.10446 0
M  V30 4048 O 398.899 -2.15805 -1.64743 0
M  V30 4049 C 397.355 -3.56019 0.527098 0
M  V30 4050 C 396.963 -4.0262 1.96471 0
M  V30 4051 C 398.707 -4.2424 0.148483 0
M  V30 4052 C 396.614 -5.52233 2.11644 0
M  V30 4053 H 395.544 -0.744846 0.117137 0
M  V30 4054 H 398.195 -1.57391 0.943417 0
M  V30 4055 H 396.577 -3.95667 -0.162372 0
M  V30 4056 H 397.751 -3.74234 2.68859 0
M  V30 4057 H 396.066 -3.47161 2.29931 0
M  V30 4058 H 398.663 -5.34159 0.240456 0
M  V30 4059 H 399.006 -4.06446 -0.900422 0
M  V30 4060 H 399.539 -3.89872 0.79025 0
M  V30 4061 H 396.278 -5.74945 3.1483 0
M  V30 4062 H 395.798 -5.82324 1.4373 0
M  V30 4063 H 397.477 -6.18106 1.91193 0
M  V30 4064 N 397.609 -0.515225 -1.4894 0
M  V30 4065 C 398.834 0.022727 -2.07388 0
M  V30 4066 C 399.259 1.2876 -1.37122 0
M  V30 4067 O 398.617 1.76067 -0.432431 0
M  V30 4068 C 398.665 0.244869 -3.59768 0
M  V30 4069 O 397.769 1.31667 -3.90817 0
M  V30 4070 H 397.11 -0.0325506 -0.663202 0
M  V30 4071 H 399.64 -0.718918 -1.91553 0
M  V30 4072 H 399.65 0.47205 -4.0526 0
M  V30 4073 H 398.325 -0.679194 -4.10317 0
M  V30 4074 H 396.902 1.07331 -3.5712 0
M  V30 4075 N 399.087 1.5561 -0.249682 0
M  V30 4076 C 400.503 1.59254 0.105103 0
M  V30 4077 C 400.703 1.26685 1.56694 0
M  V30 4078 O 399.759 1.0155 2.31179 0
M  V30 4079 C 401.072 2.99687 -0.246592 0
M  V30 4080 C 402.62 3.12416 -0.191118 0
M  V30 4081 C 403.095 4.55074 -0.516885 0
M  V30 4082 N 404.586 4.60835 -0.467489 0
M  V30 4083 C 405.321 5.69201 -0.69268 0
M  V30 4084 N 404.817 6.85817 -0.981146 0
M  V30 4085 N 406.61 5.58635 -0.623198 0
M  V30 4086 H 398.761 1.75049 -1.20298 0
M  V30 4087 H 401.024 0.815003 -0.484225 0
M  V30 4088 H 400.73 3.28267 -1.26228 0
M  V30 4089 H 400.604 3.74798 0.424962 0
M  V30 4090 H 402.991 2.83615 0.815247 0
M  V30 4091 H 403.072 2.39573 -0.896563 0
M  V30 4092 H 402.716 4.84596 -1.52082 0
M  V30 4093 H 402.646 5.26181 0.210068 0
M  V30 4094 H 405.137 3.7705 -0.253373 0
M  V30 4095 H 405.45 7.64341 -1.14032 0
M  V30 4096 H 403.795 6.87494 -1.01865 0
M  V30 4097 H 406.986 4.66406 -0.397863 0
M  V30 4098 H 407.159 6.43017 -0.802093 0
M  V30 4099 N 400.565 -0.0233959 1.57583 0
M  V30 4100 C 401.475 -1.03907 2.10334 0
M  V30 4101 C 402.491 -1.39257 1.04323 0
M  V30 4102 O 403.667 -1.48462 1.36091 0
M  V30 4103 C 400.732 -2.31938 2.57693 0
M  V30 4104 C 399.793 -2.03117 3.78209 0
M  V30 4105 C 399.026 -3.25043 4.233 0
M  V30 4106 O 399.249 -4.35916 3.67876 0
M  V30 4107 O 398.183 -3.10411 5.15683 0
M  V30 4108 H 402.009 -0.620748 2.97288 0
M  V30 4109 H 399.594 -0.240743 1.47448 0
M  V30 4110 H 401.476 -3.07196 2.88458 0
M  V30 4111 H 400.151 -2.73055 1.73847 0
M  V30 4112 H 399.058 -1.25408 3.52454 0
M  V30 4113 H 400.391 -1.66852 4.63056 0
M  V30 4114 N 402.043 -1.548 -0.295768 0
M  V30 4115 C 403.291 -1.73985 -1.02828 0
M  V30 4116 C 403.612 -0.531406 -1.87619 0
M  V30 4117 O 402.882 0.454221 -1.90561 0
M  V30 4118 H 401.462 -0.641556 -0.382642 0
M  V30 4119 H 404.124 -1.92163 -0.325489 0
M  V30 4120 H 403.22 -2.63129 -1.67838 0
M  V30 4121 N 403.521 0.559213 -1.47345 0
M  V30 4122 C 404.746 1.34676 -1.57725 0
M  V30 4123 C 405.171 1.86723 -0.227164 0
M  V30 4124 O 404.529 1.6286 0.796642 0
M  V30 4125 C 404.577 2.49399 -2.60447 0
M  V30 4126 O 403.681 3.51567 -2.15578 0
M  V30 4127 H 403.022 0.400115 -0.52991 0
M  V30 4128 H 405.552 0.676009 -1.93109 0
M  V30 4129 H 405.562 2.95996 -2.80803 0
M  V30 4130 H 404.237 2.10873 -3.58477 0
M  V30 4131 H 402.814 3.11289 -2.05313 0
M  V30 4132 N 404.999 1.35443 0.805782 0
M  V30 4133 C 405.929 1.31095 1.93226 0
M  V30 4134 C 406.91 0.185244 1.69088 0
M  V30 4135 O 408.095 0.380332 1.90439 0
M  V30 4136 C 405.225 1.08299 3.29983 0
M  V30 4137 C 404.179 2.17519 3.68605 0
M  V30 4138 C 403.505 1.79887 5.03532 0
M  V30 4139 C 404.805 3.5949 3.78898 0
M  V30 4140 H 406.499 2.25352 1.97122 0
M  V30 4141 H 404.045 1.0848 0.946996 0
M  V30 4142 H 405.998 1.03897 4.08391 0
M  V30 4143 H 404.722 0.104885 3.26432 0
M  V30 4144 H 403.381 2.2102 2.92482 0
M  V30 4145 H 403.029 0.80693 4.96485 0
M  V30 4146 H 402.729 2.53001 5.30344 0
M  V30 4147 H 404.253 1.77011 5.84379 0
M  V30 4148 H 405.667 3.58307 4.47536 0
M  V30 4149 H 404.064 4.31371 4.1718 0
M  V30 4150 H 405.134 3.95584 2.80431 0
M  V30 4151 N 406.477 -1.02803 1.19454 0
M  V30 4152 C 407.726 -1.7562 0.991996 0
M  V30 4153 C 408.039 -1.89672 -0.477901 0
M  V30 4154 O 409.245 -2.59468 -0.799287 0
M  V30 4155 C 407.701 -3.15812 1.72601 0
M  V30 4156 C 407.309 -3.0981 3.23607 0
M  V30 4157 C 409.053 -3.92918 1.60674 0
M  V30 4158 C 406.96 -4.44939 3.89594 0
M  V30 4159 H 405.89 -0.658352 0.367543 0
M  V30 4160 H 408.541 -1.15044 1.42959 0
M  V30 4161 H 406.923 -3.7686 1.21624 0
M  V30 4162 H 408.097 -2.58138 3.81709 0
M  V30 4163 H 406.412 -2.46201 3.35819 0
M  V30 4164 H 409.009 -4.9287 2.07323 0
M  V30 4165 H 409.352 -4.12502 0.561025 0
M  V30 4166 H 409.885 -3.38472 2.09001 0
M  V30 4167 H 406.624 -4.30559 4.94267 0
M  V30 4168 H 406.144 -4.96664 3.36281 0
M  V30 4169 H 407.823 -5.1382 3.93189 0
M  V30 4170 N 407.956 -0.998596 -1.21925 0
M  V30 4171 C 409.233 -0.593401 -1.86382 0
M  V30 4172 C 409.613 0.92916 -1.89552 0
M  V30 4173 O 408.961 1.81347 -1.39017 0
M  V30 4174 C 409.171 -1.22039 -3.26967 0
M  V30 4175 C 410.519 -1.32449 -4.03413 0
M  V30 4176 O 411.543 -1.17522 -3.36254 0
M  V30 4177 O 410.402 -1.56395 -5.23644 0
M  V30 4178 H 407.496 -0.202385 -0.801854 0
M  V30 4179 H 410.042 -1.09484 -1.29659 0
M  V30 4180 H 408.814 -2.26158 -3.19325 0
M  V30 4181 H 408.437 -0.704906 -3.91301 0
M  V30 4182 N 409.434 1.37368 -0.772513 0
M  V30 4183 C 410.367 2.27956 -0.105593 0
M  V30 4184 C 411.345 1.46362 0.708295 0
M  V30 4185 O 412.529 1.75695 0.682895 0
M  V30 4186 C 409.656 3.27687 0.856686 0
M  V30 4187 C 408.702 4.26312 0.1267 0
M  V30 4188 S 409.535 5.22206 -1.1858 0
M  V30 4189 C 410.691 6.25488 -0.227081 0
M  V30 4190 H 410.924 2.84171 -0.87372 0
M  V30 4191 H 408.457 1.43654 -0.565939 0
M  V30 4192 H 410.415 3.85653 1.40648 0
M  V30 4193 H 409.076 2.70417 1.59793 0
M  V30 4194 H 408.269 4.96674 0.856212 0
M  V30 4195 H 407.871 3.72339 -0.352117 0
M  V30 4196 H 410.163 6.74836 0.600231 0
M  V30 4197 H 411.106 7.02371 -0.898899 0
M  V30 4198 H 411.514 5.64267 0.162053 0
M  V30 4199 N 410.912 0.523116 1.48665 0
M  V30 4200 C 412.16 -0.0134497 2.02096 0
M  V30 4201 C 412.481 -1.35418 1.40311 0
M  V30 4202 O 411.751 -1.87543 0.566074 0
M  V30 4203 H 410.331 -0.00795915 0.746958 0
M  V30 4204 H 412.993 0.685388 1.82451 0
M  V30 4205 H 412.089 -0.126849 3.11842 0
M  V30 4206 N 412.39 -1.55475 0.257931 0
M  V30 4207 C 413.636 -1.99502 -0.364266 0
M  V30 4208 C 413.969 -1.146 -1.56782 0
M  V30 4209 O 413.244 -0.211968 -1.93342 0
M  V30 4210 C 413.527 -3.51917 -0.763333 0
M  V30 4211 C 413.38 -4.4758 0.446371 0
M  V30 4212 C 414.699 -4.09742 -1.60623 0
M  V30 4213 H 411.818 -0.725277 -0.130929 0
M  V30 4214 H 414.46 -1.8653 0.361446 0
M  V30 4215 H 412.61 -3.63101 -1.38166 0
M  V30 4216 H 414.282 -4.48362 1.08487 0
M  V30 4217 H 412.525 -4.19947 1.08753 0
M  V30 4218 H 413.196 -5.51862 0.123645 0
M  V30 4219 H 415.672 -4.01727 -1.08418 0
M  V30 4220 H 414.548 -5.16631 -1.85429 0
M  V30 4221 H 414.809 -3.58889 -2.58169 0
M  V30 4222 N 413.868 0.0150385 -1.57593 0
M  V30 4223 C 415.145 0.7392 -1.81094 0
M  V30 4224 C 415.525 1.92817 -0.859344 0
M  V30 4225 O 414.873 2.28301 0.095362 0
M  V30 4226 C 415.083 1.15907 -3.29191 0
M  V30 4227 C 416.431 1.56918 -3.9454 0
M  V30 4228 O 417.455 1.25328 -3.33424 0
M  V30 4229 O 416.314 2.15604 -5.02173 0
M  V30 4230 H 413.408 0.358631 -0.745193 0
M  V30 4231 H 415.954 -0.00926156 -1.69697 0
M  V30 4232 H 414.726 0.310921 -3.90063 0
M  V30 4233 H 414.349 1.96711 -3.45529 0
M  V30 4234 N 415.346 1.54954 0.287554 0
M  V30 4235 C 416.278 1.83224 1.37701 0
M  V30 4236 C 417.291 0.715898 1.46215 0
M  V30 4237 O 418.48 0.993565 1.48292 0
M  V30 4238 C 415.58 1.96723 2.75959 0
M  V30 4239 C 414.753 3.27253 2.90215 0
M  V30 4240 C 413.812 3.30998 4.09056 0
M  V30 4241 O 412.838 4.04457 4.00503 0
M  V30 4242 N 414.04 2.57353 5.20336 0
M  V30 4243 H 416.805 2.77254 1.138 0
M  V30 4244 H 414.366 1.54694 0.477652 0
M  V30 4245 H 416.358 1.96615 3.5373 0
M  V30 4246 H 414.928 1.09626 2.92747 0
M  V30 4247 H 414.148 3.40022 1.99447 0
M  V30 4248 H 415.436 4.13365 2.96659 0
M  V30 4249 H 414.834 1.97327 5.30169 0
M  V30 4250 H 413.391 2.62984 5.96391 0
M  V30 4251 N 416.824 -0.551391 1.4764 0
M  V30 4252 C 418.072 -1.30572 1.54258 0
M  V30 4253 C 418.393 -1.93877 0.208963 0
M  V30 4254 O 417.663 -1.80234 -0.767619 0
M  V30 4255 H 416.243 -0.484894 0.568231 0
M  V30 4256 H 418.905 -0.643402 1.83974 0
M  V30 4257 H 418.001 -2.09621 2.31226 0
M  V30 4258 N 418.302 -1.35869 -0.798587 0
M  V30 4259 C 419.549 -1.29588 -1.55606 0
M  V30 4260 C 419.877 0.127456 -1.94082 0
M  V30 4261 O 419.132 1.09461 -1.62225 0
M  V30 4262 C 419.431 -2.1556 -2.85077 0
M  V30 4263 C 419.097 -3.6424 -2.65781 0
M  V30 4264 C 417.759 -4.04766 -2.60227 0
M  V30 4265 C 420.111 -4.58547 -2.47758 0
M  V30 4266 C 417.439 -5.37753 -2.34603 0
M  V30 4267 C 419.791 -5.91742 -2.23662 0
M  V30 4268 C 418.455 -6.31402 -2.16534 0
M  V30 4269 H 417.725 -0.474197 -0.569402 0
M  V30 4270 H 420.372 -1.67839 -0.922086 0
M  V30 4271 H 418.677 -1.70216 -3.52893 0
M  V30 4272 H 420.374 -2.08031 -3.42818 0
M  V30 4273 H 416.964 -3.32086 -2.70956 0
M  V30 4274 H 421.148 -4.28117 -2.51056 0
M  V30 4275 H 416.404 -5.67474 -2.2756 0
M  V30 4276 H 420.578 -6.6439 -2.08708 0
M  V30 4277 H 418.205 -7.34381 -1.96441 0
M  V30 4278 N 419.78 1.02168 -1.19998 0
M  V30 4279 C 421.029 1.75091 -1.0013 0
M  V30 4280 C 421.342 1.89923 0.467835 0
M  V30 4281 O 422.548 2.59888 0.785515 0
M  V30 4282 C 421.004 3.14892 -1.74273 0
M  V30 4283 C 420.612 3.0809 -3.25245 0
M  V30 4284 C 422.356 3.9206 -1.62755 0
M  V30 4285 C 420.263 4.42867 -3.91948 0
M  V30 4286 H 419.193 0.656394 -0.37103 0
M  V30 4287 H 421.844 1.14284 -1.43567 0
M  V30 4288 H 420.226 3.7621 -1.2362 0
M  V30 4289 H 421.4 2.5611 -3.83072 0
M  V30 4290 H 419.715 2.44416 -3.3712 0
M  V30 4291 H 422.312 4.91764 -2.09934 0
M  V30 4292 H 422.655 4.12199 -0.582894 0
M  V30 4293 H 423.188 3.37359 -2.10793 0
M  V30 4294 H 419.927 4.27931 -4.96543 0
M  V30 4295 H 419.447 4.94874 -3.3891 0
M  V30 4296 H 421.126 5.11728 -3.95909 0
M  V30 4297 N 421.258 1.00505 1.21394 0
M  V30 4298 C 422.674 0.717873 1.42544 0
M  V30 4299 C 422.874 -0.706936 1.88692 0
M  V30 4300 O 421.93 -1.47627 2.04847 0
M  V30 4301 C 423.243 1.73377 2.45684 0
M  V30 4302 C 424.791 1.75059 2.59467 0
M  V30 4303 C 425.266 2.75545 3.6584 0
M  V30 4304 N 426.757 2.74213 3.73311 0
M  V30 4305 C 427.492 3.48626 4.55245 0
M  V30 4306 N 426.988 4.32678 5.41075 0
M  V30 4307 N 428.781 3.37276 4.49668 0
M  V30 4308 H 420.932 1.92506 0.897503 0
M  V30 4309 H 423.195 0.830919 0.456375 0
M  V30 4310 H 422.901 2.75395 2.18748 0
M  V30 4311 H 422.775 1.53647 3.44489 0
M  V30 4312 H 425.162 0.737337 2.8574 0
M  V30 4313 H 425.243 1.98861 1.60897 0
M  V30 4314 H 424.887 3.77028 3.40313 0
M  V30 4315 H 424.817 2.49009 4.64007 0
M  V30 4316 H 427.308 2.13234 3.11993 0
M  V30 4317 H 427.621 4.86253 6.00648 0
M  V30 4318 H 425.966 4.3676 5.40616 0
M  V30 4319 H 429.157 2.71043 3.81646 0
M  V30 4320 H 429.33 3.95524 5.13288 0
M  V30 4321 N 422.737 -1.36956 0.779787 0
M  V30 4322 C 423.684 -2.30175 0.169697 0
M  V30 4323 C 424.654 -1.51501 -0.68094 0
M  V30 4324 O 425.839 -1.80042 -0.631629 0
M  V30 4325 C 422.979 -3.37985 -0.697131 0
M  V30 4326 C 422.092 -4.31661 0.170992 0
M  V30 4327 C 421.227 -5.2655 -0.701298 0
M  V30 4328 C 420.266 -6.11867 0.168869 0
M  V30 4329 N 419.403 -6.98973 -0.661855 0
M  V30 4330 H 424.243 -2.81767 0.970135 0
M  V30 4331 H 421.78 -1.38699 0.489994 0
M  V30 4332 H 423.738 -3.99128 -1.2146 0
M  V30 4333 H 422.368 -2.87739 -1.46309 0
M  V30 4334 H 421.42 -3.71756 0.80634 0
M  V30 4335 H 422.732 -4.91644 0.841875 0
M  V30 4336 H 421.886 -5.92937 -1.28494 0
M  V30 4337 H 420.625 -4.66998 -1.40584 0
M  V30 4338 H 419.63 -5.44452 0.764986 0
M  V30 4339 H 420.855 -6.73493 0.870863 0
M  V30 4340 H 418.801 -6.41941 -1.35086 0
M  V30 4341 H 418.718 -7.55984 -0.0484447 0
M  V30 4342 H 419.986 -7.6974 -1.22963 0
M  V30 4343 N 424.215 -0.530993 -1.48385 0
M  V30 4344 C 425.44 0.000729535 -2.074 0
M  V30 4345 C 425.865 1.27298 -1.3848 0
M  V30 4346 O 425.223 1.75599 -0.451081 0
M  V30 4347 C 425.271 0.206697 -3.60007 0
M  V30 4348 O 424.375 1.27514 -3.92191 0
M  V30 4349 H 423.716 -0.039583 -0.662819 0
M  V30 4350 H 426.246 -0.739194 -1.9078 0
M  V30 4351 H 426.256 0.42904 -4.05738 0
M  V30 4352 H 424.931 -0.722675 -4.09573 0
M  V30 4353 H 423.508 1.03537 -3.58238 0
M  V30 4354 N 425.693 1.55336 -0.266172 0
M  V30 4355 C 426.941 1.99003 0.35246 0
M  V30 4356 C 427.262 1.15591 1.57047 0
M  V30 4357 O 426.532 0.243268 1.94384 0
M  V30 4358 H 425.112 0.735025 0.133217 0
M  V30 4359 H 427.774 1.91367 -0.369434 0
M  V30 4360 H 426.87 3.05289 0.648453 0
M  V30 4361 N 427.171 -0.0066808 1.57599 0
M  V30 4362 C 428.396 -0.707738 1.94951 0
M  V30 4363 C 428.821 -1.66882 0.867868 0
M  V30 4364 O 428.179 -1.80457 -0.17458 0
M  V30 4365 C 428.227 -1.42162 3.31394 0
M  V30 4366 O 427.331 -2.53578 3.25226 0
M  V30 4367 H 426.672 -0.188752 0.636607 0
M  V30 4368 H 429.202 0.0445193 2.04552 0
M  V30 4369 H 429.212 -1.78655 3.66806 0
M  V30 4370 H 427.887 -0.716903 4.09675 0
M  V30 4371 H 426.464 -2.19463 3.01481 0
M  V30 4372 N 428.649 -1.55105 -0.279332 0
M  V30 4373 C 429.895 -1.76597 -1.00921 0
M  V30 4374 C 430.25 -0.556831 -1.84166 0
M  V30 4375 O 429.543 0.450573 -1.86227 0
M  V30 4376 C 429.737 -3.0086 -1.92919 0
M  V30 4377 C 429.566 -4.33744 -1.18728 0
M  V30 4378 C 428.336 -4.9712 -0.905545 0
M  V30 4379 C 430.534 -5.11009 -0.580857 0
M  V30 4380 N 428.516 -6.13749 -0.136169 0
M  V30 4381 C 429.887 -6.19976 0.0546661 0
M  V30 4382 C 431.942 -4.95502 -0.488067 0
M  V30 4383 C 430.645 -7.15123 0.774028 0
M  V30 4384 C 432.671 -5.90999 0.217688 0
M  V30 4385 C 432.033 -6.9935 0.841975 0
M  V30 4386 H 428.132 -0.698553 -0.351493 0
M  V30 4387 H 430.716 -1.92595 -0.285531 0
M  V30 4388 H 428.887 -2.86249 -2.62519 0
M  V30 4389 H 430.619 -3.10784 -2.59221 0
M  V30 4390 H 427.374 -4.57903 -1.20921 0
M  V30 4391 H 427.798 -6.7659 0.235665 0
M  V30 4392 H 432.44 -4.11841 -0.956406 0
M  V30 4393 H 430.158 -7.9831 1.25407 0
M  V30 4394 H 433.744 -5.81078 0.289717 0
M  V30 4395 H 432.624 -7.71973 1.37939 0
M  V30 4396 N 430.127 0.543554 -1.4793 0
M  V30 4397 C 431.374 1.30008 -1.55255 0
M  V30 4398 C 431.702 1.93245 -0.220612 0
M  V30 4399 O 430.957 1.79141 0.787843 0
M  V30 4400 C 431.256 2.42078 -2.62932 0
M  V30 4401 C 430.922 1.96583 -4.0579 0
M  V30 4402 C 429.584 1.83893 -4.44676 0
M  V30 4403 C 431.936 1.62034 -4.95373 0
M  V30 4404 C 429.264 1.34969 -5.70964 0
M  V30 4405 C 431.616 1.14577 -6.22137 0
M  V30 4406 C 430.28 1.00493 -6.59892 0
M  V30 4407 H 429.55 0.475735 -0.568117 0
M  V30 4408 H 432.197 0.608075 -1.81589 0
M  V30 4409 H 430.502 3.16892 -2.30406 0
M  V30 4410 H 432.199 3.00236 -2.65818 0
M  V30 4411 H 428.789 2.07407 -3.75074 0
M  V30 4412 H 432.973 1.70705 -4.66019 0
M  V30 4413 H 428.229 1.2274 -5.98953 0
M  V30 4414 H 432.403 0.869109 -6.90955 0
M  V30 4415 H 430.03 0.623624 -7.57638 0
M  V30 4416 N 431.605 1.3629 0.791371 0
M  V30 4417 C 432.833 1.33562 1.58016 0
M  V30 4418 C 433.248 -0.0835616 1.88615 0
M  V30 4419 O 432.605 -1.0399 1.49974 0
M  V30 4420 C 432.656 2.15517 2.90232 0
M  V30 4421 O 432.377 3.51902 2.60953 0
M  V30 4422 C 433.878 2.20546 3.84544 0
M  V30 4423 H 431.098 0.458226 0.490173 0
M  V30 4424 H 433.642 1.79361 0.982345 0
M  V30 4425 H 431.797 1.73278 3.46487 0
M  V30 4426 H 432.211 3.94644 3.4548 0
M  V30 4427 H 433.685 2.82252 4.74382 0
M  V30 4428 H 434.162 1.20838 4.2225 0
M  V30 4429 H 434.768 2.63013 3.34222 0
M  V30 4430 N 433.083 -1.0153 1.20538 0
M  V30 4431 C 434.313 -1.78487 1.04048 0
M  V30 4432 C 434.721 -1.84631 -0.413292 0
M  V30 4433 O 434.064 -1.29919 -1.29872 0
M  V30 4434 C 434.126 -3.24367 1.55003 0
M  V30 4435 C 433.79 -3.41827 3.0332 0
M  V30 4436 C 434.787 -3.30941 4.00966 0
M  V30 4437 C 432.472 -3.67602 3.42307 0
M  V30 4438 C 434.466 -3.45577 5.35589 0
M  V30 4439 C 432.153 -3.81881 4.77085 0
M  V30 4440 C 433.151 -3.70874 5.73534 0
M  V30 4441 O 432.839 -3.84714 7.05868 0
M  V30 4442 H 432.571 -0.568108 0.366373 0
M  V30 4443 H 435.125 -1.28677 1.60098 0
M  V30 4444 H 433.355 -3.75266 0.933397 0
M  V30 4445 H 435.044 -3.82963 1.34514 0
M  V30 4446 H 435.81 -3.10964 3.72191 0
M  V30 4447 H 431.689 -3.75256 2.67776 0
M  V30 4448 H 435.233 -3.36902 6.10854 0
M  V30 4449 H 431.13 -4.01359 5.0555 0
M  V30 4450 H 431.898 -4.01724 7.13134 0
M  V30 4451 N 434.561 -1.01147 -1.20859 0
M  V30 4452 C 435.471 -0.58686 -2.27141 0
M  V30 4453 C 436.487 0.373198 -1.69951 0
M  V30 4454 O 437.663 0.235423 -2.00019 0
M  V30 4455 C 434.728 0.0733602 -3.46622 0
M  V30 4456 C 433.789 -0.931995 -4.19061 0
M  V30 4457 C 433.022 -0.303186 -5.32838 0
M  V30 4458 O 433.245 0.898395 -5.63281 0
M  V30 4459 O 432.179 -1.01735 -5.9324 0
M  V30 4460 H 436.005 -1.47155 -2.65667 0
M  V30 4461 H 433.59 -0.780689 -1.2738 0
M  V30 4462 H 435.472 0.442333 -4.19072 0
M  V30 4463 H 434.147 0.932329 -3.09983 0
M  V30 4464 H 433.054 -1.35224 -3.48805 0
M  V30 4465 H 434.387 -1.76076 -4.59628 0
M  V30 4466 N 436.039 1.36541 -0.78704 0
M  V30 4467 C 437.287 1.98911 -0.357633 0
M  V30 4468 C 437.608 1.62778 1.07371 0
M  V30 4469 O 436.878 0.900612 1.73971 0
M  V30 4470 H 435.458 0.735734 -0.129246 0
M  V30 4471 H 438.12 1.66776 -1.00855 0
M  V30 4472 H 437.216 3.08874 -0.447549 0
M  V30 4473 N 437.518 0.538854 1.48102 0
M  V30 4474 C 438.428 -0.222648 2.33541 0
M  V30 4475 C 439.444 -0.930225 1.47047 0
M  V30 4476 O 440.62 -0.903211 1.80011 0
M  V30 4477 C 437.685 -1.25064 3.23357 0
M  V30 4478 C 436.746 -0.552469 4.2573 0
M  V30 4479 C 435.979 -1.53149 5.11254 0
M  V30 4480 O 436.202 -2.76487 4.9891 0
M  V30 4481 O 435.136 -1.06602 5.92385 0
M  V30 4482 H 438.962 0.477707 2.99919 0
M  V30 4483 H 436.547 0.299669 1.46364 0
M  V30 4484 H 438.429 -1.8445 3.78888 0
M  V30 4485 H 437.104 -1.93325 2.59629 0
M  V30 4486 H 436.011 0.082114 3.7401 0
M  V30 4487 H 437.344 0.0883526 4.92121 0
M  V30 4488 N 438.996 -1.55193 0.274407 0
M  V30 4489 C 439.928 -2.1989 -0.646595 0
M  V30 4490 C 440.941 -1.1834 -1.11801 0
M  V30 4491 O 442.13 -1.4507 -1.04004 0
M  V30 4492 C 439.23 -2.8104 -1.89393 0
M  V30 4493 C 438.403 -4.08274 -1.56943 0
M  V30 4494 C 437.462 -4.53478 -2.66916 0
M  V30 4495 O 436.488 -5.19267 -2.33132 0
M  V30 4496 N 437.69 -4.2356 -3.9696 0
M  V30 4497 H 440.455 -2.99556 -0.0928686 0
M  V30 4498 H 438.016 -1.61618 0.0954783 0
M  V30 4499 H 440.008 -3.08226 -2.62257 0
M  V30 4500 H 438.578 -2.05372 -2.35672 0
M  V30 4501 H 437.798 -3.88384 -0.674655 0
M  V30 4502 H 439.086 -4.91173 -1.32764 0
M  V30 4503 H 438.484 -3.70799 -4.27229 0
M  V30 4504 H 437.041 -4.55518 -4.66205 0
M  V30 4505 N 440.474 -0.00167713 -1.576 0
M  V30 4506 C 441.404 0.988091 -2.11563 0
M  V30 4507 C 442.385 1.35736 -1.02517 0
M  V30 4508 O 443.57 1.44082 -1.30208 0
M  V30 4509 C 440.7 2.27941 -2.62031 0
M  V30 4510 C 439.654 2.0517 -3.75619 0
M  V30 4511 C 438.98 3.4033 -4.12407 0
M  V30 4512 C 440.28 1.41294 -5.02825 0
M  V30 4513 H 441.974 0.538771 -2.94513 0
M  V30 4514 H 439.52 0.257712 -1.41675 0
M  V30 4515 H 441.473 2.97539 -2.9841 0
M  V30 4516 H 440.197 2.74989 -1.76205 0
M  V30 4517 H 438.856 1.37998 -3.39635 0
M  V30 4518 H 438.504 3.85085 -3.23603 0
M  V30 4519 H 438.204 3.25909 -4.88935 0
M  V30 4520 H 439.728 4.1124 -4.51347 0
M  V30 4521 H 441.142 2.00851 -5.36965 0
M  V30 4522 H 439.539 1.37356 -5.84169 0
M  V30 4523 H 440.609 0.382362 -4.8339 0
M  V30 4524 N 441.952 1.55251 0.271103 0
M  V30 4525 C 443.2 1.75599 1.00047 0
M  V30 4526 C 443.521 0.561188 1.8675 0
M  V30 4527 O 442.791 -0.423846 1.9126 0
M  V30 4528 H 441.371 0.647562 0.372387 0
M  V30 4529 H 444.033 1.92656 0.294876 0
M  V30 4530 H 443.129 2.65766 1.6363 0
M  V30 4531 N 443.43 -0.535701 1.48216 0
M  V30 4532 C 444.362 -1.65662 1.58394 0
M  V30 4533 C 445.375 -1.5591 0.468607 0
M  V30 4534 O 446.564 -1.62475 0.7392 0
M  V30 4535 C 443.664 -3.04276 1.4923 0
M  V30 4536 C 442.837 -3.39567 2.75705 0
M  V30 4537 C 441.896 -4.57436 2.60075 0
M  V30 4538 O 440.922 -4.60942 3.33948 0
M  V30 4539 N 442.124 -5.55259 1.69315 0
M  V30 4540 H 444.889 -1.5737 2.55058 0
M  V30 4541 H 442.45 -0.722845 1.44867 0
M  V30 4542 H 444.442 -3.80994 1.36477 0
M  V30 4543 H 443.012 -3.06677 0.605632 0
M  V30 4544 H 442.232 -2.52083 3.03064 0
M  V30 4545 H 443.52 -3.59929 3.59623 0
M  V30 4546 H 442.918 -5.552 1.08489 0
M  V30 4547 H 441.475 -6.31218 1.62504 0
M  V30 4548 N 444.908 -1.36708 -0.784132 0
M  V30 4549 C 446.156 -1.30972 -1.53918 0
M  V30 4550 C 446.477 0.109086 -1.94695 0
M  V30 4551 O 445.747 1.05048 -1.65353 0
M  V30 4552 H 444.327 -0.481819 -0.570841 0
M  V30 4553 H 446.989 -1.71063 -0.934002 0
M  V30 4554 H 446.085 -1.94061 -2.44431 0
M  V30 4555 N 446.386 1.0089 -1.21074 0
M  V30 4556 C 447.333 2.09588 -0.966512 0
M  V30 4557 C 448.303 1.65761 0.106089 0
M  V30 4558 O 449.488 1.90758 -0.0402287 0
M  V30 4559 C 446.628 3.40958 -0.533058 0
M  V30 4560 C 445.741 3.9822 -1.67467 0
M  V30 4561 C 444.876 5.17682 -1.19076 0
M  V30 4562 C 443.915 5.67043 -2.30496 0
M  V30 4563 N 443.052 6.77759 -1.83267 0
M  V30 4564 H 447.892 2.29815 -1.89708 0
M  V30 4565 H 445.429 1.12689 -0.945489 0
M  V30 4566 H 447.387 4.1637 -0.263019 0
M  V30 4567 H 446.017 3.20781 0.360505 0
M  V30 4568 H 445.069 3.1983 -2.05944 0
M  V30 4569 H 446.381 4.3085 -2.51336 0
M  V30 4570 H 445.535 6.00326 -0.877151 0
M  V30 4571 H 444.274 4.86635 -0.322066 0
M  V30 4572 H 443.279 4.82999 -2.62664 0
M  V30 4573 H 444.504 6.00121 -3.17855 0
M  V30 4574 H 442.45 6.48527 -0.987356 0
M  V30 4575 H 442.367 7.09624 -2.60711 0
M  V30 4576 H 443.635 7.63949 -1.54928 0
M  V30 4577 N 447.864 1.01787 1.20321 0
M  V30 4578 C 448.774 0.598898 2.26827 0
M  V30 4579 C 449.79 -0.36418 1.70146 0
M  V30 4580 O 450.966 -0.224812 2.00141 0
M  V30 4581 C 448.031 -0.0549769 3.46656 0
M  V30 4582 C 447.092 0.954205 4.18561 0
M  V30 4583 C 446.325 0.331439 5.3267 0
M  V30 4584 O 446.548 -0.86851 5.63749 0
M  V30 4585 O 445.482 1.0488 5.92692 0
M  V30 4586 H 449.308 1.48562 2.64883 0
M  V30 4587 H 446.893 0.787434 1.26964 0
M  V30 4588 H 448.775 -0.420102 4.19301 0
M  V30 4589 H 447.45 -0.915876 3.10473 0
M  V30 4590 H 446.357 1.37072 3.48083 0
M  V30 4591 H 447.69 1.78511 4.58688 0
M  V30 4592 N 449.342 -1.36122 0.79427 0
M  V30 4593 C 450.29 -2.31871 0.184023 0
M  V30 4594 C 451.284 -1.56041 -0.659365 0
M  V30 4595 O 452.49 -1.71266 -0.553906 0
M  V30 4596 H 448.865 -0.750896 0.0407373 0
M  V30 4597 H 450.836 -2.80898 1.00693 0
M  V30 4598 C 449.585 -3.41324 -0.662813 0
M  V30 4599 H 448.908 -3.99793 -0.0231944 0
M  V30 4600 H 450.348 -4.10629 -1.05639 0
M  V30 4601 C 448.807 -2.83308 -1.82313 0
M  V30 4602 O 449.337 -2.75863 -2.91997 0
M  V30 4603 N 447.543 -2.40529 -1.63077 0
M  V30 4604 H 447.09 -2.46785 -0.738591 0
M  V30 4605 H 447.048 -2.02059 -2.40872 0
M  V30 4606 N 450.82 -0.546701 -1.47814 0
M  V30 4607 C 451.783 0.196287 -2.28358 0
M  V30 4608 C 452.783 0.852437 -1.36346 0
M  V30 4609 O 453.973 0.709913 -1.59078 0
M  V30 4610 C 451.105 1.28579 -3.15722 0
M  V30 4611 H 452.298 -0.511086 -2.95513 0
M  V30 4612 H 449.851 -0.303248 -1.5333 0
M  V30 4613 H 450.586 2.0259 -2.53235 0
M  V30 4614 H 450.371 0.820229 -3.83425 0
M  V30 4615 H 451.861 1.80793 -3.76435 0
M  V30 4616 N 452.299 1.55045 -0.282633 0
M  V30 4617 C 453.715 1.59441 0.0712997 0
M  V30 4618 C 453.915 1.2998 1.53972 0
M  V30 4619 O 452.971 1.06431 2.28973 0
M  V30 4620 C 454.284 2.99097 -0.310104 0
M  V30 4621 C 455.832 3.1194 -0.257343 0
M  V30 4622 C 456.307 4.53875 -0.613297 0
M  V30 4623 N 457.798 4.5974 -0.565134 0
M  V30 4624 C 458.533 5.67603 -0.81326 0
M  V30 4625 N 458.029 6.83582 -1.1264 0
M  V30 4626 N 459.822 5.57187 -0.741553 0
M  V30 4627 H 451.973 1.72458 -1.23984 0
M  V30 4628 H 454.236 0.804549 -0.501403 0
M  V30 4629 H 453.942 3.25516 -1.33163 0
M  V30 4630 H 453.816 3.75616 0.345366 0
M  V30 4631 H 456.203 2.85281 0.754905 0
M  V30 4632 H 456.284 2.37618 -0.947178 0
M  V30 4633 H 455.928 4.81261 -1.62327 0
M  V30 4634 H 455.858 5.26508 0.09841 0
M  V30 4635 H 458.349 3.76427 -0.333294 0
M  V30 4636 H 458.662 7.6175 -1.30219 0
M  V30 4637 H 457.007 6.85179 -1.16425 0
M  V30 4638 H 460.198 4.65457 -0.496705 0
M  V30 4639 H 460.371 6.41171 -0.938306 0
M  V30 4640 N 453.777 0.010035 1.57597 0
M  V30 4641 C 455.005 -0.683413 1.95287 0
M  V30 4642 C 455.42 -1.66747 0.885481 0
M  V30 4643 O 454.777 -1.82003 -0.134629 0
M  V30 4644 C 454.828 -1.40652 3.33015 0
M  V30 4645 O 454.549 -0.461916 4.35658 0
M  V30 4646 C 456.05 -2.19356 3.85225 0
M  V30 4647 H 453.27 -0.189708 0.643624 0
M  V30 4648 H 455.814 0.0641359 2.04399 0
M  V30 4649 H 453.969 -2.10562 3.2518 0
M  V30 4650 H 454.383 -0.973215 5.15392 0
M  V30 4651 H 455.857 -2.65433 4.83993 0
M  V30 4652 H 456.334 -3.02457 3.18459 0
M  V30 4653 H 456.94 -1.54442 3.96267 0
M  V30 4654 N 455.255 -1.55392 -0.262866 0
M  V30 4655 C 456.502 -1.76476 -0.993109 0
M  V30 4656 C 456.83 -0.571479 -1.85915 0
M  V30 4657 O 456.085 0.445733 -1.90556 0
M  V30 4658 C 456.384 -3.02889 -1.89718 0
M  V30 4659 C 456.05 -4.34974 -1.18781 0
M  V30 4660 C 454.712 -4.7087 -0.991699 0
M  V30 4661 C 457.064 -5.16695 -0.683798 0
M  V30 4662 C 454.392 -5.86036 -0.279024 0
M  V30 4663 C 456.744 -6.32598 0.0153327 0
M  V30 4664 C 455.408 -6.67127 0.223062 0
M  V30 4665 H 454.678 -0.64577 -0.363404 0
M  V30 4666 H 457.325 -1.89664 -0.264525 0
M  V30 4667 H 455.63 -2.84644 -2.6923 0
M  V30 4668 H 457.327 -3.16399 -2.46359 0
M  V30 4669 H 453.917 -4.06765 -1.35058 0
M  V30 4670 H 458.101 -4.8943 -0.8229 0
M  V30 4671 H 453.357 -6.11306 -0.107456 0
M  V30 4672 H 457.531 -6.95171 0.413584 0
M  V30 4673 H 455.158 -7.56216 0.777265 0
M  V30 4674 N 456.733 0.527833 -1.48498 0
M  V30 4675 C 457.663 1.64136 -1.66077 0
M  V30 4676 C 458.644 1.62286 -0.509625 0
M  V30 4677 O 459.829 1.79449 -0.742413 0
M  V30 4678 C 456.959 3.02717 -1.70234 0
M  V30 4679 C 455.913 3.19426 -2.8487 0
M  V30 4680 C 455.239 4.5909 -2.74118 0
M  V30 4681 C 456.539 3.01993 -4.26142 0
M  V30 4682 H 458.233 1.4968 -2.593 0
M  V30 4683 H 455.779 0.718654 -1.24785 0
M  V30 4684 H 457.732 3.80491 -1.8112 0
M  V30 4685 H 456.456 3.18201 -0.735911 0
M  V30 4686 H 455.115 2.4407 -2.73542 0
M  V30 4687 H 454.763 4.71413 -1.7544 0
M  V30 4688 H 454.463 4.71214 -3.51042 0
M  V30 4689 H 455.987 5.3896 -2.86974 0
M  V30 4690 H 457.401 3.69558 -4.38292 0
M  V30 4691 H 455.798 3.2561 -5.04082 0
M  V30 4692 H 456.868 1.98396 -4.42456 0
M  V30 4693 N 458.211 1.37122 0.776871 0
M  V30 4694 C 459.144 1.26835 1.89705 0
M  V30 4695 C 460.122 0.14992 1.61907 0
M  V30 4696 O 461.306 0.323242 1.85708 0
M  V30 4697 C 458.433 0.95986 3.24814 0
M  V30 4698 C 457.479 2.09447 3.7153 0
M  V30 4699 S 458.312 3.71368 3.85806 0
M  V30 4700 C 459.468 3.42659 5.23771 0
M  V30 4701 H 459.701 2.21647 1.98141 0
M  V30 4702 H 457.234 1.22685 0.937433 0
M  V30 4703 H 459.192 0.788696 4.02852 0
M  V30 4704 H 457.853 0.0293137 3.14086 0
M  V30 4705 H 457.046 1.8335 4.69467 0
M  V30 4706 H 456.648 2.2255 3.00578 0
M  V30 4707 H 458.94 2.9733 6.0877 0
M  V30 4708 H 459.883 4.39905 5.54878 0
M  V30 4709 H 460.291 2.77708 4.91466 0
M  V30 4710 N 459.689 -1.00246 1.21608 0
M  V30 4711 C 460.599 -2.12515 0.993709 0
M  V30 4712 C 461.615 -1.73913 -0.0549939 0
M  V30 4713 O 462.791 -2.00943 0.135619 0
M  V30 4714 C 459.856 -3.42083 0.563953 0
M  V30 4715 C 458.917 -3.94843 1.68516 0
M  V30 4716 C 458.15 -5.18226 1.27582 0
M  V30 4717 O 458.373 -5.70201 0.150506 0
M  V30 4718 O 457.307 -5.64497 2.0887 0
M  V30 4719 H 461.133 -2.34152 1.93407 0
M  V30 4720 H 458.718 -1.10891 1.00118 0
M  V30 4721 H 460.6 -4.20073 0.334194 0
M  V30 4722 H 459.275 -3.21828 -0.347665 0
M  V30 4723 H 458.182 -3.18068 1.96935 0
M  V30 4724 H 459.515 -4.19512 2.5743 0
M  V30 4725 N 461.167 -1.02423 -1.1978 0
M  V30 4726 C 462.115 -0.594474 -2.24875 0
M  V30 4727 C 463.109 0.370598 -1.65296 0
M  V30 4728 O 464.315 0.239684 -1.78397 0
M  V30 4729 H 460.69 -0.173961 -0.731602 0
M  V30 4730 H 462.661 -1.4916 -2.58445 0
M  V30 4731 C 461.41 0.0436512 -3.47673 0
M  V30 4732 H 460.733 -0.689963 -3.93801 0
M  V30 4733 H 462.173 0.307362 -4.22884 0
M  V30 4734 C 460.632 1.28881 -3.11274 0
M  V30 4735 O 461.162 2.38135 -3.23503 0
M  V30 4736 N 459.368 1.1758 -2.6575 0
M  V30 4737 H 458.915 0.286769 -2.55999 0
M  V30 4738 H 458.873 2.00988 -2.41767 0
M  V30 4739 N 462.645 1.35699 -0.801477 0
M  V30 4740 C 463.922 1.9324 -0.302937 0
M  V30 4741 C 464.302 1.73209 1.20672 0
M  V30 4742 O 463.65 1.09809 2.00385 0
M  V30 4743 C 463.86 3.41728 -0.708747 0
M  V30 4744 C 465.208 4.18868 -0.695328 0
M  V30 4745 O 466.232 3.5022 -0.649971 0
M  V30 4746 O 465.091 5.41342 -0.749081 0
M  V30 4747 H 462.185 0.82331 -0.0780367 0
M  V30 4748 H 464.731 1.44806 -0.884832 0
M  V30 4749 H 463.503 3.50015 -1.74944 0
M  V30 4750 H 463.126 3.97471 -0.101384 0
M  V30 4751 N 464.123 0.554532 1.47522 0
M  V30 4752 C 465.033 -0.197865 2.33764 0
M  V30 4753 C 466.049 -0.914576 1.48025 0
M  V30 4754 O 467.225 -0.884067 1.80959 0
M  V30 4755 C 464.29 -1.21628 3.24665 0
M  V30 4756 C 463.351 -0.507283 4.26292 0
M  V30 4757 C 462.584 -1.47718 5.1285 0
M  V30 4758 O 462.807 -2.7118 5.01814 0
M  V30 4759 O 461.741 -1.00313 5.93482 0
M  V30 4760 H 465.567 0.50949 2.99396 0
M  V30 4761 H 463.152 0.315176 1.46038 0
M  V30 4762 H 465.034 -1.80421 3.80823 0
M  V30 4763 H 463.709 -1.9056 2.61665 0
M  V30 4764 H 462.616 0.121778 3.73902 0
M  V30 4765 H 463.949 0.140544 4.91999 0
M  V30 4766 N 465.601 -1.54893 0.290851 0
M  V30 4767 C 466.847 -2.0023 -0.321867 0
M  V30 4768 C 467.18 -1.179 -1.54316 0
M  V30 4769 O 466.455 -0.25293 -1.92848 0
M  V30 4770 C 466.738 -3.53456 -0.688515 0
M  V30 4771 C 466.591 -4.46532 0.541209 0
M  V30 4772 C 467.91 -4.13057 -1.51895 0
M  V30 4773 H 465.029 -0.727891 -0.115515 0
M  V30 4774 H 467.671 -1.85722 0.400931 0
M  V30 4775 H 465.821 -3.6595 -1.30433 0
M  V30 4776 H 467.493 -4.4596 1.17973 0
M  V30 4777 H 465.736 -4.17545 1.17636 0
M  V30 4778 H 466.407 -5.51475 0.240675 0
M  V30 4779 H 468.883 -4.03937 -0.99872 0
M  V30 4780 H 467.759 -5.20448 -1.74429 0
M  V30 4781 H 468.02 -3.64284 -2.50498 0
M  V30 4782 N 467.08 -0.0183926 -1.57589 0
M  V30 4783 C 468.043 0.951986 -2.08494 0
M  V30 4784 C 469.043 1.26092 -0.997874 0
M  V30 4785 O 470.233 1.20304 -1.25987 0
M  V30 4786 C 467.365 2.27165 -2.54182 0
M  V30 4787 H 468.558 0.511307 -2.95509 0
M  V30 4788 H 466.111 0.229444 -1.54607 0
M  V30 4789 H 466.846 2.75884 -1.70465 0
M  V30 4790 H 466.631 2.06057 -3.33591 0
M  V30 4791 H 468.121 2.9674 -2.93828 0
M  V30 4792 N 468.558 1.5553 0.254621 0
M  V30 4793 C 469.506 1.9048 1.33492 0
M  V30 4794 C 470.5 0.78304 1.50216 0
M  V30 4795 O 471.706 0.967582 1.51782 0
M  V30 4796 H 468.081 0.604846 0.44684 0
M  V30 4797 H 470.052 2.80688 1.01275 0
M  V30 4798 C 468.801 2.20928 2.68489 0
M  V30 4799 H 468.124 3.06742 2.56417 0
M  V30 4800 H 469.564 2.49291 3.42972 0
M  V30 4801 C 468.023 1.023 3.20993 0
M  V30 4802 O 468.553 0.267027 4.00811 0
M  V30 4803 N 466.759 0.815714 2.78917 0
M  V30 4804 H 466.306 1.43217 2.14119 0
M  V30 4805 H 466.264 0.0236532 3.14391 0
M  V30 4806 N 470.036 -0.519951 1.48776 0
M  V30 4807 C 470.946 -1.65025 1.66745 0
M  V30 4808 C 471.962 -1.6508 0.549954 0
M  V30 4809 O 473.138 -1.83848 0.822295 0
M  V30 4810 C 470.203 -3.0146 1.71238 0
M  V30 4811 C 469.264 -3.12182 2.94688 0
M  V30 4812 C 468.497 -4.42109 2.98958 0
M  V30 4813 O 468.72 -5.29799 2.1135 0
M  V30 4814 O 467.654 -4.57406 3.91233 0
M  V30 4815 H 471.48 -1.52801 2.62461 0
M  V30 4816 H 469.065 -0.694157 1.32294 0
M  V30 4817 H 470.947 -3.82584 1.76657 0
M  V30 4818 H 469.622 -3.13988 0.786975 0
M  V30 4819 H 468.529 -2.30316 2.94797 0
M  V30 4820 H 469.862 -3.04574 3.86646 0
M  V30 4821 N 471.514 -1.37532 -0.769588 0
M  V30 4822 C 472.763 -1.32183 -1.5235 0
M  V30 4823 C 473.076 0.0906555 -1.9539 0
M  V30 4824 O 474.282 0.266628 -2.70188 0
M  V30 4825 C 472.738 -2.32029 -2.75119 0
M  V30 4826 C 472.346 -3.78816 -2.3917 0
M  V30 4827 C 474.09 -2.35694 -3.53056 0
M  V30 4828 C 471.997 -4.70388 -3.58453 0
M  V30 4829 H 470.927 -0.491275 -0.571984 0
M  V30 4830 H 473.578 -1.63004 -0.842739 0
M  V30 4831 H 471.96 -1.94229 -3.45096 0
M  V30 4832 H 473.134 -4.25466 -1.76962 0
M  V30 4833 H 471.449 -3.78117 -1.74402 0
M  V30 4834 H 474.046 -3.01312 -4.41718 0
M  V30 4835 H 474.389 -1.37117 -3.93071 0
M  V30 4836 H 474.922 -2.72212 -2.90078 0
M  V30 4837 H 471.661 -5.70102 -3.23518 0
M  V30 4838 H 471.181 -4.28442 -4.19758 0
M  V30 4839 H 472.86 -4.87628 -4.25239 0
M  V30 4840 N 472.992 0.995999 -1.22138 0
M  V30 4841 C 473.902 2.11985 -1.00496 0
M  V30 4842 C 474.918 1.7394 0.0457701 0
M  V30 4843 O 476.094 2.00868 -0.146273 0
M  V30 4844 C 473.159 3.41779 -0.582086 0
M  V30 4845 C 472.22 3.93943 -1.70608 0
M  V30 4846 C 471.453 5.17542 -1.30328 0
M  V30 4847 O 471.676 5.70114 -0.180743 0
M  V30 4848 O 470.61 5.63382 -2.11861 0
M  V30 4849 H 474.436 2.33123 -1.94647 0
M  V30 4850 H 472.021 1.10358 -1.00705 0
M  V30 4851 H 473.903 4.1989 -0.356467 0
M  V30 4852 H 472.578 3.22007 0.330592 0
M  V30 4853 H 471.485 3.17019 -1.98619 0
M  V30 4854 H 472.818 4.18141 -2.59651 0
M  V30 4855 N 474.47 1.03057 1.19235 0
M  V30 4856 C 475.417 0.612832 2.22515 0
M  V30 4857 C 476.387 -0.374224 1.61829 0
M  V30 4858 O 477.572 -0.270501 1.88873 0
M  V30 4859 C 474.712 -0.028475 3.45088 0
M  V30 4860 C 473.825 1.00483 4.20151 0
M  V30 4861 C 472.96 0.333102 5.30155 0
M  V30 4862 C 471.999 1.3522 5.96977 0
M  V30 4863 N 471.136 0.70616 6.9854 0
M  V30 4864 H 475.976 1.49812 2.57605 0
M  V30 4865 H 473.513 0.749658 1.26564 0
M  V30 4866 H 475.471 -0.417548 4.15105 0
M  V30 4867 H 474.101 -0.877334 3.10649 0
M  V30 4868 H 473.153 1.51194 3.49062 0
M  V30 4869 H 474.465 1.77929 4.65986 0
M  V30 4870 H 473.619 -0.110725 6.06599 0
M  V30 4871 H 472.358 -0.473547 4.85396 0
M  V30 4872 H 471.363 1.80627 5.19282 0
M  V30 4873 H 472.588 2.16037 6.4382 0
M  V30 4874 H 470.534 -0.0803667 6.55951 0
M  V30 4875 H 470.451 1.41848 7.42573 0
M  V30 4876 H 471.719 0.286391 7.78974 0
M  V30 4877 N 475.948 -1.35272 0.808662 0
M  V30 4878 C 476.895 -2.29764 0.218482 0
M  V30 4879 C 477.865 -1.52911 -0.648652 0
M  V30 4880 O 479.05 -1.81341 -0.593297 0
M  V30 4881 C 476.19 -3.39388 -0.625282 0
M  V30 4882 C 475.303 -4.31202 0.262516 0
M  V30 4883 C 474.438 -5.27919 -0.589451 0
M  V30 4884 C 473.477 -6.11371 0.298617 0
M  V30 4885 N 472.614 -7.0022 -0.513443 0
M  V30 4886 H 477.454 -2.79645 1.02968 0
M  V30 4887 H 474.991 -1.37629 0.519303 0
M  V30 4888 H 476.949 -4.01615 -1.12966 0
M  V30 4889 H 475.579 -2.90777 -1.40173 0
M  V30 4890 H 474.631 -3.69962 0.885013 0
M  V30 4891 H 475.943 -4.89748 0.945971 0
M  V30 4892 H 475.097 -5.95529 -1.15888 0
M  V30 4893 H 473.836 -4.69875 -1.30647 0
M  V30 4894 H 472.841 -5.42707 0.880301 0
M  V30 4895 H 474.066 -6.71494 1.01352 0
M  V30 4896 H 472.012 -6.44662 -1.21439 0
M  V30 4897 H 471.929 -7.55917 0.111922 0
M  V30 4898 H 473.197 -7.72175 -1.06608 0
M  V30 4899 N 477.426 -0.562348 -1.47226 0
M  V30 4900 C 478.675 -0.038041 -2.01664 0
M  V30 4901 C 478.988 1.32199 -1.44162 0
M  V30 4902 O 480.194 1.9365 -1.90294 0
M  V30 4903 C 478.65 -0.0174958 -3.59896 0
M  V30 4904 C 478.258 -1.3746 -4.2639 0
M  V30 4905 C 480.002 0.453934 -4.22066 0
M  V30 4906 C 477.909 -1.31289 -5.76643 0
M  V30 4907 H 476.839 -0.0104511 -0.753928 0
M  V30 4908 H 479.49 -0.710966 -1.69167 0
M  V30 4909 H 477.872 0.721182 -3.89378 0
M  V30 4910 H 479.046 -2.1314 -4.08544 0
M  V30 4911 H 477.361 -1.78438 -3.7623 0
M  V30 4912 H 479.958 0.518584 -5.32179 0
M  V30 4913 H 480.301 1.46706 -3.89594 0
M  V30 4914 H 480.834 -0.230044 -3.97134 0
M  V30 4915 H 477.573 -2.30217 -6.13743 0
M  V30 4916 H 477.093 -0.597973 -5.96812 0
M  V30 4917 H 478.772 -1.01713 -6.38955 0
M  V30 4918 N 478.904 1.54736 -0.299062 0
M  V30 4919 C 479.851 2.23448 0.577899 0
M  V30 4920 C 480.821 1.21637 1.13109 0
M  V30 4921 O 482.006 1.50252 1.17597 0
M  V30 4922 C 479.146 2.9774 1.74484 0
M  V30 4923 C 478.259 4.1432 1.22323 0
M  V30 4924 C 477.394 4.76199 2.35388 0
M  V30 4925 C 476.433 5.84927 1.80351 0
M  V30 4926 N 475.57 6.4077 2.86982 0
M  V30 4927 H 480.41 2.97996 -0.0146545 0
M  V30 4928 H 477.947 1.47088 -0.0190013 0
M  V30 4929 H 479.905 3.39045 2.43114 0
M  V30 4930 H 478.535 2.25572 2.30905 0
M  V30 4931 H 477.587 3.7797 0.429249 0
M  V30 4932 H 478.899 4.92659 0.780309 0
M  V30 4933 H 478.053 5.20346 3.11969 0
M  V30 4934 H 476.792 3.97188 2.83006 0
M  V30 4935 H 475.797 5.40207 1.02259 0
M  V30 4936 H 477.022 6.65821 1.3364 0
M  V30 4937 H 474.968 5.64643 3.33938 0
M  V30 4938 H 474.885 7.1445 2.4718 0
M  V30 4939 H 476.153 6.89574 3.63466 0
M  V30 4940 N 480.382 0.0267497 1.57577 0
M  V30 4941 C 481.292 -0.971633 2.13533 0
M  V30 4942 C 482.308 -1.35868 1.08701 0
M  V30 4943 O 483.484 -1.44058 1.40746 0
M  V30 4944 C 480.549 -2.23622 2.64941 0
M  V30 4945 C 479.61 -1.90982 3.8448 0
M  V30 4946 C 478.843 -3.11411 4.33427 0
M  V30 4947 O 479.066 -4.23992 3.81558 0
M  V30 4948 O 478 -2.93848 5.25297 0
M  V30 4949 H 481.826 -0.525853 2.99113 0
M  V30 4950 H 479.411 -0.193712 1.48139 0
M  V30 4951 H 481.293 -2.97864 2.98086 0
M  V30 4952 H 479.968 -2.67386 1.82446 0
M  V30 4953 H 478.875 -1.14132 3.56265 0
M  V30 4954 H 480.208 -1.52036 4.6813 0
M  V30 4955 N 481.861 -1.55662 -0.24637 0
M  V30 4956 C 482.808 -1.90361 -1.30504 0
M  V30 4957 C 483.778 -0.757905 -1.47801 0
M  V30 4958 O 484.963 -1.01161 -1.61775 0
M  V30 4959 C 482.103 -2.2042 -2.65535 0
M  V30 4960 C 481.216 -3.47799 -2.56242 0
M  V30 4961 C 480.351 -3.67426 -3.8363 0
M  V30 4962 C 479.39 -4.88403 -3.68956 0
M  V30 4963 N 478.527 -5.04548 -4.88237 0
M  V30 4964 H 483.367 -2.80645 -1.00213 0
M  V30 4965 H 480.904 -1.38924 -0.483577 0
M  V30 4966 H 482.862 -2.35853 -3.44135 0
M  V30 4967 H 481.492 -1.3334 -2.93973 0
M  V30 4968 H 480.544 -3.40694 -1.69208 0
M  V30 4969 H 481.856 -4.36544 -2.4131 0
M  V30 4970 H 481.01 -3.82821 -4.70673 0
M  V30 4971 H 479.749 -2.76914 -4.01459 0
M  V30 4972 H 478.754 -4.72984 -2.80296 0
M  V30 4973 H 479.979 -5.80375 -3.52621 0
M  V30 4974 H 477.925 -4.16974 -5.06427 0
M  V30 4975 H 477.842 -5.87384 -4.75937 0
M  V30 4976 H 479.11 -5.24355 -5.76777 0
M  V30 4977 N 483.339 0.512053 -1.4905 0
M  V30 4978 C 484.269 1.62365 -1.67809 0
M  V30 4979 C 485.25 1.61737 -0.526809 0
M  V30 4980 O 486.435 1.78651 -0.761404 0
M  V30 4981 C 483.565 3.00895 -1.73435 0
M  V30 4982 C 482.519 3.16387 -2.88242 0
M  V30 4983 C 481.845 4.56157 -2.78971 0
M  V30 4984 C 483.145 2.97457 -4.29321 0
M  V30 4985 H 484.839 1.46921 -2.60873 0
M  V30 4986 H 482.385 0.705379 -1.2554 0
M  V30 4987 H 484.338 3.78549 -1.85145 0
M  V30 4988 H 483.062 3.17403 -0.769619 0
M  V30 4989 H 481.721 2.41155 -2.76116 0
M  V30 4990 H 481.369 4.69525 -1.8043 0
M  V30 4991 H 481.069 4.67465 -3.5602 0
M  V30 4992 H 482.593 5.35886 -2.92675 0
M  V30 4993 H 484.007 3.64888 -4.42187 0
M  V30 4994 H 482.404 3.20245 -5.07507 0
M  V30 4995 H 483.474 1.93692 -4.44535 0
M  V30 4996 N 484.817 1.37938 0.762283 0
M  V30 4997 C 486.065 1.33404 1.51815 0
M  V30 4998 C 486.386 -0.0780975 1.94844 0
M  V30 4999 O 485.656 -1.02405 1.67003 0
M  V30 5000 H 484.236 0.490839 0.563104 0
M  V30 5001 H 486.898 1.72527 0.906669 0
M  V30 5002 H 485.994 1.97926 2.41313 0
M  V30 5003 N 486.295 -0.989507 1.22664 0
M  V30 5004 C 487.544 -1.72375 1.04737 0
M  V30 5005 C 487.857 -1.91096 -0.417316 0
M  V30 5006 O 489.063 -2.6188 -0.716334 0
M  V30 5007 C 487.519 -3.10161 1.82561 0
M  V30 5008 C 487.127 -2.99358 3.333 0
M  V30 5009 C 488.871 -3.87607 1.73093 0
M  V30 5010 C 486.778 -4.32319 4.03552 0
M  V30 5011 H 485.708 -0.646326 0.388302 0
M  V30 5012 H 488.359 -1.10437 1.46546 0
M  V30 5013 H 486.741 -3.728 1.33552 0
M  V30 5014 H 487.915 -2.45863 3.89728 0
M  V30 5015 H 486.23 -2.35392 3.43481 0
M  V30 5016 H 488.827 -4.86025 2.22899 0
M  V30 5017 H 489.17 -4.10509 0.691976 0
M  V30 5018 H 489.703 -3.31652 2.19663 0
M  V30 5019 H 486.442 -4.14616 5.07714 0
M  V30 5020 H 485.962 -4.85714 3.51911 0
M  V30 5021 H 487.641 -5.01051 4.09337 0
M  V30 5022 N 487.773 -1.03688 -1.18687 0
M  V30 5023 C 489.021 -0.736572 -1.88199 0
M  V30 5024 C 489.342 0.737665 -1.80509 0
M  V30 5025 O 488.612 1.53204 -1.22088 0
M  V30 5026 H 487.192 -0.269466 -0.696704 0
M  V30 5027 H 489.854 -1.31282 -1.44052 0
M  V30 5028 H 488.95 -1.03802 -2.94332 0
M  V30 5029 N 489.251 1.34841 -0.815825 0
M  V30 5030 C 490.214 2.27959 -0.238185 0
M  V30 5031 C 491.214 1.49983 0.579816 0
M  V30 5032 O 492.404 1.69617 0.396953 0
M  V30 5033 C 489.536 3.34314 0.666876 0
M  V30 5034 H 490.729 2.80558 -1.05958 0
M  V30 5035 H 488.282 1.44852 -0.587156 0
M  V30 5036 H 489.017 2.86916 1.5116 0
M  V30 5037 H 488.802 3.92014 0.0819106 0
M  V30 5038 H 490.292 4.0379 1.06506 0
M  V30 5039 N 490.729 0.570148 1.46925 0
M  V30 5040 C 491.975 0.0510284 2.02736 0
M  V30 5041 C 492.308 -1.3006 1.44215 0
M  V30 5042 O 491.583 -1.84932 0.602521 0
M  V30 5043 C 491.866 -0.028215 3.60089 0
M  V30 5044 C 491.719 1.35142 4.29018 0
M  V30 5045 C 493.038 -0.735181 4.33916 0
M  V30 5046 H 490.157 0.0200178 0.736728 0
M  V30 5047 H 492.799 0.73493 1.75211 0
M  V30 5048 H 490.949 -0.610648 3.83671 0
M  V30 5049 H 492.621 1.97806 4.16738 0
M  V30 5050 H 490.864 1.9226 3.88868 0
M  V30 5051 H 491.535 1.24857 5.37694 0
M  V30 5052 H 494.011 -0.240519 4.15404 0
M  V30 5053 H 492.887 -0.759622 5.43618 0
M  V30 5054 H 493.148 -1.79397 4.04066 0
M  V30 5055 N 492.207 -1.54576 0.307264 0
M  V30 5056 C 493.453 -2.0056 -0.300612 0
M  V30 5057 C 493.786 -1.1953 -1.53057 0
M  V30 5058 O 493.061 -0.27337 -1.92569 0
M  V30 5059 C 493.344 -3.54167 -0.650987 0
M  V30 5060 C 493.197 -4.45933 0.588539 0
M  V30 5061 C 494.516 -4.14645 -1.47506 0
M  V30 5062 H 491.635 -0.729075 -0.107788 0
M  V30 5063 H 494.277 -1.85286 0.420606 0
M  V30 5064 H 492.427 -3.67313 -1.26544 0
M  V30 5065 H 494.099 -4.44683 1.22697 0
M  V30 5066 H 492.342 -4.16274 1.22058 0
M  V30 5067 H 493.013 -5.51189 0.299153 0
M  V30 5068 H 495.489 -4.04973 -0.955821 0
M  V30 5069 H 494.365 -5.22269 -1.68899 0
M  V30 5070 H 494.626 -3.66921 -2.4662 0
M  V30 5071 N 493.685 -0.035106 -1.57561 0
M  V30 5072 C 494.913 0.652258 -1.9635 0
M  V30 5073 C 495.328 1.65317 -0.911897 0
M  V30 5074 O 494.685 1.82194 0.105657 0
M  V30 5075 C 494.736 1.35337 -3.35211 0
M  V30 5076 O 494.457 0.392548 -4.36338 0
M  V30 5077 C 495.958 2.13199 -3.88666 0
M  V30 5078 H 493.178 0.179444 -0.646561 0
M  V30 5079 H 495.722 -0.0966459 -2.04271 0
M  V30 5080 H 493.877 2.05362 -3.28489 0
M  V30 5081 H 494.291 0.891097 -5.16875 0
M  V30 5082 H 495.765 2.577 -4.88154 0
M  V30 5083 H 496.242 2.97353 -3.23231 0
M  V30 5084 H 496.848 1.48118 -3.98674 0
M  V30 5085 N 495.163 1.55791 0.238111 0
M  V30 5086 C 496.44 1.68798 0.98826 0
M  V30 5087 C 496.82 0.577562 2.03045 0
M  V30 5088 O 496.168 -0.41778 2.24648 0
M  V30 5089 C 496.378 3.09454 1.61367 0
M  V30 5090 C 497.726 3.68335 2.11221 0
M  V30 5091 O 498.75 3.1231 1.71292 0
M  V30 5092 O 497.609 4.6657 2.84561 0
M  V30 5093 H 494.703 0.686881 0.460568 0
M  V30 5094 H 497.249 1.68118 0.231202 0
M  V30 5095 H 496.021 3.81726 0.860295 0
M  V30 5096 H 495.644 3.14182 2.4367 0
M  V30 5097 N 496.642 -0.504142 1.49319 0
M  V30 5098 C 497.919 -1.26548 1.49147 0
M  V30 5099 C 498.299 -2.09977 0.21744 0
M  V30 5100 O 497.647 -2.14028 -0.800269 0
M  V30 5101 C 497.857 -2.12489 2.76857 0
M  V30 5102 C 499.205 -2.7178 3.26222 0
M  V30 5103 O 500.229 -2.22758 2.77952 0
M  V30 5104 O 499.088 -3.61015 4.10281 0
M  V30 5105 H 496.182 -0.572495 0.596806 0
M  V30 5106 H 498.728 -0.51867 1.61579 0
M  V30 5107 H 497.5 -1.50796 3.61077 0
M  V30 5108 H 497.123 -2.94368 2.6727 0
M  V30 5109 N 498.12 -1.38341 -0.754957 0
M  V30 5110 C 499.05 -1.38176 -1.88227 0
M  V30 5111 C 500.031 -0.247873 -1.68284 0
M  V30 5112 O 501.216 -0.45075 -1.88896 0
M  V30 5113 C 498.346 -1.20471 -3.25736 0
M  V30 5114 C 497.3 -2.3105 -3.60278 0
M  V30 5115 C 496.626 -1.98452 -4.96509 0
M  V30 5116 C 497.926 -3.73305 -3.65295 0
M  V30 5117 H 499.62 -2.32512 -1.88622 0
M  V30 5118 H 497.166 -1.1192 -0.906082 0
M  V30 5119 H 499.119 -1.18982 -4.04254 0
M  V30 5120 H 497.843 -0.225965 -3.25817 0
M  V30 5121 H 496.502 -2.31723 -2.84078 0
M  V30 5122 H 496.15 -0.990641 -4.93148 0
M  V30 5123 H 495.85 -2.7251 -5.20588 0
M  V30 5124 H 497.374 -1.98578 -5.77407 0
M  V30 5125 H 498.788 -3.7467 -4.3393 0
M  V30 5126 H 497.185 -4.46557 -4.00883 0
M  V30 5127 H 498.255 -4.05719 -2.65556 0
M  V30 5128 N 499.598 0.982988 -1.23187 0
M  V30 5129 C 500.823 1.76455 -1.08988 0
M  V30 5130 C 501.248 1.84726 0.354691 0
M  V30 5131 O 500.606 1.30699 1.25649 0
M  V30 5132 C 500.654 3.17094 -1.71708 0
M  V30 5133 O 499.758 4.00648 -0.977477 0
M  V30 5134 H 499.099 0.542988 -0.382177 0
M  V30 5135 H 501.629 1.23413 -1.63188 0
M  V30 5136 H 501.639 3.67684 -1.76841 0
M  V30 5137 H 500.314 3.10389 -2.76823 0
M  V30 5138 H 498.891 3.59161 -1.0029 0
M  V30 5139 N 501.076 1.04316 1.18135 0
M  V30 5140 C 502.353 0.662166 1.84051 0
M  V30 5141 C 502.733 -0.858169 1.9287 0
M  V30 5142 O 502.081 -1.76062 1.45652 0
M  V30 5143 C 502.291 1.3409 3.22212 0
M  V30 5144 C 503.639 1.4733 3.9822 0
M  V30 5145 O 504.663 1.29921 3.31661 0
M  V30 5146 O 503.522 1.75722 5.17479 0
M  V30 5147 H 500.616 0.232005 0.79379 0
M  V30 5148 H 503.162 1.1422 1.25506 0
M  V30 5149 H 501.934 2.37853 3.10711 0
M  V30 5150 H 501.557 0.849649 3.88416 0
M  V30 5151 N 502.554 -1.34406 0.822964 0
M  V30 5152 C 503.831 -1.92733 0.333641 0
M  V30 5153 C 504.211 -1.75107 -1.17901 0
M  V30 5154 O 503.559 -1.12983 -1.98613 0
M  V30 5155 C 503.769 -3.40557 0.763023 0
M  V30 5156 C 505.117 -4.17709 0.761879 0
M  V30 5157 O 506.141 -3.49141 0.705606 0
M  V30 5158 O 505 -5.40082 0.835109 0
M  V30 5159 H 502.094 -0.821964 0.0911249 0
M  V30 5160 H 504.64 -1.4338 0.907757 0
M  V30 5161 H 503.412 -3.47187 1.8049 0
M  V30 5162 H 503.035 -3.97259 0.164605 0
M  V30 5163 N 504.032 -0.577932 -1.46621 0
M  V30 5164 C 505.28 -0.061566 -2.02006 0
M  V30 5165 C 505.601 1.30117 -1.4524 0
M  V30 5166 O 504.871 1.85313 -0.63529 0
M  V30 5167 H 503.451 -0.0197692 -0.746738 0
M  V30 5168 H 506.113 -0.752631 -1.79782 0
M  V30 5169 H 505.209 0.0110238 -3.12098 0
M  V30 5170 N 505.51 1.54411 -0.315457 0
M  V30 5171 C 506.756 2.00716 0.289972 0
M  V30 5172 C 507.089 1.2034 1.5242 0
M  V30 5173 O 506.364 0.283579 1.92422 0
M  V30 5174 C 506.647 3.54507 0.632196 0
M  V30 5175 C 506.5 4.45615 -0.61218 0
M  V30 5176 C 507.819 4.15421 1.45305 0
M  V30 5177 H 504.938 0.729637 0.10392 0
M  V30 5178 H 507.58 1.8506 -0.430427 0
M  V30 5179 H 505.73 3.67979 1.24595 0
M  V30 5180 H 507.402 4.44026 -1.25053 0
M  V30 5181 H 505.645 4.15621 -1.24264 0
M  V30 5182 H 506.316 5.51022 -0.328379 0
M  V30 5183 H 508.792 4.05474 0.934331 0
M  V30 5184 H 507.668 5.23157 1.66127 0
M  V30 5185 H 507.929 3.68223 2.44671 0
M  V30 5186 N 506.988 0.0434614 1.5754 0
M  V30 5187 C 507.918 -0.931651 2.14109 0
M  V30 5188 C 508.899 -1.32971 1.06079 0
M  V30 5189 O 510.084 -1.40579 1.33982 0
M  V30 5190 C 507.214 -2.20914 2.67982 0
M  V30 5191 C 506.168 -1.95139 3.80926 0
M  V30 5192 C 505.494 -3.29276 4.21285 0
M  V30 5193 C 506.794 -1.27913 5.06395 0
M  V30 5194 H 508.488 -0.460497 2.95837 0
M  V30 5195 H 506.034 -0.220058 1.42309 0
M  V30 5196 H 507.987 -2.89522 3.06194 0
M  V30 5197 H 506.711 -2.70221 1.83434 0
M  V30 5198 H 505.37 -1.28945 3.43175 0
M  V30 5199 H 505.018 -3.76369 3.33699 0
M  V30 5200 H 504.718 -3.12831 4.97404 0
M  V30 5201 H 506.242 -3.99129 4.62091 0
M  V30 5202 H 507.656 -1.86544 5.42102 0
M  V30 5203 H 506.053 -1.2182 5.87605 0
M  V30 5204 H 507.123 -0.254066 4.84234 0
M  V30 5205 N 508.466 -1.55915 -0.229846 0
M  V30 5206 C 509.877 -1.68809 -0.797531 0
M  V30 5207 C 510.228 -0.643995 -1.8533 0
M  V30 5208 O 509.353 0.206492 -2.15413 0
M  V30 5209 C 509.948 -3.06043 -1.45338 0
M  V30 5210 C 508.507 -3.20819 -1.96856 0
M  V30 5211 C 507.654 -2.6472 -0.825736 0
M  V30 5212 H 510.605 -1.58699 -0.00533733 0
M  V30 5213 H 510.626 -3.01438 -2.32196 0
M  V30 5214 H 510.138 -3.82012 -0.684743 0
M  V30 5215 H 508.239 -2.49704 -2.76548 0
M  V30 5216 H 508.352 -4.27937 -2.15423 0
M  V30 5217 H 506.716 -2.22985 -1.23084 0
M  V30 5218 H 507.499 -3.43229 -0.0699019 0
M  V30 5219 N 509.944 0.496216 -1.49584 0
M  V30 5220 C 510.907 1.57952 -1.66084 0
M  V30 5221 C 511.907 1.51729 -0.53244 0
M  V30 5222 O 513.097 1.54796 -0.79899 0
M  V30 5223 C 510.229 2.97604 -1.66268 0
M  V30 5224 H 511.422 1.44649 -2.6271 0
M  V30 5225 H 508.975 0.7208 -1.38687 0
M  V30 5226 H 509.71 3.16378 -0.712432 0
M  V30 5227 H 509.495 3.03528 -2.4822 0
M  V30 5228 H 510.985 3.76301 -1.81073 0
M  V30 5229 N 511.423 1.38739 0.74761 0
M  V30 5230 C 512.834 1.31507 1.32524 0
M  V30 5231 C 513.185 -0.0263963 1.96182 0
M  V30 5232 O 512.31 -0.92849 1.95469 0
M  V30 5233 C 512.905 2.38162 2.40966 0
M  V30 5234 C 511.464 2.34489 2.94434 0
M  V30 5235 C 510.611 2.20712 1.67873 0
M  V30 5236 H 513.562 1.4901 0.546043 0
M  V30 5237 H 513.583 2.04222 3.21051 0
M  V30 5238 H 513.095 3.35783 1.94605 0
M  V30 5239 H 511.196 1.40467 3.45108 0
M  V30 5240 H 511.309 3.28861 3.48407 0
M  V30 5241 H 509.673 1.67667 1.91729 0
M  V30 5242 H 510.456 3.20285 1.23582 0
M  V30 5243 N 512.901 -0.976442 1.23707 0
M  V30 5244 C 514.147 -1.72081 1.07312 0
M  V30 5245 C 514.48 -1.90275 -0.388476 0
M  V30 5246 O 513.755 -1.4579 -1.28746 0
M  V30 5247 C 514.038 -3.11675 1.80363 0
M  V30 5248 C 513.891 -3.01027 3.3422 0
M  V30 5249 C 515.21 -4.1117 1.5693 0
M  V30 5250 H 512.329 -0.624583 0.391236 0
M  V30 5251 H 514.971 -1.13649 1.52263 0
M  V30 5252 H 513.121 -3.61559 1.42153 0
M  V30 5253 H 514.793 -2.58637 3.81975 0
M  V30 5254 H 513.036 -2.3744 3.63049 0
M  V30 5255 H 513.707 -3.9988 3.80525 0
M  V30 5256 H 516.183 -3.7011 1.90151 0
M  V30 5257 H 515.059 -5.06928 2.10513 0
M  V30 5258 H 515.32 -4.392 0.505548 0
M  V30 5259 N 514.379 -1.04941 -1.1758 0
M  V30 5260 C 515.656 -0.671918 -1.83697 0
M  V30 5261 C 516.036 0.847929 -1.93322 0
M  V30 5262 O 515.384 1.75287 -1.46583 0
M  V30 5263 C 515.594 -1.35797 -3.21497 0
M  V30 5264 C 516.942 -1.4944 -3.97433 0
M  V30 5265 O 517.966 -1.31678 -3.30967 0
M  V30 5266 O 516.825 -1.78463 -5.1654 0
M  V30 5267 H 513.919 -0.236212 -0.792548 0
M  V30 5268 H 516.465 -1.14884 -1.24899 0
M  V30 5269 H 515.237 -2.39498 -3.09446 0
M  V30 5270 H 514.86 -0.870236 -3.8796 0
M  V30 5271 N 515.857 1.33968 -0.830081 0
M  V30 5272 C 517.104 1.98063 -0.421566 0
M  V30 5273 C 517.432 1.65787 1.0171 0
M  V30 5274 O 516.687 0.925348 1.72441 0
M  V30 5275 C 516.986 3.52679 -0.57898 0
M  V30 5276 C 516.652 4.04884 -1.98443 0
M  V30 5277 C 515.314 4.18852 -2.36888 0
M  V30 5278 C 517.666 4.32879 -2.90285 0
M  V30 5279 C 514.994 4.58145 -3.66497 0
M  V30 5280 C 517.346 4.7362 -4.19364 0
M  V30 5281 C 516.01 4.85794 -4.57778 0
M  V30 5282 H 515.28 0.724765 -0.154262 0
M  V30 5283 H 517.927 1.59792 -1.05541 0
M  V30 5284 H 516.232 3.91556 0.138219 0
M  V30 5285 H 517.929 4.00261 -0.243317 0
M  V30 5286 H 514.519 3.9448 -1.67581 0
M  V30 5287 H 518.703 4.21619 -2.61823 0
M  V30 5288 H 513.959 4.65762 -3.96075 0
M  V30 5289 H 518.133 4.9424 -4.90612 0
M  V30 5290 H 515.76 5.15998 -5.58256 0
M  V30 5291 O 517.374 0.726383 1.44243 0
M  V30 5292 H 518.065 0.275111 1.91736 0
M  V30 END ATOM
M  V30 BEGIN BOND
M  V30 END BOND
M  V30 END CTAB
M  END
$$$$
