drugbank_target|Q88H32 Ornithine cyclodeaminase (DB03814)
 OpenBabel12092120233D

  0  0  0     0  0            999 V3000
M  V30 BEGIN CTAB
M  V30 COUNTS 5419 5471 0 0 0
M  V30 BEGIN ATOM
M  V30 1 H -0.908 1.98254 -0.117106 0
M  V30 2 N 0 1.576 0 0
M  V30 3 C 0.933 2.03868 1.02534 0
M  V30 4 C 1.911 0.928543 1.3348 0
M  V30 5 O 3.095 1.19667 1.45644 0
M  V30 6 C 0.222 2.43627 2.35294 0
M  V30 7 C -0.732 3.65373 2.2001 0
M  V30 8 S 0.101 5.13292 1.52614 0
M  V30 9 C 1.257 5.56322 2.86805 0
M  V30 10 H 1.49 2.90518 0.631377 0
M  V30 11 H -0.977 1.52953 0.210867 0
M  V30 12 H 0.981 2.67203 3.11629 0
M  V30 13 H -0.358 1.57376 2.7183 0
M  V30 14 H -1.165 3.90944 3.18086 0
M  V30 15 H -1.563 3.418 1.51819 0
M  V30 16 H 0.729 5.58782 3.83104 0
M  V30 17 H 1.672 6.56266 2.65933 0
M  V30 18 H 2.08 4.83886 2.90714 0
M  V30 19 N 1.4781 -0.272755 1.55222 0
M  V30 20 C 2.7061 -1.02255 1.79865 0
M  V30 21 C 3.1211 -1.79924 0.572088 0
M  V30 22 O 2.4781 -1.76638 -0.458842 0
M  V30 23 C 2.5291 -1.98094 3.02392 0
M  V30 24 O 2.2501 -1.23572 4.20311 0
M  V30 25 C 3.7511 -2.84884 3.39641 0
M  V30 26 H 0.9711 -0.302057 0.599168 0
M  V30 27 H 3.5151 -0.303465 2.02236 0
M  V30 28 H 1.6701 -2.65465 2.82147 0
M  V30 29 H 2.0841 -1.88172 4.89583 0
M  V30 30 H 3.5581 -3.47927 4.28545 0
M  V30 31 H 4.0351 -3.54665 2.59055 0
M  V30 32 H 4.6411 -2.23003 3.62146 0
M  V30 33 N 2.9562 -1.48159 -0.537278 0
M  V30 34 C 4.1862 -1.59223 -1.3165 0
M  V30 35 C 4.5942 -0.248849 -1.87556 0
M  V30 36 O 3.9372 0.770949 -1.6674 0
M  V30 37 C 3.9992 -2.57365 -2.51005 0
M  V30 38 C 3.6632 -4.02603 -2.16239 0
M  V30 39 C 4.6602 -4.90503 -1.72344 0
M  V30 40 C 2.3452 -4.48088 -2.26986 0
M  V30 41 C 4.3392 -6.21913 -1.39651 0
M  V30 42 C 2.0262 -5.7952 -1.93906 0
M  V30 43 C 3.0242 -6.66255 -1.50309 0
M  V30 44 O 2.7122 -7.95243 -1.17659 0
M  V30 45 H 2.4442 -0.539831 -0.406889 0
M  V30 46 H 4.9982 -1.94655 -0.655641 0
M  V30 47 H 3.2282 -2.1704 -3.20048 0
M  V30 48 H 4.9172 -2.58342 -3.13072 0
M  V30 49 H 5.6832 -4.56604 -1.63517 0
M  V30 50 H 1.5622 -3.80769 -2.59877 0
M  V30 51 H 5.1062 -6.89569 -1.0555 0
M  V30 52 H 1.0032 -6.12957 -2.02371 0
M  V30 53 H 1.7712 -8.0793 -1.31119 0
M  V30 54 N 4.4343 0.785586 -1.36625 0
M  V30 55 C 5.6813 1.54362 -1.31067 0
M  V30 56 C 6.0093 1.94195 0.10893 0
M  V30 57 O 5.2643 1.63262 1.07908 0
M  V30 58 C 5.5633 2.83007 -2.1827 0
M  V30 59 C 5.2293 2.62294 -3.6676 0
M  V30 60 C 3.8913 2.56353 -4.0723 0
M  V30 61 C 6.2433 2.43371 -4.6089 0
M  V30 62 C 3.5713 2.29461 -5.39967 0
M  V30 63 C 5.9233 2.18005 -5.93849 0
M  V30 64 C 4.5873 2.105 -6.3344 0
M  V30 65 H 3.8573 0.564851 -0.479609 0
M  V30 66 H 6.5043 0.906028 -1.68711 0
M  V30 67 H 4.8093 3.51253 -1.73576 0
M  V30 68 H 6.5063 3.40817 -2.11292 0
M  V30 69 H 3.0963 2.67774 -3.34656 0
M  V30 70 H 7.2803 2.46959 -4.30494 0
M  V30 71 H 2.5363 2.22135 -5.69619 0
M  V30 72 H 6.7103 2.02359 -6.66351 0
M  V30 73 H 4.3373 1.89425 -7.36222 0
M  V30 74 N 5.9124 1.20967 1.01018 0
M  V30 75 C 7.1614 1.01796 1.74128 0
M  V30 76 C 7.4744 -0.449691 1.90361 0
M  V30 77 O 8.6804 -0.76068 2.60626 0
M  V30 78 C 7.1364 1.7727 3.13215 0
M  V30 79 C 6.7444 3.28171 3.04972 0
M  V30 80 C 8.4884 1.66489 3.90489 0
M  V30 81 C 6.3954 3.96156 4.39107 0
M  V30 82 H 5.3254 0.377276 0.652824 0
M  V30 83 H 7.9764 1.44651 1.12909 0
M  V30 84 H 6.3584 1.27205 3.75013 0
M  V30 85 H 7.5324 3.85499 2.52443 0
M  V30 86 H 5.8474 3.39437 2.41188 0
M  V30 87 H 8.4444 2.14617 4.89738 0
M  V30 88 H 8.7874 0.6222 4.11624 0
M  V30 89 H 9.3204 2.14003 3.35332 0
M  V30 90 H 6.0594 5.00604 4.23174 0
M  V30 91 H 5.5794 3.43617 4.91617 0
M  V30 92 H 7.2584 4.00774 5.07926 0
M  V30 93 N 7.3905 -1.2043 1.01659 0
M  V30 94 C 8.6675 -1.8548 0.621004 0
M  V30 95 C 9.0475 -1.9091 -0.900919 0
M  V30 96 O 8.3955 -1.41694 -1.79263 0
M  V30 97 C 8.6055 -3.25119 1.2688 0
M  V30 98 C 9.9535 -4.01403 1.38423 0
M  V30 99 O 10.9775 -3.34473 1.22501 0
M  V30 100 O 9.8365 -5.21265 1.64151 0
M  V30 101 H 6.9305 -0.798761 0.214266 0
M  V30 102 H 9.4765 -1.28019 1.11396 0
M  V30 103 H 8.2485 -3.15932 2.30873 0
M  V30 104 H 7.8715 -3.90212 0.762917 0
M  V30 105 N 8.8686 -0.792821 -1.36206 0
M  V30 106 C 10.1146 -0.36733 -1.99446 0
M  V30 107 C 10.4476 1.05917 -1.62774 0
M  V30 108 O 9.7226 1.7324 -0.88421 0
M  V30 109 C 10.0056 -0.535044 -3.56103 0
M  V30 110 C 9.8586 -2.00548 -4.02617 0
M  V30 111 C 11.1776 0.0478191 -4.40074 0
M  V30 112 H 8.2966 -0.134941 -0.724541 0
M  V30 113 H 10.9386 -0.999794 -1.61568 0
M  V30 114 H 9.0886 0.00336329 -3.885 0
M  V30 115 H 10.7606 -2.60521 -3.80692 0
M  V30 116 H 9.0036 -2.50686 -3.54032 0
M  V30 117 H 9.6746 -2.07377 -5.11565 0
M  V30 118 H 12.1506 -0.411822 -4.14057 0
M  V30 119 H 11.0266 -0.0995336 -5.4881 0
M  V30 120 H 11.2876 1.14025 -4.27142 0
M  V30 121 N 10.3467 1.47872 -0.545128 0
M  V30 122 C 11.7577 1.86384 -0.108581 0
M  V30 123 C 12.1087 1.45309 1.31832 0
M  V30 124 O 11.2337 0.850641 1.9898 0
M  V30 125 C 11.8287 3.38265 -0.190274 0
M  V30 126 C 10.3877 3.75914 0.191164 0
M  V30 127 C 9.5347 2.71926 -0.543273 0
M  V30 128 H 12.4857 1.39561 -0.755537 0
M  V30 129 H 12.5067 3.75831 0.594217 0
M  V30 130 H 12.0187 3.6813 -1.2289 0
M  V30 131 H 10.1197 3.51665 1.23136 0
M  V30 132 H 10.2327 4.78836 -0.158987 0
M  V30 133 H 8.5967 2.54697 0.0122495 0
M  V30 134 H 9.3797 3.04634 -1.58282 0
M  V30 135 N 11.8248 0.280983 1.55075 0
M  V30 136 C 13.0528 -0.337293 2.04132 0
M  V30 137 C 13.4678 -1.4903 1.15912 0
M  V30 138 O 12.8248 -1.81606 0.180459 0
M  V30 139 C 12.8758 -0.812706 3.52246 0
M  V30 140 O 12.5968 0.294387 4.3711 0
M  V30 141 C 14.0978 -1.4982 4.17216 0
M  V30 142 H 11.3178 -0.0761638 0.666663 0
M  V30 143 H 13.8618 0.414787 2.00249 0
M  V30 144 H 12.0168 -1.51486 3.56554 0
M  V30 145 H 12.4308 -0.0721325 5.2445 0
M  V30 146 H 13.9048 -1.7822 5.22438 0
M  V30 147 H 14.3818 -2.43168 3.65741 0
M  V30 148 H 14.9878 -0.839742 4.16927 0
M  V30 149 N 13.3029 -1.57598 0.00835791 0
M  V30 150 C 14.2359 -2.04409 -1.01451 0
M  V30 151 C 15.2139 -0.935609 -1.32985 0
M  V30 152 O 16.3979 -1.20437 -1.45007 0
M  V30 153 C 13.5249 -2.44872 -2.33999 0
M  V30 154 C 12.5709 -3.66535 -2.18069 0
M  V30 155 S 13.4039 -5.14095 -1.4989 0
M  V30 156 C 14.5599 -5.57835 -2.8385 0
M  V30 157 H 14.7929 -2.90849 -0.615961 0
M  V30 158 H 12.3259 -1.53063 -0.202752 0
M  V30 159 H 14.2839 -2.68852 -3.10208 0
M  V30 160 H 12.9449 -1.58815 -2.70992 0
M  V30 161 H 12.1379 -3.92626 -3.16008 0
M  V30 162 H 11.7399 -3.426 -1.50004 0
M  V30 163 H 14.0319 -5.60806 -3.80136 0
M  V30 164 H 14.9749 -6.57667 -2.62449 0
M  V30 165 H 15.3829 -4.85421 -2.88144 0
M  V30 166 N 14.781 0.264519 -1.55364 0
M  V30 167 C 16.006 1.01726 -1.80739 0
M  V30 168 C 16.431 1.78836 -0.583044 0
M  V30 169 O 15.789 1.75167 0.467566 0
M  V30 170 C 15.837 1.94482 -3.03659 0
M  V30 171 O 14.941 3.03386 -2.7934 0
M  V30 172 H 14.282 0.290395 -0.597132 0
M  V30 173 H 16.812 0.290854 -2.02522 0
M  V30 174 H 16.822 2.36278 -3.32621 0
M  V30 175 H 15.497 1.37772 -3.92418 0
M  V30 176 H 14.074 2.65844 -2.61498 0
M  V30 177 N 16.2591 1.48442 0.529413 0
M  V30 178 C 17.5361 1.46978 1.29062 0
M  V30 179 C 17.9161 0.181769 2.10316 0
M  V30 180 O 17.2641 -0.836481 2.12639 0
M  V30 181 C 17.4741 2.7321 2.17157 0
M  V30 182 C 18.8221 3.21562 2.77278 0
M  V30 183 O 19.8461 2.74131 2.27444 0
M  V30 184 O 18.7051 4.04094 3.67927 0
M  V30 185 H 15.7991 0.587003 0.582543 0
M  V30 186 H 18.3451 1.60676 0.546021 0
M  V30 187 H 17.1171 3.58465 1.56903 0
M  V30 188 H 16.7401 2.62235 2.98862 0
M  V30 189 N 17.7372 -0.778329 1.37039 0
M  V30 190 C 18.6672 -1.90546 1.34962 0
M  V30 191 C 19.6482 -1.68681 0.219274 0
M  V30 192 O 20.8332 -1.89634 0.418624 0
M  V30 193 C 17.9632 -3.27734 1.14925 0
M  V30 194 C 16.9172 -3.64147 2.24902 0
M  V30 195 C 16.2432 -4.99806 1.89996 0
M  V30 196 C 17.5432 -3.71579 3.67051 0
M  V30 197 H 19.2372 -1.92541 2.29277 0
M  V30 198 H 16.7832 -0.924948 1.10366 0
M  V30 199 H 18.7362 -4.06215 1.12104 0
M  V30 200 H 17.4602 -3.26154 0.170631 0
M  V30 201 H 16.1192 -2.8797 2.26868 0
M  V30 202 H 15.7672 -4.94759 0.906796 0
M  V30 203 H 15.4672 -5.25139 2.63634 0
M  V30 204 H 16.9912 -5.80694 1.88749 0
M  V30 205 H 18.4052 -4.40227 3.67251 0
M  V30 206 H 16.8022 -4.08405 4.39688 0
M  V30 207 H 17.8722 -2.72404 4.01154 0
M  V30 208 N 19.2153 -1.21501 -1.00376 0
M  V30 209 C 20.4613 -1.03452 -1.74429 0
M  V30 210 C 20.7943 0.430764 -1.89362 0
M  V30 211 O 20.0693 1.31962 -1.42886 0
M  V30 212 C 20.3523 -1.73375 -3.15615 0
M  V30 213 C 20.2053 -3.27431 -3.08397 0
M  V30 214 C 21.5243 -1.47732 -4.14564 0
M  V30 215 H 18.6433 -0.377226 -0.633143 0
M  V30 216 H 21.2853 -1.49693 -1.17013 0
M  V30 217 H 19.4353 -1.34064 -3.64636 0
M  V30 218 H 21.1073 -3.76119 -2.67081 0
M  V30 219 H 19.3503 -3.5767 -2.45468 0
M  V30 220 H 20.0213 -3.71524 -4.08258 0
M  V30 221 H 22.4973 -1.8186 -3.74254 0
M  V30 222 H 21.3733 -1.99169 -5.11491 0
M  V30 223 H 21.6343 -0.407589 -4.40217 0
M  V30 224 N 20.6934 1.19889 -1.02296 0
M  V30 225 C 21.6434 2.20777 -0.56934 0
M  V30 226 C 22.6274 1.56379 0.378741 0
M  V30 227 O 23.8194 1.75859 0.200673 0
M  V30 228 C 20.9484 3.43196 0.0845077 0
M  V30 229 C 20.0344 4.14749 -0.88566 0
M  V30 230 N 20.4254 4.62584 -2.04573 0
M  V30 231 C 18.7234 4.40347 -0.707835 0
M  V30 232 C 19.4244 5.17466 -2.65714 0
M  V30 233 N 18.4004 5.0791 -1.93723 0
M  V30 234 H 22.2024 2.55434 -1.45365 0
M  V30 235 H 19.7164 1.35897 -0.88915 0
M  V30 236 H 21.7134 4.14707 0.427067 0
M  V30 237 H 20.3734 3.10042 0.964574 0
M  V30 238 H 21.3844 4.57597 -2.4254 0
M  V30 239 H 18.0614 4.17317 0.12364 0
M  V30 240 H 19.4514 5.64808 -3.63925 0
M  V30 241 N 22.1715 0.800033 1.35784 0
M  V30 242 C 23.4485 0.30088 1.93272 0
M  V30 243 C 23.8285 -1.20857 1.73081 0
M  V30 244 O 23.1765 -2.00502 1.09596 0
M  V30 245 C 23.3865 0.70511 3.41803 0
M  V30 246 C 24.7345 0.690871 4.18942 0
M  V30 247 O 25.7585 0.646244 3.50289 0
M  V30 248 O 24.6175 0.74332 5.41421 0
M  V30 249 H 21.7115 0.0771605 0.823393 0
M  V30 250 H 24.2575 0.88329 1.449 0
M  V30 251 H 23.0295 1.74571 3.50201 0
M  V30 252 H 22.6525 0.0971541 3.97481 0
M  V30 253 N 23.6496 -1.47581 0.552962 0
M  V30 254 C 24.8986 -2.01684 0.0251995 0
M  V30 255 C 25.2116 -1.43317 -1.33115 0
M  V30 256 O 26.4176 -1.89057 -1.94858 0
M  V30 257 C 24.8736 -3.599 -0.00542052 0
M  V30 258 C 24.4816 -4.27257 1.34742 0
M  V30 259 C 26.2256 -4.21768 -0.4808 0
M  V30 260 C 24.1326 -5.77467 1.27614 0
M  V30 261 H 23.0626 -0.753979 0.00565033 0
M  V30 262 H 25.7136 -1.69616 0.70018 0
M  V30 263 H 24.0956 -3.88911 -0.745961 0
M  V30 264 H 25.2696 -4.09893 2.10534 0
M  V30 265 H 23.5846 -3.77358 1.76039 0
M  V30 266 H 26.1816 -5.31838 -0.55246 0
M  V30 267 H 26.5246 -3.88651 -1.49184 0
M  V30 268 H 27.0576 -3.97273 0.204752 0
M  V30 269 H 23.7966 -6.15196 2.26304 0
M  V30 270 H 23.3166 -5.9718 0.55996 0
M  V30 271 H 24.9956 -6.3959 0.976421 0
M  V30 272 N 25.1277 -0.289203 -1.54924 0
M  V30 273 C 26.3757 0.322879 -1.99504 0
M  V30 274 C 26.6967 1.55313 -1.1791 0
M  V30 275 O 25.9667 1.94001 -0.272097 0
M  V30 276 H 24.5467 0.122291 -0.736922 0
M  V30 277 H 27.2087 -0.397802 -1.90797 0
M  V30 278 H 26.3047 0.603061 -3.06218 0
M  V30 279 N 26.6058 1.57591 -0.0167156 0
M  V30 280 C 27.8518 1.91567 0.665582 0
M  V30 281 C 28.1848 0.892298 1.72487 0
M  V30 282 O 27.4598 -0.0867127 1.94307 0
M  V30 283 C 27.7428 3.36069 1.29342 0
M  V30 284 C 27.5958 4.49135 0.244541 0
M  V30 285 C 28.9148 3.803 2.21495 0
M  V30 286 H 26.0338 0.69666 0.240488 0
M  V30 287 H 28.6758 1.89866 -0.0714356 0
M  V30 288 H 26.8258 3.3765 1.92158 0
M  V30 289 H 28.4978 4.59689 -0.385228 0
M  V30 290 H 26.7408 4.3165 -0.431379 0
M  V30 291 H 27.4118 5.47242 0.723207 0
M  V30 292 H 29.8878 3.80377 1.68678 0
M  V30 293 H 28.7638 4.82127 2.62382 0
M  V30 294 H 29.0248 3.15104 3.101 0
M  V30 295 N 28.0839 -0.256276 1.55502 0
M  V30 296 C 29.0469 -1.30047 1.88734 0
M  V30 297 C 30.0469 -1.4154 0.763086 0
M  V30 298 O 31.2369 -1.40403 1.03115 0
M  V30 299 C 28.3689 -2.67953 2.10747 0
M  V30 300 H 29.5619 -1.01802 2.82093 0
M  V30 301 H 27.1149 -0.495134 1.4825 0
M  V30 302 H 27.8499 -3.01351 1.19825 0
M  V30 303 H 27.6349 -2.60993 2.92617 0
M  V30 304 H 29.1249 -3.43368 2.37673 0
M  V30 305 N 29.562 -1.4872 -0.521534 0
M  V30 306 C 30.973 -1.50607 -1.10337 0
M  V30 307 C 31.324 -0.280612 -1.94183 0
M  V30 308 O 30.449 0.611507 -2.0758 0
M  V30 309 C 31.044 -2.72903 -2.00772 0
M  V30 310 C 29.603 -2.77634 -2.54158 0
M  V30 311 C 28.75 -2.44241 -1.31307 0
M  V30 312 H 31.701 -1.55714 -0.306388 0
M  V30 313 H 31.722 -2.519 -2.85178 0
M  V30 314 H 31.234 -3.62077 -1.39721 0
M  V30 315 H 29.335 -1.92689 -3.18907 0
M  V30 316 H 29.448 -3.79283 -2.92714 0
M  V30 317 H 27.812 -1.95577 -1.63161 0
M  V30 318 H 28.595 -3.35666 -0.719943 0
M  V30 319 N 31.0401 0.771051 -1.3745 0
M  V30 320 C 32.2871 1.52963 -1.32697 0
M  V30 321 C 32.6151 1.94299 0.0883274 0
M  V30 322 O 31.8701 1.64397 1.0617 0
M  V30 323 C 32.1691 2.80676 -2.2126 0
M  V30 324 C 31.8351 2.58389 -3.69521 0
M  V30 325 C 30.4971 2.52019 -4.09927 0
M  V30 326 C 32.8491 2.38469 -4.63446 0
M  V30 327 C 30.1771 2.23721 -5.42371 0
M  V30 328 C 32.5291 2.11694 -5.96128 0
M  V30 329 C 31.1931 2.03769 -6.35637 0
M  V30 330 H 30.4631 0.559732 -0.485573 0
M  V30 331 H 33.1101 0.888083 -1.69662 0
M  V30 332 H 31.4151 3.49392 -1.77291 0
M  V30 333 H 33.1121 3.38557 -2.14895 0
M  V30 334 H 29.7021 2.6421 -3.37478 0
M  V30 335 H 33.8861 2.4238 -4.33089 0
M  V30 336 H 29.1421 2.16081 -5.71943 0
M  V30 337 H 33.3161 1.9528 -6.6846 0
M  V30 338 H 30.9431 1.81606 -7.38189 0
M  V30 339 N 32.5182 1.22032 0.997298 0
M  V30 340 C 33.7672 1.03637 1.73038 0
M  V30 341 C 34.0802 -0.429475 1.90827 0
M  V30 342 O 35.2862 -0.732995 2.61418 0
M  V30 343 C 33.7422 1.80582 3.11317 0
M  V30 344 C 33.3502 3.31387 3.01474 0
M  V30 345 C 35.0942 1.70621 3.88701 0
M  V30 346 C 33.0012 4.00791 4.3488 0
M  V30 347 H 31.9312 0.384179 0.648785 0
M  V30 348 H 34.5822 1.4584 1.11368 0
M  V30 349 H 32.9642 1.31175 3.73643 0
M  V30 350 H 34.1382 3.88155 2.4834 0
M  V30 351 H 32.4532 3.41976 2.37575 0
M  V30 352 H 35.0502 2.19799 4.87434 0
M  V30 353 H 35.3932 0.665823 4.10941 0
M  V30 354 H 35.9262 2.17547 3.33044 0
M  V30 355 H 32.6652 5.05064 4.1784 0
M  V30 356 H 32.1852 3.48811 4.87945 0
M  V30 357 H 33.8642 4.06139 5.03647 0
M  V30 358 N 33.9963 -1.19345 1.0293 0
M  V30 359 C 35.2443 -1.88665 0.724574 0
M  V30 360 C 35.5653 -1.80036 -0.749144 0
M  V30 361 O 34.8353 -1.2111 -1.53978 0
M  V30 362 H 33.4153 -0.698406 0.265025 0
M  V30 363 H 36.0773 -1.44885 1.30362 0
M  V30 364 H 35.1733 -2.94987 1.01926 0
M  V30 365 N 35.4744 -0.807222 -1.35358 0
M  V30 366 C 36.3844 -0.219594 -2.3357 0
M  V30 367 C 37.4004 0.637734 -1.61892 0
M  V30 368 O 38.5764 0.549336 -1.93763 0
M  V30 369 C 35.6414 0.62158 -3.41083 0
M  V30 370 C 34.7024 -0.256315 -4.28534 0
M  V30 371 C 33.9354 0.544807 -5.30912 0
M  V30 372 O 34.1584 1.77944 -5.41934 0
M  V30 373 O 33.0924 -0.0646478 -6.01865 0
M  V30 374 H 36.9184 -1.03208 -2.85625 0
M  V30 375 H 34.5034 -0.569025 -1.38139 0
M  V30 376 H 36.3854 1.10067 -4.06772 0
M  V30 377 H 35.0604 1.41165 -2.91297 0
M  V30 378 H 33.9674 -0.782559 -3.65823 0
M  V30 379 H 35.3004 -1.01034 -4.81719 0
M  V30 380 N 36.9525 1.47285 -0.560781 0
M  V30 381 C 37.8825 2.32857 0.173105 0
M  V30 382 C 38.8635 1.44009 0.905281 0
M  V30 383 O 40.0485 1.7286 0.885046 0
M  V30 384 C 37.1785 3.25861 1.20133 0
M  V30 385 C 36.1325 4.23978 0.585388 0
M  V30 386 C 35.4585 5.06332 1.7185 0
M  V30 387 C 36.7585 5.20242 -0.463178 0
M  V30 388 H 38.4525 2.94466 -0.541307 0
M  V30 389 H 35.9985 1.41601 -0.261764 0
M  V30 390 H 37.9515 3.84569 1.72293 0
M  V30 391 H 36.6755 2.62315 1.94573 0
M  V30 392 H 35.3345 3.66501 0.085054 0
M  V30 393 H 34.9825 4.39186 2.45203 0
M  V30 394 H 34.6825 5.72762 1.31213 0
M  V30 395 H 36.2065 5.67899 2.24329 0
M  V30 396 H 37.6205 5.73293 -0.027502 0
M  V30 397 H 36.0175 5.94896 -0.788627 0
M  V30 398 H 37.0875 4.65504 -1.35773 0
M  V30 399 N 38.4306 0.297415 1.54768 0
M  V30 400 C 39.3936 -0.567375 2.22066 0
M  V30 401 C 40.3936 -1.06409 1.20556 0
M  V30 402 O 41.5836 -0.960691 1.45315 0
M  V30 403 C 38.7156 -1.78517 2.90421 0
M  V30 404 H 39.9086 0.0205534 2.99893 0
M  V30 405 H 37.4616 0.0482163 1.56226 0
M  V30 406 H 38.1966 -2.41303 2.16664 0
M  V30 407 H 37.9816 -1.43669 3.64831 0
M  V30 408 H 39.4716 -2.39964 3.41771 0
M  V30 409 N 39.9087 -1.5758 0.0250728 0
M  V30 410 C 40.8717 -2.08896 -0.943139 0
M  V30 411 C 41.8717 -1.00321 -1.25668 0
M  V30 412 O 43.0617 -1.26495 -1.19769 0
M  V30 413 C 40.1937 -2.55143 -2.26086 0
M  V30 414 H 41.3867 -2.95723 -0.498775 0
M  V30 415 H 38.9397 -1.54703 -0.222888 0
M  V30 416 H 39.6747 -1.71633 -2.75159 0
M  V30 417 H 39.4597 -3.34461 -2.04641 0
M  V30 418 H 40.9497 -2.95083 -2.95492 0
M  V30 419 N 41.3868 0.248026 -1.55636 0
M  V30 420 C 42.3498 1.29044 -1.89421 0
M  V30 421 C 43.3498 1.41134 -0.770581 0
M  V30 422 O 44.5398 1.39854 -1.03858 0
M  V30 423 C 41.6718 2.66831 -2.12165 0
M  V30 424 H 42.8648 1.00305 -2.82629 0
M  V30 425 H 40.4178 0.487265 -1.48511 0
M  V30 426 H 41.1528 3.00711 -1.21422 0
M  V30 427 H 40.9378 2.59438 -2.93997 0
M  V30 428 H 42.4278 3.42103 -2.3949 0
M  V30 429 N 42.8649 1.48995 0.513639 0
M  V30 430 C 43.7949 1.67636 1.62544 0
M  V30 431 C 44.7759 0.525087 1.61793 0
M  V30 432 O 45.9609 0.759502 1.78732 0
M  V30 433 C 43.0909 1.73114 3.01079 0
M  V30 434 C 42.0449 2.87905 3.16693 0
M  V30 435 C 41.3709 2.78486 4.56453 0
M  V30 436 C 42.6709 4.29005 2.97913 0
M  V30 437 H 44.3649 2.60716 1.47198 0
M  V30 438 H 41.9109 1.25465 0.706714 0
M  V30 439 H 43.8639 1.84742 3.78746 0
M  V30 440 H 42.5879 0.766241 3.17484 0
M  V30 441 H 41.2469 2.75859 2.41448 0
M  V30 442 H 40.8949 1.7993 4.69717 0
M  V30 443 H 40.5949 3.55523 4.67843 0
M  V30 444 H 42.1189 2.92104 5.36197 0
M  V30 445 H 43.5329 4.41798 3.65359 0
M  V30 446 H 41.9299 5.07166 3.20785 0
M  V30 447 H 42.9999 4.44329 1.94165 0
M  V30 448 N 44.343 -0.763751 1.37857 0
M  V30 449 C 45.759 -1.06542 1.18832 0
M  V30 450 C 45.959 -2.01478 0.0299722 0
M  V30 451 O 45.015 -2.4458 -0.627447 0
M  V30 452 C 46.328 -1.65525 2.51042 0
M  V30 453 C 47.876 -1.77745 2.57635 0
M  V30 454 C 48.351 -2.4014 3.89996 0
M  V30 455 N 49.842 -2.47582 3.91481 0
M  V30 456 C 50.577 -2.96732 4.9065 0
M  V30 457 N 50.073 -3.45993 6.00217 0
M  V30 458 N 51.866 -2.95679 4.78048 0
M  V30 459 H 44.017 -0.133556 2.1198 0
M  V30 460 H 46.28 -0.121879 0.940133 0
M  V30 461 H 45.986 -1.03236 3.36207 0
M  V30 462 H 45.86 -2.64719 2.68707 0
M  V30 463 H 48.247 -2.39164 1.72872 0
M  V30 464 H 48.328 -0.772836 2.43846 0
M  V30 465 H 47.972 -1.79358 4.75177 0
M  V30 466 H 47.902 -3.41223 4.01092 0
M  V30 467 H 50.393 -2.1273 3.12337 0
M  V30 468 H 50.706 -3.81922 6.7183 0
M  V30 469 H 49.051 -3.44077 6.03851 0
M  V30 470 H 52.242 -2.56499 3.91568 0
M  V30 471 H 52.415 -3.33672 5.55488 0
M  V30 472 N 45.8211 -1.22559 -0.990812 0
M  V30 473 C 47.0981 -0.959875 -1.70428 0
M  V30 474 C 47.4781 0.524455 -2.04481 0
M  V30 475 O 46.8261 1.49302 -1.72977 0
M  V30 476 C 47.0361 -1.85955 -2.95333 0
M  V30 477 C 48.3841 -2.11687 -3.68068 0
M  V30 478 O 49.4081 -1.8342 -3.05345 0
M  V30 479 O 48.2671 -2.59572 -4.80921 0
M  V30 480 H 45.3611 -0.361154 -0.743974 0
M  V30 481 H 47.9071 -1.33554 -1.04697 0
M  V30 482 H 46.6791 -2.86346 -2.66687 0
M  V30 483 H 46.3021 -1.4856 -3.68803 0
M  V30 484 N 47.2992 1.18797 -1.03562 0
M  V30 485 C 48.5762 1.84469 -0.650434 0
M  V30 486 C 48.9562 1.92319 0.870433 0
M  V30 487 O 48.3042 1.44528 1.76986 0
M  V30 488 C 48.5142 3.2306 -1.32036 0
M  V30 489 C 49.8622 3.9915 -1.44792 0
M  V30 490 O 50.8862 3.32481 -1.27806 0
M  V30 491 O 49.7452 5.18587 -1.72423 0
M  V30 492 H 46.8392 0.795251 -0.226946 0
M  V30 493 H 49.3852 1.26231 -1.13419 0
M  V30 494 H 48.1572 3.1222 -2.3587 0
M  V30 495 H 47.7802 3.88949 -0.8249 0
M  V30 496 N 48.7773 0.814389 1.34928 0
M  V30 497 C 50.0243 0.398423 1.98542 0
M  V30 498 C 50.3523 -1.03638 1.64589 0
M  V30 499 O 49.6073 -1.73509 0.90516 0
M  V30 500 C 49.9063 0.537781 3.53331 0
M  V30 501 C 49.5723 1.93704 4.07172 0
M  V30 502 C 48.2343 2.31984 4.21589 0
M  V30 503 C 50.5863 2.85213 4.36237 0
M  V30 504 C 47.9143 3.61125 4.62391 0
M  V30 505 C 50.2663 4.13809 4.78482 0
M  V30 506 C 48.9303 4.52077 4.91104 0
M  V30 507 H 48.2003 0.145793 0.726516 0
M  V30 508 H 50.8473 1.03669 1.61012 0
M  V30 509 H 49.1523 -0.183906 3.91368 0
M  V30 510 H 50.8493 0.196588 4.00518 0
M  V30 511 H 47.4393 1.62966 3.96409 0
M  V30 512 H 51.6233 2.56885 4.24645 0
M  V30 513 H 46.8793 3.90612 4.70353 0
M  V30 514 H 51.0533 4.84811 4.99932 0
M  V30 515 H 48.6803 5.52196 5.22478 0
M  V30 516 N 50.2554 -1.46986 0.568584 0
M  V30 517 C 51.2024 -2.30153 -0.172707 0
M  V30 518 C 52.1724 -1.39759 -0.897586 0
M  V30 519 O 53.3574 -1.68716 -0.891044 0
M  V30 520 C 50.4974 -3.23952 -1.1895 0
M  V30 521 C 49.6104 -4.29441 -0.469517 0
M  V30 522 C 48.7454 -5.1038 -1.47259 0
M  V30 523 C 47.7844 -6.07632 -0.738225 0
M  V30 524 N 46.9214 -6.8149 -1.68868 0
M  V30 525 H 51.7614 -2.93019 0.542596 0
M  V30 526 H 49.2984 -1.44422 0.279401 0
M  V30 527 H 51.2564 -3.76767 -1.79173 0
M  V30 528 H 49.8864 -2.62926 -1.87269 0
M  V30 529 H 48.9384 -3.79594 0.247467 0
M  V30 530 H 50.2504 -4.98689 0.105241 0
M  V30 531 H 49.4044 -5.67402 -2.14803 0
M  V30 532 H 48.1434 -4.4106 -2.08128 0
M  V30 533 H 47.1484 -5.49778 -0.0489293 0
M  V30 534 H 48.3734 -6.78966 -0.135129 0
M  V30 535 H 46.3194 -6.14891 -2.28573 0
M  V30 536 H 46.2364 -7.46948 -1.16636 0
M  V30 537 H 47.5044 -7.43078 -2.3549 0
M  V30 538 N 51.7335 -0.305618 -1.54608 0
M  V30 539 C 53.1495 0.0476228 -1.59529 0
M  V30 540 C 53.3495 1.52025 -1.32252 0
M  V30 541 O 52.4055 2.27368 -1.09818 0
M  V30 542 C 53.7185 -0.354471 -2.98603 0
M  V30 543 C 55.2665 -0.303622 -3.11524 0
M  V30 544 C 55.7415 -0.680608 -4.52915 0
M  V30 545 N 57.2325 -0.63332 -4.5885 0
M  V30 546 C 57.9675 -0.897432 -5.66334 0
M  V30 547 N 57.4635 -1.22775 -6.81834 0
M  V30 548 N 59.2565 -0.824186 -5.56025 0
M  V30 549 H 51.4075 -1.2653 -1.70599 0
M  V30 550 H 53.6705 -0.513291 -0.797017 0
M  V30 551 H 53.3765 -1.3798 -3.23503 0
M  V30 552 H 53.2505 0.289568 -3.76087 0
M  V30 553 H 55.6375 0.712472 -2.8637 0
M  V30 554 H 55.7185 -0.982348 -2.36185 0
M  V30 555 H 55.3625 -1.69453 -4.78799 0
M  V30 556 H 55.2925 0.0202385 -5.26596 0
M  V30 557 H 57.7835 -0.389138 -3.75891 0
M  V30 558 H 58.0965 -1.41513 -7.59733 0
M  V30 559 H 56.4415 -1.26583 -6.83375 0
M  V30 560 H 59.6325 -0.565748 -4.64669 0
M  V30 561 H 59.8055 -1.03338 -6.39707 0
M  V30 562 N 53.2116 1.57565 -0.0334293 0
M  V30 563 C 54.4576 1.93088 0.639417 0
M  V30 564 C 54.8126 0.910589 1.69488 0
M  V30 565 O 54.1056 -0.0727725 1.91462 0
M  V30 566 C 54.2996 3.33112 1.29504 0
M  V30 567 C 54.1286 4.48667 0.304604 0
M  V30 568 C 52.8986 5.05207 -0.0970777 0
M  V30 569 C 55.0966 5.1239 -0.442845 0
M  V30 570 N 53.0786 6.04286 -1.08223 0
M  V30 571 C 54.4496 6.06609 -1.28161 0
M  V30 572 C 56.5046 4.95352 -0.50308 0
M  V30 573 C 55.2076 6.85622 -2.17519 0
M  V30 574 C 57.2336 5.74978 -1.38401 0
M  V30 575 C 56.5956 6.68816 -2.21054 0
M  V30 576 H 52.6946 0.754335 0.206161 0
M  V30 577 H 55.2786 1.94435 -0.101613 0
M  V30 578 H 53.4496 3.32576 2.00618 0
M  V30 579 H 55.1816 3.55972 1.92525 0
M  V30 580 H 51.9366 4.72782 0.278255 0
M  V30 581 H 52.3606 6.58516 -1.57117 0
M  V30 582 H 57.0026 4.22625 0.121694 0
M  V30 583 H 54.7206 7.57652 -2.81049 0
M  V30 584 H 58.3066 5.63826 -1.43496 0
M  V30 585 H 57.1866 7.29355 -2.88116 0
M  V30 586 N 54.6897 -0.239769 1.55765 0
M  V30 587 C 55.6217 -1.32001 1.87372 0
M  V30 588 C 56.6347 -1.43944 0.760522 0
M  V30 589 O 57.8237 -1.45167 1.0387 0
M  V30 590 C 54.9237 -2.69779 2.05115 0
M  V30 591 C 54.0967 -2.80014 3.36022 0
M  V30 592 C 53.1557 -3.98684 3.4342 0
M  V30 593 O 52.1817 -3.87877 4.16582 0
M  V30 594 N 53.3837 -5.12176 2.73232 0
M  V30 595 H 56.1487 -1.0522 2.80622 0
M  V30 596 H 53.7097 -0.429857 1.56089 0
M  V30 597 H 55.7017 -3.47517 2.07399 0
M  V30 598 H 54.2717 -2.89237 1.18577 0
M  V30 599 H 53.4917 -1.88896 3.45994 0
M  V30 600 H 54.7797 -2.83808 4.22292 0
M  V30 601 H 54.1777 -5.2385 2.13536 0
M  V30 602 H 52.7347 -5.88022 2.81199 0
M  V30 603 N 56.1678 -1.49265 -0.50573 0
M  V30 604 C 57.1308 -1.65075 -1.59006 0
M  V30 605 C 58.1308 -0.522768 -1.52065 0
M  V30 606 O 59.3208 -0.789117 -1.55302 0
M  V30 607 C 56.4528 -1.64369 -2.98656 0
M  V30 608 H 57.6458 -2.61784 -1.46319 0
M  V30 609 H 55.1988 -1.38226 -0.729616 0
M  V30 610 H 55.9338 -0.692272 -3.16825 0
M  V30 611 H 55.7188 -2.46282 -3.05103 0
M  V30 612 H 57.2088 -1.78674 -3.77446 0
M  V30 613 N 57.6459 0.756429 -1.3826 0
M  V30 614 C 58.8929 1.51547 -1.34312 0
M  V30 615 C 59.2209 1.94382 0.0677144 0
M  V30 616 O 58.4759 1.65514 1.04421 0
M  V30 617 C 58.7749 2.78313 -2.24224 0
M  V30 618 C 58.4409 2.54455 -3.72241 0
M  V30 619 C 57.1029 2.47657 -4.12576 0
M  V30 620 C 59.4549 2.3354 -4.65949 0
M  V30 621 C 56.7829 2.17956 -5.44713 0
M  V30 622 C 59.1349 2.05359 -5.9834 0
M  V30 623 C 57.7989 1.97016 -6.37762 0
M  V30 624 H 57.0689 0.55455 -0.491482 0
M  V30 625 H 59.7159 0.870039 -1.70595 0
M  V30 626 H 58.0209 3.47492 -1.80987 0
M  V30 627 H 59.7179 3.36259 -2.18474 0
M  V30 628 H 56.3079 2.60616 -3.40261 0
M  V30 629 H 60.4919 2.37772 -4.35635 0
M  V30 630 H 55.7479 2.10003 -5.74203 0
M  V30 631 H 59.9219 1.88179 -6.70494 0
M  V30 632 H 57.5489 1.73766 -7.40074 0
M  V30 633 N 59.124 1.23083 0.984299 0
M  V30 634 C 60.401 0.9689 1.69917 0
M  V30 635 C 60.781 -0.513604 2.04757 0
M  V30 636 O 60.129 -1.48383 1.73767 0
M  V30 637 C 60.339 1.87518 2.94343 0
M  V30 638 C 61.687 2.13636 3.6694 0
M  V30 639 O 62.711 1.85036 3.04368 0
M  V30 640 O 61.57 2.62119 4.79537 0
M  V30 641 H 58.664 0.365095 0.742048 0
M  V30 642 H 61.21 1.34107 1.03987 0
M  V30 643 H 59.982 2.87756 2.65164 0
M  V30 644 H 59.605 1.50514 3.6801 0
M  V30 645 N 60.6021 -1.18246 1.0419 0
M  V30 646 C 61.5491 -2.2192 0.634037 0
M  V30 647 C 62.5191 -1.62179 -0.358765 0
M  V30 648 O 63.7041 -1.89122 -0.252466 0
M  V30 649 C 60.8441 -3.451 0.00445535 0
M  V30 650 C 59.9571 -4.19174 1.04487 0
M  V30 651 C 59.0921 -5.29813 0.383676 0
M  V30 652 C 58.1311 -5.9566 1.4091 0
M  V30 653 N 57.2681 -6.97834 0.772784 0
M  V30 654 H 62.1081 -2.56164 1.52263 0
M  V30 655 H 59.6451 -1.25843 0.761701 0
M  V30 656 H 61.6031 -4.15485 -0.377919 0
M  V30 657 H 60.2331 -3.11472 -0.847652 0
M  V30 658 H 59.2851 -3.47604 1.54518 0
M  V30 659 H 60.5971 -4.64267 1.82368 0
M  V30 660 H 59.7511 -6.06677 -0.0528366 0
M  V30 661 H 58.4901 -4.85825 -0.427208 0
M  V30 662 H 57.4951 -5.17535 1.85574 0
M  V30 663 H 58.7201 -6.4173 2.22171 0
M  V30 664 H 56.6661 -6.55998 -0.0177708 0
M  V30 665 H 56.5831 -7.41186 1.48928 0
M  V30 666 H 57.8511 -7.78665 0.36071 0
M  V30 667 N 62.0802 -0.821533 -1.34494 0
M  V30 668 C 63.3052 -0.420873 -2.03085 0
M  V30 669 C 63.7302 0.964915 -1.61465 0
M  V30 670 O 63.0882 1.62763 -0.798607 0
M  V30 671 C 63.1362 -0.529414 -3.56693 0
M  V30 672 O 62.2402 0.451302 -4.09923 0
M  V30 673 H 61.5812 -0.173489 -0.640935 0
M  V30 674 H 64.1112 -1.11157 -1.71771 0
M  V30 675 H 64.1212 -0.404671 -4.05988 0
M  V30 676 H 62.7962 -1.54014 -3.86332 0
M  V30 677 H 61.3732 0.285558 -3.71805 0
M  V30 678 N 63.5583 1.46682 -0.576371 0
M  V30 679 C 64.5213 2.28707 0.150239 0
M  V30 680 C 65.5213 1.38035 0.824794 0
M  V30 681 O 66.7113 1.60476 0.677719 0
M  V30 682 C 63.8433 3.18248 1.22192 0
M  V30 683 H 65.0363 2.94423 -0.570521 0
M  V30 684 H 62.5893 1.52688 -0.334078 0
M  V30 685 H 63.3243 2.57265 1.97447 0
M  V30 686 H 63.1093 3.85 0.742812 0
M  V30 687 H 64.5993 3.80001 1.73172 0
M  V30 688 N 65.0364 0.313813 1.54444 0
M  V30 689 C 66.4524 -0.0391619 1.59552 0
M  V30 690 C 66.6524 -1.51322 1.33056 0
M  V30 691 O 65.7084 -2.26782 1.11022 0
M  V30 692 C 67.0214 0.370302 2.98411 0
M  V30 693 C 68.5694 0.320139 3.11358 0
M  V30 694 C 69.0444 0.704617 4.52547 0
M  V30 695 N 70.5354 0.657645 4.58508 0
M  V30 696 C 71.2704 0.927453 5.6585 0
M  V30 697 N 70.7664 1.26389 6.81174 0
M  V30 698 N 72.5594 0.853662 5.5558 0
M  V30 699 H 64.7104 1.27433 1.69925 0
M  V30 700 H 66.9734 0.517511 0.794284 0
M  V30 701 H 66.6794 1.39694 3.22767 0
M  V30 702 H 66.5534 -0.269619 3.76235 0
M  V30 703 H 68.9404 -0.697275 2.86744 0
M  V30 704 H 69.0214 0.99486 2.35661 0
M  V30 705 H 68.6654 1.7199 4.77893 0
M  V30 706 H 68.5954 0.00768843 5.26599 0
M  V30 707 H 71.0864 0.409067 3.75679 0
M  V30 708 H 71.3994 1.4554 7.58972 0
M  V30 709 H 69.7444 1.30206 6.82694 0
M  V30 710 H 72.9354 0.590383 4.64362 0
M  V30 711 H 73.1084 1.0673 6.3915 0
M  V30 712 N 66.5145 -1.57545 0.0417849 0
M  V30 713 C 67.7605 -1.92601 -0.635021 0
M  V30 714 C 68.0935 -0.919627 -1.71045 0
M  V30 715 O 67.3685 0.0557892 -1.9442 0
M  V30 716 C 67.6515 -3.38085 -1.23979 0
M  V30 717 C 67.5045 -4.49467 -0.173057 0
M  V30 718 C 68.8235 -3.83776 -2.15416 0
M  V30 719 H 65.9425 -0.700397 -0.229374 0
M  V30 720 H 68.5845 -1.89728 0.101633 0
M  V30 721 H 66.7345 -3.40664 -1.86762 0
M  V30 722 H 68.4065 -4.59018 0.458312 0
M  V30 723 H 66.6495 -4.30909 0.499996 0
M  V30 724 H 67.3205 -5.48323 -0.636054 0
M  V30 725 H 69.7965 -3.83013 -1.62605 0
M  V30 726 H 68.6725 -4.8624 -2.54679 0
M  V30 727 H 68.9335 -3.19998 -3.05047 0
M  V30 728 N 67.9926 0.231505 -1.5589 0
M  V30 729 C 68.9556 1.27028 -1.90779 0
M  V30 730 C 69.9556 1.40308 -0.785507 0
M  V30 731 O 71.1456 1.38744 -1.05336 0
M  V30 732 C 68.2776 2.64566 -2.14983 0
M  V30 733 H 69.4706 0.973017 -2.83677 0
M  V30 734 H 67.0236 0.471486 -1.49019 0
M  V30 735 H 67.7586 2.99406 -1.24604 0
M  V30 736 H 67.5436 2.56305 -2.96732 0
M  V30 737 H 69.0336 3.39543 -2.43105 0
M  V30 738 N 69.4707 1.49531 0.497807 0
M  V30 739 C 70.6957 1.63159 1.28039 0
M  V30 740 C 71.1207 0.30418 1.85624 0
M  V30 741 O 70.4787 -0.728618 1.66015 0
M  V30 742 C 70.5267 2.70537 2.38416 0
M  V30 743 O 69.6307 2.29931 3.42353 0
M  V30 744 H 68.9717 0.546001 0.377861 0
M  V30 745 H 71.5017 1.9574 0.59558 0
M  V30 746 H 71.5117 2.92802 2.84132 0
M  V30 747 H 70.1867 3.6689 1.95869 0
M  V30 748 H 68.7637 2.18009 3.02533 0
M  V30 749 N 70.9488 -0.749086 1.3866 0
M  V30 750 C 71.8988 -1.85368 1.32751 0
M  V30 751 C 72.8828 -1.59511 0.210945 0
M  V30 752 O 74.0748 -1.71255 0.447299 0
M  V30 753 C 71.2038 -3.23131 1.15935 0
M  V30 754 C 70.2898 -3.54864 2.32233 0
M  V30 755 N 70.6808 -3.57625 3.57684 0
M  V30 756 C 68.9788 -3.85154 2.24883 0
M  V30 757 C 69.6798 -3.86753 4.34508 0
M  V30 758 N 68.6558 -4.03812 3.63918 0
M  V30 759 H 72.4578 -1.85787 2.27729 0
M  V30 760 H 69.9718 -0.946658 1.31955 0
M  V30 761 H 71.9688 -4.02185 1.09786 0
M  V30 762 H 70.6288 -3.23961 0.218947 0
M  V30 763 H 71.6398 -3.39276 3.91295 0
M  V30 764 H 68.3168 -3.93672 1.39027 0
M  V30 765 H 69.7068 -3.95474 5.43185 0
M  V30 766 N 72.4269 -1.23603 -0.977757 0
M  V30 767 C 73.6519 -1.09735 -1.75991 0
M  V30 768 C 74.0769 0.346858 -1.84874 0
M  V30 769 O 73.4349 1.25093 -1.3123 0
M  V30 770 C 73.4829 -1.73051 -3.16363 0
M  V30 771 O 72.5869 -0.994452 -4.0023 0
M  V30 772 H 71.9279 -0.384476 -0.541364 0
M  V30 773 H 74.4579 -1.6371 -1.2272 0
M  V30 774 H 74.4679 -1.78398 -3.66931 0
M  V30 775 H 73.1429 -2.78137 -3.09213 0
M  V30 776 H 71.7199 -1.01812 -3.58732 0
M  V30 777 N 73.905 1.17692 -1.04816 0
M  V30 778 C 74.815 2.25229 -0.65643 0
M  V30 779 C 75.831 1.71018 0.320761 0
M  V30 780 O 77.007 2.00649 0.173805 0
M  V30 781 C 74.072 3.46684 -0.0332629 0
M  V30 782 C 73.133 4.15997 -1.06042 0
M  V30 783 C 72.366 5.31654 -0.466893 0
M  V30 784 O 72.589 5.65777 0.724758 0
M  V30 785 O 71.523 5.89831 -1.1993 0
M  V30 786 H 75.349 2.61016 -1.55255 0
M  V30 787 H 72.934 1.24919 -0.81949 0
M  V30 788 H 74.816 4.20234 0.313256 0
M  V30 789 H 73.491 3.12703 0.836566 0
M  V30 790 H 72.398 3.44482 -1.45886 0
M  V30 791 H 73.731 4.53996 -1.90127 0
M  V30 792 N 75.3831 0.828654 1.34056 0
M  V30 793 C 76.6291 0.42008 1.98402 0
M  V30 794 C 76.9621 -1.01564 1.65525 0
M  V30 795 O 76.2371 -1.70834 0.929831 0
M  V30 796 C 76.5201 0.62927 3.54559 0
M  V30 797 C 76.3731 2.11152 3.97159 0
M  V30 798 C 77.6921 0.0688756 4.40046 0
M  V30 799 H 74.8111 0.154104 0.720709 0
M  V30 800 H 77.4531 1.04228 1.5886 0
M  V30 801 H 75.6031 0.0996418 3.88372 0
M  V30 802 H 77.2751 2.70522 3.73651 0
M  V30 803 H 75.5181 2.59985 3.47261 0
M  V30 804 H 76.1891 2.20868 5.05887 0
M  V30 805 H 78.6651 0.521458 4.1282 0
M  V30 806 H 77.5411 0.245006 5.48353 0
M  V30 807 H 77.8021 -1.0266 4.30015 0
M  V30 808 N 76.8612 -1.46375 0.584142 0
M  V30 809 C 78.1092 -2.01978 0.0701287 0
M  V30 810 C 78.4302 -1.4579 -1.295 0
M  V30 811 O 77.7002 -0.64314 -1.85042 0
M  V30 812 H 76.2802 -0.746648 0.0229345 0
M  V30 813 H 78.9422 -1.79461 0.760245 0
M  V30 814 H 78.0382 -3.121 0.0022064 0
M  V30 815 N 78.3393 -0.321999 -1.54275 0
M  V30 816 C 79.5853 0.281461 -2.00837 0
M  V30 817 C 79.9183 1.51909 -1.20985 0
M  V30 818 O 79.1933 1.923 -0.291733 0
M  V30 819 C 79.4763 0.617162 -3.54772 0
M  V30 820 C 79.3293 -0.631064 -4.45351 0
M  V30 821 C 80.6483 1.43542 -4.16033 0
M  V30 822 H 77.7673 0.100826 -0.730071 0
M  V30 823 H 80.4093 -0.438268 -1.84876 0
M  V30 824 H 78.5593 1.23034 -3.68504 0
M  V30 825 H 80.2313 -1.26934 -4.43492 0
M  V30 826 H 78.4743 -1.26025 -4.15091 0
M  V30 827 H 79.1453 -0.351735 -5.50878 0
M  V30 828 H 81.6213 0.917134 -4.05867 0
M  V30 829 H 80.4973 1.63907 -5.23856 0
M  V30 830 H 80.7583 2.43108 -3.69257 0
M  V30 831 N 79.8174 1.5752 -0.0501392 0
M  V30 832 C 81.0664 1.91827 0.623328 0
M  V30 833 C 81.3794 0.930222 1.72065 0
M  V30 834 O 82.5854 1.1653 2.4522 0
M  V30 835 C 81.0414 3.40692 1.16003 0
M  V30 836 C 80.6494 4.479 0.0948811 0
M  V30 837 C 82.3934 3.84034 1.80881 0
M  V30 838 C 80.3004 5.87879 0.644411 0
M  V30 839 H 79.2304 0.715918 0.236596 0
M  V30 840 H 81.8814 1.83115 -0.118861 0
M  V30 841 H 80.2634 3.44405 1.9545 0
M  V30 842 H 81.4374 4.55775 -0.678675 0
M  V30 843 H 79.7524 4.13892 -0.45637 0
M  V30 844 H 82.3494 4.85984 2.22988 0
M  V30 845 H 82.6924 3.20225 2.6601 0
M  V30 846 H 83.2254 3.82833 1.0809 0
M  V30 847 H 79.9644 6.55282 -0.169229 0
M  V30 848 H 79.4844 5.83567 1.38598 0
M  V30 849 H 81.1634 6.37098 1.12763 0
M  V30 850 N 81.2955 -0.223234 1.56011 0
M  V30 851 C 82.2055 -1.29766 1.95443 0
M  V30 852 C 83.2215 -1.51373 0.858028 0
M  V30 853 O 84.3975 -1.64536 1.16146 0
M  V30 854 C 81.4625 -2.62772 2.26167 0
M  V30 855 C 80.5235 -2.49482 3.49367 0
M  V30 856 C 79.7565 -3.76145 3.78616 0
M  V30 857 O 79.9795 -4.79087 3.09568 0
M  V30 858 O 78.9135 -3.73358 4.72109 0
M  V30 859 H 82.7395 -0.99309 2.87004 0
M  V30 860 H 80.3245 -0.425958 1.43199 0
M  V30 861 H 82.2065 -3.41327 2.47131 0
M  V30 862 H 80.8815 -2.92913 1.37781 0
M  V30 863 H 79.7885 -1.69133 3.33684 0
M  V30 864 H 81.1215 -2.2428 4.38131 0
M  V30 865 N 82.7736 -1.49793 -0.48987 0
M  V30 866 C 83.7036 -1.70201 -1.59856 0
M  V30 867 C 84.6846 -0.55076 -1.60937 0
M  V30 868 O 85.8696 -0.787841 -1.77501 0
M  V30 869 C 82.9996 -1.77882 -2.98287 0
M  V30 870 C 81.9536 -2.92907 -3.12073 0
M  V30 871 C 81.2796 -2.85712 -4.51965 0
M  V30 872 C 82.5796 -4.3369 -2.91051 0
M  V30 873 H 84.2736 -2.63025 -1.43032 0
M  V30 874 H 81.8196 -1.26574 -0.686664 0
M  V30 875 H 83.7726 -1.90744 -3.75759 0
M  V30 876 H 82.4966 -0.816653 -3.16225 0
M  V30 877 H 81.1556 -2.79665 -2.37029 0
M  V30 878 H 80.8036 -1.8738 -4.66795 0
M  V30 879 H 80.5036 -3.62921 -4.62128 0
M  V30 880 H 82.0276 -3.00598 -5.31482 0
M  V30 881 H 83.4416 -4.47555 -3.58284 0
M  V30 882 H 81.8386 -5.12205 -3.12675 0
M  V30 883 H 82.9086 -4.47362 -1.87071 0
M  V30 884 N 84.2517 0.741722 -1.39055 0
M  V30 885 C 85.1847 1.86416 -1.31622 0
M  V30 886 C 86.1627 1.61473 -0.191076 0
M  V30 887 O 87.3467 1.84825 -0.370399 0
M  V30 888 C 84.4737 3.22266 -1.04221 0
M  V30 889 C 83.5197 3.66079 -2.18834 0
M  V30 890 S 84.3527 3.7623 -3.81066 0
M  V30 891 C 85.5087 5.14881 -3.55877 0
M  V30 892 H 85.7417 1.92437 -2.26617 0
M  V30 893 H 83.2747 0.905907 -1.25031 0
M  V30 894 H 85.2327 4.00714 -0.890964 0
M  V30 895 H 83.8937 3.1391 -0.109237 0
M  V30 896 H 83.0867 4.64648 -1.95238 0
M  V30 897 H 82.6887 2.94817 -2.30128 0
M  V30 898 H 84.9807 6.01006 -3.12726 0
M  V30 899 H 85.9237 5.43503 -4.53884 0
M  V30 900 H 86.3317 4.84239 -2.90126 0
M  V30 901 N 85.7298 1.2412 0.971189 0
M  V30 902 C 87.1408 1.07236 1.52831 0
M  V30 903 C 87.4918 -0.357352 1.92918 0
M  V30 904 O 86.6168 -1.24528 1.76979 0
M  V30 905 C 87.2118 1.94043 2.77728 0
M  V30 906 C 85.7708 1.81394 3.29808 0
M  V30 907 C 84.9178 1.89189 2.02738 0
M  V30 908 H 87.8688 1.37648 0.789864 0
M  V30 909 H 87.8898 1.47066 3.5093 0
M  V30 910 H 87.4018 2.98093 2.4852 0
M  V30 911 H 85.5028 0.801634 3.63874 0
M  V30 912 H 85.6158 2.65294 3.98944 0
M  V30 913 H 83.9798 1.32877 2.17292 0
M  V30 914 H 84.7628 2.94812 1.759 0
M  V30 915 N 87.2079 -1.17134 1.05439 0
M  V30 916 C 88.4539 -1.87733 0.767077 0
M  V30 917 C 88.7869 -1.8098 -0.704253 0
M  V30 918 O 88.0619 -1.21951 -1.5152 0
M  V30 919 C 88.3449 -3.37659 1.25133 0
M  V30 920 C 88.1979 -3.53149 2.78578 0
M  V30 921 C 89.5169 -4.31768 0.852324 0
M  V30 922 H 86.6359 -0.681687 0.280129 0
M  V30 923 H 89.2779 -1.37732 1.30881 0
M  V30 924 H 87.4279 -3.80373 0.790469 0
M  V30 925 H 89.0999 -3.19434 3.32806 0
M  V30 926 H 87.3429 -2.95345 3.17732 0
M  V30 927 H 88.0139 -4.58403 3.07523 0
M  V30 928 H 90.4899 -3.96909 1.24911 0
M  V30 929 H 89.3659 -5.35199 1.21873 0
M  V30 930 H 89.6269 -4.41429 -0.243485 0
M  V30 931 N 88.686 -0.835752 -1.33615 0
M  V30 932 C 89.649 -0.272 -2.2758 0
M  V30 933 C 90.649 0.557487 -1.50827 0
M  V30 934 O 91.839 0.37173 -1.70188 0
M  V30 935 C 88.971 0.617173 -3.35267 0
M  V30 936 H 90.164 -1.10111 -2.78954 0
M  V30 937 H 87.717 -0.608594 -1.43965 0
M  V30 938 H 88.452 1.46884 -2.89129 0
M  V30 939 H 88.237 0.0237066 -3.92093 0
M  V30 940 H 89.727 1.005 -4.05326 0
M  V30 941 N 90.1641 1.46063 -0.591896 0
M  V30 942 C 91.4411 1.95595 -0.0137119 0
M  V30 943 C 91.8211 1.5345 1.4497 0
M  V30 944 O 91.1691 0.789543 2.14426 0
M  V30 945 C 91.3791 3.48453 -0.195373 0
M  V30 946 C 92.7271 4.24546 -0.0679765 0
M  V30 947 O 93.7511 3.55982 -0.124681 0
M  V30 948 O 92.6101 5.46467 0.0600579 0
M  V30 949 H 89.7041 0.825795 0.0446279 0
M  V30 950 H 92.2501 1.56303 -0.660859 0
M  V30 951 H 91.0221 3.72045 -1.21235 0
M  V30 952 H 90.6451 3.94597 0.487775 0
M  V30 953 N 91.6422 0.330177 1.54103 0
M  V30 954 C 92.5892 -0.532762 2.24567 0
M  V30 955 C 93.5592 -1.10635 1.23892 0
M  V30 956 O 94.7442 -1.14546 1.5259 0
M  V30 957 C 91.8842 -1.6845 3.01195 0
M  V30 958 C 90.9972 -1.13951 4.167 0
M  V30 959 C 90.1322 -2.25746 4.80845 0
M  V30 960 C 89.1712 -1.6853 5.88442 0
M  V30 961 N 88.3082 -2.74014 6.46421 0
M  V30 962 H 93.1482 0.0746905 2.97906 0
M  V30 963 H 90.6852 0.048632 1.4702 0
M  V30 964 H 92.6432 -2.36234 3.43874 0
M  V30 965 H 91.2732 -2.26314 2.30178 0
M  V30 966 H 90.3252 -0.35301 3.78758 0
M  V30 967 H 91.6372 -0.680892 4.94131 0
M  V30 968 H 90.7912 -3.01422 5.26526 0
M  V30 969 H 89.5302 -2.74947 4.0281 0
M  V30 970 H 88.5352 -0.913543 5.42157 0
M  V30 971 H 89.7602 -1.20198 6.68378 0
M  V30 972 H 87.7062 -3.22494 5.71256 0
M  V30 973 H 87.6232 -2.32735 7.19285 0
M  V30 974 H 88.8912 -3.49499 6.96757 0
M  V30 975 N 93.1203 -1.57491 0.0584922 0
M  V30 976 C 94.3453 -1.97711 -0.62652 0
M  V30 977 C 94.7703 -0.936132 -1.63151 0
M  V30 978 O 94.1283 0.099811 -1.81025 0
M  V30 979 C 94.1763 -3.36989 -1.28338 0
M  V30 980 O 93.2803 -3.35433 -2.39913 0
M  V30 981 H 92.6213 -0.643868 -0.162266 0
M  V30 982 H 95.1513 -2.04193 0.129064 0
M  V30 983 H 95.1613 -3.73879 -1.63335 0
M  V30 984 H 93.8363 -4.12289 -0.546889 0
M  V30 985 H 92.4133 -3.10298 -2.06809 0
M  V30 986 N 94.5984 0.214957 -1.56127 0
M  V30 987 C 96.0144 0.564948 -1.49267 0
M  V30 988 C 96.2144 1.86827 -0.754838 0
M  V30 989 O 95.2704 2.50745 -0.297198 0
M  V30 990 C 96.5834 0.638071 -2.93852 0
M  V30 991 C 98.1314 0.728253 -3.0441 0
M  V30 992 C 98.6064 0.832663 -4.50367 0
M  V30 993 N 100.097 0.896712 -4.54437 0
M  V30 994 C 100.832 0.997324 -5.6466 0
M  V30 995 N 100.328 1.06147 -6.8462 0
M  V30 996 N 102.121 1.03297 -5.52527 0
M  V30 997 H 94.2724 -0.640211 -2.02522 0
M  V30 998 H 96.5354 -0.225507 -0.920788 0
M  V30 999 H 96.2414 -0.250126 -3.50809 0
M  V30 1000 H 96.1154 1.49947 -3.46115 0
M  V30 1001 H 98.5024 1.60689 -2.47514 0
M  V30 1002 H 98.5834 -0.158952 -2.55306 0
M  V30 1003 H 98.2274 -0.0415417 -5.07883 0
M  V30 1004 H 98.1574 1.73538 -4.97184 0
M  V30 1005 H 100.648 0.857188 -3.6805 0
M  V30 1006 H 100.961 1.1382 -7.64372 0
M  V30 1007 H 99.3064 1.03049 -6.87318 0
M  V30 1008 H 102.497 0.979558 -4.57736 0
M  V30 1009 H 102.67 1.10793 -6.38458 0
M  V30 1010 N 96.0765 1.50051 0.48192 0
M  V30 1011 C 97.3065 1.63999 1.2565 0
M  V30 1012 C 97.7145 0.318288 1.86504 0
M  V30 1013 O 97.0575 -0.708534 1.69486 0
M  V30 1014 C 97.1195 2.66504 2.4128 0
M  V30 1015 C 96.7835 4.10352 2.01148 0
M  V30 1016 C 97.7805 4.96562 1.54021 0
M  V30 1017 C 95.4655 4.56203 2.10199 0
M  V30 1018 C 97.4595 6.26668 1.16473 0
M  V30 1019 C 95.1465 5.86318 1.72264 0
M  V30 1020 C 96.1445 6.71375 1.25477 0
M  V30 1021 O 95.8325 7.99062 0.880626 0
M  V30 1022 H 95.5645 0.55456 0.386574 0
M  V30 1023 H 98.1185 1.96954 0.582944 0
M  V30 1024 H 96.3485 2.28769 3.11772 0
M  V30 1025 H 98.0375 2.69783 3.03268 0
M  V30 1026 H 98.8035 4.62358 1.46458 0
M  V30 1027 H 94.6825 3.90152 2.45566 0
M  V30 1028 H 98.2265 6.93011 0.798841 0
M  V30 1029 H 94.1235 6.20046 1.79482 0
M  V30 1030 H 94.8915 8.12239 1.01043 0
M  V30 1031 N 97.5546 -0.734337 1.39446 0
M  V30 1032 C 98.5176 -1.83004 1.37994 0
M  V30 1033 C 99.5176 -1.58397 0.276938 0
M  V30 1034 O 100.708 -1.65785 0.534875 0
M  V30 1035 C 97.8396 -3.20802 1.1532 0
M  V30 1036 H 99.0326 -1.85694 2.35494 0
M  V30 1037 H 96.5856 -0.938059 1.25021 0
M  V30 1038 H 97.3206 -3.23772 0.185036 0
M  V30 1039 H 97.1056 -3.4006 1.95197 0
M  V30 1040 H 98.5956 -4.00862 1.17046 0
M  V30 1041 N 99.0327 -1.24633 -0.964593 0
M  V30 1042 C 100.28 -1.08788 -1.70796 0
M  V30 1043 C 100.608 0.372783 -1.90894 0
M  V30 1044 O 99.8627 1.29167 -1.47018 0
M  V30 1045 C 100.162 -1.7763 -3.10133 0
M  V30 1046 C 99.8277 -3.27557 -3.09866 0
M  V30 1047 C 98.4897 -3.6846 -3.09501 0
M  V30 1048 C 100.842 -4.23389 -3.03959 0
M  V30 1049 C 98.1697 -5.03624 -3.00965 0
M  V30 1050 C 100.522 -5.58565 -2.96965 0
M  V30 1051 C 99.1857 -5.98809 -2.9493 0
M  V30 1052 H 98.4557 -0.398084 -0.624988 0
M  V30 1053 H 101.103 -1.54777 -1.12767 0
M  V30 1054 H 99.4077 -1.24044 -3.71645 0
M  V30 1055 H 101.105 -1.62832 -3.66451 0
M  V30 1056 H 97.6947 -2.95006 -3.10917 0
M  V30 1057 H 101.879 -3.92787 -3.03368 0
M  V30 1058 H 97.1347 -5.33998 -2.97752 0
M  V30 1059 H 101.309 -6.32523 -2.91354 0
M  V30 1060 H 98.9357 -7.03505 -2.88071 0
M  V30 1061 N 100.511 1.16574 -1.06058 0
M  V30 1062 C 101.458 2.20883 -0.669263 0
M  V30 1063 C 102.428 1.62729 0.332918 0
M  V30 1064 O 103.613 1.895 0.222346 0
M  V30 1065 C 100.753 3.45049 -0.0593572 0
M  V30 1066 C 99.8658 4.17458 -1.11143 0
M  V30 1067 C 99.0008 5.29135 -0.467916 0
M  V30 1068 C 98.0398 5.93343 -1.50369 0
M  V30 1069 N 97.1768 6.96516 -0.883706 0
M  V30 1070 H 102.017 2.53709 -1.5632 0
M  V30 1071 H 99.5538 1.24616 -0.781625 0
M  V30 1072 H 101.512 4.16033 0.311771 0
M  V30 1073 H 100.142 3.12781 0.797992 0
M  V30 1074 H 99.1938 3.45101 -1.60029 0
M  V30 1075 H 100.506 4.61307 -1.89731 0
M  V30 1076 H 99.6598 6.06684 -0.0436871 0
M  V30 1077 H 98.3988 4.86443 0.349864 0
M  V30 1078 H 97.4038 5.14517 -1.93784 0
M  V30 1079 H 98.6288 6.38114 -2.32352 0
M  V30 1080 H 96.5748 6.55943 -0.086595 0
M  V30 1081 H 96.4918 7.38723 -1.607 0
M  V30 1082 H 97.7598 7.77993 -0.484543 0
M  V30 1083 N 101.989 0.842826 1.3317 0
M  V30 1084 C 103.219 0.453397 2.01564 0
M  V30 1085 C 103.627 -0.951147 1.63554 0
M  V30 1086 O 102.97 -1.63021 0.846746 0
M  V30 1087 C 103.032 0.499013 3.5602 0
M  V30 1088 C 102.696 1.86037 4.1742 0
M  V30 1089 C 103.693 2.82416 4.36506 0
M  V30 1090 C 101.378 2.15428 4.53757 0
M  V30 1091 C 103.372 4.06346 4.91082 0
M  V30 1092 C 101.059 3.39615 5.0804 0
M  V30 1093 C 102.057 4.3489 5.26649 0
M  V30 1094 O 101.745 5.5688 5.79776 0
M  V30 1095 H 101.477 0.177871 0.652179 0
M  V30 1096 H 104.031 1.13808 1.70988 0
M  V30 1097 H 102.261 -0.242467 3.85939 0
M  V30 1098 H 103.95 0.126852 4.05702 0
M  V30 1099 H 104.716 2.6101 4.08777 0
M  V30 1100 H 100.595 1.42061 4.38565 0
M  V30 1101 H 104.139 4.80722 5.05522 0
M  V30 1102 H 100.036 3.60876 5.352 0
M  V30 1103 H 100.804 5.58674 5.98185 0
M  V30 1104 N 103.467 -1.45747 0.599634 0
M  V30 1105 C 104.713 -2.02592 0.0918643 0
M  V30 1106 C 105.046 -1.46806 -1.27128 0
M  V30 1107 O 104.321 -0.639658 -1.83681 0
M  V30 1108 C 104.604 -3.60073 0.0443398 0
M  V30 1109 C 104.457 -4.26208 1.43759 0
M  V30 1110 C 105.776 -4.35309 -0.647608 0
M  V30 1111 H 102.895 -0.736175 0.034857 0
M  V30 1112 H 105.537 -1.73694 0.770081 0
M  V30 1113 H 103.687 -3.84823 -0.533224 0
M  V30 1114 H 105.359 -4.12668 2.06162 0
M  V30 1115 H 103.602 -3.84916 2.00056 0
M  V30 1116 H 104.273 -5.35069 1.35665 0
M  V30 1117 H 106.749 -4.15805 -0.156776 0
M  V30 1118 H 105.625 -5.45038 -0.649942 0
M  V30 1119 H 105.886 -4.07598 -1.71219 0
M  V30 1120 N 104.945 -0.338344 -1.53925 0
M  V30 1121 C 105.893 0.536231 -2.26335 0
M  V30 1122 C 106.887 1.1063 -1.28286 0
M  V30 1123 O 108.093 1.05264 -1.46012 0
M  V30 1124 H 104.468 0.191602 -0.727181 0
M  V30 1125 H 106.439 -0.0965747 -2.98244 0
M  V30 1126 C 105.188 1.67803 -3.04528 0
M  V30 1127 H 104.511 1.24864 -3.79801 0
M  V30 1128 H 105.951 2.26526 -3.58416 0
M  V30 1129 C 104.41 2.60439 -2.13712 0
M  V30 1130 O 104.94 3.6255 -1.72975 0
M  V30 1131 N 103.146 2.29006 -1.78898 0
M  V30 1132 H 102.693 1.46011 -2.12223 0
M  V30 1133 H 102.651 2.91248 -1.18416 0
M  V30 1134 N 106.423 1.57458 -0.0668435 0
M  V30 1135 C 107.671 1.92919 0.602214 0
M  V30 1136 C 107.992 0.947215 1.70449 0
M  V30 1137 O 107.262 -0.00544117 1.95899 0
M  V30 1138 H 105.842 0.71217 0.22544 0
M  V30 1139 H 108.504 1.94508 -0.123535 0
M  V30 1140 H 107.6 2.94589 1.03073 0
M  V30 1141 N 107.901 -0.206675 1.56239 0
M  V30 1142 C 108.851 -1.26 1.90021 0
M  V30 1143 C 109.835 -1.41566 0.764721 0
M  V30 1144 O 111.027 -1.44131 1.02739 0
M  V30 1145 C 108.156 -2.6073 2.23326 0
M  V30 1146 C 107.242 -2.49005 3.43304 0
M  V30 1147 N 107.633 -2.06946 4.61527 0
M  V30 1148 C 105.931 -2.79927 3.47213 0
M  V30 1149 C 106.632 -2.06832 5.43687 0
M  V30 1150 N 105.608 -2.47892 4.83788 0
M  V30 1151 H 109.41 -0.925955 2.78932 0
M  V30 1152 H 106.924 -0.415172 1.57003 0
M  V30 1153 H 108.921 -3.36798 2.45708 0
M  V30 1154 H 107.581 -2.94968 1.35735 0
M  V30 1155 H 108.592 -1.77839 4.86409 0
M  V30 1156 H 105.269 -3.18438 2.70006 0
M  V30 1157 H 106.659 -1.76312 6.48354 0
M  V30 1158 N 109.379 -1.50304 -0.473955 0
M  V30 1159 C 110.79 -1.54042 -1.0549 0
M  V30 1160 C 111.141 -0.342248 -1.93192 0
M  V30 1161 O 110.266 0.545157 -2.09421 0
M  V30 1162 C 110.861 -2.79152 -1.91989 0
M  V30 1163 C 109.42 -2.8558 -2.45196 0
M  V30 1164 C 108.567 -2.48295 -1.2347 0
M  V30 1165 H 111.518 -1.5661 -0.256693 0
M  V30 1166 H 111.539 -2.60845 -2.7702 0
M  V30 1167 H 111.051 -3.66339 -1.28131 0
M  V30 1168 H 109.152 -2.02738 -3.12615 0
M  V30 1169 H 109.265 -3.88403 -2.80499 0
M  V30 1170 H 107.629 -2.00669 -1.56856 0
M  V30 1171 H 108.412 -3.37787 -0.612789 0
M  V30 1172 N 110.857 0.726932 -1.39834 0
M  V30 1173 C 111.82 1.82269 -1.38962 0
M  V30 1174 C 112.82 1.58248 -0.285334 0
M  V30 1175 O 114.01 1.65499 -0.54366 0
M  V30 1176 C 111.142 3.20186 -1.17019 0
M  V30 1177 H 112.335 1.84443 -2.36476 0
M  V30 1178 H 109.888 0.931416 -1.25516 0
M  V30 1179 H 110.623 3.23669 -0.202204 0
M  V30 1180 H 110.408 3.3902 -1.96998 0
M  V30 1181 H 111.898 4.00235 -1.1917 0
M  V30 1182 N 112.336 1.25143 0.95797 0
M  V30 1183 C 113.284 1.05019 2.07542 0
M  V30 1184 C 114.278 -0.0178751 1.69391 0
M  V30 1185 O 115.484 0.137472 1.79474 0
M  V30 1186 H 111.859 0.32265 0.679265 0
M  V30 1187 H 113.83 1.99759 2.21673 0
M  V30 1188 C 112.579 0.682074 3.40944 0
M  V30 1189 H 111.902 1.49573 3.70767 0
M  V30 1190 H 113.342 0.580945 4.20001 0
M  V30 1191 C 111.801 -0.611608 3.31302 0
M  V30 1192 O 112.331 -1.65465 3.66038 0
M  V30 1193 N 110.537 -0.595982 2.84423 0
M  V30 1194 H 110.084 0.253192 2.56353 0
M  V30 1195 H 110.042 -1.46173 2.78354 0
M  V30 1196 N 113.814 -1.1601 1.06675 0
M  V30 1197 C 115.042 -1.90527 0.806667 0
M  V30 1198 C 115.457 -1.77643 -0.639396 0
M  V30 1199 O 114.814 -1.12369 -1.43803 0
M  V30 1200 C 114.865 -3.41106 1.19705 0
M  V30 1201 O 114.586 -3.53608 2.58636 0
M  V30 1202 C 116.087 -4.32663 0.965266 0
M  V30 1203 H 113.307 -0.604053 0.292166 0
M  V30 1204 H 115.851 -1.47026 1.4214 0
M  V30 1205 H 114.006 -3.82296 0.626774 0
M  V30 1206 H 114.42 -4.47011 2.74375 0
M  V30 1207 H 115.894 -5.36763 1.288 0
M  V30 1208 H 116.371 -4.39089 -0.0987936 0
M  V30 1209 H 116.977 -3.97206 1.52011 0
M  V30 1210 N 115.292 -0.849877 -1.32721 0
M  V30 1211 C 116.255 -0.296122 -2.27279 0
M  V30 1212 C 117.255 0.541458 -1.5141 0
M  V30 1213 O 118.445 0.353658 -1.70572 0
M  V30 1214 C 115.577 0.581579 -3.35902 0
M  V30 1215 H 116.77 -1.13064 -2.77771 0
M  V30 1216 H 114.323 -0.62383 -1.43311 0
M  V30 1217 H 115.058 1.43809 -2.9067 0
M  V30 1218 H 114.843 -0.0178814 -3.92096 0
M  V30 1219 H 116.333 0.961951 -4.0637 0
M  V30 1220 N 116.77 1.45427 -0.607355 0
M  V30 1221 C 118.186 1.57283 -0.270985 0
M  V30 1222 C 118.386 1.59875 1.22647 0
M  V30 1223 O 117.442 1.52893 2.00948 0
M  V30 1224 C 118.755 2.85566 -0.941952 0
M  V30 1225 C 120.303 2.9924 -0.917849 0
M  V30 1226 C 120.778 4.30293 -1.56882 0
M  V30 1227 N 122.269 4.37051 -1.5343 0
M  V30 1228 C 123.004 5.37123 -2.00715 0
M  V30 1229 N 122.5 6.43734 -2.56084 0
M  V30 1230 N 124.293 5.28479 -1.91484 0
M  V30 1231 H 116.444 1.41988 -1.57966 0
M  V30 1232 H 118.707 0.67885 -0.661715 0
M  V30 1233 H 118.413 2.8955 -1.99633 0
M  V30 1234 H 118.287 3.74322 -0.465096 0
M  V30 1235 H 120.674 2.94822 0.127984 0
M  V30 1236 H 120.755 2.11895 -1.43297 0
M  V30 1237 H 120.399 4.35469 -2.61398 0
M  V30 1238 H 120.329 5.16454 -1.02873 0
M  V30 1239 H 122.82 3.60615 -1.12982 0
M  V30 1240 H 123.133 7.16341 -2.89958 0
M  V30 1241 H 121.478 6.44485 -2.60122 0
M  V30 1242 H 124.669 4.44098 -1.47967 0
M  V30 1243 H 124.842 6.0632 -2.28648 0
M  V30 1244 N 118.248 0.346503 1.53744 0
M  V30 1245 C 119.196 -0.52422 2.26616 0
M  V30 1246 C 120.19 -1.09948 1.28871 0
M  V30 1247 O 121.396 -1.04488 1.46568 0
M  V30 1248 H 117.771 -0.187743 0.728187 0
M  V30 1249 H 119.742 0.11239 2.98188 0
M  V30 1250 C 118.491 -1.66186 3.05414 0
M  V30 1251 H 117.814 -1.22848 3.80458 0
M  V30 1252 H 119.254 -2.24622 3.59612 0
M  V30 1253 C 117.713 -2.59302 2.1509 0
M  V30 1254 O 118.243 -3.61628 1.74895 0
M  V30 1255 N 116.449 -2.28055 1.8011 0
M  V30 1256 H 115.996 -1.44883 2.12994 0
M  V30 1257 H 115.954 -2.90615 1.19958 0
M  V30 1258 N 119.726 -1.57421 0.075193 0
M  V30 1259 C 120.656 -2.15942 -0.888324 0
M  V30 1260 C 121.637 -1.08737 -1.30806 0
M  V30 1261 O 122.822 -1.36787 -1.37851 0
M  V30 1262 C 119.952 -2.72379 -2.1547 0
M  V30 1263 C 118.906 -3.8478 -1.87425 0
M  V30 1264 C 118.232 -4.27834 -3.20721 0
M  V30 1265 C 119.532 -5.08869 -1.17684 0
M  V30 1266 H 121.226 -2.96705 -0.400799 0
M  V30 1267 H 118.772 -1.42723 -0.191342 0
M  V30 1268 H 120.725 -3.11965 -2.83295 0
M  V30 1269 H 119.449 -1.88841 -2.6647 0
M  V30 1270 H 118.108 -3.45703 -1.22004 0
M  V30 1271 H 117.756 -3.41214 -3.6957 0
M  V30 1272 H 117.456 -5.03605 -3.02746 0
M  V30 1273 H 118.98 -4.70039 -3.89738 0
M  V30 1274 H 120.394 -5.4575 -1.75584 0
M  V30 1275 H 118.791 -5.8994 -1.09956 0
M  V30 1276 H 119.861 -4.84648 -0.156453 0
M  V30 1277 N 121.204 0.198386 -1.56346 0
M  V30 1278 C 122.154 1.2499 -1.90687 0
M  V30 1279 C 123.138 1.41158 -0.772217 0
M  V30 1280 O 124.33 1.43584 -1.03502 0
M  V30 1281 C 121.459 2.59542 -2.24706 0
M  V30 1282 C 120.545 2.47181 -3.44619 0
M  V30 1283 N 120.936 2.04495 -4.62618 0
M  V30 1284 C 119.234 2.78082 -3.48692 0
M  V30 1285 C 119.935 2.03945 -5.44776 0
M  V30 1286 N 118.911 2.45323 -4.85095 0
M  V30 1287 H 122.713 0.911149 -2.7942 0
M  V30 1288 H 120.227 0.40684 -1.57221 0
M  V30 1289 H 122.224 3.3549 -2.47491 0
M  V30 1290 H 120.884 2.94244 -1.37298 0
M  V30 1291 H 121.895 1.75256 -4.87345 0
M  V30 1292 H 118.572 3.17002 -2.71691 0
M  V30 1293 H 119.962 1.72872 -6.4928 0
M  V30 1294 N 122.682 1.50554 0.465978 0
M  V30 1295 C 123.91 1.65563 1.24083 0
M  V30 1296 C 124.325 0.341051 1.85694 0
M  V30 1297 O 123.682 -0.677543 1.69457 0
M  V30 1298 C 123.733 2.75051 2.34583 0
M  V30 1299 O 123.454 4.01413 1.75497 0
M  V30 1300 C 124.955 3.01078 3.25372 0
M  V30 1301 H 122.175 0.55638 0.375077 0
M  V30 1302 H 124.719 1.96807 0.555624 0
M  V30 1303 H 122.874 2.46486 2.9887 0
M  V30 1304 H 123.288 4.62002 2.48303 0
M  V30 1305 H 124.762 3.81339 3.99105 0
M  V30 1306 H 125.239 2.12349 3.84453 0
M  V30 1307 H 125.845 3.31194 2.66816 0
M  V30 1308 N 124.16 -0.719506 1.40217 0
M  V30 1309 C 125.406 -1.48152 1.38488 0
M  V30 1310 C 125.739 -1.94195 -0.0141867 0
M  V30 1311 O 125.014 -1.67884 -0.982096 0
M  V30 1312 C 125.297 -2.71035 2.37091 0
M  V30 1313 C 125.15 -2.30912 3.86005 0
M  V30 1314 C 126.469 -3.73182 2.33288 0
M  V30 1315 H 123.588 -0.537395 0.504357 0
M  V30 1316 H 126.23 -0.821472 1.71324 0
M  V30 1317 H 124.38 -3.27352 2.0922 0
M  V30 1318 H 126.052 -1.80107 4.24687 0
M  V30 1319 H 124.295 -1.62958 4.02029 0
M  V30 1320 H 124.966 -3.18978 4.50508 0
M  V30 1321 H 127.442 -3.26485 2.57966 0
M  V30 1322 H 126.318 -4.56806 3.04334 0
M  V30 1323 H 126.579 -4.21202 1.34317 0
M  V30 1324 N 125.638 -1.25649 -0.95132 0
M  V30 1325 C 126.571 -1.00644 -2.04807 0
M  V30 1326 C 127.549 0.0654271 -1.62468 0
M  V30 1327 O 128.733 -0.074911 -1.88351 0
M  V30 1328 C 125.86 -0.522052 -3.34653 0
M  V30 1329 C 124.906 -1.58495 -3.95957 0
M  V30 1330 S 125.739 -3.17108 -4.31512 0
M  V30 1331 C 126.895 -2.70412 -5.64471 0
M  V30 1332 H 127.128 -1.93508 -2.25703 0
M  V30 1333 H 124.661 -1.09216 -1.09139 0
M  V30 1334 H 126.619 -0.24923 -4.09743 0
M  V30 1335 H 125.28 0.386146 -3.11717 0
M  V30 1336 H 124.473 -1.1968 -4.89584 0
M  V30 1337 H 124.075 -1.80862 -3.2736 0
M  V30 1338 H 126.367 -2.14245 -6.42733 0
M  V30 1339 H 127.31 -3.62693 -6.08161 0
M  V30 1340 H 127.718 -2.10302 -5.23864 0
M  V30 1341 N 127.117 1.15442 -1.07289 0
M  V30 1342 C 128.08 2.18358 -0.696591 0
M  V30 1343 C 129.08 1.58637 0.262837 0
M  V30 1344 O 130.27 1.74145 0.0438809 0
M  V30 1345 C 127.402 3.4089 -0.0266151 0
M  V30 1346 H 128.595 2.53162 -1.60776 0
M  V30 1347 H 126.148 1.29893 -0.869342 0
M  V30 1348 H 126.883 3.11653 0.896822 0
M  V30 1349 H 126.668 3.85495 -0.716657 0
M  V30 1350 H 128.158 4.17009 0.222028 0
M  V30 1351 N 128.595 0.856903 1.32268 0
M  V30 1352 C 129.842 0.461386 1.97174 0
M  V30 1353 C 130.17 -0.983491 1.67803 0
M  V30 1354 O 129.425 -1.70541 0.959903 0
M  V30 1355 C 129.724 0.649919 3.51441 0
M  V30 1356 C 129.39 2.0656 4.00804 0
M  V30 1357 C 128.052 2.45279 4.13995 0
M  V30 1358 C 130.404 2.98947 4.26943 0
M  V30 1359 C 127.732 3.75653 4.50668 0
M  V30 1360 C 130.084 4.28822 4.65075 0
M  V30 1361 C 128.748 4.67472 4.76472 0
M  V30 1362 H 128.018 0.168833 0.72151 0
M  V30 1363 H 130.665 1.08739 1.57633 0
M  V30 1364 H 128.97 -0.0593018 3.91755 0
M  V30 1365 H 130.667 0.32391 3.9969 0
M  V30 1366 H 127.257 1.75495 3.91024 0
M  V30 1367 H 131.441 2.70265 4.16258 0
M  V30 1368 H 126.697 4.05379 4.57688 0
M  V30 1369 H 130.871 5.0047 4.84255 0
M  V30 1370 H 128.498 5.68539 5.04646 0
M  V30 1371 N 130.073 -1.45103 0.615059 0
M  V30 1372 C 131.321 -2.01784 0.112955 0
M  V30 1373 C 131.642 -1.48504 -1.26378 0
M  V30 1374 O 130.912 -0.682245 -1.83636 0
M  V30 1375 H 129.492 -0.745993 0.0387668 0
M  V30 1376 H 132.154 -1.77808 0.798141 0
M  V30 1377 H 131.25 -3.12025 0.0684069 0
M  V30 1378 N 131.551 -0.354651 -1.53558 0
M  V30 1379 C 132.797 0.238797 -2.01389 0
M  V30 1380 C 133.13 1.49309 -1.2418 0
M  V30 1381 O 132.405 1.91638 -0.332457 0
M  V30 1382 C 132.688 0.541771 -3.56001 0
M  V30 1383 C 132.541 -0.725388 -4.43912 0
M  V30 1384 C 133.86 1.34685 -4.18984 0
M  V30 1385 H 130.979 0.0853177 -0.732045 0
M  V30 1386 H 133.621 -0.477384 -1.83905 0
M  V30 1387 H 131.771 1.15189 -3.71031 0
M  V30 1388 H 133.443 -1.36313 -4.407 0
M  V30 1389 H 131.686 -1.34801 -4.12324 0
M  V30 1390 H 132.357 -0.468505 -5.50008 0
M  V30 1391 H 134.833 0.830837 -4.07721 0
M  V30 1392 H 133.709 1.52759 -5.27215 0
M  V30 1393 H 133.97 2.35221 -3.74331 0
M  V30 1394 N 133.029 1.57378 -0.0835403 0
M  V30 1395 C 133.959 2.1641 0.87686 0
M  V30 1396 C 134.94 1.09429 1.30228 0
M  V30 1397 O 136.125 1.37516 1.37124 0
M  V30 1398 C 133.255 2.73517 2.14022 0
M  V30 1399 C 132.209 3.85769 1.85381 0
M  V30 1400 C 131.535 4.29529 3.18448 0
M  V30 1401 C 132.835 5.09486 1.14984 0
M  V30 1402 H 134.529 2.96914 0.385059 0
M  V30 1403 H 132.075 1.42823 0.18377 0
M  V30 1404 H 134.028 3.13463 2.81636 0
M  V30 1405 H 132.752 1.90252 2.65465 0
M  V30 1406 H 131.411 3.46345 1.20169 0
M  V30 1407 H 131.059 3.43169 3.67755 0
M  V30 1408 H 130.759 5.05204 3.00071 0
M  V30 1409 H 132.283 4.72099 3.8724 0
M  V30 1410 H 133.697 5.46674 1.72687 0
M  V30 1411 H 132.094 5.90515 1.06826 0
M  V30 1412 H 133.164 4.84724 0.130749 0
M  V30 1413 N 134.507 -0.190092 1.56449 0
M  V30 1414 C 135.47 -1.21925 1.9408 0
M  V30 1415 C 136.47 -1.38176 0.822431 0
M  V30 1416 O 137.66 -1.35903 1.08977 0
M  V30 1417 C 134.792 -2.58773 2.21922 0
M  V30 1418 H 135.985 -0.897464 2.86157 0
M  V30 1419 H 133.538 -0.43181 1.50217 0
M  V30 1420 H 134.273 -2.95998 1.32499 0
M  V30 1421 H 134.058 -2.48348 3.03424 0
M  V30 1422 H 135.548 -3.32978 2.52022 0
M  V30 1423 N 135.985 -1.50799 -0.457987 0
M  V30 1424 C 137.262 -1.52968 -1.21902 0
M  V30 1425 C 137.642 -0.281906 -2.09209 0
M  V30 1426 O 136.99 0.734076 -2.16388 0
M  V30 1427 C 137.2 -2.8326 -2.03875 0
M  V30 1428 C 138.548 -3.34425 -2.6162 0
M  V30 1429 O 139.572 -2.8467 -2.14106 0
M  V30 1430 O 138.431 -4.21188 -3.48228 0
M  V30 1431 H 135.525 -0.614129 -0.553873 0
M  V30 1432 H 138.071 -1.63098 -0.468739 0
M  V30 1433 H 136.843 -3.65543 -1.39621 0
M  V30 1434 H 136.466 -2.76195 -2.8601 0
M  V30 1435 N 137.463 0.71206 -1.40597 0
M  V30 1436 C 138.709 1.47416 -1.39271 0
M  V30 1437 C 139.042 1.942 0.00388791 0
M  V30 1438 O 138.317 1.68403 0.973179 0
M  V30 1439 C 138.6 2.69774 -2.38525 0
M  V30 1440 C 138.453 2.28861 -3.87224 0
M  V30 1441 C 139.772 3.71939 -2.35264 0
M  V30 1442 H 136.891 0.534713 -0.5072 0
M  V30 1443 H 139.533 0.812375 -1.71757 0
M  V30 1444 H 137.683 3.26238 -2.10953 0
M  V30 1445 H 139.355 1.77852 -4.25636 0
M  V30 1446 H 137.598 1.60824 -4.02887 0
M  V30 1447 H 138.269 3.16584 -4.52193 0
M  V30 1448 H 140.745 3.25113 -2.59694 0
M  V30 1449 H 139.621 4.55186 -3.06753 0
M  V30 1450 H 139.882 4.20484 -1.36549 0
M  V30 1451 N 138.941 1.26152 0.944643 0
M  V30 1452 C 140.218 1.02247 1.66748 0
M  V30 1453 C 140.598 -0.448202 2.06287 0
M  V30 1454 O 139.946 -1.42779 1.78399 0
M  V30 1455 C 140.156 1.96788 2.88228 0
M  V30 1456 C 141.504 2.25201 3.59958 0
M  V30 1457 O 142.528 1.94626 2.98327 0
M  V30 1458 O 141.387 2.77242 4.70956 0
M  V30 1459 H 138.481 0.388517 0.730057 0
M  V30 1460 H 141.027 1.37348 0.99668 0
M  V30 1461 H 139.799 2.96047 2.55875 0
M  V30 1462 H 139.422 1.62145 3.63035 0
M  V30 1463 N 140.419 -1.14872 1.07899 0
M  V30 1464 C 141.644 -1.90202 0.826926 0
M  V30 1465 C 142.069 -1.77774 -0.614664 0
M  V30 1466 O 141.427 -1.11431 -1.43013 0
M  V30 1467 C 141.475 -3.38352 1.24702 0
M  V30 1468 O 140.579 -4.10497 0.39575 0
M  V30 1469 H 139.92 -0.591968 0.300782 0
M  V30 1470 H 142.45 -1.45437 1.43907 0
M  V30 1471 H 142.46 -3.89156 1.22563 0
M  V30 1472 H 141.135 -3.46715 2.29698 0
M  V30 1473 H 139.712 -3.69796 0.480117 0
M  V30 1474 N 141.898 -0.863906 -1.31812 0
M  V30 1475 C 143.146 -0.470904 -1.96537 0
M  V30 1476 C 143.467 0.978771 -1.68657 0
M  V30 1477 O 142.737 1.6853 -0.998717 0
M  V30 1478 H 141.317 -0.171148 -0.72713 0
M  V30 1479 H 143.979 -1.10236 -1.60729 0
M  V30 1480 H 143.075 -0.623616 -3.05806 0
M  V30 1481 N 143.376 1.44774 -0.622745 0
M  V30 1482 C 144.606 2.06187 -0.130532 0
M  V30 1483 C 145.014 1.46547 1.19669 0
M  V30 1484 O 144.357 0.579636 1.74316 0
M  V30 1485 C 144.419 3.59437 0.0674983 0
M  V30 1486 C 144.083 4.41496 -1.18026 0
M  V30 1487 C 145.08 4.75512 -2.102 0
M  V30 1488 C 142.765 4.82007 -1.41333 0
M  V30 1489 C 144.759 5.48912 -3.23998 0
M  V30 1490 C 142.446 5.55157 -2.55429 0
M  V30 1491 C 143.444 5.88528 -3.46589 0
M  V30 1492 O 143.132 6.60191 -4.58697 0
M  V30 1493 H 142.864 0.672045 -0.0730162 0
M  V30 1494 H 145.418 1.86768 -0.854802 0
M  V30 1495 H 143.648 3.77314 0.846825 0
M  V30 1496 H 145.337 4.02642 0.513209 0
M  V30 1497 H 146.103 4.4476 -1.93425 0
M  V30 1498 H 141.982 4.55457 -0.712709 0
M  V30 1499 H 145.526 5.74877 -3.95174 0
M  V30 1500 H 141.423 5.85324 -2.72151 0
M  V30 1501 H 142.191 6.78654 -4.57571 0
M  V30 1502 N 144.854 0.36279 1.53368 0
M  V30 1503 C 146.265 -0.117022 1.86333 0
M  V30 1504 C 146.616 -1.48397 1.28347 0
M  V30 1505 O 145.741 -2.07787 0.604428 0
M  V30 1506 C 146.336 -0.21912 3.38091 0
M  V30 1507 C 144.895 -0.643184 3.70864 0
M  V30 1508 C 144.042 0.211318 2.76494 0
M  V30 1509 H 146.993 0.581687 1.47655 0
M  V30 1510 H 147.014 -1.04319 3.6592 0
M  V30 1511 H 146.526 0.775902 3.80265 0
M  V30 1512 H 144.627 -1.64654 3.34245 0
M  V30 1513 H 144.74 -0.41973 4.77258 0
M  V30 1514 H 143.104 -0.319367 2.5269 0
M  V30 1515 H 143.887 1.20383 3.21501 0
M  V30 1516 N 146.332 -1.57332 0.0918853 0
M  V30 1517 C 147.578 -1.94524 -0.573425 0
M  V30 1518 C 147.911 -0.973578 -1.68033 0
M  V30 1519 O 147.186 -0.00609226 -1.94499 0
M  V30 1520 C 147.469 -3.41858 -1.13161 0
M  V30 1521 C 147.322 -4.4979 -0.0299747 0
M  V30 1522 C 148.641 -3.90435 -2.03098 0
M  V30 1523 H 145.76 -0.70734 -0.206975 0
M  V30 1524 H 148.402 -1.89309 0.161942 0
M  V30 1525 H 146.552 -3.46433 -1.7583 0
M  V30 1526 H 148.224 -4.57327 0.604112 0
M  V30 1527 H 146.467 -4.291 0.636833 0
M  V30 1528 H 147.138 -5.50069 -0.461287 0
M  V30 1529 H 149.614 -3.87992 -1.50338 0
M  V30 1530 H 148.49 -4.94097 -2.39081 0
M  V30 1531 H 148.751 -3.29541 -2.94712 0
M  V30 1532 N 147.81 0.181792 -1.56548 0
M  V30 1533 C 148.74 1.22765 -1.98623 0
M  V30 1534 C 149.721 1.46747 -0.860189 0
M  V30 1535 O 150.906 1.58259 -1.12551 0
M  V30 1536 C 148.036 2.56894 -2.33715 0
M  V30 1537 C 146.99 2.475 -3.49182 0
M  V30 1538 C 146.316 3.86023 -3.69986 0
M  V30 1539 C 147.616 1.98866 -4.82959 0
M  V30 1540 H 149.31 0.877942 -2.86239 0
M  V30 1541 H 146.856 0.42088 -1.37712 0
M  V30 1542 H 148.809 3.30253 -2.61746 0
M  V30 1543 H 147.533 2.93632 -1.42997 0
M  V30 1544 H 146.192 1.76596 -3.21262 0
M  V30 1545 H 145.84 4.20136 -2.76576 0
M  V30 1546 H 145.54 3.80609 -4.47672 0
M  V30 1547 H 147.064 4.60984 -4.00407 0
M  V30 1548 H 148.478 2.61992 -5.09934 0
M  V30 1549 H 146.875 2.04424 -5.64208 0
M  V30 1550 H 147.945 0.942465 -4.75653 0
M  V30 1551 N 149.288 1.51039 0.449983 0
M  V30 1552 C 150.218 1.74379 1.55288 0
M  V30 1553 C 151.199 0.593236 1.5942 0
M  V30 1554 O 152.384 0.834625 1.7535 0
M  V30 1555 C 149.514 1.85728 2.93466 0
M  V30 1556 C 148.468 3.01078 3.04197 0
M  V30 1557 C 147.794 2.97595 4.44231 0
M  V30 1558 C 149.094 4.41254 2.7945 0
M  V30 1559 H 150.788 2.66725 1.36008 0
M  V30 1560 H 148.334 1.2835 0.652864 0
M  V30 1561 H 150.287 2.0064 3.70569 0
M  V30 1562 H 149.011 0.900207 3.13949 0
M  V30 1563 H 147.67 2.85851 2.29531 0
M  V30 1564 H 147.318 1.99691 4.61663 0
M  V30 1565 H 147.018 3.75046 4.52343 0
M  V30 1566 H 148.542 3.14583 5.23326 0
M  V30 1567 H 149.956 4.56897 3.46292 0
M  V30 1568 H 148.353 5.20315 2.98985 0
M  V30 1569 H 149.423 4.52164 1.75144 0
M  V30 1570 N 150.766 -0.704594 1.40972 0
M  V30 1571 C 151.991 -1.49858 1.43378 0
M  V30 1572 C 152.416 -1.88061 0.038184 0
M  V30 1573 O 151.774 -1.5402 -0.956425 0
M  V30 1574 C 151.822 -2.74333 2.34038 0
M  V30 1575 O 150.926 -3.7147 1.7912 0
M  V30 1576 H 150.267 -0.45139 0.486974 0
M  V30 1577 H 152.797 -0.866832 1.8533 0
M  V30 1578 H 152.807 -3.22741 2.49604 0
M  V30 1579 H 151.482 -2.45863 3.35446 0
M  V30 1580 H 150.059 -3.30363 1.72958 0
M  V30 1581 N 152.244 -1.26651 -0.937939 0
M  V30 1582 C 153.154 -1.10276 -2.07066 0
M  V30 1583 C 154.17 -0.0354197 -1.73964 0
M  V30 1584 O 155.346 -0.239816 -1.99967 0
M  V30 1585 C 152.411 -0.740887 -3.38691 0
M  V30 1586 C 151.472 -1.88799 -3.85556 0
M  V30 1587 C 150.705 -1.54329 -5.10899 0
M  V30 1588 O 150.928 -0.446494 -5.6865 0
M  V30 1589 O 149.862 -2.37911 -5.52885 0
M  V30 1590 H 153.688 -2.05309 -2.23789 0
M  V30 1591 H 151.273 -1.05743 -1.0554 0
M  V30 1592 H 153.155 -0.55195 -4.1777 0
M  V30 1593 H 151.83 0.180022 -3.23199 0
M  V30 1594 H 150.737 -2.13191 -3.07409 0
M  V30 1595 H 152.07 -2.78874 -4.05574 0
M  V30 1596 N 153.722 1.14298 -1.08507 0
M  V30 1597 C 154.652 2.21542 -0.737646 0
M  V30 1598 C 155.633 1.67773 0.280377 0
M  V30 1599 O 156.818 1.93616 0.150521 0
M  V30 1600 C 153.948 3.46988 -0.147259 0
M  V30 1601 C 152.902 4.13789 -1.09374 0
M  V30 1602 C 152.228 5.33449 -0.365524 0
M  V30 1603 C 153.528 4.62208 -2.4323 0
M  V30 1604 H 155.222 2.5086 -1.6343 0
M  V30 1605 H 152.768 1.20576 -0.787243 0
M  V30 1606 H 154.721 4.21262 0.107808 0
M  V30 1607 H 153.445 3.17037 0.784538 0
M  V30 1608 H 152.104 3.4147 -1.33393 0
M  V30 1609 H 151.752 4.99759 0.57011 0
M  V30 1610 H 151.452 5.79088 -0.996512 0
M  V30 1611 H 152.976 6.10485 -0.118534 0
M  V30 1612 H 154.39 5.27952 -2.23472 0
M  V30 1613 H 152.787 5.18553 -3.02031 0
M  V30 1614 H 153.857 3.77224 -3.04681 0
M  V30 1615 N 155.201 0.870884 1.31352 0
M  V30 1616 C 156.429 0.49677 2.00848 0
M  V30 1617 C 156.844 -0.910998 1.65367 0
M  V30 1618 O 156.201 -1.59696 0.883374 0
M  V30 1619 C 156.252 0.645308 3.55694 0
M  V30 1620 O 155.973 1.99764 3.89905 0
M  V30 1621 C 157.474 0.272326 4.42463 0
M  V30 1622 H 154.694 0.193462 0.642506 0
M  V30 1623 H 157.238 1.1723 1.67563 0
M  V30 1624 H 155.393 0.0173176 3.87396 0
M  V30 1625 H 155.807 2.00607 4.84621 0
M  V30 1626 H 157.281 0.427208 5.50344 0
M  V30 1627 H 157.758 -0.788587 4.32062 0
M  V30 1628 H 158.364 0.876054 4.1618 0
M  V30 1629 N 156.679 -1.44442 0.630414 0
M  V30 1630 C 157.928 -2.01267 0.132073 0
M  V30 1631 C 158.241 -1.50172 -1.25331 0
M  V30 1632 O 159.447 -1.9912 -1.84562 0
M  V30 1633 C 157.903 -3.59422 0.185362 0
M  V30 1634 C 157.511 -4.19514 1.57201 0
M  V30 1635 C 159.255 -4.23724 -0.256553 0
M  V30 1636 C 157.162 -5.69891 1.58045 0
M  V30 1637 H 156.092 -0.752619 0.0456092 0
M  V30 1638 H 158.743 -1.65666 0.789106 0
M  V30 1639 H 157.125 -3.92318 -0.538759 0
M  V30 1640 H 158.299 -3.98156 2.31966 0
M  V30 1641 H 156.614 -3.67496 1.95795 0
M  V30 1642 H 159.211 -5.34019 -0.269767 0
M  V30 1643 H 159.554 -3.96013 -1.28372 0
M  V30 1644 H 160.087 -3.95629 0.41505 0
M  V30 1645 H 156.826 -6.02336 2.58597 0
M  V30 1646 H 156.346 -5.93373 0.875725 0
M  V30 1647 H 158.025 -6.33515 1.31408 0
M  V30 1648 N 158.157 -0.370918 -1.53173 0
M  V30 1649 C 159.12 0.460778 -2.24521 0
M  V30 1650 C 160.12 1.00536 -1.25496 0
M  V30 1651 O 161.31 0.890266 -1.49733 0
M  V30 1652 C 158.442 1.64457 -2.98608 0
M  V30 1653 H 159.635 -0.163613 -2.99453 0
M  V30 1654 H 157.188 -0.122699 -1.55818 0
M  V30 1655 H 157.923 2.30691 -2.2793 0
M  V30 1656 H 157.708 1.26099 -3.7127 0
M  V30 1657 H 159.198 2.23384 -3.5283 0
M  V30 1658 N 159.635 1.57281 -0.100228 0
M  V30 1659 C 160.863 1.98879 0.570509 0
M  V30 1660 C 161.278 0.979476 1.61405 0
M  V30 1661 O 160.635 -0.0302288 1.82475 0
M  V30 1662 C 160.686 3.4052 1.2136 0
M  V30 1663 O 160.407 4.37588 0.211786 0
M  V30 1664 C 161.908 3.97149 1.96945 0
M  V30 1665 H 159.128 0.653428 0.152555 0
M  V30 1666 H 161.672 2.03697 -0.18103 0
M  V30 1667 H 159.827 3.367 1.91603 0
M  V30 1668 H 160.241 5.20118 0.676607 0
M  V30 1669 H 161.715 4.98393 2.37294 0
M  V30 1670 H 162.192 3.3525 2.83733 0
M  V30 1671 H 162.798 4.04458 1.31506 0
M  V30 1672 N 161.113 -0.173488 1.56642 0
M  V30 1673 C 162.076 -1.19859 1.95362 0
M  V30 1674 C 163.076 -1.37296 0.83704 0
M  V30 1675 O 164.266 -1.34739 1.10413 0
M  V30 1676 C 161.398 -2.56405 2.24654 0
M  V30 1677 H 162.591 -0.867062 2.87092 0
M  V30 1678 H 160.144 -0.415853 1.50666 0
M  V30 1679 H 160.879 -2.94576 1.35631 0
M  V30 1680 H 160.664 -2.45115 3.06041 0
M  V30 1681 H 162.154 -3.30287 2.5554 0
M  V30 1682 N 162.591 -1.51276 -0.441967 0
M  V30 1683 C 163.521 -1.752 -1.54361 0
M  V30 1684 C 164.502 -0.601682 -1.59103 0
M  V30 1685 O 165.687 -0.843913 -1.74905 0
M  V30 1686 C 162.817 -1.87282 -2.92477 0
M  V30 1687 C 161.771 -3.02687 -3.02596 0
M  V30 1688 C 161.097 -2.99947 -4.42647 0
M  V30 1689 C 162.397 -4.4273 -2.77106 0
M  V30 1690 H 164.091 -2.67442 -1.34592 0
M  V30 1691 H 161.637 -1.28694 -0.646048 0
M  V30 1692 H 163.59 -2.02602 -3.695 0
M  V30 1693 H 162.314 -0.916844 -3.13467 0
M  V30 1694 H 160.973 -2.87065 -2.28012 0
M  V30 1695 H 160.621 -2.02136 -4.60597 0
M  V30 1696 H 160.321 -3.77439 -4.50348 0
M  V30 1697 H 161.845 -3.17354 -5.2165 0
M  V30 1698 H 163.259 -4.58727 -3.43864 0
M  V30 1699 H 161.656 -5.21893 -2.96222 0
M  V30 1700 H 162.726 -4.53087 -1.72744 0
M  V30 1701 N 164.069 0.697108 -1.41344 0
M  V30 1702 C 165.485 1.00751 -1.2378 0
M  V30 1703 C 165.685 2.01105 -0.126066 0
M  V30 1704 O 164.741 2.47295 0.51004 0
M  V30 1705 C 166.054 1.53359 -2.58653 0
M  V30 1706 C 167.602 1.6525 -2.65822 0
M  V30 1707 C 168.077 2.2126 -4.01009 0
M  V30 1708 N 169.568 2.28622 -4.02847 0
M  V30 1709 C 170.303 2.72984 -5.04249 0
M  V30 1710 N 169.799 3.16962 -6.16041 0
M  V30 1711 N 171.592 2.72534 -4.91611 0
M  V30 1712 H 163.743 0.0322662 -2.12375 0
M  V30 1713 H 166.006 0.0768853 -0.944877 0
M  V30 1714 H 165.712 0.870773 -3.4075 0
M  V30 1715 H 165.586 2.51597 -2.81032 0
M  V30 1716 H 167.973 2.30644 -1.84086 0
M  V30 1717 H 168.054 0.655614 -2.47256 0
M  V30 1718 H 167.698 1.56482 -4.83193 0
M  V30 1719 H 167.628 3.21698 -4.16915 0
M  V30 1720 H 170.119 1.97585 -3.22131 0
M  V30 1721 H 170.432 3.49434 -6.89287 0
M  V30 1722 H 168.777 3.14875 -6.1958 0
M  V30 1723 H 171.968 2.37525 -4.0336 0
M  V30 1724 H 172.141 3.06789 -5.70775 0
M  V30 1725 N 165.547 1.27147 0.931209 0
M  V30 1726 C 166.775 1.16082 1.71267 0
M  V30 1727 C 167.19 -0.282772 1.8667 0
M  V30 1728 O 166.547 -1.19283 1.38122 0
M  V30 1729 C 166.598 1.8358 3.11417 0
M  V30 1730 O 166.319 3.22299 2.96741 0
M  V30 1731 C 167.82 1.78597 4.05732 0
M  V30 1732 H 165.04 0.403758 0.535929 0
M  V30 1733 H 167.584 1.67953 1.16671 0
M  V30 1734 H 165.739 1.35623 3.62885 0
M  V30 1735 H 166.153 3.55851 3.85319 0
M  V30 1736 H 167.627 2.30444 5.01597 0
M  V30 1737 H 168.104 0.754564 4.3267 0
M  V30 1738 H 168.71 2.26152 3.60188 0
M  V30 1739 N 167.025 -1.13721 1.09112 0
M  V30 1740 C 167.988 -2.17222 0.731241 0
M  V30 1741 C 168.988 -1.59035 -0.237566 0
M  V30 1742 O 170.178 -1.74192 -0.0161704 0
M  V30 1743 C 167.31 -3.40804 0.0808443 0
M  V30 1744 H 168.503 -2.50573 1.64783 0
M  V30 1745 H 166.056 -1.28493 0.889897 0
M  V30 1746 H 166.791 -3.1304 -0.847127 0
M  V30 1747 H 166.576 -3.84306 0.777896 0
M  V30 1748 H 168.066 -4.1731 -0.155657 0
M  V30 1749 N 168.503 -0.877838 -1.30888 0
M  V30 1750 C 169.466 -0.344265 -2.266 0
M  V30 1751 C 170.466 0.50922 -1.52524 0
M  V30 1752 O 171.656 0.317398 -1.71284 0
M  V30 1753 C 168.788 0.510198 -3.37061 0
M  V30 1754 H 169.981 -1.1893 -2.7531 0
M  V30 1755 H 167.534 -0.654088 -1.41956 0
M  V30 1756 H 168.269 1.37612 -2.93655 0
M  V30 1757 H 168.054 -0.101047 -3.9197 0
M  V30 1758 H 169.544 0.875537 -4.08319 0
M  V30 1759 N 169.982 1.44106 -0.638065 0
M  V30 1760 C 171.21 2.06336 -0.152615 0
M  V30 1761 C 171.625 1.47731 1.17563 0
M  V30 1762 O 170.982 0.602806 1.72257 0
M  V30 1763 C 171.033 3.61479 -0.0391491 0
M  V30 1764 O 170.754 4.17903 -1.31487 0
M  V30 1765 C 172.255 4.40757 0.474176 0
M  V30 1766 H 169.475 0.665862 -0.0828776 0
M  V30 1767 H 172.019 1.84862 -0.87443 0
M  V30 1768 H 170.174 3.82191 0.633142 0
M  V30 1769 H 170.588 5.11416 -1.16421 0
M  V30 1770 H 172.062 5.49707 0.502562 0
M  V30 1771 H 172.539 4.12697 1.50258 0
M  V30 1772 H 173.145 4.24979 -0.165102 0
M  V30 1773 N 171.46 0.379036 1.52974 0
M  V30 1774 C 172.685 -0.209353 2.06341 0
M  V30 1775 C 173.11 -1.40583 1.24972 0
M  V30 1776 O 172.468 -1.79246 0.272155 0
M  V30 1777 C 172.516 -0.567786 3.56102 0
M  V30 1778 O 171.62 -1.66318 3.77375 0
M  V30 1779 H 170.961 -0.0272919 0.663439 0
M  V30 1780 H 173.491 0.543536 1.97248 0
M  V30 1781 H 173.501 -0.835003 3.99364 0
M  V30 1782 H 172.176 0.307013 4.14765 0
M  V30 1783 H 170.753 -1.39048 3.46006 0
M  V30 1784 N 172.938 -1.57226 0.108567 0
M  V30 1785 C 173.868 -2.17778 -0.84232 0
M  V30 1786 C 174.849 -1.11487 -1.2847 0
M  V30 1787 O 176.034 -1.39681 -1.34918 0
M  V30 1788 C 173.164 -2.76888 -2.09644 0
M  V30 1789 C 172.118 -3.88669 -1.79221 0
M  V30 1790 C 171.444 -4.34541 -3.11574 0
M  V30 1791 C 172.744 -5.11251 -1.06864 0
M  V30 1792 H 174.438 -2.97489 -0.337774 0
M  V30 1793 H 171.984 -1.43097 -0.161025 0
M  V30 1794 H 173.937 -3.17904 -2.76614 0
M  V30 1795 H 172.661 -1.94451 -2.62405 0
M  V30 1796 H 171.32 -3.48213 -1.14644 0
M  V30 1797 H 170.968 -3.48977 -3.62249 0
M  V30 1798 H 170.668 -5.09914 -2.91996 0
M  V30 1799 H 172.192 -4.782 -3.7968 0
M  V30 1800 H 173.606 -5.49352 -1.63968 0
M  V30 1801 H 172.003 -5.9214 -0.974178 0
M  V30 1802 H 173.073 -4.8487 -0.0536168 0
M  V30 1803 N 174.416 0.165178 -1.56732 0
M  V30 1804 C 175.349 1.23336 -1.91998 0
M  V30 1805 C 176.327 1.42476 -0.783531 0
M  V30 1806 O 177.511 1.57384 -1.03743 0
M  V30 1807 C 174.638 2.59533 -2.17625 0
M  V30 1808 C 173.684 2.57093 -3.40302 0
M  V30 1809 S 174.517 2.05571 -4.9447 0
M  V30 1810 C 175.673 3.43532 -5.23198 0
M  V30 1811 H 175.906 0.932387 -2.82301 0
M  V30 1812 H 173.439 0.370013 -1.49901 0
M  V30 1813 H 175.397 3.37918 -2.3307 0
M  V30 1814 H 174.058 2.86827 -1.28019 0
M  V30 1815 H 173.251 3.57308 -3.55453 0
M  V30 1816 H 172.853 1.86806 -3.24005 0
M  V30 1817 H 175.145 4.39559 -5.15552 0
M  V30 1818 H 176.088 3.33251 -6.2478 0
M  V30 1819 H 176.496 3.39828 -4.50752 0
M  V30 1820 N 175.894 1.51508 0.433938 0
M  V30 1821 C 176.857 1.72473 1.50949 0
M  V30 1822 C 177.857 0.594725 1.49398 0
M  V30 1823 O 179.047 0.862315 1.5136 0
M  V30 1824 C 176.179 1.78431 2.90474 0
M  V30 1825 H 177.372 2.68467 1.33662 0
M  V30 1826 H 174.925 1.41549 0.662836 0
M  V30 1827 H 175.66 0.842645 3.13161 0
M  V30 1828 H 175.445 2.60558 2.93005 0
M  V30 1829 H 176.935 1.96479 3.68491 0
M  V30 1830 N 177.372 -0.689602 1.41712 0
M  V30 1831 C 178.335 -1.78521 1.43746 0
M  V30 1832 C 179.335 -1.57436 0.327191 0
M  V30 1833 O 180.525 -1.64 0.587348 0
M  V30 1834 C 177.657 -3.16971 1.25467 0
M  V30 1835 H 178.85 -1.78108 2.41283 0
M  V30 1836 H 176.403 -0.89781 1.27942 0
M  V30 1837 H 177.138 -3.23019 0.287948 0
M  V30 1838 H 176.923 -3.33678 2.05917 0
M  V30 1839 H 178.413 -3.96935 1.2974 0
M  V30 1840 N 178.85 -1.27639 -0.924453 0
M  V30 1841 C 179.782 -1.06442 -2.02985 0
M  V30 1842 C 180.795 -0.0194771 -1.62788 0
M  V30 1843 O 181.984 -0.261388 -1.76576 0
M  V30 1844 C 179.084 -0.59327 -3.33667 0
M  V30 1845 C 178.257 -1.71123 -4.02537 0
M  V30 1846 C 177.316 -1.23527 -5.11495 0
M  V30 1847 O 176.342 -1.93553 -5.35281 0
M  V30 1848 N 177.544 -0.0926678 -5.80426 0
M  V30 1849 H 180.309 -2.01633 -2.2173 0
M  V30 1850 H 177.87 -1.19248 -1.09505 0
M  V30 1851 H 179.862 -0.258686 -4.03872 0
M  V30 1852 H 178.432 0.265502 -3.1147 0
M  V30 1853 H 177.652 -2.21593 -3.26022 0
M  V30 1854 H 178.94 -2.46145 -4.45298 0
M  V30 1855 H 178.338 0.491741 -5.63559 0
M  V30 1856 H 176.895 0.182714 -6.51544 0
M  V30 1857 N 180.328 1.1314 -1.09713 0
M  V30 1858 C 181.291 2.16831 -0.742751 0
M  V30 1859 C 182.291 1.59159 0.229129 0
M  V30 1860 O 183.481 1.74199 0.00693237 0
M  V30 1861 C 180.613 3.40756 -0.0989168 0
M  V30 1862 H 181.806 2.49695 -1.66109 0
M  V30 1863 H 179.359 1.2802 -0.896699 0
M  V30 1864 H 180.094 3.13485 0.830514 0
M  V30 1865 H 179.879 3.83888 -0.798265 0
M  V30 1866 H 181.369 4.17386 0.133524 0
M  V30 1867 N 181.806 0.884767 1.30421 0
M  V30 1868 C 182.736 0.367574 2.30589 0
M  V30 1869 C 183.717 -0.549464 1.60981 0
M  V30 1870 O 184.902 -0.46336 1.88591 0
M  V30 1871 C 182.032 -0.418944 3.44764 0
M  V30 1872 C 180.986 0.406316 4.26067 0
M  V30 1873 C 180.312 -0.506793 5.32293 0
M  V30 1874 C 181.612 1.64832 4.95608 0
M  V30 1875 H 183.306 1.20462 2.74097 0
M  V30 1876 H 180.852 0.580695 1.31772 0
M  V30 1877 H 182.805 -0.791395 4.13902 0
M  V30 1878 H 181.529 -1.28964 3.0006 0
M  V30 1879 H 180.188 0.760903 3.58617 0
M  V30 1880 H 179.836 -1.37519 4.83836 0
M  V30 1881 H 179.536 0.0415828 5.87585 0
M  V30 1882 H 181.06 -0.875764 6.04287 0
M  V30 1883 H 182.474 1.34646 5.57264 0
M  V30 1884 H 180.871 2.13688 5.60765 0
M  V30 1885 H 181.941 2.39284 4.21748 0
M  V30 1886 N 183.284 -1.43765 0.645699 0
M  V30 1887 C 184.247 -2.29163 -0.0409488 0
M  V30 1888 C 185.247 -1.41813 -0.757996 0
M  V30 1889 O 186.437 -1.63527 -0.600382 0
M  V30 1890 C 183.569 -3.23716 -1.06869 0
M  V30 1891 H 184.762 -2.91366 0.710345 0
M  V30 1892 H 182.315 -1.5092 0.406547 0
M  V30 1893 H 183.05 -2.66393 -1.84947 0
M  V30 1894 H 182.835 -3.88105 -0.558277 0
M  V30 1895 H 184.325 -3.87831 -1.54845 0
M  V30 1896 N 184.763 -0.387143 -1.52771 0
M  V30 1897 C 186.179 -0.037007 -1.59557 0
M  V30 1898 C 186.379 1.44801 -1.40124 0
M  V30 1899 O 185.435 2.21227 -1.21716 0
M  V30 1900 C 186.748 -0.512256 -2.96305 0
M  V30 1901 C 188.296 -0.468328 -3.09476 0
M  V30 1902 C 188.771 -0.919731 -4.4867 0
M  V30 1903 N 190.262 -0.875656 -4.54848 0
M  V30 1904 C 190.997 -1.19637 -5.6078 0
M  V30 1905 N 190.493 -1.58745 -6.74368 0
M  V30 1906 N 192.286 -1.11776 -5.50874 0
M  V30 1907 H 184.437 -1.35395 -1.63652 0
M  V30 1908 H 186.7 -0.554818 -0.768688 0
M  V30 1909 H 186.406 -1.54935 -3.15734 0
M  V30 1910 H 186.28 0.089805 -3.77093 0
M  V30 1911 H 188.667 0.559671 -2.89744 0
M  V30 1912 H 188.748 -1.10616 -2.30646 0
M  V30 1913 H 188.392 -1.94595 -4.69143 0
M  V30 1914 H 188.322 -0.258927 -5.25963 0
M  V30 1915 H 190.813 -0.587843 -3.733 0
M  V30 1916 H 191.126 -1.81586 -7.51163 0
M  V30 1917 H 189.471 -1.6263 -6.75705 0
M  V30 1918 H 192.662 -0.811264 -4.61016 0
M  V30 1919 H 192.835 -1.37103 -6.3333 0
M  V30 1920 N 186.241 1.57166 -0.116904 0
M  V30 1921 C 187.652 1.82169 0.408809 0
M  V30 1922 C 188.003 1.03393 1.66746 0
M  V30 1923 O 187.128 0.269886 2.1471 0
M  V30 1924 C 187.723 3.30429 0.748466 0
M  V30 1925 C 186.282 3.5612 1.21882 0
M  V30 1926 C 185.429 2.76374 0.226452 0
M  V30 1927 H 188.38 1.5497 -0.342063 0
M  V30 1928 H 188.401 3.44943 1.60607 0
M  V30 1929 H 187.913 3.87737 -0.167784 0
M  V30 1930 H 186.014 3.04168 2.15204 0
M  V30 1931 H 186.127 4.64705 1.16559 0
M  V30 1932 H 184.491 2.44515 0.713063 0
M  V30 1933 H 185.274 3.3644 -0.682859 0
M  V30 1934 N 187.719 -0.156864 1.56817 0
M  V30 1935 C 188.667 -1.21319 1.98455 0
M  V30 1936 C 189.661 -1.45025 0.875444 0
M  V30 1937 O 190.867 -1.45435 1.0606 0
M  V30 1938 H 187.242 -0.408142 0.631605 0
M  V30 1939 H 189.213 -0.835244 2.86472 0
M  V30 1940 C 187.962 -2.54148 2.37285 0
M  V30 1941 H 187.285 -2.36733 3.22176 0
M  V30 1942 H 188.725 -3.26712 2.70251 0
M  V30 1943 C 187.184 -3.13967 1.22173 0
M  V30 1944 O 187.714 -3.98357 0.517149 0
M  V30 1945 N 185.92 -2.7327 0.988536 0
M  V30 1946 H 185.467 -2.04744 1.56326 0
M  V30 1947 H 185.425 -3.13628 0.220209 0
M  V30 1948 N 189.197 -1.51736 -0.425897 0
M  V30 1949 C 190.16 -1.73271 -1.50032 0
M  V30 1950 C 191.16 -0.602639 -1.4908 0
M  V30 1951 O 192.35 -0.87033 -1.509 0
M  V30 1952 C 189.482 -1.79969 -2.89523 0
M  V30 1953 H 190.675 -2.69172 -1.32237 0
M  V30 1954 H 188.228 -1.41899 -0.65532 0
M  V30 1955 H 188.963 -0.859241 -3.1271 0
M  V30 1956 H 188.748 -2.62109 -2.91619 0
M  V30 1957 H 190.238 -1.9843 -3.67444 0
M  V30 1958 N 190.675 0.682077 -1.42076 0
M  V30 1959 C 192.091 0.994324 -1.24841 0
M  V30 1960 C 192.291 2.0096 -0.147389 0
M  V30 1961 O 191.347 2.47822 0.483782 0
M  V30 1962 C 192.66 1.50607 -2.60265 0
M  V30 1963 C 194.208 1.62421 -2.6756 0
M  V30 1964 C 194.683 2.16994 -4.03333 0
M  V30 1965 N 196.174 2.24337 -4.0525 0
M  V30 1966 C 196.909 2.67621 -5.07116 0
M  V30 1967 N 196.405 3.1041 -6.19368 0
M  V30 1968 N 198.198 2.67305 -4.94474 0
M  V30 1969 H 190.349 0.00973908 -2.12398 0
M  V30 1970 H 192.612 0.0668593 -0.945639 0
M  V30 1971 H 192.318 0.834583 -3.41654 0
M  V30 1972 H 192.192 2.48602 -2.83684 0
M  V30 1973 H 194.579 2.28678 -1.86521 0
M  V30 1974 H 194.66 0.629352 -2.47937 0
M  V30 1975 H 194.304 1.51349 -4.84826 0
M  V30 1976 H 194.234 3.17258 -4.20304 0
M  V30 1977 H 196.725 1.94158 -3.24209 0
M  V30 1978 H 197.038 3.42103 -6.92954 0
M  V30 1979 H 195.383 3.08286 -6.22884 0
M  V30 1980 H 198.574 2.33233 -4.05857 0
M  V30 1981 H 198.747 3.00718 -5.73997 0
M  V30 1982 N 192.153 1.28127 0.917671 0
M  V30 1983 C 193.1 1.11717 2.0196 0
M  V30 1984 C 194.07 0.0153929 1.66093 0
M  V30 1985 O 195.255 0.179596 1.89953 0
M  V30 1986 C 192.395 0.780927 3.36148 0
M  V30 1987 C 191.508 1.96135 3.84909 0
M  V30 1988 C 190.643 1.56609 5.0759 0
M  V30 1989 C 189.682 2.71339 5.48673 0
M  V30 1990 N 188.819 2.32332 6.62545 0
M  V30 1991 H 193.659 2.06003 2.15329 0
M  V30 1992 H 191.196 1.02535 1.05475 0
M  V30 1993 H 193.154 0.56675 4.13333 0
M  V30 1994 H 191.784 -0.124998 3.22558 0
M  V30 1995 H 190.836 2.28777 3.03916 0
M  V30 1996 H 192.148 2.82165 4.1132 0
M  V30 1997 H 191.302 1.31374 5.92305 0
M  V30 1998 H 190.041 0.677014 4.82978 0
M  V30 1999 H 189.046 2.97276 4.62501 0
M  V30 2000 H 190.271 3.60882 5.75274 0
M  V30 2001 H 188.217 1.45889 6.39572 0
M  V30 2002 H 188.134 3.11899 6.88662 0
M  V30 2003 H 189.402 2.10371 7.50576 0
M  V30 2004 N 193.631 -1.12557 1.10312 0
M  V30 2005 C 194.564 -2.1737 0.694674 0
M  V30 2006 C 195.542 -1.59745 -0.303373 0
M  V30 2007 O 196.726 -1.87408 -0.202578 0
M  V30 2008 C 193.853 -3.38691 0.0248052 0
M  V30 2009 C 192.899 -4.14943 0.986121 0
M  V30 2010 S 193.732 -4.73413 2.50281 0
M  V30 2011 C 194.888 -5.9807 1.84562 0
M  V30 2012 H 195.121 -2.5168 1.58255 0
M  V30 2013 H 192.654 -1.23998 0.919992 0
M  V30 2014 H 194.612 -4.08959 -0.355361 0
M  V30 2015 H 193.273 -3.02664 -0.839851 0
M  V30 2016 H 192.466 -5.01854 0.464651 0
M  V30 2017 H 192.068 -3.50377 1.30813 0
M  V30 2018 H 194.36 -6.67232 1.17507 0
M  V30 2019 H 195.303 -6.54841 2.69423 0
M  V30 2020 H 195.711 -5.49073 1.31069 0
M  V30 2021 N 195.109 -0.891671 -1.2995 0
M  V30 2022 C 196.072 -0.36828 -2.26222 0
M  V30 2023 C 197.072 0.493014 -1.53056 0
M  V30 2024 O 198.262 0.299213 -1.71611 0
M  V30 2025 C 195.394 0.47442 -3.37583 0
M  V30 2026 H 196.587 -1.21844 -2.74033 0
M  V30 2027 H 194.14 -0.669107 -1.41254 0
M  V30 2028 H 194.875 1.34489 -2.95099 0
M  V30 2029 H 194.66 -0.142615 -3.91841 0
M  V30 2030 H 196.15 0.83218 -4.09224 0
M  V30 2031 N 196.587 1.43421 -0.653314 0
M  V30 2032 C 197.517 2.33487 0.0246656 0
M  V30 2033 C 198.498 1.49475 0.811863 0
M  V30 2034 O 199.683 1.78139 0.773322 0
M  V30 2035 C 196.813 3.32841 0.99166 0
M  V30 2036 C 195.767 4.26842 0.314568 0
M  V30 2037 C 195.093 5.16236 1.39302 0
M  V30 2038 C 196.393 5.16243 -0.793095 0
M  V30 2039 H 198.087 2.90427 -0.727481 0
M  V30 2040 H 195.633 1.39649 -0.351287 0
M  V30 2041 H 197.586 3.94747 1.47487 0
M  V30 2042 H 196.31 2.74158 1.77497 0
M  V30 2043 H 194.969 3.663 -0.148199 0
M  V30 2044 H 194.617 4.53891 2.16776 0
M  V30 2045 H 194.317 5.79948 0.945223 0
M  V30 2046 H 195.841 5.81015 1.87759 0
M  V30 2047 H 197.255 5.71958 -0.392039 0
M  V30 2048 H 195.652 5.88676 -1.16536 0
M  V30 2049 H 196.722 4.55927 -1.65103 0
M  V30 2050 N 198.065 0.39524 1.52563 0
M  V30 2051 C 199.314 -0.186321 2.00838 0
M  V30 2052 C 199.627 -1.47402 1.28577 0
M  V30 2053 O 200.833 -2.13599 1.67593 0
M  V30 2054 C 199.289 -0.382595 3.57861 0
M  V30 2055 C 198.897 0.892202 4.39026 0
M  V30 2056 C 200.641 -0.9202 4.14406 0
M  V30 2057 C 198.548 0.66388 5.87662 0
M  V30 2058 H 197.478 -0.0734041 0.750418 0
M  V30 2059 H 200.129 0.518552 1.76021 0
M  V30 2060 H 198.511 -1.14946 3.7895 0
M  V30 2061 H 199.685 1.66414 4.29701 0
M  V30 2062 H 198 1.35519 3.9373 0
M  V30 2063 H 200.597 -1.10683 5.23119 0
M  V30 2064 H 200.94 -1.89096 3.70875 0
M  V30 2065 H 201.473 -0.212751 3.97231 0
M  V30 2066 H 198.212 1.6058 6.35527 0
M  V30 2067 H 197.732 -0.0690193 5.9976 0
M  V30 2068 H 199.411 0.300699 6.46301 0
M  V30 2069 N 199.544 -1.57102 0.125237 0
M  V30 2070 C 200.792 -1.95021 -0.530198 0
M  V30 2071 C 201.113 -1.00982 -1.66816 0
M  V30 2072 O 200.383 -0.0672693 -1.95784 0
M  V30 2073 H 198.963 -0.720046 -0.198853 0
M  V30 2074 H 201.625 -1.93916 0.19564 0
M  V30 2075 H 200.721 -2.98211 -0.920681 0
M  V30 2076 N 201.022 0.148545 -1.56898 0
M  V30 2077 C 201.97 1.20265 -1.99096 0
M  V30 2078 C 202.964 1.44559 -0.883123 0
M  V30 2079 O 204.17 1.4487 -1.0683 0
M  V30 2080 H 200.545 0.404786 -0.63376 0
M  V30 2081 H 202.516 0.82004 -2.86911 0
M  V30 2082 C 201.265 2.52886 -2.3863 0
M  V30 2083 H 200.588 2.35021 -3.23427 0
M  V30 2084 H 202.028 3.25274 -2.7198 0
M  V30 2085 C 200.487 3.13315 -1.23837 0
M  V30 2086 O 201.017 3.98077 -0.538268 0
M  V30 2087 N 199.223 2.72742 -1.00301 0
M  V30 2088 H 198.77 2.03912 -1.5741 0
M  V30 2089 H 198.728 3.13507 -0.236838 0
M  V30 2090 N 202.5 1.5196 0.417844 0
M  V30 2091 C 203.748 1.65263 1.16329 0
M  V30 2092 C 204.069 0.380634 1.91249 0
M  V30 2093 O 203.339 -0.604214 1.86349 0
M  V30 2094 H 201.919 0.60912 0.432414 0
M  V30 2095 H 204.581 1.88969 0.477162 0
M  V30 2096 H 203.677 2.4896 1.88217 0
M  V30 2097 N 203.978 -0.674533 1.42435 0
M  V30 2098 C 204.941 -1.76986 1.45632 0
M  V30 2099 C 205.941 -1.5708 0.343871 0
M  V30 2100 O 207.131 -1.63367 0.604709 0
M  V30 2101 C 204.263 -3.15623 1.28822 0
M  V30 2102 H 205.456 -1.75539 2.43158 0
M  V30 2103 H 203.009 -0.884189 1.28887 0
M  V30 2104 H 203.744 -3.22696 0.322193 0
M  V30 2105 H 203.529 -3.31475 2.09444 0
M  V30 2106 H 205.019 -3.95537 1.33942 0
M  V30 2107 N 205.456 -1.28612 -0.910864 0
M  V30 2108 C 206.388 -1.08589 -2.01844 0
M  V30 2109 C 207.401 -0.0367419 -1.62759 0
M  V30 2110 O 208.59 -0.280101 -1.76289 0
M  V30 2111 C 205.69 -0.628626 -3.33019 0
M  V30 2112 C 204.863 -1.75382 -4.00699 0
M  V30 2113 C 203.922 -1.28945 -5.10156 0
M  V30 2114 O 202.948 -1.9922 -5.33198 0
M  V30 2115 N 204.15 -0.154224 -5.80295 0
M  V30 2116 H 206.915 -2.03973 -2.19579 0
M  V30 2117 H 204.476 -1.20403 -1.08234 0
M  V30 2118 H 206.468 -0.301508 -4.03575 0
M  V30 2119 H 205.038 0.232451 -3.11735 0
M  V30 2120 H 204.258 -2.25039 -3.23653 0
M  V30 2121 H 205.546 -2.50854 -4.42662 0
M  V30 2122 H 204.944 0.43194 -5.64049 0
M  V30 2123 H 203.501 0.113599 -6.51701 0
M  V30 2124 N 206.934 1.1197 -1.10907 0
M  V30 2125 C 208.159 1.87942 -0.877064 0
M  V30 2126 C 208.584 1.79341 0.567314 0
M  V30 2127 O 207.942 1.15184 1.40009 0
M  V30 2128 C 207.99 3.34926 -1.33629 0
M  V30 2129 O 207.094 4.09303 -0.504447 0
M  V30 2130 H 206.435 0.583785 -0.316371 0
M  V30 2131 H 208.965 1.4157 -1.47712 0
M  V30 2132 H 208.975 3.8577 -1.32837 0
M  V30 2133 H 207.65 3.40504 -2.3881 0
M  V30 2134 H 206.227 3.68393 -0.577993 0
M  V30 2135 N 208.412 0.89855 1.29475 0
M  V30 2136 C 209.322 0.379974 2.31502 0
M  V30 2137 C 210.338 -0.524695 1.659 0
M  V30 2138 O 211.514 -0.414551 1.97087 0
M  V30 2139 C 208.579 -0.385138 3.44554 0
M  V30 2140 C 207.64 0.550914 4.2575 0
M  V30 2141 C 206.873 -0.177778 5.33404 0
M  V30 2142 O 207.096 -1.40189 5.52904 0
M  V30 2143 O 206.03 0.479106 5.9999 0
M  V30 2144 H 209.856 1.22639 2.77837 0
M  V30 2145 H 207.441 0.662834 1.33891 0
M  V30 2146 H 209.323 -0.817841 4.13388 0
M  V30 2147 H 207.998 -1.20763 3.0033 0
M  V30 2148 H 206.905 1.03271 3.59564 0
M  V30 2149 H 208.238 1.33979 4.73614 0
M  V30 2150 N 209.89 -1.43072 0.660911 0
M  V30 2151 C 211.137 -2.01721 0.177445 0
M  V30 2152 C 211.465 -1.5218 -1.21126 0
M  V30 2153 O 210.72 -0.708659 -1.82419 0
M  V30 2154 C 211.019 -3.57103 0.145563 0
M  V30 2155 C 210.685 -4.26021 1.47705 0
M  V30 2156 C 209.347 -4.44563 1.84165 0
M  V30 2157 C 211.699 -4.64983 2.35458 0
M  V30 2158 C 209.027 -4.99334 3.0803 0
M  V30 2159 C 211.379 -5.21127 3.58622 0
M  V30 2160 C 210.043 -5.37884 3.95268 0
M  V30 2161 H 209.313 -0.73815 0.0649317 0
M  V30 2162 H 211.96 -1.71446 0.853144 0
M  V30 2163 H 210.265 -3.86965 -0.61361 0
M  V30 2164 H 211.962 -4.00248 -0.2455 0
M  V30 2165 H 208.552 -4.11939 1.18339 0
M  V30 2166 H 212.736 -4.50343 2.08579 0
M  V30 2167 H 207.992 -5.10493 3.36462 0
M  V30 2168 H 212.166 -5.50262 4.26831 0
M  V30 2169 H 209.793 -5.80089 4.91325 0
M  V30 2170 N 211.368 -0.403325 -1.52352 0
M  V30 2171 C 212.3 0.4603 -2.2453 0
M  V30 2172 C 213.313 1.01505 -1.27282 0
M  V30 2173 O 214.502 0.914982 -1.53266 0
M  V30 2174 C 211.602 1.65208 -2.95905 0
M  V30 2175 C 210.775 1.22224 -4.19976 0
M  V30 2176 C 209.834 2.28028 -4.74226 0
M  V30 2177 O 208.86 1.88857 -5.36956 0
M  V30 2178 N 210.062 3.6012 -4.55295 0
M  V30 2179 H 212.827 -0.158156 -2.99282 0
M  V30 2180 H 210.388 -0.230402 -1.60252 0
M  V30 2181 H 212.38 2.35541 -3.29093 0
M  V30 2182 H 210.95 2.17658 -2.24374 0
M  V30 2183 H 210.17 0.34725 -3.92668 0
M  V30 2184 H 211.458 0.911924 -5.00561 0
M  V30 2185 H 210.856 3.94698 -4.05253 0
M  V30 2186 H 209.413 4.26447 -4.92936 0
M  V30 2187 N 212.846 1.57033 -0.133567 0
M  V30 2188 C 213.809 2.14897 0.796995 0
M  V30 2189 C 214.809 1.0874 1.18458 0
M  V30 2190 O 215.999 1.34446 1.1077 0
M  V30 2191 C 213.131 2.70112 2.07973 0
M  V30 2192 H 214.324 2.98457 0.293873 0
M  V30 2193 H 211.877 1.55871 0.115787 0
M  V30 2194 H 212.612 1.9018 2.62682 0
M  V30 2195 H 212.397 3.47764 1.81115 0
M  V30 2196 H 213.887 3.14738 2.74462 0
M  V30 2197 N 214.325 -0.140222 1.56975 0
M  V30 2198 C 215.255 -1.17456 2.01808 0
M  V30 2199 C 216.236 -1.44415 0.898794 0
M  V30 2200 O 217.421 -1.5522 1.16707 0
M  V30 2201 C 214.551 -2.50607 2.40444 0
M  V30 2202 C 213.505 -2.38155 3.55621 0
M  V30 2203 C 212.831 -3.76078 3.80091 0
M  V30 2204 C 214.131 -1.85991 4.88062 0
M  V30 2205 H 215.825 -0.801743 2.88466 0
M  V30 2206 H 213.371 -0.38422 1.38779 0
M  V30 2207 H 215.324 -3.23197 2.7041 0
M  V30 2208 H 214.048 -2.89737 1.50732 0
M  V30 2209 H 212.707 -1.68016 3.25832 0
M  V30 2210 H 212.355 -4.12656 2.87618 0
M  V30 2211 H 212.055 -3.68606 4.57606 0
M  V30 2212 H 213.579 -4.50206 4.12488 0
M  V30 2213 H 214.993 -2.4838 5.16701 0
M  V30 2214 H 213.39 -1.89393 5.6943 0
M  V30 2215 H 214.46 -0.816023 4.77984 0
M  V30 2216 N 215.803 -1.52179 -0.40978 0
M  V30 2217 C 216.766 -1.74853 -1.48186 0
M  V30 2218 C 217.766 -0.618417 -1.48433 0
M  V30 2219 O 218.956 -0.886286 -1.49969 0
M  V30 2220 C 216.088 -1.8303 -2.87598 0
M  V30 2221 H 217.281 -2.70559 -1.29374 0
M  V30 2222 H 214.834 -1.42586 -0.640233 0
M  V30 2223 H 215.569 -0.89236 -3.11781 0
M  V30 2224 H 215.354 -2.65187 -2.88822 0
M  V30 2225 H 216.844 -2.02316 -3.65319 0
M  V30 2226 N 217.281 0.66697 -1.42791 0
M  V30 2227 C 218.528 1.42699 -1.43678 0
M  V30 2228 C 218.856 1.94419 -0.0560425 0
M  V30 2229 O 218.111 1.7182 0.936831 0
M  V30 2230 C 218.41 2.6349 -2.4147 0
M  V30 2231 C 218.076 2.30267 -3.8767 0
M  V30 2232 C 216.738 2.20918 -4.27491 0
M  V30 2233 C 219.09 2.03435 -4.79858 0
M  V30 2234 C 216.418 1.82873 -5.57471 0
M  V30 2235 C 218.77 1.66892 -6.10188 0
M  V30 2236 C 217.434 1.56058 -6.49001 0
M  V30 2237 H 216.704 0.522171 -0.525755 0
M  V30 2238 H 219.351 0.759785 -1.75783 0
M  V30 2239 H 217.656 3.35279 -2.0272 0
M  V30 2240 H 219.353 3.21684 -2.39417 0
M  V30 2241 H 215.943 2.38449 -3.56146 0
M  V30 2242 H 220.127 2.09586 -4.49875 0
M  V30 2243 H 215.383 1.7306 -5.86396 0
M  V30 2244 H 219.557 1.45157 -6.81104 0
M  V30 2245 H 217.184 1.26348 -7.49627 0
M  V30 2246 N 218.759 1.29093 0.90403 0
M  V30 2247 C 219.709 1.10482 1.99443 0
M  V30 2248 C 220.693 0.0255401 1.6088 0
M  V30 2249 O 221.885 0.24677 1.75271 0
M  V30 2250 C 219.014 0.778882 3.34348 0
M  V30 2251 C 218.1 1.89749 3.79284 0
M  V30 2252 N 218.491 3.14045 3.96497 0
M  V30 2253 C 216.789 1.78955 4.08523 0
M  V30 2254 C 217.49 3.86996 4.34292 0
M  V30 2255 N 216.466 3.14909 4.43095 0
M  V30 2256 H 220.268 2.04778 2.10815 0
M  V30 2257 H 217.782 1.20155 1.09255 0
M  V30 2258 H 219.779 0.62661 4.12164 0
M  V30 2259 H 218.439 -0.156205 3.24324 0
M  V30 2260 H 219.45 3.49548 3.82148 0
M  V30 2261 H 216.127 0.926886 4.07081 0
M  V30 2262 H 217.517 4.93941 4.55491 0
M  V30 2263 N 220.237 -1.11381 1.11499 0
M  V30 2264 C 221.184 -2.17439 0.773887 0
M  V30 2265 C 222.154 -1.64132 -0.254899 0
M  V30 2266 O 223.339 -1.90345 -0.13168 0
M  V30 2267 C 220.479 -3.44373 0.223917 0
M  V30 2268 C 219.592 -4.1168 1.30934 0
M  V30 2269 C 218.727 -5.263 0.71984 0
M  V30 2270 C 217.766 -5.85493 1.78507 0
M  V30 2271 N 216.903 -6.91507 1.21502 0
M  V30 2272 H 221.743 -2.45962 1.68246 0
M  V30 2273 H 219.28 -1.20744 0.840191 0
M  V30 2274 H 221.238 -4.17047 -0.112921 0
M  V30 2275 H 219.868 -3.16232 -0.647851 0
M  V30 2276 H 218.92 -3.37073 1.76312 0
M  V30 2277 H 220.232 -4.51729 2.11524 0
M  V30 2278 H 219.386 -6.05785 0.333094 0
M  V30 2279 H 218.125 -4.87559 -0.117377 0
M  V30 2280 H 217.13 -5.04686 2.18111 0
M  V30 2281 H 218.355 -6.26301 2.62533 0
M  V30 2282 H 216.301 -6.54783 0.399455 0
M  V30 2283 H 216.218 -7.30214 1.95763 0
M  V30 2284 H 217.486 -7.74795 0.855181 0
M  V30 2285 N 221.715 -0.905404 -1.28997 0
M  V30 2286 C 222.665 -0.358713 -2.25161 0
M  V30 2287 C 223.649 0.524449 -1.52113 0
M  V30 2288 O 224.841 0.365534 -1.73184 0
M  V30 2289 C 221.97 0.407609 -3.40872 0
M  V30 2290 C 221.056 -0.490797 -4.21251 0
M  V30 2291 N 221.447 -1.60061 -4.79806 0
M  V30 2292 C 219.745 -0.289636 -4.45059 0
M  V30 2293 C 220.446 -2.15757 -5.40207 0
M  V30 2294 N 219.422 -1.44988 -5.23908 0
M  V30 2295 H 223.224 -1.20642 -2.67998 0
M  V30 2296 H 220.738 -0.757103 -1.43672 0
M  V30 2297 H 222.735 0.816046 -4.08835 0
M  V30 2298 H 221.395 1.25251 -2.9957 0
M  V30 2299 H 222.406 -1.98329 -4.7842 0
M  V30 2300 H 219.083 0.51643 -4.14294 0
M  V30 2301 H 220.473 -3.09069 -5.96595 0
M  V30 2302 N 223.193 1.4272 -0.668489 0
M  V30 2303 C 224.123 2.335 -0.000100175 0
M  V30 2304 C 225.104 1.50328 0.795964 0
M  V30 2305 O 226.289 1.78949 0.754385 0
M  V30 2306 C 223.419 3.33874 0.956302 0
M  V30 2307 C 222.373 4.27152 0.269278 0
M  V30 2308 C 221.699 5.17684 1.33818 0
M  V30 2309 C 222.999 5.15373 -0.847805 0
M  V30 2310 H 224.693 2.89639 -0.758244 0
M  V30 2311 H 222.239 1.39269 -0.366079 0
M  V30 2312 H 224.192 3.9629 1.43292 0
M  V30 2313 H 222.916 2.76025 1.74579 0
M  V30 2314 H 221.575 3.66123 -0.187042 0
M  V30 2315 H 221.223 4.56165 2.1195 0
M  V30 2316 H 220.923 5.80918 0.883659 0
M  V30 2317 H 222.447 5.82974 1.81586 0
M  V30 2318 H 223.861 5.7151 -0.452681 0
M  V30 2319 H 222.258 5.87407 -1.22773 0
M  V30 2320 H 223.328 4.5415 -1.69929 0
M  V30 2321 N 224.671 0.411399 1.52136 0
M  V30 2322 C 225.919 -0.163322 2.01439 0
M  V30 2323 C 226.24 -1.45453 1.29879 0
M  V30 2324 O 225.51 -1.91225 0.4254 0
M  V30 2325 H 224.09 -0.0633447 0.744309 0
M  V30 2326 H 226.752 0.548161 1.87033 0
M  V30 2327 H 225.848 -0.357817 3.10042 0
M  V30 2328 N 226.149 -1.5696 0.141893 0
M  V30 2329 C 227.398 -1.95135 -0.510427 0
M  V30 2330 C 227.711 -1.02896 -1.66348 0
M  V30 2331 O 228.917 -1.30629 -2.38009 0
M  V30 2332 C 227.373 -3.46876 -0.959427 0
M  V30 2333 C 226.981 -4.47691 0.166419 0
M  V30 2334 C 228.725 -3.93927 -1.58183 0
M  V30 2335 C 226.632 -5.90636 -0.300565 0
M  V30 2336 H 225.562 -0.728494 -0.194454 0
M  V30 2337 H 228.213 -1.8211 0.22542 0
M  V30 2338 H 226.595 -3.55215 -1.75038 0
M  V30 2339 H 227.769 -4.51043 0.94325 0
M  V30 2340 H 226.084 -4.10527 0.696905 0
M  V30 2341 H 228.681 -4.98158 -1.94275 0
M  V30 2342 H 229.024 -3.3519 -2.46888 0
M  V30 2343 H 229.557 -3.88484 -0.855863 0
M  V30 2344 H 226.296 -6.5318 0.550989 0
M  V30 2345 H 225.816 -5.90655 -1.04338 0
M  V30 2346 H 227.495 -6.42588 -0.754265 0
M  V30 2347 N 227.627 0.131896 -1.57047 0
M  V30 2348 C 228.537 1.1815 -2.02676 0
M  V30 2349 C 229.553 1.46113 -0.944824 0
M  V30 2350 O 230.729 1.57485 -1.25541 0
M  V30 2351 C 227.794 2.49139 -2.41103 0
M  V30 2352 C 226.855 2.28688 -3.63318 0
M  V30 2353 C 226.088 3.53431 -3.99903 0
M  V30 2354 O 226.311 4.60223 -3.36973 0
M  V30 2355 O 225.245 3.45198 -4.93074 0
M  V30 2356 H 229.071 0.824069 -2.92306 0
M  V30 2357 H 226.656 0.341745 -1.45439 0
M  V30 2358 H 228.538 3.26338 -2.66611 0
M  V30 2359 H 227.213 2.84382 -1.54624 0
M  V30 2360 H 226.12 1.4939 -3.42977 0
M  V30 2361 H 227.453 1.98355 -4.50462 0
M  V30 2362 N 229.106 1.52395 0.401703 0
M  V30 2363 C 230.016 1.7917 1.51444 0
M  V30 2364 C 231.032 0.677691 1.6026 0
M  V30 2365 O 232.208 0.963909 1.76835 0
M  V30 2366 C 229.273 1.94347 2.87107 0
M  V30 2367 C 228.334 3.18257 2.88116 0
M  V30 2368 C 227.567 3.32701 4.17308 0
M  V30 2369 O 227.79 2.52238 5.11598 0
M  V30 2370 O 226.724 4.25891 4.25324 0
M  V30 2371 H 230.55 2.73633 1.31752 0
M  V30 2372 H 228.135 1.3733 0.588296 0
M  V30 2373 H 230.017 2.06109 3.67555 0
M  V30 2374 H 228.692 1.03073 3.06851 0
M  V30 2375 H 227.599 3.11947 2.06494 0
M  V30 2376 H 228.932 4.09336 2.73322 0
M  V30 2377 N 230.584 -0.659388 1.43143 0
M  V30 2378 C 231.833 -1.41518 1.43721 0
M  V30 2379 C 232.146 -1.95499 0.0628176 0
M  V30 2380 O 233.352 -2.71446 -0.0539683 0
M  V30 2381 C 231.808 -2.5608 2.52885 0
M  V30 2382 C 231.416 -2.08733 3.96402 0
M  V30 2383 C 233.16 -3.3349 2.62649 0
M  V30 2384 C 231.067 -3.20469 4.97045 0
M  V30 2385 H 229.997 -0.531705 0.534608 0
M  V30 2386 H 232.648 -0.712343 1.69109 0
M  V30 2387 H 231.03 -3.28805 2.20688 0
M  V30 2388 H 232.204 -1.43059 4.3803 0
M  V30 2389 H 230.519 -1.44219 3.90627 0
M  V30 2390 H 233.116 -4.16734 3.35017 0
M  V30 2391 H 233.459 -3.8111 1.67513 0
M  V30 2392 H 233.992 -2.67842 2.94118 0
M  V30 2393 H 230.731 -2.77824 5.93712 0
M  V30 2394 H 230.251 -3.84874 4.60034 0
M  V30 2395 H 231.93 -3.85698 5.19467 0
M  V30 2396 N 232.062 -1.29571 -0.897171 0
M  V30 2397 C 233.308 -1.17863 -1.65034 0
M  V30 2398 C 233.641 0.268729 -1.92332 0
M  V30 2399 O 232.916 1.19378 -1.53555 0
M  V30 2400 C 233.199 -1.995 -2.99786 0
M  V30 2401 C 233.052 -3.5239 -2.79538 0
M  V30 2402 C 234.371 -1.82335 -4.00552 0
M  V30 2403 H 231.49 -0.429528 -0.598895 0
M  V30 2404 H 234.132 -1.59072 -1.03905 0
M  V30 2405 H 232.282 -1.64485 -3.51962 0
M  V30 2406 H 233.954 -3.97401 -2.34244 0
M  V30 2407 H 232.197 -3.77187 -2.14273 0
M  V30 2408 H 232.868 -4.04787 -3.75302 0
M  V30 2409 H 235.344 -2.12924 -3.57495 0
M  V30 2410 H 234.22 -2.41801 -4.92771 0
M  V30 2411 H 234.481 -0.779209 -4.35179 0
M  V30 2412 N 233.54 1.10788 -1.12088 0
M  V30 2413 C 234.503 2.15207 -0.788577 0
M  V30 2414 C 235.503 1.59609 0.195317 0
M  V30 2415 O 236.693 1.74174 -0.0300193 0
M  V30 2416 C 233.825 3.4047 -0.171174 0
M  V30 2417 H 235.018 2.46116 -1.71368 0
M  V30 2418 H 232.571 1.26089 -0.923652 0
M  V30 2419 H 233.306 3.15176 0.763832 0
M  V30 2420 H 233.091 3.82109 -0.879514 0
M  V30 2421 H 234.581 4.17576 0.04496 0
M  V30 2422 N 235.018 0.912232 1.28515 0
M  V30 2423 C 236.248 0.559604 1.98877 0
M  V30 2424 C 236.656 -0.863113 1.68366 0
M  V30 2425 O 235.999 -1.58304 0.931969 0
M  V30 2426 C 236.061 0.68703 3.52874 0
M  V30 2427 C 235.725 2.07901 4.06972 0
M  V30 2428 C 236.722 3.05157 4.20922 0
M  V30 2429 C 234.407 2.39178 4.417 0
M  V30 2430 C 236.401 4.31806 4.68852 0
M  V30 2431 C 234.088 3.66068 4.89324 0
M  V30 2432 C 235.086 4.62195 5.02856 0
M  V30 2433 O 234.774 5.86829 5.49442 0
M  V30 2434 H 234.506 0.212191 0.641834 0
M  V30 2435 H 237.06 1.22712 1.64715 0
M  V30 2436 H 235.29 -0.0375486 3.86682 0
M  V30 2437 H 236.979 0.341727 4.04459 0
M  V30 2438 H 237.745 2.82311 3.94367 0
M  V30 2439 H 233.624 1.65109 4.30418 0
M  V30 2440 H 237.168 5.06842 4.79329 0
M  V30 2441 H 233.065 3.88739 5.15318 0
M  V30 2442 H 233.833 5.89597 5.6773 0
M  V30 2443 N 236.496 -1.42363 0.676048 0
M  V30 2444 C 237.773 -1.95183 0.127726 0
M  V30 2445 C 238.153 -1.61641 -1.35777 0
M  V30 2446 O 237.501 -0.913216 -2.09458 0
M  V30 2447 C 237.711 -3.46721 0.398199 0
M  V30 2448 C 239.059 -4.23427 0.315383 0
M  V30 2449 O 240.083 -3.54649 0.332016 0
M  V30 2450 O 238.942 -5.45888 0.25865 0
M  V30 2451 H 236.036 -0.826992 0.00359427 0
M  V30 2452 H 238.582 -1.52184 0.750864 0
M  V30 2453 H 237.354 -3.64344 1.4272 0
M  V30 2454 H 236.977 -3.96769 -0.256885 0
M  V30 2455 N 237.974 -0.419461 -1.51915 0
M  V30 2456 C 239.202 0.152136 -2.0634 0
M  V30 2457 C 239.617 1.37988 -1.28859 0
M  V30 2458 O 238.974 1.79243 -0.343232 0
M  V30 2459 C 239.025 0.492266 -3.58133 0
M  V30 2460 O 238.746 -0.686736 -4.32684 0
M  V30 2461 C 240.247 1.11648 -4.2901 0
M  V30 2462 H 237.467 0.0158325 -0.670813 0
M  V30 2463 H 240.011 -0.593394 -1.95702 0
M  V30 2464 H 238.166 1.18769 -3.68745 0
M  V30 2465 H 238.58 -0.400341 -5.2297 0
M  V30 2466 H 240.054 1.3046 -5.36362 0
M  V30 2467 H 240.531 2.09251 -3.86148 0
M  V30 2468 H 241.137 0.460958 -4.22795 0
M  V30 2469 N 239.452 1.56882 -0.150215 0
M  V30 2470 C 240.729 1.87844 0.545327 0
M  V30 2471 C 241.109 1.0567 1.82749 0
M  V30 2472 O 240.457 0.144442 2.28043 0
M  V30 2473 C 240.667 3.39526 0.80767 0
M  V30 2474 C 242.015 4.08814 1.14703 0
M  V30 2475 O 243.039 3.44723 0.896917 0
M  V30 2476 O 241.898 5.22004 1.61784 0
M  V30 2477 H 238.992 0.778677 0.278553 0
M  V30 2478 H 241.538 1.68666 -0.187068 0
M  V30 2479 H 240.31 3.91173 -0.0996096 0
M  V30 2480 H 239.933 3.64243 1.59413 0
M  V30 2481 N 240.93 -0.123565 1.57115 0
M  V30 2482 C 242.341 -0.681198 1.73829 0
M  V30 2483 C 242.692 -1.80535 0.768214 0
M  V30 2484 O 241.817 -2.16317 -0.0599103 0
M  V30 2485 C 242.412 -1.24246 3.15196 0
M  V30 2486 C 240.971 -1.74643 3.33432 0
M  V30 2487 C 240.118 -0.644284 2.69711 0
M  V30 2488 H 243.069 0.102315 1.5837 0
M  V30 2489 H 243.09 -2.11216 3.16493 0
M  V30 2490 H 242.602 -0.424062 3.85776 0
M  V30 2491 H 240.703 -2.58974 2.67886 0
M  V30 2492 H 240.816 -1.85902 4.41562 0
M  V30 2493 H 239.18 -1.07676 2.3082 0
M  V30 2494 H 239.963 0.163058 3.42913 0
M  V30 2495 N 242.408 -1.52605 -0.393616 0
M  V30 2496 C 243.338 -1.80022 -1.48709 0
M  V30 2497 C 244.319 -0.651995 -1.57108 0
M  V30 2498 O 245.504 -0.89913 -1.72132 0
M  V30 2499 C 242.634 -1.96492 -2.86371 0
M  V30 2500 C 241.588 -3.12161 -2.92813 0
M  V30 2501 C 240.914 -3.13877 -4.3288 0
M  V30 2502 C 242.214 -4.51322 -2.6288 0
M  V30 2503 H 243.908 -2.71589 -1.26015 0
M  V30 2504 H 241.454 -1.30684 -0.604778 0
M  V30 2505 H 243.407 -2.14255 -3.62867 0
M  V30 2506 H 242.131 -1.01611 -3.10391 0
M  V30 2507 H 240.79 -2.94173 -2.18764 0
M  V30 2508 H 240.438 -2.16687 -4.53933 0
M  V30 2509 H 240.138 -3.91576 -4.38112 0
M  V30 2510 H 241.662 -3.33789 -5.1129 0
M  V30 2511 H 243.076 -4.69435 -3.29096 0
M  V30 2512 H 241.473 -5.31053 -2.79468 0
M  V30 2513 H 242.543 -4.58353 -1.58242 0
M  V30 2514 N 243.887 0.651787 -1.4349 0
M  V30 2515 C 244.85 1.74647 -1.48429 0
M  V30 2516 C 245.85 1.56513 -0.368817 0
M  V30 2517 O 247.04 1.62385 -0.630623 0
M  V30 2518 C 244.172 3.13533 -1.33827 0
M  V30 2519 H 245.365 1.71649 -2.4592 0
M  V30 2520 H 242.918 0.863573 -1.30277 0
M  V30 2521 H 243.653 3.22142 -0.37349 0
M  V30 2522 H 243.438 3.28101 -2.14691 0
M  V30 2523 H 244.928 3.93356 -1.40218 0
M  V30 2524 N 245.365 1.30045 0.890287 0
M  V30 2525 C 246.593 1.21472 1.67487 0
M  V30 2526 C 247.008 -0.223241 1.87476 0
M  V30 2527 O 246.365 -1.14828 1.41847 0
M  V30 2528 C 246.416 1.93394 3.05419 0
M  V30 2529 O 246.137 3.31576 2.86337 0
M  V30 2530 C 247.638 1.91414 3.99844 0
M  V30 2531 H 244.858 0.420604 0.522813 0
M  V30 2532 H 247.402 1.7158 1.11268 0
M  V30 2533 H 245.557 1.47099 3.58386 0
M  V30 2534 H 245.971 3.67929 3.73802 0
M  V30 2535 H 247.445 2.46285 4.94012 0
M  V30 2536 H 247.922 0.891833 4.3005 0
M  V30 2537 H 248.528 2.37496 3.52811 0
M  V30 2538 N 246.843 -1.10192 1.12674 0
M  V30 2539 C 247.806 -2.14786 0.799979 0
M  V30 2540 C 248.806 -1.59711 -0.18685 0
M  V30 2541 O 249.996 -1.74156 0.0392558 0
M  V30 2542 C 247.128 -3.40374 0.189228 0
M  V30 2543 H 248.321 -2.45203 1.72671 0
M  V30 2544 H 245.874 -1.25597 0.930326 0
M  V30 2545 H 246.609 -3.15577 -0.747107 0
M  V30 2546 H 246.394 -3.81637 0.899766 0
M  V30 2547 H 247.884 -4.17594 -0.0228143 0
M  V30 2548 N 248.321 -0.919034 -1.28029 0
M  V30 2549 C 249.268 -0.410005 -2.27129 0
M  V30 2550 C 250.238 0.518405 -1.57803 0
M  V30 2551 O 251.423 0.439451 -1.8567 0
M  V30 2552 C 248.563 0.339054 -3.4343 0
M  V30 2553 C 247.676 -0.622468 -4.27492 0
M  V30 2554 C 246.811 0.145567 -5.31001 0
M  V30 2555 C 245.85 -0.809226 -6.06727 0
M  V30 2556 N 244.987 -0.0743728 -7.02061 0
M  V30 2557 H 249.827 -1.26011 -2.70047 0
M  V30 2558 H 247.364 -0.632663 -1.328 0
M  V30 2559 H 249.322 0.789586 -4.0966 0
M  V30 2560 H 247.952 1.15346 -3.01488 0
M  V30 2561 H 247.004 -1.19153 -3.61257 0
M  V30 2562 H 248.316 -1.35252 -4.80113 0
M  V30 2563 H 247.47 0.656417 -6.03139 0
M  V30 2564 H 246.209 0.908643 -4.79161 0
M  V30 2565 H 245.214 -1.3314 -5.33436 0
M  V30 2566 H 246.439 -1.57194 -6.60656 0
M  V30 2567 H 244.385 0.670616 -6.52563 0
M  V30 2568 H 244.302 -0.744157 -7.52329 0
M  V30 2569 H 245.57 0.416109 -7.78389 0
M  V30 2570 N 249.799 1.42003 -0.683588 0
M  V30 2571 C 250.729 2.33487 -0.024866 0
M  V30 2572 C 251.71 1.51163 0.779975 0
M  V30 2573 O 252.895 1.79739 0.735362 0
M  V30 2574 C 250.025 3.3487 0.920836 0
M  V30 2575 C 248.979 4.27414 0.223958 0
M  V30 2576 C 248.305 5.19074 1.2832 0
M  V30 2577 C 249.605 5.14445 -0.90242 0
M  V30 2578 H 251.299 2.88819 -0.788921 0
M  V30 2579 H 248.845 1.38873 -0.38083 0
M  V30 2580 H 250.798 3.97787 1.39081 0
M  V30 2581 H 249.522 2.77861 1.71642 0
M  V30 2582 H 248.181 3.65904 -0.225864 0
M  V30 2583 H 247.829 4.58387 2.071 0
M  V30 2584 H 247.529 5.81822 0.821995 0
M  V30 2585 H 249.053 5.84867 1.75392 0
M  V30 2586 H 250.467 5.70998 -0.513272 0
M  V30 2587 H 248.864 5.86072 -1.28997 0
M  V30 2588 H 249.934 4.52322 -1.74737 0
M  V30 2589 N 251.277 0.427512 1.51691 0
M  V30 2590 C 252.526 -0.143679 2.01188 0
M  V30 2591 C 252.839 -1.44642 1.31674 0
M  V30 2592 O 254.045 -2.09997 1.72086 0
M  V30 2593 C 252.501 -0.306602 3.58592 0
M  V30 2594 C 252.109 0.985125 4.37035 0
M  V30 2595 C 253.853 -0.832091 4.16265 0
M  V30 2596 C 251.76 0.788382 5.86122 0
M  V30 2597 H 250.69 -0.0574701 0.751807 0
M  V30 2598 H 253.341 0.555772 1.74881 0
M  V30 2599 H 251.723 -1.06882 3.81303 0
M  V30 2600 H 252.897 1.75492 4.26074 0
M  V30 2601 H 251.212 1.4384 3.90767 0
M  V30 2602 H 253.809 -0.995617 5.25349 0
M  V30 2603 H 254.152 -1.81186 3.74803 0
M  V30 2604 H 254.685 -0.128444 3.97593 0
M  V30 2605 H 251.424 1.74025 6.31978 0
M  V30 2606 H 250.944 0.0582143 5.99772 0
M  V30 2607 H 252.623 0.437722 6.45518 0
M  V30 2608 N 252.755 -1.56801 0.158532 0
M  V30 2609 C 253.718 -2.16138 -0.762705 0
M  V30 2610 C 254.718 -1.1061 -1.16713 0
M  V30 2611 O 255.908 -1.36191 -1.08617 0
M  V30 2612 C 253.04 -2.73386 -2.03649 0
M  V30 2613 H 254.233 -2.98886 -0.246354 0
M  V30 2614 H 251.786 -1.56035 -0.0909744 0
M  V30 2615 H 252.521 -1.94335 -2.59623 0
M  V30 2616 H 252.306 -3.50601 -1.75559 0
M  V30 2617 H 253.796 -3.19065 -2.6942 0
M  V30 2618 N 254.233 0.115231 -1.57178 0
M  V30 2619 C 255.181 1.16014 -2.01602 0
M  V30 2620 C 256.175 1.42653 -0.913587 0
M  V30 2621 O 257.381 1.42571 -1.09879 0
M  V30 2622 H 253.756 0.391252 -0.642204 0
M  V30 2623 H 255.727 0.758998 -2.88586 0
M  V30 2624 C 254.476 2.47767 -2.4394 0
M  V30 2625 H 253.799 2.28108 -3.28339 0
M  V30 2626 H 255.239 3.19432 -2.78818 0
M  V30 2627 C 253.698 3.10617 -1.30455 0
M  V30 2628 O 254.228 3.96846 -0.622585 0
M  V30 2629 N 252.434 2.70553 -1.06064 0
M  V30 2630 H 251.981 2.00527 -1.61699 0
M  V30 2631 H 251.939 3.12934 -0.303284 0
M  V30 2632 N 255.711 1.52812 0.385517 0
M  V30 2633 C 256.641 1.80808 1.47752 0
M  V30 2634 C 257.622 0.660318 1.5676 0
M  V30 2635 O 258.807 0.908246 1.71652 0
M  V30 2636 C 255.937 1.98008 2.85324 0
M  V30 2637 C 254.891 3.13709 2.91154 0
M  V30 2638 C 254.217 3.16169 4.31209 0
M  V30 2639 C 255.517 4.52709 2.60483 0
M  V30 2640 H 257.211 2.72253 1.24573 0
M  V30 2641 H 254.757 1.31003 0.597839 0
M  V30 2642 H 256.71 2.16176 3.61726 0
M  V30 2643 H 255.434 1.03255 3.09848 0
M  V30 2644 H 254.093 2.95329 2.17201 0
M  V30 2645 H 253.741 2.19092 4.52778 0
M  V30 2646 H 253.441 3.93894 4.36029 0
M  V30 2647 H 254.965 3.36496 5.09512 0
M  V30 2648 H 256.379 4.71173 3.26602 0
M  V30 2649 H 254.776 5.32528 2.76648 0
M  V30 2650 H 255.846 4.59186 1.55809 0
M  V30 2651 N 257.189 -0.644168 1.43834 0
M  V30 2652 C 258.136 -1.75671 1.49694 0
M  V30 2653 C 259.106 -1.6246 0.345809 0
M  V30 2654 O 260.291 -1.82573 0.554234 0
M  V30 2655 C 257.431 -3.13867 1.43463 0
M  V30 2656 C 256.544 -3.38147 2.6885 0
M  V30 2657 C 255.679 -4.66241 2.54544 0
M  V30 2658 C 254.718 -4.83657 3.75157 0
M  V30 2659 N 253.855 -6.03016 3.59605 0
M  V30 2660 H 258.695 -1.69998 2.44754 0
M  V30 2661 H 256.232 -0.829458 1.21484 0
M  V30 2662 H 258.19 -3.9377 1.37843 0
M  V30 2663 H 256.82 -3.18588 0.519783 0
M  V30 2664 H 255.872 -2.52276 2.84712 0
M  V30 2665 H 257.184 -3.46899 3.58417 0
M  V30 2666 H 256.338 -5.54285 2.46683 0
M  V30 2667 H 255.077 -4.59826 1.62516 0
M  V30 2668 H 254.082 -3.94046 3.83416 0
M  V30 2669 H 255.307 -4.91896 4.68204 0
M  V30 2670 H 253.253 -5.97715 2.7032 0
M  V30 2671 H 253.17 -6.12766 4.42779 0
M  V30 2672 H 254.438 -6.93657 3.55613 0
M  V30 2673 N 258.668 -1.30515 -0.883378 0
M  V30 2674 C 259.578 -1.18959 -2.02203 0
M  V30 2675 C 260.594 -0.109172 -1.73657 0
M  V30 2676 O 261.77 -0.324413 -1.9877 0
M  V30 2677 C 258.835 -0.883871 -3.35244 0
M  V30 2678 C 257.896 -2.04982 -3.77201 0
M  V30 2679 C 257.129 -1.75859 -5.03894 0
M  V30 2680 O 257.352 -0.687276 -5.66244 0
M  V30 2681 O 256.286 -2.61146 -5.42297 0
M  V30 2682 H 260.112 -2.14616 -2.1488 0
M  V30 2683 H 257.697 -1.10124 -1.0096 0
M  V30 2684 H 259.579 -0.728644 -4.15053 0
M  V30 2685 H 258.254 0.0427798 -3.23672 0
M  V30 2686 H 257.161 -2.26038 -2.9809 0
M  V30 2687 H 258.494 -2.95825 -3.93381 0
M  V30 2688 N 260.146 1.09593 -1.13257 0
M  V30 2689 C 261.376 1.85231 -0.915049 0
M  V30 2690 C 261.784 1.81345 0.539498 0
M  V30 2691 O 261.127 1.20664 1.38513 0
M  V30 2692 C 261.189 3.34275 -1.3229 0
M  V30 2693 C 260.853 3.6191 -2.79052 0
M  V30 2694 C 261.85 3.57777 -3.77216 0
M  V30 2695 C 259.535 3.90309 -3.16171 0
M  V30 2696 C 261.529 3.81652 -5.1051 0
M  V30 2697 C 259.216 4.13839 -4.49644 0
M  V30 2698 C 260.214 4.09502 -5.46623 0
M  V30 2699 O 259.902 4.32426 -6.77689 0
M  V30 2700 H 259.634 0.591997 -0.326367 0
M  V30 2701 H 262.188 1.394 -1.50854 0
M  V30 2702 H 260.418 3.80805 -0.672667 0
M  V30 2703 H 262.107 3.9132 -1.07812 0
M  V30 2704 H 262.873 3.35865 -3.49885 0
M  V30 2705 H 258.752 3.92811 -2.41289 0
M  V30 2706 H 262.296 3.78182 -5.86195 0
M  V30 2707 H 258.193 4.35232 -4.767 0
M  V30 2708 H 258.961 4.49896 -6.83766 0
M  V30 2709 N 261.624 0.925811 1.2754 0
M  V30 2710 C 262.849 0.580924 1.99098 0
M  V30 2711 C 263.274 -0.833555 1.68622 0
M  V30 2712 O 262.632 -1.55903 0.925422 0
M  V30 2713 C 262.68 0.811186 3.51358 0
M  V30 2714 O 261.784 -0.124129 4.12213 0
M  V30 2715 H 261.125 0.223873 0.625122 0
M  V30 2716 H 263.655 1.24455 1.62395 0
M  V30 2717 H 263.665 0.72601 4.01489 0
M  V30 2718 H 262.34 1.84227 3.72872 0
M  V30 2719 H 260.917 0.0108006 3.72898 0
M  V30 2720 N 263.102 -1.41638 0.69111 0
M  V30 2721 C 264.35 -2.00902 0.219758 0
M  V30 2722 C 264.671 -1.54994 -1.18329 0
M  V30 2723 O 263.941 -0.778628 -1.79762 0
M  V30 2724 H 262.521 -0.74289 0.0782558 0
M  V30 2725 H 265.183 -1.73327 0.891271 0
M  V30 2726 H 264.279 -3.11224 0.233708 0
M  V30 2727 N 264.58 -0.43555 -1.51462 0
M  V30 2728 C 265.51 0.367376 -2.30592 0
M  V30 2729 C 266.491 1.02263 -1.35928 0
M  V30 2730 O 267.676 1.02661 -1.64847 0
M  V30 2731 C 264.806 1.46983 -3.14664 0
M  V30 2732 C 263.76 0.938161 -4.17591 0
M  V30 2733 C 263.086 2.13622 -4.90173 0
M  V30 2734 C 264.386 -0.0261621 -5.22293 0
M  V30 2735 H 266.08 -0.292969 -2.97963 0
M  V30 2736 H 263.626 -0.14234 -1.43295 0
M  V30 2737 H 265.579 2.03873 -3.688 0
M  V30 2738 H 264.303 2.15843 -2.4511 0
M  V30 2739 H 262.962 0.391481 -3.64504 0
M  V30 2740 H 262.61 2.81098 -4.17124 0
M  V30 2741 H 262.31 1.78688 -5.59772 0
M  V30 2742 H 263.834 2.7107 -5.47132 0
M  V30 2743 H 265.248 0.452384 -5.71512 0
M  V30 2744 H 263.645 -0.287992 -5.99409 0
M  V30 2745 H 264.715 -0.963391 -4.75233 0
M  V30 2746 N 266.058 1.56714 -0.166846 0
M  V30 2747 C 267.286 2.0112 0.485644 0
M  V30 2748 C 267.701 1.04705 1.57106 0
M  V30 2749 O 267.058 0.0471923 1.82439 0
M  V30 2750 C 267.109 3.45361 1.06808 0
M  V30 2751 O 266.83 4.38092 0.0259995 0
M  V30 2752 C 268.331 4.05145 1.79924 0
M  V30 2753 H 265.551 0.65931 0.124704 0
M  V30 2754 H 268.095 2.02746 -0.267262 0
M  V30 2755 H 266.25 3.44524 1.7715 0
M  V30 2756 H 266.664 5.22519 0.455398 0
M  V30 2757 H 268.138 5.08009 2.15942 0
M  V30 2758 H 268.615 3.46982 2.69258 0
M  V30 2759 H 269.221 4.09672 1.14234 0
M  V30 2760 N 267.536 -0.106894 1.57237 0
M  V30 2761 C 268.785 -0.811163 1.8467 0
M  V30 2762 C 269.098 -1.80469 0.754342 0
M  V30 2763 O 270.304 -2.55601 0.915439 0
M  V30 2764 C 268.76 -1.49337 3.27454 0
M  V30 2765 C 268.368 -0.540217 4.44731 0
M  V30 2766 C 270.112 -2.18206 3.64124 0
M  V30 2767 C 268.019 -1.22634 5.78545 0
M  V30 2768 H 266.949 -0.306679 0.688813 0
M  V30 2769 H 269.6 -0.0639887 1.83388 0
M  V30 2770 H 267.982 -2.2876 3.23241 0
M  V30 2771 H 269.156 0.221659 4.60267 0
M  V30 2772 H 267.471 0.042146 4.16379 0
M  V30 2773 H 270.068 -2.70253 4.61376 0
M  V30 2774 H 270.411 -2.96562 2.92158 0
M  V30 2775 H 270.944 -1.45658 3.70174 0
M  V30 2776 H 267.683 -0.483832 6.53712 0
M  V30 2777 H 267.203 -1.95993 5.66874 0
M  V30 2778 H 268.882 -1.75615 6.2271 0
M  V30 2779 N 269.014 -1.53014 -0.377408 0
M  V30 2780 C 270.43 -1.42523 -0.718281 0
M  V30 2781 C 270.63 -0.55487 -1.9371 0
M  V30 2782 O 269.686 -0.0327593 -2.52479 0
M  V30 2783 C 270.999 -2.85546 -0.942539 0
M  V30 2784 C 272.547 -2.95101 -1.04329 0
M  V30 2785 C 273.022 -4.3916 -1.3001 0
M  V30 2786 N 274.513 -4.42536 -1.36806 0
M  V30 2787 C 275.248 -5.51097 -1.58364 0
M  V30 2788 N 274.744 -6.69724 -1.77317 0
M  V30 2789 N 276.537 -5.38657 -1.60638 0
M  V30 2790 H 268.688 -2.08116 0.424426 0
M  V30 2791 H 270.951 -0.939352 0.127759 0
M  V30 2792 H 270.657 -3.51499 -0.118929 0
M  V30 2793 H 270.531 -3.28493 -1.85397 0
M  V30 2794 H 272.918 -2.29309 -1.85745 0
M  V30 2795 H 272.999 -2.55566 -0.109505 0
M  V30 2796 H 272.643 -5.05521 -0.490991 0
M  V30 2797 H 272.573 -4.76258 -2.24691 0
M  V30 2798 H 275.064 -3.57039 -1.23821 0
M  V30 2799 H 275.377 -7.48233 -1.93306 0
M  V30 2800 H 273.722 -6.72732 -1.74518 0
M  V30 2801 H 276.913 -4.44948 -1.45391 0
M  V30 2802 H 277.086 -6.2333 -1.77098 0
M  V30 2803 N 270.492 0.636531 -1.44174 0
M  V30 2804 C 271.908 0.954104 -1.27941 0
M  V30 2805 C 272.108 2.0039 -0.211248 0
M  V30 2806 O 271.164 2.49236 0.404695 0
M  V30 2807 C 272.477 1.4225 -2.64925 0
M  V30 2808 C 274.025 1.53827 -2.72592 0
M  V30 2809 C 274.5 2.04053 -4.10032 0
M  V30 2810 N 275.991 2.11331 -4.12182 0
M  V30 2811 C 276.726 2.51352 -5.15374 0
M  V30 2812 N 276.222 2.90549 -6.2893 0
M  V30 2813 N 278.015 2.51438 -5.02728 0
M  V30 2814 H 270.166 -0.0578386 -2.12321 0
M  V30 2815 H 272.429 0.0367406 -0.947288 0
M  V30 2816 H 272.135 0.725466 -3.44136 0
M  V30 2817 H 272.009 2.39451 -2.9145 0
M  V30 2818 H 274.396 2.22628 -1.93702 0
M  V30 2819 H 274.477 0.550154 -2.49814 0
M  V30 2820 H 274.121 1.35848 -4.89395 0
M  V30 2821 H 274.051 3.03726 -4.30184 0
M  V30 2822 H 276.542 1.83745 -3.30222 0
M  V30 2823 H 276.855 3.19884 -7.03487 0
M  V30 2824 H 275.2 2.88313 -6.32377 0
M  V30 2825 H 278.391 2.20203 -4.13072 0
M  V30 2826 H 278.564 2.82304 -5.83274 0
M  V30 2827 N 271.97 1.30982 0.876444 0
M  V30 2828 C 272.933 1.18054 1.96459 0
M  V30 2829 C 273.933 0.109399 1.60427 0
M  V30 2830 O 275.123 0.358173 1.70478 0
M  V30 2831 C 272.255 0.810616 3.31122 0
M  V30 2832 H 273.448 2.14735 2.09354 0
M  V30 2833 H 271.001 1.145 1.06392 0
M  V30 2834 H 271.736 -0.155322 3.23928 0
M  V30 2835 H 271.521 1.58481 3.58645 0
M  V30 2836 H 273.011 0.743876 4.10921 0
M  V30 2837 N 273.449 -1.08991 1.13837 0
M  V30 2838 C 274.674 -1.85551 0.926585 0
M  V30 2839 C 275.099 -1.80782 -0.519566 0
M  V30 2840 O 274.457 -1.18855 -1.36906 0
M  V30 2841 C 274.505 -3.31266 1.42462 0
M  V30 2842 O 273.609 -4.07822 0.612789 0
M  V30 2843 H 272.95 -0.575192 0.331738 0
M  V30 2844 H 275.48 -1.37604 1.51414 0
M  V30 2845 H 275.49 -3.82112 1.43019 0
M  V30 2846 H 274.165 -3.34052 2.47754 0
M  V30 2847 H 272.742 -3.66731 0.675463 0
M  V30 2848 N 274.927 -0.932562 -1.27047 0
M  V30 2849 C 276.152 -0.591474 -1.98787 0
M  V30 2850 C 276.577 0.824601 -1.69062 0
M  V30 2851 O 275.935 1.5541 -0.933677 0
M  V30 2852 C 275.983 -0.829808 -3.50922 0
M  V30 2853 O 275.087 0.102266 -4.12273 0
M  V30 2854 H 274.428 -0.227185 -0.623926 0
M  V30 2855 H 276.958 -1.25314 -1.61733 0
M  V30 2856 H 276.968 -0.747292 -4.01098 0
M  V30 2857 H 275.643 -1.86201 -3.7189 0
M  V30 2858 H 274.22 -0.0305761 -3.72887 0
M  V30 2859 N 276.405 1.4127 -0.698611 0
M  V30 2860 C 277.651 2.01478 -0.231207 0
M  V30 2861 C 277.984 1.55215 1.16713 0
M  V30 2862 O 277.259 0.764672 1.78838 0
M  V30 2863 C 277.542 3.58912 -0.292281 0
M  V30 2864 C 277.395 4.15293 -1.72778 0
M  V30 2865 C 278.714 4.38736 0.346194 0
M  V30 2866 H 275.833 0.732025 -0.0854878 0
M  V30 2867 H 278.475 1.67977 -0.887906 0
M  V30 2868 H 276.625 3.87582 0.26686 0
M  V30 2869 H 278.297 3.97486 -2.341 0
M  V30 2870 H 276.54 3.7022 -2.26096 0
M  V30 2871 H 277.211 5.24452 -1.72202 0
M  V30 2872 H 279.687 4.15897 -0.130035 0
M  V30 2873 H 278.563 5.48221 0.272932 0
M  V30 2874 H 278.824 4.18425 1.42734 0
M  V30 2875 N 277.883 0.443576 1.51229 0
M  V30 2876 C 278.846 -0.353132 2.26463 0
M  V30 2877 C 279.846 -0.944338 1.3015 0
M  V30 2878 O 281.036 -0.817813 1.5381 0
M  V30 2879 C 278.168 -1.50023 3.06114 0
M  V30 2880 H 279.361 0.3063 2.98332 0
M  V30 2881 H 276.914 0.196902 1.55055 0
M  V30 2882 H 277.649 -2.19553 2.38677 0
M  V30 2883 H 277.434 -1.08241 3.76864 0
M  V30 2884 H 278.924 -2.06296 3.63087 0
M  V30 2885 N 279.361 -1.56624 0.175154 0
M  V30 2886 C 280.271 -2.21741 -0.766042 0
M  V30 2887 C 281.287 -1.21023 -1.25018 0
M  V30 2888 O 282.463 -1.53697 -1.3015 0
M  V30 2889 C 279.528 -2.84839 -1.97655 0
M  V30 2890 C 278.589 -4.00769 -1.53892 0
M  V30 2891 C 277.822 -4.60849 -2.69173 0
M  V30 2892 O 278.045 -4.19823 -3.86141 0
M  V30 2893 O 276.979 -5.50655 -2.43028 0
M  V30 2894 H 280.805 -3.02738 -0.241585 0
M  V30 2895 H 278.39 -1.49305 -0.053222 0
M  V30 2896 H 280.272 -3.24834 -2.68442 0
M  V30 2897 H 278.947 -2.06836 -2.48999 0
M  V30 2898 H 277.854 -3.65436 -0.80044 0
M  V30 2899 H 279.187 -4.80376 -1.07236 0
M  V30 2900 N 280.839 0.0985539 -1.57292 0
M  V30 2901 C 281.802 1.10402 -2.00858 0
M  V30 2902 C 282.802 1.33146 -0.901593 0
M  V30 2903 O 283.992 1.29318 -1.16716 0
M  V30 2904 C 281.124 2.45394 -2.36632 0
M  V30 2905 H 282.317 0.729099 -2.90902 0
M  V30 2906 H 279.87 0.343495 -1.52479 0
M  V30 2907 H 280.605 2.87769 -1.49531 0
M  V30 2908 H 280.39 2.30235 -3.17387 0
M  V30 2909 H 281.88 3.17718 -2.71007 0
M  V30 2910 N 282.317 1.53212 0.369288 0
M  V30 2911 C 283.563 1.69466 1.11397 0
M  V30 2912 C 283.896 0.443257 1.89074 0
M  V30 2913 O 283.171 -0.559386 1.86282 0
M  V30 2914 C 283.454 2.9422 2.07621 0
M  V30 2915 C 283.307 4.29508 1.33577 0
M  V30 2916 C 284.626 3.14565 3.07794 0
M  V30 2917 H 281.745 0.616667 0.403597 0
M  V30 2918 H 284.387 1.85845 0.395179 0
M  V30 2919 H 282.537 2.80387 2.68916 0
M  V30 2920 H 284.209 4.55147 0.750955 0
M  V30 2921 H 282.452 4.29088 0.637618 0
M  V30 2922 H 283.123 5.12926 2.03989 0
M  V30 2923 H 285.599 3.2756 2.56601 0
M  V30 2924 H 284.475 4.03297 3.72348 0
M  V30 2925 H 284.736 2.29675 3.77759 0
M  V30 2926 N 283.795 -0.628877 1.44509 0
M  V30 2927 C 284.742 -1.74074 1.51549 0
M  V30 2928 C 285.712 -1.62084 0.363021 0
M  V30 2929 O 286.897 -1.81975 0.573567 0
M  V30 2930 C 284.037 -3.12328 1.46784 0
M  V30 2931 C 283.15 -3.35277 2.72422 0
M  V30 2932 C 282.285 -4.63515 2.59475 0
M  V30 2933 C 281.324 -4.7965 3.80266 0
M  V30 2934 N 280.461 -5.99168 3.65981 0
M  V30 2935 H 285.301 -1.67392 2.46544 0
M  V30 2936 H 282.838 -0.816527 1.22357 0
M  V30 2937 H 284.796 -3.92286 1.42012 0
M  V30 2938 H 283.426 -3.18018 0.553544 0
M  V30 2939 H 282.478 -2.49242 2.87372 0
M  V30 2940 H 283.79 -3.43078 3.62076 0
M  V30 2941 H 282.944 -5.51638 2.52548 0
M  V30 2942 H 281.683 -4.58076 1.67384 0
M  V30 2943 H 280.688 -3.89957 3.87574 0
M  V30 2944 H 281.913 -4.86902 4.73395 0
M  V30 2945 H 279.859 -5.94814 2.76644 0
M  V30 2946 H 279.776 -6.08035 4.49254 0
M  V30 2947 H 281.044 -6.89846 3.6295 0
M  V30 2948 N 285.273 -1.31445 -0.869486 0
M  V30 2949 C 286.521 -1.20918 -1.61936 0
M  V30 2950 C 286.842 0.232683 -1.93607 0
M  V30 2951 O 286.112 1.15352 -1.58338 0
M  V30 2952 H 284.692 -0.44454 -0.600328 0
M  V30 2953 H 287.354 -1.64776 -1.0409 0
M  V30 2954 H 286.45 -1.78124 -2.56278 0
M  V30 2955 N 286.751 1.08385 -1.14413 0
M  V30 2956 C 287.997 1.81044 -0.913834 0
M  V30 2957 C 288.33 1.86004 0.558209 0
M  V30 2958 O 287.605 1.33606 1.4135 0
M  V30 2959 C 287.888 3.26648 -1.51569 0
M  V30 2960 C 287.741 3.29895 -3.0576 0
M  V30 2961 C 289.06 4.23629 -1.19273 0
M  V30 2962 H 286.179 0.65727 -0.333414 0
M  V30 2963 H 288.821 1.26896 -1.41412 0
M  V30 2964 H 286.971 3.72889 -1.09023 0
M  V30 2965 H 288.643 2.91977 -3.57137 0
M  V30 2966 H 286.886 2.69163 -3.40197 0
M  V30 2967 H 287.557 4.32516 -3.42977 0
M  V30 2968 H 290.033 3.85727 -1.56057 0
M  V30 2969 H 288.909 5.23822 -1.64017 0
M  V30 2970 H 289.17 4.41968 -0.108068 0
M  V30 2971 N 288.23 0.939286 1.26551 0
M  V30 2972 C 289.507 0.5038 1.89001 0
M  V30 2973 C 289.887 -1.01854 1.84903 0
M  V30 2974 O 289.235 -1.87773 1.30206 0
M  V30 2975 C 289.445 1.063 3.32417 0
M  V30 2976 C 290.793 1.13051 4.09273 0
M  V30 2977 O 291.817 1.01345 3.41479 0
M  V30 2978 O 290.676 1.31233 5.30509 0
M  V30 2979 H 287.77 0.163897 0.810597 0
M  V30 2980 H 290.316 1.03173 1.34735 0
M  V30 2981 H 289.088 2.10665 3.29752 0
M  V30 2982 H 288.711 0.517408 3.94219 0
M  V30 2983 N 289.708 -1.40897 0.706093 0
M  V30 2984 C 290.957 -2.00284 0.238574 0
M  V30 2985 C 291.27 -1.56604 -1.17194 0
M  V30 2986 O 292.476 -2.08624 -1.73748 0
M  V30 2987 C 290.932 -3.57934 0.375623 0
M  V30 2988 C 290.54 -4.10591 1.79217 0
M  V30 2989 C 292.284 -4.24488 -0.0315857 0
M  V30 2990 C 290.191 -5.60712 1.88032 0
M  V30 2991 H 289.121 -0.749144 0.0854398 0
M  V30 2992 H 291.772 -1.61251 0.875813 0
M  V30 2993 H 290.154 -3.94622 -0.330042 0
M  V30 2994 H 291.328 -3.85301 2.52745 0
M  V30 2995 H 289.643 -3.56601 2.15 0
M  V30 2996 H 292.24 -5.34698 0.0136842 0
M  V30 2997 H 292.583 -4.02261 -1.072 0
M  V30 2998 H 293.116 -3.92873 0.624181 0
M  V30 2999 H 289.855 -5.87781 2.90161 0
M  V30 3000 H 289.375 -5.87896 1.18903 0
M  V30 3001 H 291.054 -6.25658 1.64805 0
M  V30 3002 N 291.186 -0.45159 -1.50991 0
M  V30 3003 C 292.435 0.111653 -2.01391 0
M  V30 3004 C 292.748 1.42529 -1.33959 0
M  V30 3005 O 293.954 2.07232 -1.75405 0
M  V30 3006 C 292.41 0.249514 -3.59034 0
M  V30 3007 C 292.018 -1.05453 -4.35412 0
M  V30 3008 C 293.762 0.765762 -4.17536 0
M  V30 3009 C 291.669 -0.881529 -5.84793 0
M  V30 3010 H 290.599 0.0455022 -0.752626 0
M  V30 3011 H 293.25 -0.583524 -1.73975 0
M  V30 3012 H 291.632 1.00803 -3.82955 0
M  V30 3013 H 292.806 -1.82248 -4.23229 0
M  V30 3014 H 291.121 -1.50039 -3.88429 0
M  V30 3015 H 293.718 0.911913 -5.26866 0
M  V30 3016 H 294.061 1.75201 -3.77638 0
M  V30 3017 H 294.594 0.0651744 -3.97747 0
M  V30 3018 H 291.333 -1.84057 -6.29129 0
M  V30 3019 H 290.853 -0.153625 -5.99603 0
M  V30 3020 H 292.532 -0.540363 -6.4474 0
M  V30 3021 N 292.664 1.56529 -0.183458 0
M  V30 3022 C 293.892 2.01623 0.464285 0
M  V30 3023 C 294.307 1.06366 1.55986 0
M  V30 3024 O 293.664 0.0665398 1.82379 0
M  V30 3025 C 293.715 3.46475 1.03139 0
M  V30 3026 O 293.436 4.38095 -0.0204675 0
M  V30 3027 C 294.937 4.0703 1.75617 0
M  V30 3028 H 292.157 0.660596 0.117704 0
M  V30 3029 H 294.701 2.02451 -0.288751 0
M  V30 3030 H 292.856 3.46383 1.73486 0
M  V30 3031 H 293.27 5.22973 0.399952 0
M  V30 3032 H 294.744 5.10271 2.10542 0
M  V30 3033 H 295.221 3.49819 2.65563 0
M  V30 3034 H 295.827 4.1086 1.09882 0
M  V30 3035 N 294.142 -0.090211 1.57342 0
M  V30 3036 C 295.37 -0.806224 1.90546 0
M  V30 3037 C 295.785 -1.72041 0.777644 0
M  V30 3038 O 295.142 -1.80778 -0.250103 0
M  V30 3039 C 295.193 -1.61546 3.23396 0
M  V30 3040 O 294.914 -0.738043 4.31839 0
M  V30 3041 C 296.415 -2.4341 3.70495 0
M  V30 3042 H 293.635 -0.230256 0.630257 0
M  V30 3043 H 296.179 -0.0659843 2.04394 0
M  V30 3044 H 294.334 -2.30816 3.11131 0
M  V30 3045 H 294.748 -1.29901 5.08159 0
M  V30 3046 H 296.222 -2.95676 4.66133 0
M  V30 3047 H 296.699 -3.22098 2.98579 0
M  V30 3048 H 297.305 -1.79331 3.85643 0
M  V30 3049 N 295.62 -1.53406 -0.361157 0
M  V30 3050 C 296.866 -1.70054 -1.10496 0
M  V30 3051 C 297.199 -0.453278 -1.88836 0
M  V30 3052 O 296.474 0.5495 -1.86576 0
M  V30 3053 C 296.757 -2.95317 -2.06058 0
M  V30 3054 C 296.61 -4.3021 -1.31298 0
M  V30 3055 C 297.929 -3.16193 -3.06121 0
M  V30 3056 H 295.048 -0.618799 -0.400321 0
M  V30 3057 H 297.69 -1.86052 -0.385318 0
M  V30 3058 H 295.84 -2.81809 -2.67425 0
M  V30 3059 H 297.512 -4.55538 -0.726807 0
M  V30 3060 H 295.755 -4.29421 -0.614853 0
M  V30 3061 H 296.426 -5.14 -2.01265 0
M  V30 3062 H 298.902 -3.28916 -2.5486 0
M  V30 3063 H 297.778 -4.05266 -3.70204 0
M  V30 3064 H 298.039 -2.31676 -3.76535 0
M  V30 3065 N 297.098 0.621204 -1.44841 0
M  V30 3066 C 298.326 1.40752 -1.51646 0
M  V30 3067 C 298.741 1.88246 -0.144549 0
M  V30 3068 O 298.098 1.61422 0.851416 0
M  V30 3069 C 298.149 2.62119 -2.4895 0
M  V30 3070 O 297.87 2.16602 -3.80808 0
M  V30 3071 C 299.371 3.55135 -2.65319 0
M  V30 3072 H 296.591 0.431325 -0.514004 0
M  V30 3073 H 299.135 0.758835 -1.899 0
M  V30 3074 H 297.29 3.23058 -2.13805 0
M  V30 3075 H 297.704 2.95358 -4.33433 0
M  V30 3076 H 299.178 4.36874 -3.37409 0
M  V30 3077 H 299.655 4.04592 -1.70886 0
M  V30 3078 H 300.261 3.00058 -3.01405 0
M  V30 3079 N 298.576 1.31904 0.862503 0
M  V30 3080 C 299.539 1.20131 1.95195 0
M  V30 3081 C 300.539 0.126409 1.60302 0
M  V30 3082 O 301.729 0.376234 1.70089 0
M  V30 3083 C 298.861 0.845691 3.30244 0
M  V30 3084 H 300.054 2.16943 2.07064 0
M  V30 3085 H 297.607 1.15622 1.05172 0
M  V30 3086 H 298.342 -0.120957 3.24074 0
M  V30 3087 H 298.127 1.62276 3.56944 0
M  V30 3088 H 299.617 0.787418 4.10109 0
M  V30 3089 N 300.054 -1.07777 1.14986 0
M  V30 3090 C 301.331 -1.7699 0.832695 0
M  V30 3091 C 301.711 -2.001 -0.672561 0
M  V30 3092 O 301.059 -1.61598 -1.6155 0
M  V30 3093 C 301.269 -3.08139 1.63863 0
M  V30 3094 C 302.617 -3.8256 1.84208 0
M  V30 3095 O 303.641 -3.17939 1.60603 0
M  V30 3096 O 302.5 -4.98612 2.23714 0
M  V30 3097 H 299.594 -0.768389 0.305791 0
M  V30 3098 H 302.14 -1.14182 1.25541 0
M  V30 3099 H 300.912 -2.86909 2.6608 0
M  V30 3100 H 300.535 -3.78678 1.21197 0
M  V30 3101 N 301.532 -0.945985 -1.26051 0
M  V30 3102 C 302.479 -0.45809 -2.26208 0
M  V30 3103 C 303.449 0.484816 -1.58867 0
M  V30 3104 O 304.634 0.399969 -1.86561 0
M  V30 3105 C 301.774 0.266131 -3.44072 0
M  V30 3106 C 300.887 -0.713005 -4.26075 0
M  V30 3107 C 300.022 0.0329013 -5.3119 0
M  V30 3108 C 299.061 -0.93774 -6.04874 0
M  V30 3109 N 298.198 -0.223274 -7.01745 0
M  V30 3110 H 303.038 -1.3171 -2.67313 0
M  V30 3111 H 300.575 -0.66069 -1.31428 0
M  V30 3112 H 302.533 0.702514 -4.11243 0
M  V30 3113 H 301.163 1.08925 -3.03867 0
M  V30 3114 H 300.215 -1.26789 -3.58648 0
M  V30 3115 H 301.527 -1.45406 -4.77136 0
M  V30 3116 H 300.681 0.528335 -6.04395 0
M  V30 3117 H 299.42 0.806801 -4.8098 0
M  V30 3118 H 298.425 -1.44425 -5.30492 0
M  V30 3119 H 299.65 -1.71172 -6.57173 0
M  V30 3120 H 297.596 0.532046 -6.53839 0
M  V30 3121 H 297.513 -0.90357 -7.50581 0
M  V30 3122 H 298.781 0.250907 -7.79096 0
M  V30 3123 N 303.011 1.40521 -0.713556 0
M  V30 3124 C 303.974 2.29098 -0.0684347 0
M  V30 3125 C 304.974 1.45268 0.689472 0
M  V30 3126 O 306.164 1.66205 0.521677 0
M  V30 3127 C 303.296 3.28446 0.913024 0
M  V30 3128 H 304.489 2.87645 -0.84855 0
M  V30 3129 H 302.042 1.48809 -0.47809 0
M  V30 3130 H 302.777 2.74913 1.72027 0
M  V30 3131 H 302.562 3.90327 0.372472 0
M  V30 3132 H 304.052 3.94777 1.36165 0
M  V30 3133 N 304.489 0.459591 1.5075 0
M  V30 3134 C 305.719 -0.0972338 2.06371 0
M  V30 3135 C 306.127 -1.35074 1.32483 0
M  V30 3136 O 305.47 -1.79637 0.384226 0
M  V30 3137 C 305.532 -0.462759 3.56509 0
M  V30 3138 C 305.196 0.687084 4.51805 0
M  V30 3139 C 306.193 1.56578 4.95761 0
M  V30 3140 C 303.878 0.874144 4.94635 0
M  V30 3141 C 305.872 2.61604 5.81242 0
M  V30 3142 C 303.559 1.92765 5.79901 0
M  V30 3143 C 304.557 2.79697 6.23104 0
M  V30 3144 O 304.245 3.83235 7.06673 0
M  V30 3145 H 303.977 -0.00140687 0.675999 0
M  V30 3146 H 306.531 0.644011 1.95043 0
M  V30 3147 H 304.761 -1.25703 3.65699 0
M  V30 3148 H 306.45 -0.953323 3.94546 0
M  V30 3149 H 307.216 1.4329 4.6335 0
M  V30 3150 H 303.095 0.207006 4.60535 0
M  V30 3151 H 306.639 3.29489 6.14884 0
M  V30 3152 H 302.536 2.06064 6.11725 0
M  V30 3153 H 303.304 3.80084 7.24899 0
M  V30 3154 N 305.967 -1.56429 0.191757 0
M  V30 3155 C 306.93 -2.17707 -0.716688 0
M  V30 3156 C 307.93 -1.13061 -1.14341 0
M  V30 3157 O 309.12 -1.38464 -1.05704 0
M  V30 3158 C 306.252 -2.77644 -1.97804 0
M  V30 3159 H 307.445 -2.99342 -0.1829 0
M  V30 3160 H 304.998 -1.56193 -0.0578566 0
M  V30 3161 H 305.733 -1.99799 -2.55443 0
M  V30 3162 H 305.518 -3.54246 -1.68083 0
M  V30 3163 H 307.008 -3.24708 -2.62592 0
M  V30 3164 N 307.445 0.0818655 -1.57387 0
M  V30 3165 C 308.673 0.796108 -1.9097 0
M  V30 3166 C 309.088 1.71626 -0.786757 0
M  V30 3167 O 308.445 1.80908 0.240513 0
M  V30 3168 C 308.496 1.59829 -3.24248 0
M  V30 3169 O 308.217 0.715131 -4.32224 0
M  V30 3170 C 309.718 2.41442 -3.7178 0
M  V30 3171 H 306.938 0.22691 -0.631469 0
M  V30 3172 H 309.482 0.0551439 -2.04426 0
M  V30 3173 H 307.637 2.29163 -3.12351 0
M  V30 3174 H 308.051 1.27205 -5.08841 0
M  V30 3175 H 309.525 2.932 -4.67694 0
M  V30 3176 H 310.002 3.2051 -3.00283 0
M  V30 3177 H 310.608 1.77283 -3.86589 0
M  V30 3178 N 308.923 1.53595 0.353017 0
M  V30 3179 C 310.172 1.69603 1.09168 0
M  V30 3180 C 310.485 0.460925 1.90092 0
M  V30 3181 O 311.691 0.501774 2.66823 0
M  V30 3182 C 310.147 2.99872 1.9901 0
M  V30 3183 C 309.755 4.30687 1.23339 0
M  V30 3184 C 311.499 3.25246 2.72792 0
M  V30 3185 C 309.406 5.52036 2.12156 0
M  V30 3186 H 308.336 0.631966 0.411261 0
M  V30 3187 H 310.987 1.80096 0.351802 0
M  V30 3188 H 309.369 2.83212 2.7678 0
M  V30 3189 H 310.543 4.58019 0.505456 0
M  V30 3190 H 308.858 4.11853 0.613663 0
M  V30 3191 H 311.455 4.13095 3.39495 0
M  V30 3192 H 311.798 2.41846 3.38846 0
M  V30 3193 H 312.331 3.42638 2.021 0
M  V30 3194 H 309.07 6.37951 1.50659 0
M  V30 3195 H 308.59 5.28966 2.82764 0
M  V30 3196 H 310.269 5.87313 2.71427 0
M  V30 3197 N 310.401 -0.613514 1.45168 0
M  V30 3198 C 311.65 -1.36874 1.4815 0
M  V30 3199 C 311.963 -1.952 0.124982 0
M  V30 3200 O 313.169 -2.71481 0.0324176 0
M  V30 3201 C 311.625 -2.47905 2.60904 0
M  V30 3202 C 311.233 -1.96016 4.02842 0
M  V30 3203 C 312.977 -3.24965 2.73126 0
M  V30 3204 C 310.884 -3.04494 5.06988 0
M  V30 3205 H 309.814 -0.514428 0.551253 0
M  V30 3206 H 312.465 -0.658182 1.7129 0
M  V30 3207 H 310.847 -3.21618 2.31037 0
M  V30 3208 H 312.021 -1.29051 4.4236 0
M  V30 3209 H 310.336 -1.31719 3.95018 0
M  V30 3210 H 312.933 -4.05865 3.48106 0
M  V30 3211 H 313.276 -3.75588 1.79553 0
M  V30 3212 H 313.809 -2.5835 3.0249 0
M  V30 3213 H 310.548 -2.58795 6.0225 0
M  V30 3214 H 310.068 -3.70044 4.72046 0
M  V30 3215 H 311.747 -3.68976 5.31475 0
M  V30 3216 N 311.879 -1.3236 -0.855495 0
M  V30 3217 C 313.107 -1.2587 -1.64208 0
M  V30 3218 C 313.522 0.173457 -1.88002 0
M  V30 3219 O 312.879 1.11027 -1.44842 0
M  V30 3220 C 312.93 -2.01424 -3.00184 0
M  V30 3221 O 312.651 -3.39051 -2.77445 0
M  V30 3222 C 314.152 -2.01948 -3.94629 0
M  V30 3223 H 311.372 -0.434318 -0.511477 0
M  V30 3224 H 313.916 -1.74469 -1.0668 0
M  V30 3225 H 312.071 -1.56549 -3.5436 0
M  V30 3226 H 312.485 -3.77711 -3.63916 0
M  V30 3227 H 313.959 -2.59297 -4.87308 0
M  V30 3228 H 314.436 -1.00554 -4.27534 0
M  V30 3229 H 315.042 -2.46767 -3.4639 0
M  V30 3230 N 313.357 1.07166 -1.15556 0
M  V30 3231 C 314.768 1.6127 -0.940693 0
M  V30 3232 C 315.119 1.89251 0.517551 0
M  V30 3233 O 314.244 1.65937 1.38903 0
M  V30 3234 C 314.839 2.92993 -1.7012 0
M  V30 3235 C 313.398 3.43832 -1.53156 0
M  V30 3236 C 312.545 2.1786 -1.71558 0
M  V30 3237 H 315.496 0.90229 -1.30554 0
M  V30 3238 H 315.517 3.62007 -1.17181 0
M  V30 3239 H 315.029 2.72596 -2.76248 0
M  V30 3240 H 313.13 3.69307 -0.494294 0
M  V30 3241 H 313.243 4.19747 -2.30975 0
M  V30 3242 H 311.607 2.2765 -1.14225 0
M  V30 3243 H 312.39 1.99956 -2.79056 0
M  V30 3244 N 314.835 0.952656 1.25548 0
M  V30 3245 C 316.112 0.523818 1.88456 0
M  V30 3246 C 316.492 -0.998871 1.85973 0
M  V30 3247 O 315.84 -1.86381 1.3219 0
M  V30 3248 C 316.05 1.0982 3.31271 0
M  V30 3249 C 317.398 1.17385 4.08051 0
M  V30 3250 O 318.422 1.04961 3.40384 0
M  V30 3251 O 317.281 1.36852 5.29088 0
M  V30 3252 H 314.375 0.172485 0.808813 0
M  V30 3253 H 316.921 1.04596 1.33633 0
M  V30 3254 H 315.693 2.1415 3.27499 0
M  V30 3255 H 315.316 0.559191 3.93648 0
M  V30 3256 N 316.313 -1.40141 0.720998 0
M  V30 3257 C 317.246 -2.2819 0.020916 0
M  V30 3258 C 318.224 -1.43633 -0.762129 0
M  V30 3259 O 319.408 -1.7304 -0.747633 0
M  V30 3260 C 316.535 -3.24281 -0.977715 0
M  V30 3261 C 315.581 -4.25548 -0.284836 0
M  V30 3262 S 316.414 -5.26247 0.991169 0
M  V30 3263 C 317.57 -6.259 -0.0052214 0
M  V30 3264 H 317.803 -2.87218 0.767649 0
M  V30 3265 H 315.336 -1.45656 0.512233 0
M  V30 3266 H 317.294 -3.80167 -1.54865 0
M  V30 3267 H 315.955 -2.643 -1.69719 0
M  V30 3268 H 315.148 -4.93154 -1.03996 0
M  V30 3269 H 314.75 -3.73389 0.213684 0
M  V30 3270 H 317.042 -6.72143 -0.850279 0
M  V30 3271 H 317.985 -7.05224 0.637599 0
M  V30 3272 H 318.393 -5.63277 -0.371366 0
M  V30 3273 N 317.792 -0.46758 -1.50504 0
M  V30 3274 C 318.722 0.318381 -2.31319 0
M  V30 3275 C 319.703 0.993564 -1.38066 0
M  V30 3276 O 320.888 0.991411 -1.66987 0
M  V30 3277 C 318.018 1.40275 -3.17711 0
M  V30 3278 C 316.972 0.849373 -4.19487 0
M  V30 3279 C 316.298 2.03177 -4.94594 0
M  V30 3280 C 317.598 -0.136942 -5.2212 0
M  V30 3281 H 319.292 -0.356106 -2.97275 0
M  V30 3282 H 316.838 -0.172703 -1.42961 0
M  V30 3283 H 318.791 1.96004 -3.73042 0
M  V30 3284 H 317.515 2.10596 -2.49634 0
M  V30 3285 H 316.174 0.314076 -3.65252 0
M  V30 3286 H 315.822 2.72187 -4.22993 0
M  V30 3287 H 315.522 1.66774 -5.63436 0
M  V30 3288 H 317.046 2.59403 -5.52759 0
M  V30 3289 H 318.46 0.331056 -5.72343 0
M  V30 3290 H 316.857 -0.41507 -5.98663 0
M  V30 3291 H 317.927 -1.06398 -4.73083 0
M  V30 3292 N 319.27 1.56325 -0.20005 0
M  V30 3293 C 320.18 2.22931 0.730668 0
M  V30 3294 C 321.196 1.22997 1.23076 0
M  V30 3295 O 322.372 1.55748 1.27689 0
M  V30 3296 C 319.437 2.87948 1.93098 0
M  V30 3297 C 318.498 4.03166 1.47497 0
M  V30 3298 C 317.731 4.65073 2.61807 0
M  V30 3299 O 317.954 4.25913 3.79413 0
M  V30 3300 O 316.888 5.54452 2.34237 0
M  V30 3301 H 320.714 3.03084 0.193391 0
M  V30 3302 H 318.299 1.49371 0.0294621 0
M  V30 3303 H 320.181 3.29063 2.6324 0
M  V30 3304 H 318.856 2.10771 2.45677 0
M  V30 3305 H 317.763 3.66664 0.742201 0
M  V30 3306 H 319.096 4.82022 0.995796 0
M  V30 3307 N 320.748 -0.0735177 1.57428 0
M  V30 3308 C 322.159 -0.625551 1.75908 0
M  V30 3309 C 322.51 -1.78 0.825261 0
M  V30 3310 O 321.635 -2.16398 0.00893964 0
M  V30 3311 C 322.23 -1.14155 3.18989 0
M  V30 3312 C 320.789 -1.63946 3.38819 0
M  V30 3313 C 319.936 -0.558151 2.71625 0
M  V30 3314 H 322.887 0.152647 1.57964 0
M  V30 3315 H 322.908 -2.0104 3.23053 0
M  V30 3316 H 322.42 -0.301116 3.8693 0
M  V30 3317 H 320.521 -2.50321 2.7599 0
M  V30 3318 H 320.634 -1.71759 4.47253 0
M  V30 3319 H 318.998 -1.00278 2.34129 0
M  V30 3320 H 319.781 0.272071 3.4222 0
M  V30 3321 N 322.226 -1.5378 -0.344866 0
M  V30 3322 C 323.474 -1.70625 -1.08311 0
M  V30 3323 C 323.795 -0.471447 -1.89215 0
M  V30 3324 O 323.065 0.514616 -1.8902 0
M  V30 3325 H 321.645 -0.629058 -0.402859 0
M  V30 3326 H 324.307 -1.9103 -0.386459 0
M  V30 3327 H 323.403 -2.57656 -1.76124 0
M  V30 3328 N 323.704 0.605807 -1.45491 0
M  V30 3329 C 324.637 1.73022 -1.48791 0
M  V30 3330 C 325.615 1.58917 -0.344112 0
M  V30 3331 O 326.799 1.80453 -0.544876 0
M  V30 3332 C 323.926 3.10865 -1.34463 0
M  V30 3333 C 322.972 3.43554 -2.5273 0
M  V30 3334 S 323.805 3.38196 -4.15191 0
M  V30 3335 C 324.961 4.78616 -4.03333 0
M  V30 3336 H 325.194 1.69961 -2.43928 0
M  V30 3337 H 322.727 0.782611 -1.33096 0
M  V30 3338 H 324.685 3.90398 -1.26884 0
M  V30 3339 H 323.346 3.1144 -0.40794 0
M  V30 3340 H 322.539 4.43924 -2.38637 0
M  V30 3341 H 322.141 2.71541 -2.5718 0
M  V30 3342 H 324.433 5.68463 -3.68587 0
M  V30 3343 H 325.376 4.97767 -5.03621 0
M  V30 3344 H 325.784 4.54381 -3.34959 0
M  V30 3345 N 325.182 1.32811 0.848464 0
M  V30 3346 C 326.132 1.18842 1.94578 0
M  V30 3347 C 327.116 0.0937517 1.60627 0
M  V30 3348 O 328.308 0.320887 1.74067 0
M  V30 3349 C 325.437 0.91999 3.30743 0
M  V30 3350 C 324.523 2.05665 3.70894 0
M  V30 3351 N 324.914 3.30579 3.8282 0
M  V30 3352 C 323.212 1.9612 4.00566 0
M  V30 3353 C 323.913 4.05067 4.17487 0
M  V30 3354 N 322.889 3.33419 4.2934 0
M  V30 3355 H 326.691 2.13536 2.0194 0
M  V30 3356 H 324.205 1.2468 1.0406 0
M  V30 3357 H 326.202 0.800859 4.09136 0
M  V30 3358 H 324.862 -0.0185076 3.24695 0
M  V30 3359 H 325.873 3.65441 3.66978 0
M  V30 3360 H 322.55 1.09871 4.02784 0
M  V30 3361 H 323.94 5.12815 4.34131 0
M  V30 3362 N 326.66 -1.06551 1.16123 0
M  V30 3363 C 327.59 -2.15935 0.88851 0
M  V30 3364 C 328.571 -1.69306 -0.164135 0
M  V30 3365 O 329.756 -1.94193 -0.0167857 0
M  V30 3366 C 326.886 -3.45149 0.385942 0
M  V30 3367 C 325.84 -4.05271 1.3762 0
M  V30 3368 C 325.166 -5.29664 0.732137 0
M  V30 3369 C 326.466 -4.44355 2.74493 0
M  V30 3370 H 328.16 -2.39006 1.80323 0
M  V30 3371 H 325.706 -1.14866 0.868435 0
M  V30 3372 H 327.659 -4.21004 0.182647 0
M  V30 3373 H 326.383 -3.21689 -0.564274 0
M  V30 3374 H 325.042 -3.3147 1.56599 0
M  V30 3375 H 324.69 -5.02499 -0.224483 0
M  V30 3376 H 324.39 -5.70848 1.39307 0
M  V30 3377 H 325.914 -6.08218 0.538802 0
M  V30 3378 H 327.328 -5.11303 2.59311 0
M  V30 3379 H 325.725 -4.96515 3.37035 0
M  V30 3380 H 326.795 -3.55339 3.29943 0
M  V30 3381 N 328.138 -0.959301 -1.25041 0
M  V30 3382 C 329.086 -0.474437 -2.2771 0
M  V30 3383 C 330.08 0.457697 -1.631 0
M  V30 3384 O 331.286 0.333912 -1.76876 0
M  V30 3385 H 327.661 -0.134936 -0.739795 0
M  V30 3386 H 329.632 -1.35251 -2.65988 0
M  V30 3387 C 328.381 0.227884 -3.46952 0
M  V30 3388 H 327.704 -0.480248 -3.96905 0
M  V30 3389 H 329.144 0.531091 -4.20661 0
M  V30 3390 C 327.603 1.452 -3.04004 0
M  V30 3391 O 328.133 2.54949 -3.10426 0
M  V30 3392 N 326.339 1.31502 -2.59144 0
M  V30 3393 H 325.886 0.422065 -2.54119 0
M  V30 3394 H 325.844 2.13521 -2.30773 0
M  V30 3395 N 329.616 1.39756 -0.72842 0
M  V30 3396 C 330.579 2.29012 -0.0927297 0
M  V30 3397 C 331.579 1.45992 0.674025 0
M  V30 3398 O 332.769 1.66749 0.50402 0
M  V30 3399 C 329.901 3.29396 0.878137 0
M  V30 3400 H 331.094 2.86729 -0.879011 0
M  V30 3401 H 328.647 1.48293 -0.493847 0
M  V30 3402 H 329.382 2.76722 1.69101 0
M  V30 3403 H 329.167 3.907 0.331051 0
M  V30 3404 H 330.657 3.96199 1.3197 0
M  V30 3405 N 331.094 0.475555 1.50254 0
M  V30 3406 C 332.34 -0.0780073 2.0265 0
M  V30 3407 C 332.673 -1.38968 1.35652 0
M  V30 3408 O 331.948 -1.8839 0.483691 0
M  V30 3409 C 332.231 -0.257161 3.59181 0
M  V30 3410 C 332.084 1.07585 4.36744 0
M  V30 3411 C 333.403 -1.00965 4.28362 0
M  V30 3412 H 330.522 -0.0268758 0.73651 0
M  V30 3413 H 333.164 0.622015 1.7953 0
M  V30 3414 H 331.314 -0.853412 3.79011 0
M  V30 3415 H 332.986 1.70902 4.28474 0
M  V30 3416 H 331.229 1.6714 4.00308 0
M  V30 3417 H 331.9 0.904088 5.44546 0
M  V30 3418 H 334.376 -0.504214 4.13034 0
M  V30 3419 H 333.252 -1.10381 5.37687 0
M  V30 3420 H 333.513 -2.04731 3.91839 0
M  V30 3421 N 332.573 -1.56217 0.208337 0
M  V30 3422 C 333.821 -1.97558 -0.426076 0
M  V30 3423 C 334.142 -1.09683 -1.61229 0
M  V30 3424 O 333.412 -0.170956 -1.95153 0
M  V30 3425 H 331.992 -0.729575 -0.160405 0
M  V30 3426 H 334.654 -1.92606 0.298155 0
M  V30 3427 H 333.75 -3.02672 -0.761312 0
M  V30 3428 N 334.051 0.0651679 -1.57465 0
M  V30 3429 C 335.299 0.761555 -1.87202 0
M  V30 3430 C 335.62 1.77778 -0.801243 0
M  V30 3431 O 334.89 1.95166 0.16937 0
M  V30 3432 H 333.47 0.284251 -0.690804 0
M  V30 3433 H 336.132 0.0396827 -1.9486 0
M  V30 3434 H 335.228 1.27365 -2.84929 0
M  V30 3435 N 335.529 1.53961 0.336706 0
M  V30 3436 C 336.806 1.62171 1.09361 0
M  V30 3437 C 337.186 0.447263 2.06307 0
M  V30 3438 O 336.534 -0.559802 2.21537 0
M  V30 3439 C 336.744 2.98565 1.80721 0
M  V30 3440 C 338.092 3.54157 2.34218 0
M  V30 3441 O 339.116 3.00784 1.90807 0
M  V30 3442 O 337.975 4.47528 3.13657 0
M  V30 3443 H 335.069 0.6562 0.503319 0
M  V30 3444 H 337.615 1.66307 0.33765 0
M  V30 3445 H 336.387 3.75482 1.10132 0
M  V30 3446 H 336.01 2.9805 2.63158 0
M  V30 3447 N 337.007 -0.598083 1.45811 0
M  V30 3448 C 338.247 -1.36802 1.5187 0
M  V30 3449 C 338.611 -1.9133 0.160224 0
M  V30 3450 O 339.812 -2.6863 0.0955302 0
M  V30 3451 C 338.083 -2.47835 2.57513 0
M  V30 3452 S 339.642 -3.35458 2.82866 0
M  V30 3453 H 336.46 -0.466278 0.536755 0
M  V30 3454 H 339.062 -0.689152 1.82951 0
M  V30 3455 H 337.766 -2.06141 3.54872 0
M  V30 3456 H 337.297 -3.20512 2.28114 0
M  V30 3457 H 339.312 -4.46251 2.16967 0
M  V30 3458 N 338.485 -1.33259 -0.841409 0
M  V30 3459 C 339.896 -1.22066 -1.41269 0
M  V30 3460 C 340.247 0.161479 -1.95534 0
M  V30 3461 O 339.372 1.06094 -1.88608 0
M  V30 3462 C 339.967 -2.20996 -2.568 0
M  V30 3463 C 338.526 -2.13649 -3.09888 0
M  V30 3464 C 337.673 -2.08623 -1.82679 0
M  V30 3465 H 340.624 -1.44895 -0.647395 0
M  V30 3466 H 340.645 -1.81621 -3.34356 0
M  V30 3467 H 340.157 -3.2158 -2.17274 0
M  V30 3468 H 338.258 -1.16359 -3.53965 0
M  V30 3469 H 338.371 -3.04079 -3.70234 0
M  V30 3470 H 336.735 -1.54061 -2.02824 0
M  V30 3471 H 337.518 -3.1101 -1.45353 0
M  V30 3472 N 339.963 1.05934 -1.16686 0
M  V30 3473 C 341.211 1.78447 -0.948744 0
M  V30 3474 C 341.532 1.87813 0.524523 0
M  V30 3475 O 340.802 1.38945 1.38098 0
M  V30 3476 H 339.382 0.660971 -0.348033 0
M  V30 3477 H 342.044 1.27947 -1.47022 0
M  V30 3478 H 341.14 2.80394 -1.37061 0
M  V30 3479 N 341.441 0.965919 1.2453 0
M  V30 3480 C 342.388 0.49402 2.25451 0
M  V30 3481 C 343.358 -0.45948 1.59618 0
M  V30 3482 O 344.543 -0.370238 1.87173 0
M  V30 3483 C 341.683 -0.211359 3.44452 0
M  V30 3484 C 340.796 0.7807 4.24887 0
M  V30 3485 C 339.931 0.0516105 5.31175 0
M  V30 3486 C 338.97 1.03385 6.03306 0
M  V30 3487 N 338.107 0.334887 7.01301 0
M  V30 3488 H 342.947 1.35946 2.65184 0
M  V30 3489 H 340.484 0.681515 1.3036 0
M  V30 3490 H 342.442 -0.637 4.12308 0
M  V30 3491 H 341.072 -1.04077 3.05562 0
M  V30 3492 H 340.124 1.32479 3.56586 0
M  V30 3493 H 341.436 1.52978 4.74762 0
M  V30 3494 H 340.59 -0.432114 6.05159 0
M  V30 3495 H 339.329 -0.730179 4.82203 0
M  V30 3496 H 338.334 1.52847 5.28127 0
M  V30 3497 H 339.559 1.81606 6.54367 0
M  V30 3498 H 337.505 -0.427959 6.54603 0
M  V30 3499 H 337.422 1.02287 7.49048 0
M  V30 3500 H 338.69 -0.126928 7.79397 0
M  V30 3501 N 342.919 -1.39368 0.735821 0
M  V30 3502 C 344.147 -2.04795 0.294393 0
M  V30 3503 C 344.562 -1.55478 -1.07107 0
M  V30 3504 O 343.919 -0.720038 -1.67695 0
M  V30 3505 C 343.97 -3.6035 0.288071 0
M  V30 3506 O 343.691 -4.07852 1.59963 0
M  V30 3507 C 345.192 -4.42976 -0.169422 0
M  V30 3508 H 342.412 -0.658571 0.128551 0
M  V30 3509 H 344.956 -1.78399 0.999701 0
M  V30 3510 H 343.111 -3.85645 -0.368355 0
M  V30 3511 H 343.525 -5.02181 1.51375 0
M  V30 3512 H 344.999 -5.51864 -0.122687 0
M  V30 3513 H 345.476 -4.22068 -1.21472 0
M  V30 3514 H 346.082 -4.22832 0.457469 0
M  V30 3515 N 344.397 -0.483516 -1.5 0
M  V30 3516 C 345.307 0.309172 -2.32554 0
M  V30 3517 C 346.323 0.984159 -1.43493 0
M  V30 3518 O 347.499 0.969399 -1.76535 0
M  V30 3519 C 344.564 1.36979 -3.18493 0
M  V30 3520 C 343.625 0.710095 -4.23387 0
M  V30 3521 C 342.858 1.72018 -5.05218 0
M  V30 3522 O 343.081 2.94813 -4.88305 0
M  V30 3523 O 342.015 1.28515 -5.8802 0
M  V30 3524 H 345.841 -0.366064 -3.01486 0
M  V30 3525 H 343.426 -0.24514 -1.47375 0
M  V30 3526 H 345.308 1.98385 -3.71781 0
M  V30 3527 H 343.983 2.02828 -2.52275 0
M  V30 3528 H 342.89 0.0567539 -3.74057 0
M  V30 3529 H 344.223 0.0943557 -4.9211 0
M  V30 3530 N 345.875 1.56104 -0.216619 0
M  V30 3531 C 346.805 2.23063 0.690296 0
M  V30 3532 C 347.786 1.20072 1.20485 0
M  V30 3533 O 348.971 1.48643 1.24976 0
M  V30 3534 C 346.101 2.90672 1.90072 0
M  V30 3535 C 345.055 4.00092 1.5202 0
M  V30 3536 C 344.381 4.54972 2.80899 0
M  V30 3537 C 345.681 5.17398 0.71391 0
M  V30 3538 H 347.375 2.99109 0.132038 0
M  V30 3539 H 344.921 1.43866 0.0620664 0
M  V30 3540 H 346.874 3.36204 2.54057 0
M  V30 3541 H 345.598 2.12066 2.48386 0
M  V30 3542 H 344.257 3.55283 0.903839 0
M  V30 3543 H 343.905 3.73102 3.37348 0
M  V30 3544 H 343.605 5.28817 2.56176 0
M  V30 3545 H 345.129 5.0322 3.45836 0
M  V30 3546 H 346.543 5.59342 1.25735 0
M  V30 3547 H 344.94 5.97444 0.563951 0
M  V30 3548 H 346.01 4.84088 -0.280527 0
M  V30 3549 N 347.353 -0.0568162 1.57498 0
M  V30 3550 C 348.303 -1.07315 2.01166 0
M  V30 3551 C 349.287 -1.33632 0.896171 0
M  V30 3552 O 350.479 -1.33682 1.16009 0
M  V30 3553 C 347.608 -2.38257 2.47161 0
M  V30 3554 C 346.694 -2.1515 3.65474 0
M  V30 3555 N 347.085 -1.62014 4.7915 0
M  V30 3556 C 345.383 -2.45559 3.72313 0
M  V30 3557 C 346.084 -1.54069 5.60926 0
M  V30 3558 N 345.06 -2.00652 5.05213 0
M  V30 3559 H 348.862 -0.655878 2.86488 0
M  V30 3560 H 346.376 -0.263635 1.60246 0
M  V30 3561 H 348.373 -3.11845 2.76691 0
M  V30 3562 H 347.033 -2.80687 1.63232 0
M  V30 3563 H 348.044 -1.30667 5.01145 0
M  V30 3564 H 344.721 -2.91253 2.99129 0
M  V30 3565 H 346.111 -1.13712 6.62208 0
M  V30 3566 N 348.832 -1.54138 -0.328536 0
M  V30 3567 C 349.795 -1.82462 -1.38709 0
M  V30 3568 C 350.795 -0.696229 -1.44946 0
M  V30 3569 O 351.985 -0.964535 -1.4506 0
M  V30 3570 C 349.117 -1.98018 -2.77492 0
M  V30 3571 H 350.31 -2.77037 -1.14851 0
M  V30 3572 H 347.863 -1.45779 -0.563751 0
M  V30 3573 H 348.598 -1.05637 -3.06613 0
M  V30 3574 H 348.383 -2.80124 -2.74359 0
M  V30 3575 H 349.873 -2.21396 -3.54081 0
M  V30 3576 N 350.31 0.590341 -1.46126 0
M  V30 3577 C 351.587 1.35029 -1.41515 0
M  V30 3578 C 351.967 2.10888 -0.0946472 0
M  V30 3579 O 351.315 2.08998 0.923693 0
M  V30 3580 C 351.525 2.28269 -2.63997 0
M  V30 3581 C 352.873 2.90338 -3.09821 0
M  V30 3582 O 353.897 2.38585 -2.64492 0
M  V30 3583 O 352.756 3.84321 -3.88535 0
M  V30 3584 H 349.85 0.606317 -0.562413 0
M  V30 3585 H 352.396 0.611994 -1.58281 0
M  V30 3586 H 351.168 1.71591 -3.51671 0
M  V30 3587 H 350.791 3.0945 -2.49652 0
M  V30 3588 N 351.788 1.33704 0.83433 0
M  V30 3589 C 353.034 1.25603 1.59222 0
M  V30 3590 C 353.367 -0.176659 1.93395 0
M  V30 3591 O 352.642 -1.11915 1.59076 0
M  V30 3592 C 352.925 2.13576 2.89926 0
M  V30 3593 C 352.778 3.65326 2.62406 0
M  V30 3594 C 354.097 2.01238 3.91397 0
M  V30 3595 H 351.216 0.457613 0.577719 0
M  V30 3596 H 353.858 1.63848 0.961972 0
M  V30 3597 H 352.008 1.8109 3.43713 0
M  V30 3598 H 353.68 4.08124 2.15017 0
M  V30 3599 H 351.923 3.8698 1.96033 0
M  V30 3600 H 352.594 4.22232 3.55562 0
M  V30 3601 H 355.07 2.29738 3.46929 0
M  V30 3602 H 353.946 2.65036 4.80673 0
M  V30 3603 H 354.207 0.985951 4.30966 0
M  V30 3604 N 353.266 -1.05314 1.17247 0
M  V30 3605 C 354.196 -2.1498 0.911362 0
M  V30 3606 C 355.177 -1.69471 -0.146169 0
M  V30 3607 O 356.362 -1.942 0.003812 0
M  V30 3608 C 353.492 -3.4472 0.422528 0
M  V30 3609 C 352.446 -4.03789 1.4191 0
M  V30 3610 C 351.772 -5.28858 0.788274 0
M  V30 3611 C 353.072 -4.41418 2.7919 0
M  V30 3612 H 354.766 -2.3708 1.82848 0
M  V30 3613 H 352.312 -1.13938 0.880569 0
M  V30 3614 H 354.265 -4.20787 0.227289 0
M  V30 3615 H 352.989 -3.22269 -0.530123 0
M  V30 3616 H 351.648 -3.2979 1.60106 0
M  V30 3617 H 351.296 -5.02709 -0.171173 0
M  V30 3618 H 350.996 -5.69338 1.45353 0
M  V30 3619 H 352.52 -6.07612 0.603282 0
M  V30 3620 H 353.934 -5.08524 2.64719 0
M  V30 3621 H 352.331 -4.92913 3.42282 0
M  V30 3622 H 353.401 -3.51819 3.33693 0
M  V30 3623 N 354.744 -0.972509 -1.24016 0
M  V30 3624 C 356.16 -0.679827 -1.44397 0
M  V30 3625 C 356.36 0.756716 -1.86751 0
M  V30 3626 O 355.416 1.53007 -2.00861 0
M  V30 3627 C 356.729 -1.66803 -2.50195 0
M  V30 3628 C 358.277 -1.68119 -2.64017 0
M  V30 3629 C 358.752 -2.65748 -3.73017 0
M  V30 3630 N 360.243 -2.64219 -3.8045 0
M  V30 3631 C 360.978 -3.36433 -4.64328 0
M  V30 3632 N 360.474 -4.1818 -5.52356 0
M  V30 3633 N 362.267 -3.25235 -4.58453 0
M  V30 3634 H 354.418 -1.90059 -0.948228 0
M  V30 3635 H 356.681 -0.818527 -0.478245 0
M  V30 3636 H 356.387 -2.69498 -2.25973 0
M  V30 3637 H 356.261 -1.4446 -3.48441 0
M  V30 3638 H 358.648 -0.661319 -2.87594 0
M  V30 3639 H 358.729 -1.94525 -1.66113 0
M  V30 3640 H 358.373 -3.67872 -3.50189 0
M  V30 3641 H 358.303 -2.36619 -4.70446 0
M  V30 3642 H 360.794 -2.04887 -3.17537 0
M  V30 3643 H 361.107 -4.70157 -6.13329 0
M  V30 3644 H 359.452 -4.22273 -5.52006 0
M  V30 3645 H 362.643 -2.60829 -3.88698 0
M  V30 3646 H 362.816 -3.81776 -5.23594 0
M  V30 3647 N 356.222 1.38976 -0.743202 0
M  V30 3648 C 357.17 2.32394 -0.0978389 0
M  V30 3649 C 358.164 1.53486 0.716824 0
M  V30 3650 O 359.37 1.69092 0.617088 0
M  V30 3651 H 355.745 0.75189 -0.0128402 0
M  V30 3652 H 357.716 2.84441 -0.901981 0
M  V30 3653 C 356.465 3.38629 0.789036 0
M  V30 3654 H 355.788 3.99432 0.171559 0
M  V30 3655 H 357.228 4.06426 1.20807 0
M  V30 3656 C 355.687 2.76347 1.92702 0
M  V30 3657 O 356.217 2.64836 3.02034 0
M  V30 3658 N 354.423 2.34311 1.71891 0
M  V30 3659 H 353.97 2.43873 0.829675 0
M  V30 3660 H 353.928 1.9298 2.48205 0
M  V30 3661 N 357.7 0.491464 1.49741 0
M  V30 3662 C 358.663 -0.280906 2.27472 0
M  V30 3663 C 359.663 -0.902454 1.33088 0
M  V30 3664 O 360.853 -0.768465 1.56334 0
M  V30 3665 C 357.985 -1.40209 3.10732 0
M  V30 3666 H 359.178 0.401056 2.97206 0
M  V30 3667 H 356.731 0.246131 1.5435 0
M  V30 3668 H 357.466 -2.11849 2.45541 0
M  V30 3669 H 357.251 -0.961969 3.80117 0
M  V30 3670 H 358.741 -1.9464 3.69466 0
M  V30 3671 N 359.178 -1.55987 0.224894 0
M  V30 3672 C 360.594 -1.59066 -0.130426 0
M  V30 3673 C 360.794 -1.24176 -1.5869 0
M  V30 3674 O 359.85 -0.978592 -2.32766 0
M  V30 3675 C 361.163 -3.00042 0.198883 0
M  V30 3676 C 362.711 -3.1268 0.141391 0
M  V30 3677 C 363.186 -4.55839 0.444422 0
M  V30 3678 N 364.677 -4.6152 0.394115 0
M  V30 3679 C 365.412 -5.70231 0.602038 0
M  V30 3680 N 364.908 -6.87291 0.871914 0
M  V30 3681 N 366.701 -5.59555 0.534245 0
M  V30 3682 H 358.852 -1.76941 1.17497 0
M  V30 3683 H 361.115 -0.822604 0.471197 0
M  V30 3684 H 360.821 -3.30234 1.2099 0
M  V30 3685 H 360.695 -3.74075 -0.484535 0
M  V30 3686 H 363.082 -2.82283 -0.860265 0
M  V30 3687 H 363.163 -2.40969 0.858335 0
M  V30 3688 H 362.807 -4.86954 1.44353 0
M  V30 3689 H 362.737 -5.2578 -0.293752 0
M  V30 3690 H 365.228 -3.77405 0.193356 0
M  V30 3691 H 365.541 -7.66058 1.01858 0
M  V30 3692 H 363.886 -6.89028 0.909145 0
M  V30 3693 H 367.077 -4.6698 0.323612 0
M  V30 3694 H 367.25 -6.44211 0.699693 0
M  V30 3695 N 360.656 0.0484629 -1.57525 0
M  V30 3696 C 361.902 0.744226 -1.88651 0
M  V30 3697 C 362.235 1.76029 -0.820212 0
M  V30 3698 O 361.51 1.93782 0.166985 0
M  V30 3699 C 361.793 1.43128 -3.30434 0
M  V30 3700 C 361.646 0.43005 -4.47739 0
M  V30 3701 C 362.965 2.37031 -3.70816 0
M  V30 3702 H 360.084 0.269089 -0.68612 0
M  V30 3703 H 362.726 0.00713532 -1.89999 0
M  V30 3704 H 360.876 2.05956 -3.29415 0
M  V30 3705 H 362.548 -0.194816 -4.60888 0
M  V30 3706 H 360.791 -0.252522 -4.33064 0
M  V30 3707 H 361.462 0.948874 -5.43783 0
M  V30 3708 H 363.938 1.84263 -3.73077 0
M  V30 3709 H 362.814 2.82094 -4.70865 0
M  V30 3710 H 363.075 3.22864 -3.02012 0
M  V30 3711 N 362.134 1.5431 0.320358 0
M  V30 3712 C 363.381 1.72668 1.05792 0
M  V30 3713 C 363.709 0.502084 1.87908 0
M  V30 3714 O 362.964 -0.516149 1.88771 0
M  V30 3715 C 363.263 2.95639 2.00828 0
M  V30 3716 C 362.929 4.30265 1.34843 0
M  V30 3717 C 361.591 4.66865 1.16578 0
M  V30 3718 C 363.943 5.13801 0.875095 0
M  V30 3719 C 361.271 5.84597 0.496336 0
M  V30 3720 C 363.623 6.32219 0.219463 0
M  V30 3721 C 362.287 6.67495 0.0246915 0
M  V30 3722 H 361.557 0.631837 0.387121 0
M  V30 3723 H 364.204 1.88552 0.334735 0
M  V30 3724 H 362.509 2.74456 2.79609 0
M  V30 3725 H 364.206 3.07038 2.57932 0
M  V30 3726 H 360.796 4.01472 1.50061 0
M  V30 3727 H 364.98 4.86039 1.00398 0
M  V30 3728 H 360.236 6.10486 0.334264 0
M  V30 3729 H 364.41 6.96227 -0.155291 0
M  V30 3730 H 362.037 7.5858 -0.496065 0
M  V30 3731 N 363.613 -0.582584 1.46437 0
M  V30 3732 C 364.859 -1.34278 1.51978 0
M  V30 3733 C 365.192 -1.93446 0.170973 0
M  V30 3734 O 364.467 -1.76481 -0.817608 0
M  V30 3735 C 364.75 -2.47203 2.61845 0
M  V30 3736 C 364.603 -1.93069 4.06257 0
M  V30 3737 C 365.922 -3.49247 2.67795 0
M  V30 3738 H 363.041 -0.486876 0.553282 0
M  V30 3739 H 365.683 -0.654437 1.78374 0
M  V30 3740 H 363.833 -3.0592 2.39469 0
M  V30 3741 H 365.505 -1.38808 4.3992 0
M  V30 3742 H 363.748 -1.23898 4.1573 0
M  V30 3743 H 364.419 -2.74586 4.7886 0
M  V30 3744 H 366.895 -3.00411 2.8791 0
M  V30 3745 H 365.771 -4.25719 3.46489 0
M  V30 3746 H 366.032 -4.06482 1.73852 0
M  V30 3747 N 365.091 -1.34144 -0.827227 0
M  V30 3748 C 366.001 -1.27428 -1.96975 0
M  V30 3749 C 367.017 -0.182728 -1.73038 0
M  V30 3750 O 368.193 -0.408426 -1.97215 0
M  V30 3751 C 365.258 -1.02526 -3.31194 0
M  V30 3752 C 364.319 -2.20796 -3.68168 0
M  V30 3753 C 363.552 -1.97073 -4.95982 0
M  V30 3754 O 363.775 -0.926822 -5.6282 0
M  V30 3755 O 362.709 -2.83912 -5.30733 0
M  V30 3756 H 366.535 -2.23537 -2.05584 0
M  V30 3757 H 364.12 -1.14307 -0.961989 0
M  V30 3758 H 366.002 -0.904026 -4.11589 0
M  V30 3759 H 364.677 -0.0945389 -3.23562 0
M  V30 3760 H 363.584 -2.38477 -2.88235 0
M  V30 3761 H 364.917 -3.12243 -3.8048 0
M  V30 3762 N 366.569 1.04691 -1.17803 0
M  V30 3763 C 367.799 1.81183 -0.992788 0
M  V30 3764 C 368.207 1.8347 0.462098 0
M  V30 3765 O 367.55 1.2643 1.33271 0
M  V30 3766 C 367.612 3.28363 -1.46349 0
M  V30 3767 C 367.276 3.49749 -2.94151 0
M  V30 3768 C 368.273 3.41456 -3.92051 0
M  V30 3769 C 365.958 3.76548 -3.32441 0
M  V30 3770 C 367.952 3.59656 -5.26238 0
M  V30 3771 C 365.639 3.94396 -4.66792 0
M  V30 3772 C 366.637 3.8595 -5.635 0
M  V30 3773 O 366.325 4.03294 -6.9542 0
M  V30 3774 H 366.057 0.577622 -0.351182 0
M  V30 3775 H 368.611 1.32876 -1.5663 0
M  V30 3776 H 366.841 3.77609 -0.833574 0
M  V30 3777 H 368.53 3.86395 -1.24313 0
M  V30 3778 H 369.296 3.20723 -3.63815 0
M  V30 3779 H 365.175 3.82224 -2.57732 0
M  V30 3780 H 368.719 3.52979 -6.01707 0
M  V30 3781 H 364.616 4.14622 -4.94731 0
M  V30 3782 H 365.384 4.2049 -7.02232 0
M  V30 3783 N 368.047 0.979072 1.23499 0
M  V30 3784 C 368.957 0.526431 2.28617 0
M  V30 3785 C 369.973 -0.418126 1.68901 0
M  V30 3786 O 371.149 -0.288372 1.99325 0
M  V30 3787 C 368.214 -0.165235 3.46306 0
M  V30 3788 C 367.275 0.82056 4.21385 0
M  V30 3789 C 366.508 0.161807 5.33455 0
M  V30 3790 O 366.731 -1.04742 5.60701 0
M  V30 3791 O 365.665 0.859708 5.95729 0
M  V30 3792 H 369.491 1.4006 2.69475 0
M  V30 3793 H 367.076 0.746643 1.29405 0
M  V30 3794 H 368.958 -0.553287 4.17752 0
M  V30 3795 H 367.633 -1.01419 3.07402 0
M  V30 3796 H 366.54 1.25929 3.52268 0
M  V30 3797 H 367.873 1.63828 4.64135 0
M  V30 3798 N 369.525 -1.3858 0.750561 0
M  V30 3799 C 370.936 -1.82927 0.373438 0
M  V30 3800 C 371.287 -1.62634 -1.09748 0
M  V30 3801 O 370.412 -1.12588 -1.84805 0
M  V30 3802 C 371.007 -3.32088 0.671029 0
M  V30 3803 C 369.566 -3.74795 0.34722 0
M  V30 3804 C 368.713 -2.61391 0.92575 0
M  V30 3805 H 371.664 -1.27351 0.946958 0
M  V30 3806 H 371.685 -3.80465 -0.0518269 0
M  V30 3807 H 371.197 -3.46826 1.74164 0
M  V30 3808 H 369.298 -3.65638 -0.716933 0
M  V30 3809 H 369.411 -4.71667 0.840656 0
M  V30 3810 H 367.775 -2.52265 0.351327 0
M  V30 3811 H 368.558 -2.78929 2.00133 0
M  V30 3812 N 371.003 -0.499398 -1.49478 0
M  V30 3813 C 371.935 0.316575 -2.27003 0
M  V30 3814 C 372.948 0.932047 -1.33479 0
M  V30 3815 O 374.137 0.815658 -1.58774 0
M  V30 3816 C 371.237 1.46055 -3.05812 0
M  V30 3817 C 370.41 0.952679 -4.26899 0
M  V30 3818 C 369.469 1.97407 -4.87767 0
M  V30 3819 O 368.495 1.54326 -5.4788 0
M  V30 3820 N 369.697 3.30436 -4.77276 0
M  V30 3821 H 372.462 -0.348168 -2.97671 0
M  V30 3822 H 370.023 -0.33185 -1.58463 0
M  V30 3823 H 372.015 2.14135 -3.43407 0
M  V30 3824 H 370.585 2.02948 -2.37762 0
M  V30 3825 H 369.805 0.0968248 -3.94081 0
M  V30 3826 H 371.093 0.59174 -5.05347 0
M  V30 3827 H 370.491 3.68126 -4.29534 0
M  V30 3828 H 369.048 3.94235 -5.19059 0
M  V30 3829 N 372.481 1.55866 -0.233164 0
M  V30 3830 C 373.709 2.02998 0.399905 0
M  V30 3831 C 374.124 1.11274 1.52524 0
M  V30 3832 O 373.481 0.124528 1.82075 0
M  V30 3833 C 373.532 3.4958 0.920639 0
M  V30 3834 O 373.253 4.37808 -0.159834 0
M  V30 3835 C 374.754 4.12411 1.62578 0
M  V30 3836 H 371.974 0.664006 0.0966281 0
M  V30 3837 H 374.518 2.0143 -0.353013 0
M  V30 3838 H 372.673 3.51727 1.62379 0
M  V30 3839 H 373.087 5.23981 0.23337 0
M  V30 3840 H 374.561 5.16711 1.94201 0
M  V30 3841 H 375.038 3.5809 2.54299 0
M  V30 3842 H 375.644 4.14148 0.967553 0
M  V30 3843 N 373.959 -0.0401083 1.57549 0
M  V30 3844 C 375.375 -0.395556 1.54621 0
M  V30 3845 C 375.575 -1.77281 0.957799 0
M  V30 3846 O 374.631 -2.45888 0.574031 0
M  V30 3847 C 375.944 -0.307535 2.99123 0
M  V30 3848 C 377.492 -0.385425 3.10618 0
M  V30 3849 C 377.967 -0.326973 4.56831 0
M  V30 3850 N 379.458 -0.386102 4.61588 0
M  V30 3851 C 380.193 -0.363591 5.72246 0
M  V30 3852 N 379.689 -0.29402 6.92176 0
M  V30 3853 N 381.482 -0.412503 5.60584 0
M  V30 3854 H 373.633 0.861325 1.94152 0
M  V30 3855 H 375.896 0.326445 0.890021 0
M  V30 3856 H 375.602 0.638461 3.45856 0
M  V30 3857 H 375.476 -1.10552 3.60636 0
M  V30 3858 H 377.863 -1.32185 2.63839 0
M  V30 3859 H 377.944 0.44171 2.51957 0
M  V30 3860 H 377.588 0.605738 5.04275 0
M  V30 3861 H 377.518 -1.17207 5.13391 0
M  V30 3862 H 380.009 -0.442832 3.75296 0
M  V30 3863 H 380.322 -0.28164 7.72287 0
M  V30 3864 H 378.667 -0.260232 6.94513 0
M  V30 3865 H 381.858 -0.464769 4.65787 0
M  V30 3866 H 382.031 -0.391492 6.46816 0
M  V30 3867 N 375.437 -1.54477 -0.31217 0
M  V30 3868 C 376.686 -1.72438 -1.04633 0
M  V30 3869 C 376.999 -0.511163 -1.88803 0
M  V30 3870 O 378.205 -0.572341 -2.65399 0
M  V30 3871 C 376.661 -3.05043 -1.9099 0
M  V30 3872 C 376.269 -4.33806 -1.11877 0
M  V30 3873 C 378.013 -3.32364 -2.64073 0
M  V30 3874 C 375.92 -5.57467 -1.97445 0
M  V30 3875 H 374.85 -0.642647 -0.394361 0
M  V30 3876 H 377.501 -1.80966 -0.303929 0
M  V30 3877 H 375.883 -2.90451 -2.69173 0
M  V30 3878 H 377.057 -4.59199 -0.383843 0
M  V30 3879 H 375.372 -4.13336 -0.504252 0
M  V30 3880 H 377.969 -4.21951 -3.28423 0
M  V30 3881 H 378.312 -2.50745 -3.32314 0
M  V30 3882 H 378.845 -3.47875 -1.92944 0
M  V30 3883 H 375.584 -6.41722 -1.33692 0
M  V30 3884 H 375.104 -5.36277 -2.6864 0
M  V30 3885 H 376.783 -5.94303 -2.5576 0
M  V30 3886 N 376.915 0.57481 -1.46744 0
M  V30 3887 C 377.825 1.711 -1.60505 0
M  V30 3888 C 378.841 1.67008 -0.488307 0
M  V30 3889 O 380.017 1.86774 -0.753495 0
M  V30 3890 C 377.082 3.07608 -1.59932 0
M  V30 3891 C 376.143 3.22904 -2.82898 0
M  V30 3892 C 375.376 4.529 -2.82343 0
M  V30 3893 O 375.599 5.37278 -1.91542 0
M  V30 3894 O 374.533 4.71611 -3.73987 0
M  V30 3895 H 378.359 1.62436 -2.56609 0
M  V30 3896 H 375.944 0.742779 -1.29627 0
M  V30 3897 H 377.826 3.88877 -1.62336 0
M  V30 3898 H 376.501 3.16692 -0.669898 0
M  V30 3899 H 375.408 2.41099 -2.86046 0
M  V30 3900 H 376.741 3.18715 -3.75076 0
M  V30 3901 N 378.394 1.34581 0.820102 0
M  V30 3902 C 379.642 1.26845 1.57336 0
M  V30 3903 C 379.963 -0.160667 1.94337 0
M  V30 3904 O 379.233 -1.09396 1.6251 0
M  V30 3905 H 377.813 0.466514 0.583415 0
M  V30 3906 H 380.475 1.68526 0.979027 0
M  V30 3907 H 379.571 1.87513 2.4949 0
M  V30 3908 N 379.872 -1.04064 1.18357 0
M  V30 3909 C 380.782 -2.15569 0.925596 0
M  V30 3910 C 381.798 -1.7365 -0.110295 0
M  V30 3911 O 382.974 -2.01273 0.0716218 0
M  V30 3912 C 380.039 -3.43704 0.454836 0
M  V30 3913 C 379.1 -4.00004 1.55869 0
M  V30 3914 C 378.333 -5.22023 1.1103 0
M  V30 3915 O 378.556 -5.70392 -0.0309756 0
M  V30 3916 O 377.49 -5.70856 1.90805 0
M  V30 3917 H 381.316 -2.40187 1.8586 0
M  V30 3918 H 378.901 -1.1402 0.965394 0
M  V30 3919 H 380.783 -4.20923 0.200382 0
M  V30 3920 H 379.458 -3.20559 -0.449876 0
M  V30 3921 H 378.365 -3.24172 1.86716 0
M  V30 3922 H 379.698 -4.2749 2.43953 0
M  V30 3923 N 381.35 -0.985608 -1.22978 0
M  V30 3924 C 382.599 -0.652881 -1.90841 0
M  V30 3925 C 382.912 0.817842 -1.77681 0
M  V30 3926 O 384.118 1.26185 -2.40395 0
M  V30 3927 C 382.574 -1.11717 -3.42122 0
M  V30 3928 C 382.182 -2.6126 -3.63933 0
M  V30 3929 C 383.926 -0.85843 -4.1573 0
M  V30 3930 C 381.833 -3.0133 -5.08876 0
M  V30 3931 H 380.763 -0.240491 -0.714619 0
M  V30 3932 H 383.414 -1.1942 -1.39324 0
M  V30 3933 H 381.796 -0.504027 -3.92779 0
M  V30 3934 H 382.97 -3.27858 -3.23799 0
M  V30 3935 H 381.285 -2.84937 -3.03644 0
M  V30 3936 H 383.882 -1.13359 -5.22546 0
M  V30 3937 H 384.225 0.205461 -4.15793 0
M  V30 3938 H 384.758 -1.43341 -3.71077 0
M  V30 3939 H 381.497 -4.06864 -5.13947 0
M  V30 3940 H 381.017 -2.3943 -5.49939 0
M  V30 3941 H 382.696 -2.92224 -5.77247 0
M  V30 3942 N 382.828 1.3818 -0.7579 0
M  V30 3943 C 383.76 2.2901 -0.0932177 0
M  V30 3944 C 384.773 1.47958 0.679136 0
M  V30 3945 O 385.962 1.70773 0.519514 0
M  V30 3946 C 383.062 3.26953 0.89192 0
M  V30 3947 C 382.235 4.37045 0.176303 0
M  V30 3948 C 381.294 5.15148 1.07281 0
M  V30 3949 O 380.32 5.66616 0.541728 0
M  V30 3950 N 381.522 5.28542 2.40049 0
M  V30 3951 H 384.287 2.86694 -0.873303 0
M  V30 3952 H 381.848 1.50007 -0.609054 0
M  V30 3953 H 383.84 3.76083 1.49479 0
M  V30 3954 H 382.41 2.70136 1.57306 0
M  V30 3955 H 381.63 3.89493 -0.607328 0
M  V30 3956 H 382.918 5.07801 -0.318718 0
M  V30 3957 H 382.316 4.88285 2.85647 0
M  V30 3958 H 380.873 5.8103 2.95376 0
M  V30 3959 N 384.306 0.507319 1.49211 0
M  V30 3960 C 385.238 -0.304532 2.27168 0
M  V30 3961 C 386.251 -0.924956 1.33972 0
M  V30 3962 O 387.44 -0.807227 1.59205 0
M  V30 3963 C 384.54 -1.44431 3.06583 0
M  V30 3964 C 383.713 -0.930026 4.27398 0
M  V30 3965 C 382.772 -1.94817 4.88807 0
M  V30 3966 O 381.798 -1.51418 5.4869 0
M  V30 3967 N 383 -3.279 4.79022 0
M  V30 3968 H 385.765 0.36395 2.97482 0
M  V30 3969 H 383.326 0.340249 1.58284 0
M  V30 3970 H 385.318 -2.12311 3.44537 0
M  V30 3971 H 383.888 -2.01684 2.38835 0
M  V30 3972 H 383.108 -0.0759244 3.94127 0
M  V30 3973 H 384.396 -0.564932 5.05654 0
M  V30 3974 H 383.794 -3.65843 4.3148 0
M  V30 3975 H 382.351 -3.91476 5.21142 0
M  V30 3976 N 385.784 -1.5574 0.241426 0
M  V30 3977 C 386.714 -2.24133 -0.654722 0
M  V30 3978 C 387.695 -1.21974 -1.1856 0
M  V30 3979 O 388.88 -1.50612 -1.22595 0
M  V30 3980 C 386.01 -2.93659 -1.85423 0
M  V30 3981 C 384.964 -4.0246 -1.45636 0
M  V30 3982 C 384.29 -4.59383 -2.73626 0
M  V30 3983 C 385.59 -5.18468 -0.631506 0
M  V30 3984 H 387.284 -2.99281 -0.0844353 0
M  V30 3985 H 384.83 -1.43947 -0.0391707 0
M  V30 3986 H 386.783 -3.40203 -2.48676 0
M  V30 3987 H 385.507 -2.15991 -2.44981 0
M  V30 3988 H 384.166 -3.56676 -0.847202 0
M  V30 3989 H 383.814 -3.78422 -3.3137 0
M  V30 3990 H 383.514 -5.32826 -2.4773 0
M  V30 3991 H 385.038 -5.08658 -3.37786 0
M  V30 3992 H 386.452 -5.61272 -1.1682 0
M  V30 3993 H 384.849 -5.98266 -0.468831 0
M  V30 3994 H 385.919 -4.8358 0.357506 0
M  V30 3995 N 387.262 0.0317525 -1.57568 0
M  V30 3996 C 388.673 0.578692 -1.77505 0
M  V30 3997 C 389.024 1.75749 -0.872164 0
M  V30 3998 O 388.149 2.16298 -0.0663106 0
M  V30 3999 C 388.744 1.05658 -3.21904 0
M  V30 4000 C 387.303 1.54906 -3.43047 0
M  V30 4001 C 386.45 0.485939 -2.73009 0
M  V30 4002 H 389.401 -0.194475 -1.57504 0
M  V30 4003 H 389.422 1.92404 -3.28269 0
M  V30 4004 H 388.934 0.198422 -3.87592 0
M  V30 4005 H 387.035 2.42915 -2.82529 0
M  V30 4006 H 387.148 1.59841 -4.5165 0
M  V30 4007 H 385.512 0.940354 -2.36705 0
M  V30 4008 H 386.295 -0.362709 -3.41379 0
M  V30 4009 N 388.74 1.54641 0.303973 0
M  V30 4010 C 389.703 1.84646 1.35789 0
M  V30 4011 C 390.703 0.7192 1.4382 0
M  V30 4012 O 391.893 0.987491 1.43507 0
M  V30 4013 C 389.025 2.02407 2.74307 0
M  V30 4014 H 390.218 2.78829 1.10429 0
M  V30 4015 H 387.771 1.46658 0.540487 0
M  V30 4016 H 388.506 1.10502 3.04893 0
M  V30 4017 H 388.291 2.84453 2.69868 0
M  V30 4018 H 389.781 2.27002 3.50514 0
M  V30 4019 N 390.218 -0.567019 1.47046 0
M  V30 4020 C 391.495 -1.3276 1.43646 0
M  V30 4021 C 391.875 -2.1071 0.128186 0
M  V30 4022 O 391.223 -2.10441 -0.890326 0
M  V30 4023 C 391.433 -2.2404 2.67595 0
M  V30 4024 C 392.781 -2.85372 3.14401 0
M  V30 4025 O 393.805 -2.34346 2.68254 0
M  V30 4026 O 392.664 -3.78091 3.946 0
M  V30 4027 H 389.758 -0.597293 0.571988 0
M  V30 4028 H 392.304 -0.586735 1.59234 0
M  V30 4029 H 391.076 -1.65975 3.54356 0
M  V30 4030 H 390.699 -3.05439 2.54544 0
M  V30 4031 N 391.696 -1.35014 -0.812953 0
M  V30 4032 C 392.943 -1.27931 -1.56971 0
M  V30 4033 C 393.271 0.148034 -1.93936 0
M  V30 4034 O 392.526 1.11175 -1.61054 0
M  V30 4035 C 392.825 -2.12524 -2.87347 0
M  V30 4036 C 392.491 -3.61401 -2.6963 0
M  V30 4037 C 391.153 -4.01983 -2.64506 0
M  V30 4038 C 393.505 -4.55894 -2.52607 0
M  V30 4039 C 390.833 -5.35235 -2.40293 0
M  V30 4040 C 393.185 -5.89336 -2.29925 0
M  V30 4041 C 391.849 -6.2907 -2.23219 0
M  V30 4042 H 391.119 -0.468131 -0.574399 0
M  V30 4043 H 393.766 -1.66851 -0.939836 0
M  V30 4044 H 392.071 -1.66463 -3.54679 0
M  V30 4045 H 393.768 -2.04383 -3.45005 0
M  V30 4046 H 390.358 -3.29193 -2.74463 0
M  V30 4047 H 394.542 -4.25431 -2.55583 0
M  V30 4048 H 389.798 -5.65028 -2.33566 0
M  V30 4049 H 393.972 -6.62139 -2.15743 0
M  V30 4050 H 391.599 -7.32256 -2.04219 0
M  V30 4051 N 393.175 1.03435 -1.18907 0
M  V30 4052 C 394.586 1.58195 -0.991523 0
M  V30 4053 C 394.937 1.90801 0.457081 0
M  V30 4054 O 394.062 1.70272 1.33553 0
M  V30 4055 C 394.657 2.87432 -1.79355 0
M  V30 4056 C 393.216 3.38785 -1.64017 0
M  V30 4057 C 392.363 2.12292 -1.78402 0
M  V30 4058 H 395.314 0.860299 -1.33359 0
M  V30 4059 H 395.335 3.58096 -1.28638 0
M  V30 4060 H 394.847 2.63669 -2.84781 0
M  V30 4061 H 392.948 3.67547 -0.611536 0
M  V30 4062 H 393.061 4.12186 -2.44212 0
M  V30 4063 H 391.425 2.23901 -1.2141 0
M  V30 4064 H 392.208 1.90977 -2.85277 0
M  V30 4065 N 394.653 0.992116 1.22453 0
M  V30 4066 C 395.899 0.668523 1.91464 0
M  V30 4067 C 396.232 -0.797313 1.77078 0
M  V30 4068 O 395.507 -1.5765 1.13916 0
M  V30 4069 C 395.79 1.07424 3.43703 0
M  V30 4070 C 395.643 2.59857 3.67143 0
M  V30 4071 C 396.962 0.626891 4.35612 0
M  V30 4072 H 394.081 0.244341 0.695318 0
M  V30 4073 H 396.723 1.2355 1.44345 0
M  V30 4074 H 394.873 0.591816 3.83966 0
M  V30 4075 H 396.545 3.15764 3.3629 0
M  V30 4076 H 394.788 3.01961 3.11451 0
M  V30 4077 H 395.459 2.83296 4.73759 0
M  V30 4078 H 397.935 1.04125 4.02861 0
M  V30 4079 H 396.811 0.939076 5.40807 0
M  V30 4080 H 397.072 -0.472457 4.39568 0
M  V30 4081 N 396.131 -1.37776 0.765217 0
M  V30 4082 C 397.377 -2.00145 0.327072 0
M  V30 4083 C 397.71 -1.60607 -1.09175 0
M  V30 4084 O 396.985 -0.849127 -1.74986 0
M  V30 4085 C 397.268 -3.57109 0.46319 0
M  V30 4086 C 397.121 -4.06576 1.92395 0
M  V30 4087 C 398.44 -4.39888 -0.136473 0
M  V30 4088 H 395.559 -0.727113 0.120316 0
M  V30 4089 H 398.201 -1.63549 0.967039 0
M  V30 4090 H 396.351 -3.88414 -0.0816358 0
M  V30 4091 H 398.023 -3.85864 2.52798 0
M  V30 4092 H 396.266 -3.59011 2.43503 0
M  V30 4093 H 396.937 -5.15639 1.97028 0
M  V30 4094 H 399.413 -4.14803 0.328317 0
M  V30 4095 H 398.289 -5.48899 -0.0110582 0
M  V30 4096 H 398.55 -4.24758 -1.22608 0
M  V30 4097 N 397.609 -0.515225 -1.4894 0
M  V30 4098 C 398.886 0.0879088 -1.95402 0
M  V30 4099 C 399.266 1.52745 -1.45712 0
M  V30 4100 O 398.614 2.18238 -0.677093 0
M  V30 4101 C 398.824 -0.0141055 -3.48997 0
M  V30 4102 C 400.172 0.152646 -4.24326 0
M  V30 4103 O 401.196 0.0604025 -3.56149 0
M  V30 4104 O 400.055 0.34384 -5.45417 0
M  V30 4105 H 397.149 0.0874636 -0.822362 0
M  V30 4106 H 399.695 -0.578775 -1.59525 0
M  V30 4107 H 398.467 -1.01745 -3.77841 0
M  V30 4108 H 398.09 0.692091 -3.9153 0
M  V30 4109 N 399.087 1.5561 -0.249682 0
M  V30 4110 C 400.017 2.24477 0.642826 0
M  V30 4111 C 400.998 1.22601 1.17911 0
M  V30 4112 O 402.183 1.5126 1.21795 0
M  V30 4113 C 399.313 2.94638 1.83863 0
M  V30 4114 C 398.267 4.03227 1.435 0
M  V30 4115 C 397.593 4.60828 2.71186 0
M  V30 4116 C 398.893 5.18796 0.604002 0
M  V30 4117 H 400.587 2.99321 0.0685625 0
M  V30 4118 H 398.133 1.43965 0.0315363 0
M  V30 4119 H 400.086 3.41517 2.46868 0
M  V30 4120 H 398.81 2.17287 2.43832 0
M  V30 4121 H 397.469 3.57121 0.828275 0
M  V30 4122 H 397.117 3.80174 3.29358 0
M  V30 4123 H 396.817 5.34132 2.44901 0
M  V30 4124 H 398.341 5.10442 3.35084 0
M  V30 4125 H 399.755 5.61883 1.13842 0
M  V30 4126 H 398.152 5.98506 0.437097 0
M  V30 4127 H 399.222 4.83384 -0.383147 0
M  V30 4128 N 400.565 -0.0233959 1.57583 0
M  V30 4129 C 401.811 -0.708611 1.90657 0
M  V30 4130 C 402.166 -1.7266 0.848895 0
M  V30 4131 O 401.459 -1.91075 -0.141749 0
M  V30 4132 C 401.653 -1.41428 3.28227 0
M  V30 4133 C 401.482 -0.466155 4.47277 0
M  V30 4134 C 400.252 -0.085117 5.05228 0
M  V30 4135 C 402.45 0.257836 5.13653 0
M  V30 4136 N 400.432 0.863672 6.07794 0
M  V30 4137 C 401.803 1.06209 6.10835 0
M  V30 4138 C 403.858 0.324174 4.96844 0
M  V30 4139 C 402.561 1.9266 6.93018 0
M  V30 4140 C 404.587 1.17583 5.79593 0
M  V30 4141 C 403.949 1.96799 6.7635 0
M  V30 4142 H 400.048 -0.233222 0.746412 0
M  V30 4143 H 402.632 0.0314512 1.94675 0
M  V30 4144 H 400.803 -2.12477 3.25128 0
M  V30 4145 H 402.535 -2.05233 3.488 0
M  V30 4146 H 399.29 -0.448516 4.71471 0
M  V30 4147 H 399.714 1.33274 6.63752 0
M  V30 4148 H 404.356 -0.273975 4.21911 0
M  V30 4149 H 402.074 2.53552 7.67292 0
M  V30 4150 H 405.66 1.23076 5.68633 0
M  V30 4151 H 404.54 2.61635 7.39268 0
M  V30 4152 N 402.043 -1.548 -0.295768 0
M  V30 4153 C 403.459 -1.4613 -0.641722 0
M  V30 4154 C 403.659 -0.656771 -1.90496 0
M  V30 4155 O 402.715 -0.166547 -2.5195 0
M  V30 4156 C 404.028 -2.90141 -0.789852 0
M  V30 4157 C 405.576 -3.00216 -0.885396 0
M  V30 4158 C 406.051 -4.45434 -1.06548 0
M  V30 4159 N 407.542 -4.49166 -1.13156 0
M  V30 4160 C 408.277 -5.58717 -1.28929 0
M  V30 4161 N 407.773 -6.78182 -1.41567 0
M  V30 4162 N 409.566 -5.46415 -1.31859 0
M  V30 4163 H 401.717 -2.05574 0.534147 0
M  V30 4164 H 403.98 -0.931259 0.177372 0
M  V30 4165 H 403.686 -3.51635 0.0675598 0
M  V30 4166 H 403.56 -3.37859 -1.67724 0
M  V30 4167 H 405.947 -2.38833 -1.73329 0
M  V30 4168 H 406.028 -2.55787 0.0261185 0
M  V30 4169 H 405.672 -5.07413 -0.222335 0
M  V30 4170 H 405.602 -4.87499 -1.9913 0
M  V30 4171 H 408.093 -3.631 -1.04721 0
M  V30 4172 H 408.406 -7.57428 -1.53372 0
M  V30 4173 H 406.751 -6.81037 -1.38613 0
M  V30 4174 H 409.942 -4.5203 -1.21601 0
M  V30 4175 H 410.115 -6.31841 -1.43808 0
M  V30 4176 N 403.521 0.559213 -1.47345 0
M  V30 4177 C 404.767 1.31843 -1.54095 0
M  V30 4178 C 405.1 1.93149 -0.201726 0
M  V30 4179 O 404.375 1.77759 0.789428 0
M  V30 4180 C 404.658 2.43006 -2.65744 0
M  V30 4181 C 404.511 1.86581 -4.09277 0
M  V30 4182 C 405.83 3.44943 -2.73318 0
M  V30 4183 H 402.949 0.478012 -0.560957 0
M  V30 4184 H 405.591 0.625977 -1.79392 0
M  V30 4185 H 403.741 3.02072 -2.44305 0
M  V30 4186 H 405.413 1.31792 -4.42073 0
M  V30 4187 H 403.656 1.17268 -4.17649 0
M  V30 4188 H 404.327 2.66933 -4.83168 0
M  V30 4189 H 406.803 2.95793 -2.92653 0
M  V30 4190 H 405.679 4.20153 -3.53218 0
M  V30 4191 H 405.94 4.03665 -1.80296 0
M  V30 4192 N 404.999 1.35443 0.805782 0
M  V30 4193 C 405.929 1.31095 1.93226 0
M  V30 4194 C 406.91 0.185244 1.69088 0
M  V30 4195 O 408.095 0.380332 1.90439 0
M  V30 4196 C 405.225 1.08299 3.29983 0
M  V30 4197 C 404.179 2.17519 3.68605 0
M  V30 4198 C 403.505 1.79887 5.03532 0
M  V30 4199 C 404.805 3.5949 3.78898 0
M  V30 4200 H 406.499 2.25352 1.97122 0
M  V30 4201 H 404.045 1.0848 0.946996 0
M  V30 4202 H 405.998 1.03897 4.08391 0
M  V30 4203 H 404.722 0.104885 3.26432 0
M  V30 4204 H 403.381 2.2102 2.92482 0
M  V30 4205 H 403.029 0.80693 4.96485 0
M  V30 4206 H 402.729 2.53001 5.30344 0
M  V30 4207 H 404.253 1.77011 5.84379 0
M  V30 4208 H 405.667 3.58307 4.47536 0
M  V30 4209 H 404.064 4.31371 4.1718 0
M  V30 4210 H 405.134 3.95584 2.80431 0
M  V30 4211 N 406.477 -1.02803 1.19454 0
M  V30 4212 C 407.893 -1.28473 0.946937 0
M  V30 4213 C 408.093 -1.97881 -0.380202 0
M  V30 4214 O 407.149 -2.26719 -1.11151 0
M  V30 4215 C 408.462 -2.13099 2.12154 0
M  V30 4216 C 410.01 -2.26404 2.16126 0
M  V30 4217 C 410.485 -3.14402 3.33039 0
M  V30 4218 N 411.976 -3.21991 3.32981 0
M  V30 4219 C 412.711 -3.90272 4.20089 0
M  V30 4220 N 412.207 -4.60777 5.17355 0
M  V30 4221 N 414 -3.8668 4.07964 0
M  V30 4222 H 406.151 -0.561665 2.04839 0
M  V30 4223 H 408.414 -0.310438 0.89573 0
M  V30 4224 H 408.12 -1.69422 3.08203 0
M  V30 4225 H 407.994 -3.13813 2.09287 0
M  V30 4226 H 410.381 -2.69311 1.20647 0
M  V30 4227 H 410.462 -1.25237 2.23045 0
M  V30 4228 H 410.106 -2.72204 4.28798 0
M  V30 4229 H 410.036 -4.1563 3.23356 0
M  V30 4230 H 412.527 -2.71778 2.62574 0
M  V30 4231 H 412.84 -5.10513 5.80169 0
M  V30 4232 H 411.185 -4.5964 5.21302 0
M  V30 4233 H 414.376 -3.30739 3.31254 0
M  V30 4234 H 414.549 -4.39621 4.76064 0
M  V30 4235 N 407.956 -0.998596 -1.21925 0
M  V30 4236 C 409.204 -0.676325 -1.90448 0
M  V30 4237 C 409.525 0.794719 -1.78071 0
M  V30 4238 O 408.795 1.5701 -1.17152 0
M  V30 4239 H 407.375 -0.247165 -0.704925 0
M  V30 4240 H 410.037 -1.26633 -1.48156 0
M  V30 4241 H 409.133 -0.943858 -2.97486 0
M  V30 4242 N 409.434 1.37368 -0.772513 0
M  V30 4243 C 410.344 2.34053 -0.160081 0
M  V30 4244 C 411.36 1.60216 0.678728 0
M  V30 4245 O 412.536 1.92303 0.59847 0
M  V30 4246 C 409.601 3.3939 0.708182 0
M  V30 4247 C 408.662 4.29048 -0.147172 0
M  V30 4248 C 407.895 5.29354 0.679744 0
M  V30 4249 O 408.118 5.3723 1.91678 0
M  V30 4250 O 407.052 6.01835 0.0885444 0
M  V30 4251 H 410.878 2.88159 -0.959053 0
M  V30 4252 H 408.463 1.39543 -0.533685 0
M  V30 4253 H 410.345 4.03839 1.20384 0
M  V30 4254 H 409.02 2.8761 1.48533 0
M  V30 4255 H 407.927 3.67697 -0.689205 0
M  V30 4256 H 409.26 4.84134 -0.887423 0
M  V30 4257 N 410.912 0.523116 1.48665 0
M  V30 4258 C 412.14 -0.0096312 2.06898 0
M  V30 4259 C 412.555 -1.28784 1.38059 0
M  V30 4260 O 411.912 -1.76453 0.465893 0
M  V30 4261 C 411.963 -0.244386 3.60673 0
M  V30 4262 O 411.684 0.983172 4.26925 0
M  V30 4263 C 413.185 -0.818289 4.35682 0
M  V30 4264 H 410.405 0.0304161 0.67031 0
M  V30 4265 H 412.949 0.726799 1.91149 0
M  V30 4266 H 411.104 -0.930847 3.76051 0
M  V30 4267 H 411.518 0.759653 5.1897 0
M  V30 4268 H 412.992 -0.93201 5.44075 0
M  V30 4269 H 413.469 -1.82153 3.99646 0
M  V30 4270 H 414.075 -0.168609 4.24966 0
M  V30 4271 N 412.39 -1.55475 0.257931 0
M  V30 4272 C 413.3 -2.2549 -0.647425 0
M  V30 4273 C 414.316 -1.2748 -1.18427 0
M  V30 4274 O 415.492 -1.6038 -1.2182 0
M  V30 4275 C 412.557 -2.94916 -1.82278 0
M  V30 4276 C 411.618 -4.08363 -1.32432 0
M  V30 4277 C 410.851 -4.74469 -2.44366 0
M  V30 4278 O 411.074 -4.39701 -3.63344 0
M  V30 4279 O 410.008 -5.62763 -2.13497 0
M  V30 4280 H 413.834 -3.03593 -0.0807707 0
M  V30 4281 H 411.419 -1.49377 0.0259962 0
M  V30 4282 H 413.301 -3.38606 -2.50846 0
M  V30 4283 H 411.976 -2.19744 -2.37685 0
M  V30 4284 H 410.883 -3.69166 -0.605605 0
M  V30 4285 H 412.216 -4.85385 -0.816211 0
M  V30 4286 N 413.868 0.0150385 -1.57593 0
M  V30 4287 C 415.116 0.701613 -1.8953 0
M  V30 4288 C 415.437 1.75139 -0.857396 0
M  V30 4289 O 414.707 1.95607 0.107194 0
M  V30 4290 H 413.287 0.26213 -0.699498 0
M  V30 4291 H 415.949 -0.0223304 -1.94887 0
M  V30 4292 H 415.045 1.18236 -2.88837 0
M  V30 4293 N 415.346 1.54954 0.287554 0
M  V30 4294 C 416.762 1.46469 0.633964 0
M  V30 4295 C 416.962 0.666865 1.90145 0
M  V30 4296 O 416.018 0.179906 2.51858 0
M  V30 4297 C 417.331 2.90556 0.774454 0
M  V30 4298 C 418.879 3.00681 0.869462 0
M  V30 4299 C 419.354 4.45993 1.04184 0
M  V30 4300 N 420.845 4.4976 1.10772 0
M  V30 4301 C 421.58 5.59393 1.25964 0
M  V30 4302 N 421.076 6.78923 1.37968 0
M  V30 4303 N 422.869 5.47107 1.28959 0
M  V30 4304 H 415.02 2.05288 -0.545041 0
M  V30 4305 H 417.283 0.930305 -0.182308 0
M  V30 4306 H 416.989 3.51594 -0.086207 0
M  V30 4307 H 416.863 3.38743 1.6593 0
M  V30 4308 H 419.25 2.39749 1.7206 0
M  V30 4309 H 419.331 2.55769 -0.0396831 0
M  V30 4310 H 418.975 5.07524 0.195422 0
M  V30 4311 H 418.905 4.88548 1.96542 0
M  V30 4312 H 421.396 3.63651 1.02794 0
M  V30 4313 H 421.709 7.58231 1.49353 0
M  V30 4314 H 420.054 6.81763 1.34999 0
M  V30 4315 H 423.245 4.52668 1.19202 0
M  V30 4316 H 423.418 6.32595 1.40455 0
M  V30 4317 N 416.824 -0.551391 1.4764 0
M  V30 4318 C 417.756 -1.67333 1.56628 0
M  V30 4319 C 418.769 -1.56398 0.452045 0
M  V30 4320 O 419.958 -1.6325 0.721926 0
M  V30 4321 C 417.058 -3.05841 1.45994 0
M  V30 4322 C 416.231 -3.42472 2.72088 0
M  V30 4323 C 415.29 -4.60168 2.55209 0
M  V30 4324 O 414.316 -4.64458 3.2904 0
M  V30 4325 N 415.518 -5.57024 1.63416 0
M  V30 4326 H 418.283 -1.60066 2.53375 0
M  V30 4327 H 415.844 -0.738169 1.44093 0
M  V30 4328 H 417.836 -3.8242 1.32428 0
M  V30 4329 H 416.406 -3.07302 0.573071 0
M  V30 4330 H 415.626 -2.55284 3.00373 0
M  V30 4331 H 416.914 -3.63723 3.55785 0
M  V30 4332 H 416.312 -5.56319 1.02594 0
M  V30 4333 H 414.869 -6.32906 1.558 0
M  V30 4334 N 418.302 -1.35869 -0.798587 0
M  V30 4335 C 419.527 -1.32883 -1.59238 0
M  V30 4336 C 419.952 0.0894587 -1.87887 0
M  V30 4337 O 419.31 1.05869 -1.47178 0
M  V30 4338 C 419.358 -2.14892 -2.89575 0
M  V30 4339 O 418.462 -1.53512 -3.82763 0
M  V30 4340 H 417.803 -0.455236 -0.48338 0
M  V30 4341 H 420.333 -1.79024 -0.990539 0
M  V30 4342 H 420.343 -2.27139 -3.38928 0
M  V30 4343 H 419.018 -3.17998 -2.68049 0
M  V30 4344 H 417.595 -1.50153 -3.41334 0
M  V30 4345 N 419.78 1.02168 -1.19998 0
M  V30 4346 C 421.057 1.72816 -0.916191 0
M  V30 4347 C 421.437 2.03081 0.576325 0
M  V30 4348 O 420.785 1.69122 1.53656 0
M  V30 4349 C 420.995 2.9997 -1.78378 0
M  V30 4350 C 422.343 3.73336 -2.02251 0
M  V30 4351 O 423.367 3.09914 -1.75589 0
M  V30 4352 O 422.226 4.87371 -2.47249 0
M  V30 4353 H 419.32 0.752924 -0.342103 0
M  V30 4354 H 421.866 1.08062 -1.30846 0
M  V30 4355 H 420.638 2.73888 -2.79466 0
M  V30 4356 H 420.261 3.72464 -1.39126 0
M  V30 4357 N 421.258 1.00505 1.21394 0
M  V30 4358 C 422.483 0.706367 1.95001 0
M  V30 4359 C 422.908 -0.72463 1.73582 0
M  V30 4360 O 422.266 -1.49702 1.0227 0
M  V30 4361 C 422.314 1.03299 3.45487 0
M  V30 4362 O 421.418 0.138275 4.12168 0
M  V30 4363 H 420.759 0.263175 0.609619 0
M  V30 4364 H 423.289 1.34531 1.54151 0
M  V30 4365 H 423.299 0.979872 3.96059 0
M  V30 4366 H 421.974 2.07567 3.60401 0
M  V30 4367 H 420.551 0.247928 3.72075 0
M  V30 4368 N 422.737 -1.36956 0.779787 0
M  V30 4369 C 423.669 -2.28833 0.129639 0
M  V30 4370 C 424.682 -1.4902 -0.655511 0
M  V30 4371 O 425.871 -1.71578 -0.492279 0
M  V30 4372 C 422.971 -3.2833 -0.839792 0
M  V30 4373 C 422.144 -4.3727 -0.10675 0
M  V30 4374 C 421.203 -5.16789 -0.990717 0
M  V30 4375 O 420.229 -5.67406 -0.451516 0
M  V30 4376 N 421.431 -5.32294 -2.3161 0
M  V30 4377 H 424.196 -2.85268 0.918803 0
M  V30 4378 H 421.757 -1.49019 0.632841 0
M  V30 4379 H 423.749 -3.78413 -1.43477 0
M  V30 4380 H 422.319 -2.72605 -1.52988 0
M  V30 4381 H 421.539 -3.88478 0.669216 0
M  V30 4382 H 422.827 -5.07229 0.399464 0
M  V30 4383 H 422.225 -4.92768 -2.77843 0
M  V30 4384 H 420.782 -5.85656 -2.86095 0
M  V30 4385 N 424.215 -0.530993 -1.48385 0
M  V30 4386 C 425.461 0.00274135 -2.028 0
M  V30 4387 C 425.794 1.33838 -1.40716 0
M  V30 4388 O 425.069 1.86465 -0.553277 0
M  V30 4389 C 425.352 0.123676 -3.59888 0
M  V30 4390 C 425.205 -1.2372 -4.3245 0
M  V30 4391 C 426.524 0.849967 -4.31814 0
M  V30 4392 H 423.643 -0.000477758 -0.737 0
M  V30 4393 H 426.285 -0.688217 -1.77098 0
M  V30 4394 H 424.435 0.712157 -3.81917 0
M  V30 4395 H 426.107 -1.86687 -4.21836 0
M  V30 4396 H 424.35 -1.81882 -3.93829 0
M  V30 4397 H 425.021 -1.10557 -5.40815 0
M  V30 4398 H 427.497 0.350572 -4.14621 0
M  V30 4399 H 426.373 0.903486 -5.41413 0
M  V30 4400 H 426.634 1.90047 -3.99167 0
M  V30 4401 N 425.693 1.55336 -0.266172 0
M  V30 4402 C 426.921 2.03801 0.356756 0
M  V30 4403 C 427.336 1.14485 1.50129 0
M  V30 4404 O 426.693 0.163121 1.8177 0
M  V30 4405 C 426.744 3.51455 0.846281 0
M  V30 4406 O 426.465 4.37371 -0.252663 0
M  V30 4407 C 427.966 4.15767 1.53794 0
M  V30 4408 H 425.186 0.665906 0.0825218 0
M  V30 4409 H 427.73 2.00636 -0.39566 0
M  V30 4410 H 425.885 3.55092 1.54881 0
M  V30 4411 H 426.299 5.24358 0.122173 0
M  V30 4412 H 427.773 5.20714 1.83198 0
M  V30 4413 H 428.25 3.63404 2.46646 0
M  V30 4414 H 428.856 4.16107 0.879488 0
M  V30 4415 N 427.171 -0.0066808 1.57599 0
M  V30 4416 C 428.417 -0.693947 1.90558 0
M  V30 4417 C 428.75 -1.73792 0.866594 0
M  V30 4418 O 428.025 -1.94156 -0.115548 0
M  V30 4419 C 428.308 -1.34317 3.34112 0
M  V30 4420 C 428.161 -0.311189 4.48722 0
M  V30 4421 C 429.48 -2.27116 3.7697 0
M  V30 4422 H 426.599 -0.250803 0.693013 0
M  V30 4423 H 429.241 0.043242 1.89951 0
M  V30 4424 H 427.391 -1.9715 3.3476 0
M  V30 4425 H 429.063 0.316944 4.6021 0
M  V30 4426 H 427.306 0.367253 4.32243 0
M  V30 4427 H 427.977 -0.804366 5.46108 0
M  V30 4428 H 430.453 -1.74306 3.77831 0
M  V30 4429 H 429.329 -2.69511 4.78179 0
M  V30 4430 H 429.59 -3.14743 3.10466 0
M  V30 4431 N 428.649 -1.55105 -0.279332 0
M  V30 4432 C 429.896 -1.75412 -1.01177 0
M  V30 4433 C 430.224 -0.551728 -1.86511 0
M  V30 4434 O 429.479 0.465919 -1.90073 0
M  V30 4435 C 429.778 -3.0086 -1.92919 0
M  V30 4436 C 429.444 -4.33689 -1.23387 0
M  V30 4437 C 428.106 -4.69792 -1.04159 0
M  V30 4438 C 430.458 -5.15941 -0.738562 0
M  V30 4439 C 427.786 -5.85707 -0.341166 0
M  V30 4440 C 430.138 -6.32579 -0.0517636 0
M  V30 4441 C 428.802 -6.67326 0.152292 0
M  V30 4442 H 428.072 -0.641879 -0.370233 0
M  V30 4443 H 430.719 -1.89373 -0.284627 0
M  V30 4444 H 429.024 -2.81773 -2.72234 0
M  V30 4445 H 430.721 -3.13768 -2.49701 0
M  V30 4446 H 427.311 -4.05309 -1.39364 0
M  V30 4447 H 431.495 -4.8853 -0.874764 0
M  V30 4448 H 426.751 -6.11157 -0.172287 0
M  V30 4449 H 430.925 -6.9557 0.339828 0
M  V30 4450 H 428.552 -7.56998 0.697014 0
M  V30 4451 N 430.127 0.543554 -1.4793 0
M  V30 4452 C 431.404 1.30458 -1.4574 0
M  V30 4453 C 431.784 2.1048 -0.161692 0
M  V30 4454 O 431.132 2.11831 0.856734 0
M  V30 4455 C 431.342 2.19754 -2.71126 0
M  V30 4456 C 432.69 2.80334 -3.18901 0
M  V30 4457 O 433.714 2.30049 -2.71948 0
M  V30 4458 O 432.573 3.71766 -4.00565 0
M  V30 4459 H 429.667 0.588117 -0.581418 0
M  V30 4460 H 432.213 0.561328 -1.60147 0
M  V30 4461 H 430.985 1.60316 -3.56952 0
M  V30 4462 H 430.608 3.01351 -2.59371 0
M  V30 4463 N 431.605 1.3629 0.791371 0
M  V30 4464 C 432.83 1.33726 1.58531 0
M  V30 4465 C 433.255 -0.0794933 1.87932 0
M  V30 4466 O 432.613 -1.05087 1.47738 0
M  V30 4467 C 432.661 2.16425 2.88431 0
M  V30 4468 O 431.765 1.5554 3.81944 0
M  V30 4469 H 431.106 0.457793 0.480959 0
M  V30 4470 H 433.636 1.79547 0.981031 0
M  V30 4471 H 433.646 2.28933 3.37718 0
M  V30 4472 H 432.321 3.19415 2.66359 0
M  V30 4473 H 430.898 1.51961 3.40532 0
M  V30 4474 N 433.083 -1.0153 1.20538 0
M  V30 4475 C 434.329 -1.75408 1.01783 0
M  V30 4476 C 434.662 -1.88943 -0.448814 0
M  V30 4477 O 433.937 -1.4162 -1.33319 0
M  V30 4478 C 434.22 -3.17255 1.70356 0
M  V30 4479 C 434.073 -3.11508 3.24473 0
M  V30 4480 C 435.392 -4.15955 1.43769 0
M  V30 4481 H 432.511 -0.636713 0.371167 0
M  V30 4482 H 435.153 -1.18436 1.4857 0
M  V30 4483 H 433.303 -3.65898 1.30578 0
M  V30 4484 H 434.975 -2.70658 3.73553 0
M  V30 4485 H 433.218 -2.4887 3.55311 0
M  V30 4486 H 433.889 -4.11784 3.67611 0
M  V30 4487 H 436.365 -3.75973 1.7828 0
M  V30 4488 H 435.241 -5.13368 1.94279 0
M  V30 4489 H 435.502 -4.40586 0.365564 0
M  V30 4490 N 434.561 -1.01147 -1.20859 0
M  V30 4491 C 435.809 -0.696486 -1.89719 0
M  V30 4492 C 436.13 0.775788 -1.78904 0
M  V30 4493 O 435.4 1.55759 -1.18811 0
M  V30 4494 H 433.98 -0.254628 -0.702263 0
M  V30 4495 H 436.642 -1.28197 -1.46804 0
M  V30 4496 H 435.738 -0.975357 -2.96468 0
M  V30 4497 N 436.039 1.36541 -0.78704 0
M  V30 4498 C 437.286 1.99304 -0.358341 0
M  V30 4499 C 437.614 1.62467 1.06933 0
M  V30 4500 O 436.869 0.870019 1.75297 0
M  V30 4501 C 437.168 3.54343 -0.466485 0
M  V30 4502 C 436.834 4.10993 -1.85461 0
M  V30 4503 C 435.496 4.26177 -2.23443 0
M  V30 4504 C 437.848 4.41895 -2.76366 0
M  V30 4505 C 435.176 4.69573 -3.51736 0
M  V30 4506 C 437.528 4.86722 -4.04084 0
M  V30 4507 C 436.192 5.00112 -4.42091 0
M  V30 4508 H 435.462 0.729306 -0.131126 0
M  V30 4509 H 438.109 1.63068 -1.00404 0
M  V30 4510 H 436.414 3.90918 0.262719 0
M  V30 4511 H 438.111 4.00833 -0.115854 0
M  V30 4512 H 434.701 3.99612 -1.54946 0
M  V30 4513 H 438.885 4.29735 -2.48277 0
M  V30 4514 H 434.141 4.78127 -3.81057 0
M  V30 4515 H 438.315 5.09598 -4.7464 0
M  V30 4516 H 435.942 5.33498 -5.41557 0
M  V30 4517 N 437.518 0.538854 1.48102 0
M  V30 4518 C 438.481 -0.208395 2.28251 0
M  V30 4519 C 439.481 -0.859656 1.35892 0
M  V30 4520 O 440.671 -0.71834 1.58699 0
M  V30 4521 C 437.803 -1.30252 3.15035 0
M  V30 4522 H 438.996 0.495407 2.9578 0
M  V30 4523 H 436.549 0.295112 1.53489 0
M  V30 4524 H 437.284 -2.0393 2.52157 0
M  V30 4525 H 437.069 -0.840551 3.82985 0
M  V30 4526 H 438.559 -1.82787 3.75471 0
M  V30 4527 N 438.996 -1.55193 0.274407 0
M  V30 4528 C 439.926 -2.25471 -0.607032 0
M  V30 4529 C 440.907 -1.24461 -1.15946 0
M  V30 4530 O 442.092 -1.53179 -1.19373 0
M  V30 4531 C 439.222 -2.97526 -1.79153 0
M  V30 4532 C 438.176 -4.05459 -1.37067 0
M  V30 4533 C 437.502 -4.65084 -2.6382 0
M  V30 4534 C 438.802 -5.19691 -0.521389 0
M  V30 4535 H 440.496 -2.99393 -0.0209343 0
M  V30 4536 H 438.042 -1.43997 -0.00862866 0
M  V30 4537 H 439.995 -3.45402 -2.41404 0
M  V30 4538 H 438.719 -2.21138 -2.40344 0
M  V30 4539 H 437.378 -3.58393 -0.771355 0
M  V30 4540 H 437.026 -3.85365 -3.23268 0
M  V30 4541 H 436.726 -5.37961 -2.36372 0
M  V30 4542 H 438.25 -5.15708 -3.26921 0
M  V30 4543 H 439.664 -5.63623 -1.04889 0
M  V30 4544 H 438.061 -5.99126 -0.341825 0
M  V30 4545 H 439.131 -4.82713 0.46 0
M  V30 4546 N 440.474 -0.00167713 -1.576 0
M  V30 4547 C 441.384 1.00548 -2.1196 0
M  V30 4548 C 442.4 1.3758 -1.06526 0
M  V30 4549 O 443.576 1.46278 -1.38436 0
M  V30 4550 C 440.641 2.27809 -2.6135 0
M  V30 4551 C 439.702 1.97074 -3.81393 0
M  V30 4552 C 438.935 3.18267 -4.28417 0
M  V30 4553 O 439.158 4.30009 -3.74765 0
M  V30 4554 O 438.092 3.02167 -5.20556 0
M  V30 4555 H 441.918 0.573373 -2.98238 0
M  V30 4556 H 439.503 0.217255 -1.47812 0
M  V30 4557 H 441.385 3.02568 -2.93309 0
M  V30 4558 H 440.06 2.70254 -1.78169 0
M  V30 4559 H 438.967 1.19785 -3.54404 0
M  V30 4560 H 440.3 1.59464 -4.65652 0
M  V30 4561 N 441.952 1.55251 0.271103 0
M  V30 4562 C 443.229 1.66664 1.02384 0
M  V30 4563 C 443.609 0.534363 2.04225 0
M  V30 4564 O 442.957 -0.465337 2.23712 0
M  V30 4565 C 443.167 3.05961 1.67895 0
M  V30 4566 C 444.515 3.63772 2.18986 0
M  V30 4567 O 445.539 3.08606 1.77878 0
M  V30 4568 O 444.398 4.60429 2.94393 0
M  V30 4569 H 441.492 0.676957 0.475035 0
M  V30 4570 H 444.038 1.67589 0.26681 0
M  V30 4571 H 442.81 3.79815 0.941071 0
M  V30 4572 H 442.433 3.08943 2.5028 0
M  V30 4573 N 443.43 -0.535701 1.48216 0
M  V30 4574 C 444.66 -1.3148 1.59363 0
M  V30 4575 C 445.068 -1.8753 0.250844 0
M  V30 4576 O 444.411 -1.66821 -0.769174 0
M  V30 4577 C 444.473 -2.50731 2.57632 0
M  V30 4578 C 444.137 -2.15811 4.02833 0
M  V30 4579 C 445.134 -1.71822 4.90686 0
M  V30 4580 C 442.819 -2.26509 4.48329 0
M  V30 4581 C 444.813 -1.3899 6.22062 0
M  V30 4582 C 442.5 -1.93289 5.79726 0
M  V30 4583 C 443.498 -1.49599 6.66415 0
M  V30 4584 O 443.186 -1.16812 7.95368 0
M  V30 4585 H 442.918 -0.406315 0.540263 0
M  V30 4586 H 445.472 -0.653569 1.94725 0
M  V30 4587 H 443.702 -3.19817 2.1738 0
M  V30 4588 H 445.391 -3.12797 2.58675 0
M  V30 4589 H 446.157 -1.63031 4.56778 0
M  V30 4590 H 442.036 -2.59471 3.81045 0
M  V30 4591 H 445.58 -1.04816 6.89681 0
M  V30 4592 H 441.477 -2.01718 6.13172 0
M  V30 4593 H 442.245 -1.30259 8.08069 0
M  V30 4594 N 444.908 -1.36708 -0.784132 0
M  V30 4595 C 446.136 -1.34398 -1.57305 0
M  V30 4596 C 446.551 0.0735577 -1.88657 0
M  V30 4597 O 445.908 1.03193 -1.50524 0
M  V30 4598 C 445.959 -2.17053 -2.89085 0
M  V30 4599 O 445.68 -3.53281 -2.59083 0
M  V30 4600 C 447.181 -2.22583 -3.83369 0
M  V30 4601 H 444.401 -0.460819 -0.487736 0
M  V30 4602 H 446.945 -1.79879 -0.972819 0
M  V30 4603 H 445.1 -1.75113 -3.45564 0
M  V30 4604 H 445.514 -3.9647 -3.43383 0
M  V30 4605 H 446.988 -2.84763 -4.72878 0
M  V30 4606 H 447.465 -1.23075 -4.21603 0
M  V30 4607 H 448.071 -2.64781 -3.32823 0
M  V30 4608 N 446.386 1.0089 -1.21074 0
M  V30 4609 C 447.632 1.74866 -1.02712 0
M  V30 4610 C 447.965 1.89178 0.438787 0
M  V30 4611 O 447.24 1.42325 1.32567 0
M  V30 4612 C 447.523 3.16347 -1.72036 0
M  V30 4613 C 447.376 3.09782 -3.26121 0
M  V30 4614 C 448.695 4.15187 -1.45973 0
M  V30 4615 H 445.814 0.634736 -0.374539 0
M  V30 4616 H 448.456 1.17646 -1.49196 0
M  V30 4617 H 446.606 3.65201 -1.32517 0
M  V30 4618 H 448.278 2.68673 -3.74983 0
M  V30 4619 H 446.521 2.46982 -3.56626 0
M  V30 4620 H 447.192 4.09829 -3.6979 0
M  V30 4621 H 449.668 3.75022 -1.80272 0
M  V30 4622 H 448.544 5.12331 -1.96999 0
M  V30 4623 H 448.805 4.40386 -0.388924 0
M  V30 4624 N 447.864 1.01787 1.20321 0
M  V30 4625 C 448.794 0.609625 2.25401 0
M  V30 4626 C 449.775 -0.375951 1.65893 0
M  V30 4627 O 450.96 -0.261101 1.92437 0
M  V30 4628 C 448.09 -0.0515995 3.47262 0
M  V30 4629 C 447.044 0.855095 4.19371 0
M  V30 4630 C 446.37 0.0595757 5.34667 0
M  V30 4631 C 447.67 2.16374 4.75373 0
M  V30 4632 H 449.364 1.48803 2.59804 0
M  V30 4633 H 446.91 0.716934 1.24884 0
M  V30 4634 H 448.863 -0.348764 4.19954 0
M  V30 4635 H 447.587 -0.964726 3.12027 0
M  V30 4636 H 446.246 1.13628 3.48546 0
M  V30 4637 H 445.894 -0.85524 4.95676 0
M  V30 4638 H 445.594 0.663406 5.83843 0
M  V30 4639 H 447.118 -0.231105 6.10162 0
M  V30 4640 H 448.532 1.92885 5.39878 0
M  V30 4641 H 446.929 2.71853 5.34991 0
M  V30 4642 H 447.999 2.82589 3.94045 0
M  V30 4643 N 449.342 -1.36122 0.79427 0
M  V30 4644 C 450.758 -1.5232 0.476525 0
M  V30 4645 C 450.958 -1.74685 -1.00436 0
M  V30 4646 O 450.014 -1.78115 -1.78973 0
M  V30 4647 C 451.327 -2.70607 1.31119 0
M  V30 4648 C 452.875 -2.8448 1.30537 0
M  V30 4649 C 453.35 -4.05778 2.12387 0
M  V30 4650 N 454.841 -4.12933 2.09859 0
M  V30 4651 C 455.576 -5.05876 2.69957 0
M  V30 4652 N 455.072 -6.04232 3.38934 0
M  V30 4653 N 456.865 -4.98528 2.59665 0
M  V30 4654 H 449.016 -1.1986 1.75349 0
M  V30 4655 H 451.279 -0.585418 0.745647 0
M  V30 4656 H 450.985 -2.60619 2.36158 0
M  V30 4657 H 450.859 -3.64888 0.955843 0
M  V30 4658 H 453.246 -2.93927 0.262876 0
M  V30 4659 H 453.327 -1.91093 1.70051 0
M  V30 4660 H 452.971 -3.97092 3.1667 0
M  V30 4661 H 452.901 -4.98323 1.70242 0
M  V30 4662 H 455.392 -3.42515 1.59662 0
M  V30 4663 H 455.705 -6.71724 3.82109 0
M  V30 4664 H 454.05 -6.04443 3.43036 0
M  V30 4665 H 457.241 -4.20641 2.05375 0
M  V30 4666 H 457.414 -5.70773 3.06793 0
M  V30 4667 N 450.82 -0.546701 -1.47814 0
M  V30 4668 C 452.05 -0.0232519 -2.06587 0
M  V30 4669 C 452.458 1.2712 -1.40133 0
M  V30 4670 O 451.801 1.77091 -0.488305 0
M  V30 4671 C 451.863 0.254117 -3.58601 0
M  V30 4672 C 451.527 -0.949331 -4.47031 0
M  V30 4673 C 452.524 -1.85216 -4.85789 0
M  V30 4674 C 450.209 -1.16104 -4.88697 0
M  V30 4675 C 452.203 -2.95047 -5.65001 0
M  V30 4676 C 449.89 -2.26247 -5.67676 0
M  V30 4677 C 450.888 -3.1555 -6.05737 0
M  V30 4678 O 450.576 -4.23784 -6.83127 0
M  V30 4679 H 450.308 -0.0380082 -0.674931 0
M  V30 4680 H 452.862 -0.756631 -1.90956 0
M  V30 4681 H 451.092 1.04168 -3.72406 0
M  V30 4682 H 452.781 0.72167 -3.99433 0
M  V30 4683 H 453.547 -1.70061 -4.54207 0
M  V30 4684 H 449.426 -0.475159 -4.58545 0
M  V30 4685 H 452.97 -3.64778 -5.94628 0
M  V30 4686 H 448.867 -2.41379 -5.98671 0
M  V30 4687 H 449.635 -4.21701 -7.01506 0
M  V30 4688 N 452.299 1.55045 -0.282633 0
M  V30 4689 C 453.545 2.00056 0.332481 0
M  V30 4690 C 453.878 1.1708 1.54939 0
M  V30 4691 O 453.153 0.2427 1.9298 0
M  V30 4692 C 453.436 3.53086 0.70725 0
M  V30 4693 C 453.289 4.46813 -0.517521 0
M  V30 4694 C 454.608 4.12245 1.54084 0
M  V30 4695 H 451.727 0.727268 0.119373 0
M  V30 4696 H 454.369 1.85932 -0.391076 0
M  V30 4697 H 452.519 3.65253 1.32372 0
M  V30 4698 H 454.191 4.46579 -1.15607 0
M  V30 4699 H 452.434 4.18163 -1.1542 0
M  V30 4700 H 453.105 5.51595 -0.211426 0
M  V30 4701 H 455.581 4.03401 1.02013 0
M  V30 4702 H 454.457 5.19515 1.77186 0
M  V30 4703 H 454.718 3.62951 2.52427 0
M  V30 4704 N 453.777 0.010035 1.57597 0
M  V30 4705 C 454.707 -0.976857 2.12084 0
M  V30 4706 C 455.688 -1.35191 1.03235 0
M  V30 4707 O 456.873 -1.43389 1.3097 0
M  V30 4708 C 454.003 -2.26548 2.63236 0
M  V30 4709 C 452.957 -2.03175 3.76701 0
M  V30 4710 C 452.283 -3.38138 4.14206 0
M  V30 4711 C 453.583 -1.38625 5.03568 0
M  V30 4712 H 455.277 -0.523145 2.94794 0
M  V30 4713 H 452.823 -0.250195 1.4181 0
M  V30 4714 H 454.776 -2.95952 2.99984 0
M  V30 4715 H 453.5 -2.74051 1.77661 0
M  V30 4716 H 452.159 -1.36195 3.40362 0
M  V30 4717 H 451.807 -3.83363 3.25641 0
M  V30 4718 H 451.507 -3.23312 4.90656 0
M  V30 4719 H 453.031 -4.08841 4.53521 0
M  V30 4720 H 454.445 -1.98 5.38023 0
M  V30 4721 H 452.842 -1.34256 5.84889 0
M  V30 4722 H 453.912 -0.356722 4.83586 0
M  V30 4723 N 455.255 -1.55392 -0.262866 0
M  V30 4724 C 456.187 -1.85392 -1.34768 0
M  V30 4725 C 457.2 -0.739069 -1.45057 0
M  V30 4726 O 458.389 -1.01703 -1.46693 0
M  V30 4727 C 455.489 -2.01088 -2.72795 0
M  V30 4728 C 454.662 -3.31828 -2.84972 0
M  V30 4729 C 453.721 -3.37464 -4.03738 0
M  V30 4730 O 452.747 -4.10778 -3.94018 0
M  V30 4731 N 453.949 -2.65599 -5.16176 0
M  V30 4732 H 456.714 -2.79029 -1.09375 0
M  V30 4733 H 454.275 -1.55434 -0.452981 0
M  V30 4734 H 456.267 -2.02217 -3.50557 0
M  V30 4735 H 454.837 -1.1427 -2.90966 0
M  V30 4736 H 454.057 -3.43152 -1.94012 0
M  V30 4737 H 455.345 -4.18032 -2.90045 0
M  V30 4738 H 454.743 -2.05736 -5.26962 0
M  V30 4739 H 453.3 -2.72439 -5.92132 0
M  V30 4740 N 456.733 0.527833 -1.48498 0
M  V30 4741 C 457.665 1.6482 -1.5927 0
M  V30 4742 C 458.678 1.55659 -0.476869 0
M  V30 4743 O 459.867 1.62081 -0.747806 0
M  V30 4744 C 456.967 3.0348 -1.50842 0
M  V30 4745 C 456.14 3.381 -2.77502 0
M  V30 4746 C 455.199 4.5605 -2.62497 0
M  V30 4747 O 454.225 4.59165 -3.36387 0
M  V30 4748 N 455.427 5.54353 -1.72257 0
M  V30 4749 H 458.192 1.56015 -2.55889 0
M  V30 4750 H 455.753 0.715152 -1.45249 0
M  V30 4751 H 457.745 3.80264 -1.38496 0
M  V30 4752 H 456.315 3.06352 -0.621887 0
M  V30 4753 H 455.535 2.50473 -3.04396 0
M  V30 4754 H 456.823 3.58017 -3.61527 0
M  V30 4755 H 456.221 5.54617 -1.11431 0
M  V30 4756 H 454.778 6.30347 -1.65849 0
M  V30 4757 N 458.211 1.37122 0.776871 0
M  V30 4758 C 459.174 1.32301 1.8716 0
M  V30 4759 C 460.174 0.228099 1.59174 0
M  V30 4760 O 461.364 0.483642 1.67352 0
M  V30 4761 C 458.496 1.054 3.24197 0
M  V30 4762 H 459.689 2.29673 1.92848 0
M  V30 4763 H 457.242 1.22077 0.97606 0
M  V30 4764 H 457.977 0.0853872 3.24188 0
M  V30 4765 H 457.762 1.84648 3.45901 0
M  V30 4766 H 459.252 1.04664 4.04271 0
M  V30 4767 N 459.689 -1.00246 1.21608 0
M  V30 4768 C 460.599 -2.12515 0.993709 0
M  V30 4769 C 461.615 -1.73913 -0.0549939 0
M  V30 4770 O 462.791 -2.00943 0.135619 0
M  V30 4771 C 459.856 -3.42083 0.563953 0
M  V30 4772 C 458.917 -3.94843 1.68516 0
M  V30 4773 C 458.15 -5.18226 1.27582 0
M  V30 4774 O 458.373 -5.70201 0.150506 0
M  V30 4775 O 457.307 -5.64497 2.0887 0
M  V30 4776 H 461.133 -2.34152 1.93407 0
M  V30 4777 H 458.718 -1.10891 1.00118 0
M  V30 4778 H 460.6 -4.20073 0.334194 0
M  V30 4779 H 459.275 -3.21828 -0.347665 0
M  V30 4780 H 458.182 -3.18068 1.96935 0
M  V30 4781 H 459.515 -4.19512 2.5743 0
M  V30 4782 N 461.167 -1.02423 -1.1978 0
M  V30 4783 C 462.114 -0.601023 -2.22837 0
M  V30 4784 C 463.084 0.382801 -1.61629 0
M  V30 4785 O 464.269 0.280514 -1.88727 0
M  V30 4786 C 461.409 0.0467755 -3.45068 0
M  V30 4787 C 460.522 -0.98253 -4.20678 0
M  V30 4788 C 459.657 -0.304982 -5.30324 0
M  V30 4789 C 458.696 -1.32052 -5.97686 0
M  V30 4790 N 457.833 -0.669105 -6.98904 0
M  V30 4791 H 462.673 -1.48444 -2.58396 0
M  V30 4792 H 460.21 -0.742936 -1.2696 0
M  V30 4793 H 462.168 0.439556 -4.14878 0
M  V30 4794 H 460.798 0.893796 -3.10179 0
M  V30 4795 H 459.85 -1.49341 -3.49859 0
M  V30 4796 H 461.162 -1.75455 -4.66923 0
M  V30 4797 H 460.316 0.142893 -6.06532 0
M  V30 4798 H 459.055 0.499283 -4.85138 0
M  V30 4799 H 458.06 -1.7787 -5.20233 0
M  V30 4800 H 459.285 -2.1262 -6.44957 0
M  V30 4801 H 457.231 0.115152 -6.55899 0
M  V30 4802 H 457.148 -1.37908 -7.43315 0
M  V30 4803 H 458.416 -0.245076 -7.79115 0
M  V30 4804 N 462.645 1.35699 -0.801477 0
M  V30 4805 C 464.061 1.52065 -0.484596 0
M  V30 4806 C 464.261 1.75215 0.995084 0
M  V30 4807 O 463.317 1.79061 1.78026 0
M  V30 4808 C 464.63 2.69908 -1.32552 0
M  V30 4809 C 466.178 2.83784 -1.32044 0
M  V30 4810 C 466.653 4.04646 -2.14536 0
M  V30 4811 N 468.144 4.11814 -2.12046 0
M  V30 4812 C 468.879 5.04437 -2.72636 0
M  V30 4813 N 468.375 6.02426 -3.42133 0
M  V30 4814 N 470.168 4.97144 -2.62305 0
M  V30 4815 H 462.319 1.18928 -1.75983 0
M  V30 4816 H 464.582 0.581455 -0.748741 0
M  V30 4817 H 464.288 2.59363 -2.37537 0
M  V30 4818 H 464.162 3.64376 -0.975181 0
M  V30 4819 H 466.549 2.93783 -0.27846 0
M  V30 4820 H 466.63 1.90188 -1.71062 0
M  V30 4821 H 466.274 3.95407 -3.18772 0
M  V30 4822 H 466.204 4.97413 -1.72882 0
M  V30 4823 H 468.695 3.41664 -1.61476 0
M  V30 4824 H 469.008 6.69688 -3.85666 0
M  V30 4825 H 467.353 6.02615 -3.46237 0
M  V30 4826 H 470.544 4.19546 -2.07603 0
M  V30 4827 H 470.717 5.69138 -3.09815 0
M  V30 4828 N 464.123 0.554532 1.47522 0
M  V30 4829 C 465.371 0.0294208 2.02079 0
M  V30 4830 C 465.692 -1.32411 1.43151 0
M  V30 4831 O 464.962 -1.863 0.605728 0
M  V30 4832 H 463.542 0.00788672 0.746958 0
M  V30 4833 H 466.204 0.723934 1.80956 0
M  V30 4834 H 465.3 -0.0606745 3.12041 0
M  V30 4835 N 465.601 -1.54893 0.290851 0
M  V30 4836 C 466.534 -2.19289 -0.631489 0
M  V30 4837 C 467.512 -1.15893 -1.14051 0
M  V30 4838 O 468.696 -1.4449 -1.21058 0
M  V30 4839 C 465.823 -2.82866 -1.86291 0
M  V30 4840 C 464.869 -3.997 -1.48801 0
M  V30 4841 S 465.702 -5.32641 -0.552644 0
M  V30 4842 C 466.858 -5.99696 -1.79209 0
M  V30 4843 H 467.091 -2.9718 -0.0843791 0
M  V30 4844 H 464.624 -1.54218 0.075031 0
M  V30 4845 H 466.582 -3.20124 -2.56964 0
M  V30 4846 H 465.243 -2.04839 -2.38117 0
M  V30 4847 H 464.436 -4.42932 -2.40473 0
M  V30 4848 H 464.038 -3.63947 -0.861321 0
M  V30 4849 H 466.33 -6.19886 -2.734 0
M  V30 4850 H 467.273 -6.94071 -1.40251 0
M  V30 4851 H 467.681 -5.29226 -1.96419 0
M  V30 4852 N 467.08 -0.0183926 -1.57589 0
M  V30 4853 C 468.328 0.661253 -1.90976 0
M  V30 4854 C 468.649 1.73281 -0.894353 0
M  V30 4855 O 467.919 1.9579 0.0656788 0
M  V30 4856 H 466.499 0.247233 -0.704901 0
M  V30 4857 H 469.161 -0.0636639 -1.94796 0
M  V30 4858 H 468.257 1.12083 -2.9128 0
M  V30 4859 N 468.558 1.5553 0.254621 0
M  V30 4860 C 469.786 1.81046 1.00149 0
M  V30 4861 C 470.201 0.593047 1.79244 0
M  V30 4862 O 469.558 -0.438196 1.77161 0
M  V30 4863 C 469.609 3.04684 1.94551 0
M  V30 4864 O 469.33 4.21725 1.18658 0
M  V30 4865 C 470.831 3.42943 2.80901 0
M  V30 4866 H 468.051 0.602653 0.295044 0
M  V30 4867 H 470.595 2.02576 0.279842 0
M  V30 4868 H 468.75 2.85226 2.62154 0
M  V30 4869 H 469.164 4.91746 1.82445 0
M  V30 4870 H 470.638 4.32576 3.42902 0
M  V30 4871 H 471.115 2.63176 3.51617 0
M  V30 4872 H 471.721 3.64724 2.18762 0
M  V30 4873 N 470.036 -0.519951 1.48776 0
M  V30 4874 C 470.983 -1.62352 1.64044 0
M  V30 4875 C 471.953 -1.58945 0.482251 0
M  V30 4876 O 473.138 -1.77219 0.706971 0
M  V30 4877 C 470.278 -3.00579 1.69547 0
M  V30 4878 C 469.391 -3.14145 2.96541 0
M  V30 4879 C 468.526 -4.42991 2.93142 0
M  V30 4880 C 467.565 -4.50122 4.14797 0
M  V30 4881 N 466.702 -5.7037 4.09418 0
M  V30 4882 H 471.542 -1.48643 2.58281 0
M  V30 4883 H 469.079 -0.723516 1.28077 0
M  V30 4884 H 471.037 -3.80671 1.70719 0
M  V30 4885 H 469.667 -3.13036 0.787918 0
M  V30 4886 H 468.719 -2.27239 3.05068 0
M  V30 4887 H 470.031 -3.15275 3.86527 0
M  V30 4888 H 469.185 -5.31385 2.92772 0
M  V30 4889 H 467.924 -4.44398 2.00902 0
M  V30 4890 H 466.929 -3.60133 4.15433 0
M  V30 4891 H 468.154 -4.50445 5.08208 0
M  V30 4892 H 466.1 -5.72655 3.20004 0
M  V30 4893 H 466.017 -5.73036 4.93119 0
M  V30 4894 H 467.285 -6.61023 4.13121 0
M  V30 4895 N 471.514 -1.37532 -0.769588 0
M  V30 4896 C 472.763 -1.32183 -1.5235 0
M  V30 4897 C 473.076 0.0906555 -1.9539 0
M  V30 4898 O 474.282 0.266628 -2.70188 0
M  V30 4899 C 472.738 -2.32029 -2.75119 0
M  V30 4900 C 472.346 -3.78816 -2.3917 0
M  V30 4901 C 474.09 -2.35694 -3.53056 0
M  V30 4902 C 471.997 -4.70388 -3.58453 0
M  V30 4903 H 470.927 -0.491275 -0.571984 0
M  V30 4904 H 473.578 -1.63004 -0.842739 0
M  V30 4905 H 471.96 -1.94229 -3.45096 0
M  V30 4906 H 473.134 -4.25466 -1.76962 0
M  V30 4907 H 471.449 -3.78117 -1.74402 0
M  V30 4908 H 474.046 -3.01312 -4.41718 0
M  V30 4909 H 474.389 -1.37117 -3.93071 0
M  V30 4910 H 474.922 -2.72212 -2.90078 0
M  V30 4911 H 471.661 -5.70102 -3.23518 0
M  V30 4912 H 471.181 -4.28442 -4.19758 0
M  V30 4913 H 472.86 -4.87628 -4.25239 0
M  V30 4914 N 472.992 0.995999 -1.22138 0
M  V30 4915 C 474.269 1.70834 -0.952642 0
M  V30 4916 C 474.649 2.04257 0.533119 0
M  V30 4917 O 473.997 1.72343 1.50034 0
M  V30 4918 C 474.207 2.96119 -1.84701 0
M  V30 4919 C 475.555 3.68962 -2.10124 0
M  V30 4920 O 476.579 3.0612 -1.82124 0
M  V30 4921 O 475.438 4.82017 -2.57531 0
M  V30 4922 H 472.532 0.745498 -0.357997 0
M  V30 4923 H 475.078 1.05262 -1.33109 0
M  V30 4924 H 473.85 2.67898 -2.85213 0
M  V30 4925 H 473.473 3.6943 -1.46995 0
M  V30 4926 N 474.47 1.03057 1.19235 0
M  V30 4927 C 475.4 0.633497 2.24742 0
M  V30 4928 C 476.381 -0.358335 1.66283 0
M  V30 4929 O 477.566 -0.240676 1.92703 0
M  V30 4930 C 474.696 -0.0147648 3.47297 0
M  V30 4931 C 473.65 0.899527 4.18441 0
M  V30 4932 C 472.976 0.116281 5.34574 0
M  V30 4933 C 474.276 2.21404 4.73051 0
M  V30 4934 H 475.97 1.5155 2.58211 0
M  V30 4935 H 473.516 0.73014 1.24117 0
M  V30 4936 H 475.469 -0.304202 4.20301 0
M  V30 4937 H 474.193 -0.931577 3.13032 0
M  V30 4938 H 472.852 1.17319 3.47321 0
M  V30 4939 H 472.5 -0.802619 4.96555 0
M  V30 4940 H 472.2 0.725293 5.83107 0
M  V30 4941 H 473.724 -0.166376 6.10373 0
M  V30 4942 H 475.138 1.98601 5.37802 0
M  V30 4943 H 473.535 2.77512 5.32078 0
M  V30 4944 H 474.605 2.86752 3.91026 0
M  V30 4945 N 475.948 -1.35272 0.808662 0
M  V30 4946 C 477.194 -1.99003 0.390581 0
M  V30 4947 C 477.527 -1.63999 -1.0401 0
M  V30 4948 O 476.802 -0.904368 -1.72196 0
M  V30 4949 C 477.085 -3.55454 0.576566 0
M  V30 4950 C 476.938 -4.00249 2.05233 0
M  V30 4951 C 478.257 -4.401 0.00354277 0
M  V30 4952 H 475.376 -0.722917 0.143388 0
M  V30 4953 H 478.018 -1.6039 1.01858 0
M  V30 4954 H 476.168 -3.88477 0.0419766 0
M  V30 4955 H 477.84 -3.77626 2.64946 0
M  V30 4956 H 476.083 -3.51082 2.54801 0
M  V30 4957 H 476.754 -5.0911 2.13333 0
M  V30 4958 H 479.23 -4.13548 0.460117 0
M  V30 4959 H 478.106 -5.48656 0.163575 0
M  V30 4960 H 478.367 -4.28444 -1.09032 0
M  V30 4961 N 477.426 -0.562348 -1.47226 0
M  V30 4962 C 478.837 -0.130325 -1.86245 0
M  V30 4963 C 479.188 1.30128 -1.46838 0
M  V30 4964 O 478.313 1.97974 -0.873805 0
M  V30 4965 C 478.908 -0.229738 -3.3802 0
M  V30 4966 C 477.467 0.14728 -3.76112 0
M  V30 4967 C 476.614 -0.574971 -2.71274 0
M  V30 4968 H 479.565 -0.771773 -1.3867 0
M  V30 4969 H 479.586 0.550316 -3.76499 0
M  V30 4970 H 479.098 -1.27178 -3.66671 0
M  V30 4971 H 477.199 1.19023 -3.53078 0
M  V30 4972 H 477.312 -0.214858 -4.78618 0
M  V30 4973 H 475.676 -0.0174756 -2.54694 0
M  V30 4974 H 476.459 -1.61827 -3.02766 0
M  V30 4975 N 478.904 1.54736 -0.299062 0
M  V30 4976 C 480.15 2.01114 0.304123 0
M  V30 4977 C 480.505 1.18376 1.51674 0
M  V30 4978 O 479.798 0.251635 1.8994 0
M  V30 4979 C 479.992 3.50199 0.713835 0
M  V30 4980 C 479.821 4.47366 -0.457531 0
M  V30 4981 C 478.591 4.9631 -0.948933 0
M  V30 4982 C 480.789 4.9755 -1.30186 0
M  V30 4983 N 478.771 5.77327 -2.08726 0
M  V30 4984 C 480.142 5.7625 -2.28771 0
M  V30 4985 C 482.197 4.79739 -1.33246 0
M  V30 4986 C 480.9 6.39036 -3.3019 0
M  V30 4987 C 482.926 5.43343 -2.33521 0
M  V30 4988 C 482.288 6.21874 -3.30836 0
M  V30 4989 H 478.387 0.778318 0.0757992 0
M  V30 4990 H 480.971 1.89925 -0.428536 0
M  V30 4991 H 479.142 3.61681 1.41567 0
M  V30 4992 H 480.874 3.83374 1.29639 0
M  V30 4993 H 477.629 4.7069 -0.52423 0
M  V30 4994 H 478.053 6.22521 -2.66077 0
M  V30 4995 H 482.695 4.18609 -0.59383 0
M  V30 4996 H 480.413 6.99302 -4.04973 0
M  V30 4997 H 483.999 5.31492 -2.3666 0
M  V30 4998 H 482.879 6.70217 -4.07159 0
M  V30 4999 N 480.382 0.0267497 1.57577 0
M  V30 5000 C 481.628 -0.653371 1.91987 0
M  V30 5001 C 481.961 -1.71915 0.903263 0
M  V30 5002 O 481.236 -1.94358 -0.0743387 0
M  V30 5003 C 481.519 -1.272 3.36886 0
M  V30 5004 C 481.372 -0.215938 4.49281 0
M  V30 5005 C 482.691 -2.19069 3.81703 0
M  V30 5006 H 479.81 -0.236047 0.698177 0
M  V30 5007 H 482.452 0.0835236 1.89816 0
M  V30 5008 H 480.602 -1.90005 3.38866 0
M  V30 5009 H 482.274 0.41449 4.59434 0
M  V30 5010 H 480.517 0.458855 4.31366 0
M  V30 5011 H 481.188 -0.688347 5.47691 0
M  V30 5012 H 483.664 -1.66253 3.81444 0
M  V30 5013 H 482.54 -2.59307 4.83788 0
M  V30 5014 H 482.801 -3.08087 3.17072 0
M  V30 5015 N 481.861 -1.55662 -0.24637 0
M  V30 5016 C 482.771 -1.93495 -1.32653 0
M  V30 5017 C 483.787 -0.835462 -1.5263 0
M  V30 5018 O 484.963 -1.1369 -1.66242 0
M  V30 5019 C 482.028 -2.22242 -2.66101 0
M  V30 5020 C 481.089 -3.45625 -2.54641 0
M  V30 5021 C 480.322 -3.72991 -3.81724 0
M  V30 5022 O 480.545 -3.02421 -4.8363 0
M  V30 5023 O 479.479 -4.66515 -3.80325 0
M  V30 5024 H 483.305 -2.85498 -1.03559 0
M  V30 5025 H 480.89 -1.42551 -0.44717 0
M  V30 5026 H 482.772 -2.42037 -3.44958 0
M  V30 5027 H 481.447 -1.33417 -2.94926 0
M  V30 5028 H 480.354 -3.31136 -1.74067 0
M  V30 5029 H 481.687 -4.34754 -2.3076 0
M  V30 5030 N 483.339 0.512053 -1.4905 0
M  V30 5031 C 484.616 1.27337 -1.48474 0
M  V30 5032 C 484.996 2.1009 -0.206301 0
M  V30 5033 O 484.344 2.136 0.811609 0
M  V30 5034 C 484.554 2.13954 -2.75726 0
M  V30 5035 C 485.902 2.73507 -3.24776 0
M  V30 5036 O 486.926 2.24229 -2.76767 0
M  V30 5037 O 485.785 3.63186 -4.08361 0
M  V30 5038 H 482.879 0.575652 -0.593762 0
M  V30 5039 H 485.425 0.527232 -1.61302 0
M  V30 5040 H 484.197 1.52709 -3.60272 0
M  V30 5041 H 483.82 2.95782 -2.65705 0
M  V30 5042 N 484.817 1.37938 0.762283 0
M  V30 5043 C 486.094 1.24196 1.51112 0
M  V30 5044 C 486.474 -0.160409 2.1049 0
M  V30 5045 O 485.822 -1.16904 1.96331 0
M  V30 5046 C 486.032 2.34537 2.58445 0
M  V30 5047 C 487.38 2.7254 3.25588 0
M  V30 5048 O 488.404 2.33783 2.68745 0
M  V30 5049 O 487.263 3.39343 4.28379 0
M  V30 5050 H 484.357 0.485175 0.669727 0
M  V30 5051 H 486.903 1.49743 0.798438 0
M  V30 5052 H 485.675 3.28406 2.12756 0
M  V30 5053 H 485.298 2.10505 3.37303 0
M  V30 5054 N 486.295 -0.989507 1.22664 0
M  V30 5055 C 487.706 -1.54406 1.04955 0
M  V30 5056 C 488.057 -1.92366 -0.385951 0
M  V30 5057 O 487.182 -1.75111 -1.27142 0
M  V30 5058 C 487.777 -2.80578 1.89899 0
M  V30 5059 C 486.336 -3.32464 1.76478 0
M  V30 5060 C 485.483 -2.05524 1.86159 0
M  V30 5061 H 488.434 -0.810211 1.3646 0
M  V30 5062 H 488.455 -3.53075 1.4184 0
M  V30 5063 H 487.967 -2.52918 2.94371 0
M  V30 5064 H 486.068 -3.65024 0.747528 0
M  V30 5065 H 486.181 -4.02838 2.59342 0
M  V30 5066 H 484.545 -2.19241 1.29636 0
M  V30 5067 H 485.328 -1.80258 2.92168 0
M  V30 5068 N 487.773 -1.03688 -1.18687 0
M  V30 5069 C 488.72 -0.624624 -2.22187 0
M  V30 5070 C 489.69 0.365636 -1.62026 0
M  V30 5071 O 490.875 0.260481 -1.89014 0
M  V30 5072 C 488.015 0.0101738 -3.45099 0
M  V30 5073 C 487.128 -1.02709 -4.19613 0
M  V30 5074 C 486.263 -0.361213 -5.2997 0
M  V30 5075 C 485.302 -1.38384 -5.96252 0
M  V30 5076 N 484.439 -0.743196 -6.98155 0
M  V30 5077 H 489.279 -1.51176 -2.56807 0
M  V30 5078 H 486.816 -0.75636 -1.26165 0
M  V30 5079 H 488.774 0.395528 -4.15321 0
M  V30 5080 H 487.404 0.860848 -3.1111 0
M  V30 5081 H 486.456 -1.53043 -3.48256 0
M  V30 5082 H 487.768 -1.80398 -4.65036 0
M  V30 5083 H 486.922 0.0785537 -6.06649 0
M  V30 5084 H 485.661 0.447799 -4.8564 0
M  V30 5085 H 484.666 -1.83378 -5.18317 0
M  V30 5086 H 485.891 -2.19448 -6.42666 0
M  V30 5087 H 483.837 0.0455789 -6.55984 0
M  V30 5088 H 483.754 -1.45784 -7.41811 0
M  V30 5089 H 485.022 -0.327698 -7.78811 0
M  V30 5090 N 489.251 1.34841 -0.815825 0
M  V30 5091 C 490.528 1.92908 -0.323416 0
M  V30 5092 C 490.908 1.74479 1.18828 0
M  V30 5093 O 490.256 1.11928 1.99209 0
M  V30 5094 C 490.466 3.40957 -0.744952 0
M  V30 5095 C 491.814 4.18107 -0.739716 0
M  V30 5096 O 492.838 3.49511 -0.68708 0
M  V30 5097 O 491.697 5.40517 -0.806456 0
M  V30 5098 H 488.791 0.822436 -0.0867646 0
M  V30 5099 H 491.337 1.4386 -0.90014 0
M  V30 5100 H 490.109 3.4814 -1.78646 0
M  V30 5101 H 489.732 3.97341 -0.143535 0
M  V30 5102 N 490.729 0.570148 1.46925 0
M  V30 5103 C 491.659 -0.158274 2.32963 0
M  V30 5104 C 492.64 -0.896093 1.44583 0
M  V30 5105 O 493.825 -0.874022 1.7342 0
M  V30 5106 C 490.955 -1.18055 3.26619 0
M  V30 5107 C 489.909 -0.558379 4.24342 0
M  V30 5108 C 489.235 -1.68623 5.07415 0
M  V30 5109 C 490.535 0.496295 5.19937 0
M  V30 5110 H 492.229 0.560046 2.94115 0
M  V30 5111 H 489.775 0.270775 1.41431 0
M  V30 5112 H 491.728 -1.69841 3.85658 0
M  V30 5113 H 490.452 -1.92899 2.63548 0
M  V30 5114 H 489.111 -0.0617157 3.66548 0
M  V30 5115 H 488.759 -2.42402 4.40738 0
M  V30 5116 H 488.459 -1.27564 5.73586 0
M  V30 5117 H 489.983 -2.20709 5.69315 0
M  V30 5118 H 491.397 0.0640052 5.73264 0
M  V30 5119 H 489.794 0.82649 5.94381 0
M  V30 5120 H 490.864 1.38735 4.6463 0
M  V30 5121 N 492.207 -1.54576 0.307264 0
M  V30 5122 C 493.454 -2.00263 -0.300167 0
M  V30 5123 C 493.782 -1.19561 -1.53413 0
M  V30 5124 O 493.037 -0.261487 -1.93945 0
M  V30 5125 C 493.336 -3.50572 -0.695253 0
M  V30 5126 C 493.002 -4.48771 0.437679 0
M  V30 5127 C 491.664 -4.7534 0.748681 0
M  V30 5128 C 494.016 -5.0721 1.19949 0
M  V30 5129 C 491.344 -5.5761 1.8245 0
M  V30 5130 C 493.696 -5.90651 2.26527 0
M  V30 5131 C 492.36 -6.15528 2.58227 0
M  V30 5132 H 491.63 -0.732814 -0.109839 0
M  V30 5133 H 494.277 -1.86664 0.427661 0
M  V30 5134 H 492.582 -3.61814 -1.50326 0
M  V30 5135 H 494.279 -3.83352 -1.17653 0
M  V30 5136 H 490.869 -4.282 0.185187 0
M  V30 5137 H 495.053 -4.86679 0.972474 0
M  V30 5138 H 490.309 -5.75121 2.07476 0
M  V30 5139 H 494.483 -6.34957 2.86011 0
M  V30 5140 H 492.11 -6.79066 3.4172 0
M  V30 5141 N 493.685 -0.035106 -1.57561 0
M  V30 5142 C 494.91 0.655802 -1.96759 0
M  V30 5143 C 495.335 1.64523 -0.911809 0
M  V30 5144 O 494.693 1.80857 0.126673 0
M  V30 5145 C 494.741 1.33326 -3.35047 0
M  V30 5146 O 493.845 2.44866 -3.31835 0
M  V30 5147 H 493.186 0.171807 -0.641388 0
M  V30 5148 H 495.716 -0.0987369 -2.04362 0
M  V30 5149 H 495.726 1.68867 -3.71413 0
M  V30 5150 H 494.401 0.608033 -4.11431 0
M  V30 5151 H 492.978 2.11392 -3.07193 0
M  V30 5152 N 495.163 1.55791 0.238111 0
M  V30 5153 C 496.113 1.87444 1.29803 0
M  V30 5154 C 497.097 0.736043 1.43078 0
M  V30 5155 O 498.289 0.998146 1.46171 0
M  V30 5156 C 495.418 2.18028 2.65177 0
M  V30 5157 C 494.504 3.38217 2.55871 0
M  V30 5158 N 494.895 4.57264 2.16202 0
M  V30 5159 C 493.193 3.41502 2.86866 0
M  V30 5160 C 493.894 5.3941 2.17744 0
M  V30 5161 N 492.87 4.78695 2.57589 0
M  V30 5162 H 496.672 2.7701 0.981965 0
M  V30 5163 H 494.186 1.56135 0.44672 0
M  V30 5164 H 496.183 2.38873 3.4168 0
M  V30 5165 H 494.843 1.29765 2.97643 0
M  V30 5166 H 495.854 4.82727 1.87602 0
M  V30 5167 H 492.531 2.63536 3.23813 0
M  V30 5168 H 493.921 6.44671 1.89339 0
M  V30 5169 N 496.642 -0.504142 1.49319 0
M  V30 5170 C 497.87 -1.28256 1.62351 0
M  V30 5171 C 498.285 -1.86502 0.293682 0
M  V30 5172 O 497.642 -1.67678 -0.720449 0
M  V30 5173 C 497.693 -2.41507 2.68992 0
M  V30 5174 O 497.414 -1.85656 3.96817 0
M  V30 5175 C 498.915 -3.32929 2.927 0
M  V30 5176 H 496.135 -0.389115 0.546654 0
M  V30 5177 H 498.679 -0.605531 1.95329 0
M  V30 5178 H 496.834 -3.05046 2.38801 0
M  V30 5179 H 497.248 -2.59981 4.55533 0
M  V30 5180 H 498.722 -4.0868 3.71058 0
M  V30 5181 H 499.199 -3.89733 2.02496 0
M  V30 5182 H 499.805 -2.75158 3.24296 0
M  V30 5183 N 498.12 -1.38341 -0.754957 0
M  V30 5184 C 499.536 -1.19508 -1.05783 0
M  V30 5185 C 499.736 -0.0428005 -2.01455 0
M  V30 5186 O 498.792 0.611861 -2.44975 0
M  V30 5187 C 500.105 -2.52091 -1.63923 0
M  V30 5188 C 501.653 -2.58762 -1.76101 0
M  V30 5189 C 502.128 -3.91517 -2.37652 0
M  V30 5190 N 503.619 -3.93049 -2.45085 0
M  V30 5191 C 504.354 -4.9253 -2.93602 0
M  V30 5192 N 503.85 -6.02408 -3.42165 0
M  V30 5193 N 505.643 -4.79921 -2.92629 0
M  V30 5194 H 497.794 -2.1206 -0.120056 0
M  V30 5195 H 500.057 -0.94089 -0.11589 0
M  V30 5196 H 499.763 -3.36858 -1.01093 0
M  V30 5197 H 499.637 -2.70388 -2.63003 0
M  V30 5198 H 502.024 -1.74391 -2.38058 0
M  V30 5199 H 502.105 -2.44333 -0.757294 0
M  V30 5200 H 501.749 -4.76309 -1.76329 0
M  V30 5201 H 501.679 -4.03256 -3.38662 0
M  V30 5202 H 504.17 -3.13685 -2.10736 0
M  V30 5203 H 504.483 -6.74248 -3.77637 0
M  V30 5204 H 502.828 -6.0603 -3.40225 0
M  V30 5205 H 506.019 -3.93194 -2.54001 0
M  V30 5206 H 506.192 -5.57601 -3.30128 0
M  V30 5207 N 499.598 0.982988 -1.23187 0
M  V30 5208 C 500.846 1.72052 -1.06031 0
M  V30 5209 C 501.167 1.90769 0.404019 0
M  V30 5210 O 500.437 1.47446 1.28982 0
M  V30 5211 H 499.017 0.637499 -0.389363 0
M  V30 5212 H 501.679 1.18338 -1.54862 0
M  V30 5213 H 500.775 2.7111 -1.54615 0
M  V30 5214 N 501.076 1.04316 1.18135 0
M  V30 5215 C 502.492 0.762858 1.40188 0
M  V30 5216 C 502.692 -0.646547 1.90846 0
M  V30 5217 O 501.748 -1.41036 2.0944 0
M  V30 5218 C 503.061 1.81106 2.40044 0
M  V30 5219 C 504.609 1.83226 2.53766 0
M  V30 5220 C 505.084 2.87044 3.56889 0
M  V30 5221 N 506.575 2.85951 3.64398 0
M  V30 5222 C 507.31 3.62932 4.43923 0
M  V30 5223 N 506.806 4.49672 5.27036 0
M  V30 5224 N 508.599 3.51411 4.38711 0
M  V30 5225 H 500.75 1.95264 0.835805 0
M  V30 5226 H 503.013 0.845017 0.429709 0
M  V30 5227 H 502.719 2.82214 2.09876 0
M  V30 5228 H 502.593 1.64529 3.39426 0
M  V30 5229 H 504.98 0.827869 2.8325 0
M  V30 5230 H 505.061 2.03879 1.54489 0
M  V30 5231 H 504.705 3.87663 3.28145 0
M  V30 5232 H 504.635 2.63645 4.5585 0
M  V30 5233 H 507.126 2.23051 3.05052 0
M  V30 5234 H 507.439 5.05116 5.84874 0
M  V30 5235 H 505.784 4.53738 5.26447 0
M  V30 5236 H 508.975 2.83047 3.72829 0
M  V30 5237 H 509.148 4.11654 5.00445 0
M  V30 5238 N 502.554 -1.34406 0.822964 0
M  V30 5239 C 503.517 -2.2783 0.250271 0
M  V30 5240 C 504.517 -1.50288 -0.571854 0
M  V30 5241 O 505.707 -1.69825 -0.387952 0
M  V30 5242 C 502.839 -3.34663 -0.649137 0
M  V30 5243 H 504.032 -2.79992 1.07444 0
M  V30 5244 H 501.585 -1.44539 0.594829 0
M  V30 5245 H 502.32 -2.87714 -1.49637 0
M  V30 5246 H 502.105 -3.92052 -0.0611199 0
M  V30 5247 H 503.595 -4.04349 -1.04363 0
M  V30 5248 N 504.032 -0.577932 -1.46621 0
M  V30 5249 C 505.28 -0.061566 -2.02006 0
M  V30 5250 C 505.601 1.30117 -1.4524 0
M  V30 5251 O 504.871 1.85313 -0.63529 0
M  V30 5252 H 503.451 -0.0197692 -0.746738 0
M  V30 5253 H 506.113 -0.752631 -1.79782 0
M  V30 5254 H 505.209 0.0110238 -3.12098 0
M  V30 5255 N 505.51 1.54411 -0.315457 0
M  V30 5256 C 506.457 2.24048 0.554166 0
M  V30 5257 C 507.427 1.2283 1.11812 0
M  V30 5258 O 508.612 1.51491 1.15997 0
M  V30 5259 C 505.752 2.99574 1.71316 0
M  V30 5260 C 504.865 4.15594 1.17922 0
M  V30 5261 C 504 4.78669 2.30324 0
M  V30 5262 C 503.039 5.86807 1.74137 0
M  V30 5263 N 502.176 6.43777 2.8017 0
M  V30 5264 H 507.016 2.97964 -0.0462602 0
M  V30 5265 H 504.553 1.47059 -0.0346009 0
M  V30 5266 H 506.511 3.41604 2.39505 0
M  V30 5267 H 505.141 2.28008 2.285 0
M  V30 5268 H 504.193 3.78404 0.389136 0
M  V30 5269 H 505.505 4.93459 0.728012 0
M  V30 5270 H 504.659 5.23626 3.06433 0
M  V30 5271 H 503.398 4.00168 2.78778 0
M  V30 5272 H 502.403 5.41261 0.965236 0
M  V30 5273 H 503.628 6.67201 1.2657 0
M  V30 5274 H 501.574 5.68153 3.2793 0
M  V30 5275 H 501.491 7.17031 2.39588 0
M  V30 5276 H 502.759 6.9339 3.56132 0
M  V30 5277 N 506.988 0.0434614 1.5754 0
M  V30 5278 C 508.404 -0.313039 1.565 0
M  V30 5279 C 508.604 -1.71954 1.05043 0
M  V30 5280 O 507.66 -2.425 0.703564 0
M  V30 5281 C 508.973 -0.148544 3.00333 0
M  V30 5282 C 510.521 -0.220231 3.12224 0
M  V30 5283 C 510.996 -0.0843565 4.57922 0
M  V30 5284 N 512.487 -0.140881 4.62986 0
M  V30 5285 C 513.222 -0.0597443 5.73369 0
M  V30 5286 N 512.718 0.0733004 6.92761 0
M  V30 5287 N 514.511 -0.11477 5.61983 0
M  V30 5288 H 506.662 0.96303 1.89313 0
M  V30 5289 H 508.925 0.373164 0.871466 0
M  V30 5290 H 508.631 0.820894 3.41986 0
M  V30 5291 H 508.505 -0.912798 3.65989 0
M  V30 5292 H 510.892 -1.18014 2.70475 0
M  V30 5293 H 510.973 0.574646 2.49262 0
M  V30 5294 H 510.617 0.872192 5.00355 0
M  V30 5295 H 510.547 -0.898281 5.18882 0
M  V30 5296 H 513.038 -0.243273 3.77116 0
M  V30 5297 H 513.351 0.128128 7.72694 0
M  V30 5298 H 511.696 0.10828 6.94916 0
M  V30 5299 H 514.887 -0.217212 4.67596 0
M  V30 5300 H 515.06 -0.0480779 6.47982 0
M  V30 5301 N 508.466 -1.55915 -0.229846 0
M  V30 5302 C 509.882 -1.48721 -0.579166 0
M  V30 5303 C 510.082 -0.736976 -1.87539 0
M  V30 5304 O 509.138 -0.273258 -2.51017 0
M  V30 5305 C 510.451 -2.9323 -0.666082 0
M  V30 5306 C 511.999 -3.03701 -0.757267 0
M  V30 5307 C 512.474 -4.49552 -0.8756 0
M  V30 5308 N 513.965 -4.53561 -0.940035 0
M  V30 5309 C 514.7 -5.63683 -1.05116 0
M  V30 5310 N 514.196 -6.83576 -1.12675 0
M  V30 5311 N 515.989 -5.51516 -1.08565 0
M  V30 5312 H 508.14 -2.03123 0.620857 0
M  V30 5313 H 510.403 -0.922898 0.21671 0
M  V30 5314 H 510.109 -3.51032 0.21664 0
M  V30 5315 H 509.983 -3.44668 -1.53243 0
M  V30 5316 H 512.37 -2.45969 -1.63043 0
M  V30 5317 H 512.451 -2.55446 0.134583 0
M  V30 5318 H 512.095 -5.079 -0.00692351 0
M  V30 5319 H 512.025 -4.95506 -1.78274 0
M  V30 5320 H 514.516 -3.67215 -0.892269 0
M  V30 5321 H 514.829 -7.63251 -1.21109 0
M  V30 5322 H 513.174 -6.86303 -1.09603 0
M  V30 5323 H 516.365 -4.5678 -1.02319 0
M  V30 5324 H 516.538 -6.37372 -1.1688 0
M  V30 5325 N 509.944 0.496216 -1.49584 0
M  V30 5326 C 511.193 1.24668 -1.58558 0
M  V30 5327 C 511.506 1.9359 -0.279703 0
M  V30 5328 O 512.712 2.70365 -0.248048 0
M  V30 5329 C 511.168 2.26388 -2.79779 0
M  V30 5330 C 510.776 1.63384 -4.17145 0
M  V30 5331 C 512.52 3.02233 -2.98086 0
M  V30 5332 C 510.427 2.63243 -5.29582 0
M  V30 5333 H 509.357 0.468995 -0.590389 0
M  V30 5334 H 512.008 0.519985 -1.75978 0
M  V30 5335 H 510.39 3.02241 -2.55863 0
M  V30 5336 H 511.564 0.93491 -4.51216 0
M  V30 5337 H 509.879 0.999121 -4.04236 0
M  V30 5338 H 512.476 3.76919 -3.79257 0
M  V30 5339 H 512.819 3.60132 -2.08831 0
M  V30 5340 H 513.352 2.33495 -3.22063 0
M  V30 5341 H 510.091 2.10119 -6.20911 0
M  V30 5342 H 509.611 3.31363 -4.99959 0
M  V30 5343 H 511.29 3.25575 -5.59115 0
M  V30 5344 N 511.423 1.38739 0.74761 0
M  V30 5345 C 512.839 1.20067 1.05148 0
M  V30 5346 C 513.039 0.0534835 2.01429 0
M  V30 5347 O 512.095 -0.59886 2.45296 0
M  V30 5348 C 513.408 2.52957 1.62584 0
M  V30 5349 C 514.956 2.59692 1.74726 0
M  V30 5350 C 515.431 3.92772 2.35573 0
M  V30 5351 N 516.922 3.94343 2.42997 0
M  V30 5352 C 517.657 4.9408 2.90985 0
M  V30 5353 N 517.153 6.04214 3.38965 0
M  V30 5354 N 518.946 4.81466 2.9008 0
M  V30 5355 H 511.097 2.12121 0.108808 0
M  V30 5356 H 513.36 0.941491 0.110899 0
M  V30 5357 H 513.066 3.37389 0.993051 0
M  V30 5358 H 512.94 2.71779 2.61565 0
M  V30 5359 H 515.327 1.75651 2.3713 0
M  V30 5360 H 515.408 2.44731 0.744326 0
M  V30 5361 H 515.052 4.77238 1.738 0
M  V30 5362 H 514.982 4.05046 3.36519 0
M  V30 5363 H 517.473 3.14799 2.0907 0
M  V30 5364 H 517.786 6.76241 3.74056 0
M  V30 5365 H 516.131 6.07825 3.37007 0
M  V30 5366 H 519.322 3.94535 2.51912 0
M  V30 5367 H 519.495 5.59344 3.27166 0
M  V30 5368 N 512.901 -0.976442 1.23707 0
M  V30 5369 C 514.317 -1.24341 1.00058 0
M  V30 5370 C 514.517 -1.99315 -0.295932 0
M  V30 5371 O 513.573 -2.3123 -1.01435 0
M  V30 5372 C 514.886 -2.03909 2.21001 0
M  V30 5373 C 516.434 -2.17034 2.25534 0
M  V30 5374 C 516.909 -2.99994 3.46075 0
M  V30 5375 N 518.4 -3.07578 3.46338 0
M  V30 5376 C 519.135 -3.72104 4.36264 0
M  V30 5377 N 518.631 -4.3842 5.36432 0
M  V30 5378 N 520.424 -3.69029 4.23998 0
M  V30 5379 H 512.575 -0.47428 2.07037 0
M  V30 5380 H 514.838 -0.272167 0.908091 0
M  V30 5381 H 514.544 -1.56198 3.15111 0
M  V30 5382 H 514.418 -3.04654 2.22409 0
M  V30 5383 H 516.805 -2.63951 1.31961 0
M  V30 5384 H 516.886 -1.15664 2.28156 0
M  V30 5385 H 516.53 -2.53772 4.39957 0
M  V30 5386 H 516.46 -4.01541 3.40694 0
M  V30 5387 H 518.951 -2.60397 2.73865 0
M  V30 5388 H 519.264 -4.85447 6.013 0
M  V30 5389 H 517.609 -4.37116 5.40328 0
M  V30 5390 H 520.8 -3.16392 3.44984 0
M  V30 5391 H 520.973 -4.19034 4.94282 0
M  V30 5392 N 514.379 -1.04941 -1.1758 0
M  V30 5393 C 515.625 -0.759112 -1.88057 0
M  V30 5394 C 515.958 0.711918 -1.8068 0
M  V30 5395 O 515.233 1.52035 -1.21308 0
M  V30 5396 C 515.516 -1.237 -3.38187 0
M  V30 5397 C 515.369 -2.77078 -3.54327 0
M  V30 5398 C 516.688 -0.834014 -4.32125 0
M  V30 5399 H 513.807 -0.277237 -0.682868 0
M  V30 5400 H 516.449 -1.30296 -1.38286 0
M  V30 5401 H 514.599 -0.774337 -3.80705 0
M  V30 5402 H 516.271 -3.31449 -3.20842 0
M  V30 5403 H 514.514 -3.16477 -2.96689 0
M  V30 5404 H 515.185 -3.05577 -4.59703 0
M  V30 5405 H 517.661 -1.23228 -3.97434 0
M  V30 5406 H 516.537 -1.19603 -5.35711 0
M  V30 5407 H 516.798 0.262195 -4.41322 0
M  V30 5408 N 515.857 1.33968 -0.830081 0
M  V30 5409 C 516.82 2.27694 -0.26235 0
M  V30 5410 C 517.82 1.50589 0.563876 0
M  V30 5411 O 519.01 1.70028 0.378941 0
M  V30 5412 C 516.142 3.35002 0.63138 0
M  V30 5413 H 517.335 2.79419 -1.08928 0
M  V30 5414 H 514.888 1.44221 -0.602486 0
M  V30 5415 H 515.623 2.88504 1.48109 0
M  V30 5416 H 515.408 3.92079 0.0403276 0
M  V30 5417 H 516.898 4.04897 1.02217 0
M  V30 5418 O 517.374 0.726383 1.44243 0
M  V30 5419 H 518.065 0.275111 1.91736 0
M  V30 END ATOM
M  V30 BEGIN BOND
M  V30 END BOND
M  V30 END CTAB
M  END
$$$$
