drugbank_target|P20309 Muscarinic acetylcholine receptor M3 (DB00185; DB00193; DB00202; DB00209; DB00246; DB00280; DB00332; DB00334; DB00342; DB00363; DB00376; DB00383; DB00387; DB00408; DB00411; DB00424; DB00434; DB00458; DB00462; DB00477; DB00496; DB00502; DB00505; DB00517; DB00572; DB00599; DB00622; DB00725; DB00747; DB00767; DB00809; DB00835; DB00934; DB00940; DB00986; DB01019; DB01036; DB01062; DB01069; DB01085; DB01142; DB01151; DB01224; DB01226; DB01231; DB01238; DB01239; DB01337; DB01338; DB01403; DB01409; DB01591; DB01625; DB03128; DB04365; DB04843; DB05752; DB06153; DB06702; DB06709; DB06787; DB08897; DB09076; DB09089; DB09167; DB09262; DB09300; DB11181; DB11235; DB12278; DB13581; DB13720; DB14185)
 OpenBabel12092119233D

  0  0  0     0  0            999 V3000
M  V30 BEGIN CTAB
M  V30 COUNTS 9342 9451 0 0 0
M  V30 BEGIN ATOM
M  V30 1 H -0.908 1.98254 -0.117106 0
M  V30 2 N 0 1.576 0 0
M  V30 3 C 0.933 2.03868 1.02534 0
M  V30 4 C 1.911 0.928543 1.3348 0
M  V30 5 O 3.095 1.19667 1.45644 0
M  V30 6 C 0.222 2.43627 2.35294 0
M  V30 7 C -0.732 3.65373 2.2001 0
M  V30 8 S 0.101 5.13292 1.52614 0
M  V30 9 C 1.257 5.56322 2.86805 0
M  V30 10 H 1.49 2.90518 0.631377 0
M  V30 11 H -0.977 1.52953 0.210867 0
M  V30 12 H 0.981 2.67203 3.11629 0
M  V30 13 H -0.358 1.57376 2.7183 0
M  V30 14 H -1.165 3.90944 3.18086 0
M  V30 15 H -1.563 3.418 1.51819 0
M  V30 16 H 0.729 5.58782 3.83104 0
M  V30 17 H 1.672 6.56266 2.65933 0
M  V30 18 H 2.08 4.83886 2.90714 0
M  V30 19 N 1.4781 -0.272755 1.55222 0
M  V30 20 C 2.7061 -1.02255 1.79865 0
M  V30 21 C 3.1211 -1.79924 0.572088 0
M  V30 22 O 2.4781 -1.76638 -0.458842 0
M  V30 23 C 2.5291 -1.98094 3.02392 0
M  V30 24 O 2.2501 -1.23572 4.20311 0
M  V30 25 C 3.7511 -2.84884 3.39641 0
M  V30 26 H 0.9711 -0.302057 0.599168 0
M  V30 27 H 3.5151 -0.303465 2.02236 0
M  V30 28 H 1.6701 -2.65465 2.82147 0
M  V30 29 H 2.0841 -1.88172 4.89583 0
M  V30 30 H 3.5581 -3.47927 4.28545 0
M  V30 31 H 4.0351 -3.54665 2.59055 0
M  V30 32 H 4.6411 -2.23003 3.62146 0
M  V30 33 N 2.9562 -1.48159 -0.537278 0
M  V30 34 C 3.8862 -1.65029 -1.6519 0
M  V30 35 C 4.8672 -0.499281 -1.62607 0
M  V30 36 O 6.0522 -0.730972 -1.79918 0
M  V30 37 C 3.1822 -1.68303 -3.03795 0
M  V30 38 C 2.1362 -2.8283 -3.21234 0
M  V30 39 C 1.4622 -2.71189 -4.60826 0
M  V30 40 C 2.7622 -4.24211 -3.04701 0
M  V30 41 H 4.4562 -2.58341 -1.51328 0
M  V30 42 H 2.0022 -1.24325 -0.726585 0
M  V30 43 H 3.9552 -1.78693 -3.81637 0
M  V30 44 H 2.6792 -0.715635 -3.18663 0
M  V30 45 H 1.3382 -2.71983 -2.45807 0
M  V30 46 H 0.9862 -1.72435 -4.7252 0
M  V30 47 H 0.6862 -3.48035 -4.7344 0
M  V30 48 H 2.2102 -2.83537 -5.40777 0
M  V30 49 H 3.6242 -4.3593 -3.72341 0
M  V30 50 H 2.0212 -5.01998 -3.28813 0
M  V30 51 H 3.0912 -4.41184 -2.01209 0
M  V30 52 N 4.4343 0.785586 -1.36625 0
M  V30 53 C 5.3843 1.88822 -1.27789 0
M  V30 54 C 6.3683 1.60014 -0.168579 0
M  V30 55 O 7.5603 1.72381 -0.401737 0
M  V30 56 C 4.6893 3.26092 -1.07327 0
M  V30 57 C 3.7753 3.60897 -2.22743 0
M  V30 58 N 4.1663 3.66982 -3.48077 0
M  V30 59 C 2.4643 3.90981 -2.14593 0
M  V30 60 C 3.1653 3.98137 -4.24101 0
M  V30 61 N 2.1413 4.13319 -3.53084 0
M  V30 62 H 5.9433 1.91759 -2.22723 0
M  V30 63 H 3.4573 0.981311 -1.29399 0
M  V30 64 H 5.4543 4.04954 -0.990842 0
M  V30 65 H 4.1143 3.24428 -0.132977 0
M  V30 66 H 5.1253 3.49531 -3.82163 0
M  V30 67 H 1.8023 3.9722 -1.2854 0
M  V30 68 H 3.1923 4.09737 -5.32509 0
M  V30 69 N 5.9124 1.20967 1.01018 0
M  V30 70 C 6.8604 0.961223 2.1181 0
M  V30 71 C 7.8544 -0.0897034 1.69162 0
M  V30 72 O 9.0604 0.0612271 1.79896 0
M  V30 73 H 5.4354 0.29355 0.692338 0
M  V30 74 H 7.4064 1.90178 2.29946 0
M  V30 75 C 6.1554 0.536854 3.4353 0
M  V30 76 H 5.4784 1.33713 3.76777 0
M  V30 77 H 6.9184 0.402286 4.22087 0
M  V30 78 C 5.3774 -0.751574 3.2841 0
M  V30 79 O 5.9074 -1.80841 3.58691 0
M  V30 80 N 4.1134 -0.716079 2.81639 0
M  V30 81 H 3.6604 0.144236 2.57196 0
M  V30 82 H 3.6184 -1.57847 2.71904 0
M  V30 83 N 7.3905 -1.2043 1.01659 0
M  V30 84 C 8.3385 -2.25249 0.580143 0
M  V30 85 C 9.3325 -1.65057 -0.381115 0
M  V30 86 O 10.5385 -1.78241 -0.251039 0
M  V30 87 H 6.9135 -0.732695 0.169299 0
M  V30 88 H 8.8845 -2.59389 1.47512 0
M  V30 89 C 7.6335 -3.47638 -0.065788 0
M  V30 90 H 6.9565 -3.94233 0.664874 0
M  V30 91 H 8.3965 -4.2268 -0.334282 0
M  V30 92 C 6.8555 -3.10447 -1.3086 0
M  V30 93 O 7.3855 -3.21981 -2.4019 0
M  V30 94 N 5.5915 -2.64996 -1.1927 0
M  V30 95 H 5.1385 -2.55811 -0.303064 0
M  V30 96 H 5.0965 -2.40482 -2.02523 0
M  V30 97 N 8.8686 -0.792821 -1.36206 0
M  V30 98 C 10.0936 -0.377701 -2.03932 0
M  V30 99 C 10.5186 0.998947 -1.59382 0
M  V30 100 O 9.8766 1.64421 -0.763903 0
M  V30 101 C 9.9246 -0.453635 -3.57735 0
M  V30 102 O 9.0286 0.538151 -4.08874 0
M  V30 103 H 8.3696 -0.159855 -0.644471 0
M  V30 104 H 10.8996 -1.07488 -1.7409 0
M  V30 105 H 10.9096 -0.318464 -4.06755 0
M  V30 106 H 9.5846 -1.45784 -3.89512 0
M  V30 107 H 8.1616 0.364359 -3.71116 0
M  V30 108 N 10.3467 1.47872 -0.545128 0
M  V30 109 C 11.5747 2.06889 -0.021084 0
M  V30 110 C 11.9897 1.39955 1.2672 0
M  V30 111 O 11.3467 0.492036 1.75742 0
M  V30 112 C 11.3977 3.60996 0.190817 0
M  V30 113 O 11.1187 4.25419 -1.04644 0
M  V30 114 C 12.6197 4.36849 0.753521 0
M  V30 115 H 9.8397 0.669785 -0.0403635 0
M  V30 116 H 12.3837 1.90049 -0.755095 0
M  V30 117 H 10.5387 3.77391 0.87492 0
M  V30 118 H 10.9527 5.17785 -0.836611 0
M  V30 119 H 12.4267 5.45399 0.851139 0
M  V30 120 H 12.9037 4.02306 1.762 0
M  V30 121 H 13.5097 4.25169 0.105503 0
M  V30 122 N 11.8248 0.280983 1.55075 0
M  V30 123 C 13.0528 -0.337293 2.04132 0
M  V30 124 C 13.4678 -1.4903 1.15912 0
M  V30 125 O 12.8248 -1.81606 0.180459 0
M  V30 126 C 12.8758 -0.812706 3.52246 0
M  V30 127 O 12.5968 0.294387 4.3711 0
M  V30 128 C 14.0978 -1.4982 4.17216 0
M  V30 129 H 11.3178 -0.0761638 0.666663 0
M  V30 130 H 13.8618 0.414787 2.00249 0
M  V30 131 H 12.0168 -1.51486 3.56554 0
M  V30 132 H 12.4308 -0.0721325 5.2445 0
M  V30 133 H 13.9048 -1.7822 5.22438 0
M  V30 134 H 14.3818 -2.43168 3.65741 0
M  V30 135 H 14.9878 -0.839742 4.16927 0
M  V30 136 N 13.3029 -1.57598 0.00835791 0
M  V30 137 C 14.5279 -1.95617 -0.689103 0
M  V30 138 C 14.9529 -0.883753 -1.66046 0
M  V30 139 O 14.3109 0.157352 -1.80616 0
M  V30 140 C 14.3589 -3.32736 -1.38994 0
M  V30 141 O 13.4629 -3.27631 -2.50463 0
M  V30 142 H 12.8039 -0.638379 -0.182668 0
M  V30 143 H 15.3339 -2.045 0.064036 0
M  V30 144 H 15.3439 -3.68494 -1.75147 0
M  V30 145 H 14.0189 -4.1034 -0.677778 0
M  V30 146 H 12.5959 -3.03561 -2.16576 0
M  V30 147 N 14.781 0.264519 -1.55364 0
M  V30 148 C 16.192 0.834936 -1.6699 0
M  V30 149 C 16.543 1.86718 -0.602552 0
M  V30 150 O 15.668 2.14899 0.254425 0
M  V30 151 C 16.263 1.5212 -3.02729 0
M  V30 152 C 14.822 2.03954 -3.16354 0
M  V30 153 C 13.969 0.884498 -2.62815 0
M  V30 154 H 16.92 0.0406869 -1.58648 0
M  V30 155 H 16.941 2.38853 -2.96191 0
M  V30 156 H 16.453 0.769668 -3.80392 0
M  V30 157 H 14.554 2.82041 -2.43482 0
M  V30 158 H 14.667 2.24902 -4.23032 0
M  V30 159 H 13.031 1.2802 -2.20188 0
M  V30 160 H 13.814 0.14634 -3.42988 0
M  V30 161 N 16.2591 1.48442 0.529413 0
M  V30 162 C 17.1891 1.65902 1.64313 0
M  V30 163 C 18.1701 0.507897 1.6234 0
M  V30 164 O 19.3551 0.740503 1.79528 0
M  V30 165 C 16.4851 1.69911 3.02898 0
M  V30 166 C 15.4391 2.8453 3.19729 0
M  V30 167 C 14.7651 2.73629 4.59381 0
M  V30 168 C 16.0651 4.25821 3.02447 0
M  V30 169 H 17.7591 2.5914 1.49955 0
M  V30 170 H 15.3051 1.24709 0.719982 0
M  V30 171 H 17.2581 1.80715 3.80684 0
M  V30 172 H 15.9821 0.732524 3.18279 0
M  V30 173 H 14.6411 2.73283 2.44361 0
M  V30 174 H 14.2891 1.74938 4.71599 0
M  V30 175 H 13.9891 3.50541 4.71588 0
M  V30 176 H 15.5131 2.86401 5.39265 0
M  V30 177 H 16.9271 4.37898 3.70024 0
M  V30 178 H 15.3241 5.03735 3.26146 0
M  V30 179 H 16.3941 4.42244 1.98867 0
M  V30 180 N 17.7372 -0.778329 1.37039 0
M  V30 181 C 18.9842 -1.53665 1.31884 0
M  V30 182 C 19.3122 -1.9425 -0.0986303 0
M  V30 183 O 18.5672 -1.63832 -1.07041 0
M  V30 184 C 18.8662 -2.81845 2.19768 0
M  V30 185 C 18.5322 -2.60345 3.68146 0
M  V30 186 C 17.1942 -2.5419 4.08584 0
M  V30 187 C 19.5462 -2.40923 4.62175 0
M  V30 188 C 16.8742 -2.26594 5.41177 0
M  V30 189 C 19.2262 -2.14852 5.94997 0
M  V30 190 C 17.8902 -2.07137 6.34547 0
M  V30 191 H 17.1602 -0.562299 0.482598 0
M  V30 192 H 19.8072 -0.897069 1.69189 0
M  V30 193 H 18.1122 -3.50328 1.75436 0
M  V30 194 H 19.8092 -3.39692 2.13097 0
M  V30 195 H 16.3992 -2.65996 3.36072 0
M  V30 196 H 20.5832 -2.44673 4.31797 0
M  V30 197 H 15.8392 -2.19111 5.70789 0
M  V30 198 H 20.0132 -1.98822 6.67415 0
M  V30 199 H 17.6402 -1.85518 7.37216 0
M  V30 200 N 19.2153 -1.21501 -1.00376 0
M  V30 201 C 20.6263 -1.03146 -1.55621 0
M  V30 202 C 20.9773 0.408375 -1.91903 0
M  V30 203 O 20.1023 1.29177 -1.73616 0
M  V30 204 C 20.6973 -1.86612 -2.82775 0
M  V30 205 C 19.2563 -1.72586 -3.34501 0
M  V30 206 C 18.4033 -1.83747 -2.07683 0
M  V30 207 H 21.3543 -1.35505 -0.826081 0
M  V30 208 H 21.3753 -1.3771 -3.54706 0
M  V30 209 H 20.8873 -2.91399 -2.56336 0
M  V30 210 H 18.9883 -0.704877 -3.65872 0
M  V30 211 H 19.1013 -2.54623 -4.05837 0
M  V30 212 H 17.4653 -1.27069 -2.20739 0
M  V30 213 H 18.2483 -2.90044 -1.83655 0
M  V30 214 N 20.6934 1.19889 -1.02296 0
M  V30 215 C 21.6414 2.24938 -0.592081 0
M  V30 216 C 22.6354 1.65257 0.372357 0
M  V30 217 O 23.8414 1.78371 0.241583 0
M  V30 218 H 20.2164 0.731787 -0.173182 0
M  V30 219 H 22.1874 2.58603 -1.48885 0
M  V30 220 C 20.9364 3.47668 0.047351 0
M  V30 221 H 20.2594 3.93875 -0.685772 0
M  V30 222 H 21.6994 4.22852 0.311862 0
M  V30 223 C 20.1584 3.11136 1.29212 0
M  V30 224 O 20.6884 3.2325 2.38479 0
M  V30 225 N 18.8944 2.65625 1.17863 0
M  V30 226 H 18.4414 2.55968 0.289493 0
M  V30 227 H 18.3994 2.41553 2.01245 0
M  V30 228 N 22.1715 0.800033 1.35784 0
M  V30 229 C 23.4205 0.37387 1.98205 0
M  V30 230 C 23.7335 -1.06302 1.64193 0
M  V30 231 O 24.9395 -1.59198 2.19928 0
M  V30 232 C 23.3955 0.617532 3.54562 0
M  V30 233 C 23.0035 2.06654 3.9749 0
M  V30 234 C 24.7475 0.256401 4.23725 0
M  V30 235 C 22.6545 2.2563 5.46667 0
M  V30 236 H 21.5845 0.136055 0.741623 0
M  V30 237 H 24.2355 0.983166 1.54939 0
M  V30 238 H 22.6175 -0.0616248 3.95952 0
M  V30 239 H 23.7915 2.78296 3.67271 0
M  V30 240 H 22.1065 2.38691 3.41197 0
M  V30 241 H 24.7035 0.376318 5.33374 0
M  V30 242 H 25.0465 -0.796692 4.08606 0
M  V30 243 H 25.5795 0.889214 3.87734 0
M  V30 244 H 22.3185 3.2936 5.66747 0
M  V30 245 H 21.8385 1.58504 5.78478 0
M  V30 246 H 23.5175 2.06861 6.1304 0
M  V30 247 N 23.6496 -1.47581 0.552962 0
M  V30 248 C 24.8746 -2.07378 0.0300593 0
M  V30 249 C 25.2996 -1.40355 -1.25229 0
M  V30 250 O 24.6576 -0.477099 -1.7491 0
M  V30 251 C 24.7056 -3.60274 -0.153231 0
M  V30 252 O 23.8096 -3.94041 -1.21678 0
M  V30 253 H 23.1506 -0.662158 0.0494182 0
M  V30 254 H 25.6806 -1.89662 0.767434 0
M  V30 255 H 25.6906 -4.0633 -0.368761 0
M  V30 256 H 24.3656 -4.08455 0.783397 0
M  V30 257 H 22.9426 -3.59735 -0.982079 0
M  V30 258 N 25.1277 -0.289203 -1.54924 0
M  V30 259 C 26.3527 0.329299 -2.04769 0
M  V30 260 C 26.7777 1.4763 -1.16564 0
M  V30 261 O 26.1357 1.80527 -0.167186 0
M  V30 262 C 26.1837 0.774438 -3.52186 0
M  V30 263 O 25.2877 1.88038 -3.67036 0
M  V30 264 H 24.6287 0.0659259 -0.660719 0
M  V30 265 H 27.1587 -0.42761 -2.00082 0
M  V30 266 H 27.1687 1.06642 -3.93816 0
M  V30 267 H 25.8437 -0.0646707 -4.1585 0
M  V30 268 H 24.4207 1.58985 -3.3731 0
M  V30 269 N 26.6058 1.57591 -0.0167156 0
M  V30 270 C 27.8308 1.9598 0.67872 0
M  V30 271 C 28.2558 0.892546 1.65575 0
M  V30 272 O 27.6138 -0.147772 1.80697 0
M  V30 273 C 27.6618 3.33468 1.37227 0
M  V30 274 O 26.7658 3.28954 2.48722 0
M  V30 275 H 26.1068 0.639339 0.17928 0
M  V30 276 H 28.6368 2.04463 -0.0748802 0
M  V30 277 H 28.6468 3.69417 1.7319 0
M  V30 278 H 27.3218 4.10694 0.656007 0
M  V30 279 H 25.8988 3.04705 2.14963 0
M  V30 280 N 28.0839 -0.256276 1.55502 0
M  V30 281 C 29.3299 -0.982884 1.78076 0
M  V30 282 C 29.6849 -1.83319 0.584109 0
M  V30 283 O 28.9779 -1.86875 -0.422877 0
M  V30 284 C 29.1719 -1.88432 3.03691 0
M  V30 285 C 29.0009 -1.12276 4.35459 0
M  V30 286 C 27.7709 -0.831647 4.98409 0
M  V30 287 C 29.9689 -0.504933 5.11815 0
M  V30 288 N 27.9509 -0.0450423 6.13883 0
M  V30 289 C 29.3219 0.146696 6.19826 0
M  V30 290 C 31.3769 -0.414455 4.96172 0
M  V30 291 C 30.0799 0.880103 7.13895 0
M  V30 292 C 32.1059 0.305398 5.90611 0
M  V30 293 C 31.4679 0.945701 6.98023 0
M  V30 294 H 27.5669 -0.341084 0.703694 0
M  V30 295 H 30.1509 -0.256909 1.92998 0
M  V30 296 H 28.3219 -2.58241 2.90114 0
M  V30 297 H 30.0539 -2.54579 3.14598 0
M  V30 298 H 26.8089 -1.14111 4.59647 0
M  V30 299 H 27.2329 0.336079 6.76165 0
M  V30 300 H 31.8749 -0.895163 4.13215 0
M  V30 301 H 29.5929 1.37244 7.9636 0
M  V30 302 H 33.1789 0.375946 5.80584 0
M  V30 303 H 32.0589 1.49383 7.6984 0
M  V30 304 N 29.562 -1.4872 -0.521534 0
M  V30 305 C 30.811 -1.56419 -1.27341 0
M  V30 306 C 31.124 -0.246805 -1.94037 0
M  V30 307 O 32.33 -0.202122 -2.70747 0
M  V30 308 C 30.786 -2.75896 -2.31105 0
M  V30 309 C 30.394 -4.14311 -1.70441 0
M  V30 310 C 32.138 -2.92913 -3.07249 0
M  V30 311 C 30.045 -5.25038 -2.72194 0
M  V30 312 H 28.975 -0.582344 -0.478949 0
M  V30 313 H 31.626 -1.75071 -0.549779 0
M  V30 314 H 30.008 -2.50697 -3.06541 0
M  V30 315 H 31.182 -4.49564 -1.01136 0
M  V30 316 H 29.497 -4.02482 -1.06759 0
M  V30 317 H 32.094 -3.72805 -3.83302 0
M  V30 318 H 32.437 -2.02689 -3.63625 0
M  V30 319 H 32.97 -3.18054 -2.38928 0
M  V30 320 H 29.709 -6.17255 -2.20627 0
M  V30 321 H 29.229 -4.94263 -3.39801 0
M  V30 322 H 30.908 -5.53508 -3.35019 0
M  V30 323 N 31.0401 0.771051 -1.3745 0
M  V30 324 C 31.9901 1.87456 -1.29785 0
M  V30 325 C 32.9741 1.59827 -0.185541 0
M  V30 326 O 34.1661 1.71945 -0.419997 0
M  V30 327 C 31.2951 3.24935 -1.1078 0
M  V30 328 C 30.3811 3.58514 -2.26558 0
M  V30 329 N 30.7721 3.6327 -3.5195 0
M  V30 330 C 29.0701 3.88683 -2.18727 0
M  V30 331 C 29.7711 3.93616 -4.283 0
M  V30 332 N 28.7471 4.09551 -3.57448 0
M  V30 333 H 32.5491 1.89386 -2.24745 0
M  V30 334 H 30.0631 0.967531 -1.30432 0
M  V30 335 H 32.0601 4.03881 -1.03374 0
M  V30 336 H 30.7201 3.24268 -0.16738 0
M  V30 337 H 31.7311 3.45458 -3.85848 0
M  V30 338 H 28.4081 3.95834 -1.32746 0
M  V30 339 H 29.7981 4.04066 -5.36824 0
M  V30 340 N 32.5182 1.22032 0.997298 0
M  V30 341 C 33.7432 1.06921 1.77715 0
M  V30 342 C 34.1682 -0.376226 1.84299 0
M  V30 343 O 33.5262 -1.27165 1.29223 0
M  V30 344 C 33.5742 1.67996 3.19076 0
M  V30 345 O 32.6782 0.930653 4.01762 0
M  V30 346 H 32.0192 0.375814 0.547412 0
M  V30 347 H 34.5492 1.61737 1.25309 0
M  V30 348 H 34.5592 1.72538 3.69723 0
M  V30 349 H 33.2342 2.73182 3.13599 0
M  V30 350 H 31.8112 0.960917 3.60307 0
M  V30 351 N 33.9963 -1.19345 1.0293 0
M  V30 352 C 35.4073 -1.70725 0.755633 0
M  V30 353 C 35.7583 -1.82326 -0.724676 0
M  V30 354 O 34.8833 -1.49471 -1.56484 0
M  V30 355 C 35.4783 -3.10084 1.36503 0
M  V30 356 C 34.0373 -3.58723 1.13994 0
M  V30 357 C 33.1843 -2.35577 1.46283 0
M  V30 358 H 36.1353 -1.0418 1.19718 0
M  V30 359 H 36.1563 -3.72787 0.762217 0
M  V30 360 H 35.6683 -3.01609 2.44241 0
M  V30 361 H 33.7693 -3.72512 0.0807901 0
M  V30 362 H 33.8823 -4.42816 1.82894 0
M  V30 363 H 32.2463 -2.38935 0.88217 0
M  V30 364 H 33.0293 -2.29731 2.55105 0
M  V30 365 N 35.4744 -0.807222 -1.35358 0
M  V30 366 C 36.6994 -0.399309 -2.0352 0
M  V30 367 C 37.1244 0.981986 -1.60433 0
M  V30 368 O 36.4824 1.63601 -0.781299 0
M  V30 369 C 36.5304 -0.491552 -3.57234 0
M  V30 370 O 35.6344 0.494754 -4.09421 0
M  V30 371 H 34.9754 -0.166682 -0.642739 0
M  V30 372 H 37.5054 -1.09328 -1.72941 0
M  V30 373 H 37.5154 -0.361588 -4.06395 0
M  V30 374 H 36.1904 -1.49907 -3.87944 0
M  V30 375 H 34.7674 0.324977 -3.71481 0
M  V30 376 N 36.9525 1.47285 -0.560781 0
M  V30 377 C 38.2295 1.9558 0.0277798 0
M  V30 378 C 38.6095 1.5034 1.48192 0
M  V30 379 O 37.9575 0.743882 2.16052 0
M  V30 380 C 38.1675 3.48789 -0.121418 0
M  V30 381 C 39.5155 4.24594 0.0220912 0
M  V30 382 O 40.5395 3.56166 -0.0491439 0
M  V30 383 O 39.3985 5.46217 0.175958 0
M  V30 384 H 36.4925 0.824663 0.0621342 0
M  V30 385 H 39.0385 1.5767 -0.627556 0
M  V30 386 H 37.8105 3.74533 -1.13316 0
M  V30 387 H 37.4335 3.93473 0.571366 0
M  V30 388 N 38.4306 0.297415 1.54768 0
M  V30 389 C 39.3936 -0.567375 2.22066 0
M  V30 390 C 40.3936 -1.06409 1.20556 0
M  V30 391 O 41.5836 -0.960691 1.45315 0
M  V30 392 C 38.7156 -1.78517 2.90421 0
M  V30 393 H 39.9086 0.0205534 2.99893 0
M  V30 394 H 37.4616 0.0482163 1.56226 0
M  V30 395 H 38.1966 -2.41303 2.16664 0
M  V30 396 H 37.9816 -1.43669 3.64831 0
M  V30 397 H 39.4716 -2.39964 3.41771 0
M  V30 398 N 39.9087 -1.5758 0.0250728 0
M  V30 399 C 41.1567 -1.91255 -0.653151 0
M  V30 400 C 41.4777 -0.901691 -1.729 0
M  V30 401 O 40.7477 0.0573785 -1.95816 0
M  V30 402 H 39.3277 -0.705942 -0.244243 0
M  V30 403 H 41.9897 -1.94767 0.0719209 0
M  V30 404 H 41.0857 -2.91752 -1.10847 0
M  V30 405 N 41.3868 0.248026 -1.55636 0
M  V30 406 C 42.3168 1.31079 -1.93237 0
M  V30 407 C 43.2978 1.50264 -0.797174 0
M  V30 408 O 44.4828 1.62891 -1.05737 0
M  V30 409 C 41.6128 2.66575 -2.22609 0
M  V30 410 C 40.5668 2.62087 -3.3837 0
M  V30 411 C 39.8928 4.01369 -3.53281 0
M  V30 412 C 41.1928 2.19171 -4.7409 0
M  V30 413 H 42.8868 0.998556 -2.82257 0
M  V30 414 H 40.4328 0.47891 -1.35803 0
M  V30 415 H 42.3858 3.41057 -2.47503 0
M  V30 416 H 41.1098 2.99432 -1.30414 0
M  V30 417 H 39.7688 1.90063 -3.13483 0
M  V30 418 H 39.4168 4.31489 -2.58508 0
M  V30 419 H 39.1168 3.99254 -4.31127 0
M  V30 420 H 40.6408 4.77552 -3.80495 0
M  V30 421 H 42.0548 2.83384 -4.98363 0
M  V30 422 H 40.4518 2.2817 -5.5503 0
M  V30 423 H 41.5218 1.14336 -4.71227 0
M  V30 424 N 42.8649 1.48995 0.513639 0
M  V30 425 C 44.2759 1.5119 1.09537 0
M  V30 426 C 44.6269 0.290906 1.94031 0
M  V30 427 O 43.7519 -0.60049 2.07902 0
M  V30 428 C 44.3469 2.73964 1.99322 0
M  V30 429 C 42.9059 2.78978 2.52682 0
M  V30 430 C 42.0529 2.44934 1.30009 0
M  V30 431 H 45.0039 1.55875 0.298125 0
M  V30 432 H 45.0249 2.53409 2.83838 0
M  V30 433 H 44.5369 3.62813 1.37799 0
M  V30 434 H 42.6379 1.94378 3.1788 0
M  V30 435 H 42.7509 3.8083 2.90698 0
M  V30 436 H 41.1149 1.9644 1.62122 0
M  V30 437 H 41.8979 3.36043 0.702131 0
M  V30 438 N 44.343 -0.763751 1.37857 0
M  V30 439 C 45.754 -1.3405 1.29952 0
M  V30 440 C 46.105 -1.96138 -0.0492898 0
M  V30 441 O 45.23 -1.94372 -0.951239 0
M  V30 442 C 45.825 -2.43729 2.35333 0
M  V30 443 C 44.384 -2.97151 2.31037 0
M  V30 444 C 43.531 -1.70438 2.18738 0
M  V30 445 H 46.482 -0.563396 1.48363 0
M  V30 446 H 46.503 -3.23412 2.00462 0
M  V30 447 H 46.015 -1.9851 3.33489 0
M  V30 448 H 44.116 -3.46724 1.3643 0
M  V30 449 H 44.229 -3.52221 3.24772 0
M  V30 450 H 42.593 -1.93673 1.65418 0
M  V30 451 H 43.376 -1.27312 3.18821 0
M  V30 452 N 45.8211 -1.22559 -0.990812 0
M  V30 453 C 47.0691 -1.04933 -1.72724 0
M  V30 454 C 47.3901 0.416158 -1.90508 0
M  V30 455 O 46.6601 1.29918 -1.46622 0
M  V30 456 H 45.2401 -0.385296 -0.639965 0
M  V30 457 H 47.9021 -1.54105 -1.19322 0
M  V30 458 H 46.9981 -1.52886 -2.72089 0
M  V30 459 N 47.2992 1.18797 -1.03562 0
M  V30 460 C 48.5272 1.92599 -0.755869 0
M  V30 461 C 48.9422 1.75886 0.686271 0
M  V30 462 O 48.2992 1.08517 1.46732 0
M  V30 463 C 48.3502 3.44159 -1.10619 0
M  V30 464 O 48.0712 3.60341 -2.4917 0
M  V30 465 C 49.5722 4.3507 -0.850214 0
M  V30 466 H 46.7922 0.611587 -0.276048 0
M  V30 467 H 49.3362 1.50742 -1.38192 0
M  V30 468 H 47.4912 3.83823 -0.525194 0
M  V30 469 H 47.9052 4.54128 -2.62427 0
M  V30 470 H 49.3792 5.39989 -1.14523 0
M  V30 471 H 49.8562 4.38673 0.215176 0
M  V30 472 H 50.4622 4.01097 -1.41426 0
M  V30 473 N 48.7773 0.814389 1.34928 0
M  V30 474 C 50.0233 0.399013 1.98836 0
M  V30 475 C 50.3563 -1.03314 1.64438 0
M  V30 476 O 49.6313 -1.71811 0.911659 0
M  V30 477 C 49.9143 0.591629 3.55207 0
M  V30 478 C 49.7673 2.06928 3.99376 0
M  V30 479 C 51.0863 0.022199 4.40094 0
M  V30 480 H 48.2053 0.146451 0.722303 0
M  V30 481 H 50.8473 1.02537 1.59957 0
M  V30 482 H 48.9973 0.0584441 3.88456 0
M  V30 483 H 50.6693 2.66544 3.76499 0
M  V30 484 H 48.9123 2.56287 3.49999 0
M  V30 485 H 49.5833 2.1549 5.08201 0
M  V30 486 H 52.0593 0.477643 4.13349 0
M  V30 487 H 50.9353 0.186832 5.48582 0
M  V30 488 H 51.1963 -1.07215 4.28902 0
M  V30 489 N 50.2554 -1.46986 0.568584 0
M  V30 490 C 51.4834 -2.0683 0.0539956 0
M  V30 491 C 51.8984 -1.41953 -1.24478 0
M  V30 492 O 51.2554 -0.519933 -1.74937 0
M  V30 493 C 51.3064 -3.61254 -0.133362 0
M  V30 494 O 51.0274 -4.237 1.11399 0
M  V30 495 C 52.5284 -4.37992 -0.683927 0
M  V30 496 H 49.7484 -0.669058 0.0510141 0
M  V30 497 H 52.2924 -1.88824 0.785234 0
M  V30 498 H 50.4474 -3.78735 -0.81477 0
M  V30 499 H 50.8614 -5.16388 0.91888 0
M  V30 500 H 52.3354 -5.46684 -0.764263 0
M  V30 501 H 52.8124 -4.05058 -1.69778 0
M  V30 502 H 53.4184 -4.25283 -0.0378494 0
M  V30 503 N 51.7335 -0.305618 -1.54608 0
M  V30 504 C 52.6835 0.583595 -2.20405 0
M  V30 505 C 53.6675 1.09539 -1.17856 0
M  V30 506 O 54.8595 1.0354 -1.43557 0
M  V30 507 C 51.9885 1.75277 -2.95183 0
M  V30 508 C 51.0745 1.25672 -4.05052 0
M  V30 509 N 51.4655 0.478998 -5.03527 0
M  V30 510 C 49.7635 1.53704 -4.18678 0
M  V30 511 C 50.4645 0.214269 -5.81305 0
M  V30 512 N 49.4405 0.795374 -5.3775 0
M  V30 513 H 53.2425 -0.0180946 -2.93894 0
M  V30 514 H 50.7565 -0.110601 -1.62023 0
M  V30 515 H 52.7535 2.4014 -3.40791 0
M  V30 516 H 51.4135 2.35812 -2.23211 0
M  V30 517 H 52.4245 0.123473 -5.17753 0
M  V30 518 H 49.1015 2.14954 -3.57912 0
M  V30 519 H 50.4915 -0.410656 -6.70644 0
M  V30 520 N 53.2116 1.57565 -0.0334293 0
M  V30 521 C 54.4586 1.91978 0.644272 0
M  V30 522 C 54.7866 0.910231 1.71887 0
M  V30 523 O 54.0416 -0.0801961 1.95536 0
M  V30 524 C 54.3406 3.33112 1.29504 0
M  V30 525 C 54.0066 4.49537 0.350388 0
M  V30 526 C 52.6686 4.81115 0.0903974 0
M  V30 527 C 55.0206 5.20347 -0.298032 0
M  V30 528 C 52.3486 5.8086 -0.825746 0
M  V30 529 C 54.7006 6.2107 -1.20226 0
M  V30 530 C 53.3646 6.51088 -1.4711 0
M  V30 531 H 52.6346 0.702496 0.235756 0
M  V30 532 H 55.2816 1.91259 -0.0961176 0
M  V30 533 H 53.5866 3.30113 2.11028 0
M  V30 534 H 55.2836 3.57011 1.82603 0
M  V30 535 H 51.8736 4.24883 0.563205 0
M  V30 536 H 56.0576 4.96178 -0.110234 0
M  V30 537 H 51.3136 6.02461 -1.04169 0
M  V30 538 H 55.4876 6.75057 -1.71086 0
M  V30 539 H 53.1146 7.28193 -2.18264 0
M  V30 540 N 54.6897 -0.239769 1.55765 0
M  V30 541 C 55.9377 -0.964892 1.77579 0
M  V30 542 C 56.2587 -1.85582 0.598699 0
M  V30 543 O 55.5287 -1.92075 -0.385226 0
M  V30 544 H 54.1087 -0.359265 0.654933 0
M  V30 545 H 56.7707 -0.256001 1.93211 0
M  V30 546 H 55.8667 -1.58243 2.69009 0
M  V30 547 N 56.1678 -1.49265 -0.50573 0
M  V30 548 C 57.3928 -1.62478 -1.28902 0
M  V30 549 C 57.8178 -0.294332 -1.85783 0
M  V30 550 O 57.1758 0.737412 -1.65626 0
M  V30 551 C 57.2238 -2.69268 -2.39848 0
M  V30 552 O 56.3278 -2.28113 -3.43567 0
M  V30 553 H 55.6688 -0.54399 -0.380751 0
M  V30 554 H 58.1988 -1.95421 -0.605952 0
M  V30 555 H 58.2088 -2.91291 -2.85681 0
M  V30 556 H 56.8838 -3.65846 -1.97812 0
M  V30 557 H 55.4608 -2.16401 -3.03685 0
M  V30 558 N 57.6459 0.756429 -1.3826 0
M  V30 559 C 58.8759 1.54341 -1.3734 0
M  V30 560 C 59.2839 1.89159 0.0393917 0
M  V30 561 O 58.6269 1.5307 1.01565 0
M  V30 562 C 58.6889 2.87238 -2.16182 0
M  V30 563 C 58.3529 2.74973 -3.65019 0
M  V30 564 C 59.3499 2.44962 -4.58574 0
M  V30 565 C 57.0349 2.92515 -4.08338 0
M  V30 566 C 59.0289 2.32642 -5.93428 0
M  V30 567 C 56.7159 2.79815 -5.43274 0
M  V30 568 C 57.7139 2.49921 -6.35632 0
M  V30 569 O 57.4019 2.37275 -7.68086 0
M  V30 570 H 57.1339 0.484281 -0.471643 0
M  V30 571 H 59.6879 0.944152 -1.82414 0
M  V30 572 H 57.9179 3.49342 -1.65822 0
M  V30 573 H 59.6069 3.48731 -2.07705 0
M  V30 574 H 60.3729 2.31081 -4.26412 0
M  V30 575 H 56.2519 3.14781 -3.368 0
M  V30 576 H 59.7959 2.0923 -6.65484 0
M  V30 577 H 55.6929 2.93269 -5.75034 0
M  V30 578 H 56.4609 2.52509 -7.78577 0
M  V30 579 N 59.124 1.23083 0.984299 0
M  V30 580 C 60.072 1.00593 2.09723 0
M  V30 581 C 61.066 -0.0538014 1.69315 0
M  V30 582 O 62.272 0.0993719 1.79725 0
M  V30 583 H 58.647 0.30817 0.685956 0
M  V30 584 H 60.618 1.95012 2.2586 0
M  V30 585 C 59.367 0.609601 3.42314 0
M  V30 586 H 58.69 1.41675 3.73856 0
M  V30 587 H 60.13 0.491726 4.21139 0
M  V30 588 C 58.589 -0.681745 3.2993 0
M  V30 589 O 59.119 -1.73192 3.62446 0
M  V30 590 N 57.325 -0.656178 2.83095 0
M  V30 591 H 56.872 0.198759 2.56832 0
M  V30 592 H 56.83 -1.52044 2.75191 0
M  V30 593 N 60.6021 -1.18246 1.0419 0
M  V30 594 C 61.8481 -1.88536 0.747122 0
M  V30 595 C 62.1811 -1.80223 -0.723409 0
M  V30 596 O 61.4561 -1.20337 -1.52804 0
M  V30 597 C 61.7391 -3.38968 1.21544 0
M  V30 598 C 61.5921 -3.56084 2.74816 0
M  V30 599 C 62.9111 -4.32648 0.806482 0
M  V30 600 H 60.0301 -0.684619 0.272883 0
M  V30 601 H 62.6721 -1.39113 1.29413 0
M  V30 602 H 60.8221 -3.8119 0.750081 0
M  V30 603 H 62.4941 -3.22946 3.29399 0
M  V30 604 H 60.7371 -2.98699 3.14582 0
M  V30 605 H 61.4081 -4.61639 3.02644 0
M  V30 606 H 63.8841 -3.98211 1.20695 0
M  V30 607 H 62.7601 -5.36462 1.1619 0
M  V30 608 H 63.0211 -4.41146 -0.29029 0
M  V30 609 N 62.0802 -0.821533 -1.34494 0
M  V30 610 C 63.3052 -0.420873 -2.03085 0
M  V30 611 C 63.7302 0.964915 -1.61465 0
M  V30 612 O 63.0882 1.62763 -0.798607 0
M  V30 613 C 63.1362 -0.529414 -3.56693 0
M  V30 614 O 62.2402 0.451302 -4.09923 0
M  V30 615 H 61.5812 -0.173489 -0.640935 0
M  V30 616 H 64.1112 -1.11157 -1.71771 0
M  V30 617 H 64.1212 -0.404671 -4.05988 0
M  V30 618 H 62.7962 -1.54014 -3.86332 0
M  V30 619 H 61.3732 0.285558 -3.71805 0
M  V30 620 N 63.5583 1.46682 -0.576371 0
M  V30 621 C 64.9743 1.57822 -0.237562 0
M  V30 622 C 65.1743 1.57237 1.26011 0
M  V30 623 O 64.2303 1.48596 2.04146 0
M  V30 624 C 65.5433 2.87499 -0.881168 0
M  V30 625 C 67.0913 3.01119 -0.85417 0
M  V30 626 C 67.5663 4.33524 -1.4772 0
M  V30 627 N 69.0573 4.40207 -1.44125 0
M  V30 628 C 69.7923 5.4126 -1.89276 0
M  V30 629 N 69.2883 6.49021 -2.42371 0
M  V30 630 N 71.0813 5.32422 -1.80231 0
M  V30 631 H 63.2323 1.45306 -1.54919 0
M  V30 632 H 65.4953 0.692733 -0.647167 0
M  V30 633 H 65.2013 2.9372 -1.93447 0
M  V30 634 H 65.0753 3.75224 -0.385592 0
M  V30 635 H 67.4623 2.94485 0.190491 0
M  V30 636 H 67.5433 2.14887 -1.3877 0
M  V30 637 H 67.1873 4.40916 -2.52103 0
M  V30 638 H 67.1173 5.1852 -0.918947 0
M  V30 639 H 69.6083 3.62931 -1.05307 0
M  V30 640 H 69.9213 7.2233 -2.74698 0
M  V30 641 H 68.2663 6.49858 -2.46393 0
M  V30 642 H 71.4573 4.47137 -1.38514 0
M  V30 643 H 71.6303 6.11034 -2.15735 0
M  V30 644 N 65.0364 0.313813 1.54444 0
M  V30 645 C 65.9994 -0.54379 2.22656 0
M  V30 646 C 66.9994 -1.05124 1.21678 0
M  V30 647 O 68.1894 -0.945225 1.46325 0
M  V30 648 C 65.3214 -1.75427 2.92298 0
M  V30 649 H 66.5144 0.0523599 2.99854 0
M  V30 650 H 64.0674 0.0647834 1.56166 0
M  V30 651 H 64.8024 -2.38991 2.19211 0
M  V30 652 H 64.5874 -1.39791 3.66334 0
M  V30 653 H 66.0774 -2.36325 3.44297 0
M  V30 654 N 66.5145 -1.57545 0.0417849 0
M  V30 655 C 67.4775 -2.09885 -0.92093 0
M  V30 656 C 68.4775 -1.01648 -1.24596 0
M  V30 657 O 69.6675 -1.27759 -1.1842 0
M  V30 658 C 66.7995 -2.57527 -2.23367 0
M  V30 659 H 67.9925 -2.96236 -0.467382 0
M  V30 660 H 65.5455 -1.5493 -0.206467 0
M  V30 661 H 66.2805 -1.74542 -2.73323 0
M  V30 662 H 66.0655 -3.36613 -2.01083 0
M  V30 663 H 67.5555 -2.98201 -2.92346 0
M  V30 664 N 67.9926 0.231505 -1.5589 0
M  V30 665 C 69.2406 0.955461 -1.78088 0
M  V30 666 C 69.5616 1.85262 -0.608533 0
M  V30 667 O 68.8316 1.92277 0.375035 0
M  V30 668 H 67.4116 0.355787 -0.656829 0
M  V30 669 H 70.0736 0.245751 -1.93344 0
M  V30 670 H 69.1696 1.56814 -2.69844 0
M  V30 671 N 69.4707 1.49531 0.497807 0
M  V30 672 C 70.4187 1.66926 1.61983 0
M  V30 673 C 71.4127 0.535167 1.60724 0
M  V30 674 O 72.6187 0.714896 1.65195 0
M  V30 675 H 68.9937 0.526415 0.537021 0
M  V30 676 H 70.9647 2.61098 1.44465 0
M  V30 677 C 69.7137 1.75602 3.00099 0
M  V30 678 H 69.0367 2.62244 3.01775 0
M  V30 679 H 70.4767 1.91807 3.78135 0
M  V30 680 C 68.9357 0.501543 3.33146 0
M  V30 681 O 69.4657 -0.371342 3.9998 0
M  V30 682 N 67.6717 0.363531 2.88317 0
M  V30 683 H 67.2187 1.07485 2.34104 0
M  V30 684 H 67.1767 -0.474728 3.10795 0
M  V30 685 N 70.9488 -0.749086 1.3866 0
M  V30 686 C 72.1958 -1.50833 1.35114 0
M  V30 687 C 72.5238 -1.94415 -0.0574049 0
M  V30 688 O 71.7788 -1.66065 -1.03541 0
M  V30 689 C 72.0778 -2.7712 2.25697 0
M  V30 690 C 71.7438 -2.52477 3.73585 0
M  V30 691 C 70.4058 -2.45466 4.13884 0
M  V30 692 C 72.7578 -2.31066 4.67181 0
M  V30 693 C 70.0858 -2.15064 5.45861 0
M  V30 694 C 72.4378 -2.02183 5.9942 0
M  V30 695 C 71.1018 -1.93631 6.38798 0
M  V30 696 H 70.3718 -0.551936 0.494416 0
M  V30 697 H 73.0188 -0.860979 1.71054 0
M  V30 698 H 71.3238 -3.46528 1.82827 0
M  V30 699 H 73.0208 -3.35096 2.20254 0
M  V30 700 H 69.6108 -2.58807 3.41638 0
M  V30 701 H 73.7948 -2.35459 4.3689 0
M  V30 702 H 69.0508 -2.06954 5.75308 0
M  V30 703 H 73.2248 -1.8462 6.71482 0
M  V30 704 H 70.8518 -1.69839 7.40985 0
M  V30 705 N 72.4269 -1.23603 -0.977757 0
M  V30 706 C 73.6519 -1.09735 -1.75991 0
M  V30 707 C 74.0769 0.346858 -1.84874 0
M  V30 708 O 73.4349 1.25093 -1.3123 0
M  V30 709 C 73.4829 -1.73051 -3.16363 0
M  V30 710 O 72.5869 -0.994452 -4.0023 0
M  V30 711 H 71.9279 -0.384476 -0.541364 0
M  V30 712 H 74.4579 -1.6371 -1.2272 0
M  V30 713 H 74.4679 -1.78398 -3.66931 0
M  V30 714 H 73.1429 -2.78137 -3.09213 0
M  V30 715 H 71.7199 -1.01812 -3.58732 0
M  V30 716 N 73.905 1.17692 -1.04816 0
M  V30 717 C 75.13 1.92327 -0.776207 0
M  V30 718 C 75.555 1.76082 0.661581 0
M  V30 719 O 74.913 1.076 1.45917 0
M  V30 720 C 74.961 3.41539 -1.15687 0
M  V30 721 O 74.065 4.11402 -0.286775 0
M  V30 722 H 73.406 0.599735 -0.284981 0
M  V30 723 H 75.936 1.49201 -1.4 0
M  V30 724 H 75.946 3.92269 -1.12202 0
M  V30 725 H 74.621 3.52684 -2.20425 0
M  V30 726 H 73.198 3.70939 -0.381903 0
M  V30 727 N 75.3831 0.828654 1.34056 0
M  V30 728 C 76.7941 0.477534 1.8049 0
M  V30 729 C 77.1451 -1.00258 1.6865 0
M  V30 730 O 76.2701 -1.78057 1.22982 0
M  V30 731 C 76.8651 0.860018 3.27703 0
M  V30 732 C 75.4241 0.561185 3.72193 0
M  V30 733 C 74.5711 1.07385 2.55663 0
M  V30 734 H 77.5221 1.0183 1.21722 0
M  V30 735 H 77.5431 0.166038 3.80138 0
M  V30 736 H 77.0551 1.93731 3.36288 0
M  V30 737 H 75.1561 -0.506465 3.69142 0
M  V30 738 H 75.2691 1.10926 4.66082 0
M  V30 739 H 73.6331 0.495149 2.49841 0
M  V30 740 H 74.4161 2.15771 2.67016 0
M  V30 741 N 76.8612 -1.46375 0.584142 0
M  V30 742 C 78.1382 -1.956 0.0033388 0
M  V30 743 C 78.5182 -1.52679 -1.45782 0
M  V30 744 O 77.8662 -0.77816 -2.14842 0
M  V30 745 C 78.0762 -3.48551 0.176891 0
M  V30 746 C 79.4242 -4.24576 0.0454609 0
M  V30 747 O 80.4482 -3.56043 0.105801 0
M  V30 748 O 79.3072 -5.46427 -0.0890376 0
M  V30 749 H 76.4012 -0.825547 -0.0490066 0
M  V30 750 H 78.9472 -1.56652 0.65256 0
M  V30 751 H 77.7192 -3.72683 1.1926 0
M  V30 752 H 77.3422 -3.94332 -0.508695 0
M  V30 753 N 78.3393 -0.321999 -1.54275 0
M  V30 754 C 79.5873 0.280489 -2.00144 0
M  V30 755 C 79.9083 1.52777 -1.21178 0
M  V30 756 O 79.1783 1.9338 -0.313187 0
M  V30 757 H 77.7583 0.106632 -0.73935 0
M  V30 758 H 80.4203 -0.438184 -1.8991 0
M  V30 759 H 79.5163 0.537972 -3.07428 0
M  V30 760 N 79.8174 1.5752 -0.0501392 0
M  V30 761 C 81.0454 1.96963 0.633492 0
M  V30 762 C 81.4604 0.927631 1.6444 0
M  V30 763 O 80.8174 -0.0882665 1.82286 0
M  V30 764 C 80.8684 3.36487 1.32132 0
M  V30 765 O 80.5894 4.36693 0.350894 0
M  V30 766 C 82.0904 3.90682 2.09481 0
M  V30 767 H 79.3104 0.648244 0.173266 0
M  V30 768 H 81.8544 2.0417 -0.116134 0
M  V30 769 H 80.0094 3.30434 2.02218 0
M  V30 770 H 80.4234 5.17702 0.841735 0
M  V30 771 H 81.8974 4.90591 2.5303 0
M  V30 772 H 82.3744 3.26053 2.94255 0
M  V30 773 H 82.9804 4.00069 1.44307 0
M  V30 774 N 81.2955 -0.223234 1.56011 0
M  V30 775 C 82.5235 -0.964812 1.83027 0
M  V30 776 C 82.9385 -1.78013 0.62904 0
M  V30 777 O 82.2955 -1.78008 -0.402414 0
M  V30 778 C 82.3465 -1.88373 3.08542 0
M  V30 779 O 82.0675 -1.10137 4.2403 0
M  V30 780 C 83.5685 -2.73934 3.48533 0
M  V30 781 H 80.7885 -0.282842 0.608475 0
M  V30 782 H 83.3325 -0.238971 2.03099 0
M  V30 783 H 81.4875 -2.56354 2.9045 0
M  V30 784 H 81.9015 -1.72501 4.95322 0
M  V30 785 H 83.3755 -3.34117 4.39397 0
M  V30 786 H 83.8525 -3.46244 2.70207 0
M  V30 787 H 84.4585 -2.11369 3.69057 0
M  V30 788 N 82.7736 -1.49793 -0.48987 0
M  V30 789 C 84.0506 -1.50348 -1.25119 0
M  V30 790 C 84.4306 -0.237466 -2.0976 0
M  V30 791 O 83.7786 0.77981 -2.14782 0
M  V30 792 C 83.9886 -2.78872 -2.09837 0
M  V30 793 C 85.3366 -3.288 -2.68655 0
M  V30 794 O 86.3606 -2.80065 -2.20096 0
M  V30 795 O 85.2196 -4.13707 -3.57083 0
M  V30 796 H 82.3136 -0.602242 -0.566775 0
M  V30 797 H 84.8596 -1.62067 -0.503229 0
M  V30 798 H 83.6316 -3.62499 -1.47343 0
M  V30 799 H 83.2546 -2.70066 -2.91805 0
M  V30 800 N 84.2517 0.741722 -1.39055 0
M  V30 801 C 85.5287 1.49252 -1.26425 0
M  V30 802 C 85.9087 2.10705 0.129144 0
M  V30 803 O 85.2567 1.98045 1.13976 0
M  V30 804 C 85.4667 2.54934 -2.38347 0
M  V30 805 C 86.8147 3.21506 -2.77343 0
M  V30 806 O 87.8387 2.65245 -2.37747 0
M  V30 807 O 86.6977 4.23294 -3.45665 0
M  V30 808 H 83.7917 0.662451 -0.495064 0
M  V30 809 H 86.3377 0.776121 -1.50912 0
M  V30 810 H 85.1097 2.07857 -3.31529 0
M  V30 811 H 84.7327 3.34141 -2.15489 0
M  V30 812 N 85.7298 1.2412 0.971189 0
M  V30 813 C 87.1408 1.07236 1.52831 0
M  V30 814 C 87.4918 -0.357352 1.92918 0
M  V30 815 O 86.6168 -1.24528 1.76979 0
M  V30 816 C 87.2118 1.94043 2.77728 0
M  V30 817 C 85.7708 1.81394 3.29808 0
M  V30 818 C 84.9178 1.89189 2.02738 0
M  V30 819 H 87.8688 1.37648 0.789864 0
M  V30 820 H 87.8898 1.47066 3.5093 0
M  V30 821 H 87.4018 2.98093 2.4852 0
M  V30 822 H 85.5028 0.801634 3.63874 0
M  V30 823 H 85.6158 2.65294 3.98944 0
M  V30 824 H 83.9798 1.32877 2.17292 0
M  V30 825 H 84.7628 2.94812 1.759 0
M  V30 826 N 87.2079 -1.17134 1.05439 0
M  V30 827 C 88.1379 -2.2342 0.678649 0
M  V30 828 C 89.1189 -1.66971 -0.32476 0
M  V30 829 O 90.3039 -1.93149 -0.201802 0
M  V30 830 C 87.4339 -3.47256 0.0552099 0
M  V30 831 C 86.3879 -4.16543 0.98365 0
M  V30 832 C 85.7139 -5.34231 0.223961 0
M  V30 833 C 87.0139 -4.68495 2.3089 0
M  V30 834 H 88.7079 -2.55105 1.56722 0
M  V30 835 H 86.2539 -1.2262 0.754998 0
M  V30 836 H 88.2069 -4.20828 -0.21946 0
M  V30 837 H 86.9309 -3.14846 -0.868319 0
M  V30 838 H 85.5899 -3.44887 1.24293 0
M  V30 839 H 85.2379 -4.98071 -0.702412 0
M  V30 840 H 84.9379 -5.81527 0.842627 0
M  V30 841 H 86.4619 -6.10585 -0.0433671 0
M  V30 842 H 87.8759 -5.33691 2.09396 0
M  V30 843 H 86.2729 -5.26379 2.88176 0
M  V30 844 H 87.3429 -3.85169 2.94572 0
M  V30 845 N 88.686 -0.835752 -1.33615 0
M  V30 846 C 89.934 -0.429109 -1.97492 0
M  V30 847 C 90.255 1.01433 -1.66543 0
M  V30 848 O 89.525 1.70611 -0.962744 0
M  V30 849 H 88.105 -0.155686 -0.730596 0
M  V30 850 H 90.767 -1.06802 -1.63031 0
M  V30 851 H 89.863 -0.55861 -3.0706 0
M  V30 852 N 90.1641 1.46063 -0.591896 0
M  V30 853 C 91.4121 2.01938 -0.0808391 0
M  V30 854 C 91.7331 1.46475 1.28725 0
M  V30 855 O 91.0031 0.652944 1.84698 0
M  V30 856 H 89.5831 0.746516 -0.0268938 0
M  V30 857 H 92.2451 1.79055 -0.769752 0
M  V30 858 H 91.3411 3.12094 -0.0187578 0
M  V30 859 N 91.6422 0.330177 1.54103 0
M  V30 860 C 92.5922 -0.548456 2.21305 0
M  V30 861 C 93.5762 -1.07651 1.19583 0
M  V30 862 O 94.7682 -1.01243 1.45186 0
M  V30 863 C 91.8972 -1.70559 2.97934 0
M  V30 864 C 90.9832 -1.19212 4.07 0
M  V30 865 N 91.3742 -0.398831 5.04225 0
M  V30 866 C 89.6722 -1.47024 4.2107 0
M  V30 867 C 90.3732 -0.121761 5.81573 0
M  V30 868 N 89.3492 -0.709722 5.38947 0
M  V30 869 H 93.1512 0.0648483 2.93828 0
M  V30 870 H 90.6652 0.136363 1.61826 0
M  V30 871 H 92.6622 -2.34688 3.44568 0
M  V30 872 H 91.3222 -2.32231 2.26934 0
M  V30 873 H 92.3332 -0.0410869 5.17884 0
M  V30 874 H 89.0102 -2.09232 3.61287 0
M  V30 875 H 90.4002 0.517298 6.69906 0
M  V30 876 N 93.1203 -1.57491 0.0584922 0
M  V30 877 C 94.3483 -1.97296 -0.623037 0
M  V30 878 C 94.7633 -0.936338 -1.63946 0
M  V30 879 O 94.1203 0.0785981 -1.82331 0
M  V30 880 C 94.1713 -3.37183 -1.30345 0
M  V30 881 O 93.8923 -4.36872 -0.32773 0
M  V30 882 C 95.3933 -3.91788 -2.07406 0
M  V30 883 H 92.6133 -0.649153 -0.169826 0
M  V30 884 H 95.1573 -2.04106 0.12696 0
M  V30 885 H 93.3123 -3.31502 -2.00463 0
M  V30 886 H 93.7263 -5.18141 -0.814269 0
M  V30 887 H 95.2003 -4.91926 -2.50425 0
M  V30 888 H 95.6773 -3.27609 -2.92521 0
M  V30 889 H 96.2833 -4.00829 -1.42184 0
M  V30 890 N 94.5984 0.214957 -1.56127 0
M  V30 891 C 95.8444 0.939762 -1.79712 0
M  V30 892 C 96.1774 1.83723 -0.629247 0
M  V30 893 O 95.4524 1.90925 0.371197 0
M  V30 894 C 95.7354 1.77306 -3.13424 0
M  V30 895 C 95.5884 0.90164 -4.40671 0
M  V30 896 C 96.9074 2.74956 -3.43638 0
M  V30 897 H 94.0264 0.340214 -0.653776 0
M  V30 898 H 96.6684 0.20824 -1.88855 0
M  V30 899 H 94.8184 2.39673 -3.0576 0
M  V30 900 H 96.4904 0.294206 -4.60361 0
M  V30 901 H 94.7334 0.207368 -4.33304 0
M  V30 902 H 95.4044 1.51923 -5.30682 0
M  V30 903 H 97.8804 2.22724 -3.51473 0
M  V30 904 H 96.7564 3.30358 -4.38355 0
M  V30 905 H 97.0174 3.53023 -2.66134 0
M  V30 906 N 96.0765 1.50051 0.48192 0
M  V30 907 C 97.3225 1.61706 1.2338 0
M  V30 908 C 97.6775 0.308488 1.89911 0
M  V30 909 O 96.9705 -0.692798 1.78636 0
M  V30 910 C 97.1645 2.72717 2.30998 0
M  V30 911 C 96.9935 4.14242 1.75024 0
M  V30 912 C 95.7635 4.80786 1.55476 0
M  V30 913 C 97.9615 4.98846 1.25128 0
M  V30 914 N 95.9435 6.06563 0.946311 0
M  V30 915 C 97.3145 6.15258 0.765382 0
M  V30 916 C 99.3695 4.84702 1.13881 0
M  V30 917 C 98.0725 7.19079 0.178113 0
M  V30 918 C 100.098 5.8869 0.565486 0
M  V30 919 C 99.4605 7.04343 0.0899105 0
M  V30 920 H 95.5595 0.645958 0.440753 0
M  V30 921 H 98.1435 1.8713 0.537624 0
M  V30 922 H 96.3145 2.49033 2.98055 0
M  V30 923 H 98.0465 2.73789 2.9803 0
M  V30 924 H 94.8015 4.37899 1.80392 0
M  V30 925 H 95.2255 6.73767 0.660812 0
M  V30 926 H 99.8675 3.95583 1.49244 0
M  V30 927 H 97.5855 8.07882 -0.187749 0
M  V30 928 H 101.171 5.79808 0.480974 0
M  V30 929 H 100.051 7.83433 -0.346782 0
M  V30 930 N 97.5546 -0.734337 1.39446 0
M  V30 931 C 98.4866 -1.85861 1.34121 0
M  V30 932 C 99.4996 -1.60871 0.249864 0
M  V30 933 O 100.689 -1.71093 0.508865 0
M  V30 934 C 97.7886 -3.21899 1.05991 0
M  V30 935 C 96.9616 -3.74239 2.26415 0
M  V30 936 C 96.0206 -4.88841 1.94733 0
M  V30 937 O 95.0466 -5.02468 2.67422 0
M  V30 938 N 96.2486 -5.73261 0.913884 0
M  V30 939 H 99.0136 -1.90934 2.31007 0
M  V30 940 H 96.5746 -0.915102 1.33557 0
M  V30 941 H 98.5666 -3.96136 0.828147 0
M  V30 942 H 97.1366 -3.12091 0.178361 0
M  V30 943 H 96.3566 -2.91347 2.65539 0
M  V30 944 H 97.6446 -4.05942 3.06738 0
M  V30 945 H 97.0426 -5.64842 0.311476 0
M  V30 946 H 95.5996 -6.47563 0.742015 0
M  V30 947 N 99.0327 -1.24633 -0.964593 0
M  V30 948 C 100.279 -1.08949 -1.71049 0
M  V30 949 C 100.612 0.370302 -1.90637 0
M  V30 950 O 99.8867 1.27349 -1.47011 0
M  V30 951 C 100.17 -1.83329 -3.0994 0
M  V30 952 C 100.023 -3.37077 -2.97824 0
M  V30 953 C 101.342 -1.60846 -4.09654 0
M  V30 954 H 98.4607 -0.397178 -0.620821 0
M  V30 955 H 101.103 -1.5334 -1.12191 0
M  V30 956 H 99.2527 -1.45597 -3.60186 0
M  V30 957 H 100.925 -3.84425 -2.5498 0
M  V30 958 H 99.1677 -3.65298 -2.33965 0
M  V30 959 H 99.8387 -3.84324 -3.96231 0
M  V30 960 H 102.315 -1.93674 -3.68279 0
M  V30 961 H 101.191 -2.1534 -5.04896 0
M  V30 962 H 101.452 -0.547434 -4.38698 0
M  V30 963 N 100.511 1.16574 -1.06058 0
M  V30 964 C 101.757 1.87324 -0.777022 0
M  V30 965 C 102.09 1.81351 0.694645 0
M  V30 966 O 101.365 1.22753 1.50871 0
M  V30 967 C 101.648 3.36991 -1.26922 0
M  V30 968 C 101.501 3.51667 -2.80447 0
M  V30 969 C 102.82 4.3131 -0.87521 0
M  V30 970 H 99.9388 0.680191 -0.28374 0
M  V30 971 H 102.581 1.37036 -1.3161 0
M  V30 972 H 100.731 3.79949 -0.81063 0
M  V30 973 H 102.403 3.17664 -3.34495 0
M  V30 974 H 100.646 2.93656 -3.19294 0
M  V30 975 H 101.317 4.56766 -3.0995 0
M  V30 976 H 103.793 3.9624 -1.27014 0
M  V30 977 H 102.669 5.34545 -1.2471 0
M  V30 978 H 102.93 4.41552 0.220071 0
M  V30 979 N 101.989 0.842826 1.3317 0
M  V30 980 C 103.236 0.440447 1.97652 0
M  V30 981 C 103.564 -1.00123 1.6675 0
M  V30 982 O 102.819 -1.7155 0.941761 0
M  V30 983 C 103.118 0.612607 3.52111 0
M  V30 984 C 102.784 2.02297 4.02972 0
M  V30 985 C 101.446 2.40874 4.16573 0
M  V30 986 C 103.798 2.94402 4.30089 0
M  V30 987 C 101.126 3.70852 4.54627 0
M  V30 988 C 103.478 4.23865 4.69597 0
M  V30 989 C 102.142 4.62392 4.81404 0
M  V30 990 H 101.412 0.161171 0.72326 0
M  V30 991 H 104.059 1.07061 1.58777 0
M  V30 992 H 102.364 -0.100849 3.9167 0
M  V30 993 H 104.061 0.2815 4.00011 0
M  V30 994 H 100.651 1.71338 3.92863 0
M  V30 995 H 104.835 2.65835 4.19101 0
M  V30 996 H 100.091 4.00501 4.61962 0
M  V30 997 H 104.265 4.95306 4.89536 0
M  V30 998 H 101.892 5.63154 5.10648 0
M  V30 999 N 103.467 -1.45747 0.599634 0
M  V30 1000 C 104.716 -2.01502 0.0893511 0
M  V30 1001 C 105.029 -1.4748 -1.28488 0
M  V30 1002 O 106.235 -1.95161 -1.88745 0
M  V30 1003 C 104.691 -3.59735 0.109082 0
M  V30 1004 C 104.299 -4.22754 1.48267 0
M  V30 1005 C 106.043 -4.23085 -0.346374 0
M  V30 1006 C 103.95 -5.73115 1.45921 0
M  V30 1007 H 102.88 -0.753417 0.0296347 0
M  V30 1008 H 105.531 -1.67303 0.753788 0
M  V30 1009 H 103.913 -3.91087 -0.621854 0
M  V30 1010 H 105.087 -4.02987 2.23468 0
M  V30 1011 H 103.402 -3.71567 1.87955 0
M  V30 1012 H 105.999 -5.33327 -0.38298 0
M  V30 1013 H 106.342 -3.93201 -1.36743 0
M  V30 1014 H 106.875 -3.9642 0.331038 0
M  V30 1015 H 103.614 -6.07685 2.45762 0
M  V30 1016 H 103.134 -5.95097 0.749665 0
M  V30 1017 H 104.813 -6.3616 1.17941 0
M  V30 1018 N 104.945 -0.338344 -1.53925 0
M  V30 1019 C 105.908 0.508299 -2.23493 0
M  V30 1020 C 106.908 1.03175 -1.23335 0
M  V30 1021 O 108.098 0.921826 -1.47811 0
M  V30 1022 C 105.23 1.70754 -2.95052 0
M  V30 1023 H 106.423 -0.100058 -2.99733 0
M  V30 1024 H 103.976 -0.0896198 -1.56043 0
M  V30 1025 H 104.711 2.35474 -2.22986 0
M  V30 1026 H 104.496 1.33946 -3.68512 0
M  V30 1027 H 105.986 2.30818 -3.48013 0
M  V30 1028 N 106.423 1.57458 -0.0668435 0
M  V30 1029 C 107.67 1.93301 0.603406 0
M  V30 1030 C 107.998 0.946486 1.69917 0
M  V30 1031 O 107.253 -0.0387021 1.95662 0
M  V30 1032 C 107.552 3.35784 1.22409 0
M  V30 1033 C 107.218 4.50179 0.254955 0
M  V30 1034 C 105.88 4.81199 -0.0116746 0
M  V30 1035 C 108.232 5.19598 -0.408338 0
M  V30 1036 C 105.56 5.78978 -0.94877 0
M  V30 1037 C 107.912 6.18381 -1.33372 0
M  V30 1038 C 106.576 6.47821 -1.60887 0
M  V30 1039 H 105.846 0.707338 0.220802 0
M  V30 1040 H 108.493 1.91012 -0.136665 0
M  V30 1041 H 106.798 3.34515 2.03978 0
M  V30 1042 H 108.495 3.60804 1.74989 0
M  V30 1043 H 105.085 4.25983 0.472954 0
M  V30 1044 H 109.269 4.95832 -0.215456 0
M  V30 1045 H 104.525 6.00115 -1.16925 0
M  V30 1046 H 108.699 6.71277 -1.85367 0
M  V30 1047 H 106.326 7.23399 -2.33661 0
M  V30 1048 N 107.901 -0.206675 1.56239 0
M  V30 1049 C 108.831 -1.25909 1.96645 0
M  V30 1050 C 109.812 -1.48097 0.836734 0
M  V30 1051 O 110.997 -1.6003 1.10019 0
M  V30 1052 C 108.127 -2.6058 2.29599 0
M  V30 1053 C 107.081 -2.53024 3.452 0
M  V30 1054 C 106.407 -3.91861 3.63798 0
M  V30 1055 C 107.707 -2.06524 4.79734 0
M  V30 1056 H 109.401 -0.923369 2.84806 0
M  V30 1057 H 106.947 -0.442735 1.37025 0
M  V30 1058 H 108.9 -3.34375 2.56459 0
M  V30 1059 H 107.624 -2.95869 1.38307 0
M  V30 1060 H 106.283 -1.81684 3.18412 0
M  V30 1061 H 105.931 -4.24483 2.69857 0
M  V30 1062 H 105.631 -3.87683 4.4156 0
M  V30 1063 H 107.155 -4.67296 3.93022 0
M  V30 1064 H 108.569 -2.70072 5.05702 0
M  V30 1065 H 106.966 -2.13374 5.60885 0
M  V30 1066 H 108.036 -1.01802 4.74093 0
M  V30 1067 N 109.379 -1.50304 -0.473955 0
M  V30 1068 C 110.607 -1.64902 -1.24959 0
M  V30 1069 C 111.022 -0.331198 -1.85872 0
M  V30 1070 O 110.379 0.68652 -1.69095 0
M  V30 1071 C 110.43 -2.73803 -2.36038 0
M  V30 1072 O 110.151 -4.00477 -1.77624 0
M  V30 1073 C 111.652 -2.99349 -3.26964 0
M  V30 1074 H 108.872 -0.554383 -0.378022 0
M  V30 1075 H 111.416 -1.9651 -0.566054 0
M  V30 1076 H 109.571 -2.44898 -3.00173 0
M  V30 1077 H 109.985 -4.60678 -2.5075 0
M  V30 1078 H 111.459 -3.79217 -4.01121 0
M  V30 1079 H 111.936 -2.10307 -3.85574 0
M  V30 1080 H 112.542 -3.29774 -2.68569 0
M  V30 1081 N 110.857 0.726932 -1.39834 0
M  V30 1082 C 112.105 1.4837 -1.37225 0
M  V30 1083 C 112.426 1.94979 0.0284857 0
M  V30 1084 O 111.696 1.69555 0.981213 0
M  V30 1085 H 110.276 0.55043 -0.505011 0
M  V30 1086 H 112.938 0.862468 -1.74778 0
M  V30 1087 H 112.034 2.36198 -2.04003 0
M  V30 1088 N 112.336 1.25143 0.95797 0
M  V30 1089 C 113.585 1.0909 1.69654 0
M  V30 1090 C 113.898 -0.368548 1.92097 0
M  V30 1091 O 115.104 -0.649455 2.63618 0
M  V30 1092 C 113.56 1.90395 3.05414 0
M  V30 1093 C 113.168 3.4081 2.90779 0
M  V30 1094 C 114.912 1.82901 3.83076 0
M  V30 1095 C 112.819 4.14423 4.21909 0
M  V30 1096 H 111.749 0.404625 0.636235 0
M  V30 1097 H 114.4 1.4931 1.06672 0
M  V30 1098 H 112.782 1.42996 3.69281 0
M  V30 1099 H 113.956 3.95859 2.35865 0
M  V30 1100 H 112.271 3.49361 2.26575 0
M  V30 1101 H 114.868 2.35196 4.80195 0
M  V30 1102 H 115.211 0.796224 4.08615 0
M  V30 1103 H 115.744 2.28033 3.25954 0
M  V30 1104 H 112.483 5.18102 4.01561 0
M  V30 1105 H 112.003 3.64159 4.76601 0
M  V30 1106 H 113.682 4.21956 4.90471 0
M  V30 1107 N 113.814 -1.1601 1.06675 0
M  V30 1108 C 114.744 -2.22688 0.702307 0
M  V30 1109 C 115.725 -1.67306 -0.307032 0
M  V30 1110 O 116.91 -1.93352 -0.181305 0
M  V30 1111 C 114.04 -3.47178 0.092038 0
M  V30 1112 C 112.994 -4.15477 1.02777 0
M  V30 1113 C 112.32 -5.33963 0.28061 0
M  V30 1114 C 113.62 -4.66019 2.35846 0
M  V30 1115 H 115.314 -2.53429 1.59419 0
M  V30 1116 H 112.86 -1.21813 0.767961 0
M  V30 1117 H 114.813 -4.21037 -0.174814 0
M  V30 1118 H 113.537 -3.15749 -0.834877 0
M  V30 1119 H 112.196 -3.43549 1.27944 0
M  V30 1120 H 111.844 -4.98788 -0.649545 0
M  V30 1121 H 111.544 -5.806 0.904258 0
M  V30 1122 H 113.068 -6.10596 0.021396 0
M  V30 1123 H 114.482 -5.3144 2.15045 0
M  V30 1124 H 112.879 -5.23293 2.93743 0
M  V30 1125 H 113.949 -3.82023 2.98641 0
M  V30 1126 N 115.292 -0.849877 -1.32721 0
M  V30 1127 C 116.255 -0.296122 -2.27279 0
M  V30 1128 C 117.255 0.541458 -1.5141 0
M  V30 1129 O 118.445 0.353658 -1.70572 0
M  V30 1130 C 115.577 0.581579 -3.35902 0
M  V30 1131 H 116.77 -1.13064 -2.77771 0
M  V30 1132 H 114.323 -0.62383 -1.43311 0
M  V30 1133 H 115.058 1.43809 -2.9067 0
M  V30 1134 H 114.843 -0.0178814 -3.92096 0
M  V30 1135 H 116.333 0.961951 -4.0637 0
M  V30 1136 N 116.77 1.45427 -0.607355 0
M  V30 1137 C 117.7 2.3329 0.0989352 0
M  V30 1138 C 118.681 1.46816 0.859007 0
M  V30 1139 O 119.866 1.75588 0.829604 0
M  V30 1140 C 116.996 3.29518 1.09705 0
M  V30 1141 C 115.95 4.25626 0.450206 0
M  V30 1142 C 115.276 5.11542 1.55655 0
M  V30 1143 C 116.576 5.18505 -0.628455 0
M  V30 1144 H 118.27 2.92595 -0.634716 0
M  V30 1145 H 115.816 1.40696 -0.306681 0
M  V30 1146 H 117.769 3.89855 1.59971 0
M  V30 1147 H 116.493 2.68372 1.86129 0
M  V30 1148 H 115.152 3.66586 -0.0315886 0
M  V30 1149 H 114.8 4.46765 2.31107 0
M  V30 1150 H 114.5 5.76647 1.12925 0
M  V30 1151 H 116.024 5.74748 2.06148 0
M  V30 1152 H 117.438 5.72916 -0.209877 0
M  V30 1153 H 115.835 5.92085 -0.977489 0
M  V30 1154 H 116.905 4.60948 -1.50514 0
M  V30 1155 N 118.248 0.346503 1.53744 0
M  V30 1156 C 119.494 -0.249473 2.0126 0
M  V30 1157 C 119.827 -1.49965 1.23386 0
M  V30 1158 O 119.102 -1.91811 0.32229 0
M  V30 1159 C 119.385 -0.560643 3.55709 0
M  V30 1160 C 119.238 0.701836 4.44291 0
M  V30 1161 C 120.557 -1.36905 4.18264 0
M  V30 1162 H 117.676 -0.0891987 0.731582 0
M  V30 1163 H 120.318 0.467624 1.84156 0
M  V30 1164 H 118.468 -1.17156 3.70414 0
M  V30 1165 H 120.14 1.33974 4.41417 0
M  V30 1166 H 118.383 1.32612 4.13033 0
M  V30 1167 H 119.054 0.43933 5.50249 0
M  V30 1168 H 121.53 -0.852448 4.07275 0
M  V30 1169 H 120.406 -1.55553 5.26398 0
M  V30 1170 H 120.667 -2.37203 3.73078 0
M  V30 1171 N 119.726 -1.57421 0.075193 0
M  V30 1172 C 120.954 -1.97946 -0.602076 0
M  V30 1173 C 121.369 -0.953674 -1.62943 0
M  V30 1174 O 120.726 0.0592551 -1.82404 0
M  V30 1175 C 120.777 -3.38546 -1.26762 0
M  V30 1176 O 120.498 -4.37195 -0.281376 0
M  V30 1177 C 121.999 -3.93966 -2.03239 0
M  V30 1178 H 119.219 -0.650918 -0.162931 0
M  V30 1179 H 121.763 -2.03959 0.148601 0
M  V30 1180 H 119.918 -3.33609 -1.96936 0
M  V30 1181 H 120.332 -5.18975 -0.759267 0
M  V30 1182 H 121.806 -4.94555 -2.45193 0
M  V30 1183 H 122.283 -3.30693 -2.8903 0
M  V30 1184 H 122.889 -4.02315 -1.37924 0
M  V30 1185 N 121.204 0.198386 -1.56346 0
M  V30 1186 C 122.453 0.917451 -1.79627 0
M  V30 1187 C 122.766 1.8456 -0.64784 0
M  V30 1188 O 123.972 2.60504 -0.764859 0
M  V30 1189 C 122.428 1.68175 -3.18191 0
M  V30 1190 C 122.036 0.798589 -4.40825 0
M  V30 1191 C 123.78 2.39065 -3.50782 0
M  V30 1192 C 121.687 1.56157 -5.70411 0
M  V30 1193 H 120.617 0.346317 -0.669762 0
M  V30 1194 H 123.268 0.170801 -1.82703 0
M  V30 1195 H 121.65 2.47216 -3.09354 0
M  V30 1196 H 122.824 0.0470665 -4.60776 0
M  V30 1197 H 121.139 0.200686 -4.15916 0
M  V30 1198 H 123.736 2.96692 -4.44835 0
M  V30 1199 H 124.079 3.13091 -2.74371 0
M  V30 1200 H 124.612 1.66993 -3.61052 0
M  V30 1201 H 121.351 0.864142 -6.49779 0
M  V30 1202 H 120.871 2.2871 -5.54483 0
M  V30 1203 H 122.55 2.11622 -6.11412 0
M  V30 1204 N 122.682 1.50554 0.465978 0
M  V30 1205 C 123.931 1.61038 1.21448 0
M  V30 1206 C 124.244 0.31865 1.92987 0
M  V30 1207 O 125.45 0.302469 2.6981 0
M  V30 1208 C 123.906 2.84283 2.20706 0
M  V30 1209 C 123.514 4.20352 1.54946 0
M  V30 1210 C 125.258 3.04115 2.96166 0
M  V30 1211 C 123.165 5.34778 2.5252 0
M  V30 1212 H 122.095 0.599718 0.457005 0
M  V30 1213 H 124.746 1.7699 0.484424 0
M  V30 1214 H 123.128 2.61901 2.97025 0
M  V30 1215 H 124.302 4.53008 0.843811 0
M  V30 1216 H 122.617 4.06167 0.917475 0
M  V30 1217 H 125.214 3.86774 3.69202 0
M  V30 1218 H 125.557 2.16045 3.55852 0
M  V30 1219 H 126.09 3.26702 2.26959 0
M  V30 1220 H 122.829 6.25018 1.97566 0
M  V30 1221 H 122.349 5.06534 3.21222 0
M  V30 1222 H 124.028 5.65561 3.14245 0
M  V30 1223 N 124.16 -0.719506 1.40217 0
M  V30 1224 C 125.408 -1.47641 1.3801 0
M  V30 1225 C 125.729 -1.94992 -0.018145 0
M  V30 1226 O 124.999 -1.70073 -0.972207 0
M  V30 1227 H 123.579 -0.547744 0.507923 0
M  V30 1228 H 126.241 -0.853187 1.75233 0
M  V30 1229 H 125.337 -2.35112 2.05253 0
M  V30 1230 N 125.638 -1.25649 -0.95132 0
M  V30 1231 C 126.586 -1.06118 -2.06982 0
M  V30 1232 C 127.58 0.00889169 -1.69398 0
M  V30 1233 O 128.786 -0.146988 -1.79399 0
M  V30 1234 H 125.161 -0.326248 -0.677544 0
M  V30 1235 H 127.132 -2.00932 -2.2061 0
M  V30 1236 C 125.881 -0.700145 -3.40578 0
M  V30 1237 H 125.204 -1.51537 -3.69968 0
M  V30 1238 H 126.644 -0.603211 -4.19687 0
M  V30 1239 C 125.103 0.59403 -3.31622 0
M  V30 1240 O 125.633 1.63522 -3.66911 0
M  V30 1241 N 123.839 0.58089 -2.84735 0
M  V30 1242 H 123.386 -0.266783 -2.56215 0
M  V30 1243 H 123.344 1.44695 -2.79125 0
M  V30 1244 N 127.117 1.15442 -1.07289 0
M  V30 1245 C 128.366 1.85557 -0.790669 0
M  V30 1246 C 128.679 1.83186 0.685739 0
M  V30 1247 O 129.885 2.48977 1.0827 0
M  V30 1248 C 128.341 3.33038 -1.36433 0
M  V30 1249 C 127.949 3.43856 -2.8717 0
M  V30 1250 C 129.693 4.0834 -1.1601 0
M  V30 1251 C 127.6 4.85482 -3.3773 0
M  V30 1252 H 126.53 0.695122 -0.292098 0
M  V30 1253 H 129.181 1.30219 -1.29287 0
M  V30 1254 H 127.563 3.88043 -0.789864 0
M  V30 1255 H 128.737 2.98961 -3.50655 0
M  V30 1256 H 127.052 2.81998 -3.06376 0
M  V30 1257 H 129.649 5.12859 -1.51262 0
M  V30 1258 H 129.992 4.16182 -0.0991007 0
M  V30 1259 H 130.525 3.59603 -1.70089 0
M  V30 1260 H 127.264 4.82823 -4.43353 0
M  V30 1261 H 126.784 5.30961 -2.78999 0
M  V30 1262 H 128.463 5.54335 -3.33648 0
M  V30 1263 N 128.595 0.856903 1.32268 0
M  V30 1264 C 129.525 0.31858 2.31316 0
M  V30 1265 C 130.506 -0.583487 1.59779 0
M  V30 1266 O 131.691 -0.503259 1.87566 0
M  V30 1267 C 128.821 -0.491979 3.43798 0
M  V30 1268 C 127.775 0.315849 4.26833 0
M  V30 1269 C 127.101 -0.619586 5.31098 0
M  V30 1270 C 128.401 1.54282 4.98993 0
M  V30 1271 H 130.095 1.14621 2.76591 0
M  V30 1272 H 127.641 0.552613 1.32974 0
M  V30 1273 H 129.594 -0.879012 4.1213 0
M  V30 1274 H 128.318 -1.35299 2.97257 0
M  V30 1275 H 126.977 0.684664 3.6015 0
M  V30 1276 H 126.625 -1.47751 4.8081 0
M  V30 1277 H 126.325 -0.0830621 5.87541 0
M  V30 1278 H 127.849 -1.00375 6.02293 0
M  V30 1279 H 129.263 1.22796 5.59995 0
M  V30 1280 H 127.66 2.01745 5.65172 0
M  V30 1281 H 128.73 2.30285 4.26728 0
M  V30 1282 N 130.073 -1.45103 0.615059 0
M  V30 1283 C 131.319 -2.02483 0.113347 0
M  V30 1284 C 131.652 -1.48146 -1.25564 0
M  V30 1285 O 130.927 -0.659104 -1.82992 0
M  V30 1286 C 131.21 -3.60005 0.0825278 0
M  V30 1287 C 131.063 -4.2466 1.48271 0
M  V30 1288 C 132.382 -4.35972 -0.601401 0
M  V30 1289 H 129.501 -0.735764 0.0426632 0
M  V30 1290 H 132.143 -1.72868 0.788461 0
M  V30 1291 H 130.293 -3.85367 -0.492378 0
M  V30 1292 H 131.965 -4.10458 2.10527 0
M  V30 1293 H 130.208 -3.82772 2.04127 0
M  V30 1294 H 130.879 -5.336 1.41332 0
M  V30 1295 H 133.355 -4.15947 -0.112666 0
M  V30 1296 H 132.231 -5.45697 -0.592097 0
M  V30 1297 H 132.492 -4.09391 -1.66887 0
M  V30 1298 N 131.551 -0.354651 -1.53558 0
M  V30 1299 C 132.8 0.239504 -2.00273 0
M  V30 1300 C 133.113 1.50759 -1.24623 0
M  V30 1301 O 134.319 2.17968 -1.61871 0
M  V30 1302 C 132.775 0.477341 -3.5672 0
M  V30 1303 C 132.383 -0.775488 -4.41237 0
M  V30 1304 C 134.127 1.02975 -4.11821 0
M  V30 1305 C 132.034 -0.507838 -5.89216 0
M  V30 1306 H 130.964 0.0932743 -0.748208 0
M  V30 1307 H 133.615 -0.471701 -1.77334 0
M  V30 1308 H 131.997 1.24953 -3.7577 0
M  V30 1309 H 133.171 -1.54963 -4.33962 0
M  V30 1310 H 131.486 -1.25033 -3.97185 0
M  V30 1311 H 134.083 1.24513 -5.2 0
M  V30 1312 H 134.426 1.98862 -3.65731 0
M  V30 1313 H 134.959 0.317994 -3.96527 0
M  V30 1314 H 131.698 -1.43674 -6.39561 0
M  V30 1315 H 131.218 0.228011 -5.99366 0
M  V30 1316 H 132.897 -0.129238 -6.46871 0
M  V30 1317 N 133.029 1.57378 -0.0835403 0
M  V30 1318 C 134.275 1.94217 0.583733 0
M  V30 1319 C 134.608 0.964653 1.68547 0
M  V30 1320 O 133.883 -0.00422258 1.945 0
M  V30 1321 C 134.166 3.41253 1.14972 0
M  V30 1322 C 134.019 4.49768 0.0538277 0
M  V30 1323 C 135.338 3.89352 2.05166 0
M  V30 1324 H 132.457 0.706233 0.210724 0
M  V30 1325 H 135.099 1.89392 -0.1519 0
M  V30 1326 H 133.249 3.45496 1.77665 0
M  V30 1327 H 134.921 4.57641 -0.579851 0
M  V30 1328 H 133.164 4.29432 -0.614068 0
M  V30 1329 H 133.835 5.49817 0.490452 0
M  V30 1330 H 136.311 3.87189 1.52393 0
M  V30 1331 H 135.187 4.92822 2.41698 0
M  V30 1332 H 135.448 3.27973 2.96456 0
M  V30 1333 N 134.507 -0.190092 1.56449 0
M  V30 1334 C 135.732 -0.929864 1.85387 0
M  V30 1335 C 136.157 -1.7585 0.667704 0
M  V30 1336 O 135.515 -1.77198 -0.383459 0
M  V30 1337 C 135.563 -1.79773 3.12593 0
M  V30 1338 O 134.667 -2.89713 2.93496 0
M  V30 1339 H 134.008 -0.261574 0.610307 0
M  V30 1340 H 136.538 -0.193896 2.03679 0
M  V30 1341 H 136.548 -2.20139 3.43515 0
M  V30 1342 H 135.223 -1.18892 3.98544 0
M  V30 1343 H 133.8 -2.53065 2.73884 0
M  V30 1344 N 135.985 -1.50799 -0.457987 0
M  V30 1345 C 137.232 -1.62442 -1.20908 0
M  V30 1346 C 137.56 -0.330865 -1.91665 0
M  V30 1347 O 136.815 0.68401 -1.83357 0
M  V30 1348 C 137.114 -2.76358 -2.2663 0
M  V30 1349 C 136.78 -4.16378 -1.73033 0
M  V30 1350 C 135.442 -4.54473 -1.58138 0
M  V30 1351 C 137.794 -5.03836 -1.33413 0
M  V30 1352 C 135.122 -5.77754 -1.02065 0
M  V30 1353 C 137.474 -6.27676 -0.78778 0
M  V30 1354 C 136.138 -6.64562 -0.625561 0
M  V30 1355 H 135.408 -0.594417 -0.442435 0
M  V30 1356 H 138.055 -1.84772 -0.503136 0
M  V30 1357 H 136.36 -2.48167 -3.03184 0
M  V30 1358 H 138.057 -2.82568 -2.84528 0
M  V30 1359 H 134.647 -3.86331 -1.85598 0
M  V30 1360 H 138.831 -4.75026 -1.4375 0
M  V30 1361 H 134.087 -6.04997 -0.882547 0
M  V30 1362 H 138.261 -6.94797 -0.472177 0
M  V30 1363 H 135.888 -7.59965 -0.188926 0
M  V30 1364 N 137.463 0.71206 -1.40597 0
M  V30 1365 C 138.41 1.82613 -1.41142 0
M  V30 1366 C 139.38 1.63925 -0.267903 0
M  V30 1367 O 140.565 1.85009 -0.466495 0
M  V30 1368 C 137.705 3.20354 -1.28324 0
M  V30 1369 C 136.818 3.50589 -2.52411 0
M  V30 1370 C 135.953 4.77855 -2.32009 0
M  V30 1371 C 134.992 5.01005 -3.51654 0
M  V30 1372 N 134.129 6.19487 -3.30425 0
M  V30 1373 H 138.969 1.81482 -2.36365 0
M  V30 1374 H 136.506 0.886475 -1.17388 0
M  V30 1375 H 138.464 3.99899 -1.18899 0
M  V30 1376 H 137.094 3.20705 -0.367189 0
M  V30 1377 H 136.146 2.65573 -2.72351 0
M  V30 1378 H 137.458 3.63604 -3.41458 0
M  V30 1379 H 136.612 5.65424 -2.19956 0
M  V30 1380 H 135.351 4.67056 -1.40392 0
M  V30 1381 H 134.356 4.1189 -3.64179 0
M  V30 1382 H 135.581 5.13674 -4.44202 0
M  V30 1383 H 133.527 6.09932 -2.41494 0
M  V30 1384 H 133.444 6.33194 -4.13039 0
M  V30 1385 H 134.712 7.09834 -3.22113 0
M  V30 1386 N 138.941 1.26152 0.944643 0
M  V30 1387 C 140.187 1.11657 1.69294 0
M  V30 1388 C 140.52 -0.339926 1.91202 0
M  V30 1389 O 139.795 -1.24994 1.49019 0
M  V30 1390 C 140.078 1.88236 3.06984 0
M  V30 1391 C 139.931 3.41772 2.92424 0
M  V30 1392 C 141.25 1.67343 4.07043 0
M  V30 1393 H 138.369 0.407004 0.614424 0
M  V30 1394 H 141.011 1.55106 1.09737 0
M  V30 1395 H 139.161 1.51308 3.57824 0
M  V30 1396 H 140.833 3.88433 2.48832 0
M  V30 1397 H 139.076 3.68974 2.28124 0
M  V30 1398 H 139.747 3.90579 3.90067 0
M  V30 1399 H 142.223 1.99509 3.65151 0
M  V30 1400 H 141.099 2.23346 5.01406 0
M  V30 1401 H 141.36 0.617158 4.37771 0
M  V30 1402 N 140.419 -1.14872 1.07899 0
M  V30 1403 C 141.367 -2.21857 0.698727 0
M  V30 1404 C 142.361 -1.66845 -0.293086 0
M  V30 1405 O 143.567 -1.79321 -0.156204 0
M  V30 1406 H 139.942 -0.722691 0.207899 0
M  V30 1407 H 141.913 -2.51205 1.61054 0
M  V30 1408 C 140.662 -3.47498 0.11858 0
M  V30 1409 H 139.985 -3.90154 0.872914 0
M  V30 1410 H 141.425 -4.23858 -0.109759 0
M  V30 1411 C 139.884 -3.16947 -1.1422 0
M  V30 1412 O 140.414 -3.3426 -2.22785 0
M  V30 1413 N 138.62 -2.70946 -1.05055 0
M  V30 1414 H 138.167 -2.57058 -0.167038 0
M  V30 1415 H 138.125 -2.50879 -1.89491 0
M  V30 1416 N 141.898 -0.863906 -1.31812 0
M  V30 1417 C 142.845 -0.313303 -2.28664 0
M  V30 1418 C 143.815 0.584868 -1.55462 0
M  V30 1419 O 145 0.517805 -1.83639 0
M  V30 1420 C 142.14 0.48441 -3.41683 0
M  V30 1421 C 141.253 -0.440594 -4.29747 0
M  V30 1422 C 140.388 0.370652 -5.29905 0
M  V30 1423 C 139.427 -0.551164 -6.09613 0
M  V30 1424 N 138.564 0.223462 -7.01744 0
M  V30 1425 H 143.404 -1.14444 -2.75148 0
M  V30 1426 H 140.941 -0.575769 -1.35364 0
M  V30 1427 H 142.899 0.962627 -4.05943 0
M  V30 1428 H 141.529 1.28029 -2.96325 0
M  V30 1429 H 140.581 -1.03724 -3.65986 0
M  V30 1430 H 141.893 -1.14767 -4.85417 0
M  V30 1431 H 141.047 0.911638 -5.99812 0
M  V30 1432 H 139.786 1.11105 -4.74876 0
M  V30 1433 H 138.791 -1.10396 -5.38603 0
M  V30 1434 H 140.016 -1.29032 -6.66729 0
M  V30 1435 H 137.962 0.946787 -6.49132 0
M  V30 1436 H 137.879 -0.424399 -7.54808 0
M  V30 1437 H 139.147 0.745876 -7.75923 0
M  V30 1438 N 143.376 1.44774 -0.622745 0
M  V30 1439 C 144.308 2.28856 0.125485 0
M  V30 1440 C 145.321 1.40811 0.817069 0
M  V30 1441 O 146.51 1.65044 0.679918 0
M  V30 1442 C 143.61 3.16963 1.19949 0
M  V30 1443 C 142.783 4.33374 0.592064 0
M  V30 1444 C 141.842 5.02577 1.55893 0
M  V30 1445 O 140.868 5.58873 1.07933 0
M  V30 1446 N 142.07 5.03256 2.89334 0
M  V30 1447 H 144.835 2.93713 -0.596068 0
M  V30 1448 H 142.396 1.55129 -0.463303 0
M  V30 1449 H 144.388 3.60123 1.84644 0
M  V30 1450 H 142.958 2.53913 1.82337 0
M  V30 1451 H 142.178 3.93509 -0.233322 0
M  V30 1452 H 143.466 5.08527 0.166738 0
M  V30 1453 H 142.864 4.58836 3.30887 0
M  V30 1454 H 141.421 5.50232 3.49412 0
M  V30 1455 N 144.854 0.36279 1.53368 0
M  V30 1456 C 145.784 -0.476976 2.28576 0
M  V30 1457 C 146.765 -1.08631 1.30894 0
M  V30 1458 O 147.95 -1.10409 1.59761 0
M  V30 1459 C 145.08 -1.61828 3.07293 0
M  V30 1460 C 144.034 -1.13633 4.1264 0
M  V30 1461 C 143.36 -2.36766 4.79423 0
M  V30 1462 C 144.66 -0.223061 5.21823 0
M  V30 1463 H 146.354 0.150474 2.99022 0
M  V30 1464 H 143.9 0.0738103 1.43811 0
M  V30 1465 H 145.853 -2.21237 3.58653 0
M  V30 1466 H 144.577 -2.27292 2.34533 0
M  V30 1467 H 143.236 -0.564945 3.62221 0
M  V30 1468 H 142.884 -3.0068 4.03238 0
M  V30 1469 H 142.584 -2.05192 5.50609 0
M  V30 1470 H 144.108 -2.96865 5.33576 0
M  V30 1471 H 145.522 -0.724545 5.68703 0
M  V30 1472 H 143.919 0.001678 6.001 0
M  V30 1473 H 144.989 0.735553 4.79289 0
M  V30 1474 N 146.332 -1.57332 0.0918853 0
M  V30 1475 C 147.279 -2.13847 -0.868211 0
M  V30 1476 C 148.249 -1.05618 -1.28196 0
M  V30 1477 O 149.434 -1.33387 -1.36427 0
M  V30 1478 C 146.574 -2.72062 -2.12312 0
M  V30 1479 C 145.687 -3.94514 -1.7602 0
M  V30 1480 C 144.822 -4.40903 -2.96273 0
M  V30 1481 C 143.861 -5.55953 -2.56092 0
M  V30 1482 N 142.998 -5.97209 -3.69169 0
M  V30 1483 H 147.838 -2.95575 -0.379406 0
M  V30 1484 H 145.375 -1.46048 -0.175606 0
M  V30 1485 H 147.333 -3.03931 -2.858 0
M  V30 1486 H 145.963 -1.93068 -2.58698 0
M  V30 1487 H 145.015 -3.68979 -0.925135 0
M  V30 1488 H 146.327 -4.7802 -1.42472 0
M  V30 1489 H 145.481 -4.74539 -3.78018 0
M  V30 1490 H 144.22 -3.56291 -3.33029 0
M  V30 1491 H 143.225 -5.21948 -1.72773 0
M  V30 1492 H 144.45 -6.42311 -2.20484 0
M  V30 1493 H 142.396 -5.15543 -4.05649 0
M  V30 1494 H 142.313 -6.75504 -3.39456 0
M  V30 1495 H 143.581 -6.35475 -4.51434 0
M  V30 1496 N 147.81 0.181792 -1.56548 0
M  V30 1497 C 149.038 0.915947 -1.85521 0
M  V30 1498 C 149.453 1.76282 -0.676016 0
M  V30 1499 O 148.81 1.79012 0.355077 0
M  V30 1500 C 148.861 1.80126 -3.13427 0
M  V30 1501 O 148.582 0.988562 -4.26801 0
M  V30 1502 C 150.083 2.64597 -3.55673 0
M  V30 1503 H 147.303 0.26661 -0.61576 0
M  V30 1504 H 149.847 0.185039 -2.03661 0
M  V30 1505 H 148.002 2.48563 -2.97145 0
M  V30 1506 H 148.416 1.59308 -4.99721 0
M  V30 1507 H 149.89 3.2235 -4.48101 0
M  V30 1508 H 150.367 3.38958 -2.79292 0
M  V30 1509 H 150.973 2.0151 -3.74532 0
M  V30 1510 N 149.288 1.51039 0.449983 0
M  V30 1511 C 150.534 1.63322 1.20223 0
M  V30 1512 C 150.867 0.34241 1.91158 0
M  V30 1513 O 150.142 -0.657344 1.83055 0
M  V30 1514 C 150.425 2.82801 2.22925 0
M  V30 1515 C 150.278 4.21823 1.56157 0
M  V30 1516 C 151.597 2.97807 3.24035 0
M  V30 1517 H 148.716 0.594407 0.435718 0
M  V30 1518 H 151.358 1.83489 0.493136 0
M  V30 1519 H 149.508 2.65738 2.834 0
M  V30 1520 H 151.18 4.50526 0.991162 0
M  V30 1521 H 149.423 4.25105 0.864172 0
M  V30 1522 H 150.094 5.01391 2.30891 0
M  V30 1523 H 152.57 3.13497 2.73603 0
M  V30 1524 H 151.446 3.82992 3.93202 0
M  V30 1525 H 151.707 2.09328 3.89402 0
M  V30 1526 N 150.766 -0.704594 1.40972 0
M  V30 1527 C 151.714 -1.83994 1.42299 0
M  V30 1528 C 152.708 -1.66684 0.302111 0
M  V30 1529 O 153.914 -1.73655 0.473697 0
M  V30 1530 H 150.289 -0.606171 0.44504 0
M  V30 1531 H 152.26 -1.79992 2.38003 0
M  V30 1532 C 151.009 -3.21946 1.31323 0
M  V30 1533 H 150.332 -3.35878 2.16855 0
M  V30 1534 H 151.772 -4.01491 1.36311 0
M  V30 1535 C 150.231 -3.36891 0.0245977 0
M  V30 1536 O 150.761 -3.90687 -0.934153 0
M  V30 1537 N 148.967 -2.90559 -0.0485243 0
M  V30 1538 H 148.514 -2.46968 0.732419 0
M  V30 1539 H 148.472 -3.00937 -0.910171 0
M  V30 1540 N 152.244 -1.26651 -0.937939 0
M  V30 1541 C 153.192 -1.08308 -2.05845 0
M  V30 1542 C 154.186 -0.0090757 -1.69398 0
M  V30 1543 O 155.392 -0.166007 -1.79233 0
M  V30 1544 H 151.767 -0.333416 -0.674046 0
M  V30 1545 H 153.738 -2.03261 -2.18467 0
M  V30 1546 C 152.487 -0.736229 -3.39816 0
M  V30 1547 H 151.81 -1.55453 -3.6834 0
M  V30 1548 H 153.25 -0.64769 -4.19024 0
M  V30 1549 C 151.709 0.558824 -3.32233 0
M  V30 1550 O 152.239 1.59621 -3.68624 0
M  V30 1551 N 150.445 0.550657 -2.85335 0
M  V30 1552 H 149.992 -0.293943 -2.55917 0
M  V30 1553 H 149.95 1.41726 -2.80644 0
M  V30 1554 N 153.722 1.14298 -1.08507 0
M  V30 1555 C 154.952 1.88945 -0.835663 0
M  V30 1556 C 155.36 1.78894 0.615928 0
M  V30 1557 O 154.703 1.1468 1.43506 0
M  V30 1558 C 154.765 3.39585 -1.17994 0
M  V30 1559 C 154.429 3.7342 -2.63451 0
M  V30 1560 C 155.426 3.73454 -3.61702 0
M  V30 1561 C 153.111 4.03368 -2.99332 0
M  V30 1562 C 155.105 4.02961 -4.93864 0
M  V30 1563 C 152.792 4.32538 -4.31687 0
M  V30 1564 C 153.79 4.32318 -5.28763 0
M  V30 1565 O 153.478 4.6078 -6.58739 0
M  V30 1566 H 153.21 0.605307 -0.300965 0
M  V30 1567 H 155.764 1.45673 -1.44806 0
M  V30 1568 H 153.994 3.83315 -0.51055 0
M  V30 1569 H 155.683 3.9554 -0.911182 0
M  V30 1570 H 156.449 3.50403 -3.35325 0
M  V30 1571 H 152.328 4.02692 -2.24411 0
M  V30 1572 H 155.872 4.02704 -5.69627 0
M  V30 1573 H 151.769 4.55059 -4.57812 0
M  V30 1574 H 152.537 4.78492 -6.64069 0
M  V30 1575 N 155.201 0.870884 1.31352 0
M  V30 1576 C 156.448 0.482273 1.96673 0
M  V30 1577 C 156.776 -0.965638 1.68836 0
M  V30 1578 O 156.031 -1.69514 0.977937 0
M  V30 1579 C 156.33 0.687157 3.50732 0
M  V30 1580 C 155.996 2.108 3.9859 0
M  V30 1581 C 154.658 2.49656 4.1137 0
M  V30 1582 C 157.01 3.03459 4.23748 0
M  V30 1583 C 154.338 3.80412 4.46659 0
M  V30 1584 C 156.69 4.3373 4.60501 0
M  V30 1585 C 155.354 4.725 4.71487 0
M  V30 1586 H 154.624 0.176476 0.719679 0
M  V30 1587 H 157.271 1.10405 1.56471 0
M  V30 1588 H 155.576 -0.0177476 3.91796 0
M  V30 1589 H 157.273 0.366284 3.99324 0
M  V30 1590 H 153.863 1.79633 3.8914 0
M  V30 1591 H 158.047 2.74665 4.13368 0
M  V30 1592 H 153.303 4.1021 4.53362 0
M  V30 1593 H 157.477 5.05578 4.78919 0
M  V30 1594 H 155.104 5.73859 4.98588 0
M  V30 1595 N 156.679 -1.44442 0.630414 0
M  V30 1596 C 157.609 -2.33418 -0.0618083 0
M  V30 1597 C 158.59 -1.48165 -0.835541 0
M  V30 1598 O 159.775 -1.76886 -0.801564 0
M  V30 1599 C 156.905 -3.31222 -1.04449 0
M  V30 1600 C 155.859 -4.26288 -0.382436 0
M  V30 1601 C 155.185 -5.13954 -1.47497 0
M  V30 1602 C 156.485 -5.1744 0.710865 0
M  V30 1603 H 158.179 -2.91548 0.681184 0
M  V30 1604 H 155.725 -1.40191 0.329026 0
M  V30 1605 H 157.678 -3.92351 -1.53748 0
M  V30 1606 H 156.402 -2.71299 -1.81836 0
M  V30 1607 H 155.061 -3.6649 0.0899054 0
M  V30 1608 H 154.709 -4.50385 -2.2397 0
M  V30 1609 H 154.409 -5.7837 -1.03737 0
M  V30 1610 H 155.933 -5.77955 -1.96979 0
M  V30 1611 H 157.347 -5.72509 0.300996 0
M  V30 1612 H 155.744 -5.90455 1.07156 0
M  V30 1613 H 156.814 -4.58496 1.57829 0
M  V30 1614 N 158.157 -0.370918 -1.53173 0
M  V30 1615 C 159.087 0.464847 -2.28826 0
M  V30 1616 C 160.068 1.07936 -1.31468 0
M  V30 1617 O 161.253 1.0956 -1.60344 0
M  V30 1618 C 158.383 1.60196 -3.08147 0
M  V30 1619 C 157.337 1.11443 -4.13237 0
M  V30 1620 C 156.663 2.3422 -4.80672 0
M  V30 1621 C 157.963 0.195384 -5.21934 0
M  V30 1622 H 159.657 -0.166329 -2.98938 0
M  V30 1623 H 157.203 -0.0814359 -1.4377 0
M  V30 1624 H 159.156 2.19332 -3.59822 0
M  V30 1625 H 157.88 2.26045 -2.35735 0
M  V30 1626 H 156.539 0.545727 -3.62515 0
M  V30 1627 H 156.187 2.98537 -4.04827 0
M  V30 1628 H 155.887 2.02269 -5.51689 0
M  V30 1629 H 157.411 2.94032 -5.35143 0
M  V30 1630 H 158.825 0.694375 -5.69079 0
M  V30 1631 H 157.222 -0.0335027 -6.00091 0
M  V30 1632 H 158.292 -0.760961 -4.78892 0
M  V30 1633 N 159.635 1.57281 -0.100228 0
M  V30 1634 C 160.86 1.99302 0.573881 0
M  V30 1635 C 161.285 0.979059 1.60611 0
M  V30 1636 O 160.643 -0.0517803 1.81226 0
M  V30 1637 C 160.691 3.40274 1.19358 0
M  V30 1638 O 159.795 3.41676 2.30935 0
M  V30 1639 H 159.136 0.647944 0.145138 0
M  V30 1640 H 161.666 2.03779 -0.183156 0
M  V30 1641 H 161.676 3.78078 1.53365 0
M  V30 1642 H 160.351 4.13594 0.437385 0
M  V30 1643 H 158.928 3.15672 1.98509 0
M  V30 1644 N 161.113 -0.173488 1.56642 0
M  V30 1645 C 162.043 -1.2171 1.99271 0
M  V30 1646 C 163.024 -1.46289 0.867959 0
M  V30 1647 O 164.209 -1.5766 1.13388 0
M  V30 1648 C 161.339 -2.55651 2.35074 0
M  V30 1649 C 160.293 -2.45645 3.50489 0
M  V30 1650 C 159.619 -3.84056 3.72028 0
M  V30 1651 C 160.919 -1.96302 4.84007 0
M  V30 1652 H 162.613 -0.86275 2.867 0
M  V30 1653 H 160.159 -0.413571 1.37933 0
M  V30 1654 H 162.112 -3.2886 2.63494 0
M  V30 1655 H 160.836 -2.92869 1.44552 0
M  V30 1656 H 159.495 -1.7489 3.22194 0
M  V30 1657 H 159.143 -4.18664 2.788 0
M  V30 1658 H 158.843 -3.7823 4.49684 0
M  V30 1659 H 160.367 -4.58854 4.02846 0
M  V30 1660 H 161.781 -2.59284 5.11317 0
M  V30 1661 H 160.178 -2.01429 5.65284 0
M  V30 1662 H 161.248 -0.917226 4.76146 0
M  V30 1663 N 162.591 -1.51276 -0.441967 0
M  V30 1664 C 163.554 -1.7167 -1.51862 0
M  V30 1665 C 164.554 -0.586793 -1.49711 0
M  V30 1666 O 165.744 -0.854276 -1.51815 0
M  V30 1667 C 162.876 -1.76889 -2.91416 0
M  V30 1668 H 164.069 -2.67754 -1.35084 0
M  V30 1669 H 161.622 -1.41196 -0.670333 0
M  V30 1670 H 162.357 -0.826026 -3.13604 0
M  V30 1671 H 162.142 -2.59001 -2.94382 0
M  V30 1672 H 163.632 -1.94522 -3.69528 0
M  V30 1673 N 164.069 0.697108 -1.41344 0
M  V30 1674 C 165.309 1.46939 -1.42085 0
M  V30 1675 C 165.673 1.9198 -0.0280397 0
M  V30 1676 O 166.874 2.6865 0.0897504 0
M  V30 1677 C 165.145 2.64985 -2.39828 0
M  V30 1678 S 166.704 3.54147 -2.59085 0
M  V30 1679 H 163.522 0.502146 -0.503359 0
M  V30 1680 H 166.124 0.813546 -1.77769 0
M  V30 1681 H 164.828 2.30098 -3.39828 0
M  V30 1682 H 164.359 3.35464 -2.05493 0
M  V30 1683 H 166.374 4.60137 -1.85711 0
M  V30 1684 N 165.547 1.27147 0.931209 0
M  V30 1685 C 166.51 1.09615 2.01289 0
M  V30 1686 C 167.51 0.0412581 1.60747 0
M  V30 1687 O 168.7 0.285545 1.71844 0
M  V30 1688 C 165.832 0.669447 3.34262 0
M  V30 1689 H 167.025 2.05662 2.18273 0
M  V30 1690 H 164.578 1.09885 1.11153 0
M  V30 1691 H 165.313 -0.292572 3.22978 0
M  V30 1692 H 165.098 1.43127 3.65044 0
M  V30 1693 H 166.588 0.568921 4.13706 0
M  V30 1694 N 167.025 -1.13721 1.09112 0
M  V30 1695 C 168.302 -1.81155 0.737706 0
M  V30 1696 C 168.682 -1.96253 -0.777683 0
M  V30 1697 O 168.03 -1.52807 -1.69889 0
M  V30 1698 C 168.24 -3.16392 1.47299 0
M  V30 1699 C 169.588 -3.91787 1.63671 0
M  V30 1700 O 170.612 -3.26005 1.43524 0
M  V30 1701 O 169.471 -5.0977 1.96969 0
M  V30 1702 H 166.565 -0.783518 0.26463 0
M  V30 1703 H 169.111 -1.20676 1.19312 0
M  V30 1704 H 167.883 -3.0061 2.50498 0
M  V30 1705 H 167.506 -3.8457 1.00953 0
M  V30 1706 N 168.503 -0.877838 -1.30888 0
M  V30 1707 C 169.433 -0.35534 -2.3078 0
M  V30 1708 C 170.414 0.557994 -1.60687 0
M  V30 1709 O 171.599 0.473355 -1.88343 0
M  V30 1710 C 168.729 0.437221 -3.44537 0
M  V30 1711 C 167.683 -0.383715 -4.26276 0
M  V30 1712 C 167.009 0.535014 -5.32017 0
M  V30 1713 C 168.309 -1.62201 -4.96476 0
M  V30 1714 H 170.003 -1.19007 -2.74732 0
M  V30 1715 H 167.549 -0.573698 -1.32078 0
M  V30 1716 H 169.502 0.813334 -4.13477 0
M  V30 1717 H 168.226 1.30553 -2.99372 0
M  V30 1718 H 166.885 -0.741874 -3.59015 0
M  V30 1719 H 166.533 1.40083 -4.831 0
M  V30 1720 H 166.233 -0.0104211 -5.87599 0
M  V30 1721 H 167.757 0.907799 -6.03814 0
M  V30 1722 H 169.171 -1.31689 -5.5797 0
M  V30 1723 H 167.568 -2.10711 -5.61891 0
M  V30 1724 H 168.638 -2.37044 -4.23011 0
M  V30 1725 N 169.982 1.44106 -0.638065 0
M  V30 1726 C 171.231 2.01194 -0.142744 0
M  V30 1727 C 171.544 1.50835 1.24532 0
M  V30 1728 O 172.75 2.00096 1.83504 0
M  V30 1729 C 171.206 3.59319 -0.20442 0
M  V30 1730 C 170.814 4.18674 -1.59423 0
M  V30 1731 C 172.558 4.23854 0.234079 0
M  V30 1732 C 170.465 5.69045 -1.61065 0
M  V30 1733 H 169.395 0.752367 -0.0495998 0
M  V30 1734 H 172.046 1.65246 -0.797881 0
M  V30 1735 H 170.428 3.92598 0.517946 0
M  V30 1736 H 171.602 3.96921 -2.34074 0
M  V30 1737 H 169.917 3.66453 -1.97741 0
M  V30 1738 H 172.514 5.34155 0.241443 0
M  V30 1739 H 172.857 3.96688 1.2627 0
M  V30 1740 H 173.39 3.95403 -0.436025 0
M  V30 1741 H 170.129 6.00956 -2.61787 0
M  V30 1742 H 169.649 5.929 -0.90718 0
M  V30 1743 H 171.328 6.32809 -1.34766 0
M  V30 1744 N 171.46 0.379036 1.52974 0
M  V30 1745 C 172.709 -0.207612 2.00629 0
M  V30 1746 C 173.022 -1.48758 1.27006 0
M  V30 1747 O 174.228 -2.15365 1.65318 0
M  V30 1748 C 172.684 -0.42053 3.57435 0
M  V30 1749 C 172.292 0.845587 4.39948 0
M  V30 1750 C 174.036 -0.964102 4.13407 0
M  V30 1751 C 171.943 0.601513 5.88333 0
M  V30 1752 H 170.873 -0.0813591 0.749598 0
M  V30 1753 H 173.524 0.499853 1.76561 0
M  V30 1754 H 171.906 -1.18959 3.7771 0
M  V30 1755 H 173.08 1.61848 4.31442 0
M  V30 1756 H 171.395 1.31336 3.95145 0
M  V30 1757 H 173.992 -1.16225 5.21916 0
M  V30 1758 H 174.335 -1.93019 3.68849 0
M  V30 1759 H 174.868 -0.25487 3.96983 0
M  V30 1760 H 171.607 1.53831 6.37194 0
M  V30 1761 H 171.127 -0.132628 5.99653 0
M  V30 1762 H 172.806 0.232134 6.46583 0
M  V30 1763 N 172.938 -1.57226 0.108567 0
M  V30 1764 C 174.186 -1.94448 -0.550853 0
M  V30 1765 C 174.507 -0.992074 -1.67878 0
M  V30 1766 O 173.777 -0.0465 -1.95845 0
M  V30 1767 H 172.357 -0.717897 -0.206479 0
M  V30 1768 H 175.019 -1.94112 0.175062 0
M  V30 1769 H 174.115 -2.97218 -0.952259 0
M  V30 1770 N 174.416 0.165178 -1.56732 0
M  V30 1771 C 175.662 0.882112 -1.82611 0
M  V30 1772 C 175.995 1.81628 -0.687378 0
M  V30 1773 O 175.27 1.92009 0.310267 0
M  V30 1774 C 175.553 1.67245 -3.18906 0
M  V30 1775 C 175.406 0.760987 -4.43316 0
M  V30 1776 C 176.725 2.63884 -3.52212 0
M  V30 1777 H 173.844 0.319242 -0.664269 0
M  V30 1778 H 176.486 0.148052 -1.89422 0
M  V30 1779 H 174.636 2.29824 -3.1323 0
M  V30 1780 H 176.308 0.147596 -4.61064 0
M  V30 1781 H 174.551 0.0694102 -4.33744 0
M  V30 1782 H 175.222 1.34962 -5.35247 0
M  V30 1783 H 177.698 2.11429 -3.58381 0
M  V30 1784 H 176.574 3.16245 -4.48643 0
M  V30 1785 H 176.835 3.44377 -2.77231 0
M  V30 1786 N 175.894 1.51508 0.433938 0
M  V30 1787 C 177.143 1.63578 1.18005 0
M  V30 1788 C 177.456 0.359514 1.92268 0
M  V30 1789 O 178.662 0.359632 2.69108 0
M  V30 1790 C 177.118 2.88901 2.14626 0
M  V30 1791 C 176.726 4.23544 1.45995 0
M  V30 1792 C 178.47 3.10328 2.89649 0
M  V30 1793 C 176.377 5.40014 2.4112 0
M  V30 1794 H 175.307 0.609277 0.444182 0
M  V30 1795 H 177.958 1.77978 0.446773 0
M  V30 1796 H 176.34 2.68142 2.91403 0
M  V30 1797 H 177.514 4.54696 0.747532 0
M  V30 1798 H 175.829 4.08021 0.831115 0
M  V30 1799 H 178.426 3.94518 3.60915 0
M  V30 1800 H 178.769 2.23544 3.51189 0
M  V30 1801 H 179.302 3.31443 2.19978 0
M  V30 1802 H 176.041 6.29068 1.84264 0
M  V30 1803 H 175.561 5.13233 3.10406 0
M  V30 1804 H 177.24 5.72099 3.02177 0
M  V30 1805 N 177.372 -0.689602 1.41712 0
M  V30 1806 C 178.597 -1.48329 1.44959 0
M  V30 1807 C 179.022 -1.8801 0.0581283 0
M  V30 1808 O 178.38 -1.55026 -0.940035 0
M  V30 1809 C 178.428 -2.71835 2.36935 0
M  V30 1810 O 177.532 -3.69549 1.8305 0
M  V30 1811 H 176.873 -0.446199 0.491734 0
M  V30 1812 H 179.403 -0.847127 1.86239 0
M  V30 1813 H 179.413 -3.20076 2.53013 0
M  V30 1814 H 178.088 -2.42291 3.38035 0
M  V30 1815 H 176.665 -3.2851 1.76452 0
M  V30 1816 N 178.85 -1.27639 -0.924453 0
M  V30 1817 C 179.783 -1.04966 -2.02626 0
M  V30 1818 C 180.761 0.0309505 -1.62571 0
M  V30 1819 O 181.945 -0.114846 -1.8815 0
M  V30 1820 C 179.072 -0.59292 -3.3347 0
M  V30 1821 C 178.118 -1.66858 -3.92506 0
M  V30 1822 S 178.951 -3.2619 -4.24689 0
M  V30 1823 C 180.107 -2.82325 -5.58609 0
M  V30 1824 H 180.34 -1.98252 -2.21547 0
M  V30 1825 H 177.873 -1.11506 -1.06798 0
M  V30 1826 H 179.831 -0.336086 -4.09122 0
M  V30 1827 H 178.492 0.319939 -3.12466 0
M  V30 1828 H 177.685 -1.30038 -4.86935 0
M  V30 1829 H 177.287 -1.87766 -3.2345 0
M  V30 1830 H 179.579 -2.2783 -6.38044 0
M  V30 1831 H 180.522 -3.75511 -6.00331 0
M  V30 1832 H 180.93 -2.21367 -5.19285 0
M  V30 1833 N 180.328 1.1314 -1.09713 0
M  V30 1834 C 181.276 2.20717 -0.733934 0
M  V30 1835 C 182.27 1.6729 0.266506 0
M  V30 1836 O 183.476 1.79547 0.127656 0
M  V30 1837 H 179.851 0.719292 -0.21937 0
M  V30 1838 H 181.822 2.48611 -1.6503 0
M  V30 1839 C 180.571 3.47265 -0.173849 0
M  V30 1840 H 179.894 3.88716 -0.934873 0
M  V30 1841 H 181.334 4.23979 0.0423126 0
M  V30 1842 C 179.793 3.18724 1.09164 0
M  V30 1843 O 180.323 3.37762 2.17439 0
M  V30 1844 N 178.529 2.72583 1.00732 0
M  V30 1845 H 178.076 2.57291 0.126121 0
M  V30 1846 H 178.034 2.53862 1.85476 0
M  V30 1847 N 181.806 0.884767 1.30421 0
M  V30 1848 C 182.736 0.367574 2.30589 0
M  V30 1849 C 183.717 -0.549464 1.60981 0
M  V30 1850 O 184.902 -0.46336 1.88591 0
M  V30 1851 C 182.032 -0.418944 3.44764 0
M  V30 1852 C 180.986 0.406316 4.26067 0
M  V30 1853 C 180.312 -0.506793 5.32293 0
M  V30 1854 C 181.612 1.64832 4.95608 0
M  V30 1855 H 183.306 1.20462 2.74097 0
M  V30 1856 H 180.852 0.580695 1.31772 0
M  V30 1857 H 182.805 -0.791395 4.13902 0
M  V30 1858 H 181.529 -1.28964 3.0006 0
M  V30 1859 H 180.188 0.760903 3.58617 0
M  V30 1860 H 179.836 -1.37519 4.83836 0
M  V30 1861 H 179.536 0.0415828 5.87585 0
M  V30 1862 H 181.06 -0.875764 6.04287 0
M  V30 1863 H 182.474 1.34646 5.57264 0
M  V30 1864 H 180.871 2.13688 5.60765 0
M  V30 1865 H 181.941 2.39284 4.21748 0
M  V30 1866 N 183.284 -1.43765 0.645699 0
M  V30 1867 C 184.531 -2.01898 0.15604 0
M  V30 1868 C 184.859 -1.50887 -1.22733 0
M  V30 1869 O 184.114 -0.689271 -1.8316 0
M  V30 1870 C 184.413 -3.57238 0.107679 0
M  V30 1871 C 184.079 -4.27564 1.43178 0
M  V30 1872 C 182.741 -4.46492 1.7944 0
M  V30 1873 C 185.093 -4.67454 2.30513 0
M  V30 1874 C 182.421 -5.02573 3.02716 0
M  V30 1875 C 184.773 -5.24901 3.53074 0
M  V30 1876 C 183.437 -5.42046 3.89541 0
M  V30 1877 H 182.707 -0.738797 0.057099 0
M  V30 1878 H 185.354 -1.72341 0.834912 0
M  V30 1879 H 183.659 -3.86293 -0.654618 0
M  V30 1880 H 185.356 -3.99965 -0.287938 0
M  V30 1881 H 181.946 -4.13171 1.13963 0
M  V30 1882 H 186.13 -4.5253 2.0379 0
M  V30 1883 H 181.386 -5.14033 3.31028 0
M  V30 1884 H 185.56 -5.54758 4.20971 0
M  V30 1885 H 183.187 -5.85268 4.85145 0
M  V30 1886 N 184.763 -0.387143 -1.52771 0
M  V30 1887 C 185.991 0.195869 -2.05971 0
M  V30 1888 C 186.406 1.40691 -1.25903 0
M  V30 1889 O 185.763 1.79931 -0.305134 0
M  V30 1890 C 185.814 0.56812 -3.57008 0
M  V30 1891 O 185.535 -0.594803 -4.34043 0
M  V30 1892 C 187.036 1.20723 -4.26545 0
M  V30 1893 H 184.256 0.0300578 -0.670326 0
M  V30 1894 H 186.8 -0.551749 -1.96916 0
M  V30 1895 H 184.955 1.26564 -3.66143 0
M  V30 1896 H 185.369 -0.289322 -5.23701 0
M  V30 1897 H 186.843 1.41807 -5.33474 0
M  V30 1898 H 187.32 2.17395 -3.81623 0
M  V30 1899 H 187.926 0.550535 -4.21722 0
M  V30 1900 N 186.241 1.57166 -0.116904 0
M  V30 1901 C 187.469 1.99473 0.549383 0
M  V30 1902 C 187.884 0.996541 1.60357 0
M  V30 1903 O 187.241 -0.0108731 1.82497 0
M  V30 1904 C 187.292 3.41788 1.17741 0
M  V30 1905 O 187.013 4.37788 0.165362 0
M  V30 1906 C 188.514 3.99216 1.92722 0
M  V30 1907 H 185.734 0.655009 0.145616 0
M  V30 1908 H 188.278 2.03494 -0.202625 0
M  V30 1909 H 186.433 3.38713 1.88021 0
M  V30 1910 H 186.847 5.20806 0.621403 0
M  V30 1911 H 188.321 5.00882 2.31995 0
M  V30 1912 H 188.798 3.3824 2.80161 0
M  V30 1913 H 189.404 4.0583 1.27209 0
M  V30 1914 N 187.719 -0.156864 1.56817 0
M  V30 1915 C 188.949 -0.885031 1.86684 0
M  V30 1916 C 189.357 -1.75696 0.701954 0
M  V30 1917 O 188.7 -1.80569 -0.337732 0
M  V30 1918 C 188.762 -1.80092 3.11138 0
M  V30 1919 C 188.426 -1.10714 4.43386 0
M  V30 1920 C 189.423 -0.465714 5.1781 0
M  V30 1921 C 187.108 -1.09959 4.90117 0
M  V30 1922 C 189.102 0.174002 6.37162 0
M  V30 1923 C 186.789 -0.456055 6.09396 0
M  V30 1924 C 187.787 0.179622 6.82764 0
M  V30 1925 O 187.475 0.812975 7.99779 0
M  V30 1926 H 187.207 -0.261813 0.623242 0
M  V30 1927 H 189.761 -0.157383 2.04796 0
M  V30 1928 H 187.991 -2.56926 2.89009 0
M  V30 1929 H 189.68 -2.40018 3.27332 0
M  V30 1930 H 190.446 -0.463427 4.82781 0
M  V30 1931 H 186.325 -1.58378 4.3294 0
M  V30 1932 H 189.869 0.670765 6.94368 0
M  V30 1933 H 185.766 -0.455975 6.43888 0
M  V30 1934 H 186.534 0.71366 8.15383 0
M  V30 1935 N 189.197 -1.51736 -0.425897 0
M  V30 1936 C 190.446 -1.64201 -1.17136 0
M  V30 1937 C 190.759 -0.369705 -1.92074 0
M  V30 1938 O 191.965 -0.373898 -2.68913 0
M  V30 1939 C 190.421 -2.90035 -2.13091 0
M  V30 1940 C 190.029 -4.24312 -1.43747 0
M  V30 1941 C 191.773 -3.1186 -2.87999 0
M  V30 1942 C 189.68 -5.41285 -2.38253 0
M  V30 1943 H 188.61 -0.611624 -0.440944 0
M  V30 1944 H 191.261 -1.78212 -0.437328 0
M  V30 1945 H 189.643 -2.69684 -2.89977 0
M  V30 1946 H 190.817 -4.55086 -0.723408 0
M  V30 1947 H 189.132 -4.08456 -0.809465 0
M  V30 1948 H 191.729 -3.96427 -3.58817 0
M  V30 1949 H 192.072 -2.25403 -3.49999 0
M  V30 1950 H 192.605 -3.32605 -2.18217 0
M  V30 1951 H 189.344 -6.30037 -1.80925 0
M  V30 1952 H 188.864 -5.14872 -3.0768 0
M  V30 1953 H 190.543 -5.73694 -2.99139 0
M  V30 1954 N 190.675 0.682077 -1.42076 0
M  V30 1955 C 191.924 1.43786 -1.41451 0
M  V30 1956 C 192.237 1.95574 -0.0317074 0
M  V30 1957 O 193.443 2.71326 0.0971462 0
M  V30 1958 C 191.899 2.60071 -2.48779 0
M  V30 1959 C 191.507 2.15013 -3.93031 0
M  V30 1960 C 193.251 3.37626 -2.57311 0
M  V30 1961 C 191.158 3.28336 -4.91883 0
M  V30 1962 H 190.088 0.540143 -0.526082 0
M  V30 1963 H 192.739 0.739157 -1.67955 0
M  V30 1964 H 191.121 3.32275 -2.15429 0
M  V30 1965 H 192.295 1.5001 -4.35699 0
M  V30 1966 H 190.61 1.50416 -3.88284 0
M  V30 1967 H 193.207 4.22012 -3.28345 0
M  V30 1968 H 193.55 3.83727 -1.61429 0
M  V30 1969 H 194.083 2.72488 -2.89819 0
M  V30 1970 H 190.822 2.87234 -5.89217 0
M  V30 1971 H 190.342 3.92145 -4.53853 0
M  V30 1972 H 192.021 3.93913 -5.13265 0
M  V30 1973 N 192.153 1.28127 0.917671 0
M  V30 1974 C 193.086 1.06039 2.02067 0
M  V30 1975 C 194.064 -0.0223285 1.62585 0
M  V30 1976 O 195.248 0.124823 1.88086 0
M  V30 1977 C 192.375 0.610596 3.33151 0
M  V30 1978 C 191.421 1.68937 3.91615 0
M  V30 1979 S 192.254 3.28437 4.22953 0
M  V30 1980 C 193.41 2.85283 5.57103 0
M  V30 1981 H 193.643 1.99425 2.20493 0
M  V30 1982 H 191.176 1.12071 1.06205 0
M  V30 1983 H 193.134 0.357778 4.08938 0
M  V30 1984 H 191.795 -0.303364 3.12632 0
M  V30 1985 H 190.988 1.32619 4.86239 0
M  V30 1986 H 190.59 1.89478 3.2245 0
M  V30 1987 H 192.882 2.3121 6.36827 0
M  V30 1988 H 193.825 3.7869 5.98331 0
M  V30 1989 H 194.233 2.24118 5.18104 0
M  V30 1990 N 193.631 -1.12557 1.10312 0
M  V30 1991 C 194.579 -2.20325 0.745629 0
M  V30 1992 C 195.573 -1.67429 -0.25763 0
M  V30 1993 O 196.779 -1.79612 -0.118132 0
M  V30 1994 H 193.154 -0.718118 0.223182 0
M  V30 1995 H 195.125 -2.47733 1.66346 0
M  V30 1996 C 193.874 -3.47168 0.192262 0
M  V30 1997 H 193.197 -3.88215 0.955475 0
M  V30 1998 H 194.637 -4.23995 -0.0198274 0
M  V30 1999 C 193.096 -3.19298 -1.07472 0
M  V30 2000 O 193.626 -3.3891 -2.15645 0
M  V30 2001 N 191.832 -2.73113 -0.992847 0
M  V30 2002 H 191.379 -2.57354 -0.112474 0
M  V30 2003 H 191.337 -2.54842 -1.84127 0
M  V30 2004 N 195.109 -0.891671 -1.2995 0
M  V30 2005 C 196.525 -0.58662 -1.48428 0
M  V30 2006 C 196.725 0.873951 -1.81561 0
M  V30 2007 O 195.781 1.65471 -1.90724 0
M  V30 2008 C 197.094 -1.50553 -2.60296 0
M  V30 2009 C 198.642 -1.50988 -2.74175 0
M  V30 2010 C 199.117 -2.41488 -3.89163 0
M  V30 2011 N 200.608 -2.39489 -3.96483 0
M  V30 2012 C 201.343 -3.06223 -4.84784 0
M  V30 2013 N 200.839 -3.82206 -5.77833 0
M  V30 2014 N 202.632 -2.95421 -4.78208 0
M  V30 2015 H 194.783 -1.83644 -1.06718 0
M  V30 2016 H 197.046 -0.786455 -0.529332 0
M  V30 2017 H 196.752 -2.54581 -2.42654 0
M  V30 2018 H 196.626 -1.22008 -3.56923 0
M  V30 2019 H 199.013 -0.47708 -2.91218 0
M  V30 2020 H 199.094 -1.83567 -1.78148 0
M  V30 2021 H 198.738 -3.44857 -3.72876 0
M  V30 2022 H 198.668 -2.06222 -4.84541 0
M  V30 2023 H 201.159 -1.84278 -3.29924 0
M  V30 2024 H 201.472 -4.302 -6.41988 0
M  V30 2025 H 199.817 -3.86313 -5.77743 0
M  V30 2026 H 203.008 -2.35581 -4.04499 0
M  V30 2027 H 203.181 -3.47704 -5.46814 0
M  V30 2028 N 196.587 1.43421 -0.653314 0
M  V30 2029 C 197.833 2.02641 -0.175593 0
M  V30 2030 C 198.188 1.5062 1.19713 0
M  V30 2031 O 197.481 0.689697 1.78756 0
M  V30 2032 C 197.675 3.57176 -0.126623 0
M  V30 2033 C 197.504 4.24191 -1.49306 0
M  V30 2034 C 196.274 4.60257 -2.08547 0
M  V30 2035 C 198.472 4.53193 -2.43148 0
M  V30 2036 N 196.454 5.12345 -3.38194 0
M  V30 2037 C 197.825 5.06601 -3.57429 0
M  V30 2038 C 199.88 4.35161 -2.41949 0
M  V30 2039 C 198.583 5.43875 -4.70736 0
M  V30 2040 C 200.609 4.73498 -3.54336 0
M  V30 2041 C 199.971 5.27039 -4.67343 0
M  V30 2042 H 196.07 0.77441 -0.108686 0
M  V30 2043 H 198.654 1.74596 -0.861638 0
M  V30 2044 H 196.825 3.84784 0.528766 0
M  V30 2045 H 198.557 4.03078 0.36198 0
M  V30 2046 H 195.312 4.45302 -1.61255 0
M  V30 2047 H 195.736 5.42842 -4.04538 0
M  V30 2048 H 200.378 3.9304 -1.55818 0
M  V30 2049 H 198.096 5.8494 -5.57558 0
M  V30 2050 H 201.682 4.61241 -3.5461 0
M  V30 2051 H 200.562 5.56153 -5.52868 0
M  V30 2052 N 198.065 0.39524 1.52563 0
M  V30 2053 C 199.028 -0.425001 2.25225 0
M  V30 2054 C 200.028 -0.985266 1.27079 0
M  V30 2055 O 201.218 -0.866332 1.5113 0
M  V30 2056 C 198.35 -1.59686 3.01186 0
M  V30 2057 H 199.543 0.211233 2.99155 0
M  V30 2058 H 197.096 0.147472 1.55603 0
M  V30 2059 H 197.831 -2.27035 2.31572 0
M  V30 2060 H 197.616 -1.20176 3.73229 0
M  V30 2061 H 199.106 -2.17743 3.5634 0
M  V30 2062 N 199.544 -1.57102 0.125237 0
M  V30 2063 C 200.474 -2.18659 -0.819174 0
M  V30 2064 C 201.455 -1.12843 -1.27281 0
M  V30 2065 O 202.64 -1.41104 -1.33429 0
M  V30 2066 C 199.77 -2.79096 -2.06695 0
M  V30 2067 C 198.724 -3.90548 -1.75088 0
M  V30 2068 C 198.05 -4.37821 -3.06948 0
M  V30 2069 C 199.35 -5.12356 -1.01435 0
M  V30 2070 H 201.044 -2.9783 -0.306202 0
M  V30 2071 H 198.59 -1.4326 -0.145839 0
M  V30 2072 H 200.543 -3.2082 -2.73226 0
M  V30 2073 H 199.267 -1.97223 -2.60328 0
M  V30 2074 H 197.926 -3.49409 -1.10944 0
M  V30 2075 H 197.574 -3.52799 -3.58527 0
M  V30 2076 H 197.274 -5.12982 -2.86571 0
M  V30 2077 H 198.798 -4.822 -3.74587 0
M  V30 2078 H 200.212 -5.5106 -1.58132 0
M  V30 2079 H 198.609 -5.9314 -0.911319 0
M  V30 2080 H 199.679 -4.849 -0.00218681 0
M  V30 2081 N 201.022 0.148545 -1.56898 0
M  V30 2082 C 202.27 0.859717 -1.82902 0
M  V30 2083 C 202.591 1.81775 -0.70588 0
M  V30 2084 O 201.861 1.93994 0.272586 0
M  V30 2085 H 200.441 0.320469 -0.674766 0
M  V30 2086 H 203.103 0.142918 -1.94375 0
M  V30 2087 H 202.199 1.4229 -2.77777 0
M  V30 2088 N 202.5 1.5196 0.417844 0
M  V30 2089 C 203.448 1.75278 1.52907 0
M  V30 2090 C 204.442 0.619611 1.57662 0
M  V30 2091 O 205.648 0.801457 1.61173 0
M  V30 2092 H 202.023 0.554141 0.508362 0
M  V30 2093 H 203.994 2.68389 1.30422 0
M  V30 2094 C 202.743 1.91262 2.90369 0
M  V30 2095 H 202.066 2.77872 2.8745 0
M  V30 2096 H 203.506 2.11581 3.67436 0
M  V30 2097 C 201.965 0.677431 3.30019 0
M  V30 2098 O 202.495 -0.158799 4.01386 0
M  V30 2099 N 200.701 0.515851 2.85985 0
M  V30 2100 H 200.248 1.19744 2.28077 0
M  V30 2101 H 200.206 -0.309315 3.12875 0
M  V30 2102 N 203.978 -0.674533 1.42435 0
M  V30 2103 C 204.908 -1.80009 1.48724 0
M  V30 2104 C 205.889 -1.6659 0.343793 0
M  V30 2105 O 207.074 -1.86007 0.558137 0
M  V30 2106 C 204.204 -3.18306 1.38919 0
M  V30 2107 C 203.158 -3.46461 2.51294 0
M  V30 2108 C 202.484 -4.84335 2.26547 0
M  V30 2109 C 203.784 -3.43328 3.93603 0
M  V30 2110 H 205.478 -1.75004 2.42928 0
M  V30 2111 H 203.024 -0.840533 1.16923 0
M  V30 2112 H 204.977 -3.9678 1.41927 0
M  V30 2113 H 203.701 -3.2399 0.412094 0
M  V30 2114 H 202.36 -2.70348 2.47604 0
M  V30 2115 H 202.008 -4.86669 1.2713 0
M  V30 2116 H 201.708 -5.04136 3.01861 0
M  V30 2117 H 203.232 -5.65094 2.31304 0
M  V30 2118 H 204.646 -4.11772 3.98894 0
M  V30 2119 H 203.043 -3.74664 4.68771 0
M  V30 2120 H 204.113 -2.41897 4.20255 0
M  V30 2121 N 205.456 -1.28612 -0.910864 0
M  V30 2122 C 206.419 -1.12803 -1.9952 0
M  V30 2123 C 207.419 -0.0668264 -1.60661 0
M  V30 2124 O 208.609 -0.312847 -1.71368 0
M  V30 2125 C 205.741 -0.72254 -3.33155 0
M  V30 2126 H 206.934 -2.09109 -2.14973 0
M  V30 2127 H 204.487 -1.11639 -1.09391 0
M  V30 2128 H 205.222 0.241152 -3.23402 0
M  V30 2129 H 205.007 -1.48916 -3.62721 0
M  V30 2130 H 206.497 -0.634666 -4.12749 0
M  V30 2131 N 206.934 1.1197 -1.10907 0
M  V30 2132 C 208.174 1.85224 -0.864378 0
M  V30 2133 C 208.538 1.82411 0.599178 0
M  V30 2134 O 209.739 2.51057 0.960416 0
M  V30 2135 C 208.01 3.2868 -1.40371 0
M  V30 2136 S 209.569 4.1925 -1.29518 0
M  V30 2137 H 206.387 0.63878 -0.312219 0
M  V30 2138 H 208.989 1.3485 -1.41548 0
M  V30 2139 H 207.693 3.28289 -2.46281 0
M  V30 2140 H 207.224 3.84121 -0.849402 0
M  V30 2141 H 209.239 4.95539 -0.256059 0
M  V30 2142 N 208.412 0.89855 1.29475 0
M  V30 2143 C 209.689 0.443416 1.90508 0
M  V30 2144 C 210.069 -1.07685 1.81569 0
M  V30 2145 O 209.417 -1.9182 1.24166 0
M  V30 2146 C 209.627 0.956708 3.35631 0
M  V30 2147 C 210.975 0.999728 4.12663 0
M  V30 2148 O 211.999 0.904299 3.4453 0
M  V30 2149 O 210.858 1.14289 5.34416 0
M  V30 2150 H 207.952 0.138025 0.815401 0
M  V30 2151 H 210.498 0.98834 1.37949 0
M  V30 2152 H 209.27 2.00067 3.36287 0
M  V30 2153 H 208.893 0.391728 3.95666 0
M  V30 2154 N 209.89 -1.43072 0.660911 0
M  V30 2155 C 210.82 -2.33497 -0.0122829 0
M  V30 2156 C 211.801 -1.49903 -0.803925 0
M  V30 2157 O 212.986 -1.78546 -0.763864 0
M  V30 2158 C 210.116 -3.33363 -0.973994 0
M  V30 2159 C 209.07 -4.27003 -0.291928 0
M  V30 2160 C 208.396 -5.16967 -1.36562 0
M  V30 2161 C 209.696 -5.15816 0.820462 0
M  V30 2162 H 211.39 -2.90038 0.742873 0
M  V30 2163 H 208.936 -1.39461 0.358688 0
M  V30 2164 H 210.889 -3.95524 -1.45392 0
M  V30 2165 H 209.613 -2.75095 -1.7604 0
M  V30 2166 H 208.272 -3.66217 0.167623 0
M  V30 2167 H 207.92 -4.55034 -2.14366 0
M  V30 2168 H 207.62 -5.80441 -0.914454 0
M  V30 2169 H 209.144 -5.82003 -1.84675 0
M  V30 2170 H 210.558 -5.71742 0.422366 0
M  V30 2171 H 208.955 -5.8805 1.19656 0
M  V30 2172 H 210.025 -4.55045 1.67518 0
M  V30 2173 N 211.368 -0.403325 -1.52352 0
M  V30 2174 C 212.614 0.167015 -2.02713 0
M  V30 2175 C 212.969 1.43296 -1.28391 0
M  V30 2176 O 212.262 1.87796 -0.379885 0
M  V30 2177 C 212.456 0.474665 -3.54234 0
M  V30 2178 C 212.285 -0.759909 -4.43233 0
M  V30 2179 C 211.055 -1.28338 -4.88731 0
M  V30 2180 C 213.253 -1.63634 -4.87574 0
M  V30 2181 N 211.235 -2.47404 -5.6184 0
M  V30 2182 C 212.606 -2.67329 -5.59406 0
M  V30 2183 C 214.661 -1.65478 -4.69597 0
M  V30 2184 C 213.364 -3.72773 -6.15169 0
M  V30 2185 C 215.39 -2.69837 -5.26253 0
M  V30 2186 C 214.752 -3.72253 -5.98002 0
M  V30 2187 H 210.851 0.0228343 -0.781667 0
M  V30 2188 H 213.435 -0.556368 -1.86581 0
M  V30 2189 H 211.606 1.16709 -3.7045 0
M  V30 2190 H 213.338 1.03338 -3.91284 0
M  V30 2191 H 210.093 -0.842273 -4.6605 0
M  V30 2192 H 210.517 -3.07688 -6.0304 0
M  V30 2193 H 215.159 -0.876389 -4.13617 0
M  V30 2194 H 212.877 -4.51471 -6.70223 0
M  V30 2195 H 216.463 -2.72164 -5.14216 0
M  V30 2196 H 215.343 -4.51679 -6.41058 0
M  V30 2197 N 212.846 1.57033 -0.133567 0
M  V30 2198 C 213.776 2.1909 0.807567 0
M  V30 2199 C 214.757 1.13517 1.26681 0
M  V30 2200 O 215.942 1.41809 1.32679 0
M  V30 2201 C 213.072 2.80188 2.05212 0
M  V30 2202 C 212.026 3.91471 1.73015 0
M  V30 2203 C 211.352 4.39443 3.04622 0
M  V30 2204 C 212.652 5.12886 0.987168 0
M  V30 2205 H 214.346 2.97988 0.290403 0
M  V30 2206 H 211.892 1.43335 0.138239 0
M  V30 2207 H 213.845 3.22264 2.71521 0
M  V30 2208 H 212.569 1.98601 2.59278 0
M  V30 2209 H 211.228 3.49993 1.0909 0
M  V30 2210 H 210.876 3.54695 3.56651 0
M  V30 2211 H 210.576 5.14495 2.83847 0
M  V30 2212 H 212.1 4.8418 3.72024 0
M  V30 2213 H 213.514 5.51891 1.55208 0
M  V30 2214 H 211.911 5.93615 0.87985 0
M  V30 2215 H 212.981 4.84894 -0.0235286 0
M  V30 2216 N 214.325 -0.140222 1.56975 0
M  V30 2217 C 215.288 -1.15689 1.97861 0
M  V30 2218 C 216.288 -1.3549 0.865974 0
M  V30 2219 O 217.478 -1.32367 1.13246 0
M  V30 2220 C 214.61 -2.51582 2.30042 0
M  V30 2221 H 215.803 -0.805971 2.88867 0
M  V30 2222 H 213.356 -0.383801 1.51515 0
M  V30 2223 H 214.091 -2.91632 1.41849 0
M  V30 2224 H 213.876 -2.38569 3.11171 0
M  V30 2225 H 215.366 -3.24792 2.62488 0
M  V30 2226 N 215.803 -1.52179 -0.40978 0
M  V30 2227 C 217.052 -1.65434 -1.15388 0
M  V30 2228 C 217.365 -0.390056 -1.91671 0
M  V30 2229 O 218.571 -0.402399 -2.68501 0
M  V30 2230 C 217.027 -2.92279 -2.10003 0
M  V30 2231 C 216.635 -4.25813 -1.39239 0
M  V30 2232 C 218.379 -3.14897 -2.84675 0
M  V30 2233 C 216.286 -5.43782 -2.32498 0
M  V30 2234 H 215.216 -0.616267 -0.434432 0
M  V30 2235 H 217.867 -1.78666 -0.418401 0
M  V30 2236 H 216.249 -2.72744 -2.871 0
M  V30 2237 H 217.423 -4.55828 -0.675099 0
M  V30 2238 H 215.738 -4.09292 -0.766097 0
M  V30 2239 H 218.335 -4.0021 -3.54593 0
M  V30 2240 H 218.678 -2.29103 -3.47588 0
M  V30 2241 H 219.211 -3.34901 -2.14677 0
M  V30 2242 H 215.95 -6.3192 -1.74233 0
M  V30 2243 H 215.47 -5.18106 -3.02201 0
M  V30 2244 H 217.149 -5.76834 -2.93038 0
M  V30 2245 N 217.281 0.66697 -1.42791 0
M  V30 2246 C 218.558 1.4234 -1.34159 0
M  V30 2247 C 218.938 2.11093 0.0172729 0
M  V30 2248 O 218.286 2.03808 1.03318 0
M  V30 2249 C 218.496 2.41942 -2.51526 0
M  V30 2250 C 219.844 3.06353 -2.93995 0
M  V30 2251 O 220.868 2.52269 -2.51473 0
M  V30 2252 O 219.727 4.04376 -3.67617 0
M  V30 2253 H 216.821 0.635277 -0.529483 0
M  V30 2254 H 219.367 0.695034 -1.54814 0
M  V30 2255 H 218.139 1.89991 -3.42081 0
M  V30 2256 H 217.762 3.22249 -2.32898 0
M  V30 2257 N 218.759 1.29093 0.90403 0
M  V30 2258 C 219.989 1.19516 1.68522 0
M  V30 2259 C 220.397 -0.24738 1.87576 0
M  V30 2260 O 219.74 -1.17798 1.40959 0
M  V30 2261 C 219.802 1.83249 3.0929 0
M  V30 2262 C 219.466 3.32531 3.13484 0
M  V30 2263 C 220.463 4.28821 2.93953 0
M  V30 2264 C 218.148 3.73656 3.35688 0
M  V30 2265 C 220.142 5.64212 2.96553 0
M  V30 2266 C 217.829 5.0917 3.37919 0
M  V30 2267 C 218.827 6.04258 3.18373 0
M  V30 2268 O 218.515 7.37298 3.20385 0
M  V30 2269 H 218.247 0.415467 0.533257 0
M  V30 2270 H 220.801 1.70912 1.13922 0
M  V30 2271 H 219.031 1.26358 3.65473 0
M  V30 2272 H 220.72 1.68054 3.69476 0
M  V30 2273 H 221.486 3.98382 2.76616 0
M  V30 2274 H 217.365 3.00101 3.49943 0
M  V30 2275 H 220.909 6.38407 2.81216 0
M  V30 2276 H 216.806 5.39256 3.54787 0
M  V30 2277 H 217.574 7.46048 3.36681 0
M  V30 2278 N 220.237 -1.11381 1.11499 0
M  V30 2279 C 221.483 -1.83403 0.865512 0
M  V30 2280 C 221.816 -1.84459 -0.607329 0
M  V30 2281 O 221.091 -1.29811 -1.44842 0
M  V30 2282 C 221.374 -3.30552 1.42855 0
M  V30 2283 C 221.227 -3.37886 2.96906 0
M  V30 2284 C 222.546 -4.26643 1.08 0
M  V30 2285 H 219.665 -0.665879 0.31587 0
M  V30 2286 H 222.307 -1.30601 1.37998 0
M  V30 2287 H 220.457 -3.75648 0.990985 0
M  V30 2288 H 222.129 -3.01343 3.49271 0
M  V30 2289 H 220.372 -2.78088 3.32941 0
M  V30 2290 H 221.043 -4.41458 3.31389 0
M  V30 2291 H 223.519 -3.89729 1.45775 0
M  V30 2292 H 222.395 -5.27986 1.50072 0
M  V30 2293 H 222.656 -4.42099 -0.00915037 0
M  V30 2294 N 221.715 -0.905404 -1.28997 0
M  V30 2295 C 222.678 -0.392253 -2.25819 0
M  V30 2296 C 223.678 0.476753 -1.5357 0
M  V30 2297 O 224.868 0.280994 -1.71919 0
M  V30 2298 C 222 0.438588 -3.38067 0
M  V30 2299 H 223.193 -1.24743 -2.72725 0
M  V30 2300 H 220.746 -0.684051 -1.40536 0
M  V30 2301 H 221.481 1.31352 -2.96508 0
M  V30 2302 H 221.266 -0.184167 -3.91667 0
M  V30 2303 H 222.756 0.78873 -4.10084 0
M  V30 2304 N 223.193 1.4272 -0.668489 0
M  V30 2305 C 224.418 2.06484 -0.194758 0
M  V30 2306 C 224.843 1.49862 1.13679 0
M  V30 2307 O 224.201 0.614582 1.70565 0
M  V30 2308 C 224.249 3.60353 -0.133546 0
M  V30 2309 O 223.353 4.02464 0.899806 0
M  V30 2310 H 222.694 0.656137 -0.10188 0
M  V30 2311 H 225.224 1.82964 -0.915722 0
M  V30 2312 H 225.234 4.07976 0.0447041 0
M  V30 2313 H 223.909 4.00938 -1.1055 0
M  V30 2314 H 222.486 3.66402 0.693109 0
M  V30 2315 N 224.671 0.411399 1.52136 0
M  V30 2316 C 225.619 -0.427633 2.28635 0
M  V30 2317 C 226.613 -1.04383 1.33419 0
M  V30 2318 O 227.819 -0.981772 1.50868 0
M  V30 2319 H 224.194 -0.156689 0.735495 0
M  V30 2320 H 226.165 0.238761 2.97443 0
M  V30 2321 C 224.914 -1.53082 3.12188 0
M  V30 2322 H 224.237 -1.06601 3.85326 0
M  V30 2323 H 225.677 -2.09167 3.68816 0
M  V30 2324 C 224.136 -2.49946 2.25895 0
M  V30 2325 O 224.666 -3.53884 1.90076 0
M  V30 2326 N 222.872 -2.2021 1.8962 0
M  V30 2327 H 222.419 -1.35719 2.18948 0
M  V30 2328 H 222.377 -2.85266 1.32176 0
M  V30 2329 N 226.149 -1.5696 0.141893 0
M  V30 2330 C 227.112 -2.15316 -0.785587 0
M  V30 2331 C 228.112 -1.09366 -1.1788 0
M  V30 2332 O 229.302 -1.35031 -1.10056 0
M  V30 2333 C 226.434 -2.71211 -2.06537 0
M  V30 2334 H 227.627 -2.98608 -0.278041 0
M  V30 2335 H 225.18 -1.5593 -0.107519 0
M  V30 2336 H 225.915 -1.91571 -2.6167 0
M  V30 2337 H 225.7 -3.4872 -1.79268 0
M  V30 2338 H 227.19 -3.16189 -2.72789 0
M  V30 2339 N 227.627 0.131896 -1.57047 0
M  V30 2340 C 228.852 0.860418 -1.8871 0
M  V30 2341 C 229.277 1.73251 -0.73251 0
M  V30 2342 O 228.635 1.785 0.317429 0
M  V30 2343 C 228.683 1.68047 -3.19049 0
M  V30 2344 O 227.787 2.7862 -3.04047 0
M  V30 2345 H 227.128 0.238743 -0.619595 0
M  V30 2346 H 229.658 0.118169 -2.04258 0
M  V30 2347 H 229.668 2.07238 -3.51449 0
M  V30 2348 H 228.343 1.04018 -4.02682 0
M  V30 2349 H 226.92 2.42726 -2.83088 0
M  V30 2350 N 229.106 1.52395 0.401703 0
M  V30 2351 C 230.352 1.67065 1.14966 0
M  V30 2352 C 230.685 0.403052 1.89971 0
M  V30 2353 O 229.96 -0.598774 1.85054 0
M  V30 2354 C 230.243 2.8975 2.13815 0
M  V30 2355 C 230.096 4.26578 1.42658 0
M  V30 2356 C 231.415 3.07965 3.14397 0
M  V30 2357 H 228.534 0.607968 0.416587 0
M  V30 2358 H 231.176 1.84965 0.434511 0
M  V30 2359 H 229.326 2.74619 2.74803 0
M  V30 2360 H 230.998 4.53451 0.847329 0
M  V30 2361 H 229.241 4.27639 0.72849 0
M  V30 2362 H 229.912 5.08483 2.14823 0
M  V30 2363 H 232.388 3.22043 2.63491 0
M  V30 2364 H 231.264 3.95308 3.80819 0
M  V30 2365 H 231.525 2.21611 3.82545 0
M  V30 2366 N 230.584 -0.659388 1.43143 0
M  V30 2367 C 231.517 -1.78425 1.42267 0
M  V30 2368 C 232.495 -1.60085 0.284894 0
M  V30 2369 O 233.679 -1.82351 0.477527 0
M  V30 2370 C 230.806 -3.15642 1.22833 0
M  V30 2371 C 229.852 -3.52698 2.39806 0
M  V30 2372 S 230.685 -3.53372 4.02353 0
M  V30 2373 C 231.841 -4.93256 3.85291 0
M  V30 2374 H 232.074 -1.78897 2.37452 0
M  V30 2375 H 229.607 -0.831469 1.301 0
M  V30 2376 H 231.565 -3.94838 1.12308 0
M  V30 2377 H 230.226 -3.12739 0.29207 0
M  V30 2378 H 229.419 -4.52475 2.21996 0
M  V30 2379 H 229.021 -2.80899 2.46925 0
M  V30 2380 H 231.313 -5.81751 3.47235 0
M  V30 2381 H 232.256 -5.16115 4.84799 0
M  V30 2382 H 232.664 -4.665 3.17865 0
M  V30 2383 N 232.062 -1.29571 -0.897171 0
M  V30 2384 C 233.01 -1.14802 -2.02295 0
M  V30 2385 C 234.004 -0.0629637 -1.69283 0
M  V30 2386 O 235.21 -0.222945 -1.78614 0
M  V30 2387 H 231.585 -0.354692 -0.663097 0
M  V30 2388 H 233.556 -2.10108 -2.11889 0
M  V30 2389 C 232.305 -0.843966 -3.37302 0
M  V30 2390 H 231.628 -1.67093 -3.63208 0
M  V30 2391 H 233.068 -0.780672 -4.16751 0
M  V30 2392 C 231.527 0.452843 -3.33843 0
M  V30 2393 O 232.057 1.47813 -3.73516 0
M  V30 2394 N 230.263 0.459601 -2.86943 0
M  V30 2395 H 229.81 -0.375213 -2.54853 0
M  V30 2396 H 229.768 1.32726 -2.85011 0
M  V30 2397 N 233.54 1.10788 -1.12088 0
M  V30 2398 C 234.47 2.19083 -0.807755 0
M  V30 2399 C 235.451 1.6858 0.226859 0
M  V30 2400 O 236.636 1.93997 0.0888475 0
M  V30 2401 C 233.766 3.46344 -0.257576 0
M  V30 2402 C 232.72 4.101 -1.22483 0
M  V30 2403 C 232.046 5.32016 -0.535052 0
M  V30 2404 C 233.346 4.54236 -2.57811 0
M  V30 2405 H 235.04 2.45534 -1.71328 0
M  V30 2406 H 232.586 1.1801 -0.825205 0
M  V30 2407 H 234.539 4.21392 -0.0262679 0
M  V30 2408 H 233.263 3.19373 0.683278 0
M  V30 2409 H 231.922 3.37054 -1.44189 0
M  V30 2410 H 231.57 5.01319 0.410827 0
M  V30 2411 H 231.27 5.75625 -1.18024 0
M  V30 2412 H 232.794 6.09799 -0.312695 0
M  V30 2413 H 234.208 5.20575 -2.40155 0
M  V30 2414 H 232.605 5.08682 -3.18375 0
M  V30 2415 H 233.675 3.6734 -3.16528 0
M  V30 2416 N 235.018 0.912232 1.28515 0
M  V30 2417 C 235.948 0.416403 2.29757 0
M  V30 2418 C 236.929 -0.515194 1.6211 0
M  V30 2419 O 238.114 -0.423253 1.89532 0
M  V30 2420 C 235.244 -0.34572 3.45575 0
M  V30 2421 C 234.198 0.496599 4.25109 0
M  V30 2422 C 233.524 -0.393771 5.33248 0
M  V30 2423 C 234.824 1.75307 4.92001 0
M  V30 2424 H 236.518 1.26249 2.7148 0
M  V30 2425 H 234.064 0.608515 1.30511 0
M  V30 2426 H 236.017 -0.703422 4.15488 0
M  V30 2427 H 234.741 -1.2257 3.02728 0
M  V30 2428 H 233.4 0.8368 3.56922 0
M  V30 2429 H 233.048 -1.27225 4.86644 0
M  V30 2430 H 232.748 0.166209 5.87365 0
M  V30 2431 H 234.272 -0.747389 6.06009 0
M  V30 2432 H 235.686 1.46437 5.54283 0
M  V30 2433 H 234.083 2.25534 5.56106 0
M  V30 2434 H 235.153 2.48176 4.16577 0
M  V30 2435 N 236.496 -1.42363 0.676048 0
M  V30 2436 C 237.742 -2.0182 0.199125 0
M  V30 2437 C 238.075 -1.53339 -1.19168 0
M  V30 2438 O 237.35 -0.736124 -1.80032 0
M  V30 2439 C 237.633 -3.59331 0.235144 0
M  V30 2440 C 237.486 -4.17989 1.66149 0
M  V30 2441 C 238.805 -4.3813 -0.41595 0
M  V30 2442 H 235.924 -0.733293 0.0738311 0
M  V30 2443 H 238.566 -1.69368 0.86107 0
M  V30 2444 H 236.716 -3.87109 -0.328487 0
M  V30 2445 H 238.388 -4.0116 2.27747 0
M  V30 2446 H 236.631 -3.7377 2.20178 0
M  V30 2447 H 237.302 -5.27126 1.63837 0
M  V30 2448 H 239.778 -4.16051 0.0638529 0
M  V30 2449 H 238.654 -5.47717 -0.360115 0
M  V30 2450 H 238.915 -4.16101 -1.49373 0
M  V30 2451 N 237.974 -0.419461 -1.51915 0
M  V30 2452 C 239.223 0.154346 -2.01109 0
M  V30 2453 C 239.536 1.45338 -1.30905 0
M  V30 2454 O 240.742 2.10906 -1.7097 0
M  V30 2455 C 239.198 0.325615 -3.58424 0
M  V30 2456 C 238.806 -0.961934 -4.37551 0
M  V30 2457 C 240.55 0.854155 -4.15818 0
M  V30 2458 C 238.457 -0.757287 -5.86531 0
M  V30 2459 H 237.387 0.0614563 -0.751491 0
M  V30 2460 H 240.038 -0.54649 -1.75173 0
M  V30 2461 H 238.42 1.08903 -3.80731 0
M  V30 2462 H 239.594 -1.7323 -4.26999 0
M  V30 2463 H 237.909 -1.41766 -3.91524 0
M  V30 2464 H 240.506 1.02346 -5.24814 0
M  V30 2465 H 240.849 1.83172 -3.73837 0
M  V30 2466 H 241.382 0.149528 -3.97519 0
M  V30 2467 H 238.121 -1.70671 -6.32892 0
M  V30 2468 H 237.641 -0.0264061 -5.99794 0
M  V30 2469 H 239.32 -0.403482 -6.45741 0
M  V30 2470 N 239.452 1.56882 -0.150215 0
M  V30 2471 C 240.677 2.01027 0.510184 0
M  V30 2472 C 241.102 1.02966 1.57415 0
M  V30 2473 O 240.46 0.00590158 1.81299 0
M  V30 2474 C 240.508 3.43899 1.08472 0
M  V30 2475 O 239.612 3.4885 2.19948 0
M  V30 2476 H 238.953 0.652233 0.124451 0
M  V30 2477 H 241.483 2.03093 -0.247894 0
M  V30 2478 H 241.493 3.82766 1.41259 0
M  V30 2479 H 240.168 4.14776 0.305582 0
M  V30 2480 H 238.745 3.21827 1.88366 0
M  V30 2481 N 240.93 -0.123565 1.57115 0
M  V30 2482 C 242.177 -0.832153 1.84612 0
M  V30 2483 C 242.505 -1.80093 0.734627 0
M  V30 2484 O 241.76 -1.93766 -0.27442 0
M  V30 2485 C 242.059 -1.62016 3.18568 0
M  V30 2486 C 241.725 -0.796084 4.43817 0
M  V30 2487 C 240.387 -0.568816 4.77826 0
M  V30 2488 C 242.739 -0.221364 5.2073 0
M  V30 2489 C 240.067 0.243499 5.86194 0
M  V30 2490 C 242.419 0.578117 6.29953 0
M  V30 2491 C 241.083 0.815744 6.62497 0
M  V30 2492 H 240.353 -0.304507 0.675542 0
M  V30 2493 H 243 -0.0947248 1.91266 0
M  V30 2494 H 241.305 -2.42837 3.0747 0
M  V30 2495 H 243.002 -2.17231 3.37064 0
M  V30 2496 H 239.592 -0.983307 4.17168 0
M  V30 2497 H 243.776 -0.384173 4.94811 0
M  V30 2498 H 239.032 0.436871 6.09837 0
M  V30 2499 H 243.206 1.03046 6.88734 0
M  V30 2500 H 240.833 1.44701 7.46301 0
M  V30 2501 N 242.408 -1.52605 -0.393616 0
M  V30 2502 C 243.685 -1.58001 -1.15304 0
M  V30 2503 C 244.065 -0.370385 -2.07825 0
M  V30 2504 O 243.413 0.641638 -2.19306 0
M  V30 2505 C 243.623 -2.91652 -1.91677 0
M  V30 2506 C 244.971 -3.4522 -2.47201 0
M  V30 2507 O 245.995 -2.93495 -2.01839 0
M  V30 2508 O 244.854 -4.35579 -3.3005 0
M  V30 2509 H 241.948 -0.637068 -0.527327 0
M  V30 2510 H 244.494 -1.64939 -0.399141 0
M  V30 2511 H 243.266 -3.71136 -1.23992 0
M  V30 2512 H 242.889 -2.88077 -2.74039 0
M  V30 2513 N 243.887 0.651787 -1.4349 0
M  V30 2514 C 245.303 0.96762 -1.26922 0
M  V30 2515 C 245.503 2.00602 -0.189982 0
M  V30 2516 O 244.559 2.48793 0.431107 0
M  V30 2517 C 245.872 1.45052 -2.63401 0
M  V30 2518 C 247.42 1.5671 -2.70945 0
M  V30 2519 C 247.895 2.0839 -4.07845 0
M  V30 2520 N 249.386 2.1569 -4.09917 0
M  V30 2521 C 250.121 2.56804 -5.12679 0
M  V30 2522 N 249.617 2.97203 -6.25813 0
M  V30 2523 N 251.41 2.56756 -5.00033 0
M  V30 2524 H 243.561 -0.0353158 -2.12371 0
M  V30 2525 H 245.824 0.0467858 -0.946845 0
M  V30 2526 H 245.53 0.761926 -3.43348 0
M  V30 2527 H 245.404 2.42529 -2.88894 0
M  V30 2528 H 247.791 2.2467 -1.9133 0
M  V30 2529 H 247.872 0.57662 -2.49216 0
M  V30 2530 H 247.516 1.41031 -4.87927 0
M  V30 2531 H 247.446 3.08271 -4.26938 0
M  V30 2532 H 249.937 1.87237 -3.28254 0
M  V30 2533 H 250.25 3.27328 -7.00055 0
M  V30 2534 H 248.595 2.95004 -6.29283 0
M  V30 2535 H 251.786 2.24572 -4.10713 0
M  V30 2536 H 251.959 2.88475 -5.80247 0
M  V30 2537 N 245.365 1.30045 0.890287 0
M  V30 2538 C 246.595 1.21296 1.67245 0
M  V30 2539 C 247.003 -0.227471 1.87828 0
M  V30 2540 O 246.346 -1.16296 1.422 0
M  V30 2541 C 246.408 1.86519 3.07329 0
M  V30 2542 C 246.072 3.35837 3.09939 0
M  V30 2543 C 247.069 4.31915 2.89389 0
M  V30 2544 C 244.754 3.77196 3.31706 0
M  V30 2545 C 246.748 5.67325 2.90552 0
M  V30 2546 C 244.435 5.12725 3.32499 0
M  V30 2547 C 245.433 6.076 3.11947 0
M  V30 2548 O 245.121 7.40655 3.12547 0
M  V30 2549 H 244.853 0.4211 0.528821 0
M  V30 2550 H 247.407 1.72111 1.12103 0
M  V30 2551 H 245.637 1.30228 3.64112 0
M  V30 2552 H 247.326 1.71963 3.67673 0
M  V30 2553 H 248.092 4.01294 2.72375 0
M  V30 2554 H 243.971 3.03796 3.4674 0
M  V30 2555 H 247.515 6.41354 2.74429 0
M  V30 2556 H 243.412 5.42988 3.49047 0
M  V30 2557 H 244.18 7.49577 3.28749 0
M  V30 2558 N 246.843 -1.10192 1.12674 0
M  V30 2559 C 248.09 -1.82205 0.883606 0
M  V30 2560 C 248.418 -1.8532 -0.590492 0
M  V30 2561 O 247.673 -1.31137 -1.45264 0
M  V30 2562 C 247.972 -3.28552 1.4067 0
M  V30 2563 C 247.638 -3.45582 2.89627 0
M  V30 2564 C 246.3 -3.49937 3.30299 0
M  V30 2565 C 248.652 -3.50768 3.85501 0
M  V30 2566 C 245.98 -3.57049 4.65546 0
M  V30 2567 C 248.332 -3.59414 5.20581 0
M  V30 2568 C 246.996 -3.62034 5.60792 0
M  V30 2569 H 246.266 -0.666735 0.323334 0
M  V30 2570 H 248.913 -1.29868 1.40736 0
M  V30 2571 H 247.218 -3.83473 0.80347 0
M  V30 2572 H 248.915 -3.82788 1.19475 0
M  V30 2573 H 245.505 -3.42871 2.57172 0
M  V30 2574 H 249.689 -3.46651 3.55171 0
M  V30 2575 H 244.945 -3.57361 4.96088 0
M  V30 2576 H 249.119 -3.62371 5.94693 0
M  V30 2577 H 246.746 -3.67298 6.6558 0
M  V30 2578 N 248.321 -0.919034 -1.28029 0
M  V30 2579 C 249.546 -0.570357 -1.99403 0
M  V30 2580 C 249.971 0.842486 -1.68178 0
M  V30 2581 O 249.329 1.56391 -0.917141 0
M  V30 2582 C 249.377 -0.792541 -3.51783 0
M  V30 2583 O 248.481 0.145988 -4.12142 0
M  V30 2584 H 247.822 -0.220555 -0.6263 0
M  V30 2585 H 250.352 -1.23592 -1.63053 0
M  V30 2586 H 250.362 -0.704708 -4.01868 0
M  V30 2587 H 249.037 -1.82247 -3.73844 0
M  V30 2588 H 247.614 0.00897528 -3.72899 0
M  V30 2589 N 249.799 1.42003 -0.683588 0
M  V30 2590 C 251.048 2.00638 -0.206681 0
M  V30 2591 C 251.361 1.5472 1.19671 0
M  V30 2592 O 252.567 2.05833 1.77045 0
M  V30 2593 C 251.023 3.58487 -0.318632 0
M  V30 2594 C 250.631 4.1339 -1.72663 0
M  V30 2595 C 252.375 4.24384 0.0991141 0
M  V30 2596 C 250.282 5.63633 -1.79087 0
M  V30 2597 H 249.212 0.750408 -0.0735107 0
M  V30 2598 H 251.863 1.62624 -0.850048 0
M  V30 2599 H 250.245 3.94047 0.392781 0
M  V30 2600 H 251.419 3.89273 -2.46583 0
M  V30 2601 H 249.734 3.59976 -2.09299 0
M  V30 2602 H 252.331 5.34652 0.0713833 0
M  V30 2603 H 252.674 4.00505 1.13586 0
M  V30 2604 H 253.207 3.93816 -0.561599 0
M  V30 2605 H 249.946 5.92323 -2.80774 0
M  V30 2606 H 249.466 5.89714 -1.09535 0
M  V30 2607 H 251.145 6.28201 -1.5483 0
M  V30 2608 N 251.277 0.427512 1.51691 0
M  V30 2609 C 252.505 -0.141191 2.06418 0
M  V30 2610 C 252.92 -1.37303 1.29589 0
M  V30 2611 O 252.277 -1.79059 0.352732 0
M  V30 2612 C 252.328 -0.473266 3.58389 0
M  V30 2613 O 252.049 0.709673 4.32314 0
M  V30 2614 C 253.55 -1.09371 4.29596 0
M  V30 2615 H 250.77 -0.0122747 0.670888 0
M  V30 2616 H 253.314 0.603764 1.95384 0
M  V30 2617 H 251.469 -1.16812 3.69369 0
M  V30 2618 H 251.883 0.42807 5.2275 0
M  V30 2619 H 253.357 -1.27613 5.37046 0
M  V30 2620 H 253.834 -2.072 3.87253 0
M  V30 2621 H 254.44 -0.43853 4.23033 0
M  V30 2622 N 252.755 -1.56801 0.158532 0
M  V30 2623 C 254.171 -1.5837 -0.197774 0
M  V30 2624 C 254.371 -1.17334 -1.63814 0
M  V30 2625 O 253.427 -0.878988 -2.36707 0
M  V30 2626 C 254.74 -3.00615 0.0714459 0
M  V30 2627 C 256.288 -3.12999 0.00864533 0
M  V30 2628 C 256.763 -4.57313 0.250685 0
M  V30 2629 N 258.254 -4.62777 0.198014 0
M  V30 2630 C 258.989 -5.72271 0.359642 0
M  V30 2631 N 258.485 -6.90371 0.579625 0
M  V30 2632 N 260.278 -5.61318 0.296438 0
M  V30 2633 H 252.429 -1.81765 1.09887 0
M  V30 2634 H 254.692 -0.841849 0.435884 0
M  V30 2635 H 254.398 -3.35068 1.06874 0
M  V30 2636 H 254.272 -3.71683 -0.642757 0
M  V30 2637 H 256.659 -2.7838 -0.979217 0
M  V30 2638 H 256.74 -2.44393 0.755359 0
M  V30 2639 H 256.384 -4.92639 1.2357 0
M  V30 2640 H 256.314 -5.24061 -0.516489 0
M  V30 2641 H 258.805 -3.77885 0.0331115 0
M  V30 2642 H 259.118 -7.69689 0.69275 0
M  V30 2643 H 257.463 -6.92264 0.616087 0
M  V30 2644 H 260.654 -4.67932 0.125258 0
M  V30 2645 H 260.827 -6.46599 0.425831 0
M  V30 2646 N 254.233 0.115231 -1.57178 0
M  V30 2647 C 255.644 0.67197 -1.74188 0
M  V30 2648 C 255.995 1.80125 -0.777777 0
M  V30 2649 O 255.12 2.16346 0.0484376 0
M  V30 2650 C 255.715 1.22573 -3.1585 0
M  V30 2651 C 254.274 1.72872 -3.34353 0
M  V30 2652 C 253.421 0.629972 -2.70049 0
M  V30 2653 H 256.372 -0.110712 -1.58313 0
M  V30 2654 H 256.393 2.09535 -3.17609 0
M  V30 2655 H 255.905 0.403598 -3.85996 0
M  V30 2656 H 254.006 2.5755 -2.69256 0
M  V30 2657 H 254.119 1.83557 -4.42542 0
M  V30 2658 H 252.483 1.0645 -2.31388 0
M  V30 2659 H 253.266 -0.181241 -3.42821 0
M  V30 2660 N 255.711 1.52812 0.385517 0
M  V30 2661 C 256.641 1.80808 1.47752 0
M  V30 2662 C 257.622 0.660318 1.5676 0
M  V30 2663 O 258.807 0.908246 1.71652 0
M  V30 2664 C 255.937 1.98008 2.85324 0
M  V30 2665 C 254.891 3.13709 2.91154 0
M  V30 2666 C 254.217 3.16169 4.31209 0
M  V30 2667 C 255.517 4.52709 2.60483 0
M  V30 2668 H 257.211 2.72253 1.24573 0
M  V30 2669 H 254.757 1.31003 0.597839 0
M  V30 2670 H 256.71 2.16176 3.61726 0
M  V30 2671 H 255.434 1.03255 3.09848 0
M  V30 2672 H 254.093 2.95329 2.17201 0
M  V30 2673 H 253.741 2.19092 4.52778 0
M  V30 2674 H 253.441 3.93894 4.36029 0
M  V30 2675 H 254.965 3.36496 5.09512 0
M  V30 2676 H 256.379 4.71173 3.26602 0
M  V30 2677 H 254.776 5.32528 2.76648 0
M  V30 2678 H 255.846 4.59186 1.55809 0
M  V30 2679 N 257.189 -0.644168 1.43834 0
M  V30 2680 C 258.417 -1.43147 1.49387 0
M  V30 2681 C 258.832 -1.88452 0.114583 0
M  V30 2682 O 258.189 -1.60047 -0.876989 0
M  V30 2683 C 258.24 -2.66046 2.44748 0
M  V30 2684 O 257.961 -2.22633 3.77314 0
M  V30 2685 C 259.462 -3.59311 2.59635 0
M  V30 2686 H 256.682 -0.439447 0.507077 0
M  V30 2687 H 259.226 -0.78895 1.88669 0
M  V30 2688 H 257.381 -3.26418 2.08638 0
M  V30 2689 H 257.795 -3.02216 4.28679 0
M  V30 2690 H 259.269 -4.42187 3.30416 0
M  V30 2691 H 259.746 -4.07259 1.64427 0
M  V30 2692 H 260.352 -3.04816 2.96593 0
M  V30 2693 N 258.668 -1.30515 -0.883378 0
M  V30 2694 C 259.898 -1.22182 -1.66599 0
M  V30 2695 C 260.306 0.217507 -1.87946 0
M  V30 2696 O 259.649 1.1554 -1.42815 0
M  V30 2697 C 259.711 -1.88146 -3.06335 0
M  V30 2698 C 259.375 -3.37476 -3.08154 0
M  V30 2699 C 260.372 -4.33443 -2.87094 0
M  V30 2700 C 258.057 -3.7895 -3.29701 0
M  V30 2701 C 260.051 -5.68858 -2.8754 0
M  V30 2702 C 257.738 -5.14482 -3.29776 0
M  V30 2703 C 258.736 -6.09246 -3.0872 0
M  V30 2704 O 258.424 -7.42302 -3.08615 0
M  V30 2705 H 258.156 -0.423898 -0.52658 0
M  V30 2706 H 260.71 -1.72703 -1.11188 0
M  V30 2707 H 258.94 -1.32157 -3.63416 0
M  V30 2708 H 260.629 -1.7391 -3.66756 0
M  V30 2709 H 261.395 -4.02733 -2.70243 0
M  V30 2710 H 257.274 -3.05631 -3.45124 0
M  V30 2711 H 260.818 -6.428 -2.71024 0
M  V30 2712 H 256.715 -5.44832 -3.46163 0
M  V30 2713 H 257.483 -7.5131 -3.24769 0
M  V30 2714 N 260.146 1.09593 -1.13257 0
M  V30 2715 C 261.562 1.33775 -0.870423 0
M  V30 2716 C 261.762 1.95327 0.494926 0
M  V30 2717 O 260.818 2.19853 1.2418 0
M  V30 2718 C 262.131 2.25106 -1.99369 0
M  V30 2719 C 263.679 2.3862 -2.02558 0
M  V30 2720 C 264.154 3.33285 -3.14142 0
M  V30 2721 N 265.645 3.40857 -3.13641 0
M  V30 2722 C 266.38 4.14101 -3.96621 0
M  V30 2723 N 265.876 4.90157 -4.8961 0
M  V30 2724 N 267.669 4.09808 -3.84726 0
M  V30 2725 H 259.82 0.680136 -2.01216 0
M  V30 2726 H 262.083 0.362133 -0.876107 0
M  V30 2727 H 261.789 1.87103 -2.97801 0
M  V30 2728 H 261.663 3.25481 -1.90635 0
M  V30 2729 H 264.05 2.75887 -1.0474 0
M  V30 2730 H 264.131 1.38028 -2.15364 0
M  V30 2731 H 263.775 2.96741 -4.12198 0
M  V30 2732 H 263.705 4.33776 -2.98574 0
M  V30 2733 H 266.196 2.86624 -2.46282 0
M  V30 2734 H 266.509 5.4347 -5.49418 0
M  V30 2735 H 264.854 4.89251 -4.93617 0
M  V30 2736 H 268.045 3.4949 -3.11408 0
M  V30 2737 H 268.218 4.66629 -4.49623 0
M  V30 2738 N 261.624 0.925811 1.2754 0
M  V30 2739 C 262.587 0.428129 2.25166 0
M  V30 2740 C 263.587 -0.452261 1.54309 0
M  V30 2741 O 264.777 -0.253608 1.72344 0
M  V30 2742 C 261.909 -0.384749 3.38722 0
M  V30 2743 H 263.102 1.29066 2.70706 0
M  V30 2744 H 260.655 0.706323 1.3943 0
M  V30 2745 H 261.39 -1.26618 2.98561 0
M  V30 2746 H 261.175 0.246454 3.91325 0
M  V30 2747 H 262.665 -0.723389 4.11287 0
M  V30 2748 N 263.102 -1.41638 0.69111 0
M  V30 2749 C 264.049 -2.30789 0.0229705 0
M  V30 2750 C 265.019 -1.46863 -0.775911 0
M  V30 2751 O 266.204 -1.75661 -0.74485 0
M  V30 2752 C 263.344 -3.32868 -0.910666 0
M  V30 2753 C 262.457 -4.31875 -0.103874 0
M  V30 2754 C 261.592 -5.21024 -1.03475 0
M  V30 2755 C 260.631 -6.11702 -0.220598 0
M  V30 2756 N 259.768 -6.93349 -1.10504 0
M  V30 2757 H 264.608 -2.87366 0.788978 0
M  V30 2758 H 262.145 -1.41535 0.400794 0
M  V30 2759 H 264.103 -3.90596 -1.46597 0
M  V30 2760 H 262.733 -2.77851 -1.64312 0
M  V30 2761 H 261.785 -3.76131 0.568285 0
M  V30 2762 H 263.097 -4.96003 0.527504 0
M  V30 2763 H 262.251 -5.83565 -1.65943 0
M  V30 2764 H 260.99 -4.57112 -1.69999 0
M  V30 2765 H 259.995 -5.48215 0.417187 0
M  V30 2766 H 261.22 -6.77668 0.440784 0
M  V30 2767 H 259.166 -6.3205 -1.75638 0
M  V30 2768 H 259.083 -7.54146 -0.529125 0
M  V30 2769 H 260.351 -7.60362 -1.71667 0
M  V30 2770 N 264.58 -0.43555 -1.51462 0
M  V30 2771 C 265.996 -0.0877501 -1.59359 0
M  V30 2772 C 266.196 1.4027 -1.4466 0
M  V30 2773 O 265.252 2.17243 -1.28693 0
M  V30 2774 C 266.565 -0.606264 -2.94525 0
M  V30 2775 C 268.113 -0.566548 -3.0783 0
M  V30 2776 C 268.588 -1.06201 -4.45517 0
M  V30 2777 N 270.079 -1.01992 -4.51832 0
M  V30 2778 C 270.814 -1.37417 -5.5669 0
M  V30 2779 N 270.31 -1.80119 -6.68976 0
M  V30 2780 N 272.103 -1.29245 -5.47039 0
M  V30 2781 H 264.254 -1.40533 -1.59261 0
M  V30 2782 H 266.517 -0.578992 -0.750648 0
M  V30 2783 H 266.223 -1.64901 -3.10645 0
M  V30 2784 H 266.097 -0.0302097 -3.77188 0
M  V30 2785 H 268.484 0.467208 -2.91378 0
M  V30 2786 H 268.565 -1.17898 -2.2701 0
M  V30 2787 H 268.209 -2.09422 -4.62715 0
M  V30 2788 H 268.139 -0.426127 -5.24873 0
M  V30 2789 H 270.63 -0.706308 -3.71241 0
M  V30 2790 H 270.943 -2.05392 -7.45006 0
M  V30 2791 H 269.288 -1.84044 -6.70189 0
M  V30 2792 H 272.479 -0.957522 -4.58202 0
M  V30 2793 H 272.652 -1.57182 -6.28648 0
M  V30 2794 N 266.058 1.56714 -0.166846 0
M  V30 2795 C 267.286 2.0112 0.485644 0
M  V30 2796 C 267.701 1.04705 1.57106 0
M  V30 2797 O 267.058 0.0471923 1.82439 0
M  V30 2798 C 267.109 3.45361 1.06808 0
M  V30 2799 O 266.83 4.38092 0.0259995 0
M  V30 2800 C 268.331 4.05145 1.79924 0
M  V30 2801 H 265.551 0.65931 0.124704 0
M  V30 2802 H 268.095 2.02746 -0.267262 0
M  V30 2803 H 266.25 3.44524 1.7715 0
M  V30 2804 H 266.664 5.22519 0.455398 0
M  V30 2805 H 268.138 5.08009 2.15942 0
M  V30 2806 H 268.615 3.46982 2.69258 0
M  V30 2807 H 269.221 4.09672 1.14234 0
M  V30 2808 N 267.536 -0.106894 1.57237 0
M  V30 2809 C 268.764 -0.826389 1.8968 0
M  V30 2810 C 269.179 -1.72856 0.759353 0
M  V30 2811 O 268.536 -1.80503 -0.269263 0
M  V30 2812 C 268.587 -1.64967 3.21665 0
M  V30 2813 O 268.308 -0.783804 4.31031 0
M  V30 2814 C 269.809 -2.47326 3.67892 0
M  V30 2815 H 267.029 -0.236927 0.627779 0
M  V30 2816 H 269.573 -0.0876593 2.04312 0
M  V30 2817 H 267.728 -2.34103 3.08666 0
M  V30 2818 H 268.142 -1.35284 5.06753 0
M  V30 2819 H 269.616 -3.00604 4.6297 0
M  V30 2820 H 270.093 -3.25247 2.95146 0
M  V30 2821 H 270.699 -1.83411 3.83719 0
M  V30 2822 N 269.014 -1.53014 -0.377408 0
M  V30 2823 C 269.961 -1.78616 -1.46168 0
M  V30 2824 C 270.931 -0.629917 -1.53692 0
M  V30 2825 O 272.116 -0.870861 -1.69766 0
M  V30 2826 C 269.256 -1.97123 -2.8326 0
M  V30 2827 C 268.369 -3.24831 -2.84796 0
M  V30 2828 C 267.504 -3.33591 -4.13389 0
M  V30 2829 C 266.543 -4.55377 -4.09021 0
M  V30 2830 N 265.68 -4.61355 -5.29241 0
M  V30 2831 H 270.52 -2.71142 -1.23637 0
M  V30 2832 H 268.057 -1.34326 -0.599577 0
M  V30 2833 H 270.015 -2.05839 -3.62886 0
M  V30 2834 H 268.645 -1.07946 -3.04216 0
M  V30 2835 H 267.697 -3.25128 -1.97474 0
M  V30 2836 H 269.009 -4.14523 -2.77439 0
M  V30 2837 H 268.163 -3.41554 -5.01424 0
M  V30 2838 H 266.902 -2.41894 -4.23484 0
M  V30 2839 H 265.907 -4.47527 -3.19373 0
M  V30 2840 H 267.132 -5.48402 -4.00539 0
M  V30 2841 H 265.078 -3.72554 -5.39944 0
M  V30 2842 H 264.995 -5.44935 -5.24006 0
M  V30 2843 H 266.263 -4.73586 -6.19141 0
M  V30 2844 N 270.492 0.636531 -1.44174 0
M  V30 2845 C 271.908 0.954104 -1.27941 0
M  V30 2846 C 272.108 2.0039 -0.211248 0
M  V30 2847 O 271.164 2.49236 0.404695 0
M  V30 2848 C 272.477 1.4225 -2.64925 0
M  V30 2849 C 274.025 1.53827 -2.72592 0
M  V30 2850 C 274.5 2.04053 -4.10032 0
M  V30 2851 N 275.991 2.11331 -4.12182 0
M  V30 2852 C 276.726 2.51352 -5.15374 0
M  V30 2853 N 276.222 2.90549 -6.2893 0
M  V30 2854 N 278.015 2.51438 -5.02728 0
M  V30 2855 H 270.166 -0.0578386 -2.12321 0
M  V30 2856 H 272.429 0.0367406 -0.947288 0
M  V30 2857 H 272.135 0.725466 -3.44136 0
M  V30 2858 H 272.009 2.39451 -2.9145 0
M  V30 2859 H 274.396 2.22628 -1.93702 0
M  V30 2860 H 274.477 0.550154 -2.49814 0
M  V30 2861 H 274.121 1.35848 -4.89395 0
M  V30 2862 H 274.051 3.03726 -4.30184 0
M  V30 2863 H 276.542 1.83745 -3.30222 0
M  V30 2864 H 276.855 3.19884 -7.03487 0
M  V30 2865 H 275.2 2.88313 -6.32377 0
M  V30 2866 H 278.391 2.20203 -4.13072 0
M  V30 2867 H 278.564 2.82304 -5.83274 0
M  V30 2868 N 271.97 1.30982 0.876444 0
M  V30 2869 C 272.933 1.18054 1.96459 0
M  V30 2870 C 273.933 0.109399 1.60427 0
M  V30 2871 O 275.123 0.358173 1.70478 0
M  V30 2872 C 272.255 0.810616 3.31122 0
M  V30 2873 H 273.448 2.14735 2.09354 0
M  V30 2874 H 271.001 1.145 1.06392 0
M  V30 2875 H 271.736 -0.155322 3.23928 0
M  V30 2876 H 271.521 1.58481 3.58645 0
M  V30 2877 H 273.011 0.743876 4.10921 0
M  V30 2878 N 273.449 -1.08991 1.13837 0
M  V30 2879 C 274.697 -1.80899 0.901098 0
M  V30 2880 C 275.018 -1.86356 -0.574134 0
M  V30 2881 O 274.288 -1.35235 -1.41733 0
M  V30 2882 H 272.868 -0.669966 0.330386 0
M  V30 2883 H 275.53 -1.318 1.43578 0
M  V30 2884 H 274.626 -2.83929 1.29578 0
M  V30 2885 N 274.927 -0.932562 -1.27047 0
M  V30 2886 C 276.173 -0.576412 -1.94436 0
M  V30 2887 C 276.506 0.880891 -1.73072 0
M  V30 2888 O 275.781 1.62905 -1.06264 0
M  V30 2889 C 276.064 -0.909031 -3.48437 0
M  V30 2890 C 275.917 -2.42044 -3.79123 0
M  V30 2891 C 277.236 -0.418341 -4.38107 0
M  V30 2892 H 274.355 -0.210888 -0.706184 0
M  V30 2893 H 276.997 -1.16522 -1.50075 0
M  V30 2894 H 275.147 -0.407947 -3.86352 0
M  V30 2895 H 276.819 -2.99359 -3.50973 0
M  V30 2896 H 275.062 -2.86758 -3.25503 0
M  V30 2897 H 275.733 -2.6037 -4.86736 0
M  V30 2898 H 278.209 -0.847856 -4.0737 0
M  V30 2899 H 277.085 -0.679981 -5.44672 0
M  V30 2900 H 277.346 0.681642 -4.36814 0
M  V30 2901 N 276.405 1.4127 -0.698611 0
M  V30 2902 C 277.338 2.28195 0.0153898 0
M  V30 2903 C 278.316 1.42402 0.784883 0
M  V30 2904 O 279.5 1.71828 0.775067 0
M  V30 2905 C 276.627 3.22685 1.02918 0
M  V30 2906 C 275.673 4.25041 0.352501 0
M  V30 2907 S 276.506 5.27757 -0.907322 0
M  V30 2908 C 277.662 6.25812 0.104796 0
M  V30 2909 H 277.895 2.88403 -0.721858 0
M  V30 2910 H 275.428 1.46452 -0.488996 0
M  V30 2911 H 277.386 3.77655 1.60893 0
M  V30 2912 H 276.047 2.61566 1.73902 0
M  V30 2913 H 275.24 4.91437 1.11828 0
M  V30 2914 H 274.842 3.73682 -0.154254 0
M  V30 2915 H 277.134 6.70705 0.957103 0
M  V30 2916 H 278.077 7.06149 -0.525323 0
M  V30 2917 H 278.485 5.62615 0.460931 0
M  V30 2918 N 277.883 0.443576 1.51229 0
M  V30 2919 C 279.132 -0.122332 2.01329 0
M  V30 2920 C 279.445 -1.43237 1.33201 0
M  V30 2921 O 280.651 -2.0816 1.74304 0
M  V30 2922 C 279.107 -0.268551 3.58897 0
M  V30 2923 C 278.715 1.03142 4.35965 0
M  V30 2924 C 280.459 -0.787894 4.17124 0
M  V30 2925 C 278.366 0.850504 5.85252 0
M  V30 2926 H 277.296 -0.0494929 0.752374 0
M  V30 2927 H 279.947 0.574289 1.74282 0
M  V30 2928 H 278.329 -1.02832 3.82415 0
M  V30 2929 H 279.503 1.80001 4.24189 0
M  V30 2930 H 277.818 1.47977 3.89219 0
M  V30 2931 H 280.415 -0.939841 5.26375 0
M  V30 2932 H 280.758 -1.77201 3.76703 0
M  V30 2933 H 281.291 -0.0862669 3.97706 0
M  V30 2934 H 278.03 1.80718 6.30096 0
M  V30 2935 H 277.55 0.121825 5.99676 0
M  V30 2936 H 279.229 0.506163 6.45017 0
M  V30 2937 N 279.361 -1.56624 0.175154 0
M  V30 2938 C 280.609 -1.96609 -0.467885 0
M  V30 2939 C 280.93 -1.06238 -1.63519 0
M  V30 2940 O 280.2 -0.129523 -1.95471 0
M  V30 2941 H 278.78 -0.726008 -0.175845 0
M  V30 2942 H 281.442 -1.93195 0.257234 0
M  V30 2943 H 280.538 -3.00989 -0.825342 0
M  V30 2944 N 280.839 0.0985539 -1.57292 0
M  V30 2945 C 281.769 1.12064 -2.04851 0
M  V30 2946 C 282.75 1.41981 -0.936767 0
M  V30 2947 O 283.935 1.52071 -1.20781 0
M  V30 2948 C 281.065 2.44144 -2.47004 0
M  V30 2949 C 280.019 2.28643 -3.6181 0
M  V30 2950 C 279.345 3.65869 -3.89929 0
M  V30 2951 C 280.645 1.72986 -4.92822 0
M  V30 2952 H 282.339 0.724979 -2.9049 0
M  V30 2953 H 279.885 0.34729 -1.39749 0
M  V30 2954 H 281.838 3.15914 -2.78884 0
M  V30 2955 H 280.562 2.85639 -1.5836 0
M  V30 2956 H 279.221 1.59318 -3.30172 0
M  V30 2957 H 278.869 4.04885 -2.98458 0
M  V30 2958 H 278.569 3.56344 -4.67218 0
M  V30 2959 H 280.093 4.39112 -4.2428 0
M  V30 2960 H 281.507 2.34593 -5.23105 0
M  V30 2961 H 279.904 1.74229 -5.74251 0
M  V30 2962 H 280.974 0.689007 -4.7998 0
M  V30 2963 N 282.317 1.53212 0.369288 0
M  V30 2964 C 283.28 1.7872 1.43498 0
M  V30 2965 C 284.28 0.657554 1.46741 0
M  V30 2966 O 285.47 0.925736 1.47566 0
M  V30 2967 C 282.602 1.90591 2.82645 0
M  V30 2968 H 283.795 2.73894 1.22156 0
M  V30 2969 H 281.348 1.44233 0.602203 0
M  V30 2970 H 282.083 0.974709 3.09306 0
M  V30 2971 H 281.868 2.72751 2.8169 0
M  V30 2972 H 283.358 2.11931 3.59826 0
M  V30 2973 N 283.795 -0.628877 1.44509 0
M  V30 2974 C 285.041 -1.38863 1.48623 0
M  V30 2975 C 285.396 -1.92038 0.117933 0
M  V30 2976 O 284.689 -1.70853 -0.86716 0
M  V30 2977 C 284.883 -2.56995 2.48371 0
M  V30 2978 C 284.712 -2.15385 3.94765 0
M  V30 2979 C 283.482 -2.02558 4.62924 0
M  V30 2980 C 285.68 -1.74158 4.83915 0
M  V30 2981 N 283.662 -1.54534 5.94132 0
M  V30 2982 C 285.033 -1.37396 6.04584 0
M  V30 2983 C 287.088 -1.61559 4.7096 0
M  V30 2984 C 285.791 -0.892948 7.13736 0
M  V30 2985 C 287.817 -1.14862 5.80139 0
M  V30 2986 C 287.179 -0.790516 6.9995 0
M  V30 2987 H 283.278 -0.502858 0.59888 0
M  V30 2988 H 285.862 -0.72121 1.8085 0
M  V30 2989 H 284.033 -3.21362 2.1813 0
M  V30 2990 H 285.765 -3.23801 2.42766 0
M  V30 2991 H 282.52 -2.23082 4.1777 0
M  V30 2992 H 282.944 -1.32815 6.63844 0
M  V30 2993 H 287.586 -1.87876 3.78764 0
M  V30 2994 H 285.304 -0.617291 8.05739 0
M  V30 2995 H 288.89 -1.05569 5.72142 0
M  V30 2996 H 287.77 -0.434713 7.82994 0
M  V30 2997 N 285.273 -1.31445 -0.869486 0
M  V30 2998 C 286.519 -1.21337 -1.62496 0
M  V30 2999 C 286.852 0.227872 -1.92858 0
M  V30 3000 O 286.127 1.16094 -1.56053 0
M  V30 3001 C 286.41 -2.05814 -2.95487 0
M  V30 3002 C 286.263 -3.5824 -2.72 0
M  V30 3003 C 287.582 -1.9079 -3.96594 0
M  V30 3004 H 284.701 -0.442135 -0.589649 0
M  V30 3005 H 287.343 -1.6124 -1.00507 0
M  V30 3006 H 285.493 -1.71913 -3.48394 0
M  V30 3007 H 287.165 -4.0228 -2.25762 0
M  V30 3008 H 285.408 -3.81647 -2.06224 0
M  V30 3009 H 286.079 -4.12657 -3.66631 0
M  V30 3010 H 288.555 -2.20459 -3.52898 0
M  V30 3011 H 287.431 -2.52199 -4.87531 0
M  V30 3012 H 287.692 -0.871341 -4.33428 0
M  V30 3013 N 286.751 1.08385 -1.14413 0
M  V30 3014 C 288 1.80153 -0.907076 0
M  V30 3015 C 288.313 1.87176 0.567851 0
M  V30 3016 O 289.519 2.55359 0.922172 0
M  V30 3017 C 287.975 3.23687 -1.57336 0
M  V30 3018 C 287.583 3.24897 -3.08457 0
M  V30 3019 C 289.327 4.00136 -1.41744 0
M  V30 3020 C 287.234 4.6302 -3.67921 0
M  V30 3021 H 286.164 0.675139 -0.335714 0
M  V30 3022 H 288.815 1.21733 -1.37307 0
M  V30 3023 H 287.197 3.82234 -1.03505 0
M  V30 3024 H 288.371 2.76055 -3.68958 0
M  V30 3025 H 286.686 2.61943 -3.2369 0
M  V30 3026 H 289.283 5.02201 -1.83572 0
M  V30 3027 H 289.626 4.14709 -0.363576 0
M  V30 3028 H 290.159 3.48058 -1.92614 0
M  V30 3029 H 286.898 4.5365 -4.73161 0
M  V30 3030 H 286.418 5.12143 -3.12201 0
M  V30 3031 H 288.097 5.31994 -3.68227 0
M  V30 3032 N 288.23 0.939286 1.26551 0
M  V30 3033 C 289.455 0.602008 1.98471 0
M  V30 3034 C 289.88 -0.815624 1.69497 0
M  V30 3035 O 289.238 -1.54912 0.941905 0
M  V30 3036 C 289.286 0.848407 3.50477 0
M  V30 3037 O 288.39 -0.0804009 4.12322 0
M  V30 3038 H 287.731 0.23049 0.622712 0
M  V30 3039 H 290.261 1.2617 1.61066 0
M  V30 3040 H 290.271 0.768553 4.00696 0
M  V30 3041 H 288.946 1.88171 3.70897 0
M  V30 3042 H 287.523 0.0503508 3.72866 0
M  V30 3043 N 289.708 -1.40897 0.706093 0
M  V30 3044 C 290.955 -2.01054 0.241531 0
M  V30 3045 C 291.283 -1.55956 -1.16223 0
M  V30 3046 O 290.538 -0.766336 -1.80072 0
M  V30 3047 C 290.837 -3.5646 0.259099 0
M  V30 3048 C 290.503 -4.21106 1.61184 0
M  V30 3049 C 289.165 -4.38479 1.98216 0
M  V30 3050 C 291.517 -4.57256 2.50132 0
M  V30 3051 C 288.845 -4.89282 3.2376 0
M  V30 3052 C 291.197 -5.09454 3.7502 0
M  V30 3053 C 289.861 -5.25037 4.12181 0
M  V30 3054 H 289.131 -0.73571 0.0883825 0
M  V30 3055 H 291.778 -1.68645 0.907257 0
M  V30 3056 H 290.083 -3.88721 -0.490189 0
M  V30 3057 H 291.78 -4.00826 -0.11804 0
M  V30 3058 H 288.37 -4.07966 1.31384 0
M  V30 3059 H 292.554 -4.43479 2.228 0
M  V30 3060 H 287.81 -4.99531 3.52532 0
M  V30 3061 H 291.984 -5.36404 4.44121 0
M  V30 3062 H 289.611 -5.64164 5.09532 0
M  V30 3063 N 291.186 -0.45159 -1.50991 0
M  V30 3064 C 292.432 0.110237 -2.025 0
M  V30 3065 C 292.765 1.41109 -1.33424 0
M  V30 3066 O 292.04 1.89135 -0.453659 0
M  V30 3067 C 292.323 0.314271 -3.58726 0
M  V30 3068 C 292.176 -1.00623 -4.38401 0
M  V30 3069 C 293.495 1.07767 -4.26702 0
M  V30 3070 H 290.614 0.0385897 -0.735989 0
M  V30 3071 H 293.256 -0.593374 -1.80497 0
M  V30 3072 H 291.406 0.913601 -3.77605 0
M  V30 3073 H 293.078 -1.64064 -4.31139 0
M  V30 3074 H 291.321 -1.6075 -4.02917 0
M  V30 3075 H 291.992 -0.817341 -5.45915 0
M  V30 3076 H 294.468 0.56986 -4.12179 0
M  V30 3077 H 293.344 1.18921 -5.35863 0
M  V30 3078 H 293.605 2.10939 -3.88532 0
M  V30 3079 N 292.664 1.56529 -0.183458 0
M  V30 3080 C 293.594 2.21549 0.737456 0
M  V30 3081 C 294.575 1.17489 1.23005 0
M  V30 3082 O 295.76 1.45959 1.281 0
M  V30 3083 C 292.89 2.86575 1.96194 0
M  V30 3084 C 291.844 3.96778 1.60473 0
M  V30 3085 C 291.17 4.48911 2.90487 0
M  V30 3086 C 292.47 5.15767 0.823497 0
M  V30 3087 H 294.164 2.98761 0.195453 0
M  V30 3088 H 291.71 1.43702 0.0925686 0
M  V30 3089 H 293.663 3.30739 2.61131 0
M  V30 3090 H 292.387 2.06749 2.52828 0
M  V30 3091 H 291.046 3.53286 0.978997 0
M  V30 3092 H 290.694 3.65862 3.45186 0
M  V30 3093 H 290.394 5.23265 2.67335 0
M  V30 3094 H 291.918 4.95771 3.56432 0
M  V30 3095 H 293.332 5.56549 1.37571 0
M  V30 3096 H 291.729 5.96114 0.690551 0
M  V30 3097 H 292.799 4.84574 -0.177782 0
M  V30 3098 N 294.142 -0.090211 1.57342 0
M  V30 3099 C 295.388 -0.788838 1.8748 0
M  V30 3100 C 295.743 -1.76105 0.7749 0
M  V30 3101 O 295.036 -1.90302 -0.222663 0
M  V30 3102 C 295.23 -1.55222 3.21933 0
M  V30 3103 C 295.059 -0.655441 4.44898 0
M  V30 3104 C 293.829 -0.299325 5.04413 0
M  V30 3105 C 296.027 0.0397458 5.14285 0
M  V30 3106 N 294.009 0.605108 6.10911 0
M  V30 3107 C 295.38 0.802061 6.1479 0
M  V30 3108 C 297.435 0.113154 4.97771 0
M  V30 3109 C 296.138 1.63093 7.00566 0
M  V30 3110 C 298.164 0.928942 5.84059 0
M  V30 3111 C 297.526 1.67936 6.84088 0
M  V30 3112 H 293.625 -0.26467 0.735849 0
M  V30 3113 H 296.209 -0.0511453 1.94633 0
M  V30 3114 H 294.38 -2.26076 3.15823 0
M  V30 3115 H 296.112 -2.19843 3.39781 0
M  V30 3116 H 292.867 -0.648079 4.69145 0
M  V30 3117 H 293.291 1.05002 6.68808 0
M  V30 3118 H 297.933 -0.452676 4.2037 0
M  V30 3119 H 295.651 2.20781 7.77355 0
M  V30 3120 H 299.237 0.988478 5.73341 0
M  V30 3121 H 298.117 2.30044 7.49699 0
M  V30 3122 N 295.62 -1.53406 -0.361157 0
M  V30 3123 C 296.583 -1.79479 -1.42548 0
M  V30 3124 C 297.583 -0.665327 -1.4639 0
M  V30 3125 O 298.773 -0.933549 -1.47073 0
M  V30 3126 C 295.905 -1.92087 -2.8163 0
M  V30 3127 H 297.098 -2.74538 -1.20701 0
M  V30 3128 H 294.651 -1.4455 -0.594546 0
M  V30 3129 H 295.386 -0.991099 -3.08784 0
M  V30 3130 H 295.171 -2.74241 -2.80239 0
M  V30 3131 H 296.661 -2.13836 -3.58697 0
M  V30 3132 N 297.098 0.621204 -1.44841 0
M  V30 3133 C 298.509 1.20298 -1.42777 0
M  V30 3134 C 298.86 1.95639 -0.148259 0
M  V30 3135 O 297.985 2.02955 0.750892 0
M  V30 3136 C 298.58 2.1882 -2.58657 0
M  V30 3137 C 297.139 2.72403 -2.59756 0
M  V30 3138 C 296.286 1.4757 -2.34773 0
M  V30 3139 H 299.237 0.411297 -1.53278 0
M  V30 3140 H 299.258 3.01607 -2.31977 0
M  V30 3141 H 298.77 1.63957 -3.51766 0
M  V30 3142 H 296.871 3.31242 -1.70615 0
M  V30 3143 H 296.984 3.17765 -3.58556 0
M  V30 3144 H 295.348 1.76051 -1.8406 0
M  V30 3145 H 296.131 0.945954 -3.3001 0
M  V30 3146 N 298.576 1.31904 0.862503 0
M  V30 3147 C 299.539 1.20131 1.95195 0
M  V30 3148 C 300.539 0.126409 1.60302 0
M  V30 3149 O 301.729 0.376234 1.70089 0
M  V30 3150 C 298.861 0.845691 3.30244 0
M  V30 3151 H 300.054 2.16943 2.07064 0
M  V30 3152 H 297.607 1.15622 1.05172 0
M  V30 3153 H 298.342 -0.120957 3.24074 0
M  V30 3154 H 298.127 1.62276 3.56944 0
M  V30 3155 H 299.617 0.787418 4.10109 0
M  V30 3156 N 300.054 -1.07777 1.14986 0
M  V30 3157 C 301.303 -1.79669 0.916617 0
M  V30 3158 C 301.616 -1.87474 -0.557917 0
M  V30 3159 O 302.822 -2.55845 -0.908617 0
M  V30 3160 C 301.278 -3.22848 1.59051 0
M  V30 3161 C 300.886 -3.23257 3.10176 0
M  V30 3162 C 302.63 -3.99379 1.43864 0
M  V30 3163 C 300.537 -4.61063 3.70372 0
M  V30 3164 H 299.467 -0.673349 0.33929 0
M  V30 3165 H 302.118 -1.21003 1.37951 0
M  V30 3166 H 300.5 -3.8168 1.0553 0
M  V30 3167 H 301.674 -2.74095 3.70417 0
M  V30 3168 H 299.989 -2.60222 3.25074 0
M  V30 3169 H 302.586 -5.0122 1.86232 0
M  V30 3170 H 302.929 -4.14511 0.385564 0
M  V30 3171 H 303.462 -3.47032 1.94457 0
M  V30 3172 H 300.201 -4.51135 4.7556 0
M  V30 3173 H 299.721 -5.1048 3.14913 0
M  V30 3174 H 301.4 -5.30034 3.71043 0
M  V30 3175 N 301.532 -0.945985 -1.26051 0
M  V30 3176 C 302.462 -0.477172 -2.28572 0
M  V30 3177 C 303.443 0.472032 -1.63419 0
M  V30 3178 O 304.628 0.372853 -1.90587 0
M  V30 3179 C 301.758 0.253975 -3.4637 0
M  V30 3180 C 300.712 -0.609135 -4.23643 0
M  V30 3181 C 300.038 0.252252 -5.34105 0
M  V30 3182 C 301.338 -1.8829 -4.8718 0
M  V30 3183 H 303.032 -1.33402 -2.68038 0
M  V30 3184 H 300.578 -0.642904 -1.28852 0
M  V30 3185 H 302.531 0.593016 -4.17207 0
M  V30 3186 H 301.255 1.145 -3.05871 0
M  V30 3187 H 299.914 -0.931138 -3.54578 0
M  V30 3188 H 299.562 1.14278 -4.89846 0
M  V30 3189 H 299.262 -0.32188 -5.86718 0
M  V30 3190 H 300.786 0.586454 -6.07777 0
M  V30 3191 H 302.2 -1.61081 -5.50205 0
M  V30 3192 H 300.597 -2.40199 -5.49931 0
M  V30 3193 H 301.667 -2.59134 -4.09851 0
M  V30 3194 N 303.011 1.40521 -0.713556 0
M  V30 3195 C 304.258 2.00923 -0.25219 0
M  V30 3196 C 304.586 1.56571 1.15395 0
M  V30 3197 O 303.841 0.775874 1.79663 0
M  V30 3198 C 304.14 3.56317 -0.278 0
M  V30 3199 C 303.806 4.20246 -1.63415 0
M  V30 3200 C 302.468 4.37422 -2.00538 0
M  V30 3201 C 304.82 4.55923 -2.52554 0
M  V30 3202 C 302.148 4.87558 -3.2635 0
M  V30 3203 C 304.5 5.07458 -3.77716 0
M  V30 3204 C 303.164 5.22843 -4.14959 0
M  V30 3205 H 302.434 0.735231 -0.0922829 0
M  V30 3206 H 305.081 1.68161 -0.916188 0
M  V30 3207 H 303.386 3.88976 0.469567 0
M  V30 3208 H 305.083 4.00883 0.0967819 0
M  V30 3209 H 301.673 4.07263 -1.33546 0
M  V30 3210 H 305.857 4.42291 -2.25149 0
M  V30 3211 H 301.113 4.97654 -3.55176 0
M  V30 3212 H 305.287 5.34041 -4.4696 0
M  V30 3213 H 302.914 5.61454 -5.12516 0
M  V30 3214 N 304.489 0.459591 1.5075 0
M  V30 3215 C 305.735 -0.091664 2.03193 0
M  V30 3216 C 306.09 -1.38432 1.3362 0
M  V30 3217 O 305.383 -1.86257 0.449322 0
M  V30 3218 C 305.577 -0.342866 3.55752 0
M  V30 3219 C 305.406 0.923888 4.40107 0
M  V30 3220 C 304.176 1.46388 4.83631 0
M  V30 3221 C 306.374 1.81617 4.81165 0
M  V30 3222 N 304.356 2.68086 5.52271 0
M  V30 3223 C 305.727 2.87907 5.49099 0
M  V30 3224 C 307.782 1.82793 4.63132 0
M  V30 3225 C 306.485 3.95347 6.0091 0
M  V30 3226 C 308.511 2.89182 5.15876 0
M  V30 3227 C 307.873 3.94191 5.83774 0
M  V30 3228 H 303.972 0.00619247 0.781975 0
M  V30 3229 H 306.556 0.625233 1.84388 0
M  V30 3230 H 304.727 -1.0288 3.74527 0
M  V30 3231 H 306.459 -0.887445 3.9485 0
M  V30 3232 H 303.214 1.01466 4.62603 0
M  V30 3233 H 303.638 3.29857 5.91205 0
M  V30 3234 H 308.28 1.0293 4.1008 0
M  V30 3235 H 305.998 4.76035 6.53006 0
M  V30 3236 H 309.584 2.91061 5.0376 0
M  V30 3237 H 308.464 4.75161 6.23853 0
M  V30 3238 N 305.967 -1.56429 0.191757 0
M  V30 3239 C 306.899 -2.16154 -0.762245 0
M  V30 3240 C 307.912 -1.12247 -1.17917 0
M  V30 3241 O 309.101 -1.39353 -1.11548 0
M  V30 3242 C 306.201 -2.70606 -2.04024 0
M  V30 3243 C 305.374 -3.99381 -1.78364 0
M  V30 3244 C 304.433 -4.38692 -2.90578 0
M  V30 3245 O 303.459 -5.06179 -2.6033 0
M  V30 3246 N 304.661 -4.01922 -4.18854 0
M  V30 3247 H 307.426 -2.98643 -0.251526 0
M  V30 3248 H 304.987 -1.61897 0.00967373 0
M  V30 3249 H 306.979 -2.93891 -2.78227 0
M  V30 3250 H 305.549 -1.9259 -2.46227 0
M  V30 3251 H 304.769 -3.84262 -0.879581 0
M  V30 3252 H 306.057 -4.83445 -1.58614 0
M  V30 3253 H 305.455 -3.47631 -4.46283 0
M  V30 3254 H 304.012 -4.30165 -4.89695 0
M  V30 3255 N 307.445 0.0818655 -1.57387 0
M  V30 3256 C 308.675 0.794954 -1.90694 0
M  V30 3257 C 309.083 1.72147 -0.784982 0
M  V30 3258 O 308.426 1.81974 0.251196 0
M  V30 3259 C 308.488 1.65042 -3.19376 0
M  V30 3260 C 308.152 0.894337 -4.48164 0
M  V30 3261 C 309.149 0.21813 -5.19442 0
M  V30 3262 C 306.834 0.864495 -4.94805 0
M  V30 3263 C 308.828 -0.477802 -6.35607 0
M  V30 3264 C 306.515 0.164785 -6.10878 0
M  V30 3265 C 307.513 -0.505173 -6.81129 0
M  V30 3266 O 307.201 -1.19363 -7.94989 0
M  V30 3267 H 306.933 0.231779 -0.635023 0
M  V30 3268 H 309.487 0.059493 -2.05314 0
M  V30 3269 H 307.717 2.42844 -3.00938 0
M  V30 3270 H 309.406 2.24127 -3.38411 0
M  V30 3271 H 310.172 0.232558 -4.84442 0
M  V30 3272 H 306.051 1.37542 -4.40004 0
M  V30 3273 H 309.595 -1.00129 -6.90377 0
M  V30 3274 H 305.492 0.148249 -6.4533 0
M  V30 3275 H 306.26 -1.10188 -8.11049 0
M  V30 3276 N 308.923 1.53595 0.353017 0
M  V30 3277 C 310.17 1.70385 1.09431 0
M  V30 3278 C 310.498 0.462113 1.88931 0
M  V30 3279 O 309.753 -0.556074 1.87633 0
M  V30 3280 C 310.052 2.91313 2.07054 0
M  V30 3281 C 309.718 4.27308 1.43939 0
M  V30 3282 C 308.38 4.64287 1.26454 0
M  V30 3283 C 310.732 5.11829 0.983883 0
M  V30 3284 C 308.06 5.83412 0.620226 0
M  V30 3285 C 310.412 6.31611 0.353516 0
M  V30 3286 C 309.076 6.67293 0.166272 0
M  V30 3287 H 308.346 0.623484 0.400436 0
M  V30 3288 H 310.993 1.87799 0.374655 0
M  V30 3289 H 309.298 2.68463 2.85368 0
M  V30 3290 H 310.995 3.01497 2.64387 0
M  V30 3291 H 307.585 3.98198 1.58543 0
M  V30 3292 H 311.769 4.838 1.10685 0
M  V30 3293 H 307.025 6.09639 0.463681 0
M  V30 3294 H 311.199 6.964 -0.00757555 0
M  V30 3295 H 308.826 7.59461 -0.335047 0
M  V30 3296 N 310.401 -0.613514 1.45168 0
M  V30 3297 C 311.647 -1.37471 1.49096 0
M  V30 3298 C 311.98 -1.93765 0.129901 0
M  V30 3299 O 311.255 -1.74707 -0.854858 0
M  V30 3300 C 311.538 -2.52701 2.56542 0
M  V30 3301 C 311.391 -2.01643 4.0207 0
M  V30 3302 C 312.71 -3.54849 2.60327 0
M  V30 3303 H 309.829 -0.498502 0.54283 0
M  V30 3304 H 312.471 -0.692125 1.76945 0
M  V30 3305 H 310.621 -3.10931 2.32926 0
M  V30 3306 H 312.293 -1.48108 4.36877 0
M  V30 3307 H 310.536 -1.32688 4.13009 0
M  V30 3308 H 311.207 -2.84681 4.72928 0
M  V30 3309 H 313.683 -3.0645 2.81474 0
M  V30 3310 H 312.559 -4.32973 3.37381 0
M  V30 3311 H 312.82 -4.10079 1.6519 0
M  V30 3312 N 311.879 -1.3236 -0.855495 0
M  V30 3313 C 313.127 -1.22629 -1.60644 0
M  V30 3314 C 313.448 0.212136 -1.93843 0
M  V30 3315 O 312.718 1.13666 -1.59552 0
M  V30 3316 H 311.298 -0.450882 -0.595579 0
M  V30 3317 H 313.96 -1.65871 -1.02337 0
M  V30 3318 H 313.056 -1.80832 -2.54374 0
M  V30 3319 N 313.357 1.07166 -1.15556 0
M  V30 3320 C 314.304 2.14417 -0.854055 0
M  V30 3321 C 315.274 1.64965 0.193806 0
M  V30 3322 O 316.459 1.90703 0.0609443 0
M  V30 3323 C 313.599 3.43304 -0.351574 0
M  V30 3324 C 312.712 4.06537 -1.46123 0
M  V30 3325 C 311.847 5.23266 -0.914677 0
M  V30 3326 C 310.886 5.78464 -2.00114 0
M  V30 3327 N 310.023 6.86521 -1.47083 0
M  V30 3328 H 314.863 2.39548 -1.77259 0
M  V30 3329 H 312.4 1.17543 -0.884425 0
M  V30 3330 H 314.358 4.17179 -0.0419409 0
M  V30 3331 H 312.988 3.18419 0.530037 0
M  V30 3332 H 312.04 3.30297 -1.88701 0
M  V30 3333 H 313.352 4.43567 -2.28144 0
M  V30 3334 H 312.506 6.04131 -0.557698 0
M  V30 3335 H 311.245 4.87658 -0.0636583 0
M  V30 3336 H 310.25 4.96243 -2.36692 0
M  V30 3337 H 311.475 6.16126 -2.85597 0
M  V30 3338 H 309.421 6.52849 -0.642198 0
M  V30 3339 H 309.338 7.22446 -2.22729 0
M  V30 3340 H 310.606 7.71087 -1.14215 0
M  V30 3341 N 314.835 0.952656 1.25548 0
M  V30 3342 C 316.251 0.656769 1.4546 0
M  V30 3343 C 316.451 -0.78633 1.85524 0
M  V30 3344 O 315.507 -1.56183 1.98402 0
M  V30 3345 C 316.82 1.62801 2.52817 0
M  V30 3346 C 318.368 1.63897 2.66659 0
M  V30 3347 C 318.843 2.5978 3.77198 0
M  V30 3348 N 320.334 2.58133 3.84606 0
M  V30 3349 C 321.069 3.29003 4.69621 0
M  V30 3350 N 320.565 4.09339 5.58939 0
M  V30 3351 N 322.358 3.179 4.63569 0
M  V30 3352 H 314.509 1.88526 0.978344 0
M  V30 3353 H 316.772 0.810815 0.491206 0
M  V30 3354 H 316.478 2.65869 2.30232 0
M  V30 3355 H 316.352 1.38898 3.50695 0
M  V30 3356 H 318.739 0.615481 2.8861 0
M  V30 3357 H 318.82 1.91858 1.69187 0
M  V30 3358 H 318.464 3.62254 3.55997 0
M  V30 3359 H 318.394 2.29105 4.7415 0
M  V30 3360 H 320.885 1.99809 3.20757 0
M  V30 3361 H 321.198 4.6034 6.20731 0
M  V30 3362 H 319.543 4.13438 5.58654 0
M  V30 3363 H 322.734 2.54612 3.92798 0
M  V30 3364 H 322.907 3.73398 5.29602 0
M  V30 3365 N 316.313 -1.40141 0.720998 0
M  V30 3366 C 317.541 -2.05096 0.272656 0
M  V30 3367 C 317.956 -1.54334 -1.0875 0
M  V30 3368 O 317.313 -0.702211 -1.6845 0
M  V30 3369 C 317.364 -3.60636 0.249835 0
M  V30 3370 O 317.085 -4.09526 1.55629 0
M  V30 3371 C 318.586 -4.42772 -0.216396 0
M  V30 3372 H 315.806 -0.659897 0.121558 0
M  V30 3373 H 318.35 -1.79449 0.980723 0
M  V30 3374 H 316.505 -3.85232 -0.409237 0
M  V30 3375 H 316.919 -5.03758 1.4604 0
M  V30 3376 H 318.393 -5.51702 -0.181212 0
M  V30 3377 H 318.87 -4.20756 -1.25941 0
M  V30 3378 H 319.476 -4.23294 0.412596 0
M  V30 3379 N 317.792 -0.46758 -1.50504 0
M  V30 3380 C 319.038 0.0887532 -2.02606 0
M  V30 3381 C 319.371 1.39686 -1.34913 0
M  V30 3382 O 318.646 1.88644 -0.473694 0
M  V30 3383 C 318.929 0.276206 -3.59039 0
M  V30 3384 C 318.782 -1.05267 -4.37309 0
M  V30 3385 C 320.101 1.03235 -4.27821 0
M  V30 3386 H 317.22 0.0307814 -0.736357 0
M  V30 3387 H 319.862 -0.612485 -1.79857 0
M  V30 3388 H 318.012 0.8735 -3.78553 0
M  V30 3389 H 319.684 -1.68628 -4.29374 0
M  V30 3390 H 317.927 -1.65015 -4.01189 0
M  V30 3391 H 318.598 -0.875197 -5.45018 0
M  V30 3392 H 321.074 0.526111 -4.12761 0
M  V30 3393 H 319.95 1.1323 -5.37094 0
M  V30 3394 H 320.211 2.06806 -3.90748 0
M  V30 3395 N 319.27 1.56325 -0.20005 0
M  V30 3396 C 320.681 1.8408 0.31167 0
M  V30 3397 C 321.032 1.12087 1.61031 0
M  V30 3398 O 320.157 0.38332 2.12978 0
M  V30 3399 C 320.752 3.33932 0.57226 0
M  V30 3400 C 319.311 3.6208 1.02834 0
M  V30 3401 C 318.458 2.77186 0.079634 0
M  V30 3402 H 321.409 1.52939 -0.423729 0
M  V30 3403 H 321.43 3.52971 1.42096 0
M  V30 3404 H 320.942 3.86303 -0.37308 0
M  V30 3405 H 319.043 3.15147 1.98778 0
M  V30 3406 H 319.156 4.7023 0.917624 0
M  V30 3407 H 317.52 2.47951 0.582448 0
M  V30 3408 H 318.303 3.32347 -0.860238 0
M  V30 3409 N 320.748 -0.0735177 1.57428 0
M  V30 3410 C 322.159 -0.625551 1.75908 0
M  V30 3411 C 322.51 -1.78 0.825261 0
M  V30 3412 O 321.635 -2.16398 0.00893964 0
M  V30 3413 C 322.23 -1.14155 3.18989 0
M  V30 3414 C 320.789 -1.63946 3.38819 0
M  V30 3415 C 319.936 -0.558151 2.71625 0
M  V30 3416 H 322.887 0.152647 1.57964 0
M  V30 3417 H 322.908 -2.0104 3.23053 0
M  V30 3418 H 322.42 -0.301116 3.8693 0
M  V30 3419 H 320.521 -2.50321 2.7599 0
M  V30 3420 H 320.634 -1.71759 4.47253 0
M  V30 3421 H 318.998 -1.00278 2.34129 0
M  V30 3422 H 319.781 0.272071 3.4222 0
M  V30 3423 N 322.226 -1.5378 -0.344866 0
M  V30 3424 C 323.474 -1.70625 -1.08311 0
M  V30 3425 C 323.795 -0.471447 -1.89215 0
M  V30 3426 O 323.065 0.514616 -1.8902 0
M  V30 3427 H 321.645 -0.629058 -0.402859 0
M  V30 3428 H 324.307 -1.9103 -0.386459 0
M  V30 3429 H 323.403 -2.57656 -1.76124 0
M  V30 3430 N 323.704 0.605807 -1.45491 0
M  V30 3431 C 324.614 1.74466 -1.56839 0
M  V30 3432 C 325.63 1.68006 -0.452772 0
M  V30 3433 O 326.806 1.8833 -0.713708 0
M  V30 3434 C 323.871 3.10931 -1.53371 0
M  V30 3435 C 322.932 3.28832 -2.75986 0
M  V30 3436 C 322.165 4.58787 -2.72673 0
M  V30 3437 O 322.388 5.4122 -1.80102 0
M  V30 3438 O 321.322 4.79438 -3.63899 0
M  V30 3439 H 325.148 1.67843 -2.53106 0
M  V30 3440 H 322.733 0.770108 -1.28022 0
M  V30 3441 H 324.615 3.92233 -1.54051 0
M  V30 3442 H 323.29 3.18042 -0.602572 0
M  V30 3443 H 322.197 2.47112 -2.80867 0
M  V30 3444 H 323.53 3.26599 -3.68231 0
M  V30 3445 N 325.182 1.32811 0.848464 0
M  V30 3446 C 326.422 1.25046 1.61687 0
M  V30 3447 C 326.786 -0.183464 1.91121 0
M  V30 3448 O 327.987 -0.384937 2.66029 0
M  V30 3449 C 326.258 2.09201 2.89775 0
M  V30 3450 S 327.817 2.18526 3.80515 0
M  V30 3451 H 324.635 0.445023 0.554505 0
M  V30 3452 H 327.237 1.67733 1.00429 0
M  V30 3453 H 325.941 3.12433 2.66108 0
M  V30 3454 H 325.472 1.67315 3.56047 0
M  V30 3455 H 327.487 1.3393 4.77784 0
M  V30 3456 N 326.66 -1.06551 1.16123 0
M  V30 3457 C 327.907 -1.79302 0.941126 0
M  V30 3458 C 328.235 -1.87105 -0.531235 0
M  V30 3459 O 327.49 -1.35692 -1.41018 0
M  V30 3460 C 327.789 -3.23911 1.51052 0
M  V30 3461 C 327.455 -3.36193 3.00475 0
M  V30 3462 C 326.117 -3.39252 3.41265 0
M  V30 3463 C 328.469 -3.38326 3.96465 0
M  V30 3464 C 325.797 -3.42057 4.76669 0
M  V30 3465 C 328.149 -3.4267 5.31752 0
M  V30 3466 C 326.813 -3.4401 5.72026 0
M  V30 3467 H 326.083 -0.656111 0.344382 0
M  V30 3468 H 328.73 -1.25325 1.44796 0
M  V30 3469 H 327.035 -3.80723 0.925063 0
M  V30 3470 H 328.732 -3.78793 1.31593 0
M  V30 3471 H 325.322 -3.34516 2.6795 0
M  V30 3472 H 329.506 -3.35176 3.6602 0
M  V30 3473 H 324.762 -3.41398 5.07206 0
M  V30 3474 H 328.936 -3.43268 6.05921 0
M  V30 3475 H 326.563 -3.45937 6.76928 0
M  V30 3476 N 328.138 -0.959301 -1.25041 0
M  V30 3477 C 329.387 -0.612254 -1.92183 0
M  V30 3478 C 329.7 0.855347 -1.75907 0
M  V30 3479 O 330.906 1.31256 -2.37664 0
M  V30 3480 C 329.362 -1.04435 -3.44414 0
M  V30 3481 C 328.97 -2.53482 -3.69393 0
M  V30 3482 C 330.714 -0.770055 -4.17457 0
M  V30 3483 C 328.621 -2.90468 -5.15153 0
M  V30 3484 H 327.551 -0.225279 -0.719559 0
M  V30 3485 H 330.202 -1.16438 -1.41825 0
M  V30 3486 H 328.584 -0.4206 -3.9376 0
M  V30 3487 H 329.758 -3.20916 -3.30681 0
M  V30 3488 H 328.073 -2.78432 -3.0962 0
M  V30 3489 H 330.67 -1.02249 -5.24832 0
M  V30 3490 H 331.013 0.293611 -4.15263 0
M  V30 3491 H 331.546 -1.35437 -3.74034 0
M  V30 3492 H 328.285 -3.95871 -5.22462 0
M  V30 3493 H 327.805 -2.27711 -5.54894 0
M  V30 3494 H 329.484 -2.79914 -5.83315 0
M  V30 3495 N 329.616 1.39756 -0.72842 0
M  V30 3496 C 330.548 2.29157 -0.0446202 0
M  V30 3497 C 331.561 1.46484 0.710367 0
M  V30 3498 O 332.75 1.69632 0.55562 0
M  V30 3499 C 329.85 3.24987 0.961071 0
M  V30 3500 C 329.023 4.36572 0.268967 0
M  V30 3501 C 328.082 5.12756 1.18184 0
M  V30 3502 O 327.108 5.6534 0.661794 0
M  V30 3503 N 328.31 5.23331 2.51206 0
M  V30 3504 H 331.075 2.88482 -0.812295 0
M  V30 3505 H 328.636 1.51265 -0.577098 0
M  V30 3506 H 330.628 3.72827 1.57423 0
M  V30 3507 H 329.198 2.66739 1.63 0
M  V30 3508 H 328.418 3.90694 -0.524574 0
M  V30 3509 H 329.706 5.08363 -0.210934 0
M  V30 3510 H 329.104 4.82116 2.9594 0
M  V30 3511 H 327.661 5.74634 3.07634 0
M  V30 3512 N 331.094 0.475555 1.50254 0
M  V30 3513 C 332.341 -0.0778919 2.0235 0
M  V30 3514 C 332.669 -1.39319 1.35722 0
M  V30 3515 O 331.924 -1.89888 0.473395 0
M  V30 3516 C 332.223 -0.305114 3.56095 0
M  V30 3517 C 331.889 0.92903 4.41225 0
M  V30 3518 C 330.551 1.26739 4.6421 0
M  V30 3519 C 332.903 1.75054 4.90923 0
M  V30 3520 C 330.231 2.42724 5.34137 0
M  V30 3521 C 332.583 2.9017 5.62125 0
M  V30 3522 C 331.247 3.24416 5.83362 0
M  V30 3523 H 330.517 -0.0285027 0.740452 0
M  V30 3524 H 333.164 0.630543 1.80821 0
M  V30 3525 H 331.469 -1.09584 3.76163 0
M  V30 3526 H 333.166 -0.747377 3.93974 0
M  V30 3527 H 329.756 0.655428 4.23559 0
M  V30 3528 H 333.94 1.50231 4.73016 0
M  V30 3529 H 329.196 2.69525 5.48786 0
M  V30 3530 H 333.37 3.54169 5.99614 0
M  V30 3531 H 330.997 4.14396 6.37323 0
M  V30 3532 N 332.573 -1.56217 0.208337 0
M  V30 3533 C 333.503 -2.22694 -0.702116 0
M  V30 3534 C 334.484 -1.19432 -1.2112 0
M  V30 3535 O 335.669 -1.47978 -1.25762 0
M  V30 3536 C 332.799 -2.8966 -1.9161 0
M  V30 3537 C 331.753 -3.9928 -1.5414 0
M  V30 3538 C 331.079 -4.53476 -2.83308 0
M  V30 3539 C 332.379 -5.17012 -0.741339 0
M  V30 3540 H 334.073 -2.99034 -0.147898 0
M  V30 3541 H 331.619 -1.43831 -0.0696951 0
M  V30 3542 H 333.572 -3.34852 -2.55836 0
M  V30 3543 H 332.296 -2.10746 -2.49507 0
M  V30 3544 H 330.955 -3.54799 -0.922668 0
M  V30 3545 H 330.603 -3.71308 -3.39322 0
M  V30 3546 H 330.303 -5.27451 -2.58976 0
M  V30 3547 H 331.827 -5.01378 -3.485 0
M  V30 3548 H 333.241 -5.58667 -1.28699 0
M  V30 3549 H 331.638 -5.97137 -0.595627 0
M  V30 3550 H 332.708 -4.8423 0.254851 0
M  V30 3551 N 334.051 0.0651679 -1.57465 0
M  V30 3552 C 335.276 0.779605 -1.9219 0
M  V30 3553 C 335.701 1.69988 -0.805333 0
M  V30 3554 O 335.059 1.79685 0.241435 0
M  V30 3555 C 335.107 1.54364 -3.2589 0
M  V30 3556 O 334.211 2.65474 -3.1559 0
M  V30 3557 H 333.552 0.212249 -0.629163 0
M  V30 3558 H 336.082 0.0314294 -2.04576 0
M  V30 3559 H 336.092 1.92146 -3.59922 0
M  V30 3560 H 334.767 0.868457 -4.06732 0
M  V30 3561 H 333.344 2.30501 -2.93128 0
M  V30 3562 N 335.529 1.53961 0.336706 0
M  V30 3563 C 336.439 1.85432 1.43708 0
M  V30 3564 C 337.455 0.745053 1.57242 0
M  V30 3565 O 338.631 1.03804 1.72588 0
M  V30 3566 C 335.696 2.06349 2.78605 0
M  V30 3567 C 334.757 3.30191 2.74358 0
M  V30 3568 C 333.99 3.50101 4.02822 0
M  V30 3569 O 334.213 2.7371 5.00439 0
M  V30 3570 O 333.147 4.43547 4.06878 0
M  V30 3571 H 336.973 2.78975 1.20028 0
M  V30 3572 H 334.558 1.39701 0.52952 0
M  V30 3573 H 336.44 2.21513 3.58483 0
M  V30 3574 H 335.115 1.15995 3.02203 0
M  V30 3575 H 334.022 3.20425 1.93078 0
M  V30 3576 H 335.355 4.2056 2.55715 0
M  V30 3577 N 337.007 -0.598083 1.45811 0
M  V30 3578 C 338.418 -1.18011 1.44673 0
M  V30 3579 C 338.769 -1.95378 0.179364 0
M  V30 3580 O 337.894 -2.04124 -0.718509 0
M  V30 3581 C 338.489 -2.14677 2.62105 0
M  V30 3582 C 337.048 -2.68236 2.64057 0
M  V30 3583 C 336.195 -1.43816 2.37091 0
M  V30 3584 H 339.146 -0.38686 1.53913 0
M  V30 3585 H 339.167 -2.97878 2.36746 0
M  V30 3586 H 338.679 -1.5834 3.5433 0
M  V30 3587 H 336.78 -3.28486 1.75864 0
M  V30 3588 H 336.893 -3.12021 3.63566 0
M  V30 3589 H 335.257 -1.731 1.86838 0
M  V30 3590 H 336.04 -0.893333 3.31473 0
M  V30 3591 N 338.485 -1.33259 -0.841409 0
M  V30 3592 C 339.713 -1.27605 -1.62864 0
M  V30 3593 C 340.128 0.153507 -1.88175 0
M  V30 3594 O 339.485 1.09485 -1.46011 0
M  V30 3595 C 339.536 -2.04596 -2.98031 0
M  V30 3596 O 339.257 -3.41975 -2.73834 0
M  V30 3597 C 340.758 -2.06122 -3.92465 0
M  V30 3598 H 337.978 -0.439718 -0.506842 0
M  V30 3599 H 340.522 -1.75591 -1.04824 0
M  V30 3600 H 338.677 -1.60299 -3.5268 0
M  V30 3601 H 339.091 -3.81549 -3.59889 0
M  V30 3602 H 340.565 -2.64451 -4.84531 0
M  V30 3603 H 341.042 -1.05083 -4.26444 0
M  V30 3604 H 341.648 -2.50427 -3.43753 0
M  V30 3605 N 339.963 1.05934 -1.16686 0
M  V30 3606 C 341.212 1.78188 -0.945085 0
M  V30 3607 C 341.525 1.88338 0.528021 0
M  V30 3608 O 342.731 2.57258 0.867799 0
M  V30 3609 C 341.187 3.20277 -1.64167 0
M  V30 3610 C 340.795 3.18281 -3.15279 0
M  V30 3611 C 342.539 3.97039 -1.502 0
M  V30 3612 C 340.446 4.55112 -3.7766 0
M  V30 3613 H 339.376 0.667866 -0.349959 0
M  V30 3614 H 342.027 1.18794 -1.39858 0
M  V30 3615 H 340.409 3.79952 -1.11589 0
M  V30 3616 H 341.583 2.68167 -3.74731 0
M  V30 3617 H 339.898 2.55018 -3.29173 0
M  V30 3618 H 342.495 4.98194 -1.94183 0
M  V30 3619 H 342.838 4.13845 -0.451461 0
M  V30 3620 H 343.371 3.43894 -1.99954 0
M  V30 3621 H 340.11 4.43512 -4.82677 0
M  V30 3622 H 339.63 5.05406 -3.22994 0
M  V30 3623 H 341.309 5.24064 -3.79428 0
M  V30 3624 N 341.441 0.965919 1.2453 0
M  V30 3625 C 342.669 0.644385 1.96609 0
M  V30 3626 C 343.084 -0.785823 1.71669 0
M  V30 3627 O 342.441 -1.52703 0.999399 0
M  V30 3628 C 342.492 0.907375 3.49927 0
M  V30 3629 O 342.213 2.28136 3.74013 0
M  V30 3630 C 343.714 0.599784 4.39224 0
M  V30 3631 H 340.934 0.240588 0.626385 0
M  V30 3632 H 343.478 1.29337 1.58405 0
M  V30 3633 H 341.633 0.304631 3.862 0
M  V30 3634 H 342.047 2.36002 4.68405 0
M  V30 3635 H 343.521 0.834263 5.45659 0
M  V30 3636 H 343.998 -0.465921 4.36722 0
M  V30 3637 H 344.604 1.18235 4.08535 0
M  V30 3638 N 342.919 -1.39368 0.735821 0
M  V30 3639 C 344.166 -2.00497 0.284123 0
M  V30 3640 C 344.494 -1.58387 -1.12889 0
M  V30 3641 O 343.749 -0.804359 -1.78406 0
M  V30 3642 C 344.048 -3.5583 0.334651 0
M  V30 3643 C 343.714 -4.17593 1.7008 0
M  V30 3644 C 342.376 -4.34176 2.07472 0
M  V30 3645 C 344.728 -4.51848 2.59775 0
M  V30 3646 C 342.056 -4.82304 3.34065 0
M  V30 3647 C 344.408 -5.01384 3.85741 0
M  V30 3648 C 343.072 -5.16175 4.23225 0
M  V30 3649 H 342.342 -0.73367 0.103968 0
M  V30 3650 H 344.989 -1.66683 0.942825 0
M  V30 3651 H 343.294 -3.89674 -0.407625 0
M  V30 3652 H 344.991 -4.00986 -0.0329927 0
M  V30 3653 H 341.581 -4.05087 1.40008 0
M  V30 3654 H 345.765 -4.38653 2.32157 0
M  V30 3655 H 341.021 -4.91941 3.63049 0
M  V30 3656 H 345.195 -5.26863 4.55399 0
M  V30 3657 H 342.822 -5.5323 5.21384 0
M  V30 3658 N 344.397 -0.483516 -1.5 0
M  V30 3659 C 345.645 0.067027 -2.01989 0
M  V30 3660 C 345.966 1.3909 -1.36671 0
M  V30 3661 O 345.236 1.88978 -0.516152 0
M  V30 3662 H 343.816 0.0277606 -0.746484 0
M  V30 3663 H 346.478 -0.636773 -1.84204 0
M  V30 3664 H 345.574 0.209484 -3.11396 0
M  V30 3665 N 345.875 1.56104 -0.216619 0
M  V30 3666 C 347.103 2.02563 0.421413 0
M  V30 3667 C 347.518 1.0965 1.53695 0
M  V30 3668 O 346.875 0.10521 1.82196 0
M  V30 3669 C 346.926 3.48584 0.957665 0
M  V30 3670 O 346.647 4.37953 -0.113389 0
M  V30 3671 C 348.148 4.10664 1.66943 0
M  V30 3672 H 345.368 0.662944 0.103665 0
M  V30 3673 H 347.912 2.01793 -0.331629 0
M  V30 3674 H 346.067 3.49985 1.661 0
M  V30 3675 H 346.481 5.23704 0.288932 0
M  V30 3676 H 347.955 5.14622 1.99671 0
M  V30 3677 H 348.432 3.55373 2.58083 0
M  V30 3678 H 349.038 4.13098 1.01142 0
M  V30 3679 N 347.353 -0.0568162 1.57498 0
M  V30 3680 C 348.316 -1.05038 2.03715 0
M  V30 3681 C 349.316 -1.30709 0.936577 0
M  V30 3682 O 350.506 -1.26178 1.20103 0
M  V30 3683 C 347.638 -2.39034 2.43055 0
M  V30 3684 H 348.831 -0.651715 2.92733 0
M  V30 3685 H 346.384 -0.302947 1.53336 0
M  V30 3686 H 347.119 -2.83703 1.57108 0
M  V30 3687 H 346.904 -2.21739 3.2338 0
M  V30 3688 H 348.394 -3.10421 2.79336 0
M  V30 3689 N 348.832 -1.54138 -0.328536 0
M  V30 3690 C 350.081 -1.71318 -1.06456 0
M  V30 3691 C 350.394 -0.491109 -1.89334 0
M  V30 3692 O 351.6 -0.54416 -2.65991 0
M  V30 3693 C 350.056 -3.03 -1.94214 0
M  V30 3694 C 349.664 -4.32595 -1.16471 0
M  V30 3695 C 351.408 -3.29544 -2.67583 0
M  V30 3696 C 349.315 -5.55341 -2.03347 0
M  V30 3697 H 348.245 -0.638429 -0.401155 0
M  V30 3698 H 350.896 -1.80633 -0.323106 0
M  V30 3699 H 349.278 -2.87579 -2.72239 0
M  V30 3700 H 350.452 -4.58766 -0.432525 0
M  V30 3701 H 348.767 -4.12777 -0.548063 0
M  V30 3702 H 351.364 -4.18444 -3.3288 0
M  V30 3703 H 351.707 -2.47206 -3.34955 0
M  V30 3704 H 352.24 -3.45809 -1.96623 0
M  V30 3705 H 348.979 -6.40268 -1.40491 0
M  V30 3706 H 348.499 -5.33397 -2.74313 0
M  V30 3707 H 350.178 -5.91557 -2.62049 0
M  V30 3708 N 350.31 0.590341 -1.46126 0
M  V30 3709 C 351.273 1.68194 -1.55703 0
M  V30 3710 C 352.273 1.54808 -0.434868 0
M  V30 3711 O 353.463 1.59564 -0.698928 0
M  V30 3712 C 350.595 3.07575 -1.47005 0
M  V30 3713 H 351.788 1.61064 -2.52979 0
M  V30 3714 H 349.341 0.807541 -1.33823 0
M  V30 3715 H 350.076 3.20268 -0.509785 0
M  V30 3716 H 349.861 3.187 -2.28414 0
M  V30 3717 H 351.351 3.87055 -1.56776 0
M  V30 3718 N 351.788 1.33704 0.83433 0
M  V30 3719 C 352.751 1.24244 1.92603 0
M  V30 3720 C 353.751 0.160383 1.59998 0
M  V30 3721 O 354.941 0.412228 1.69252 0
M  V30 3722 C 352.073 0.91555 3.28376 0
M  V30 3723 H 353.266 2.21287 2.02416 0
M  V30 3724 H 350.819 1.17827 1.02696 0
M  V30 3725 H 351.554 -0.0521886 3.24258 0
M  V30 3726 H 351.339 1.69811 3.53422 0
M  V30 3727 H 352.829 0.874231 4.08347 0
M  V30 3728 N 353.266 -1.05314 1.17247 0
M  V30 3729 C 354.513 -1.78293 0.960091 0
M  V30 3730 C 354.841 -1.87658 -0.51136 0
M  V30 3731 O 354.096 -1.3718 -1.39571 0
M  V30 3732 C 354.395 -3.2229 1.54479 0
M  V30 3733 C 354.061 -3.32987 3.04024 0
M  V30 3734 C 352.723 -3.35613 3.44844 0
M  V30 3735 C 355.075 -3.34102 4.00031 0
M  V30 3736 C 352.403 -3.36982 4.8027 0
M  V30 3737 C 354.755 -3.3701 5.35357 0
M  V30 3738 C 353.419 -3.37923 5.75642 0
M  V30 3739 H 352.689 -0.652422 0.351322 0
M  V30 3740 H 355.336 -1.23782 1.46117 0
M  V30 3741 H 353.641 -3.7972 0.965391 0
M  V30 3742 H 355.338 -3.77376 1.35603 0
M  V30 3743 H 351.928 -3.31655 2.71483 0
M  V30 3744 H 356.112 -3.31276 3.69554 0
M  V30 3745 H 351.368 -3.35999 5.10798 0
M  V30 3746 H 355.542 -3.36822 6.09528 0
M  V30 3747 H 353.169 -3.38738 6.80559 0
M  V30 3748 N 354.744 -0.972509 -1.24016 0
M  V30 3749 C 355.974 -0.653853 -1.9598 0
M  V30 3750 C 356.382 0.781801 -1.72292 0
M  V30 3751 O 355.725 1.53677 -1.00644 0
M  V30 3752 C 355.787 -0.854608 -3.49194 0
M  V30 3753 C 355.451 -2.27082 -3.96589 0
M  V30 3754 C 356.448 -3.24892 -4.05883 0
M  V30 3755 C 354.133 -2.5998 -4.29786 0
M  V30 3756 C 356.127 -4.53684 -4.47716 0
M  V30 3757 C 353.814 -3.88997 -4.71301 0
M  V30 3758 C 354.812 -4.85661 -4.80232 0
M  V30 3759 O 354.5 -6.12376 -5.20818 0
M  V30 3760 H 354.232 -0.242572 -0.630979 0
M  V30 3761 H 356.786 -1.30431 -1.58673 0
M  V30 3762 H 355.016 -0.146985 -3.86421 0
M  V30 3763 H 356.705 -0.534311 -4.02368 0
M  V30 3764 H 357.471 -3.00805 -3.80449 0
M  V30 3765 H 353.35 -1.85457 -4.22051 0
M  V30 3766 H 356.894 -5.29135 -4.54601 0
M  V30 3767 H 352.791 -4.12882 -4.96184 0
M  V30 3768 H 353.559 -6.16013 -5.38953 0
M  V30 3769 N 356.222 1.38976 -0.743202 0
M  V30 3770 C 357.155 2.28128 -0.0572165 0
M  V30 3771 C 358.133 1.44827 0.739182 0
M  V30 3772 O 359.317 1.74207 0.720009 0
M  V30 3773 C 356.444 3.25796 0.926001 0
M  V30 3774 C 355.49 4.25947 0.217099 0
M  V30 3775 S 356.323 5.24604 -1.07477 0
M  V30 3776 C 357.479 6.25829 -0.0943545 0
M  V30 3777 H 357.712 2.85961 -0.813246 0
M  V30 3778 H 355.245 1.44822 -0.535341 0
M  V30 3779 H 357.203 3.82583 1.48797 0
M  V30 3780 H 355.864 2.66966 1.65493 0
M  V30 3781 H 355.057 4.94746 0.961372 0
M  V30 3782 H 354.659 3.73002 -0.273059 0
M  V30 3783 H 356.951 6.73411 0.743239 0
M  V30 3784 H 357.894 7.0412 -0.749713 0
M  V30 3785 H 358.302 5.63797 0.281706 0
M  V30 3786 N 357.7 0.491464 1.49741 0
M  V30 3787 C 359.111 0.0413169 1.86654 0
M  V30 3788 C 359.462 -1.36985 1.40462 0
M  V30 3789 O 358.587 -2.01917 0.778354 0
M  V30 3790 C 359.182 0.0682023 3.38731 0
M  V30 3791 C 357.741 -0.32656 3.74981 0
M  V30 3792 C 356.888 0.444888 2.73708 0
M  V30 3793 H 359.839 0.704733 1.42194 0
M  V30 3794 H 359.86 -0.729322 3.73445 0
M  V30 3795 H 359.372 1.09539 3.72321 0
M  V30 3796 H 357.473 -1.35734 3.46997 0
M  V30 3797 H 357.586 -0.013741 4.79098 0
M  V30 3798 H 355.95 -0.104062 2.54487 0
M  V30 3799 H 356.733 1.47197 3.10142 0
M  V30 3800 N 359.178 -1.55987 0.224894 0
M  V30 3801 C 360.424 -1.98684 -0.406502 0
M  V30 3802 C 360.757 -1.11248 -1.59177 0
M  V30 3803 O 360.032 -0.170909 -1.93748 0
M  V30 3804 C 360.315 -3.50218 -0.837808 0
M  V30 3805 C 360.168 -4.48426 0.351332 0
M  V30 3806 C 361.487 -4.06243 -1.69278 0
M  V30 3807 H 358.606 -0.722337 -0.146283 0
M  V30 3808 H 361.248 -1.87255 0.321799 0
M  V30 3809 H 359.398 -3.60089 -1.45837 0
M  V30 3810 H 361.07 -4.50562 0.989526 0
M  V30 3811 H 359.313 -4.22159 0.998207 0
M  V30 3812 H 359.984 -5.52 0.00655905 0
M  V30 3813 H 362.46 -3.99337 -1.16914 0
M  V30 3814 H 361.336 -5.12581 -1.96346 0
M  V30 3815 H 361.597 -3.53332 -2.65723 0
M  V30 3816 N 360.656 0.0484629 -1.57525 0
M  V30 3817 C 361.884 0.755421 -1.92616 0
M  V30 3818 C 362.299 1.69919 -0.822984 0
M  V30 3819 O 361.656 1.81378 0.202085 0
M  V30 3820 C 361.707 1.52915 -3.27566 0
M  V30 3821 O 361.428 0.62329 -4.33644 0
M  V30 3822 C 362.929 2.33502 -3.76818 0
M  V30 3823 H 360.149 0.213465 -0.63614 0
M  V30 3824 H 362.693 0.0117698 -2.04497 0
M  V30 3825 H 360.848 2.22486 -3.17142 0
M  V30 3826 H 361.262 1.16383 -5.11425 0
M  V30 3827 H 362.736 2.83214 -4.73808 0
M  V30 3828 H 363.213 3.14068 -3.07014 0
M  V30 3829 H 363.819 1.69043 -3.90262 0
M  V30 3830 N 362.134 1.5431 0.320358 0
M  V30 3831 C 363.383 1.7188 1.05546 0
M  V30 3832 C 363.696 0.501143 1.89071 0
M  V30 3833 O 364.902 0.558258 2.65699 0
M  V30 3834 C 363.358 3.04025 1.92605 0
M  V30 3835 C 362.966 4.33207 1.14176 0
M  V30 3836 C 364.71 3.30959 2.65832 0
M  V30 3837 C 362.617 5.56412 2.00399 0
M  V30 3838 H 361.547 0.640547 0.397763 0
M  V30 3839 H 364.198 1.80802 0.313522 0
M  V30 3840 H 362.58 2.89019 2.7071 0
M  V30 3841 H 363.754 4.58989 0.40819 0
M  V30 3842 H 362.069 4.13062 0.526165 0
M  V30 3843 H 364.666 4.20203 3.30656 0
M  V30 3844 H 365.009 2.48979 3.33639 0
M  V30 3845 H 365.542 3.46847 1.94787 0
M  V30 3846 H 362.281 6.41004 1.37094 0
M  V30 3847 H 361.801 5.34844 2.7148 0
M  V30 3848 H 363.48 5.92938 2.58908 0
M  V30 3849 N 363.613 -0.582584 1.46437 0
M  V30 3850 C 364.546 -1.70633 1.51524 0
M  V30 3851 C 365.524 -1.58349 0.369351 0
M  V30 3852 O 366.708 -1.79563 0.573516 0
M  V30 3853 C 363.835 -3.08687 1.39392 0
M  V30 3854 C 362.881 -3.3949 2.58164 0
M  V30 3855 S 363.714 -3.31548 4.20519 0
M  V30 3856 C 364.87 -4.72139 4.10896 0
M  V30 3857 H 365.103 -1.66058 2.46601 0
M  V30 3858 H 362.636 -0.761337 1.34324 0
M  V30 3859 H 364.594 -3.8833 1.33079 0
M  V30 3860 H 363.255 -3.10751 0.457436 0
M  V30 3861 H 362.448 -4.40071 2.45669 0
M  V30 3862 H 362.05 -2.67415 2.61468 0
M  V30 3863 H 364.342 -5.62527 3.77584 0
M  V30 3864 H 365.285 -4.89692 5.11476 0
M  V30 3865 H 365.693 -4.48995 3.42146 0
M  V30 3866 N 365.091 -1.34144 -0.827227 0
M  V30 3867 C 366.319 -1.29325 -1.61501 0
M  V30 3868 C 366.734 0.13354 -1.88327 0
M  V30 3869 O 366.091 1.0793 -1.47164 0
M  V30 3870 C 366.142 -2.07746 -2.95844 0
M  V30 3871 O 365.863 -3.4486 -2.70191 0
M  V30 3872 C 367.364 -2.10273 -3.90256 0
M  V30 3873 H 364.584 -0.445069 -0.50215 0
M  V30 3874 H 367.128 -1.76693 -1.02955 0
M  V30 3875 H 365.283 -1.6403 -3.5096 0
M  V30 3876 H 365.697 -3.85345 -3.55822 0
M  V30 3877 H 367.171 -2.69575 -4.81698 0
M  V30 3878 H 367.648 -1.096 -4.25305 0
M  V30 3879 H 368.254 -2.54059 -3.41078 0
M  V30 3880 N 366.569 1.04691 -1.17803 0
M  V30 3881 C 367.818 1.77176 -0.963931 0
M  V30 3882 C 368.131 1.88888 0.508015 0
M  V30 3883 O 369.337 2.58164 0.840465 0
M  V30 3884 C 367.793 3.18518 -1.67555 0
M  V30 3885 C 367.401 3.14919 -3.18637 0
M  V30 3886 C 369.145 3.95424 -1.54402 0
M  V30 3887 C 367.052 4.51081 -3.82466 0
M  V30 3888 H 365.982 0.664116 -0.357023 0
M  V30 3889 H 368.633 1.17303 -1.4111 0
M  V30 3890 H 367.015 3.78748 -1.15613 0
M  V30 3891 H 368.189 2.64178 -3.77554 0
M  V30 3892 H 366.504 2.51512 -3.31859 0
M  V30 3893 H 369.101 4.96106 -1.99456 0
M  V30 3894 H 369.444 4.13343 -0.495329 0
M  V30 3895 H 369.977 3.41754 -2.0359 0
M  V30 3896 H 366.716 4.38368 -4.87354 0
M  V30 3897 H 366.236 5.01951 -3.28337 0
M  V30 3898 H 367.915 5.2001 -3.84965 0
M  V30 3899 N 368.047 0.979072 1.23499 0
M  V30 3900 C 368.977 0.537606 2.27227 0
M  V30 3901 C 369.958 -0.428539 1.64613 0
M  V30 3902 O 371.143 -0.322191 1.91509 0
M  V30 3903 C 368.273 -0.162052 3.46922 0
M  V30 3904 C 367.227 0.721242 4.21879 0
M  V30 3905 C 366.553 -0.110555 5.34586 0
M  V30 3906 C 367.853 2.01141 4.82016 0
M  V30 3907 H 369.547 1.40462 2.64406 0
M  V30 3908 H 367.093 0.67684 1.27102 0
M  V30 3909 H 369.046 -0.482192 4.18632 0
M  V30 3910 H 367.77 -1.06351 3.08799 0
M  V30 3911 H 366.429 1.02482 3.51984 0
M  V30 3912 H 366.077 -1.0125 4.92704 0
M  V30 3913 H 365.777 0.477325 5.85658 0
M  V30 3914 H 367.301 -0.425107 6.09118 0
M  V30 3915 H 368.715 1.75612 5.45741 0
M  V30 3916 H 367.112 2.54695 5.43369 0
M  V30 3917 H 368.182 2.69909 4.02836 0
M  V30 3918 N 369.525 -1.3858 0.750561 0
M  V30 3919 C 370.755 -2.04175 0.31564 0
M  V30 3920 C 371.163 -1.56726 -1.05989 0
M  V30 3921 O 370.506 -0.734225 -1.68389 0
M  V30 3922 C 370.568 -3.58585 0.256389 0
M  V30 3923 C 370.232 -4.29077 1.57296 0
M  V30 3924 C 371.229 -4.54656 2.52159 0
M  V30 3925 C 368.914 -4.67324 1.84156 0
M  V30 3926 C 370.908 -5.17512 3.72103 0
M  V30 3927 C 368.595 -5.29905 3.04374 0
M  V30 3928 C 369.593 -5.54933 3.98168 0
M  V30 3929 O 369.281 -6.16212 5.16273 0
M  V30 3930 H 369.013 -0.662742 0.133226 0
M  V30 3931 H 371.567 -1.78313 1.01948 0
M  V30 3932 H 369.797 -3.83406 -0.503677 0
M  V30 3933 H 371.486 -4.05628 -0.148612 0
M  V30 3934 H 372.252 -4.25539 2.32683 0
M  V30 3935 H 368.131 -4.47191 1.11988 0
M  V30 3936 H 371.675 -5.36963 4.45327 0
M  V30 3937 H 367.572 -5.58444 3.23745 0
M  V30 3938 H 368.34 -6.34701 5.16815 0
M  V30 3939 N 371.003 -0.499398 -1.49478 0
M  V30 3940 C 372.249 0.0377587 -2.03365 0
M  V30 3941 C 372.604 1.3484 -1.37244 0
M  V30 3942 O 371.897 1.85 -0.498547 0
M  V30 3943 C 372.091 0.248424 -3.56536 0
M  V30 3944 C 371.92 -1.04025 -4.37503 0
M  V30 3945 C 370.69 -1.59159 -4.79579 0
M  V30 3946 C 372.888 -1.9431 -4.76181 0
M  V30 3947 N 370.87 -2.82634 -5.44969 0
M  V30 3948 C 372.241 -3.02364 -5.41272 0
M  V30 3949 C 374.296 -1.95008 -4.58123 0
M  V30 3950 C 372.999 -4.1114 -5.90217 0
M  V30 3951 C 375.025 -3.02758 -5.08027 0
M  V30 3952 C 374.387 -4.09531 -5.73118 0
M  V30 3953 H 370.486 -0.026923 -0.781536 0
M  V30 3954 H 373.07 -0.673901 -1.82665 0
M  V30 3955 H 371.241 0.929139 -3.77123 0
M  V30 3956 H 372.973 0.782445 -3.97064 0
M  V30 3957 H 369.728 -1.13696 -4.5975 0
M  V30 3958 H 370.152 -3.45416 -5.82252 0
M  V30 3959 H 374.794 -1.13766 -4.07207 0
M  V30 3960 H 372.512 -4.93181 -6.40155 0
M  V30 3961 H 376.098 -3.04315 -4.95866 0
M  V30 3962 H 374.978 -4.91534 -6.11035 0
M  V30 3963 N 372.481 1.55866 -0.233164 0
M  V30 3964 C 373.897 1.59133 0.121988 0
M  V30 3965 C 374.097 1.25016 1.58029 0
M  V30 3966 O 373.153 0.990922 2.32243 0
M  V30 3967 C 374.466 2.99932 -0.214792 0
M  V30 3968 C 376.014 3.12601 -0.157971 0
M  V30 3969 C 376.489 4.55597 -0.46859 0
M  V30 3970 N 377.98 4.61305 -0.418585 0
M  V30 3971 C 378.715 5.69903 -0.63227 0
M  V30 3972 N 378.211 6.86819 -0.90835 0
M  V30 3973 N 380.004 5.59264 -0.563913 0
M  V30 3974 H 372.155 1.76315 -1.18434 0
M  V30 3975 H 374.418 0.820093 -0.475553 0
M  V30 3976 H 374.124 3.29588 -1.22739 0
M  V30 3977 H 373.998 3.74327 0.464691 0
M  V30 3978 H 376.385 2.82735 0.845283 0
M  V30 3979 H 376.466 2.40511 -0.871102 0
M  V30 3980 H 376.11 4.86182 -1.46934 0
M  V30 3981 H 376.04 5.25928 0.265865 0
M  V30 3982 H 378.531 3.77297 -0.213368 0
M  V30 3983 H 378.844 7.65507 -1.05919 0
M  V30 3984 H 377.189 6.88536 -0.945673 0
M  V30 3985 H 380.38 4.66802 -0.348372 0
M  V30 3986 H 380.553 6.43831 -0.733847 0
M  V30 3987 N 373.959 -0.0401083 1.57549 0
M  V30 3988 C 375.208 -0.732108 1.87944 0
M  V30 3989 C 375.521 -1.77107 0.830206 0
M  V30 3990 O 376.727 -2.51488 1.02302 0
M  V30 3991 C 375.183 -1.35315 3.33494 0
M  V30 3992 C 374.791 -0.351105 4.46622 0
M  V30 3993 C 376.535 -2.02566 3.73051 0
M  V30 3994 C 374.442 -0.979859 5.83226 0
M  V30 3995 H 373.372 -0.277188 0.701201 0
M  V30 3996 H 376.023 0.0138501 1.83495 0
M  V30 3997 H 374.405 -2.14844 3.32653 0
M  V30 3998 H 375.579 0.416674 4.58912 0
M  V30 3999 H 373.894 0.218708 4.15825 0
M  V30 4000 H 376.491 -2.50441 4.72423 0
M  V30 4001 H 376.834 -2.83904 3.04474 0
M  V30 4002 H 377.367 -1.29827 3.76018 0
M  V30 4003 H 374.106 -0.206135 6.55176 0
M  V30 4004 H 373.626 -1.71774 5.74677 0
M  V30 4005 H 375.305 -1.49046 6.29599 0
M  V30 4006 N 375.437 -1.54477 -0.31217 0
M  V30 4007 C 376.667 -1.76948 -1.06645 0
M  V30 4008 C 377.075 -0.523593 -1.81811 0
M  V30 4009 O 376.418 0.51578 -1.76311 0
M  V30 4010 C 376.48 -2.91668 -2.10166 0
M  V30 4011 C 376.144 -4.30165 -1.54296 0
M  V30 4012 C 377.141 -5.10603 -0.978793 0
M  V30 4013 C 374.826 -4.76738 -1.58196 0
M  V30 4014 C 376.82 -6.3573 -0.461048 0
M  V30 4015 C 374.507 -6.01831 -1.06034 0
M  V30 4016 C 375.505 -6.81161 -0.500844 0
M  V30 4017 O 375.193 -8.03899 0.0128958 0
M  V30 4018 H 374.925 -0.594088 -0.322546 0
M  V30 4019 H 377.479 -2.02213 -0.360441 0
M  V30 4020 H 375.709 -2.62001 -2.84416 0
M  V30 4021 H 377.398 -3.01817 -2.71406 0
M  V30 4022 H 378.164 -4.75771 -0.941651 0
M  V30 4023 H 374.043 -4.15027 -2.00683 0
M  V30 4024 H 377.587 -6.97596 -0.0236894 0
M  V30 4025 H 373.484 -6.36152 -1.09459 0
M  V30 4026 H 374.252 -8.18437 -0.101457 0
M  V30 4027 N 376.915 0.57481 -1.46744 0
M  V30 4028 C 377.862 1.68329 -1.57905 0
M  V30 4029 C 378.832 1.60625 -0.422927 0
M  V30 4030 O 380.017 1.79721 -0.640711 0
M  V30 4031 C 377.157 3.06665 -1.58274 0
M  V30 4032 C 376.27 3.24935 -2.84678 0
M  V30 4033 C 375.405 4.53566 -2.76499 0
M  V30 4034 C 374.444 4.65207 -3.97806 0
M  V30 4035 N 373.581 5.85172 -3.87967 0
M  V30 4036 H 378.421 1.58127 -2.52587 0
M  V30 4037 H 375.958 0.770552 -1.25303 0
M  V30 4038 H 377.916 3.86745 -1.56473 0
M  V30 4039 H 376.546 3.15745 -0.671194 0
M  V30 4040 H 375.598 2.38405 -2.96424 0
M  V30 4041 H 376.91 3.29403 -3.7456 0
M  V30 4042 H 376.064 5.41885 -2.72848 0
M  V30 4043 H 374.803 4.51548 -1.8427 0
M  V30 4044 H 373.808 3.75304 -4.0178 0
M  V30 4045 H 375.033 4.68997 -4.9114 0
M  V30 4046 H 372.979 5.84137 -2.98529 0
M  V30 4047 H 372.896 5.90943 -4.71511 0
M  V30 4048 H 374.164 6.759 -3.88303 0
M  V30 4049 N 378.394 1.34581 0.820102 0
M  V30 4050 C 379.304 1.28471 1.96297 0
M  V30 4051 C 380.32 0.191902 1.72939 0
M  V30 4052 O 381.496 0.418879 1.96996 0
M  V30 4053 C 378.561 1.04281 3.30645 0
M  V30 4054 C 377.622 2.22745 3.66992 0
M  V30 4055 C 376.855 1.997 4.9493 0
M  V30 4056 O 377.078 0.956656 5.6232 0
M  V30 4057 O 376.012 2.86723 5.2922 0
M  V30 4058 H 379.838 2.24624 2.04396 0
M  V30 4059 H 377.423 1.14816 0.955913 0
M  V30 4060 H 379.305 0.925841 4.11104 0
M  V30 4061 H 377.98 0.111697 3.23507 0
M  V30 4062 H 376.887 2.40003 2.86966 0
M  V30 4063 H 378.22 3.14257 3.78819 0
M  V30 4064 N 379.872 -1.04064 1.18357 0
M  V30 4065 C 381.1 -1.80916 1.00384 0
M  V30 4066 C 381.515 -1.83414 -0.447738 0
M  V30 4067 O 380.872 -1.26962 -1.31099 0
M  V30 4068 C 380.923 -3.26516 1.55144 0
M  V30 4069 O 380.644 -3.2424 2.94618 0
M  V30 4070 C 382.145 -4.20013 1.41789 0
M  V30 4071 H 379.365 -0.569728 0.354474 0
M  V30 4072 H 381.909 -1.31151 1.56906 0
M  V30 4073 H 380.064 -3.73512 1.02798 0
M  V30 4074 H 380.478 -4.15452 3.20156 0
M  V30 4075 H 381.952 -5.20111 1.84901 0
M  V30 4076 H 382.429 -4.37667 0.36661 0
M  V30 4077 H 383.035 -3.78881 1.93207 0
M  V30 4078 N 381.35 -0.985608 -1.22978 0
M  V30 4079 C 382.26 -0.538548 -2.28335 0
M  V30 4080 C 383.276 0.409163 -1.69121 0
M  V30 4081 O 384.452 0.277797 -1.99475 0
M  V30 4082 C 381.517 0.146867 -3.46389 0
M  V30 4083 C 380.578 -0.842896 -4.20944 0
M  V30 4084 C 379.811 -0.190095 -5.33361 0
M  V30 4085 O 380.034 1.01767 -5.61248 0
M  V30 4086 O 378.968 -0.891289 -5.95264 0
M  V30 4087 H 382.794 -1.41487 -2.68729 0
M  V30 4088 H 380.379 -0.753495 -1.29007 0
M  V30 4089 H 382.261 0.531125 -4.1804 0
M  V30 4090 H 380.936 0.997871 -3.07935 0
M  V30 4091 H 379.843 -1.27795 -3.51595 0
M  V30 4092 H 381.176 -1.66287 -4.6326 0
M  V30 4093 N 382.828 1.3818 -0.7579 0
M  V30 4094 C 383.775 2.30416 -0.133057 0
M  V30 4095 C 384.745 1.50398 0.704957 0
M  V30 4096 O 385.93 1.79014 0.660192 0
M  V30 4097 C 383.07 3.36834 0.750813 0
M  V30 4098 C 382.183 4.31879 -0.102297 0
M  V30 4099 C 381.318 5.25368 0.784979 0
M  V30 4100 C 380.357 6.12058 -0.0715046 0
M  V30 4101 N 379.494 6.97832 0.772972 0
M  V30 4102 H 384.334 2.83274 -0.925186 0
M  V30 4103 H 381.871 1.39461 -0.467866 0
M  V30 4104 H 383.829 3.97145 1.27794 0
M  V30 4105 H 382.459 2.85374 1.50868 0
M  V30 4106 H 381.511 3.72991 -0.747095 0
M  V30 4107 H 382.823 4.92921 -0.763552 0
M  V30 4108 H 381.977 5.90818 1.37911 0
M  V30 4109 H 380.716 4.64703 1.47996 0
M  V30 4110 H 379.721 5.456 -0.678272 0
M  V30 4111 H 380.946 6.74793 -0.763606 0
M  V30 4112 H 378.892 6.3971 1.45282 0
M  V30 4113 H 378.809 7.55812 0.168709 0
M  V30 4114 H 380.077 7.67687 1.35194 0
M  V30 4115 N 384.306 0.507319 1.49211 0
M  V30 4116 C 385.722 0.163682 1.58758 0
M  V30 4117 C 385.922 -1.33208 1.51188 0
M  V30 4118 O 384.978 -2.10855 1.38911 0
M  V30 4119 C 386.291 0.746095 2.91297 0
M  V30 4120 C 387.839 0.712773 3.04776 0
M  V30 4121 C 388.314 1.27336 4.39943 0
M  V30 4122 N 389.805 1.23433 4.46451 0
M  V30 4123 C 390.54 1.63821 5.495 0
M  V30 4124 N 390.036 2.11832 6.5962 0
M  V30 4125 N 391.829 1.55198 5.4025 0
M  V30 4126 H 383.98 1.47972 1.52375 0
M  V30 4127 H 386.243 0.614147 0.722168 0
M  V30 4128 H 385.949 1.79534 3.02424 0
M  V30 4129 H 385.823 0.210137 3.76614 0
M  V30 4130 H 388.21 -0.327656 2.93275 0
M  V30 4131 H 388.291 1.28595 2.21127 0
M  V30 4132 H 387.935 2.3126 4.52196 0
M  V30 4133 H 387.865 0.676066 5.22242 0
M  V30 4134 H 390.356 0.882627 3.67448 0
M  V30 4135 H 390.669 2.40703 7.34358 0
M  V30 4136 H 389.014 2.1581 6.60644 0
M  V30 4137 H 392.205 1.17505 4.53112 0
M  V30 4138 H 392.378 1.86997 6.20432 0
M  V30 4139 N 385.784 -1.5574 0.241426 0
M  V30 4140 C 387.012 -2.03208 -0.389134 0
M  V30 4141 C 387.427 -1.12082 -1.51931 0
M  V30 4142 O 386.784 -0.134183 -1.82006 0
M  V30 4143 C 386.835 -3.50064 -0.902087 0
M  V30 4144 O 386.556 -4.37717 0.18305 0
M  V30 4145 C 388.057 -4.13268 -1.60389 0
M  V30 4146 H 385.277 -0.664509 -0.0931053 0
M  V30 4147 H 387.821 -2.0124 0.36369 0
M  V30 4148 H 385.976 -3.52583 -1.60511 0
M  V30 4149 H 386.39 -5.24097 -0.205579 0
M  V30 4150 H 387.864 -5.17733 -1.91458 0
M  V30 4151 H 388.341 -3.59434 -2.52397 0
M  V30 4152 H 388.947 -4.14655 -0.945576 0
M  V30 4153 N 387.262 0.0317525 -1.57568 0
M  V30 4154 C 388.209 1.0332 -2.06382 0
M  V30 4155 C 389.179 1.36082 -0.952414 0
M  V30 4156 O 390.364 1.46466 -1.2228 0
M  V30 4157 C 387.504 2.32989 -2.54578 0
M  V30 4158 C 386.617 2.0641 -3.79498 0
M  V30 4159 C 385.752 3.2993 -4.16317 0
M  V30 4160 C 384.791 2.98893 -5.34162 0
M  V30 4161 N 383.928 4.14857 -5.66426 0
M  V30 4162 H 388.768 0.609982 -2.9169 0
M  V30 4163 H 386.305 0.289573 -1.44222 0
M  V30 4164 H 388.263 3.0875 -2.80587 0
M  V30 4165 H 386.893 2.73039 -1.7219 0
M  V30 4166 H 385.945 1.21158 -3.6059 0
M  V30 4167 H 387.257 1.79513 -4.65378 0
M  V30 4168 H 386.411 4.1406 -4.4344 0
M  V30 4169 H 385.15 3.59938 -3.29083 0
M  V30 4170 H 384.155 2.13164 -5.06795 0
M  V30 4171 H 385.38 2.70165 -6.23047 0
M  V30 4172 H 383.326 4.44821 -4.82151 0
M  V30 4173 H 383.243 3.91374 -6.4681 0
M  V30 4174 H 384.511 4.99868 -5.98124 0
M  V30 4175 N 388.74 1.54641 0.303973 0
M  V30 4176 C 389.65 1.88439 1.39743 0
M  V30 4177 C 390.666 0.778239 1.55626 0
M  V30 4178 O 391.842 1.07442 1.70347 0
M  V30 4179 C 388.907 2.12212 2.74166 0
M  V30 4180 C 387.968 3.35936 2.67293 0
M  V30 4181 C 387.201 3.58566 3.95305 0
M  V30 4182 O 387.424 2.84263 4.9452 0
M  V30 4183 O 386.358 4.52078 3.97378 0
M  V30 4184 H 390.184 2.81458 1.14083 0
M  V30 4185 H 387.769 1.40793 0.499768 0
M  V30 4186 H 389.651 2.29067 3.53704 0
M  V30 4187 H 388.326 1.22379 2.99675 0
M  V30 4188 H 387.233 3.24448 1.86237 0
M  V30 4189 H 388.566 4.2589 2.46736 0
M  V30 4190 N 390.218 -0.567019 1.47046 0
M  V30 4191 C 391.148 -1.68482 1.61667 0
M  V30 4192 C 392.129 -1.6358 0.466418 0
M  V30 4193 O 393.314 -1.81354 0.694574 0
M  V30 4194 C 390.444 -3.07124 1.62148 0
M  V30 4195 C 389.398 -3.26867 2.76301 0
M  V30 4196 C 388.724 -4.66196 2.61849 0
M  V30 4197 C 390.024 -3.13186 4.17986 0
M  V30 4198 H 391.718 -1.56502 2.5524 0
M  V30 4199 H 389.264 -0.751486 1.22836 0
M  V30 4200 H 391.217 -3.8516 1.70968 0
M  V30 4201 H 389.941 -3.2004 0.651287 0
M  V30 4202 H 388.6 -2.51237 2.66975 0
M  V30 4203 H 388.248 -4.75898 1.62879 0
M  V30 4204 H 387.948 -4.80356 3.38425 0
M  V30 4205 H 389.472 -5.46379 2.72584 0
M  V30 4206 H 390.886 -3.81049 4.2834 0
M  V30 4207 H 389.283 -3.3886 4.95272 0
M  V30 4208 H 390.353 -2.10057 4.3704 0
M  V30 4209 N 391.696 -1.35014 -0.812953 0
M  V30 4210 C 392.659 -1.27292 -1.90602 0
M  V30 4211 C 393.659 -0.185817 -1.59723 0
M  V30 4212 O 394.849 -0.439102 -1.68575 0
M  V30 4213 C 391.981 -0.967676 -3.26877 0
M  V30 4214 H 393.174 -2.24479 -1.9887 0
M  V30 4215 H 390.727 -1.19446 -1.00808 0
M  V30 4216 H 391.462 0.0005954 -3.243 0
M  V30 4217 H 391.247 -1.75412 -3.50675 0
M  V30 4218 H 392.737 -0.939085 -4.06904 0
M  V30 4219 N 393.175 1.03435 -1.18907 0
M  V30 4220 C 394.423 1.76394 -0.986382 0
M  V30 4221 C 394.744 1.88883 0.484567 0
M  V30 4222 O 394.014 1.41843 1.3512 0
M  V30 4223 H 392.594 0.65344 -0.361975 0
M  V30 4224 H 395.256 1.248 -1.49703 0
M  V30 4225 H 394.352 2.77424 -1.42978 0
M  V30 4226 N 394.653 0.992116 1.22453 0
M  V30 4227 C 395.583 0.561677 2.26644 0
M  V30 4228 C 396.564 -0.411055 1.65059 0
M  V30 4229 O 397.749 -0.301861 1.9184 0
M  V30 4230 C 394.879 -0.125247 3.47074 0
M  V30 4231 C 393.833 0.765948 4.21091 0
M  V30 4232 C 393.159 -0.0538484 5.34673 0
M  V30 4233 C 394.459 2.06242 4.79856 0
M  V30 4234 H 396.153 1.43259 2.62902 0
M  V30 4235 H 393.699 0.690283 1.26377 0
M  V30 4236 H 395.652 -0.437764 4.1912 0
M  V30 4237 H 394.376 -1.03069 3.0991 0
M  V30 4238 H 393.035 1.0621 3.50878 0
M  V30 4239 H 392.683 -0.960188 4.9375 0
M  V30 4240 H 392.383 0.539415 5.85119 0
M  V30 4241 H 393.907 -0.360477 6.09535 0
M  V30 4242 H 395.321 1.8139 5.43848 0
M  V30 4243 H 393.718 2.60444 5.40638 0
M  V30 4244 H 394.788 2.74167 3.99951 0
M  V30 4245 N 396.131 -1.37776 0.765217 0
M  V30 4246 C 397.063 -2.28958 0.105361 0
M  V30 4247 C 398.076 -1.48316 -0.67128 0
M  V30 4248 O 399.265 -1.71046 -0.51045 0
M  V30 4249 C 396.365 -3.27421 -0.874569 0
M  V30 4250 C 395.538 -4.37132 -0.153123 0
M  V30 4251 C 394.597 -5.1571 -1.04547 0
M  V30 4252 O 393.623 -5.66896 -0.511672 0
M  V30 4253 N 394.825 -5.29808 -2.37243 0
M  V30 4254 H 397.59 -2.86227 0.888495 0
M  V30 4255 H 395.151 -1.49682 0.617 0
M  V30 4256 H 397.143 -3.7687 -1.47483 0
M  V30 4257 H 395.713 -2.70967 -1.55871 0
M  V30 4258 H 394.933 -3.89166 0.627975 0
M  V30 4259 H 396.221 -5.07625 0.345643 0
M  V30 4260 H 395.619 -4.89793 -2.83054 0
M  V30 4261 H 394.176 -5.82589 -2.9229 0
M  V30 4262 N 397.609 -0.515225 -1.4894 0
M  V30 4263 C 398.572 0.244681 -2.2789 0
M  V30 4264 C 399.572 0.881166 -1.34507 0
M  V30 4265 O 400.762 0.743497 -1.57537 0
M  V30 4266 C 397.894 1.35247 -3.12923 0
M  V30 4267 H 399.087 -0.448289 -2.96531 0
M  V30 4268 H 396.64 -0.270656 -1.53939 0
M  V30 4269 H 397.375 2.07916 -2.48881 0
M  V30 4270 H 397.16 0.901374 -3.81599 0
M  V30 4271 H 398.65 1.88737 -3.72516 0
M  V30 4272 N 399.087 1.5561 -0.249682 0
M  V30 4273 C 400.312 2.03865 0.381305 0
M  V30 4274 C 400.737 1.12769 1.50548 0
M  V30 4275 O 400.095 0.121189 1.80895 0
M  V30 4276 C 400.143 3.50101 0.863816 0
M  V30 4277 O 399.247 3.62132 1.97318 0
M  V30 4278 H 398.588 0.658827 0.0827194 0
M  V30 4279 H 401.118 2.01105 -0.376552 0
M  V30 4280 H 401.128 3.90975 1.1663 0
M  V30 4281 H 399.803 4.1588 0.0411816 0
M  V30 4282 H 398.38 3.33155 1.67517 0
M  V30 4283 N 400.565 -0.0233959 1.57583 0
M  V30 4284 C 401.813 -0.711654 1.89156 0
M  V30 4285 C 402.134 -1.75591 0.848096 0
M  V30 4286 O 401.404 -1.95547 -0.117566 0
M  V30 4287 H 399.984 -0.265835 0.698098 0
M  V30 4288 H 402.646 0.0119948 1.94896 0
M  V30 4289 H 401.742 -1.19766 2.88206 0
M  V30 4290 N 402.043 -1.548 -0.295768 0
M  V30 4291 C 403.271 -1.78327 -1.04914 0
M  V30 4292 C 403.686 -0.545316 -1.80753 0
M  V30 4293 O 403.043 0.485013 -1.75937 0
M  V30 4294 C 403.094 -2.99418 -2.02561 0
M  V30 4295 O 402.815 -4.18431 -1.29798 0
M  V30 4296 C 404.316 -3.35375 -2.89895 0
M  V30 4297 H 401.536 -0.594618 -0.310918 0
M  V30 4298 H 404.08 -2.01763 -0.333454 0
M  V30 4299 H 402.235 -2.78175 -2.69624 0
M  V30 4300 H 402.649 -4.86736 -1.95419 0
M  V30 4301 H 404.123 -4.23332 -3.54251 0
M  V30 4302 H 404.6 -2.53761 -3.58472 0
M  V30 4303 H 405.206 -3.58796 -2.28355 0
M  V30 4304 N 403.521 0.559213 -1.47345 0
M  V30 4305 C 404.431 1.69388 -1.62311 0
M  V30 4306 C 405.447 1.6648 -0.505993 0
M  V30 4307 O 406.623 1.85964 -0.773262 0
M  V30 4308 C 403.688 3.05894 -1.63185 0
M  V30 4309 C 402.749 3.19885 -2.86307 0
M  V30 4310 C 401.982 4.49879 -2.87131 0
M  V30 4311 O 402.205 5.35217 -1.97229 0
M  V30 4312 O 401.139 4.67618 -3.78968 0
M  V30 4313 H 404.965 1.59706 -2.58317 0
M  V30 4314 H 402.55 0.728989 -1.30407 0
M  V30 4315 H 404.432 3.87133 -1.66451 0
M  V30 4316 H 403.107 3.15964 -0.70345 0
M  V30 4317 H 402.014 2.38052 -2.88587 0
M  V30 4318 H 403.347 3.14718 -3.78435 0
M  V30 4319 N 404.999 1.35443 0.805782 0
M  V30 4320 C 405.962 1.28301 1.89925 0
M  V30 4321 C 406.962 0.194285 1.59622 0
M  V30 4322 O 408.152 0.448036 1.6834 0
M  V30 4323 C 405.284 0.984997 3.2636 0
M  V30 4324 H 406.477 2.2553 1.97677 0
M  V30 4325 H 404.03 1.19979 1.00173 0
M  V30 4326 H 404.765 0.016603 3.24296 0
M  V30 4327 H 404.55 1.77269 3.4974 0
M  V30 4328 H 406.04 0.960651 4.064 0
M  V30 4329 N 406.477 -1.02803 1.19454 0
M  V30 4330 C 407.387 -2.14575 0.948408 0
M  V30 4331 C 408.403 -1.73757 -0.091871 0
M  V30 4332 O 409.579 -2.01185 0.0929654 0
M  V30 4333 C 406.644 -3.43202 0.491265 0
M  V30 4334 C 405.705 -3.98328 1.60103 0
M  V30 4335 C 404.938 -5.20816 1.16561 0
M  V30 4336 O 405.161 -5.70392 0.0295238 0
M  V30 4337 O 404.095 -5.68801 1.96849 0
M  V30 4338 H 407.921 -2.38202 1.88397 0
M  V30 4339 H 405.506 -1.12989 0.977433 0
M  V30 4340 H 407.388 -4.20687 0.245015 0
M  V30 4341 H 406.063 -3.21018 -0.415851 0
M  V30 4342 H 404.97 -3.22174 1.90144 0
M  V30 4343 H 406.303 -4.24879 2.48473 0
M  V30 4344 N 407.956 -0.998596 -1.21925 0
M  V30 4345 C 409.184 -0.696286 -1.94832 0
M  V30 4346 C 409.599 0.740032 -1.73692 0
M  V30 4347 O 408.956 1.5 -1.03953 0
M  V30 4348 C 409.007 -0.999833 -3.47398 0
M  V30 4349 O 408.728 -2.37972 -3.67833 0
M  V30 4350 C 410.229 -0.716025 -4.37479 0
M  V30 4351 H 407.449 -0.257111 -0.619786 0
M  V30 4352 H 409.993 -1.33491 -1.54921 0
M  V30 4353 H 408.148 -0.406918 -3.85257 0
M  V30 4354 H 408.562 -2.48338 -4.61983 0
M  V30 4355 H 410.036 -0.978642 -5.43256 0
M  V30 4356 H 410.513 0.349968 -4.37803 0
M  V30 4357 H 411.119 -1.29025 -4.05256 0
M  V30 4358 N 409.434 1.37368 -0.772513 0
M  V30 4359 C 410.344 2.34053 -0.160081 0
M  V30 4360 C 411.36 1.60216 0.678728 0
M  V30 4361 O 412.536 1.92303 0.59847 0
M  V30 4362 C 409.601 3.3939 0.708182 0
M  V30 4363 C 408.662 4.29048 -0.147172 0
M  V30 4364 C 407.895 5.29354 0.679744 0
M  V30 4365 O 408.118 5.3723 1.91678 0
M  V30 4366 O 407.052 6.01835 0.0885444 0
M  V30 4367 H 410.878 2.88159 -0.959053 0
M  V30 4368 H 408.463 1.39543 -0.533685 0
M  V30 4369 H 410.345 4.03839 1.20384 0
M  V30 4370 H 409.02 2.8761 1.48533 0
M  V30 4371 H 407.927 3.67697 -0.689205 0
M  V30 4372 H 409.26 4.84134 -0.887423 0
M  V30 4373 N 410.912 0.523116 1.48665 0
M  V30 4374 C 411.86 -0.256859 2.31177 0
M  V30 4375 C 412.854 -0.94199 1.40794 0
M  V30 4376 O 414.06 -0.867157 1.57735 0
M  V30 4377 H 410.435 -0.1017 0.745091 0
M  V30 4378 H 412.406 0.458739 2.94853 0
M  V30 4379 C 411.155 -1.29503 3.22683 0
M  V30 4380 H 410.478 -0.777248 3.92172 0
M  V30 4381 H 411.918 -1.81233 3.83315 0
M  V30 4382 C 410.377 -2.32501 2.43813 0
M  V30 4383 O 410.907 -3.3881 2.15803 0
M  V30 4384 N 409.113 -2.05538 2.05432 0
M  V30 4385 H 408.66 -1.19104 2.28412 0
M  V30 4386 H 408.618 -2.74676 1.52973 0
M  V30 4387 N 412.39 -1.55475 0.257931 0
M  V30 4388 C 413.637 -1.99207 -0.363728 0
M  V30 4389 C 413.965 -1.1462 -1.57139 0
M  V30 4390 O 413.22 -0.199653 -1.94679 0
M  V30 4391 C 413.519 -3.48183 -0.806433 0
M  V30 4392 C 413.185 -4.49936 0.294684 0
M  V30 4393 C 411.847 -4.77481 0.597076 0
M  V30 4394 C 414.199 -5.10769 1.03751 0
M  V30 4395 C 411.527 -5.63132 1.64618 0
M  V30 4396 C 413.879 -5.97558 2.07622 0
M  V30 4397 C 412.543 -6.23432 2.38514 0
M  V30 4398 H 411.813 -0.728949 -0.133097 0
M  V30 4399 H 414.46 -1.8793 0.368059 0
M  V30 4400 H 412.765 -3.56848 -1.61761 0
M  V30 4401 H 414.462 -3.79415 -1.29789 0
M  V30 4402 H 411.052 -4.28572 0.0488649 0
M  V30 4403 H 415.236 -4.89527 0.817149 0
M  V30 4404 H 410.492 -5.8143 1.89074 0
M  V30 4405 H 414.666 -6.43735 2.65666 0
M  V30 4406 H 412.293 -6.89594 3.19943 0
M  V30 4407 N 413.868 0.0150385 -1.57593 0
M  V30 4408 C 415.114 0.704043 -1.90187 0
M  V30 4409 C 415.447 1.74249 -0.857366 0
M  V30 4410 O 414.722 1.94092 0.125843 0
M  V30 4411 C 415.005 1.36087 -3.33395 0
M  V30 4412 C 414.858 0.334981 -4.48551 0
M  V30 4413 C 416.177 2.29112 -3.7576 0
M  V30 4414 H 413.296 0.254475 -0.691673 0
M  V30 4415 H 415.938 -0.0331678 -1.89971 0
M  V30 4416 H 414.088 1.98922 -3.3371 0
M  V30 4417 H 415.76 -0.292534 -4.60372 0
M  V30 4418 H 414.003 -0.344325 -4.32431 0
M  V30 4419 H 414.674 0.833316 -5.45674 0
M  V30 4420 H 417.15 1.76308 -3.76902 0
M  V30 4421 H 416.026 2.72043 -4.76743 0
M  V30 4422 H 416.287 3.16385 -3.08793 0
M  V30 4423 N 415.346 1.54954 0.287554 0
M  V30 4424 C 416.296 1.8322 1.357 0
M  V30 4425 C 417.28 0.690152 1.45347 0
M  V30 4426 O 418.472 0.951137 1.49273 0
M  V30 4427 C 415.601 2.09481 2.71979 0
M  V30 4428 C 414.687 3.29906 2.66502 0
M  V30 4429 N 415.078 4.50154 2.30641 0
M  V30 4430 C 413.376 3.32203 2.97585 0
M  V30 4431 C 414.077 5.32209 2.34794 0
M  V30 4432 N 413.053 4.70258 2.72688 0
M  V30 4433 H 416.855 2.73746 1.0696 0
M  V30 4434 H 414.369 1.54635 0.496167 0
M  V30 4435 H 416.366 2.27882 3.49107 0
M  V30 4436 H 415.026 1.2023 3.0162 0
M  V30 4437 H 416.037 4.76515 2.02865 0
M  V30 4438 H 412.714 2.53101 3.32034 0
M  V30 4439 H 414.104 6.38321 2.09753 0
M  V30 4440 N 416.824 -0.551391 1.4764 0
M  V30 4441 C 418.235 -1.13349 1.48354 0
M  V30 4442 C 418.586 -1.94709 0.241432 0
M  V30 4443 O 417.711 -2.06306 -0.653205 0
M  V30 4444 C 418.306 -2.0623 2.68802 0
M  V30 4445 C 416.865 -2.597 2.72457 0
M  V30 4446 C 416.012 -1.36201 2.41546 0
M  V30 4447 H 418.963 -0.337698 1.55065 0
M  V30 4448 H 418.984 -2.90196 2.46103 0
M  V30 4449 H 418.496 -1.46987 3.59188 0
M  V30 4450 H 416.597 -3.22724 1.86225 0
M  V30 4451 H 416.71 -3.00296 3.73308 0
M  V30 4452 H 415.074 -1.67068 1.9225 0
M  V30 4453 H 415.857 -0.787425 3.34147 0
M  V30 4454 N 418.302 -1.35869 -0.798587 0
M  V30 4455 C 419.53 -1.32722 -1.58722 0
M  V30 4456 C 419.945 0.0935631 -1.88568 0
M  V30 4457 O 419.302 1.04784 -1.49421 0
M  V30 4458 C 419.353 -2.13974 -2.91371 0
M  V30 4459 O 419.074 -3.50514 -2.62815 0
M  V30 4460 C 420.575 -2.18504 -3.85708 0
M  V30 4461 H 417.795 -0.45562 -0.492596 0
M  V30 4462 H 420.339 -1.78837 -0.991843 0
M  V30 4463 H 418.494 -1.71438 -3.47402 0
M  V30 4464 H 418.908 -3.92806 -3.47568 0
M  V30 4465 H 420.382 -2.79732 -4.75872 0
M  V30 4466 H 420.859 -1.18597 -4.22885 0
M  V30 4467 H 421.465 -2.61236 -3.35612 0
M  V30 4468 N 419.78 1.02168 -1.19998 0
M  V30 4469 C 421.028 1.75338 -1.00504 0
M  V30 4470 C 421.349 1.89387 0.464506 0
M  V30 4471 O 420.619 1.43268 1.33608 0
M  V30 4472 H 419.199 0.649564 -0.368885 0
M  V30 4473 H 421.861 1.23205 -1.51018 0
M  V30 4474 H 420.957 2.75892 -1.45912 0
M  V30 4475 N 421.258 1.00505 1.21394 0
M  V30 4476 C 422.483 0.706367 1.95001 0
M  V30 4477 C 422.908 -0.72463 1.73582 0
M  V30 4478 O 422.266 -1.49702 1.0227 0
M  V30 4479 C 422.314 1.03299 3.45487 0
M  V30 4480 O 421.418 0.138275 4.12168 0
M  V30 4481 H 420.759 0.263175 0.609619 0
M  V30 4482 H 423.289 1.34531 1.54151 0
M  V30 4483 H 423.299 0.979872 3.96059 0
M  V30 4484 H 421.974 2.07567 3.60401 0
M  V30 4485 H 420.551 0.247928 3.72075 0
M  V30 4486 N 422.737 -1.36956 0.779787 0
M  V30 4487 C 423.962 -2.04283 0.358224 0
M  V30 4488 C 424.387 -1.58422 -1.01411 0
M  V30 4489 O 423.745 -0.748179 -1.65142 0
M  V30 4490 C 423.793 -3.58152 0.419479 0
M  V30 4491 O 422.897 -4.08342 -0.577142 0
M  V30 4492 H 422.238 -0.645967 0.153698 0
M  V30 4493 H 424.768 -1.75108 1.05822 0
M  V30 4494 H 424.778 -4.07041 0.279636 0
M  V30 4495 H 423.453 -3.90886 1.42061 0
M  V30 4496 H 422.03 -3.70751 -0.399755 0
M  V30 4497 N 424.215 -0.530993 -1.48385 0
M  V30 4498 C 425.631 -0.188919 -1.58478 0
M  V30 4499 C 425.831 1.30786 -1.53288 0
M  V30 4500 O 424.887 2.08619 -1.42248 0
M  V30 4501 C 426.2 -0.792343 -2.90073 0
M  V30 4502 C 427.748 -0.76117 -3.03604 0
M  V30 4503 C 428.223 -1.34319 -4.37861 0
M  V30 4504 N 429.714 -1.3052 -4.44431 0
M  V30 4505 C 430.449 -1.72543 -5.46824 0
M  V30 4506 N 429.945 -2.22299 -6.56167 0
M  V30 4507 N 431.738 -1.63773 -5.37712 0
M  V30 4508 H 423.889 -1.50377 -1.50002 0
M  V30 4509 H 426.152 -0.625559 -0.712306 0
M  V30 4510 H 425.858 -1.84323 -2.99529 0
M  V30 4511 H 425.732 -0.270026 -3.76232 0
M  V30 4512 H 428.119 0.280957 -2.93759 0
M  V30 4513 H 428.2 -1.32097 -2.19053 0
M  V30 4514 H 427.844 -2.38425 -4.4846 0
M  V30 4515 H 427.774 -0.759064 -5.21101 0
M  V30 4516 H 430.265 -0.940973 -3.65997 0
M  V30 4517 H 430.578 -2.52356 -7.30436 0
M  V30 4518 H 428.923 -2.26293 -6.57127 0
M  V30 4519 H 432.114 -1.24698 -4.51185 0
M  V30 4520 H 432.287 -1.96844 -6.17379 0
M  V30 4521 N 425.693 1.55336 -0.266172 0
M  V30 4522 C 426.918 2.04258 0.359661 0
M  V30 4523 C 427.343 1.14359 1.49344 0
M  V30 4524 O 426.701 0.140369 1.80756 0
M  V30 4525 C 426.749 3.50997 0.826635 0
M  V30 4526 O 425.853 3.64204 1.93466 0
M  V30 4527 H 425.194 0.659668 0.075727 0
M  V30 4528 H 427.724 2.00694 -0.39786 0
M  V30 4529 H 427.734 3.9219 1.12477 0
M  V30 4530 H 426.409 4.159 -0.00293032 0
M  V30 4531 H 424.986 3.34913 1.63974 0
M  V30 4532 N 427.171 -0.0066808 1.57599 0
M  V30 4533 C 428.411 -0.697501 1.92131 0
M  V30 4534 C 428.775 -1.71306 0.867071 0
M  V30 4535 O 429.976 -2.45377 1.09743 0
M  V30 4536 C 428.247 -1.32978 3.3174 0
M  V30 4537 S 429.806 -2.04665 3.88146 0
M  V30 4538 H 426.624 -0.230555 0.672581 0
M  V30 4539 H 429.226 0.0484026 1.9544 0
M  V30 4540 H 427.93 -0.57772 4.06313 0
M  V30 4541 H 427.461 -2.11376 3.31789 0
M  V30 4542 H 429.476 -3.32097 3.68682 0
M  V30 4543 N 428.649 -1.55105 -0.279332 0
M  V30 4544 C 429.874 -1.7976 -1.03446 0
M  V30 4545 C 430.299 -0.565952 -1.79384 0
M  V30 4546 O 429.657 0.484259 -1.74713 0
M  V30 4547 C 429.705 -3.0179 -1.97371 0
M  V30 4548 O 428.809 -2.76432 -3.06038 0
M  V30 4549 H 428.15 -0.594334 -0.29608 0
M  V30 4550 H 430.68 -2.02235 -0.310165 0
M  V30 4551 H 430.69 -3.30351 -2.39441 0
M  V30 4552 H 429.365 -3.91085 -1.4151 0
M  V30 4553 H 427.942 -2.58949 -2.68328 0
M  V30 4554 N 430.127 0.543554 -1.4793 0
M  V30 4555 C 431.352 1.32995 -1.59145 0
M  V30 4556 C 431.777 1.86472 -0.246956 0
M  V30 4557 O 431.135 1.63696 0.779324 0
M  V30 4558 C 431.183 2.46623 -2.63077 0
M  V30 4559 O 430.287 3.49261 -2.19295 0
M  V30 4560 H 429.628 0.394472 -0.534124 0
M  V30 4561 H 432.158 0.655489 -1.93816 0
M  V30 4562 H 432.168 2.93001 -2.83926 0
M  V30 4563 H 430.843 2.07059 -3.60693 0
M  V30 4564 H 429.42 3.09094 -2.08603 0
M  V30 4565 N 431.605 1.3629 0.791371 0
M  V30 4566 C 432.835 1.33368 1.57786 0
M  V30 4567 C 433.243 -0.0875188 1.88997 0
M  V30 4568 O 432.586 -1.05427 1.50435 0
M  V30 4569 C 432.648 2.08802 2.92646 0
M  V30 4570 C 432.312 3.57903 2.84174 0
M  V30 4571 C 433.309 4.52191 2.56553 0
M  V30 4572 C 430.994 4.00762 3.02812 0
M  V30 4573 C 432.988 5.87315 2.47669 0
M  V30 4574 C 430.675 5.35977 2.93551 0
M  V30 4575 C 431.673 6.29066 2.66017 0
M  V30 4576 O 431.361 7.61798 2.56746 0
M  V30 4577 H 431.093 0.459166 0.496128 0
M  V30 4578 H 433.647 1.79952 0.990269 0
M  V30 4579 H 431.877 1.56878 3.53449 0
M  V30 4580 H 433.566 1.98762 3.53904 0
M  V30 4581 H 434.332 4.20393 2.41858 0
M  V30 4582 H 430.211 3.2868 3.2325 0
M  V30 4583 H 433.755 6.59943 2.26099 0
M  V30 4584 H 429.652 5.67384 3.07808 0
M  V30 4585 H 430.42 7.71898 2.72242 0
M  V30 4586 N 433.083 -1.0153 1.20538 0
M  V30 4587 C 433.993 -2.13557 0.971113 0
M  V30 4588 C 435.009 -1.73845 -0.0734366 0
M  V30 4589 O 436.185 -2.01075 0.114299 0
M  V30 4590 C 433.25 -3.42661 0.527639 0
M  V30 4591 C 432.311 -3.96608 1.64319 0
M  V30 4592 C 431.544 -5.1955 1.22078 0
M  V30 4593 O 431.767 -5.70329 0.0900198 0
M  V30 4594 O 430.701 -5.66681 2.02871 0
M  V30 4595 H 434.527 -2.3619 1.90913 0
M  V30 4596 H 432.112 -1.11946 0.989362 0
M  V30 4597 H 433.994 -4.20404 0.289621 0
M  V30 4598 H 432.669 -3.21441 -0.381779 0
M  V30 4599 H 431.576 -3.20139 1.93551 0
M  V30 4600 H 432.909 -4.22219 2.52966 0
M  V30 4601 N 434.561 -1.01147 -1.20859 0
M  V30 4602 C 435.491 -0.597663 -2.25722 0
M  V30 4603 C 436.472 0.384744 -1.65692 0
M  V30 4604 O 437.657 0.271303 -1.92296 0
M  V30 4605 C 434.787 0.0700149 -3.47229 0
M  V30 4606 C 433.741 -0.832843 -4.19819 0
M  V30 4607 C 433.067 -0.0312202 -5.34691 0
M  V30 4608 C 434.367 -2.1385 -4.76514 0
M  V30 4609 H 436.061 -1.47423 -2.60589 0
M  V30 4610 H 433.607 -0.710301 -1.25263 0
M  V30 4611 H 435.56 0.37103 -4.19763 0
M  V30 4612 H 434.284 0.981259 -3.11511 0
M  V30 4613 H 432.943 -1.11778 -3.49144 0
M  V30 4614 H 432.591 0.881515 -4.95215 0
M  V30 4615 H 432.291 -0.632434 -5.84187 0
M  V30 4616 H 433.815 0.26346 -6.10031 0
M  V30 4617 H 435.229 -1.9002 -5.40893 0
M  V30 4618 H 433.626 -2.69012 -5.36426 0
M  V30 4619 H 434.696 -2.80495 -3.95538 0
M  V30 4620 N 436.039 1.36541 -0.78704 0
M  V30 4621 C 436.971 2.28761 -0.141773 0
M  V30 4622 C 437.984 1.49365 0.647599 0
M  V30 4623 O 439.173 1.71836 0.483173 0
M  V30 4624 C 436.273 3.28771 0.822368 0
M  V30 4625 C 435.446 4.3732 0.0835594 0
M  V30 4626 C 434.505 5.17307 0.963296 0
M  V30 4627 O 433.531 5.67638 0.421419 0
M  V30 4628 N 434.733 5.33515 2.28784 0
M  V30 4629 H 437.498 2.84777 -0.933919 0
M  V30 4630 H 435.059 1.48682 -0.640735 0
M  V30 4631 H 437.051 3.79169 1.41468 0
M  V30 4632 H 435.621 2.73412 1.5154 0
M  V30 4633 H 434.841 3.88118 -0.689809 0
M  V30 4634 H 436.129 5.0701 -0.426358 0
M  V30 4635 H 435.527 4.94234 2.75226 0
M  V30 4636 H 434.084 5.87165 2.82985 0
M  V30 4637 N 437.518 0.538854 1.48102 0
M  V30 4638 C 438.45 -0.256278 2.27763 0
M  V30 4639 C 439.463 -0.89633 1.35904 0
M  V30 4640 O 440.652 -0.773275 1.60881 0
M  V30 4641 C 437.752 -1.37896 3.09577 0
M  V30 4642 C 436.925 -0.839159 4.29275 0
M  V30 4643 C 435.984 -1.84405 4.9283 0
M  V30 4644 O 435.01 -1.39746 5.51779 0
M  V30 4645 N 436.212 -3.17666 4.85869 0
M  V30 4646 H 438.977 0.426968 2.96643 0
M  V30 4647 H 436.538 0.373747 1.57527 0
M  V30 4648 H 438.53 -2.04955 3.48963 0
M  V30 4649 H 437.1 -1.96572 2.4306 0
M  V30 4650 H 436.32 0.00769287 3.94199 0
M  V30 4651 H 437.608 -0.457548 5.06739 0
M  V30 4652 H 437.006 -3.56609 4.39143 0
M  V30 4653 H 435.563 -3.80334 5.29329 0
M  V30 4654 N 438.996 -1.55193 0.274407 0
M  V30 4655 C 439.928 -2.1989 -0.646595 0
M  V30 4656 C 440.941 -1.1834 -1.11801 0
M  V30 4657 O 442.13 -1.4507 -1.04004 0
M  V30 4658 C 439.23 -2.8104 -1.89393 0
M  V30 4659 C 438.403 -4.08274 -1.56943 0
M  V30 4660 C 437.462 -4.53478 -2.66916 0
M  V30 4661 O 436.488 -5.19267 -2.33132 0
M  V30 4662 N 437.69 -4.2356 -3.9696 0
M  V30 4663 H 440.455 -2.99556 -0.0928686 0
M  V30 4664 H 438.016 -1.61618 0.0954783 0
M  V30 4665 H 440.008 -3.08226 -2.62257 0
M  V30 4666 H 438.578 -2.05372 -2.35672 0
M  V30 4667 H 437.798 -3.88384 -0.674655 0
M  V30 4668 H 439.086 -4.91173 -1.32764 0
M  V30 4669 H 438.484 -3.70799 -4.27229 0
M  V30 4670 H 437.041 -4.55518 -4.66205 0
M  V30 4671 N 440.474 -0.00167713 -1.576 0
M  V30 4672 C 441.699 0.69739 -1.95323 0
M  V30 4673 C 442.124 1.6642 -0.876706 0
M  V30 4674 O 441.482 1.80548 0.165007 0
M  V30 4675 C 441.53 1.40403 -3.32144 0
M  V30 4676 O 440.634 2.5185 -3.26566 0
M  V30 4677 H 439.975 0.185373 -0.637599 0
M  V30 4678 H 442.505 -0.0553665 -2.04525 0
M  V30 4679 H 442.515 1.76707 -3.67748 0
M  V30 4680 H 441.19 0.695167 -4.10049 0
M  V30 4681 H 439.767 2.17861 -3.0264 0
M  V30 4682 N 441.952 1.55251 0.271103 0
M  V30 4683 C 442.885 1.83191 1.36075 0
M  V30 4684 C 443.863 0.685091 1.47463 0
M  V30 4685 O 445.047 0.928292 1.64058 0
M  V30 4686 C 442.174 1.99521 2.73696 0
M  V30 4687 C 441.22 3.22081 2.79582 0
M  V30 4688 S 442.053 4.79388 2.38636 0
M  V30 4689 C 443.209 4.98693 3.78228 0
M  V30 4690 H 443.442 2.75327 1.12171 0
M  V30 4691 H 440.975 1.47046 0.470833 0
M  V30 4692 H 442.933 2.09613 3.52948 0
M  V30 4693 H 441.594 1.0827 2.9485 0
M  V30 4694 H 440.787 3.304 3.80594 0
M  V30 4695 H 440.389 3.10589 2.08352 0
M  V30 4696 H 442.681 4.84551 4.73515 0
M  V30 4697 H 443.624 6.00738 3.7486 0
M  V30 4698 H 444.032 4.26665 3.69618 0
M  V30 4699 N 443.43 -0.535701 1.48216 0
M  V30 4700 C 444.377 -1.64083 1.62312 0
M  V30 4701 C 445.347 -1.59448 0.465365 0
M  V30 4702 O 446.532 -1.77959 0.688135 0
M  V30 4703 C 443.672 -3.0236 1.66349 0
M  V30 4704 C 442.785 -3.17273 2.93193 0
M  V30 4705 C 441.92 -4.46075 2.88427 0
M  V30 4706 C 440.959 -4.54496 4.1 0
M  V30 4707 N 440.096 -5.7468 4.03345 0
M  V30 4708 H 444.936 -1.51374 2.5669 0
M  V30 4709 H 442.473 -0.737059 1.27302 0
M  V30 4710 H 444.431 -3.82461 1.66672 0
M  V30 4711 H 443.061 -3.13854 0.754672 0
M  V30 4712 H 442.113 -2.30462 3.02641 0
M  V30 4713 H 443.425 -3.19357 3.83162 0
M  V30 4714 H 442.579 -5.3446 2.87119 0
M  V30 4715 H 441.318 -4.46504 1.96177 0
M  V30 4716 H 440.323 -3.64519 4.11589 0
M  V30 4717 H 441.548 -4.5581 5.03402 0
M  V30 4718 H 439.494 -5.76017 3.13912 0
M  V30 4719 H 439.411 -5.78234 4.87013 0
M  V30 4720 H 440.679 -6.65367 4.06087 0
M  V30 4721 N 444.908 -1.36708 -0.784132 0
M  V30 4722 C 446.324 -1.17237 -1.08294 0
M  V30 4723 C 446.524 -5.93947e-05 -2.015 0
M  V30 4724 O 445.58 0.663686 -2.43622 0
M  V30 4725 C 446.893 -2.48557 -1.69233 0
M  V30 4726 C 448.441 -2.54968 -1.8155 0
M  V30 4727 C 448.916 -3.86388 -2.45904 0
M  V30 4728 N 450.407 -3.87762 -2.53367 0
M  V30 4729 C 451.142 -4.86191 -3.03983 0
M  V30 4730 N 450.638 -5.95015 -3.54866 0
M  V30 4731 N 452.431 -4.73606 -3.02743 0
M  V30 4732 H 444.582 -2.11758 -0.16501 0
M  V30 4733 H 446.845 -0.93822 -0.135822 0
M  V30 4734 H 446.551 -3.34638 -1.08215 0
M  V30 4735 H 446.425 -2.64748 -2.68679 0
M  V30 4736 H 448.812 -1.69302 -2.41704 0
M  V30 4737 H 448.893 -2.42672 -0.80895 0
M  V30 4738 H 448.537 -4.72462 -1.86392 0
M  V30 4739 H 448.467 -3.95982 -3.4714 0
M  V30 4740 H 450.958 -3.09145 -2.17343 0
M  V30 4741 H 451.271 -6.66086 -3.91854 0
M  V30 4742 H 449.616 -5.98676 -3.53003 0
M  V30 4743 H 452.807 -3.87717 -2.62284 0
M  V30 4744 H 452.98 -5.50473 -3.41881 0
M  V30 4745 N 446.386 1.0089 -1.21074 0
M  V30 4746 C 447.611 1.78727 -1.05221 0
M  V30 4747 C 448.036 1.83932 0.393795 0
M  V30 4748 O 447.394 1.28004 1.28393 0
M  V30 4749 C 447.442 3.20665 -1.64944 0
M  V30 4750 O 446.546 4.02632 -0.892273 0
M  V30 4751 H 445.887 0.550973 -0.370574 0
M  V30 4752 H 448.417 1.26847 -1.60534 0
M  V30 4753 H 448.427 3.71352 -1.69002 0
M  V30 4754 H 447.102 3.16191 -2.70177 0
M  V30 4755 H 445.679 3.61207 -0.926492 0
M  V30 4756 N 447.864 1.01787 1.20321 0
M  V30 4757 C 448.812 0.58254 2.25187 0
M  V30 4758 C 449.806 -0.379359 1.65098 0
M  V30 4759 O 451.012 -0.249142 1.78267 0
M  V30 4760 H 447.387 0.170078 0.732514 0
M  V30 4761 H 449.358 1.47788 2.59232 0
M  V30 4762 C 448.107 -0.0620885 3.47645 0
M  V30 4763 H 447.43 0.669069 3.94162 0
M  V30 4764 H 448.87 -0.329784 4.22716 0
M  V30 4765 C 447.329 -1.3053 3.10586 0
M  V30 4766 O 447.859 -2.39848 3.22236 0
M  V30 4767 N 446.065 -1.18988 2.65123 0
M  V30 4768 H 445.612 -0.300341 2.55843 0
M  V30 4769 H 445.57 -2.02267 2.40698 0
M  V30 4770 N 449.342 -1.36122 0.79427 0
M  V30 4771 C 450.758 -1.5232 0.476525 0
M  V30 4772 C 450.958 -1.74685 -1.00436 0
M  V30 4773 O 450.014 -1.78115 -1.78973 0
M  V30 4774 C 451.327 -2.70607 1.31119 0
M  V30 4775 C 452.875 -2.8448 1.30537 0
M  V30 4776 C 453.35 -4.05778 2.12387 0
M  V30 4777 N 454.841 -4.12933 2.09859 0
M  V30 4778 C 455.576 -5.05876 2.69957 0
M  V30 4779 N 455.072 -6.04232 3.38934 0
M  V30 4780 N 456.865 -4.98528 2.59665 0
M  V30 4781 H 449.016 -1.1986 1.75349 0
M  V30 4782 H 451.279 -0.585418 0.745647 0
M  V30 4783 H 450.985 -2.60619 2.36158 0
M  V30 4784 H 450.859 -3.64888 0.955843 0
M  V30 4785 H 453.246 -2.93927 0.262876 0
M  V30 4786 H 453.327 -1.91093 1.70051 0
M  V30 4787 H 452.971 -3.97092 3.1667 0
M  V30 4788 H 452.901 -4.98323 1.70242 0
M  V30 4789 H 455.392 -3.42515 1.59662 0
M  V30 4790 H 455.705 -6.71724 3.82109 0
M  V30 4791 H 454.05 -6.04443 3.43036 0
M  V30 4792 H 457.241 -4.20641 2.05375 0
M  V30 4793 H 457.414 -5.70773 3.06793 0
M  V30 4794 N 450.82 -0.546701 -1.47814 0
M  V30 4795 C 452.236 -0.205717 -1.58269 0
M  V30 4796 C 452.436 1.29153 -1.54667 0
M  V30 4797 O 451.492 2.07098 -1.44453 0
M  V30 4798 C 452.805 -0.823065 -2.89216 0
M  V30 4799 C 454.353 -0.793328 -3.02779 0
M  V30 4800 C 454.828 -1.38955 -4.36412 0
M  V30 4801 N 456.319 -1.35227 -4.43021 0
M  V30 4802 C 457.054 -1.78333 -5.44963 0
M  V30 4803 N 456.55 -2.29246 -6.53772 0
M  V30 4804 N 458.343 -1.69467 -5.35945 0
M  V30 4805 H 450.494 -1.5196 -1.48398 0
M  V30 4806 H 452.757 -0.633078 -0.705632 0
M  V30 4807 H 452.463 -1.8749 -2.97558 0
M  V30 4808 H 452.337 -0.309915 -3.75925 0
M  V30 4809 H 454.724 0.249784 -2.94041 0
M  V30 4810 H 454.805 -1.34412 -2.17639 0
M  V30 4811 H 454.449 -2.43168 -4.45906 0
M  V30 4812 H 454.379 -0.814291 -5.20266 0
M  V30 4813 H 456.87 -0.979739 -3.64979 0
M  V30 4814 H 457.183 -2.60089 -7.27718 0
M  V30 4815 H 455.528 -2.3325 -6.5469 0
M  V30 4816 H 458.719 -1.29477 -4.49837 0
M  V30 4817 H 458.892 -2.03381 -6.15256 0
M  V30 4818 N 452.299 1.55045 -0.282633 0
M  V30 4819 C 453.246 2.22822 0.601566 0
M  V30 4820 C 454.216 1.20431 1.14392 0
M  V30 4821 O 455.401 1.48996 1.19184 0
M  V30 4822 C 452.541 2.95873 1.77632 0
M  V30 4823 C 451.654 4.12999 1.26711 0
M  V30 4824 C 450.789 4.73676 2.40426 0
M  V30 4825 C 449.828 5.82981 1.86545 0
M  V30 4826 N 448.965 6.3769 2.93762 0
M  V30 4827 H 453.805 2.97995 0.0169528 0
M  V30 4828 H 451.342 1.471 -0.00339964 0
M  V30 4829 H 453.3 3.36447 2.46697 0
M  V30 4830 H 451.93 2.2311 2.33285 0
M  V30 4831 H 450.982 3.77494 0.469314 0
M  V30 4832 H 452.294 4.91803 0.832518 0
M  V30 4833 H 451.448 5.17008 3.17471 0
M  V30 4834 H 450.187 3.94164 2.87203 0
M  V30 4835 H 449.192 5.39092 1.07983 0
M  V30 4836 H 450.417 6.64366 1.40694 0
M  V30 4837 H 448.363 5.61069 3.39908 0
M  V30 4838 H 448.28 7.11788 2.54744 0
M  V30 4839 H 449.548 6.8568 3.7076 0
M  V30 4840 N 453.777 0.010035 1.57597 0
M  V30 4841 C 455.007 -0.682422 1.95004 0
M  V30 4842 C 455.415 -1.67278 0.884014 0
M  V30 4843 O 454.758 -1.83129 -0.144672 0
M  V30 4844 C 454.82 -1.46141 3.28456 0
M  V30 4845 C 454.484 -0.631523 4.52615 0
M  V30 4846 C 455.481 0.0850905 5.1983 0
M  V30 4847 C 453.166 -0.574539 4.99003 0
M  V30 4848 C 455.16 0.847566 6.3174 0
M  V30 4849 C 452.847 0.191655 6.10799 0
M  V30 4850 C 453.845 0.901432 6.77025 0
M  V30 4851 O 453.533 1.65511 7.86677 0
M  V30 4852 H 453.265 -0.194361 0.647456 0
M  V30 4853 H 455.819 0.060312 2.05311 0
M  V30 4854 H 454.049 -2.24885 3.14585 0
M  V30 4855 H 455.738 -2.04016 3.50902 0
M  V30 4856 H 456.504 0.0502812 4.84974 0
M  V30 4857 H 452.383 -1.11654 4.47274 0
M  V30 4858 H 455.927 1.4021 6.83364 0
M  V30 4859 H 451.824 0.228249 6.45096 0
M  V30 4860 H 452.592 1.57287 8.03245 0
M  V30 4861 N 455.255 -1.55392 -0.262866 0
M  V30 4862 C 456.503 -1.76127 -0.991147 0
M  V30 4863 C 456.824 -0.571083 -1.8645 0
M  V30 4864 O 456.094 0.413698 -1.91482 0
M  V30 4865 H 454.674 -0.649528 -0.368948 0
M  V30 4866 H 457.336 -1.9281 -0.284655 0
M  V30 4867 H 456.432 -2.6663 -1.62219 0
M  V30 4868 N 456.733 0.527833 -1.48498 0
M  V30 4869 C 458.149 0.856571 -1.34666 0
M  V30 4870 C 458.349 1.98271 -0.35931 0
M  V30 4871 O 457.405 2.51551 0.218703 0
M  V30 4872 C 458.718 1.22207 -2.74747 0
M  V30 4873 C 460.266 1.33183 -2.83251 0
M  V30 4874 C 460.741 1.73075 -4.24039 0
M  V30 4875 N 462.232 1.80174 -4.26722 0
M  V30 4876 C 462.967 2.1243 -5.32598 0
M  V30 4877 N 462.463 2.43096 -6.4875 0
M  V30 4878 N 464.256 2.13454 -5.19994 0
M  V30 4879 H 456.407 -0.215174 -2.11307 0
M  V30 4880 H 458.67 -0.0336281 -0.947403 0
M  V30 4881 H 458.376 0.468195 -3.4857 0
M  V30 4882 H 458.25 2.17173 -3.08409 0
M  V30 4883 H 460.637 2.07647 -2.09683 0
M  V30 4884 H 460.718 0.363333 -2.53206 0
M  V30 4885 H 460.362 0.991712 -4.98124 0
M  V30 4886 H 460.292 2.70979 -4.51529 0
M  V30 4887 H 462.783 1.58744 -3.42942 0
M  V30 4888 H 463.096 2.6682 -7.25277 0
M  V30 4889 H 461.441 2.40611 -6.52021 0
M  V30 4890 H 464.632 1.88956 -4.28268 0
M  V30 4891 H 464.805 2.38261 -6.02608 0
M  V30 4892 N 458.211 1.37122 0.776871 0
M  V30 4893 C 459.451 1.33441 1.54831 0
M  V30 4894 C 459.815 -0.0818963 1.91825 0
M  V30 4895 O 461.016 -0.24338 2.67696 0
M  V30 4896 C 459.287 2.24267 2.78279 0
M  V30 4897 S 460.846 2.38389 3.68397 0
M  V30 4898 H 457.664 0.473791 0.530135 0
M  V30 4899 H 460.266 1.7282 0.913968 0
M  V30 4900 H 458.97 3.261 2.49173 0
M  V30 4901 H 458.501 1.85953 3.46677 0
M  V30 4902 H 460.516 1.59068 4.70013 0
M  V30 4903 N 459.689 -1.00246 1.21608 0
M  V30 4904 C 460.639 -2.07492 0.945051 0
M  V30 4905 C 461.623 -1.60585 -0.100675 0
M  V30 4906 O 462.815 -1.76667 0.10859 0
M  V30 4907 C 459.944 -3.39425 0.514342 0
M  V30 4908 C 459.03 -3.92993 1.59428 0
M  V30 4909 N 459.421 -4.19898 2.81991 0
M  V30 4910 C 457.719 -4.21297 1.46374 0
M  V30 4911 C 458.42 -4.63297 3.51754 0
M  V30 4912 N 457.396 -4.66421 2.79199 0
M  V30 4913 H 461.198 -2.26222 1.87619 0
M  V30 4914 H 458.712 -1.18339 1.11219 0
M  V30 4915 H 460.709 -4.15808 0.301527 0
M  V30 4916 H 459.369 -3.22101 -0.410008 0
M  V30 4917 H 460.38 -4.08377 3.1851 0
M  V30 4918 H 457.057 -4.13095 0.604863 0
M  V30 4919 H 458.447 -4.92816 4.56708 0
M  V30 4920 N 461.167 -1.02423 -1.1978 0
M  V30 4921 C 462.414 -0.717988 -1.89344 0
M  V30 4922 C 462.742 0.753036 -1.79331 0
M  V30 4923 O 461.997 1.56355 -1.17692 0
M  V30 4924 C 462.296 -1.1088 -3.39765 0
M  V30 4925 C 461.962 -2.57731 -3.6998 0
M  V30 4926 C 460.624 -2.97854 -3.77937 0
M  V30 4927 C 462.976 -3.52763 -3.83677 0
M  V30 4928 C 460.304 -4.31931 -3.97054 0
M  V30 4929 C 462.656 -4.86538 -4.04306 0
M  V30 4930 C 461.32 -5.26356 -4.10494 0
M  V30 4931 H 460.59 -0.26273 -0.692859 0
M  V30 4932 H 463.237 -1.28623 -1.41875 0
M  V30 4933 H 461.542 -0.459094 -3.89101 0
M  V30 4934 H 463.239 -0.849432 -3.919 0
M  V30 4935 H 459.829 -2.25646 -3.64393 0
M  V30 4936 H 464.013 -3.2292 -3.76877 0
M  V30 4937 H 459.269 -4.62324 -4.00083 0
M  V30 4938 H 463.443 -5.60093 -4.13846 0
M  V30 4939 H 461.07 -6.3026 -4.2506 0
M  V30 4940 N 462.645 1.35699 -0.801477 0
M  V30 4941 C 463.891 1.99643 -0.389135 0
M  V30 4942 C 464.246 1.62447 1.03095 0
M  V30 4943 O 463.539 0.875064 1.7045 0
M  V30 4944 C 463.733 3.53828 -0.504041 0
M  V30 4945 C 463.562 4.06 -1.93375 0
M  V30 4946 C 462.332 4.35592 -2.561 0
M  V30 4947 C 464.53 4.24905 -2.89759 0
M  V30 4948 N 462.512 4.73663 -3.90534 0
M  V30 4949 C 463.883 4.65914 -4.09052 0
M  V30 4950 C 465.938 4.07101 -2.86658 0
M  V30 4951 C 464.641 4.90984 -5.25669 0
M  V30 4952 C 466.667 4.33324 -4.02472 0
M  V30 4953 C 466.029 4.74601 -5.20512 0
M  V30 4954 H 462.128 0.758552 -0.19006 0
M  V30 4955 H 464.712 1.64493 -1.04164 0
M  V30 4956 H 462.883 3.88219 0.118437 0
M  V30 4957 H 464.615 4.04645 -0.0667794 0
M  V30 4958 H 461.37 4.25728 -2.07492 0
M  V30 4959 H 461.794 4.96965 -4.59734 0
M  V30 4960 H 466.436 3.74335 -1.96552 0
M  V30 4961 H 464.154 5.22626 -6.1635 0
M  V30 4962 H 467.74 4.21107 -4.01447 0
M  V30 4963 H 466.62 4.94497 -6.08639 0
M  V30 4964 N 464.123 0.554532 1.47522 0
M  V30 4965 C 465.37 0.029479 2.02479 0
M  V30 4966 C 465.698 -1.31929 1.42916 0
M  V30 4967 O 464.953 -1.87112 0.573385 0
M  V30 4968 C 465.252 -0.115927 3.57212 0
M  V30 4969 C 464.918 1.16161 4.3568 0
M  V30 4970 C 463.58 1.51168 4.56839 0
M  V30 4971 C 465.932 2.0083 4.80954 0
M  V30 4972 C 463.26 2.70696 5.2052 0
M  V30 4973 C 465.612 3.19559 5.45953 0
M  V30 4974 C 464.276 3.54882 5.65345 0
M  V30 4975 H 463.546 0.0107871 0.740921 0
M  V30 4976 H 466.193 0.725506 1.77225 0
M  V30 4977 H 464.498 -0.894902 3.81443 0
M  V30 4978 H 466.195 -0.53749 3.97381 0
M  V30 4979 H 462.785 0.879026 4.19489 0
M  V30 4980 H 466.969 1.75093 4.64388 0
M  V30 4981 H 462.225 2.98236 5.33728 0
M  V30 4982 H 466.399 3.85456 5.79997 0
M  V30 4983 H 464.026 4.47596 6.1446 0
M  V30 4984 N 465.601 -1.54893 0.290851 0
M  V30 4985 C 466.829 -2.04343 -0.324288 0
M  V30 4986 C 467.244 -1.16859 -1.48289 0
M  V30 4987 O 466.601 -0.192018 -1.81487 0
M  V30 4988 C 466.652 -3.52756 -0.79026 0
M  V30 4989 O 466.373 -4.36913 0.322213 0
M  V30 4990 C 467.874 -4.18161 -1.4716 0
M  V30 4991 H 465.094 -0.667135 -0.0719173 0
M  V30 4992 H 467.638 -1.99981 0.427529 0
M  V30 4993 H 465.793 -3.57511 -1.49213 0
M  V30 4994 H 466.207 -5.24486 -0.0387372 0
M  V30 4995 H 467.681 -5.23562 -1.7489 0
M  V30 4996 H 468.158 -3.67282 -2.40834 0
M  V30 4997 H 468.764 -4.17454 -0.813178 0
M  V30 4998 N 467.08 -0.0183926 -1.57589 0
M  V30 4999 C 468.308 0.673046 -1.95647 0
M  V30 5000 C 468.723 1.66275 -0.894312 0
M  V30 5001 O 468.08 1.82072 0.124975 0
M  V30 5002 C 468.131 1.38884 -3.33756 0
M  V30 5003 O 467.852 0.438806 -4.35897 0
M  V30 5004 C 469.353 2.1731 -3.86383 0
M  V30 5005 H 466.573 0.186292 -0.644621 0
M  V30 5006 H 469.117 -0.0749748 -2.04363 0
M  V30 5007 H 467.272 2.08835 -3.26293 0
M  V30 5008 H 467.686 0.945869 -5.15901 0
M  V30 5009 H 469.16 2.62863 -4.85394 0
M  V30 5010 H 469.637 3.00764 -3.20059 0
M  V30 5011 H 470.243 1.52339 -3.97081 0
M  V30 5012 N 468.558 1.5553 0.254621 0
M  V30 5013 C 469.505 1.89666 1.31512 0
M  V30 5014 C 470.475 0.750057 1.482 0
M  V30 5015 O 471.66 1.00301 1.62309 0
M  V30 5016 C 468.8 2.19009 2.667 0
M  V30 5017 C 467.913 3.46435 2.58083 0
M  V30 5018 C 467.048 3.65386 3.85573 0
M  V30 5019 C 466.087 4.8644 3.71541 0
M  V30 5020 N 465.224 5.01952 4.90906 0
M  V30 5021 H 470.064 2.80109 1.017 0
M  V30 5022 H 467.601 1.38666 0.490938 0
M  V30 5023 H 469.559 2.34025 3.45381 0
M  V30 5024 H 468.189 1.31779 2.94676 0
M  V30 5025 H 467.241 3.39792 1.71013 0
M  V30 5026 H 468.553 4.35258 2.43622 0
M  V30 5027 H 467.707 3.80319 4.72697 0
M  V30 5028 H 466.446 2.74781 4.02922 0
M  V30 5029 H 465.451 4.71491 2.82801 0
M  V30 5030 H 466.676 5.78497 3.55694 0
M  V30 5031 H 464.622 4.14283 5.08631 0
M  V30 5032 H 464.539 5.84851 4.79046 0
M  V30 5033 H 465.807 5.21289 5.7955 0
M  V30 5034 N 470.036 -0.519951 1.48776 0
M  V30 5035 C 471.261 -1.30447 1.6124 0
M  V30 5036 C 471.686 -1.86055 0.276591 0
M  V30 5037 O 471.044 -1.64915 -0.753183 0
M  V30 5038 C 471.092 -2.42406 2.66967 0
M  V30 5039 O 470.196 -3.45728 2.24824 0
M  V30 5040 H 469.537 -0.385924 0.540332 0
M  V30 5041 H 472.067 -0.624572 1.94834 0
M  V30 5042 H 472.077 -2.88447 2.88552 0
M  V30 5043 H 470.752 -2.01294 3.63941 0
M  V30 5044 H 469.329 -3.05737 2.13494 0
M  V30 5045 N 471.514 -1.37532 -0.769588 0
M  V30 5046 C 472.76 -1.34063 -1.52966 0
M  V30 5047 C 473.115 0.0737942 -1.92258 0
M  V30 5048 O 472.408 1.03291 -1.61374 0
M  V30 5049 C 472.602 -2.21558 -2.8044 0
M  V30 5050 C 472.431 -3.71367 -2.53608 0
M  V30 5051 C 471.201 -4.40464 -2.47628 0
M  V30 5052 C 473.399 -4.64177 -2.21459 0
M  V30 5053 N 471.381 -5.758 -2.12902 0
M  V30 5054 C 472.752 -5.87907 -1.9689 0
M  V30 5055 C 474.807 -4.52541 -2.07633 0
M  V30 5056 C 473.51 -7.01304 -1.59892 0
M  V30 5057 C 475.536 -5.65825 -1.72034 0
M  V30 5058 C 474.898 -6.88606 -1.48327 0
M  V30 5059 H 470.997 -0.545856 -0.559969 0
M  V30 5060 H 473.581 -1.72773 -0.897634 0
M  V30 5061 H 471.752 -1.85061 -3.41478 0
M  V30 5062 H 473.484 -2.09332 -3.46356 0
M  V30 5063 H 470.239 -3.93491 -2.63556 0
M  V30 5064 H 470.663 -6.47328 -1.9823 0
M  V30 5065 H 475.305 -3.58183 -2.24643 0
M  V30 5066 H 473.023 -7.95594 -1.4162 0
M  V30 5067 H 476.609 -5.58793 -1.61991 0
M  V30 5068 H 475.489 -7.74779 -1.21189 0
M  V30 5069 N 472.992 0.995999 -1.22138 0
M  V30 5070 C 473.939 2.08551 -0.988687 0
M  V30 5071 C 474.909 1.65864 0.0885021 0
M  V30 5072 O 476.094 1.90704 -0.0604589 0
M  V30 5073 C 473.234 3.40374 -0.569191 0
M  V30 5074 C 472.347 3.96421 -1.71681 0
M  V30 5075 C 471.482 5.1639 -1.2456 0
M  V30 5076 C 470.521 5.64567 -2.36497 0
M  V30 5077 N 469.658 6.75777 -1.90445 0
M  V30 5078 H 474.498 2.2779 -1.92135 0
M  V30 5079 H 472.035 1.1168 -0.957388 0
M  V30 5080 H 473.993 4.16068 -0.307166 0
M  V30 5081 H 472.623 3.21145 0.326462 0
M  V30 5082 H 471.675 3.17628 -2.09324 0
M  V30 5083 H 472.987 4.2816 -2.55891 0
M  V30 5084 H 472.141 5.99362 -0.940774 0
M  V30 5085 H 470.88 4.86266 -0.373662 0
M  V30 5086 H 469.885 4.80185 -2.67772 0
M  V30 5087 H 471.11 5.96716 -3.24202 0
M  V30 5088 H 469.056 6.47443 -1.05609 0
M  V30 5089 H 468.973 7.06818 -2.68223 0
M  V30 5090 H 470.241 7.62262 -1.63022 0
M  V30 5091 N 474.47 1.03057 1.19235 0
M  V30 5092 C 475.881 0.757449 1.70645 0
M  V30 5093 C 476.232 -0.722735 1.82403 0
M  V30 5094 O 475.357 -1.56325 1.49638 0
M  V30 5095 C 475.952 1.36833 3.09939 0
M  V30 5096 C 474.511 1.14375 3.58602 0
M  V30 5097 C 473.658 1.46533 2.35422 0
M  V30 5098 H 476.609 1.19828 1.04052 0
M  V30 5099 H 476.63 0.766184 3.72706 0
M  V30 5100 H 476.142 2.44562 3.01349 0
M  V30 5101 H 474.243 0.0847542 3.72504 0
M  V30 5102 H 474.356 1.83366 4.42622 0
M  V30 5103 H 472.72 0.884712 2.38841 0
M  V30 5104 H 473.503 2.55349 2.2946 0
M  V30 5105 N 475.948 -1.35272 0.808662 0
M  V30 5106 C 477.173 -2.03477 0.401475 0
M  V30 5107 C 477.598 -1.60537 -0.980279 0
M  V30 5108 O 476.956 -0.78304 -1.63518 0
M  V30 5109 C 477.004 -3.57181 0.495354 0
M  V30 5110 O 476.108 -4.09474 -0.490397 0
M  V30 5111 H 475.449 -0.642561 0.167366 0
M  V30 5112 H 477.979 -1.72824 1.09512 0
M  V30 5113 H 477.989 -4.06356 0.365912 0
M  V30 5114 H 476.664 -3.87784 1.5032 0
M  V30 5115 H 475.241 -3.71516 -0.321023 0
M  V30 5116 N 477.426 -0.562348 -1.47226 0
M  V30 5117 C 478.651 -0.0432632 -2.07355 0
M  V30 5118 C 479.076 1.24332 -1.41149 0
M  V30 5119 O 478.434 1.74603 -0.488226 0
M  V30 5120 C 478.482 0.130288 -3.60365 0
M  V30 5121 O 477.586 1.19166 -3.94808 0
M  V30 5122 H 476.927 -0.0536334 -0.66183 0
M  V30 5123 H 479.457 -0.779495 -1.89169 0
M  V30 5124 H 479.467 0.342881 -4.06557 0
M  V30 5125 H 478.142 -0.809389 -4.07948 0
M  V30 5126 H 476.719 0.959153 -3.60354 0
M  V30 5127 N 478.904 1.54736 -0.299062 0
M  V30 5128 C 479.814 2.27127 0.587413 0
M  V30 5129 C 480.83 1.30575 1.15005 0
M  V30 5130 O 482.006 1.63554 1.17525 0
M  V30 5131 C 479.071 2.99645 1.74395 0
M  V30 5132 C 478.132 4.11731 1.21559 0
M  V30 5133 C 477.365 4.80781 2.317 0
M  V30 5134 O 477.588 4.4918 3.51558 0
M  V30 5135 O 476.522 5.68226 1.98501 0
M  V30 5136 H 480.348 3.037 0.000250109 0
M  V30 5137 H 477.933 1.49256 -0.0655919 0
M  V30 5138 H 479.815 3.45138 2.4178 0
M  V30 5139 H 478.49 2.25969 2.31775 0
M  V30 5140 H 477.397 3.70641 0.507514 0
M  V30 5141 H 478.73 4.87379 0.687233 0
M  V30 5142 N 480.382 0.0267497 1.57577 0
M  V30 5143 C 481.314 -0.984594 2.06974 0
M  V30 5144 C 482.327 -1.29032 0.992705 0
M  V30 5145 O 483.516 -1.25539 1.26895 0
M  V30 5146 C 480.616 -2.31262 2.47732 0
M  V30 5147 C 479.789 -2.1924 3.78487 0
M  V30 5148 C 478.848 -3.34956 4.05821 0
M  V30 5149 O 477.874 -3.11948 4.76106 0
M  V30 5150 N 479.076 -4.58672 3.55809 0
M  V30 5151 H 481.841 -0.563143 2.94362 0
M  V30 5152 H 479.402 -0.160061 1.61107 0
M  V30 5153 H 481.394 -3.07496 2.63112 0
M  V30 5154 H 479.964 -2.65056 1.65723 0
M  V30 5155 H 479.184 -1.27747 3.72927 0
M  V30 5156 H 480.472 -2.08409 4.64158 0
M  V30 5157 H 479.87 -4.8026 2.98942 0
M  V30 5158 H 478.427 -5.32083 3.76472 0
M  V30 5159 N 481.861 -1.55662 -0.24637 0
M  V30 5160 C 482.794 -1.85332 -1.33143 0
M  V30 5161 C 483.772 -0.708464 -1.46354 0
M  V30 5162 O 484.956 -0.954274 -1.6256 0
M  V30 5163 C 482.083 -2.0385 -2.70487 0
M  V30 5164 C 481.129 -3.26488 -2.74423 0
M  V30 5165 S 481.962 -4.83124 -2.30979 0
M  V30 5166 C 483.118 -5.04647 -3.70246 0
M  V30 5167 H 483.351 -2.77077 -1.07777 0
M  V30 5168 H 480.884 -1.47776 -0.44738 0
M  V30 5169 H 482.842 -2.15202 -3.49569 0
M  V30 5170 H 481.503 -1.12947 -2.9309 0
M  V30 5171 H 480.696 -3.36413 -3.7529 0
M  V30 5172 H 480.298 -3.13864 -2.03385 0
M  V30 5173 H 482.59 -4.92023 -4.65746 0
M  V30 5174 H 483.533 -6.06625 -3.65255 0
M  V30 5175 H 483.941 -4.32491 -3.62784 0
M  V30 5176 N 483.339 0.512053 -1.4905 0
M  V30 5177 C 484.616 1.27337 -1.48474 0
M  V30 5178 C 484.996 2.1009 -0.206301 0
M  V30 5179 O 484.344 2.136 0.811609 0
M  V30 5180 C 484.554 2.13954 -2.75726 0
M  V30 5181 C 485.902 2.73507 -3.24776 0
M  V30 5182 O 486.926 2.24229 -2.76767 0
M  V30 5183 O 485.785 3.63186 -4.08361 0
M  V30 5184 H 482.879 0.575652 -0.593762 0
M  V30 5185 H 485.425 0.527232 -1.61302 0
M  V30 5186 H 484.197 1.52709 -3.60272 0
M  V30 5187 H 483.82 2.95782 -2.65705 0
M  V30 5188 N 484.817 1.37938 0.762283 0
M  V30 5189 C 485.749 1.30349 1.88525 0
M  V30 5190 C 486.762 0.217402 1.61342 0
M  V30 5191 O 487.951 0.474291 1.72084 0
M  V30 5192 C 485.051 0.994844 3.23969 0
M  V30 5193 C 484.224 2.18829 3.78725 0
M  V30 5194 C 483.283 1.84844 4.92665 0
M  V30 5195 O 482.309 2.57244 5.07754 0
M  V30 5196 N 483.511 0.798201 5.74986 0
M  V30 5197 H 486.276 2.27114 1.95549 0
M  V30 5198 H 483.837 1.31686 0.941825 0
M  V30 5199 H 485.829 0.748168 3.97724 0
M  V30 5200 H 484.399 0.115446 3.12387 0
M  V30 5201 H 483.619 2.59615 2.96637 0
M  V30 5202 H 484.907 2.98497 4.1204 0
M  V30 5203 H 484.305 0.197611 5.65355 0
M  V30 5204 H 482.862 0.611396 6.48926 0
M  V30 5205 N 486.295 -0.989507 1.22664 0
M  V30 5206 C 487.572 -1.70326 0.961688 0
M  V30 5207 C 487.952 -2.04537 -0.522279 0
M  V30 5208 O 487.3 -1.73136 -1.49118 0
M  V30 5209 C 487.51 -2.95135 1.86269 0
M  V30 5210 C 488.858 -3.67842 2.12078 0
M  V30 5211 O 489.882 -3.0515 1.83745 0
M  V30 5212 O 488.741 -4.80644 2.60083 0
M  V30 5213 H 485.835 -0.743589 0.361946 0
M  V30 5214 H 488.381 -1.04555 1.33665 0
M  V30 5215 H 487.153 -2.66382 2.8663 0
M  V30 5216 H 486.776 -3.68645 1.48952 0
M  V30 5217 N 487.773 -1.03688 -1.18687 0
M  V30 5218 C 488.723 -0.595067 -2.20098 0
M  V30 5219 C 489.707 0.360465 -1.5681 0
M  V30 5220 O 490.899 0.180136 -1.76081 0
M  V30 5221 C 488.028 0.0444495 -3.43271 0
M  V30 5222 C 487.114 -0.934002 -4.13687 0
M  V30 5223 N 487.505 -2.09957 -4.60165 0
M  V30 5224 C 485.803 -0.759177 -4.39491 0
M  V30 5225 C 486.504 -2.71735 -5.1433 0
M  V30 5226 N 485.48 -1.99638 -5.05614 0
M  V30 5227 H 489.282 -1.48336 -2.5372 0
M  V30 5228 H 486.796 -0.904949 -1.3485 0
M  V30 5229 H 488.793 0.37864 -4.15177 0
M  V30 5230 H 487.453 0.928325 -3.11147 0
M  V30 5231 H 488.464 -2.47863 -4.54735 0
M  V30 5232 H 485.141 0.0749292 -4.17433 0
M  V30 5233 H 486.531 -3.70492 -5.60523 0
M  V30 5234 N 489.251 1.34841 -0.815825 0
M  V30 5235 C 490.476 2.03261 -0.41226 0
M  V30 5236 C 490.901 1.61055 0.971751 0
M  V30 5237 O 490.259 0.7917 1.63101 0
M  V30 5238 C 490.307 3.56914 -0.514289 0
M  V30 5239 O 489.411 4.09728 0.468675 0
M  V30 5240 H 488.752 0.641664 -0.170771 0
M  V30 5241 H 491.282 1.72241 -1.10427 0
M  V30 5242 H 491.292 4.06156 -0.387457 0
M  V30 5243 H 489.967 3.86982 -1.52375 0
M  V30 5244 H 488.544 3.71681 0.301316 0
M  V30 5245 N 490.729 0.570148 1.46925 0
M  V30 5246 C 491.954 0.0542592 2.07329 0
M  V30 5247 C 492.379 -1.23582 1.41806 0
M  V30 5248 O 491.737 -1.74341 0.497479 0
M  V30 5249 C 491.785 -0.111175 3.60429 0
M  V30 5250 O 490.889 -1.17071 3.95434 0
M  V30 5251 H 490.23 0.0571425 0.661537 0
M  V30 5252 H 492.76 0.789516 1.88753 0
M  V30 5253 H 492.77 -0.321315 4.06733 0
M  V30 5254 H 491.445 0.831012 4.07513 0
M  V30 5255 H 490.022 -0.940029 3.60857 0
M  V30 5256 N 492.207 -1.54576 0.307264 0
M  V30 5257 C 493.432 -2.05139 -0.305379 0
M  V30 5258 C 493.857 -1.18278 -1.46259 0
M  V30 5259 O 493.215 -0.188243 -1.8032 0
M  V30 5260 C 493.263 -3.53066 -0.733283 0
M  V30 5261 O 492.367 -3.69206 -1.83741 0
M  V30 5262 H 491.708 -0.661444 -0.0582105 0
M  V30 5263 H 494.238 -1.99569 0.450931 0
M  V30 5264 H 494.248 -3.95034 -1.02039 0
M  V30 5265 H 492.923 -4.15746 0.113198 0
M  V30 5266 H 491.5 -3.39143 -1.55037 0
M  V30 5267 N 493.685 -0.035106 -1.57561 0
M  V30 5268 C 494.962 0.681212 -1.83354 0
M  V30 5269 C 495.342 1.89986 -0.920252 0
M  V30 5270 O 494.69 2.28489 0.0226815 0
M  V30 5271 C 494.9 1.05376 -3.32712 0
M  V30 5272 C 496.248 1.44286 -3.99333 0
M  V30 5273 O 497.272 1.14656 -3.37242 0
M  V30 5274 O 496.131 1.99518 -5.08778 0
M  V30 5275 H 493.225 0.334741 -0.756226 0
M  V30 5276 H 495.771 -0.0632448 -1.69582 0
M  V30 5277 H 494.543 0.186668 -3.90854 0
M  V30 5278 H 494.166 1.85619 -3.51613 0
M  V30 5279 N 495.163 1.55791 0.238111 0
M  V30 5280 C 496.388 1.8244 0.986432 0
M  V30 5281 C 496.813 0.613314 1.7782 0
M  V30 5282 O 496.171 -0.437767 1.75935 0
M  V30 5283 C 496.219 3.06917 1.893 0
M  V30 5284 O 495.323 2.84449 2.98601 0
M  V30 5285 H 494.664 0.601975 0.280218 0
M  V30 5286 H 497.194 2.02987 0.256437 0
M  V30 5287 H 497.204 3.36583 2.30598 0
M  V30 5288 H 495.879 3.947 1.31091 0
M  V30 5289 H 494.456 2.65972 2.61368 0
M  V30 5290 N 496.642 -0.504142 1.49319 0
M  V30 5291 C 497.888 -1.25767 1.59857 0
M  V30 5292 C 498.243 -1.90348 0.280262 0
M  V30 5293 O 497.536 -1.77588 -0.719241 0
M  V30 5294 C 497.73 -2.35021 2.69258 0
M  V30 5295 C 497.559 -1.81154 4.11598 0
M  V30 5296 C 496.329 -1.62596 4.78425 0
M  V30 5297 C 498.527 -1.3252 4.96934 0
M  V30 5298 N 496.509 -1.03625 6.05091 0
M  V30 5299 C 497.88 -0.856633 6.14054 0
M  V30 5300 C 499.935 -1.21063 4.82958 0
M  V30 5301 C 498.638 -0.284841 7.18736 0
M  V30 5302 C 500.664 -0.652815 5.87786 0
M  V30 5303 C 500.026 -0.194461 7.04132 0
M  V30 5304 H 496.125 -0.450293 0.639343 0
M  V30 5305 H 498.709 -0.565344 1.86311 0
M  V30 5306 H 496.88 -3.01719 2.44581 0
M  V30 5307 H 498.612 -3.02061 2.69335 0
M  V30 5308 H 495.367 -1.86873 4.35173 0
M  V30 5309 H 495.791 -0.76076 6.72712 0
M  V30 5310 H 500.433 -1.551 3.93324 0
M  V30 5311 H 498.151 0.0677979 8.08072 0
M  V30 5312 H 501.737 -0.566994 5.79031 0
M  V30 5313 H 500.617 0.230442 7.83861 0
M  V30 5314 N 498.12 -1.38341 -0.754957 0
M  V30 5315 C 499.068 -1.35573 -1.89005 0
M  V30 5316 C 500.062 -0.241824 -1.67665 0
M  V30 5317 O 501.268 -0.410785 -1.7525 0
M  V30 5318 H 497.643 -0.422898 -0.621821 0
M  V30 5319 H 499.614 -2.31359 -1.88455 0
M  V30 5320 C 498.363 -1.19631 -3.26471 0
M  V30 5321 H 497.686 -2.04605 -3.43477 0
M  V30 5322 H 499.126 -1.21748 -4.06144 0
M  V30 5323 C 497.585 0.0968705 -3.36761 0
M  V30 5324 O 498.115 1.07439 -3.87066 0
M  V30 5325 N 496.321 0.153242 -2.90196 0
M  V30 5326 H 495.868 -0.642908 -2.49448 0
M  V30 5327 H 495.826 1.01807 -2.9746 0
M  V30 5328 N 499.598 0.982988 -1.23187 0
M  V30 5329 C 500.546 2.09616 -1.00817 0
M  V30 5330 C 501.54 1.6932 0.0519995 0
M  V30 5331 O 502.746 1.79715 -0.101284 0
M  V30 5332 H 499.121 0.685628 -0.308899 0
M  V30 5333 H 501.092 2.25652 -1.95253 0
M  V30 5334 C 499.841 3.42249 -0.613243 0
M  V30 5335 H 499.164 3.73705 -1.42073 0
M  V30 5336 H 500.604 4.21086 -0.496208 0
M  V30 5337 C 499.063 3.30002 0.678233 0
M  V30 5338 O 499.593 3.6263 1.72807 0
M  V30 5339 N 497.799 2.83164 0.653165 0
M  V30 5340 H 497.346 2.56811 -0.201492 0
M  V30 5341 H 497.304 2.75352 1.51752 0
M  V30 5342 N 501.076 1.04316 1.18135 0
M  V30 5343 C 502.024 0.630175 2.23901 0
M  V30 5344 C 503.018 -0.344254 1.65865 0
M  V30 5345 O 504.224 -0.211273 1.78756 0
M  V30 5346 H 500.599 0.185578 0.728742 0
M  V30 5347 H 502.57 1.53253 2.56039 0
M  V30 5348 C 501.319 0.011666 3.47698 0
M  V30 5349 H 500.642 0.752526 3.92654 0
M  V30 5350 H 502.082 -0.240046 4.2332 0
M  V30 5351 C 500.541 -1.23913 3.13285 0
M  V30 5352 O 501.071 -2.32959 3.27251 0
M  V30 5353 N 499.277 -1.13338 2.67587 0
M  V30 5354 H 498.824 -0.246006 2.56423 0
M  V30 5355 H 498.782 -1.97116 2.44934 0
M  V30 5356 N 502.554 -1.34406 0.822964 0
M  V30 5357 C 503.831 -1.92733 0.333641 0
M  V30 5358 C 504.211 -1.75107 -1.17901 0
M  V30 5359 O 503.559 -1.12983 -1.98613 0
M  V30 5360 C 503.769 -3.40557 0.763023 0
M  V30 5361 C 505.117 -4.17709 0.761879 0
M  V30 5362 O 506.141 -3.49141 0.705606 0
M  V30 5363 O 505 -5.40082 0.835109 0
M  V30 5364 H 502.094 -0.821964 0.0911249 0
M  V30 5365 H 504.64 -1.4338 0.907757 0
M  V30 5366 H 503.412 -3.47187 1.8049 0
M  V30 5367 H 503.035 -3.97259 0.164605 0
M  V30 5368 N 504.032 -0.577932 -1.46621 0
M  V30 5369 C 504.995 0.147805 -2.28723 0
M  V30 5370 C 505.995 0.823325 -1.38123 0
M  V30 5371 O 507.185 0.676011 -1.60548 0
M  V30 5372 C 504.317 1.21853 -3.18378 0
M  V30 5373 H 505.51 -0.573654 -2.94362 0
M  V30 5374 H 503.063 -0.335703 -1.52652 0
M  V30 5375 H 503.798 1.97173 -2.57475 0
M  V30 5376 H 503.583 0.738714 -3.85078 0
M  V30 5377 H 505.073 1.72768 -3.80186 0
M  V30 5378 N 505.51 1.54411 -0.315457 0
M  V30 5379 C 506.473 2.22713 0.54142 0
M  V30 5380 C 507.473 1.2179 1.04995 0
M  V30 5381 O 508.663 1.46426 0.943667 0
M  V30 5382 C 505.795 2.92485 1.75116 0
M  V30 5383 H 506.988 2.99849 -0.0555508 0
M  V30 5384 H 504.541 1.56159 -0.0664453 0
M  V30 5385 H 505.276 2.19466 2.38758 0
M  V30 5386 H 505.061 3.66483 1.39401 0
M  V30 5387 H 506.551 3.44548 2.35959 0
M  V30 5388 N 506.988 0.0434614 1.5754 0
M  V30 5389 C 507.951 -0.918696 2.09982 0
M  V30 5390 C 508.951 -1.24488 1.01781 0
M  V30 5391 O 510.141 -1.18284 1.27885 0
M  V30 5392 C 507.273 -2.23093 2.57764 0
M  V30 5393 H 508.466 -0.464229 2.96285 0
M  V30 5394 H 506.019 -0.204818 1.54952 0
M  V30 5395 H 506.754 -2.73137 1.74832 0
M  V30 5396 H 506.539 -2.00724 3.36827 0
M  V30 5397 H 508.029 -2.92028 2.98512 0
M  V30 5398 N 508.466 -1.55915 -0.229846 0
M  V30 5399 C 509.691 -1.8296 -0.976743 0
M  V30 5400 C 510.116 -0.622735 -1.77493 0
M  V30 5401 O 509.474 0.428431 -1.76165 0
M  V30 5402 C 509.522 -3.07916 -1.8767 0
M  V30 5403 O 508.626 -2.86028 -2.97088 0
M  V30 5404 H 507.967 -0.603453 -0.277021 0
M  V30 5405 H 510.497 -2.0312 -0.245669 0
M  V30 5406 H 510.507 -3.37802 -2.2881 0
M  V30 5407 H 509.182 -3.95389 -1.28996 0
M  V30 5408 H 507.759 -2.67355 -2.59954 0
M  V30 5409 N 509.944 0.496216 -1.49584 0
M  V30 5410 C 510.874 1.60576 -1.69521 0
M  V30 5411 C 511.855 1.61169 -0.543933 0
M  V30 5412 O 513.04 1.77834 -0.78031 0
M  V30 5413 C 510.17 2.99038 -1.76616 0
M  V30 5414 C 509.124 3.13312 -2.91581 0
M  V30 5415 C 508.45 4.53172 -2.83794 0
M  V30 5416 C 509.75 2.92886 -4.32452 0
M  V30 5417 H 511.444 1.44146 -2.62416 0
M  V30 5418 H 508.99 0.692024 -1.26282 0
M  V30 5419 H 510.943 3.76564 -1.8915 0
M  V30 5420 H 509.667 3.16568 -0.80324 0
M  V30 5421 H 508.326 2.38213 -2.78658 0
M  V30 5422 H 507.974 4.67585 -1.854 0
M  V30 5423 H 507.674 4.63662 -3.60958 0
M  V30 5424 H 509.198 5.32752 -2.98342 0
M  V30 5425 H 510.612 3.60178 -4.46032 0
M  V30 5426 H 509.009 3.14844 -5.10875 0
M  V30 5427 H 510.079 1.88966 -4.46565 0
M  V30 5428 N 511.423 1.38739 0.74761 0
M  V30 5429 C 512.333 1.38696 1.89211 0
M  V30 5430 C 513.349 0.283303 1.71678 0
M  V30 5431 O 514.525 0.522713 1.94498 0
M  V30 5432 C 511.59 1.21662 3.24653 0
M  V30 5433 C 510.651 2.41886 3.54669 0
M  V30 5434 C 509.884 2.25655 4.83648 0
M  V30 5435 O 510.107 1.25339 5.56459 0
M  V30 5436 O 509.041 3.14372 5.13277 0
M  V30 5437 H 512.867 2.35143 1.92202 0
M  V30 5438 H 510.452 1.19721 0.893708 0
M  V30 5439 H 512.334 1.14246 4.05618 0
M  V30 5440 H 511.009 0.283024 3.2246 0
M  V30 5441 H 509.916 2.54877 2.73841 0
M  V30 5442 H 511.249 3.33895 3.61628 0
M  V30 5443 N 512.901 -0.976442 1.23707 0
M  V30 5444 C 513.849 -2.09078 1.01927 0
M  V30 5445 C 514.843 -1.69345 -0.0430193 0
M  V30 5446 O 516.049 -1.79659 0.110814 0
M  V30 5447 H 512.424 -0.68398 0.312531 0
M  V30 5448 H 514.395 -2.24614 1.96447 0
M  V30 5449 C 513.144 -3.41919 0.631385 0
M  V30 5450 H 512.467 -3.72946 1.44053 0
M  V30 5451 H 513.907 -4.20817 0.518532 0
M  V30 5452 C 512.366 -3.30357 -0.660723 0
M  V30 5453 O 512.896 -3.63542 -1.70881 0
M  V30 5454 N 511.102 -2.83507 -0.638139 0
M  V30 5455 H 510.649 -2.567 0.215108 0
M  V30 5456 H 510.607 -2.76153 -1.50289 0
M  V30 5457 N 514.379 -1.04941 -1.1758 0
M  V30 5458 C 515.604 -0.778253 -1.92245 0
M  V30 5459 C 516.029 0.659707 -1.76152 0
M  V30 5460 O 515.387 1.45803 -1.07755 0
M  V30 5461 C 515.435 -1.16051 -3.41416 0
M  V30 5462 O 514.539 -0.291153 -4.11371 0
M  V30 5463 H 513.88 -0.285619 -0.599431 0
M  V30 5464 H 516.41 -1.40159 -1.49052 0
M  V30 5465 H 516.42 -1.12619 -3.92149 0
M  V30 5466 H 515.095 -2.208 -3.52449 0
M  V30 5467 H 513.672 -0.385851 -3.70898 0
M  V30 5468 N 515.857 1.33968 -0.830081 0
M  V30 5469 C 516.82 2.27694 -0.26235 0
M  V30 5470 C 517.82 1.50589 0.563876 0
M  V30 5471 O 519.01 1.70028 0.378941 0
M  V30 5472 C 516.142 3.35002 0.63138 0
M  V30 5473 H 517.335 2.79419 -1.08928 0
M  V30 5474 H 514.888 1.44221 -0.602486 0
M  V30 5475 H 515.623 2.88504 1.48109 0
M  V30 5476 H 515.408 3.92079 0.0403276 0
M  V30 5477 H 516.898 4.04897 1.02217 0
M  V30 5478 N 517.335 0.585699 1.46312 0
M  V30 5479 C 518.56 0.0762461 2.0726 0
M  V30 5480 C 518.985 -1.22071 1.43109 0
M  V30 5481 O 518.343 -1.73804 0.515942 0
M  V30 5482 C 518.391 -0.0729404 3.60526 0
M  V30 5483 O 517.495 -1.1287 3.96654 0
M  V30 5484 H 516.836 0.0641558 0.660893 0
M  V30 5485 H 519.366 0.809492 1.87905 0
M  V30 5486 H 519.376 -0.278158 4.07051 0
M  V30 5487 H 518.051 0.874188 4.06609 0
M  V30 5488 H 516.628 -0.901703 3.61834 0
M  V30 5489 N 518.813 -1.54241 0.323641 0
M  V30 5490 C 520.038 -2.05452 -0.283605 0
M  V30 5491 C 520.463 -1.19823 -1.44997 0
M  V30 5492 O 519.821 -0.207358 -1.8011 0
M  V30 5493 C 519.869 -3.53823 -0.695795 0
M  V30 5494 O 518.973 -3.71134 -1.79815 0
M  V30 5495 H 518.314 -0.662024 -0.0511917 0
M  V30 5496 H 520.844 -1.99079 0.472073 0
M  V30 5497 H 520.854 -3.96094 -0.978434 0
M  V30 5498 H 519.529 -4.15602 0.157287 0
M  V30 5499 H 518.106 -3.40768 -1.51431 0
M  V30 5500 N 520.291 -0.0518155 -1.57515 0
M  V30 5501 C 521.568 0.661727 -1.84067 0
M  V30 5502 C 521.948 1.88999 -0.940351 0
M  V30 5503 O 521.296 2.285 -0.00155404 0
M  V30 5504 C 521.506 1.01841 -3.3381 0
M  V30 5505 C 522.854 1.40043 -4.00841 0
M  V30 5506 O 523.878 1.11073 -3.38439 0
M  V30 5507 O 522.737 1.94111 -5.10865 0
M  V30 5508 H 519.831 0.326702 -0.759733 0
M  V30 5509 H 522.377 -0.0812277 -1.69505 0
M  V30 5510 H 521.149 0.145202 -3.91031 0
M  V30 5511 H 520.772 1.81879 -3.53562 0
M  V30 5512 N 521.769 1.56035 0.221574 0
M  V30 5513 C 522.679 1.95581 1.29558 0
M  V30 5514 C 523.695 0.859639 1.51282 0
M  V30 5515 O 524.871 1.16321 1.64413 0
M  V30 5516 C 521.936 2.26447 2.62531 0
M  V30 5517 C 520.997 3.49632 2.4911 0
M  V30 5518 C 520.23 3.79017 3.75742 0
M  V30 5519 O 520.453 3.10077 4.78757 0
M  V30 5520 O 519.387 4.72507 3.72855 0
M  V30 5521 H 523.213 2.8711 0.990035 0
M  V30 5522 H 520.798 1.43244 0.424434 0
M  V30 5523 H 522.68 2.47494 3.41064 0
M  V30 5524 H 521.355 1.38092 2.92766 0
M  V30 5525 H 520.262 3.33864 1.68777 0
M  V30 5526 H 521.595 4.3837 2.23814 0
M  V30 5527 N 523.247 -0.488276 1.49845 0
M  V30 5528 C 524.157 -1.61451 1.70207 0
M  V30 5529 C 525.173 -1.63877 0.584846 0
M  V30 5530 O 526.349 -1.82063 0.861107 0
M  V30 5531 C 523.414 -2.9776 1.77594 0
M  V30 5532 C 522.475 -3.05861 3.01243 0
M  V30 5533 C 521.708 -4.35668 3.08268 0
M  V30 5534 O 521.931 -5.25197 2.22541 0
M  V30 5535 O 520.865 -4.49005 4.00847 0
M  V30 5536 H 524.691 -1.47199 2.65643 0
M  V30 5537 H 522.276 -0.665939 1.33737 0
M  V30 5538 H 524.158 -3.7875 1.84732 0
M  V30 5539 H 522.833 -3.12248 0.8534 0
M  V30 5540 H 521.74 -2.24012 2.99616 0
M  V30 5541 H 523.073 -2.96304 3.9302 0
M  V30 5542 N 524.725 -1.39134 -0.740242 0
M  V30 5543 C 526.002 -1.26584 -1.49117 0
M  V30 5544 C 526.382 0.126902 -2.10718 0
M  V30 5545 O 525.73 1.13765 -1.98166 0
M  V30 5546 C 525.94 -2.38619 -2.54681 0
M  V30 5547 C 527.288 -2.77685 -3.21211 0
M  V30 5548 O 528.312 -2.38029 -2.64991 0
M  V30 5549 O 527.171 -3.46115 -4.22926 0
M  V30 5550 H 524.265 -0.495769 -0.661923 0
M  V30 5551 H 526.811 -1.50995 -0.774514 0
M  V30 5552 H 525.583 -3.3175 -2.07504 0
M  V30 5553 H 525.206 -2.15845 -3.33911 0
M  V30 5554 N 526.204 0.969867 -1.24223 0
M  V30 5555 C 527.453 1.70687 -1.07466 0
M  V30 5556 C 527.766 1.91736 0.386861 0
M  V30 5557 O 528.972 2.62986 0.674581 0
M  V30 5558 C 527.428 3.07217 -1.87472 0
M  V30 5559 C 527.036 2.94018 -3.3802 0
M  V30 5560 C 528.78 3.84804 -1.79237 0
M  V30 5561 C 526.687 4.25844 -4.10379 0
M  V30 5562 H 525.617 0.640067 -0.398536 0
M  V30 5563 H 528.268 1.08092 -1.48285 0
M  V30 5564 H 526.65 3.70628 -1.39466 0
M  V30 5565 H 527.824 2.39632 -3.9359 0
M  V30 5566 H 526.139 2.29898 -3.47183 0
M  V30 5567 H 528.736 4.82417 -2.30603 0
M  V30 5568 H 529.079 4.09356 -0.757197 0
M  V30 5569 H 529.612 3.28115 -2.24912 0
M  V30 5570 H 526.351 4.06486 -5.14246 0
M  V30 5571 H 525.871 4.80054 -3.59594 0
M  V30 5572 H 527.55 4.94475 -4.17257 0
M  V30 5573 N 527.682 1.05563 1.17022 0
M  V30 5574 C 528.93 0.76642 1.87004 0
M  V30 5575 C 529.251 -0.708854 1.8166 0
M  V30 5576 O 528.521 -1.51242 1.2451 0
M  V30 5577 H 527.101 0.280516 0.692329 0
M  V30 5578 H 529.763 1.33557 1.41945 0
M  V30 5579 H 528.859 1.08472 2.92644 0
M  V30 5580 N 529.16 -1.33526 0.837174 0
M  V30 5581 C 530.385 -2.0258 0.444545 0
M  V30 5582 C 530.81 -1.6258 -0.946006 0
M  V30 5583 O 530.168 -0.817548 -1.6182 0
M  V30 5584 C 530.216 -3.5605 0.571006 0
M  V30 5585 O 529.32 -4.10422 -0.403431 0
M  V30 5586 H 528.661 -0.638866 0.180958 0
M  V30 5587 H 531.191 -1.70462 1.13154 0
M  V30 5588 H 531.201 -4.05488 0.452024 0
M  V30 5589 H 529.876 -3.84509 1.58512 0
M  V30 5590 H 528.453 -3.72113 -0.242147 0
M  V30 5591 N 530.638 -0.59345 -1.46 0
M  V30 5592 C 531.548 0.135817 -2.34207 0
M  V30 5593 C 532.564 0.875008 -1.50398 0
M  V30 5594 O 533.74 0.835778 -1.83239 0
M  V30 5595 C 530.805 1.12977 -3.27776 0
M  V30 5596 C 529.866 0.394081 -4.27487 0
M  V30 5597 C 529.099 1.34068 -5.16586 0
M  V30 5598 O 529.322 2.5778 -5.08828 0
M  V30 5599 O 528.256 0.845426 -5.95933 0
M  V30 5600 H 532.082 -0.588691 -2.9794 0
M  V30 5601 H 529.667 -0.353784 -1.45151 0
M  V30 5602 H 531.549 1.70261 -3.85473 0
M  V30 5603 H 530.224 1.83556 -2.66625 0
M  V30 5604 H 529.131 -0.220869 -3.73447 0
M  V30 5605 H 530.464 -0.270939 -4.91454 0
M  V30 5606 N 532.116 1.54067 -0.331816 0
M  V30 5607 C 533.344 2.05131 0.269996 0
M  V30 5608 C 533.759 1.20749 1.45138 0
M  V30 5609 O 533.116 0.240069 1.80914 0
M  V30 5610 C 533.167 3.54728 0.696456 0
M  V30 5611 O 532.888 4.35906 -0.43794 0
M  V30 5612 C 534.389 4.21916 1.36021 0
M  V30 5613 H 531.609 0.668807 0.0542042 0
M  V30 5614 H 534.153 1.98777 -0.4804 0
M  V30 5615 H 532.308 3.61342 1.39681 0
M  V30 5616 H 532.722 5.24404 -0.100334 0
M  V30 5617 H 534.196 5.28015 1.60947 0
M  V30 5618 H 534.673 3.73538 2.31011 0
M  V30 5619 H 535.279 4.19463 0.702212 0
M  V30 5620 N 533.594 0.0601682 1.57485 0
M  V30 5621 C 535.01 -0.296422 1.56823 0
M  V30 5622 C 535.21 -1.70831 1.0686 0
M  V30 5623 O 534.266 -2.4174 0.729245 0
M  V30 5624 C 535.579 -0.116681 3.00474 0
M  V30 5625 C 537.127 -0.187103 3.1244 0
M  V30 5626 C 537.602 -0.035783 4.57986 0
M  V30 5627 N 539.093 -0.0917676 4.63109 0
M  V30 5628 C 539.828 0.00107251 5.734 0
M  V30 5629 N 539.324 0.146773 6.92645 0
M  V30 5630 N 541.117 -0.0551577 5.62073 0
M  V30 5631 H 533.268 0.983055 1.88281 0
M  V30 5632 H 535.531 0.382386 0.867459 0
M  V30 5633 H 535.237 0.85712 3.41096 0
M  V30 5634 H 535.111 -0.873929 3.66936 0
M  V30 5635 H 537.498 -1.15138 2.71712 0
M  V30 5636 H 537.579 0.601052 2.48638 0
M  V30 5637 H 537.223 0.925212 4.99402 0
M  V30 5638 H 537.153 -0.843196 5.19806 0
M  V30 5639 H 539.644 -0.203261 3.77353 0
M  V30 5640 H 539.957 0.210076 7.72514 0
M  V30 5641 H 538.302 0.181979 6.94762 0
M  V30 5642 H 541.493 -0.167605 4.678 0
M  V30 5643 H 541.666 0.020652 6.47997 0
M  V30 5644 N 535.072 -1.5615 -0.213296 0
M  V30 5645 C 536.035 -1.92249 -1.24792 0
M  V30 5646 C 537.035 -0.801828 -1.39382 0
M  V30 5647 O 538.225 -1.06948 -1.37506 0
M  V30 5648 C 535.357 -2.18056 -2.62039 0
M  V30 5649 H 536.55 -2.84793 -0.939845 0
M  V30 5650 H 534.103 -1.49559 -0.454062 0
M  V30 5651 H 534.838 -1.2809 -2.97932 0
M  V30 5652 H 534.623 -2.99703 -2.52825 0
M  V30 5653 H 536.113 -2.47051 -3.36683 0
M  V30 5654 N 536.55 0.480323 -1.50102 0
M  V30 5655 C 537.799 1.22979 -1.59872 0
M  V30 5656 C 538.112 1.93282 -0.30022 0
M  V30 5657 O 539.318 2.70086 -0.276709 0
M  V30 5658 C 537.774 2.23408 -2.82164 0
M  V30 5659 C 537.382 1.5895 -4.18854 0
M  V30 5660 C 539.126 2.99055 -3.01275 0
M  V30 5661 C 537.033 2.57611 -5.32344 0
M  V30 5662 H 535.963 0.462707 -0.59533 0
M  V30 5663 H 538.614 0.501291 -1.7652 0
M  V30 5664 H 536.996 2.99511 -2.59055 0
M  V30 5665 H 538.17 0.887 -4.52182 0
M  V30 5666 H 536.485 0.956191 -4.05273 0
M  V30 5667 H 539.082 3.72876 -3.83233 0
M  V30 5668 H 539.425 3.57897 -2.12639 0
M  V30 5669 H 539.958 2.30066 -3.24522 0
M  V30 5670 H 536.697 2.03521 -6.23105 0
M  V30 5671 H 536.217 3.26041 -5.03445 0
M  V30 5672 H 537.896 3.19627 -5.62537 0
M  V30 5673 N 538.028 1.39524 0.732853 0
M  V30 5674 C 539.258 1.3994 1.51988 0
M  V30 5675 C 539.666 -0.00727973 1.89199 0
M  V30 5676 O 539.009 -0.989521 1.54771 0
M  V30 5677 C 539.071 2.21026 2.83527 0
M  V30 5678 C 538.735 3.69633 2.68738 0
M  V30 5679 C 539.732 4.62665 2.37143 0
M  V30 5680 C 537.417 4.13244 2.85542 0
M  V30 5681 C 539.411 5.97291 2.22536 0
M  V30 5682 C 537.098 5.47945 2.70554 0
M  V30 5683 C 538.096 6.39783 2.39097 0
M  V30 5684 O 537.784 7.72002 2.24204 0
M  V30 5685 H 537.516 0.479795 0.476206 0
M  V30 5686 H 540.07 1.8399 0.913054 0
M  V30 5687 H 538.3 1.71728 3.46477 0
M  V30 5688 H 539.989 2.13594 3.45156 0
M  V30 5689 H 540.755 4.30272 2.2381 0
M  V30 5690 H 536.634 3.42094 3.09019 0
M  V30 5691 H 540.178 6.68939 1.97905 0
M  V30 5692 H 536.075 5.79928 2.83466 0
M  V30 5693 H 536.843 7.8275 2.39258 0
M  V30 5694 N 539.506 -0.963266 1.24736 0
M  V30 5695 C 540.731 -1.74699 1.11781 0
M  V30 5696 C 541.156 -1.85267 -0.325258 0
M  V30 5697 O 540.514 -1.32681 -1.23553 0
M  V30 5698 C 540.562 -3.14322 1.76731 0
M  V30 5699 O 539.666 -3.99043 1.04109 0
M  V30 5700 H 539.007 -0.53684 0.390767 0
M  V30 5701 H 541.537 -1.20801 1.65131 0
M  V30 5702 H 541.547 -3.64824 1.82668 0
M  V30 5703 H 540.222 -3.05946 2.81726 0
M  V30 5704 H 538.799 -3.5752 1.05991 0
M  V30 5705 N 540.985 -1.06182 -1.16461 0
M  V30 5706 C 542.234 -0.772927 -1.86303 0
M  V30 5707 C 542.547 0.703187 -1.82523 0
M  V30 5708 O 543.753 1.10641 -2.47933 0
M  V30 5709 C 542.209 -1.33249 -3.34324 0
M  V30 5710 C 541.817 -2.83876 -3.46581 0
M  V30 5711 C 543.561 -1.12108 -4.09429 0
M  V30 5712 C 541.468 -3.33082 -4.88682 0
M  V30 5713 H 540.398 -0.285452 -0.697878 0
M  V30 5714 H 543.049 -1.28039 -1.31447 0
M  V30 5715 H 541.431 -0.7528 -3.88779 0
M  V30 5716 H 542.605 -3.47786 -3.02293 0
M  V30 5717 H 540.92 -3.03671 -2.84909 0
M  V30 5718 H 543.517 -1.46361 -5.14279 0
M  V30 5719 H 543.86 -0.0593832 -4.16258 0
M  V30 5720 H 544.393 -1.6665 -3.6121 0
M  V30 5721 H 541.132 -4.38726 -4.87032 0
M  V30 5722 H 540.652 -2.73919 -5.33599 0
M  V30 5723 H 542.331 -3.28344 -5.57494 0
M  V30 5724 N 542.463 1.3308 -0.844243 0
M  V30 5725 C 543.709 1.97898 -0.443206 0
M  V30 5726 C 544.042 1.66699 0.99625 0
M  V30 5727 O 543.317 0.949704 1.69738 0
M  V30 5728 C 543.6 3.53801 -0.670606 0
M  V30 5729 C 543.453 3.94667 -2.15772 0
M  V30 5730 C 544.772 4.39936 -0.120226 0
M  V30 5731 H 541.891 0.718861 -0.162504 0
M  V30 5732 H 544.533 1.57633 -1.06075 0
M  V30 5733 H 542.683 3.88229 -0.14496 0
M  V30 5734 H 544.355 3.70469 -2.74865 0
M  V30 5735 H 542.598 3.44203 -2.6402 0
M  V30 5736 H 543.269 5.03275 -2.26757 0
M  V30 5737 H 545.745 4.12183 -0.5696 0
M  V30 5738 H 544.621 5.4803 -0.308984 0
M  V30 5739 H 544.882 4.31184 0.976347 0
M  V30 5740 N 543.941 0.601185 1.45683 0
M  V30 5741 C 544.871 -0.108824 2.33246 0
M  V30 5742 C 545.852 -0.865223 1.46451 0
M  V30 5743 O 547.037 -0.83704 1.75235 0
M  V30 5744 C 544.167 -1.11101 3.2905 0
M  V30 5745 C 543.121 -0.468244 4.25431 0
M  V30 5746 C 542.447 -1.57822 5.10878 0
M  V30 5747 C 543.747 0.606469 5.18767 0
M  V30 5748 H 545.441 0.622306 2.92861 0
M  V30 5749 H 542.987 0.300714 1.40825 0
M  V30 5750 H 544.94 -1.61622 3.89174 0
M  V30 5751 H 543.664 -1.87265 2.67581 0
M  V30 5752 H 542.323 0.0160484 3.66596 0
M  V30 5753 H 541.971 -2.32998 4.45781 0
M  V30 5754 H 541.671 -1.15369 5.76163 0
M  V30 5755 H 543.195 -2.08583 5.73869 0
M  V30 5756 H 544.609 0.185589 5.73 0
M  V30 5757 H 543.006 0.952381 5.92494 0
M  V30 5758 H 544.076 1.48559 4.61582 0
M  V30 5759 N 545.419 -1.53889 0.339982 0
M  V30 5760 C 546.366 -2.24902 -0.518452 0
M  V30 5761 C 547.336 -1.24593 -1.09844 0
M  V30 5762 O 548.521 -1.53317 -1.13572 0
M  V30 5763 C 545.661 -3.02262 -1.66529 0
M  V30 5764 C 544.774 -4.17418 -1.11295 0
M  V30 5765 C 543.909 -4.82273 -2.2268 0
M  V30 5766 C 542.948 -5.89503 -1.6478 0
M  V30 5767 N 542.085 -6.48153 -2.69893 0
M  V30 5768 H 546.925 -2.97853 0.0936579 0
M  V30 5769 H 544.462 -1.46986 0.0579924 0
M  V30 5770 H 546.42 -3.45371 -2.3404 0
M  V30 5771 H 545.05 -2.31614 -2.24844 0
M  V30 5772 H 544.102 -3.78976 -0.328886 0
M  V30 5773 H 545.414 -4.94554 -0.649414 0
M  V30 5774 H 544.568 -5.28435 -2.98063 0
M  V30 5775 H 543.307 -4.04552 -2.72376 0
M  V30 5776 H 542.312 -5.42728 -0.879004 0
M  V30 5777 H 543.537 -6.6913 -1.1594 0
M  V30 5778 H 541.483 -5.73298 -3.1885 0
M  V30 5779 H 541.4 -7.20752 -2.28151 0
M  V30 5780 H 542.668 -6.98968 -3.45056 0
M  V30 5781 N 546.897 -0.0685191 -1.57451 0
M  V30 5782 C 547.827 0.89747 -2.15564 0
M  V30 5783 C 548.808 1.31266 -1.08181 0
M  V30 5784 O 549.993 1.38429 -1.36202 0
M  V30 5785 C 547.123 2.16623 -2.71463 0
M  V30 5786 C 546.077 1.89054 -3.83982 0
M  V30 5787 C 545.403 3.22532 -4.26471 0
M  V30 5788 C 546.703 1.1984 -5.08366 0
M  V30 5789 H 548.397 0.413373 -2.96533 0
M  V30 5790 H 545.943 0.197391 -1.42641 0
M  V30 5791 H 547.896 2.84614 -3.10761 0
M  V30 5792 H 546.62 2.67269 -1.8771 0
M  V30 5793 H 545.279 1.23469 -3.45183 0
M  V30 5794 H 544.927 3.71013 -3.39644 0
M  V30 5795 H 544.627 3.04879 -5.02317 0
M  V30 5796 H 546.151 3.91727 -4.68383 0
M  V30 5797 H 547.565 1.77896 -5.45001 0
M  V30 5798 H 545.962 1.12456 -5.89469 0
M  V30 5799 H 547.032 0.176996 -4.84577 0
M  V30 5800 N 548.375 1.56261 0.205012 0
M  V30 5801 C 549.786 1.70056 0.770574 0
M  V30 5802 C 550.137 0.673398 1.84282 0
M  V30 5803 O 549.262 -0.172196 2.15714 0
M  V30 5804 C 549.857 3.08316 1.40451 0
M  V30 5805 C 548.416 3.2391 1.91727 0
M  V30 5806 C 547.563 2.66001 0.783516 0
M  V30 5807 H 550.514 1.58688 -0.019911 0
M  V30 5808 H 550.535 3.05094 2.27371 0
M  V30 5809 H 550.047 3.83053 0.623882 0
M  V30 5810 H 548.148 2.54072 2.7254 0
M  V30 5811 H 548.261 4.3131 2.08588 0
M  V30 5812 H 546.625 2.24915 1.19521 0
M  V30 5813 H 547.408 3.43297 0.0152883 0
M  V30 5814 N 549.853 -0.472356 1.50355 0
M  V30 5815 C 551.101 -1.22211 1.60962 0
M  V30 5816 C 551.422 -1.92497 0.311439 0
M  V30 5817 O 550.692 -1.8405 -0.671002 0
M  V30 5818 H 549.272 -0.454092 0.593135 0
M  V30 5819 H 551.934 -0.544977 1.87126 0
M  V30 5820 H 551.03 -1.9707 2.42012 0
M  V30 5821 N 551.331 -1.39911 -0.725443 0
M  V30 5822 C 552.281 -1.35878 -1.83088 0
M  V30 5823 C 553.265 -0.237989 -1.5913 0
M  V30 5824 O 554.457 -0.476302 -1.70471 0
M  V30 5825 C 551.586 -1.21403 -3.21117 0
M  V30 5826 C 550.672 -2.38223 -3.50871 0
M  V30 5827 N 551.063 -3.63703 -3.51502 0
M  V30 5828 C 549.361 -2.31388 -3.81281 0
M  V30 5829 C 550.062 -4.4101 -3.79322 0
M  V30 5830 N 549.038 -3.7072 -3.97577 0
M  V30 5831 H 552.84 -2.3085 -1.81895 0
M  V30 5832 H 550.354 -1.33543 -0.924125 0
M  V30 5833 H 552.351 -1.16597 -4.00263 0
M  V30 5834 H 551.011 -0.273902 -3.23543 0
M  V30 5835 H 552.022 -3.96998 -3.32586 0
M  V30 5836 H 548.699 -1.45689 -3.91256 0
M  V30 5837 H 550.089 -5.49819 -3.86198 0
M  V30 5838 N 552.809 0.956637 -1.25245 0
M  V30 5839 C 554.034 1.74104 -1.12706 0
M  V30 5840 C 554.459 1.85436 0.315429 0
M  V30 5841 O 553.817 1.33334 1.22848 0
M  V30 5842 C 553.865 3.1338 -1.78396 0
M  V30 5843 O 552.969 3.98485 -1.06224 0
M  V30 5844 H 552.31 0.53476 -0.393609 0
M  V30 5845 H 554.84 1.19924 -1.65769 0
M  V30 5846 H 554.85 3.6385 -1.846 0
M  V30 5847 H 553.525 3.04448 -2.83345 0
M  V30 5848 H 552.102 3.56952 -1.07886 0
M  V30 5849 N 554.287 1.06798 1.15896 0
M  V30 5850 C 555.515 0.808694 1.90441 0
M  V30 5851 C 555.93 -0.637506 1.77711 0
M  V30 5852 O 555.287 -1.43684 1.12522 0
M  V30 5853 C 555.338 1.20068 3.40978 0
M  V30 5854 O 555.059 2.59013 3.53333 0
M  V30 5855 C 556.56 0.96987 4.3256 0
M  V30 5856 H 553.78 0.292809 0.603742 0
M  V30 5857 H 556.324 1.42296 1.46874 0
M  V30 5858 H 554.479 0.630842 3.82229 0
M  V30 5859 H 554.893 2.7485 4.46719 0
M  V30 5860 H 556.367 1.29371 5.36626 0
M  V30 5861 H 556.844 -0.0941209 4.39099 0
M  V30 5862 H 557.45 1.52433 3.97044 0
M  V30 5863 N 555.766 -1.3263 0.851289 0
M  V30 5864 C 557.015 -1.96633 0.449267 0
M  V30 5865 C 557.328 -1.68131 -0.999562 0
M  V30 5866 O 558.534 -2.25845 -1.50685 0
M  V30 5867 C 556.99 -3.51946 0.752446 0
M  V30 5868 C 556.598 -3.89311 2.21678 0
M  V30 5869 C 558.342 -4.22437 0.417983 0
M  V30 5870 C 556.249 -5.37655 2.46336 0
M  V30 5871 H 555.179 -0.735888 0.164269 0
M  V30 5872 H 557.83 -1.51073 1.0416 0
M  V30 5873 H 556.212 -3.95899 0.0895858 0
M  V30 5874 H 557.386 -3.56378 2.92115 0
M  V30 5875 H 555.701 -3.31836 2.51543 0
M  V30 5876 H 558.298 -5.31549 0.579674 0
M  V30 5877 H 558.641 -4.11349 -0.640115 0
M  V30 5878 H 559.174 -3.84057 1.03659 0
M  V30 5879 H 555.913 -5.5376 3.50757 0
M  V30 5880 H 555.433 -5.72005 1.80473 0
M  V30 5881 H 557.112 -6.04695 2.30115 0
M  V30 5882 N 557.244 -0.608902 -1.45362 0
M  V30 5883 C 558.174 0.0964526 -2.33301 0
M  V30 5884 C 559.155 0.857444 -1.46908 0
M  V30 5885 O 560.34 0.827735 -1.75676 0
M  V30 5886 C 557.47 1.09354 -3.29635 0
M  V30 5887 C 556.424 0.445676 -4.25673 0
M  V30 5888 C 555.75 1.5511 -5.11708 0
M  V30 5889 C 557.05 -0.633972 -5.18438 0
M  V30 5890 H 558.744 -0.637829 -2.92527 0
M  V30 5891 H 556.29 -0.308178 -1.40664 0
M  V30 5892 H 558.243 1.59556 -3.90025 0
M  V30 5893 H 556.967 1.85843 -2.6857 0
M  V30 5894 H 555.626 -0.0354897 -3.66583 0
M  V30 5895 H 555.274 2.30631 -4.4701 0
M  V30 5896 H 554.974 1.12311 -5.76767 0
M  V30 5897 H 556.498 2.05537 -5.74967 0
M  V30 5898 H 557.912 -0.215974 -5.72893 0
M  V30 5899 H 556.309 -0.983789 -5.91981 0
M  V30 5900 H 557.379 -1.51005 -4.60788 0
M  V30 5901 N 558.722 1.53707 -0.348139 0
M  V30 5902 C 559.67 2.26671 0.521808 0
M  V30 5903 C 560.664 1.28988 1.09811 0
M  V30 5904 O 561.87 1.4668 1.04332 0
M  V30 5905 H 558.245 0.728387 0.186968 0
M  V30 5906 H 560.216 2.98176 -0.115563 0
M  V30 5907 C 558.965 3.05591 1.6586 0
M  V30 5908 H 558.288 3.80589 1.22443 0
M  V30 5909 H 559.728 3.59851 2.24239 0
M  V30 5910 C 558.187 2.15366 2.59073 0
M  V30 5911 O 558.717 1.7528 3.61441 0
M  V30 5912 N 556.923 1.80352 2.27863 0
M  V30 5913 H 556.47 2.13149 1.44656 0
M  V30 5914 H 556.428 1.20268 2.90488 0
M  V30 5915 N 560.2 0.0768682 1.57412 0
M  V30 5916 C 561.425 -0.603404 1.98428 0
M  V30 5917 C 561.85 -1.62047 0.955108 0
M  V30 5918 O 561.208 -1.81129 -0.0786778 0
M  V30 5919 C 561.256 -1.24396 3.38464 0
M  V30 5920 O 560.36 -2.35982 3.3821 0
M  V30 5921 H 559.701 -0.154741 0.645718 0
M  V30 5922 H 562.231 0.152885 2.04028 0
M  V30 5923 H 562.241 -1.5896 3.7576 0
M  V30 5924 H 560.916 -0.498735 4.12899 0
M  V30 5925 H 559.493 -2.03173 3.1269 0
M  V30 5926 N 561.678 -1.56367 -0.196722 0
M  V30 5927 C 562.906 -1.84639 -0.933608 0
M  V30 5928 C 563.321 -0.659164 -1.76919 0
M  V30 5929 O 562.678 0.372142 -1.78665 0
M  V30 5930 C 562.729 -3.11694 -1.83109 0
M  V30 5931 O 562.45 -4.25838 -1.02924 0
M  V30 5932 C 563.951 -3.53132 -2.67979 0
M  V30 5933 H 561.171 -0.613188 -0.272473 0
M  V30 5934 H 563.715 -2.03475 -0.204465 0
M  V30 5935 H 561.87 -2.94759 -2.51387 0
M  V30 5936 H 562.284 -4.98178 -1.64069 0
M  V30 5937 H 563.758 -4.45005 -3.26611 0
M  V30 5938 H 564.235 -2.76045 -3.41608 0
M  V30 5939 H 564.841 -3.72592 -2.05074 0
M  V30 5940 N 563.156 0.464375 -1.50603 0
M  V30 5941 C 564.103 1.56152 -1.69956 0
M  V30 5942 C 565.073 1.57046 -0.54091 0
M  V30 5943 O 566.258 1.74473 -0.772258 0
M  V30 5944 C 563.398 2.94079 -1.80586 0
M  V30 5945 C 562.511 3.02923 -3.07996 0
M  V30 5946 C 561.646 4.31806 -3.09382 0
M  V30 5947 C 560.685 4.34417 -4.31218 0
M  V30 5948 N 559.822 5.54782 -4.30304 0
M  V30 5949 H 564.662 1.38955 -2.6362 0
M  V30 5950 H 562.199 0.675482 -1.30674 0
M  V30 5951 H 564.157 3.74073 -1.8473 0
M  V30 5952 H 562.787 3.09896 -0.903556 0
M  V30 5953 H 561.839 2.1576 -3.13292 0
M  V30 5954 H 563.151 3.00712 -3.97962 0
M  V30 5955 H 562.305 5.20153 -3.12292 0
M  V30 5956 H 561.044 4.36636 -2.17257 0
M  V30 5957 H 560.049 3.44467 -4.28512 0
M  V30 5958 H 561.274 4.31273 -5.24576 0
M  V30 5959 H 559.22 5.60384 -3.41037 0
M  V30 5960 H 559.137 5.54339 -5.14047 0
M  V30 5961 H 560.405 6.45235 -4.3737 0
M  V30 5962 N 564.634 1.40294 0.718013 0
M  V30 5963 C 565.564 1.43118 1.84498 0
M  V30 5964 C 566.545 0.292403 1.67568 0
M  V30 5965 O 567.73 0.500675 1.87635 0
M  V30 5966 C 564.86 1.29065 3.22427 0
M  V30 5967 C 563.814 2.40521 3.54025 0
M  V30 5968 C 563.14 2.11546 4.91073 0
M  V30 5969 C 564.44 3.82859 3.55269 0
M  V30 5970 H 566.134 2.37432 1.82391 0
M  V30 5971 H 563.68 1.14283 0.87609 0
M  V30 5972 H 565.633 1.29658 4.00957 0
M  V30 5973 H 564.357 0.312271 3.25104 0
M  V30 5974 H 563.016 2.39173 2.77834 0
M  V30 5975 H 562.664 1.12104 4.90348 0
M  V30 5976 H 562.364 2.86216 5.1318 0
M  V30 5977 H 563.888 2.13817 5.71939 0
M  V30 5978 H 565.302 3.86044 4.23843 0
M  V30 5979 H 563.699 4.57029 3.88902 0
M  V30 5980 H 564.769 4.12617 2.54706 0
M  V30 5981 N 566.112 -0.949982 1.2575 0
M  V30 5982 C 567.523 -1.50989 1.09815 0
M  V30 5983 C 567.874 -1.93497 -0.324556 0
M  V30 5984 O 566.999 -1.79068 -1.21506 0
M  V30 5985 C 567.594 -2.74394 1.98729 0
M  V30 5986 C 566.153 -3.26682 1.86965 0
M  V30 5987 C 565.3 -1.99498 1.92603 0
M  V30 5988 H 568.251 -0.766387 1.38968 0
M  V30 5989 H 568.272 -3.48383 1.53001 0
M  V30 5990 H 567.784 -2.43425 3.02268 0
M  V30 5991 H 565.885 -3.62461 0.863279 0
M  V30 5992 H 565.998 -3.94383 2.72027 0
M  V30 5993 H 564.362 -2.15005 1.36546 0
M  V30 5994 H 565.145 -1.70871 2.97755 0
M  V30 5995 N 567.59 -1.07411 -1.15328 0
M  V30 5996 C 568.815 -0.818856 -1.90551 0
M  V30 5997 C 569.24 0.622194 -1.77512 0
M  V30 5998 O 568.598 1.43484 -1.10824 0
M  V30 5999 C 568.646 -1.23267 -3.38877 0
M  V30 6000 O 567.75 -0.378345 -4.10661 0
M  V30 6001 H 567.091 -0.29827 -0.593238 0
M  V30 6002 H 569.621 -1.43289 -1.46046 0
M  V30 6003 H 569.631 -1.20912 -3.89672 0
M  V30 6004 H 568.306 -2.28226 -3.47686 0
M  V30 6005 H 566.883 -0.464437 -3.69996 0
M  V30 6006 N 569.068 1.32177 -0.85831 0
M  V30 6007 C 570.293 2.01847 -0.476718 0
M  V30 6008 C 570.718 1.64065 0.920021 0
M  V30 6009 O 570.076 0.843189 1.60499 0
M  V30 6010 C 570.124 3.55097 -0.627578 0
M  V30 6011 O 569.228 4.11012 0.338086 0
M  V30 6012 H 568.569 0.635907 -0.191099 0
M  V30 6013 H 571.099 1.68641 -1.15851 0
M  V30 6014 H 571.109 4.04718 -0.516476 0
M  V30 6015 H 569.784 3.81938 -1.64609 0
M  V30 6016 H 568.361 3.72451 0.182917 0
M  V30 6017 N 570.547 0.616602 1.45037 0
M  V30 6018 C 571.824 0.0469086 1.95544 0
M  V30 6019 C 572.204 -1.42345 1.55888 0
M  V30 6020 O 571.552 -2.13055 0.825824 0
M  V30 6021 C 571.762 0.254489 3.48071 0
M  V30 6022 C 573.11 0.140025 4.24369 0
M  V30 6023 O 574.134 0.185084 3.55719 0
M  V30 6024 O 572.993 0.0327034 5.4649 0
M  V30 6025 H 570.087 -0.0306051 0.826433 0
M  V30 6026 H 572.633 0.687293 1.55159 0
M  V30 6027 H 571.405 1.27532 3.69934 0
M  V30 6028 H 571.028 -0.42073 3.95368 0
M  V30 6029 N 572.025 -1.5352 0.356285 0
M  V30 6030 C 572.973 -2.26945 -0.50978 0
M  V30 6031 C 573.967 -1.29569 -1.09125 0
M  V30 6032 O 575.173 -1.47231 -1.03552 0
M  V30 6033 H 571.548 -0.729368 -0.183102 0
M  V30 6034 H 573.519 -2.98111 0.131374 0
M  V30 6035 C 572.268 -3.06466 -1.64237 0
M  V30 6036 H 571.591 -3.81233 -1.20423 0
M  V30 6037 H 573.031 -3.61035 -2.22327 0
M  V30 6038 C 571.49 -2.16737 -2.57928 0
M  V30 6039 O 572.02 -1.77195 -3.60507 0
M  V30 6040 N 570.226 -1.81558 -2.26903 0
M  V30 6041 H 569.773 -2.13913 -1.43524 0
M  V30 6042 H 569.731 -1.21806 -2.89846 0
M  V30 6043 N 573.503 -0.0852151 -1.57369 0
M  V30 6044 C 574.433 0.874556 -2.16503 0
M  V30 6045 C 575.414 1.30111 -1.09568 0
M  V30 6046 O 576.599 1.36977 -1.37662 0
M  V30 6047 C 573.729 2.13731 -2.73745 0
M  V30 6048 C 572.683 1.84971 -3.85966 0
M  V30 6049 C 572.009 3.17991 -4.29867 0
M  V30 6050 C 573.309 1.14442 -5.09608 0
M  V30 6051 H 575.003 0.381899 -2.96954 0
M  V30 6052 H 572.549 0.18225 -1.42842 0
M  V30 6053 H 574.502 2.81302 -3.13763 0
M  V30 6054 H 573.226 2.65263 -1.90534 0
M  V30 6055 H 571.885 1.19801 -3.46473 0
M  V30 6056 H 571.533 3.6739 -3.4356 0
M  V30 6057 H 571.233 2.99534 -5.05523 0
M  V30 6058 H 572.757 3.86737 -4.72511 0
M  V30 6059 H 574.171 1.72105 -5.46857 0
M  V30 6060 H 572.568 1.06197 -5.90629 0
M  V30 6061 H 573.638 0.12559 -4.84737 0
M  V30 6062 N 574.981 1.5647 0.188427 0
M  V30 6063 C 575.913 1.91611 1.25769 0
M  V30 6064 C 576.926 0.807436 1.41366 0
M  V30 6065 O 578.115 1.08586 1.41673 0
M  V30 6066 C 575.215 2.13874 2.6289 0
M  V30 6067 C 574.388 3.45047 2.68815 0
M  V30 6068 C 573.447 3.56342 3.87178 0
M  V30 6069 O 572.473 4.29109 3.73971 0
M  V30 6070 N 573.675 2.89924 5.02916 0
M  V30 6071 H 576.44 2.8393 0.959373 0
M  V30 6072 H 574.001 1.57418 0.378306 0
M  V30 6073 H 575.993 2.18713 3.4051 0
M  V30 6074 H 574.563 1.28022 2.85183 0
M  V30 6075 H 573.783 3.52017 1.77419 0
M  V30 6076 H 575.071 4.31395 2.6977 0
M  V30 6077 H 574.469 2.30644 5.16546 0
M  V30 6078 H 573.026 3.0038 5.78459 0
M  V30 6079 N 576.459 -0.456382 1.50847 0
M  V30 6080 C 577.705 -1.20914 1.62811 0
M  V30 6081 C 578.038 -1.91301 0.334304 0
M  V30 6082 O 577.313 -1.82775 -0.665098 0
M  V30 6083 C 577.596 -2.24122 2.81853 0
M  V30 6084 C 577.449 -1.57944 4.21158 0
M  V30 6085 C 578.768 -3.25295 2.96431 0
M  V30 6086 H 575.887 -0.438233 0.592554 0
M  V30 6087 H 578.529 -0.50091 1.83278 0
M  V30 6088 H 576.679 -2.84524 2.64534 0
M  V30 6089 H 578.351 -1.01025 4.50102 0
M  V30 6090 H 576.594 -0.882185 4.24735 0
M  V30 6091 H 577.265 -2.33014 5.00408 0
M  V30 6092 H 579.741 -2.7493 3.12335 0
M  V30 6093 H 578.617 -3.94822 3.81322 0
M  V30 6094 H 578.878 -3.90286 2.07676 0
M  V30 6095 N 577.937 -1.40673 -0.710563 0
M  V30 6096 C 579.348 -1.34975 -1.28991 0
M  V30 6097 C 579.699 -0.0256272 -1.96183 0
M  V30 6098 O 578.824 0.876339 -1.97862 0
M  V30 6099 C 579.419 -2.44467 -2.34567 0
M  V30 6100 C 577.978 -2.42213 -2.88114 0
M  V30 6101 C 577.125 -2.25085 -1.61963 0
M  V30 6102 H 580.076 -1.50406 -0.506343 0
M  V30 6103 H 580.097 -2.12663 -3.15523 0
M  V30 6104 H 579.609 -3.40825 -1.85634 0
M  V30 6105 H 577.71 -1.49568 -3.41263 0
M  V30 6106 H 577.823 -3.37983 -3.39565 0
M  V30 6107 H 576.187 -1.72691 -1.87216 0
M  V30 6108 H 576.97 -3.23449 -1.15047 0
M  V30 6109 N 579.415 0.9433 -1.26252 0
M  V30 6110 C 580.325 2.07532 -1.09397 0
M  V30 6111 C 581.341 1.73977 -0.0280449 0
M  V30 6112 O 582.517 2.00067 -0.231337 0
M  V30 6113 C 579.582 3.39002 -0.726523 0
M  V30 6114 C 578.643 3.86353 -1.87163 0
M  V30 6115 C 577.876 5.11549 -1.52162 0
M  V30 6116 O 578.099 5.68834 -0.422385 0
M  V30 6117 O 577.033 5.53889 -2.35565 0
M  V30 6118 H 580.859 2.24658 -2.04359 0
M  V30 6119 H 578.444 1.05988 -1.05295 0
M  V30 6120 H 580.326 4.18 -0.534236 0
M  V30 6121 H 579.001 3.2312 0.193721 0
M  V30 6122 H 577.908 3.0831 -2.11886 0
M  V30 6123 H 579.241 4.06752 -2.77152 0
M  V30 6124 N 580.893 1.08022 1.14757 0
M  V30 6125 C 581.803 0.718292 2.23333 0
M  V30 6126 C 582.819 -0.273477 1.71837 0
M  V30 6127 O 583.995 -0.118406 2.01052 0
M  V30 6128 C 581.06 0.128855 3.4646 0
M  V30 6129 C 580.121 1.17473 4.12915 0
M  V30 6130 C 579.354 0.61333 5.30164 0
M  V30 6131 O 579.577 -0.568458 5.6756 0
M  V30 6132 O 578.511 1.3615 5.86299 0
M  V30 6133 H 582.337 1.62394 2.56636 0
M  V30 6134 H 579.922 0.853628 1.22611 0
M  V30 6135 H 581.804 -0.197249 4.20938 0
M  V30 6136 H 580.479 -0.750014 3.14891 0
M  V30 6137 H 579.386 1.5533 3.40328 0
M  V30 6138 H 580.719 2.02574 4.48581 0
M  V30 6139 N 582.371 -1.3172 0.865308 0
M  V30 6140 C 583.281 -2.32394 0.320935 0
M  V30 6141 C 584.297 -1.64511 -0.566746 0
M  V30 6142 O 585.473 -1.95969 -0.464575 0
M  V30 6143 C 582.538 -3.43462 -0.472701 0
M  V30 6144 C 581.599 -4.27015 0.442385 0
M  V30 6145 C 580.832 -5.32779 -0.313469 0
M  V30 6146 O 581.055 -5.49158 -1.54214 0
M  V30 6147 O 579.989 -6.01015 0.326257 0
M  V30 6148 H 583.815 -2.80868 1.15528 0
M  V30 6149 H 581.4 -1.35535 0.628545 0
M  V30 6150 H 583.282 -4.11172 -0.922781 0
M  V30 6151 H 581.957 -2.97159 -1.28367 0
M  V30 6152 H 580.864 -3.62075 0.940866 0
M  V30 6153 H 582.197 -4.76871 1.21882 0
M  V30 6154 N 583.85 -0.624285 -1.44708 0
M  V30 6155 C 584.779 0.0717025 -2.3339 0
M  V30 6156 C 585.76 0.841814 -1.47809 0
M  V30 6157 O 586.946 0.809056 -1.76544 0
M  V30 6158 C 584.076 1.05852 -3.30776 0
M  V30 6159 C 583.029 0.400503 -4.26122 0
M  V30 6160 C 582.356 1.49674 -5.13324 0
M  V30 6161 C 583.656 -0.688924 -5.17737 0
M  V30 6162 H 585.35 -0.668819 -2.91834 0
M  V30 6163 H 582.896 -0.32308 -1.40329 0
M  V30 6164 H 584.849 1.5541 -3.91696 0
M  V30 6165 H 583.572 1.82984 -2.70526 0
M  V30 6166 H 582.231 -0.0743687 -3.66525 0
M  V30 6167 H 581.88 2.25877 -4.49431 0
M  V30 6168 H 581.58 1.06188 -5.77926 0
M  V30 6169 H 583.104 1.99427 -5.77115 0
M  V30 6170 H 584.518 -0.276724 -5.72632 0
M  V30 6171 H 582.915 -1.04652 -5.90904 0
M  V30 6172 H 583.985 -1.55884 -4.5916 0
M  V30 6173 N 585.328 1.53329 -0.364422 0
M  V30 6174 C 586.576 2.00842 0.225189 0
M  V30 6175 C 586.897 1.25345 1.49378 0
M  V30 6176 O 586.167 0.366396 1.92443 0
M  V30 6177 H 584.747 0.742009 0.0862027 0
M  V30 6178 H 587.409 1.8863 -0.490389 0
M  V30 6179 H 586.505 3.08795 0.452987 0
M  V30 6180 N 586.806 0.0935595 1.57322 0
M  V30 6181 C 587.739 -0.902505 2.09595 0
M  V30 6182 C 588.717 -1.27732 1.00615 0
M  V30 6183 O 589.901 -1.38283 1.28102 0
M  V30 6184 C 587.028 -2.20416 2.57166 0
M  V30 6185 C 586.074 -1.97932 3.7779 0
M  V30 6186 S 586.907 -1.21873 5.21447 0
M  V30 6187 C 588.063 -2.53273 5.72367 0
M  V30 6188 H 588.296 -0.457797 2.93754 0
M  V30 6189 H 585.829 -0.119694 1.53935 0
M  V30 6190 H 587.787 -2.95217 2.85232 0
M  V30 6191 H 586.448 -2.62008 1.73235 0
M  V30 6192 H 585.641 -2.94316 4.09138 0
M  V30 6193 H 585.243 -1.3126 3.5021 0
M  V30 6194 H 587.535 -3.49256 5.8054 0
M  V30 6195 H 588.478 -2.26505 6.70896 0
M  V30 6196 H 588.886 -2.61475 5.00291 0
M  V30 6197 N 588.284 -1.56567 -0.180126 0
M  V30 6198 C 589.53 -1.81761 -0.899497 0
M  V30 6199 C 589.863 -0.670015 -1.82276 0
M  V30 6200 O 589.138 0.328575 -1.91705 0
M  V30 6201 C 589.421 -3.17296 -1.7028 0
M  V30 6202 C 589.274 -4.4257 -0.803255 0
M  V30 6203 C 590.593 -3.49678 -2.67233 0
M  V30 6204 H 587.712 -0.661192 -0.325567 0
M  V30 6205 H 590.354 -1.89272 -0.16612 0
M  V30 6206 H 588.504 -3.11023 -2.32802 0
M  V30 6207 H 590.176 -4.60902 -0.191585 0
M  V30 6208 H 588.419 -4.33658 -0.110796 0
M  V30 6209 H 589.09 -5.33935 -1.40064 0
M  V30 6210 H 591.566 -3.56347 -2.14839 0
M  V30 6211 H 590.442 -4.45605 -3.20511 0
M  V30 6212 H 590.703 -2.73932 -3.47007 0
M  V30 6213 N 589.762 0.448376 -1.51087 0
M  V30 6214 C 591.039 1.20926 -1.53741 0
M  V30 6215 C 591.419 2.09025 -0.295222 0
M  V30 6216 O 590.767 2.16851 0.720283 0
M  V30 6217 C 590.977 2.02067 -2.84552 0
M  V30 6218 C 592.325 2.59486 -3.36084 0
M  V30 6219 O 593.349 2.12289 -2.86028 0
M  V30 6220 O 592.208 3.45539 -4.23397 0
M  V30 6221 H 589.302 0.549951 -0.617643 0
M  V30 6222 H 591.848 0.458344 -1.63393 0
M  V30 6223 H 590.62 1.37291 -3.66425 0
M  V30 6224 H 590.243 2.84246 -2.78011 0
M  V30 6225 N 591.24 1.41047 0.703093 0
M  V30 6226 C 592.17 1.45067 1.82969 0
M  V30 6227 C 593.151 0.31016 1.67248 0
M  V30 6228 O 594.336 0.520548 1.87093 0
M  V30 6229 C 591.466 1.32478 3.2104 0
M  V30 6230 C 590.42 2.44262 3.51454 0
M  V30 6231 C 589.746 2.16742 4.88801 0
M  V30 6232 C 591.046 3.86606 3.51189 0
M  V30 6233 H 592.74 2.39353 1.79863 0
M  V30 6234 H 590.286 1.15206 0.863919 0
M  V30 6235 H 592.239 1.33904 3.99559 0
M  V30 6236 H 590.963 0.346735 3.24754 0
M  V30 6237 H 589.622 2.42107 2.75282 0
M  V30 6238 H 589.27 1.17299 4.89132 0
M  V30 6239 H 588.97 2.91643 5.10116 0
M  V30 6240 H 590.494 2.19872 5.69639 0
M  V30 6241 H 591.908 3.90517 4.19725 0
M  V30 6242 H 590.305 4.61128 3.84033 0
M  V30 6243 H 591.375 4.15296 2.50315 0
M  V30 6244 N 592.718 -0.936591 1.26751 0
M  V30 6245 C 593.628 -2.06949 1.10496 0
M  V30 6246 C 594.644 -1.7396 0.037271 0
M  V30 6247 O 595.82 -1.99941 0.241944 0
M  V30 6248 C 592.885 -3.38612 0.744491 0
M  V30 6249 C 591.946 -3.85355 1.89209 0
M  V30 6250 C 591.179 -5.10735 1.54873 0
M  V30 6251 O 591.402 -5.68602 0.452546 0
M  V30 6252 O 590.336 -5.52632 2.38499 0
M  V30 6253 H 594.162 -2.23571 2.05547 0
M  V30 6254 H 591.747 -1.05428 1.05855 0
M  V30 6255 H 593.629 -4.17711 0.556396 0
M  V30 6256 H 592.304 -3.23218 -0.176582 0
M  V30 6257 H 591.211 -3.07182 2.13518 0
M  V30 6258 H 592.544 -4.05277 2.79305 0
M  V30 6259 N 594.196 -1.08629 -1.14182 0
M  V30 6260 C 595.612 -0.814363 -1.3726 0
M  V30 6261 C 595.812 0.575271 -1.93114 0
M  V30 6262 O 594.868 1.33165 -2.1453 0
M  V30 6263 C 596.181 -1.8989 -2.33157 0
M  V30 6264 C 597.729 -1.92518 -2.46791 0
M  V30 6265 C 598.204 -3.00092 -3.45989 0
M  V30 6266 N 599.695 -2.99279 -3.53534 0
M  V30 6267 C 600.43 -3.79158 -4.30147 0
M  V30 6268 N 599.926 -4.68923 -5.09983 0
M  V30 6269 N 601.719 -3.67451 -4.25366 0
M  V30 6270 H 593.87 -1.98232 -0.762758 0
M  V30 6271 H 596.133 -0.860383 -0.398051 0
M  V30 6272 H 595.839 -2.89809 -1.99257 0
M  V30 6273 H 595.713 -1.77013 -3.33086 0
M  V30 6274 H 598.1 -0.932425 -2.79982 0
M  V30 6275 H 598.181 -2.09473 -1.46816 0
M  V30 6276 H 597.825 -3.99575 -3.13532 0
M  V30 6277 H 597.755 -2.80382 -4.45751 0
M  V30 6278 H 600.246 -2.3422 -2.96563 0
M  V30 6279 H 600.559 -5.26475 -5.65724 0
M  V30 6280 H 598.904 -4.72964 -5.09244 0
M  V30 6281 H 602.095 -2.9669 -3.62067 0
M  V30 6282 H 602.268 -4.29944 -4.84822 0
M  V30 6283 N 595.674 1.31259 -0.872281 0
M  V30 6284 C 596.621 2.28459 -0.327857 0
M  V30 6285 C 597.591 1.55831 0.574957 0
M  V30 6286 O 598.776 1.83965 0.506101 0
M  V30 6287 C 595.916 3.41985 0.462644 0
M  V30 6288 C 595.029 4.29458 -0.467949 0
M  V30 6289 C 594.164 5.30131 0.336903 0
M  V30 6290 C 593.203 6.0925 -0.58997 0
M  V30 6291 N 592.34 7.01872 0.178775 0
M  V30 6292 H 597.18 2.74414 -1.16193 0
M  V30 6293 H 594.717 1.34994 -0.584376 0
M  V30 6294 H 596.675 4.06547 0.936759 0
M  V30 6295 H 595.305 2.97134 1.2614 0
M  V30 6296 H 594.357 3.65318 -1.06052 0
M  V30 6297 H 595.669 4.84677 -1.17856 0
M  V30 6298 H 594.823 6.0038 0.873427 0
M  V30 6299 H 593.562 4.75573 1.08079 0
M  V30 6300 H 592.567 5.37889 -1.13823 0
M  V30 6301 H 593.792 6.65894 -1.33275 0
M  V30 6302 H 591.738 6.49721 0.905435 0
M  V30 6303 H 591.655 7.54522 -0.472452 0
M  V30 6304 H 592.923 7.76382 0.696454 0
M  V30 6305 N 597.152 0.631951 1.44375 0
M  V30 6306 C 598.115 -0.0628142 2.29114 0
M  V30 6307 C 599.115 -0.771494 1.41084 0
M  V30 6308 O 600.305 -0.615959 1.62947 0
M  V30 6309 C 597.437 -1.09953 3.22681 0
M  V30 6310 H 598.63 0.682509 2.92031 0
M  V30 6311 H 596.183 0.392128 1.51301 0
M  V30 6312 H 596.918 -1.87481 2.64616 0
M  V30 6313 H 596.703 -0.595286 3.87555 0
M  V30 6314 H 598.193 -1.58538 3.86336 0
M  V30 6315 N 598.631 -1.53133 0.372548 0
M  V30 6316 C 599.908 -1.93704 -0.271693 0
M  V30 6317 C 600.288 -1.30667 -1.65799 0
M  V30 6318 O 599.636 -0.46838 -2.23648 0
M  V30 6319 C 599.846 -3.47576 -0.314903 0
M  V30 6320 C 601.194 -4.20998 -0.551912 0
M  V30 6321 O 602.218 -3.53994 -0.39582 0
M  V30 6322 O 601.077 -5.39748 -0.85639 0
M  V30 6323 H 598.171 -0.810457 -0.164586 0
M  V30 6324 H 600.717 -1.6427 0.425838 0
M  V30 6325 H 599.489 -3.85749 0.656792 0
M  V30 6326 H 599.112 -3.83264 -1.05804 0
M  V30 6327 N 600.109 -0.101901 -1.5727 0
M  V30 6328 C 601.056 0.854577 -2.14396 0
M  V30 6329 C 602.026 1.27521 -1.06432 0
M  V30 6330 O 603.211 1.35575 -1.34253 0
M  V30 6331 C 600.351 2.10576 -2.73408 0
M  V30 6332 C 599.464 1.73504 -3.95626 0
M  V30 6333 C 598.599 2.9346 -4.42781 0
M  V30 6334 C 597.638 2.52547 -5.57572 0
M  V30 6335 N 596.775 3.65359 -5.99547 0
M  V30 6336 H 601.615 0.360578 -2.9581 0
M  V30 6337 H 599.152 0.166303 -1.46157 0
M  V30 6338 H 601.11 2.83859 -3.05745 0
M  V30 6339 H 599.74 2.57463 -1.94711 0
M  V30 6340 H 598.792 0.901622 -3.6956 0
M  V30 6341 H 600.104 1.39426 -4.78917 0
M  V30 6342 H 599.258 3.74988 -4.76937 0
M  V30 6343 H 597.997 3.30753 -3.58404 0
M  V30 6344 H 597.002 1.69446 -5.23037 0
M  V30 6345 H 598.227 2.1639 -6.43702 0
M  V30 6346 H 596.173 4.02358 -5.18116 0
M  V30 6347 H 596.09 3.35148 -6.77652 0
M  V30 6348 H 597.358 4.47378 -6.38336 0
M  V30 6349 N 601.587 1.56661 0.17182 0
M  V30 6350 C 602.517 1.99401 1.21498 0
M  V30 6351 C 603.498 0.869516 1.46197 0
M  V30 6352 O 604.683 1.13556 1.57539 0
M  V30 6353 C 601.813 2.35346 2.55401 0
M  V30 6354 C 600.767 3.5075 2.45272 0
M  V30 6355 C 600.093 3.72437 3.8366 0
M  V30 6356 C 601.393 4.84216 1.95787 0
M  V30 6357 H 603.087 2.86792 0.859699 0
M  V30 6358 H 600.633 1.37977 0.412103 0
M  V30 6359 H 602.586 2.63843 3.2858 0
M  V30 6360 H 601.31 1.44864 2.92715 0
M  V30 6361 H 599.969 3.2238 1.74547 0
M  V30 6362 H 599.617 2.79246 4.18367 0
M  V30 6363 H 599.317 4.50087 3.77751 0
M  V30 6364 H 600.841 4.03334 4.58426 0
M  V30 6365 H 602.255 5.11592 2.5874 0
M  V30 6366 H 600.652 5.65498 2.00827 0
M  V30 6367 H 601.722 4.76243 0.912159 0
M  V30 6368 N 603.065 -0.440357 1.51323 0
M  V30 6369 C 603.997 -1.55254 1.68609 0
M  V30 6370 C 605.01 -1.52614 0.566812 0
M  V30 6371 O 606.199 -1.57445 0.841032 0
M  V30 6372 C 603.299 -2.94169 1.68279 0
M  V30 6373 C 602.472 -3.21346 2.96742 0
M  V30 6374 C 601.531 -4.3997 2.8864 0
M  V30 6375 O 600.557 -4.38771 3.62586 0
M  V30 6376 N 601.759 -5.43367 2.04285 0
M  V30 6377 H 604.524 -1.40831 2.6455 0
M  V30 6378 H 602.085 -0.629251 1.49171 0
M  V30 6379 H 604.077 -3.71543 1.60431 0
M  V30 6380 H 602.647 -3.02205 0.799441 0
M  V30 6381 H 601.867 -2.32299 3.18482 0
M  V30 6382 H 603.155 -3.3633 3.81785 0
M  V30 6383 H 602.553 -5.47176 1.43578 0
M  V30 6384 H 601.11 -6.19605 2.02318 0
M  V30 6385 N 604.543 -1.41418 -0.695603 0
M  V30 6386 C 605.506 -1.42988 -1.79129 0
M  V30 6387 C 606.506 -0.320514 -1.57573 0
M  V30 6388 O 607.696 -0.58039 -1.64247 0
M  V30 6389 C 604.828 -1.24122 -3.175 0
M  V30 6390 H 606.021 -2.40526 -1.7913 0
M  V30 6391 H 603.574 -1.2756 -0.903225 0
M  V30 6392 H 604.309 -0.274253 -3.23138 0
M  V30 6393 H 604.094 -2.045 -3.34547 0
M  V30 6394 H 605.584 -1.28056 -3.97481 0
M  V30 6395 N 606.021 0.929856 -1.27246 0
M  V30 6396 C 606.953 2.03434 -1.0558 0
M  V30 6397 C 607.966 1.62795 -0.0125762 0
M  V30 6398 O 609.155 1.76685 -0.2539 0
M  V30 6399 C 606.255 3.33915 -0.57912 0
M  V30 6400 C 605.428 4.03259 -1.69415 0
M  V30 6401 C 604.487 5.12014 -1.21357 0
M  V30 6402 O 603.513 5.36097 -1.91282 0
M  V30 6403 N 604.715 5.8046 -0.0680622 0
M  V30 6404 H 607.48 2.22583 -2.00691 0
M  V30 6405 H 605.041 1.1001 -1.18783 0
M  V30 6406 H 607.033 4.03978 -0.241563 0
M  V30 6407 H 605.603 3.11355 0.278703 0
M  V30 6408 H 604.823 3.26958 -2.20209 0
M  V30 6409 H 606.111 4.46337 -2.44255 0
M  V30 6410 H 605.509 5.63345 0.515626 0
M  V30 6411 H 604.066 6.51461 0.210332 0
M  V30 6412 N 607.499 1.09233 1.13605 0
M  V30 6413 C 608.446 0.729921 2.18954 0
M  V30 6414 C 609.416 -0.287916 1.63586 0
M  V30 6415 O 610.601 -0.170003 1.90041 0
M  V30 6416 C 607.741 0.154489 3.44754 0
M  V30 6417 C 606.854 1.22613 4.14234 0
M  V30 6418 C 605.989 0.613657 5.27644 0
M  V30 6419 C 605.028 1.66674 5.8897 0
M  V30 6420 N 604.165 1.07545 6.93814 0
M  V30 6421 H 609.005 1.63257 2.49302 0
M  V30 6422 H 606.542 0.815693 1.22413 0
M  V30 6423 H 608.5 -0.196923 4.16735 0
M  V30 6424 H 607.13 -0.711433 3.14863 0
M  V30 6425 H 606.182 1.69485 3.40557 0
M  V30 6426 H 607.494 2.0238 4.55899 0
M  V30 6427 H 606.648 0.210976 6.06333 0
M  V30 6428 H 605.387 -0.215584 4.87223 0
M  V30 6429 H 604.392 2.07899 5.08978 0
M  V30 6430 H 605.617 2.49861 6.31464 0
M  V30 6431 H 603.563 0.267451 6.55455 0
M  V30 6432 H 603.48 1.81011 7.3401 0
M  V30 6433 H 604.748 0.698906 7.7636 0
M  V30 6434 N 608.977 -1.30795 0.87923 0
M  V30 6435 C 610.202 -2.01063 0.508769 0
M  V30 6436 C 610.627 -1.65508 -0.893803 0
M  V30 6437 O 609.985 -0.868616 -1.59138 0
M  V30 6438 C 610.033 -3.54054 0.683991 0
M  V30 6439 O 609.137 -4.11498 -0.272654 0
M  V30 6440 H 608.478 -0.632786 0.201191 0
M  V30 6441 H 611.008 -1.66776 1.18519 0
M  V30 6442 H 611.018 -4.03845 0.580798 0
M  V30 6443 H 609.693 -3.79271 1.70665 0
M  V30 6444 H 608.27 -3.72695 -0.12364 0
M  V30 6445 N 610.455 -0.639598 -1.44038 0
M  V30 6446 C 611.701 -0.147698 -2.02261 0
M  V30 6447 C 612.034 1.23031 -1.50256 0
M  V30 6448 O 611.309 1.81847 -0.690068 0
M  V30 6449 C 611.592 -0.14362 -3.59813 0
M  V30 6450 C 611.445 -1.55458 -4.22082 0
M  V30 6451 C 612.764 0.527317 -4.36929 0
M  V30 6452 H 609.883 -0.0551453 -0.734934 0
M  V30 6453 H 612.525 -0.817688 -1.71505 0
M  V30 6454 H 610.675 0.426898 -3.86147 0
M  V30 6455 H 612.347 -2.17464 -4.06826 0
M  V30 6456 H 610.59 -2.10594 -3.79253 0
M  V30 6457 H 611.261 -1.50369 -5.31124 0
M  V30 6458 H 613.737 0.0420504 -4.16079 0
M  V30 6459 H 612.613 0.499389 -5.46624 0
M  V30 6460 H 612.874 1.59914 -4.12165 0
M  V30 6461 N 611.933 1.52934 -0.380664 0
M  V30 6462 C 613.21 1.93845 0.261417 0
M  V30 6463 C 613.59 1.31544 1.65104 0
M  V30 6464 O 612.938 0.480234 2.23397 0
M  V30 6465 C 613.148 3.47739 0.296466 0
M  V30 6466 C 614.496 4.21284 0.529578 0
M  V30 6467 O 615.52 3.54199 0.377041 0
M  V30 6468 O 614.379 5.40195 0.827753 0
M  V30 6469 H 611.473 0.811318 0.160285 0
M  V30 6470 H 614.019 1.64042 -0.434544 0
M  V30 6471 H 612.791 3.85395 -0.67724 0
M  V30 6472 H 612.414 3.8382 1.0377 0
M  V30 6473 N 613.412 0.11024 1.57214 0
M  V30 6474 C 614.689 -0.592956 1.86396 0
M  V30 6475 C 615.069 -1.85379 1.00985 0
M  V30 6476 O 614.417 -2.28337 0.0863592 0
M  V30 6477 C 614.627 -0.893816 3.3736 0
M  V30 6478 C 615.975 -1.25069 4.05762 0
M  V30 6479 O 616.999 -0.984356 3.42329 0
M  V30 6480 O 615.858 -1.75017 5.17718 0
M  V30 6481 H 612.952 -0.29828 0.771335 0
M  V30 6482 H 615.498 0.144083 1.69087 0
M  V30 6483 H 614.27 2.6031e-05 3.913 0
M  V30 6484 H 613.893 -1.68631 3.60068 0
M  V30 6485 N 614.89 -1.56749 -0.16351 0
M  V30 6486 C 616.138 -1.82074 -0.87713 0
M  V30 6487 C 616.459 -0.688503 -1.82441 0
M  V30 6488 O 615.729 0.291085 -1.93725 0
M  V30 6489 H 614.309 -0.671677 -0.326893 0
M  V30 6490 H 616.971 -1.9423 -0.161459 0
M  V30 6491 H 616.067 -2.76407 -1.44934 0
M  V30 6492 N 616.368 0.432326 -1.51554 0
M  V30 6493 C 617.616 1.17901 -1.64146 0
M  V30 6494 C 617.937 1.91604 -0.362367 0
M  V30 6495 O 617.207 1.85764 0.621968 0
M  V30 6496 H 615.787 0.438206 -0.604966 0
M  V30 6497 H 618.449 0.495172 -1.88505 0
M  V30 6498 H 617.545 1.90584 -2.47152 0
M  V30 6499 N 617.846 1.41785 0.688094 0
M  V30 6500 C 619.071 1.45117 1.48175 0
M  V30 6501 C 619.496 0.060129 1.88004 0
M  V30 6502 O 618.854 -0.938385 1.55126 0
M  V30 6503 C 618.902 2.37224 2.71583 0
M  V30 6504 O 618.006 1.83443 3.69354 0
M  V30 6505 H 617.347 0.492208 0.445676 0
M  V30 6506 H 619.877 1.86329 0.845145 0
M  V30 6507 H 619.887 2.53353 3.19806 0
M  V30 6508 H 618.562 3.38293 2.41931 0
M  V30 6509 H 617.139 1.76802 3.28322 0
M  V30 6510 N 619.324 -0.923095 1.27737 0
M  V30 6511 C 620.571 -1.67127 1.14345 0
M  V30 6512 C 620.899 -1.92017 -0.30982 0
M  V30 6513 O 620.154 -1.51185 -1.24264 0
M  V30 6514 C 620.453 -3.04125 1.8773 0
M  V30 6515 C 620.119 -2.98929 3.37568 0
M  V30 6516 C 618.781 -2.9722 3.78436 0
M  V30 6517 C 621.133 -2.89875 4.33154 0
M  V30 6518 C 618.461 -2.84244 5.13247 0
M  V30 6519 C 620.813 -2.7844 5.68026 0
M  V30 6520 C 619.477 -2.75083 6.08182 0
M  V30 6521 H 618.747 -0.611562 0.418417 0
M  V30 6522 H 621.394 -1.07618 1.584 0
M  V30 6523 H 619.699 -3.67366 1.36196 0
M  V30 6524 H 621.396 -3.609 1.74792 0
M  V30 6525 H 617.986 -3.0105 3.05069 0
M  V30 6526 H 622.17 -2.9029 4.02548 0
M  V30 6527 H 617.426 -2.80034 5.43499 0
M  V30 6528 H 621.6 -2.70401 6.4176 0
M  V30 6529 H 619.227 -2.64786 7.12596 0
M  V30 6530 N 620.802 -1.09834 -1.13024 0
M  V30 6531 C 622.213 -0.855651 -1.65938 0
M  V30 6532 C 622.564 0.615159 -1.86307 0
M  V30 6533 O 621.689 1.47335 -1.58497 0
M  V30 6534 C 622.284 -1.5467 -3.01434 0
M  V30 6535 C 620.843 -1.35088 -3.51323 0
M  V30 6536 C 619.99 -1.6001 -2.26478 0
M  V30 6537 H 622.941 -1.25691 -0.968889 0
M  V30 6538 H 622.962 -0.982179 -3.67605 0
M  V30 6539 H 622.474 -2.61715 -2.86578 0
M  V30 6540 H 620.575 -0.30179 -3.71376 0
M  V30 6541 H 620.688 -2.0886 -4.31178 0
M  V30 6542 H 619.052 -1.02246 -2.33276 0
M  V30 6543 H 619.835 -2.68293 -2.14182 0
M  V30 6544 N 622.28 1.30327 -0.886154 0
M  V30 6545 C 623.227 2.28099 -0.352069 0
M  V30 6546 C 624.197 1.56433 0.558397 0
M  V30 6547 O 625.382 1.84492 0.486561 0
M  V30 6548 C 622.522 3.42456 0.426346 0
M  V30 6549 C 621.635 4.28938 -0.513472 0
M  V30 6550 C 620.77 5.30458 0.280657 0
M  V30 6551 C 619.809 6.0859 -0.654556 0
M  V30 6552 N 618.946 7.02022 0.104322 0
M  V30 6553 H 623.786 2.73166 -1.19097 0
M  V30 6554 H 621.323 1.34367 -0.598662 0
M  V30 6555 H 623.281 4.07518 0.893587 0
M  V30 6556 H 621.911 2.98455 1.22981 0
M  V30 6557 H 620.963 3.64173 -1.09921 0
M  V30 6558 H 622.275 4.83399 -1.2299 0
M  V30 6559 H 621.429 6.01273 0.8097 0
M  V30 6560 H 620.168 4.76693 1.03029 0
M  V30 6561 H 619.173 5.36651 -1.19522 0
M  V30 6562 H 620.398 6.64443 -1.4033 0
M  V30 6563 H 618.344 6.50645 0.836472 0
M  V30 6564 H 618.261 7.53979 -0.552453 0
M  V30 6565 H 619.529 7.77077 0.614069 0
M  V30 6566 N 623.758 0.647228 1.43697 0
M  V30 6567 C 624.983 0.164083 2.0675 0
M  V30 6568 C 625.408 -1.15892 1.48158 0
M  V30 6569 O 624.766 -1.71459 0.589194 0
M  V30 6570 C 624.814 0.0800368 3.60511 0
M  V30 6571 O 623.918 -0.959453 4.01084 0
M  V30 6572 H 623.259 0.0921288 0.657578 0
M  V30 6573 H 625.789 0.88846 1.84303 0
M  V30 6574 H 625.799 -0.105263 4.07864 0
M  V30 6575 H 624.474 1.04586 4.02535 0
M  V30 6576 H 623.051 -0.747425 3.65333 0
M  V30 6577 N 625.236 -1.5273 0.388769 0
M  V30 6578 C 626.483 -2.01573 -0.19359 0
M  V30 6579 C 626.811 -1.27525 -1.46859 0
M  V30 6580 O 626.066 -0.363926 -1.92286 0
M  V30 6581 C 626.365 -3.53765 -0.508445 0
M  V30 6582 C 626.031 -4.4582 0.674947 0
M  V30 6583 C 624.693 -4.70703 0.999596 0
M  V30 6584 C 627.045 -5.00138 1.46666 0
M  V30 6585 C 624.373 -5.47155 2.11751 0
M  V30 6586 C 626.725 -5.77812 2.57518 0
M  V30 6587 C 625.389 -6.00975 2.90492 0
M  V30 6588 H 624.659 -0.737606 -0.0708397 0
M  V30 6589 H 627.306 -1.84134 0.526006 0
M  V30 6590 H 625.611 -3.69274 -1.30936 0
M  V30 6591 H 627.308 -3.8905 -0.971664 0
M  V30 6592 H 623.898 -4.26616 0.411906 0
M  V30 6593 H 628.082 -4.8084 1.22909 0
M  V30 6594 H 623.338 -5.63314 2.3767 0
M  V30 6595 H 627.512 -6.18904 3.19267 0
M  V30 6596 H 625.139 -6.59998 3.77236 0
M  V30 6597 N 626.714 -0.118576 -1.57153 0
M  V30 6598 C 627.939 0.550582 -1.99958 0
M  V30 6599 C 628.364 1.59458 -0.997736 0
M  V30 6600 O 627.722 1.81274 0.0306269 0
M  V30 6601 C 627.77 1.15379 -3.41643 0
M  V30 6602 O 626.874 2.26932 -3.44348 0
M  V30 6603 H 626.215 0.137567 -0.649593 0
M  V30 6604 H 628.745 -0.206926 -2.03551 0
M  V30 6605 H 628.755 1.48942 -3.79843 0
M  V30 6606 H 627.43 0.389087 -4.14076 0
M  V30 6607 H 626.007 1.94812 -3.17967 0
M  V30 6608 N 628.193 1.56834 0.155195 0
M  V30 6609 C 629.14 1.97646 1.19184 0
M  V30 6610 C 630.11 0.842788 1.4313 0
M  V30 6611 O 631.295 1.1042 1.55602 0
M  V30 6612 C 628.435 2.35527 2.52232 0
M  V30 6613 C 627.548 3.62147 2.35529 0
M  V30 6614 C 626.683 3.89167 3.61555 0
M  V30 6615 C 625.722 5.09084 3.39853 0
M  V30 6616 N 624.859 5.32156 4.5799 0
M  V30 6617 H 629.699 2.8601 0.836802 0
M  V30 6618 H 627.236 1.41507 0.401758 0
M  V30 6619 H 629.194 2.55516 3.29799 0
M  V30 6620 H 627.824 1.50253 2.85699 0
M  V30 6621 H 626.876 3.4998 1.49057 0
M  V30 6622 H 628.188 4.49871 2.15448 0
M  V30 6623 H 627.342 4.09611 4.47553 0
M  V30 6624 H 626.081 2.9985 3.84632 0
M  V30 6625 H 625.086 4.88522 2.52243 0
M  V30 6626 H 626.311 5.99947 3.18183 0
M  V30 6627 H 624.257 4.45791 4.81255 0
M  V30 6628 H 624.174 6.14133 4.40882 0
M  V30 6629 H 625.442 5.57091 5.45225 0
M  V30 6630 N 629.671 -0.424282 1.51781 0
M  V30 6631 C 630.601 -1.52305 1.7699 0
M  V30 6632 C 631.582 -1.5839 0.620209 0
M  V30 6633 O 632.767 -1.73908 0.864268 0
M  V30 6634 C 629.897 -2.90271 1.90683 0
M  V30 6635 C 628.851 -2.99043 3.06198 0
M  V30 6636 C 628.177 -4.39116 3.05092 0
M  V30 6637 C 629.477 -2.7192 4.45934 0
M  V30 6638 H 631.171 -1.31461 2.68995 0
M  V30 6639 H 628.717 -0.630985 1.29439 0
M  V30 6640 H 630.67 -3.6711 2.06901 0
M  V30 6641 H 629.394 -3.12376 0.953365 0
M  V30 6642 H 628.053 -2.24646 2.89706 0
M  V30 6643 H 627.701 -4.58207 2.07498 0
M  V30 6644 H 627.401 -4.45912 3.82669 0
M  V30 6645 H 628.925 -5.17911 3.2342 0
M  V30 6646 H 630.339 -3.38487 4.62709 0
M  V30 6647 H 628.736 -2.90111 5.25315 0
M  V30 6648 H 629.806 -1.67445 4.55072 0
M  V30 6649 N 631.149 -1.42148 -0.680565 0
M  V30 6650 C 632.56 -1.3768 -1.26099 0
M  V30 6651 C 632.911 -0.0672348 -1.96085 0
M  V30 6652 O 632.036 0.834172 -1.99676 0
M  V30 6653 C 632.631 -2.49387 -2.29328 0
M  V30 6654 C 631.19 -2.4827 -2.82911 0
M  V30 6655 C 630.337 -2.2847 -1.57152 0
M  V30 6656 H 633.288 -1.51446 -0.474326 0
M  V30 6657 H 633.309 -2.19307 -3.10941 0
M  V30 6658 H 632.821 -3.44686 -1.78363 0
M  V30 6659 H 630.922 -1.56773 -3.38013 0
M  V30 6660 H 631.035 -3.45109 -3.3232 0
M  V30 6661 H 629.399 -1.76623 -1.83511 0
M  V30 6662 H 630.182 -3.25816 -1.0816 0
M  V30 6663 N 632.627 0.916307 -1.28225 0
M  V30 6664 C 633.876 1.65975 -1.14608 0
M  V30 6665 C 634.189 1.93204 0.305191 0
M  V30 6666 O 635.395 2.65611 0.562432 0
M  V30 6667 C 633.851 2.98989 -2.00333 0
M  V30 6668 C 633.459 2.79417 -3.50186 0
M  V30 6669 C 635.203 3.76856 -1.95397 0
M  V30 6670 C 633.11 4.08056 -4.28071 0
M  V30 6671 H 632.04 0.622587 -0.425324 0
M  V30 6672 H 634.691 1.01705 -1.52736 0
M  V30 6673 H 633.073 3.6438 -1.5506 0
M  V30 6674 H 634.247 2.22723 -4.034 0
M  V30 6675 H 632.562 2.14966 -3.56621 0
M  V30 6676 H 635.159 4.72203 -2.50856 0
M  V30 6677 H 635.502 4.05776 -0.930137 0
M  V30 6678 H 636.035 3.1828 -2.38626 0
M  V30 6679 H 632.774 3.8431 -5.31024 0
M  V30 6680 H 632.294 4.64371 -3.79631 0
M  V30 6681 H 633.973 4.76333 -4.37854 0
M  V30 6682 N 634.105 1.10431 1.1244 0
M  V30 6683 C 635.037 0.710945 2.17895 0
M  V30 6684 C 636.05 -0.252315 1.60833 0
M  V30 6685 O 637.239 -0.03679 1.78462 0
M  V30 6686 C 634.339 0.0284262 3.38888 0
M  V30 6687 C 633.512 1.01585 4.2544 0
M  V30 6688 C 632.571 0.364826 5.24934 0
M  V30 6689 O 631.597 1.01561 5.60066 0
M  V30 6690 N 632.799 -0.87674 5.73841 0
M  V30 6691 H 635.564 1.61826 2.52255 0
M  V30 6692 H 633.125 0.993132 1.27861 0
M  V30 6693 H 635.117 -0.418568 4.0253 0
M  V30 6694 H 633.687 -0.781294 3.02679 0
M  V30 6695 H 632.907 1.64111 3.58415 0
M  V30 6696 H 634.195 1.68425 4.80115 0
M  V30 6697 H 633.593 -1.42483 5.47462 0
M  V30 6698 H 632.15 -1.26688 6.39369 0
M  V30 6699 N 635.583 -1.29855 0.893053 0
M  V30 6700 C 636.513 -2.3035 0.382249 0
M  V30 6701 C 637.494 -1.61328 -0.539203 0
M  V30 6702 O 638.679 -1.88882 -0.451342 0
M  V30 6703 C 635.809 -3.45024 -0.396983 0
M  V30 6704 C 634.763 -4.258 0.433437 0
M  V30 6705 C 634.089 -5.32605 -0.472889 0
M  V30 6706 C 635.389 -4.94549 1.67984 0
M  V30 6707 H 637.083 -2.73325 1.22205 0
M  V30 6708 H 634.629 -1.314 0.589073 0
M  V30 6709 H 636.582 -4.14398 -0.765024 0
M  V30 6710 H 635.306 -3.00875 -1.2705 0
M  V30 6711 H 633.965 -3.58125 0.783723 0
M  V30 6712 H 633.613 -4.84702 -1.34435 0
M  V30 6713 H 633.313 -5.87547 0.0789958 0
M  V30 6714 H 634.837 -6.04832 -0.837269 0
M  V30 6715 H 636.251 -5.56395 1.38192 0
M  V30 6716 H 634.648 -5.59393 2.17254 0
M  V30 6717 H 635.718 -4.20215 2.41965 0
M  V30 6718 N 637.061 -0.65484 -1.43351 0
M  V30 6719 C 637.971 0.0363603 -2.34572 0
M  V30 6720 C 638.987 0.810432 -1.53974 0
M  V30 6721 O 640.163 0.757308 -1.86619 0
M  V30 6722 C 637.228 0.989733 -3.32273 0
M  V30 6723 C 636.289 0.212414 -4.28774 0
M  V30 6724 C 635.522 1.12038 -5.21808 0
M  V30 6725 O 635.745 2.35967 -5.19303 0
M  V30 6726 O 634.679 0.59191 -5.98982 0
M  V30 6727 H 638.505 -0.714527 -2.95175 0
M  V30 6728 H 636.09 -0.415029 -1.4352 0
M  V30 6729 H 637.972 1.53759 -3.92347 0
M  V30 6730 H 636.647 1.72082 -2.74171 0
M  V30 6731 H 635.554 -0.379062 -3.72175 0
M  V30 6732 H 636.887 -0.479138 -4.89862 0
M  V30 6733 N 638.539 1.52521 -0.396863 0
M  V30 6734 C 639.764 2.06571 0.185258 0
M  V30 6735 C 640.189 1.26605 1.39115 0
M  V30 6736 O 639.547 0.293055 1.78916 0
M  V30 6737 C 639.595 3.5674 0.526189 0
M  V30 6738 O 638.699 3.7929 1.61903 0
M  V30 6739 H 638.04 0.663712 0.0195474 0
M  V30 6740 H 640.57 1.966 -0.566519 0
M  V30 6741 H 640.58 4.00311 0.788338 0
M  V30 6742 H 639.255 4.14379 -0.355397 0
M  V30 6743 H 637.832 3.47605 1.35 0
M  V30 6744 N 640.017 0.126909 1.57088 0
M  V30 6745 C 640.98 -0.806097 2.14557 0
M  V30 6746 C 641.98 -1.18918 1.08236 0
M  V30 6747 O 643.17 -1.11339 1.33975 0
M  V30 6748 C 640.302 -2.09116 2.69227 0
M  V30 6749 H 641.495 -0.306522 2.98329 0
M  V30 6750 H 639.048 -0.122393 1.5582 0
M  V30 6751 H 639.783 -2.63486 1.89065 0
M  V30 6752 H 639.568 -1.82588 3.46993 0
M  V30 6753 H 641.058 -2.75794 3.13572 0
M  V30 6754 N 641.495 -1.56914 -0.146875 0
M  V30 6755 C 642.741 -1.83628 -0.860741 0
M  V30 6756 C 643.074 -0.708528 -1.80813 0
M  V30 6757 O 642.349 0.287838 -1.92358 0
M  V30 6758 C 642.632 -3.20836 -1.63511 0
M  V30 6759 C 642.485 -4.44174 -0.709199 0
M  V30 6760 C 643.804 -3.55268 -2.59756 0
M  V30 6761 H 640.923 -0.667949 -0.311468 0
M  V30 6762 H 643.565 -1.89582 -0.125936 0
M  V30 6763 H 641.715 -3.15891 -2.26153 0
M  V30 6764 H 643.387 -4.61205 -0.0937781 0
M  V30 6765 H 641.63 -4.33796 -0.0187856 0
M  V30 6766 H 642.301 -5.36785 -1.28707 0
M  V30 6767 H 644.777 -3.60824 -2.07232 0
M  V30 6768 H 643.653 -4.52303 -3.10987 0
M  V30 6769 H 643.914 -2.81231 -3.41118 0
M  V30 6770 N 642.974 0.416227 -1.52004 0
M  V30 6771 C 644.251 1.17637 -1.56272 0
M  V30 6772 C 644.631 2.08352 -0.339493 0
M  V30 6773 O 643.979 2.1833 0.674124 0
M  V30 6774 C 644.189 1.95986 -2.88774 0
M  V30 6775 C 645.537 2.52299 -3.41512 0
M  V30 6776 O 646.561 2.06174 -2.90467 0
M  V30 6777 O 645.42 3.3648 -4.30631 0
M  V30 6778 H 642.514 0.536726 -0.629169 0
M  V30 6779 H 645.06 0.423583 -1.64329 0
M  V30 6780 H 643.832 1.29487 -3.69254 0
M  V30 6781 H 643.455 2.78285 -2.83978 0
M  V30 6782 N 644.452 1.42507 0.673017 0
M  V30 6783 C 645.68 1.46473 1.46128 0
M  V30 6784 C 646.095 0.0765912 1.88645 0
M  V30 6785 O 645.452 -0.909057 1.58248 0
M  V30 6786 C 645.503 2.39339 2.70923 0
M  V30 6787 O 645.224 3.72752 2.3019 0
M  V30 6788 C 646.725 2.52343 3.64469 0
M  V30 6789 H 643.945 0.49812 0.449575 0
M  V30 6790 H 646.489 1.87041 0.826802 0
M  V30 6791 H 644.644 2.02019 3.30556 0
M  V30 6792 H 645.058 4.22503 3.10791 0
M  V30 6793 H 646.532 3.2144 4.48754 0
M  V30 6794 H 647.009 1.56189 4.1049 0
M  V30 6795 H 647.615 2.90392 3.10729 0
M  V30 6796 N 645.93 -0.909495 1.28709 0
M  V30 6797 C 646.893 -1.99399 1.13016 0
M  V30 6798 C 647.893 -1.60654 0.068536 0
M  V30 6799 O 649.083 -1.71334 0.314671 0
M  V30 6800 C 646.215 -3.33078 0.726085 0
M  V30 6801 H 647.408 -2.14751 2.09338 0
M  V30 6802 H 644.961 -1.09272 1.11756 0
M  V30 6803 H 645.696 -3.23428 -0.23771 0
M  V30 6804 H 645.481 -3.62562 1.49302 0
M  V30 6805 H 646.971 -4.12681 0.639058 0
M  V30 6806 N 647.408 -1.11026 -1.11852 0
M  V30 6807 C 648.355 -0.764662 -2.17765 0
M  V30 6808 C 649.325 0.261854 -1.64023 0
M  V30 6809 O 650.51 0.139748 -1.90288 0
M  V30 6810 C 647.65 -0.209317 -3.44465 0
M  V30 6811 C 646.763 -1.29187 -4.12231 0
M  V30 6812 C 645.898 -0.697523 -5.266 0
M  V30 6813 C 644.937 -1.76023 -5.86244 0
M  V30 6814 N 644.074 -1.18569 -6.92016 0
M  V30 6815 H 648.914 -1.67202 -2.46673 0
M  V30 6816 H 646.451 -0.835065 -1.21099 0
M  V30 6817 H 648.409 0.130599 -4.16996 0
M  V30 6818 H 647.039 0.661251 -3.15955 0
M  V30 6819 H 646.091 -1.74881 -3.37818 0
M  V30 6820 H 647.403 -2.09607 -4.52622 0
M  V30 6821 H 646.557 -0.307412 -6.05921 0
M  V30 6822 H 645.296 0.138044 -4.87505 0
M  V30 6823 H 644.301 -2.1597 -5.05606 0
M  V30 6824 H 645.526 -2.59875 -6.27409 0
M  V30 6825 H 643.472 -0.371695 -6.54946 0
M  V30 6826 H 643.389 -1.92666 -7.31038 0
M  V30 6827 H 644.657 -0.82233 -7.7515 0
M  V30 6828 N 648.886 1.2938 -0.899927 0
M  V30 6829 C 650.114 1.99691 -0.541386 0
M  V30 6830 C 650.529 1.67355 0.873936 0
M  V30 6831 O 649.886 0.918728 1.57688 0
M  V30 6832 C 649.937 3.54168 -0.72438 0
M  V30 6833 O 649.658 3.85359 -2.08399 0
M  V30 6834 C 651.159 4.41746 -0.370819 0
M  V30 6835 H 648.379 0.638037 -0.207726 0
M  V30 6836 H 650.923 1.6491 -1.20934 0
M  V30 6837 H 649.078 3.87261 -0.103607 0
M  V30 6838 H 649.492 4.80032 -2.11352 0
M  V30 6839 H 650.966 5.49256 -0.549693 0
M  V30 6840 H 651.443 4.33712 0.692148 0
M  V30 6841 H 652.049 4.14125 -0.968543 0
M  V30 6842 N 650.364 0.662433 1.43002 0
M  V30 6843 C 651.589 0.186003 2.06564 0
M  V30 6844 C 652.014 -1.14314 1.49379 0
M  V30 6845 O 651.372 -1.70824 0.607346 0
M  V30 6846 C 651.42 0.118269 3.60406 0
M  V30 6847 O 650.524 -0.916859 4.02079 0
M  V30 6848 H 649.865 0.0990981 0.656563 0
M  V30 6849 H 652.395 0.907958 1.8335 0
M  V30 6850 H 652.405 -0.0619981 4.07953 0
M  V30 6851 H 651.08 1.08849 4.01403 0
M  V30 6852 H 649.657 -0.708635 3.66105 0
M  V30 6853 N 651.842 -1.52309 0.404946 0
M  V30 6854 C 653.119 -1.94237 -0.230544 0
M  V30 6855 C 653.499 -1.34154 -1.6299 0
M  V30 6856 O 652.847 -0.515713 -2.22604 0
M  V30 6857 C 653.057 -3.48166 -0.241106 0
M  V30 6858 C 654.405 -4.22074 -0.462488 0
M  V30 6859 O 655.429 -3.54754 -0.320644 0
M  V30 6860 O 654.288 -5.41443 -0.741708 0
M  V30 6861 H 651.382 -0.813766 -0.147358 0
M  V30 6862 H 653.928 -1.6333 0.460587 0
M  V30 6863 H 652.7 -3.84269 0.738467 0
M  V30 6864 H 652.323 -3.85422 -0.97651 0
M  V30 6865 N 653.32 -0.135238 -1.57019 0
M  V30 6866 C 654.566 0.519563 -1.96032 0
M  V30 6867 C 654.899 1.65284 -1.01955 0
M  V30 6868 O 654.174 1.94408 -0.059727 0
M  V30 6869 C 654.457 1.0369 -3.44848 0
M  V30 6870 C 654.31 -0.0940754 -4.49702 0
M  V30 6871 C 655.629 1.92254 -3.95887 0
M  V30 6872 H 652.748 0.18739 -0.712779 0
M  V30 6873 H 655.39 -0.214086 -1.8879 0
M  V30 6874 H 653.54 1.66209 -3.5115 0
M  V30 6875 H 655.212 -0.73 -4.55487 0
M  V30 6876 H 653.455 -0.754924 -4.27181 0
M  V30 6877 H 654.126 0.309419 -5.51132 0
M  V30 6878 H 656.602 1.39581 -3.9199 0
M  V30 6879 H 655.478 2.25364 -5.00502 0
M  V30 6880 H 655.739 2.85513 -3.37543 0
M  V30 6881 N 654.798 1.5699 0.138552 0
M  V30 6882 C 655.746 1.99858 1.18994 0
M  V30 6883 C 656.74 0.89231 1.43994 0
M  V30 6884 O 657.946 1.0775 1.44187 0
M  V30 6885 H 654.321 0.636325 0.400743 0
M  V30 6886 H 656.292 2.87427 0.801755 0
M  V30 6887 C 655.041 2.40235 2.51361 0
M  V30 6888 H 654.364 3.24917 2.32957 0
M  V30 6889 H 655.804 2.74045 3.23535 0
M  V30 6890 C 654.263 1.25829 3.1252 0
M  V30 6891 O 654.793 0.563604 3.97727 0
M  V30 6892 N 652.999 1.02036 2.72097 0
M  V30 6893 H 652.546 1.58705 2.02905 0
M  V30 6894 H 652.504 0.256796 3.1335 0
M  V30 6895 N 656.276 -0.40816 1.52223 0
M  V30 6896 C 657.501 -1.18127 1.70472 0
M  V30 6897 C 657.926 -1.83491 0.41384 0
M  V30 6898 O 657.284 -1.70047 -0.628778 0
M  V30 6899 C 657.332 -2.21935 2.84213 0
M  V30 6900 O 656.436 -3.28099 2.4985 0
M  V30 6901 H 655.777 -0.344781 0.56747 0
M  V30 6902 H 658.307 -0.478328 1.9893 0
M  V30 6903 H 658.317 -2.66248 3.09153 0
M  V30 6904 H 656.992 -1.73744 3.7787 0
M  V30 6905 H 655.569 -2.89058 2.35584 0
M  V30 6906 N 657.755 -1.42862 -0.66545 0
M  V30 6907 C 658.98 -1.47456 -1.45848 0
M  V30 6908 C 659.405 -0.0900312 -1.87884 0
M  V30 6909 O 658.763 0.913587 -1.56599 0
M  V30 6910 C 658.811 -2.41514 -2.67774 0
M  V30 6911 O 657.915 -1.89296 -3.66389 0
M  V30 6912 H 657.256 -0.499236 -0.437789 0
M  V30 6913 H 659.786 -1.8765 -0.815394 0
M  V30 6914 H 659.796 -2.58409 -3.15735 0
M  V30 6915 H 658.471 -3.42099 -2.36519 0
M  V30 6916 H 657.048 -1.82003 -3.25468 0
M  V30 6917 N 659.233 0.902656 -1.29189 0
M  V30 6918 C 660.479 1.65532 -1.17163 0
M  V30 6919 C 660.812 1.92216 0.276879 0
M  V30 6920 O 660.087 1.53048 1.20027 0
M  V30 6921 C 660.37 3.00629 -1.98228 0
M  V30 6922 C 660.223 2.81029 -3.51202 0
M  V30 6923 C 661.542 4.01321 -1.80635 0
M  V30 6924 H 658.661 0.60071 -0.426985 0
M  V30 6925 H 661.303 1.04578 -1.5863 0
M  V30 6926 H 659.453 3.52656 -1.62991 0
M  V30 6927 H 661.125 2.35927 -3.96404 0
M  V30 6928 H 659.368 2.1587 -3.76275 0
M  V30 6929 H 660.039 3.77014 -4.03192 0
M  V30 6930 H 662.515 3.58394 -2.11406 0
M  V30 6931 H 661.391 4.93792 -2.3971 0
M  V30 6932 H 661.652 4.35505 -0.760754 0
M  V30 6933 N 660.711 1.11618 1.11262 0
M  V30 6934 C 661.959 0.864469 1.82678 0
M  V30 6935 C 662.28 -0.611564 1.85162 0
M  V30 6936 O 661.55 -1.44429 1.32352 0
M  V30 6937 H 660.13 0.316821 0.676486 0
M  V30 6938 H 662.792 1.40894 1.34666 0
M  V30 6939 H 661.888 1.23832 2.86482 0
M  V30 6940 N 662.189 -1.289 0.906776 0
M  V30 6941 C 663.136 -2.2751 0.388313 0
M  V30 6942 C 664.106 -1.57301 -0.533439 0
M  V30 6943 O 665.291 -1.85243 -0.457148 0
M  V30 6944 C 662.431 -3.43091 -0.37181 0
M  V30 6945 C 661.544 -4.28066 0.581647 0
M  V30 6946 C 660.679 -5.30837 -0.19623 0
M  V30 6947 C 659.718 -6.07472 0.751294 0
M  V30 6948 N 658.855 -7.021 0.00737727 0
M  V30 6949 H 663.695 -2.71237 1.23428 0
M  V30 6950 H 661.232 -1.33397 0.619962 0
M  V30 6951 H 663.19 -4.08888 -0.828641 0
M  V30 6952 H 661.82 -3.00374 -1.18218 0
M  V30 6953 H 660.872 -3.62378 1.157 0
M  V30 6954 H 662.184 -4.81382 1.30665 0
M  V30 6955 H 661.338 -6.02485 -0.71394 0
M  V30 6956 H 660.077 -4.78272 -0.954324 0
M  V30 6957 H 659.082 -5.34682 1.28044 0
M  V30 6958 H 660.307 -6.62126 1.50883 0
M  V30 6959 H 658.253 -6.51894 -0.732854 0
M  V30 6960 H 658.17 -7.53004 0.672334 0
M  V30 6961 H 659.438 -7.77956 -0.490365 0
M  V30 6962 N 663.667 -0.670007 -1.42649 0
M  V30 6963 C 664.892 -0.196955 -2.06463 0
M  V30 6964 C 665.317 1.1352 -1.49983 0
M  V30 6965 O 664.675 1.705 -0.616397 0
M  V30 6966 C 664.723 -0.137381 -3.60338 0
M  V30 6967 O 663.827 0.895523 -4.02559 0
M  V30 6968 H 663.168 -0.102579 -0.656029 0
M  V30 6969 H 665.698 -0.917669 -1.82866 0
M  V30 6970 H 665.708 0.0403625 -4.0798 0
M  V30 6971 H 664.383 -1.10977 -4.0082 0
M  V30 6972 H 662.96 0.689209 -3.66476 0
M  V30 6973 N 665.145 1.52092 -0.413018 0
M  V30 6974 C 666.373 2.06274 0.160881 0
M  V30 6975 C 666.788 1.28273 1.38533 0
M  V30 6976 O 666.145 0.33563 1.79387 0
M  V30 6977 C 666.196 3.57921 0.507443 0
M  V30 6978 O 665.917 4.32971 -0.668388 0
M  V30 6979 C 667.418 4.28533 1.13465 0
M  V30 6980 H 664.638 0.67074 0.0186759 0
M  V30 6981 H 667.182 1.95951 -0.585092 0
M  V30 6982 H 665.337 3.68238 1.20331 0
M  V30 6983 H 665.751 5.23135 -0.378169 0
M  V30 6984 H 667.225 5.35804 1.32732 0
M  V30 6985 H 667.702 3.85258 2.10886 0
M  V30 6986 H 668.308 4.22595 0.478876 0
M  V30 6987 N 666.623 0.143563 1.56945 0
M  V30 6988 C 667.586 -0.783295 2.154 0
M  V30 6989 C 668.586 -1.17763 1.09492 0
M  V30 6990 O 669.776 -1.09912 1.35148 0
M  V30 6991 C 666.908 -2.06248 2.7143 0
M  V30 6992 H 668.101 -0.274863 2.98638 0
M  V30 6993 H 665.654 -0.105859 1.55941 0
M  V30 6994 H 666.389 -2.61466 1.91849 0
M  V30 6995 H 666.174 -1.78897 3.4891 0
M  V30 6996 H 667.664 -2.72453 3.16479 0
M  V30 6997 N 668.101 -1.57061 -0.130224 0
M  V30 6998 C 669.329 -1.88432 -0.854456 0
M  V30 6999 C 669.744 -0.733608 -1.73964 0
M  V30 7000 O 669.101 0.296029 -1.80083 0
M  V30 7001 C 669.152 -3.1918 -1.69724 0
M  V30 7002 O 668.873 -4.2982 -0.847705 0
M  V30 7003 C 670.374 -3.6418 -2.5276 0
M  V30 7004 H 667.594 -0.624193 -0.246221 0
M  V30 7005 H 670.138 -2.04159 -0.11798 0
M  V30 7006 H 668.293 -3.05156 -2.3866 0
M  V30 7007 H 668.707 -5.04689 -1.42792 0
M  V30 7008 H 670.181 -4.58457 -3.07443 0
M  V30 7009 H 670.658 -2.90285 -3.29592 0
M  V30 7010 H 671.264 -3.80954 -1.89087 0
M  V30 7011 N 669.579 0.400081 -1.52437 0
M  V30 7012 C 670.509 1.4947 -1.7939 0
M  V30 7013 C 671.49 1.57383 -0.645329 0
M  V30 7014 O 672.675 1.72511 -0.891826 0
M  V30 7015 C 669.805 2.87201 -1.95276 0
M  V30 7016 C 668.759 2.94134 -3.10917 0
M  V30 7017 C 668.085 4.34207 -3.1204 0
M  V30 7018 C 669.385 2.64791 -4.50203 0
M  V30 7019 H 671.079 1.27165 -2.71052 0
M  V30 7020 H 668.625 0.610312 -1.30427 0
M  V30 7021 H 670.578 3.63772 -2.12715 0
M  V30 7022 H 669.302 3.10819 -1.00294 0
M  V30 7023 H 667.961 2.20009 -2.93243 0
M  V30 7024 H 667.609 4.54848 -2.14761 0
M  V30 7025 H 667.309 4.39768 -3.89715 0
M  V30 7026 H 668.833 5.127 -3.31619 0
M  V30 7027 H 670.247 3.31083 -4.68035 0
M  V30 7028 H 668.644 2.81717 -5.29864 0
M  V30 7029 H 669.714 1.60184 -4.57678 0
M  V30 7030 N 671.057 1.43213 0.657864 0
M  V30 7031 C 672.468 1.39669 1.23893 0
M  V30 7032 C 672.819 0.0984217 1.95953 0
M  V30 7033 O 671.944 -0.8023 2.00978 0
M  V30 7034 C 672.539 2.53004 2.25332 0
M  V30 7035 C 671.098 2.5274 2.78926 0
M  V30 7036 C 670.245 2.30941 1.53497 0
M  V30 7037 H 673.196 1.52181 0.450172 0
M  V30 7038 H 673.217 2.24226 3.07413 0
M  V30 7039 H 672.729 3.4748 1.72856 0
M  V30 7040 H 670.83 1.6213 3.35477 0
M  V30 7041 H 670.943 3.50352 3.26787 0
M  V30 7042 H 669.307 1.7952 1.80678 0
M  V30 7043 H 670.09 3.27496 1.02963 0
M  V30 7044 N 672.536 -0.895792 1.29666 0
M  V30 7045 C 673.466 -2.01673 1.17688 0
M  V30 7046 C 674.447 -1.69955 0.0701317 0
M  V30 7047 O 675.632 -1.9258 0.250289 0
M  V30 7048 C 672.762 -3.36568 0.856681 0
M  V30 7049 C 671.716 -3.82509 1.92017 0
M  V30 7050 C 671.042 -5.14574 1.4532 0
M  V30 7051 C 672.342 -4.02409 3.32963 0
M  V30 7052 H 674.036 -2.11953 2.11463 0
M  V30 7053 H 671.582 -1.01839 1.01807 0
M  V30 7054 H 673.535 -4.14498 0.759577 0
M  V30 7055 H 672.259 -3.26391 -0.116763 0
M  V30 7056 H 670.918 -3.068 2.00673 0
M  V30 7057 H 670.566 -5.00815 0.468325 0
M  V30 7058 H 670.266 -5.46283 2.16447 0
M  V30 7059 H 671.79 -5.9504 1.36968 0
M  V30 7060 H 673.204 -4.70808 3.27127 0
M  V30 7061 H 671.601 -4.45478 4.02082 0
M  V30 7062 H 672.671 -3.06616 3.75652 0
M  V30 7063 N 674.014 -1.12206 -1.10668 0
M  V30 7064 C 675.239 -0.898938 -1.86906 0
M  V30 7065 C 675.664 0.546346 -1.79991 0
M  V30 7066 O 675.022 1.38655 -1.1681 0
M  V30 7067 C 675.07 -1.37529 -3.33344 0
M  V30 7068 O 674.174 -0.55218 -4.08687 0
M  V30 7069 H 673.515 -0.323163 -0.580053 0
M  V30 7070 H 676.045 -1.49355 -1.39837 0
M  V30 7071 H 676.055 -1.3733 -3.84193 0
M  V30 7072 H 674.73 -2.42767 -3.37693 0
M  V30 7073 H 673.307 -0.620947 -3.67694 0
M  V30 7074 N 675.492 1.28418 -0.913599 0
M  V30 7075 C 676.739 1.94981 -0.546674 0
M  V30 7076 C 677.067 1.7192 0.909606 0
M  V30 7077 O 676.322 1.03314 1.66207 0
M  V30 7078 C 676.621 3.48283 -0.802099 0
M  V30 7079 C 676.287 3.91444 -2.2379 0
M  V30 7080 C 674.949 4.02939 -2.63046 0
M  V30 7081 C 677.301 4.13542 -3.17227 0
M  V30 7082 C 674.629 4.3391 -3.94891 0
M  V30 7083 C 676.981 4.45992 -4.48636 0
M  V30 7084 C 675.645 4.55698 -4.87746 0
M  V30 7085 H 674.915 0.713487 -0.200042 0
M  V30 7086 H 677.562 1.52756 -1.15489 0
M  V30 7087 H 675.867 3.91643 -0.111076 0
M  V30 7088 H 677.564 3.97903 -0.497375 0
M  V30 7089 H 674.154 3.83024 -1.9233 0
M  V30 7090 H 678.338 4.04114 -2.88107 0
M  V30 7091 H 673.594 4.39631 -4.24894 0
M  V30 7092 H 677.768 4.62038 -5.21051 0
M  V30 7093 H 675.395 4.79451 -5.89942 0
M  V30 7094 N 676.97 0.677563 1.42291 0
M  V30 7095 C 677.917 0.000947061 2.308 0
M  V30 7096 C 678.887 -0.789889 1.46116 0
M  V30 7097 O 680.072 -0.761578 1.74942 0
M  V30 7098 C 677.212 -0.942387 3.31984 0
M  V30 7099 C 676.325 -0.14508 4.31756 0
M  V30 7100 C 675.46 -1.08442 5.20013 0
M  V30 7101 C 674.499 -0.278958 6.11464 0
M  V30 7102 N 673.636 -1.17115 6.92263 0
M  V30 7103 H 678.476 0.761521 2.88106 0
M  V30 7104 H 676.013 0.38727 1.41911 0
M  V30 7105 H 677.971 -1.50317 3.89179 0
M  V30 7106 H 676.601 -1.66956 2.76271 0
M  V30 7107 H 675.653 0.532368 3.76656 0
M  V30 7108 H 676.965 0.48015 4.96484 0
M  V30 7109 H 676.119 -1.71504 5.81955 0
M  V30 7110 H 674.858 -1.74353 4.55469 0
M  V30 7111 H 673.863 0.364856 5.48588 0
M  V30 7112 H 675.088 0.376099 6.78058 0
M  V30 7113 H 673.034 -1.81661 6.30345 0
M  V30 7114 H 672.951 -0.601063 7.53607 0
M  V30 7115 H 674.219 -1.78915 7.58689 0
M  V30 7116 N 678.448 -1.51871 0.421078 0
M  V30 7117 C 679.358 -2.31077 -0.405069 0
M  V30 7118 C 680.374 -1.39301 -1.04265 0
M  V30 7119 O 681.55 -1.72376 -1.04157 0
M  V30 7120 C 678.615 -3.12556 -1.50032 0
M  V30 7121 C 677.676 -4.20088 -0.884559 0
M  V30 7122 C 676.909 -4.97673 -1.92762 0
M  V30 7123 O 677.132 -4.75696 -3.14753 0
M  V30 7124 O 676.066 -5.82203 -1.52719 0
M  V30 7125 H 679.892 -3.02742 0.241086 0
M  V30 7126 H 677.477 -1.48263 0.183991 0
M  V30 7127 H 679.359 -3.6326 -2.13589 0
M  V30 7128 H 678.034 -2.43672 -2.13086 0
M  V30 7129 H 676.941 -3.73502 -0.211379 0
M  V30 7130 H 678.274 -4.91298 -0.297763 0
M  V30 7131 N 679.926 -0.151884 -1.56866 0
M  V30 7132 C 680.889 0.771861 -2.15812 0
M  V30 7133 C 681.889 1.17181 -1.10115 0
M  V30 7134 O 683.079 1.09194 -1.35729 0
M  V30 7135 C 680.211 2.04806 -2.7252 0
M  V30 7136 H 681.404 0.259021 -2.98779 0
M  V30 7137 H 678.957 0.097588 -1.55995 0
M  V30 7138 H 679.692 2.60445 -1.93233 0
M  V30 7139 H 679.477 1.77044 -3.49854 0
M  V30 7140 H 680.967 2.70771 -3.1792 0
M  V30 7141 N 681.404 1.57128 0.121893 0
M  V30 7142 C 682.632 1.88883 0.844451 0
M  V30 7143 C 683.047 0.742824 1.73573 0
M  V30 7144 O 682.404 -0.286475 1.80238 0
M  V30 7145 C 682.455 3.20076 1.68029 0
M  V30 7146 O 682.176 4.30264 0.824898 0
M  V30 7147 C 683.677 3.65515 2.50826 0
M  V30 7148 H 680.897 0.62549 0.242907 0
M  V30 7149 H 683.441 2.04219 0.107151 0
M  V30 7150 H 681.596 3.06418 2.37038 0
M  V30 7151 H 682.01 5.05439 1.40113 0
M  V30 7152 H 683.484 4.60081 3.05008 0
M  V30 7153 H 683.961 2.92029 3.28048 0
M  V30 7154 H 684.567 3.81952 1.87064 0
M  V30 7155 N 682.882 -0.391992 1.52647 0
M  V30 7156 C 683.812 -1.48517 1.8018 0
M  V30 7157 C 684.793 -1.57039 0.653667 0
M  V30 7158 O 685.978 -1.72036 0.900962 0
M  V30 7159 C 683.108 -2.86161 1.96797 0
M  V30 7160 C 682.062 -2.92481 3.12472 0
M  V30 7161 C 681.388 -4.32546 3.14338 0
M  V30 7162 C 682.688 -2.624 4.51601 0
M  V30 7163 H 684.382 -1.25726 2.71723 0
M  V30 7164 H 681.928 -0.603387 1.30749 0
M  V30 7165 H 683.881 -3.62639 2.14641 0
M  V30 7166 H 682.605 -3.10283 1.01941 0
M  V30 7167 H 681.264 -2.18451 2.94406 0
M  V30 7168 H 680.912 -4.53703 2.1717 0
M  V30 7169 H 680.612 -4.37695 3.92042 0
M  V30 7170 H 682.136 -5.10934 3.34333 0
M  V30 7171 H 683.55 -3.28596 4.69785 0
M  V30 7172 H 681.947 -2.78903 5.3135 0
M  V30 7173 H 683.017 -1.57754 4.58521 0
M  V30 7174 N 684.36 -1.4356 -0.65026 0
M  V30 7175 C 685.323 -1.48615 -1.74489 0
M  V30 7176 C 686.323 -0.370483 -1.56474 0
M  V30 7177 O 687.513 -0.632351 -1.62317 0
M  V30 7178 C 684.645 -1.34161 -3.13391 0
M  V30 7179 H 685.838 -2.46103 -1.71387 0
M  V30 7180 H 683.391 -1.30369 -0.862186 0
M  V30 7181 H 684.126 -0.376918 -3.22102 0
M  V30 7182 H 683.911 -2.1504 -3.27872 0
M  V30 7183 H 685.401 -1.40637 -3.93206 0
M  V30 7184 N 685.838 0.888903 -1.30139 0
M  V30 7185 C 686.785 1.99422 -1.16188 0
M  V30 7186 C 687.755 1.66017 -0.0523869 0
M  V30 7187 O 688.94 1.89506 -0.221864 0
M  V30 7188 C 686.08 3.34325 -0.855612 0
M  V30 7189 C 685.193 3.80445 -2.0466 0
M  V30 7190 C 684.328 5.03975 -1.67876 0
M  V30 7191 C 683.367 5.42492 -2.83493 0
M  V30 7192 N 682.504 6.57206 -2.47032 0
M  V30 7193 H 687.344 2.10687 -2.10749 0
M  V30 7194 H 684.881 1.03165 -1.04859 0
M  V30 7195 H 686.839 4.11968 -0.658681 0
M  V30 7196 H 685.469 3.22756 0.0531155 0
M  V30 7197 H 684.521 2.98745 -2.3549 0
M  V30 7198 H 685.833 4.04933 -2.91257 0
M  V30 7199 H 684.987 5.89232 -1.44535 0
M  V30 7200 H 683.726 4.8135 -0.784431 0
M  V30 7201 H 682.731 4.55764 -3.07505 0
M  V30 7202 H 683.956 5.67093 -3.73607 0
M  V30 7203 H 681.902 6.36164 -1.601 0
M  V30 7204 H 681.819 6.81543 -3.27161 0
M  V30 7205 H 683.087 7.45704 -2.27038 0
M  V30 7206 N 687.317 1.12792 1.10072 0
M  V30 7207 C 688.733 0.864745 1.34143 0
M  V30 7208 C 688.933 -0.503201 1.95116 0
M  V30 7209 O 687.989 -1.25111 2.19325 0
M  V30 7210 C 689.302 1.98413 2.25949 0
M  V30 7211 C 690.85 2.01545 2.39476 0
M  V30 7212 C 691.325 3.12727 3.34613 0
M  V30 7213 N 692.816 3.12194 3.42183 0
M  V30 7214 C 693.551 3.94862 4.15779 0
M  V30 7215 N 693.047 4.87528 4.92228 0
M  V30 7216 N 694.84 3.82985 4.11435 0
M  V30 7217 H 686.991 2.00926 0.68866 0
M  V30 7218 H 689.254 0.874564 0.365844 0
M  V30 7219 H 688.96 2.97005 1.88364 0
M  V30 7220 H 688.834 1.89254 3.26287 0
M  V30 7221 H 691.221 1.0357 2.76328 0
M  V30 7222 H 691.302 2.14777 1.3894 0
M  V30 7223 H 690.946 4.10936 2.98486 0
M  V30 7224 H 690.876 2.96732 4.35037 0
M  V30 7225 H 693.367 2.45065 2.87666 0
M  V30 7226 H 693.68 5.47109 5.45794 0
M  V30 7227 H 692.025 4.91539 4.9134 0
M  V30 7228 H 695.216 3.09923 3.50807 0
M  V30 7229 H 695.389 4.47641 4.68531 0
M  V30 7230 N 688.795 -1.27931 0.920396 0
M  V30 7231 C 690.042 -1.94689 0.557007 0
M  V30 7232 C 690.37 -1.724 -0.900476 0
M  V30 7233 O 689.625 -1.04194 -1.65657 0
M  V30 7234 C 689.924 -3.47853 0.820558 0
M  V30 7235 C 689.59 -3.90252 2.25863 0
M  V30 7236 C 688.252 -4.01539 2.65179 0
M  V30 7237 C 690.604 -4.11853 3.19415 0
M  V30 7238 C 687.932 -4.3181 3.97187 0
M  V30 7239 C 690.284 -4.43606 4.50995 0
M  V30 7240 C 688.948 -4.53105 4.90155 0
M  V30 7241 H 688.218 -0.712416 0.203823 0
M  V30 7242 H 690.865 -1.52142 1.16298 0
M  V30 7243 H 689.17 -3.91578 0.131844 0
M  V30 7244 H 690.867 -3.97634 0.51847 0
M  V30 7245 H 687.457 -3.81999 1.94358 0
M  V30 7246 H 691.641 -4.0258 2.90246 0
M  V30 7247 H 686.897 -4.37371 4.2722 0
M  V30 7248 H 691.071 -4.59268 5.23494 0
M  V30 7249 H 688.698 -4.76315 5.92476 0
M  V30 7250 N 690.273 -0.685099 -1.4193 0
M  V30 7251 C 691.236 -0.0222632 -2.29189 0
M  V30 7252 C 692.236 0.7186 -1.4385 0
M  V30 7253 O 693.426 0.555058 -1.6512 0
M  V30 7254 C 690.558 0.979013 -3.2654 0
M  V30 7255 H 691.751 -0.790424 -2.89296 0
M  V30 7256 H 689.304 -0.448012 -1.49742 0
M  V30 7257 H 690.039 1.77531 -2.71392 0
M  V30 7258 H 689.824 0.451037 -3.89497 0
M  V30 7259 H 691.314 1.44091 -3.91954 0
M  V30 7260 N 691.751 1.51645 -0.429126 0
M  V30 7261 C 692.681 2.30434 0.377148 0
M  V30 7262 C 693.662 1.35493 1.02838 0
M  V30 7263 O 694.847 1.6441 1.03359 0
M  V30 7264 C 691.977 3.14038 1.48315 0
M  V30 7265 C 690.931 4.1719 0.955855 0
M  V30 7266 C 690.257 4.89263 2.15698 0
M  V30 7267 C 691.557 5.223 -0.00402136 0
M  V30 7268 H 693.251 2.98085 -0.280336 0
M  V30 7269 H 690.797 1.43354 -0.136265 0
M  V30 7270 H 692.75 3.67933 2.05435 0
M  V30 7271 H 691.474 2.44193 2.16881 0
M  V30 7272 H 690.133 3.64335 0.406929 0
M  V30 7273 H 689.781 4.15929 2.82864 0
M  V30 7274 H 689.481 5.59009 1.81059 0
M  V30 7275 H 691.005 5.45978 2.73387 0
M  V30 7276 H 692.419 5.71315 0.476607 0
M  V30 7277 H 690.816 5.99525 -0.26258 0
M  V30 7278 H 691.886 4.75638 -0.943236 0
M  V30 7279 N 693.229 0.160201 1.56784 0
M  V30 7280 C 694.176 -0.774416 2.1742 0
M  V30 7281 C 695.146 -1.23483 1.11091 0
M  V30 7282 O 696.331 -1.30499 1.39193 0
M  V30 7283 C 693.471 -2.00283 2.81035 0
M  V30 7284 C 692.584 -1.58701 4.01793 0
M  V30 7285 C 691.719 -2.76824 4.53367 0
M  V30 7286 C 690.758 -2.31679 5.66561 0
M  V30 7287 N 689.895 -3.42856 6.12694 0
M  V30 7288 H 694.735 -0.250542 2.96945 0
M  V30 7289 H 692.272 -0.111943 1.46673 0
M  V30 7290 H 694.23 -2.72316 3.16069 0
M  V30 7291 H 692.86 -2.5006 2.04132 0
M  V30 7292 H 691.912 -0.76384 3.72652 0
M  V30 7293 H 693.224 -1.21555 4.83762 0
M  V30 7294 H 692.378 -3.57029 4.90525 0
M  V30 7295 H 691.117 -3.17223 3.70433 0
M  V30 7296 H 690.122 -1.49917 5.28966 0
M  V30 7297 H 691.347 -1.9235 6.5129 0
M  V30 7298 H 689.293 -3.82852 5.32692 0
M  V30 7299 H 689.21 -3.09767 6.89624 0
M  V30 7300 H 690.478 -4.23379 6.545 0
M  V30 7301 N 694.707 -1.5719 -0.113559 0
M  V30 7302 C 695.935 -1.89328 -0.834422 0
M  V30 7303 C 696.35 -0.752018 -1.73177 0
M  V30 7304 O 695.707 0.276912 -1.80387 0
M  V30 7305 C 695.758 -3.20962 -1.66329 0
M  V30 7306 O 695.479 -4.30695 -0.802069 0
M  V30 7307 C 696.98 -3.6684 -2.48884 0
M  V30 7308 H 694.2 -0.626769 -0.239587 0
M  V30 7309 H 696.744 -2.04273 -0.0963195 0
M  V30 7310 H 694.899 -3.0767 -2.35409 0
M  V30 7311 H 695.313 -5.06175 -1.37431 0
M  V30 7312 H 696.787 -4.61692 -3.02563 0
M  V30 7313 H 697.264 -2.93765 -3.26495 0
M  V30 7314 H 697.87 -3.82938 -1.85036 0
M  V30 7315 N 696.185 0.383891 -1.52853 0
M  V30 7316 C 697.601 0.724316 -1.42218 0
M  V30 7317 C 697.801 1.93943 -0.546654 0
M  V30 7318 O 696.857 2.5249 -0.0220562 0
M  V30 7319 C 698.17 0.954635 -2.85144 0
M  V30 7320 C 699.718 1.05579 -2.94656 0
M  V30 7321 C 700.193 1.3187 -4.38605 0
M  V30 7322 N 701.684 1.38681 -4.41952 0
M  V30 7323 C 702.419 1.60699 -5.50421 0
M  V30 7324 N 701.915 1.80154 -6.68967 0
M  V30 7325 N 703.708 1.6292 -5.37972 0
M  V30 7326 H 695.859 -0.4156 -2.08294 0
M  V30 7327 H 698.122 -0.123776 -0.939885 0
M  V30 7328 H 697.828 0.133829 -3.51445 0
M  V30 7329 H 697.702 1.86788 -3.27704 0
M  V30 7330 H 700.089 1.86716 -2.2852 0
M  V30 7331 H 700.17 0.120338 -2.55517 0
M  V30 7332 H 699.814 0.512416 -5.05309 0
M  V30 7333 H 699.744 2.26708 -4.75301 0
M  V30 7334 H 702.235 1.25334 -3.56511 0
M  V30 7335 H 702.548 1.96476 -7.47407 0
M  V30 7336 H 700.893 1.77368 -6.71986 0
M  V30 7337 H 704.084 1.47276 -4.44328 0
M  V30 7338 H 704.257 1.79739 -6.22574 0
M  V30 7339 N 697.663 1.43903 0.642637 0
M  V30 7340 C 698.888 1.49758 1.43483 0
M  V30 7341 C 699.313 0.119911 1.87717 0
M  V30 7342 O 698.671 -0.888558 1.58033 0
M  V30 7343 C 698.719 2.45744 2.63898 0
M  V30 7344 O 697.823 1.95101 3.63331 0
M  V30 7345 H 697.164 0.506138 0.429791 0
M  V30 7346 H 699.694 1.88923 0.785438 0
M  V30 7347 H 699.704 2.63399 3.11584 0
M  V30 7348 H 698.379 3.45818 2.31046 0
M  V30 7349 H 696.956 1.87158 3.22531 0
M  V30 7350 N 699.141 -0.881989 1.30609 0
M  V30 7351 C 700.073 -1.99375 1.13058 0
M  V30 7352 C 701.086 -1.62636 0.0729879 0
M  V30 7353 O 702.275 -1.75621 0.319301 0
M  V30 7354 C 699.375 -3.31536 0.702651 0
M  V30 7355 C 698.548 -3.96693 1.84265 0
M  V30 7356 C 697.607 -5.07158 1.40277 0
M  V30 7357 O 696.633 -5.28628 2.11048 0
M  V30 7358 N 697.835 -5.79808 0.283449 0
M  V30 7359 H 700.6 -2.14981 2.08814 0
M  V30 7360 H 698.161 -1.05526 1.22784 0
M  V30 7361 H 700.153 -4.02804 0.391331 0
M  V30 7362 H 698.723 -3.12175 -0.162954 0
M  V30 7363 H 697.943 -3.1856 2.32192 0
M  V30 7364 H 699.231 -4.36964 2.60653 0
M  V30 7365 H 698.629 -5.64871 -0.306189 0
M  V30 7366 H 697.186 -6.51792 0.0315985 0
M  V30 7367 N 700.619 -1.13374 -1.09472 0
M  V30 7368 C 701.868 -0.889844 -1.8101 0
M  V30 7369 C 702.181 0.585686 -1.86625 0
M  V30 7370 O 703.387 0.946497 -2.54467 0
M  V30 7371 C 701.843 -1.54241 -3.25174 0
M  V30 7372 C 701.451 -3.05343 -3.27826 0
M  V30 7373 C 703.195 -1.37919 -4.0147 0
M  V30 7374 C 701.102 -3.63486 -4.6651 0
M  V30 7375 H 700.032 -0.329256 -0.678311 0
M  V30 7376 H 702.683 -1.36139 -1.23038 0
M  V30 7377 H 701.065 -0.998525 -3.83204 0
M  V30 7378 H 702.239 -3.66307 -2.79563 0
M  V30 7379 H 700.554 -3.21175 -2.65019 0
M  V30 7380 H 703.151 -1.78771 -5.03929 0
M  V30 7381 H 703.494 -0.323987 -4.15037 0
M  V30 7382 H 704.027 -1.89284 -3.49881 0
M  V30 7383 H 700.766 -4.68811 -4.58145 0
M  V30 7384 H 700.286 -3.073 -5.15099 0
M  V30 7385 H 701.965 -3.63134 -5.35484 0
M  V30 7386 N 702.098 1.27442 -0.927168 0
M  V30 7387 C 703.326 1.98498 -0.583622 0
M  V30 7388 C 703.741 1.69171 0.838241 0
M  V30 7389 O 703.098 0.951969 1.55704 0
M  V30 7390 C 703.149 3.52552 -0.799341 0
M  V30 7391 O 702.87 3.80851 -2.16527 0
M  V30 7392 C 704.371 4.4086 -0.464436 0
M  V30 7393 H 701.591 0.633487 -0.221213 0
M  V30 7394 H 704.135 1.62308 -1.24404 0
M  V30 7395 H 702.29 3.86955 -0.185728 0
M  V30 7396 H 702.704 4.75441 -2.21487 0
M  V30 7397 H 704.178 5.47967 -0.666075 0
M  V30 7398 H 704.655 4.35082 0.599995 0
M  V30 7399 H 705.261 4.11977 -1.05617 0
M  V30 7400 N 703.576 0.692616 1.41565 0
M  V30 7401 C 704.523 0.0254264 2.30786 0
M  V30 7402 C 705.493 -0.774347 1.46946 0
M  V30 7403 O 706.678 -0.742981 1.7574 0
M  V30 7404 C 703.818 -0.907123 3.32964 0
M  V30 7405 C 702.931 -0.0992784 4.31886 0
M  V30 7406 C 702.066 -1.0292 5.21134 0
M  V30 7407 C 701.105 -0.214088 6.11725 0
M  V30 7408 N 700.242 -1.09766 6.93467 0
M  V30 7409 H 705.082 0.792036 2.87282 0
M  V30 7410 H 702.619 0.4023 1.41492 0
M  V30 7411 H 704.577 -1.46181 3.90752 0
M  V30 7412 H 703.207 -1.64016 2.78026 0
M  V30 7413 H 702.259 0.572287 3.76071 0
M  V30 7414 H 703.571 0.532782 4.95946 0
M  V30 7415 H 702.725 -1.65321 5.83741 0
M  V30 7416 H 701.464 -1.69512 4.57293 0
M  V30 7417 H 700.469 0.42302 5.4817 0
M  V30 7418 H 701.694 0.447995 6.77621 0
M  V30 7419 H 699.64 -1.74965 6.32237 0
M  V30 7420 H 699.557 -0.521099 7.54202 0
M  V30 7421 H 700.825 -1.70858 7.60544 0
M  V30 7422 N 705.054 -1.51416 0.437162 0
M  V30 7423 C 706.47 -1.59349 0.0894459 0
M  V30 7424 C 706.67 -1.44809 -1.40116 0
M  V30 7425 O 705.726 -1.28924 -2.17106 0
M  V30 7426 C 707.039 -2.9446 0.609398 0
M  V30 7427 C 708.587 -3.07769 0.569824 0
M  V30 7428 C 709.062 -4.45404 1.06675 0
M  V30 7429 N 710.553 -4.51723 1.02473 0
M  V30 7430 C 711.288 -5.56544 1.3801 0
M  V30 7431 N 710.784 -6.68784 1.80831 0
M  V30 7432 N 712.577 -5.46901 1.29828 0
M  V30 7433 H 704.728 -1.59112 1.40703 0
M  V30 7434 H 706.991 -0.750031 0.579791 0
M  V30 7435 H 706.697 -3.1047 1.65231 0
M  V30 7436 H 706.571 -3.77184 0.0342236 0
M  V30 7437 H 708.958 -2.91428 -0.464107 0
M  V30 7438 H 709.039 -2.26885 1.1814 0
M  V30 7439 H 708.683 -4.62492 2.09914 0
M  V30 7440 H 708.613 -5.24827 0.431712 0
M  V30 7441 H 711.104 -3.71165 0.710258 0
M  V30 7442 H 711.417 -7.44787 2.06185 0
M  V30 7443 H 709.762 -6.69992 1.84757 0
M  V30 7444 H 712.953 -4.581 0.962397 0
M  V30 7445 H 713.126 -6.2848 1.57851 0
M  V30 7446 N 706.532 -0.168513 -1.56696 0
M  V30 7447 C 707.479 0.762875 -2.17828 0
M  V30 7448 C 708.449 1.22892 -1.11745 0
M  V30 7449 O 709.634 1.29759 -1.39883 0
M  V30 7450 C 706.774 1.9879 -2.82093 0
M  V30 7451 C 705.887 1.56568 -4.02629 0
M  V30 7452 C 705.022 2.74416 -4.54829 0
M  V30 7453 C 704.061 2.28671 -5.67782 0
M  V30 7454 N 703.198 3.39602 -6.14504 0
M  V30 7455 H 708.038 0.23479 -2.97074 0
M  V30 7456 H 705.575 0.104163 -1.46731 0
M  V30 7457 H 707.533 2.70636 -3.17509 0
M  V30 7458 H 706.163 2.48973 -2.05456 0
M  V30 7459 H 705.215 0.744067 -3.73052 0
M  V30 7460 H 706.527 1.18988 -4.844 0
M  V30 7461 H 705.681 3.54423 -4.92412 0
M  V30 7462 H 704.42 3.15254 -3.7211 0
M  V30 7463 H 703.425 1.4711 -5.29753 0
M  V30 7464 H 704.65 1.88894 -6.52301 0
M  V30 7465 H 702.596 3.80021 -5.34715 0
M  V30 7466 H 702.513 3.06105 -6.91257 0
M  V30 7467 H 703.781 4.19902 -6.56737 0
M  V30 7468 N 708.01 1.57248 0.105221 0
M  V30 7469 C 709.426 1.52853 0.459153 0
M  V30 7470 C 709.626 0.883674 1.8109 0
M  V30 7471 O 708.682 0.471864 2.48052 0
M  V30 7472 C 709.995 2.97596 0.43096 0
M  V30 7473 C 711.543 3.08758 0.513536 0
M  V30 7474 C 712.018 4.55089 0.515593 0
M  V30 7475 N 713.509 4.59597 0.576639 0
M  V30 7476 C 714.244 5.70253 0.599904 0
M  V30 7477 N 713.74 6.90368 0.579985 0
M  V30 7478 N 715.533 5.58399 0.643953 0
M  V30 7479 H 707.684 1.97547 -0.780306 0
M  V30 7480 H 709.947 0.902758 -0.289363 0
M  V30 7481 H 709.653 3.48201 -0.494903 0
M  V30 7482 H 709.527 3.55756 1.2537 0
M  V30 7483 H 711.914 2.58148 1.42982 0
M  V30 7484 H 711.995 2.53568 -0.337148 0
M  V30 7485 H 711.639 5.06348 -0.396701 0
M  V30 7486 H 711.569 5.08105 1.38335 0
M  V30 7487 H 714.06 3.73144 0.597639 0
M  V30 7488 H 714.373 7.70462 0.600741 0
M  V30 7489 H 712.718 6.92843 0.547191 0
M  V30 7490 H 715.909 4.63467 0.656975 0
M  V30 7491 H 716.082 6.44644 0.658616 0
M  V30 7492 N 709.488 -0.375779 1.53054 0
M  V30 7493 C 710.421 -1.48187 1.7354 0
M  V30 7494 C 711.399 -1.5177 0.583495 0
M  V30 7495 O 712.583 -1.69976 0.81488 0
M  V30 7496 C 709.71 -2.86598 1.80497 0
M  V30 7497 C 708.756 -3.00784 3.02376 0
M  V30 7498 S 709.589 -2.70601 4.62099 0
M  V30 7499 C 710.745 -4.11181 4.71891 0
M  V30 7500 H 710.978 -1.30587 2.67085 0
M  V30 7501 H 708.511 -0.569485 1.43514 0
M  V30 7502 H 710.469 -3.66353 1.85192 0
M  V30 7503 H 709.13 -3.01514 0.880217 0
M  V30 7504 H 708.323 -4.02128 3.03824 0
M  V30 7505 H 707.925 -2.28939 2.95742 0
M  V30 7506 H 710.217 -5.0529 4.51319 0
M  V30 7507 H 711.16 -4.14742 5.73929 0
M  V30 7508 H 711.568 -3.97706 4.00612 0
M  V30 7509 N 710.966 -1.44241 -0.634997 0
M  V30 7510 C 712.191 -1.50516 -1.42687 0
M  V30 7511 C 712.616 -0.129864 -1.87651 0
M  V30 7512 O 711.974 0.880164 -1.58502 0
M  V30 7513 C 712.022 -2.4714 -2.62591 0
M  V30 7514 O 711.126 -1.97025 -3.62291 0
M  V30 7515 H 710.467 -0.50841 -0.427101 0
M  V30 7516 H 712.997 -1.89337 -0.775408 0
M  V30 7517 H 713.007 -2.65048 -3.10183 0
M  V30 7518 H 711.682 -3.47039 -2.29209 0
M  V30 7519 H 710.259 -1.88866 -3.21534 0
M  V30 7520 N 712.444 0.87505 -1.31075 0
M  V30 7521 C 713.374 1.99775 -1.20881 0
M  V30 7522 C 714.355 1.69822 -0.0971612 0
M  V30 7523 O 715.54 1.92158 -0.280895 0
M  V30 7524 C 712.67 3.35163 -0.910118 0
M  V30 7525 C 711.624 3.79406 -1.98078 0
M  V30 7526 C 710.95 5.12197 -1.53488 0
M  V30 7527 C 712.25 3.97061 -3.39323 0
M  V30 7528 H 713.944 2.08562 -2.14808 0
M  V30 7529 H 711.49 1.00207 -1.03415 0
M  V30 7530 H 713.443 4.13237 -0.825423 0
M  V30 7531 H 712.167 3.26536 0.064822 0
M  V30 7532 H 710.826 3.03568 -2.05528 0
M  V30 7533 H 710.474 5.00007 -0.547941 0
M  V30 7534 H 710.174 5.4277 -2.2511 0
M  V30 7535 H 711.698 5.92785 -1.46417 0
M  V30 7536 H 713.112 4.65545 -3.34576 0
M  V30 7537 H 711.509 4.39025 -4.09118 0
M  V30 7538 H 712.579 3.00601 -3.80483 0
M  V30 7539 N 713.922 1.13953 1.08869 0
M  V30 7540 C 715.168 0.906151 1.8143 0
M  V30 7541 C 715.501 -0.566089 1.85766 0
M  V30 7542 O 714.776 -1.41915 1.33006 0
M  V30 7543 C 715.059 1.50183 3.27287 0
M  V30 7544 C 714.912 3.04359 3.31189 0
M  V30 7545 C 716.231 1.17477 4.24131 0
M  V30 7546 H 713.35 0.330624 0.658678 0
M  V30 7547 H 715.992 1.40873 1.27495 0
M  V30 7548 H 714.142 1.07442 3.73348 0
M  V30 7549 H 715.814 3.55896 2.93488 0
M  V30 7550 H 714.057 3.39053 2.70602 0
M  V30 7551 H 714.728 3.41141 4.33966 0
M  V30 7552 H 717.204 1.5442 3.86385 0
M  V30 7553 H 716.08 1.61795 5.24513 0
M  V30 7554 H 716.341 0.0893312 4.4201 0
M  V30 7555 N 715.4 -1.26948 0.933913 0
M  V30 7556 C 716.347 -2.26635 0.436484 0
M  V30 7557 C 717.317 -1.58397 -0.499953 0
M  V30 7558 O 718.502 -1.86171 -0.417753 0
M  V30 7559 C 715.642 -3.43803 -0.298951 0
M  V30 7560 C 714.755 -4.26736 0.672316 0
M  V30 7561 C 713.89 -5.31134 -0.0835872 0
M  V30 7562 C 712.929 -6.05742 0.879979 0
M  V30 7563 N 712.066 -7.01926 0.156301 0
M  V30 7564 H 716.906 -2.68558 1.29154 0
M  V30 7565 H 714.443 -1.32052 0.648118 0
M  V30 7566 H 716.401 -4.10554 -0.741723 0
M  V30 7567 H 715.031 -3.02814 -1.1182 0
M  V30 7568 H 714.083 -3.59842 1.23361 0
M  V30 7569 H 715.395 -4.78502 1.40846 0
M  V30 7570 H 714.549 -6.03863 -0.585984 0
M  V30 7571 H 713.288 -4.80188 -0.852661 0
M  V30 7572 H 712.293 -5.31846 1.39357 0
M  V30 7573 H 713.518 -6.58777 1.64894 0
M  V30 7574 H 711.464 -6.53301 -0.594413 0
M  V30 7575 H 711.381 -7.51409 0.831906 0
M  V30 7576 H 712.649 -7.78821 -0.325239 0
M  V30 7577 N 716.879 -0.700114 -1.41195 0
M  V30 7578 C 717.789 -0.0382854 -2.34569 0
M  V30 7579 C 718.805 0.761036 -1.56474 0
M  V30 7580 O 719.981 0.697553 -1.88934 0
M  V30 7581 C 717.046 0.883522 -3.35253 0
M  V30 7582 C 716.107 0.0758957 -4.29233 0
M  V30 7583 C 715.34 0.9538 -5.25108 0
M  V30 7584 O 715.563 2.19326 -5.26547 0
M  V30 7585 O 714.497 0.401049 -6.00562 0
M  V30 7586 H 718.323 -0.808073 -2.92752 0
M  V30 7587 H 715.908 -0.460479 -1.42127 0
M  V30 7588 H 717.79 1.41199 -3.9704 0
M  V30 7589 H 716.465 1.63272 -2.79506 0
M  V30 7590 H 715.372 -0.497274 -3.7078 0
M  V30 7591 H 716.705 -0.634741 -4.8809 0
M  V30 7592 N 718.357 1.51182 -0.445186 0
M  V30 7593 C 719.304 2.27939 0.362291 0
M  V30 7594 C 720.274 1.31864 1.01 0
M  V30 7595 O 721.459 1.60776 1.02741 0
M  V30 7596 C 718.599 3.13016 1.45311 0
M  V30 7597 C 717.712 4.24093 0.822757 0
M  V30 7598 C 716.847 4.96467 1.88928 0
M  V30 7599 C 715.886 5.99454 1.23778 0
M  V30 7600 N 715.023 6.65206 2.24602 0
M  V30 7601 H 719.863 2.965 -0.29862 0
M  V30 7602 H 717.4 1.46237 -0.15911 0
M  V30 7603 H 719.358 3.60673 2.09692 0
M  V30 7604 H 717.988 2.46553 2.08354 0
M  V30 7605 H 717.04 3.80341 0.0670364 0
M  V30 7606 H 718.352 4.97853 0.307184 0
M  V30 7607 H 717.506 5.47712 2.60953 0
M  V30 7608 H 716.245 4.22355 2.4386 0
M  V30 7609 H 715.25 5.47494 0.503042 0
M  V30 7610 H 716.475 6.75527 0.695694 0
M  V30 7611 H 714.421 5.93901 2.78599 0
M  V30 7612 H 714.338 7.34756 1.77958 0
M  V30 7613 H 715.606 7.21078 2.96085 0
M  V30 7614 N 719.835 0.176821 1.56605 0
M  V30 7615 C 720.782 -0.751312 2.18229 0
M  V30 7616 C 721.752 -1.22297 1.12395 0
M  V30 7617 O 722.937 -1.29015 1.40569 0
M  V30 7618 C 720.077 -1.97291 2.83143 0
M  V30 7619 C 719.19 -1.54431 4.03454 0
M  V30 7620 C 718.325 -2.72 4.56278 0
M  V30 7621 C 717.364 -2.25657 5.68986 0
M  V30 7622 N 716.501 -3.36338 6.16296 0
M  V30 7623 H 721.341 -0.219033 2.97194 0
M  V30 7624 H 718.878 -0.0963803 1.46784 0
M  V30 7625 H 720.836 -2.68949 3.1894 0
M  V30 7626 H 719.466 -2.4788 2.06773 0
M  V30 7627 H 718.518 -0.724273 3.73441 0
M  V30 7628 H 719.83 -1.16417 4.85024 0
M  V30 7629 H 718.984 -3.51806 4.94285 0
M  V30 7630 H 717.723 -3.13277 3.73777 0
M  V30 7631 H 716.728 -1.44299 5.30526 0
M  V30 7632 H 717.953 -1.85432 6.53293 0
M  V30 7633 H 715.899 -3.7718 5.36723 0
M  V30 7634 H 715.816 -3.02435 6.9287 0
M  V30 7635 H 717.084 -4.16413 6.58954 0
M  V30 7636 N 721.313 -1.57302 -0.09688 0
M  V30 7637 C 722.276 -2.00976 -1.10188 0
M  V30 7638 C 723.276 -0.903009 -1.3305 0
M  V30 7639 O 724.466 -1.16853 -1.29194 0
M  V30 7640 C 721.598 -2.36893 -2.45142 0
M  V30 7641 H 722.791 -2.9098 -0.726003 0
M  V30 7642 H 720.344 -1.52515 -0.341872 0
M  V30 7643 H 721.079 -1.49837 -2.8761 0
M  V30 7644 H 720.864 -3.17632 -2.29897 0
M  V30 7645 H 722.354 -2.71345 -3.1743 0
M  V30 7646 N 722.791 0.367657 -1.53252 0
M  V30 7647 C 723.754 1.43308 -1.78873 0
M  V30 7648 C 724.754 1.46671 -0.659115 0
M  V30 7649 O 725.944 1.47468 -0.927306 0
M  V30 7650 C 723.076 2.82442 -1.90892 0
M  V30 7651 H 724.269 1.21864 -2.74024 0
M  V30 7652 H 721.822 0.600668 -1.44297 0
M  V30 7653 H 722.557 3.09202 -0.978 0
M  V30 7654 H 722.342 2.81399 -2.73051 0
M  V30 7655 H 723.832 3.59601 -2.12314 0
M  V30 7656 N 724.269 1.44576 0.627338 0
M  V30 7657 C 725.201 1.47724 1.75243 0
M  V30 7658 C 726.214 0.370193 1.58535 0
M  V30 7659 O 727.403 0.636151 1.66779 0
M  V30 7660 C 724.503 1.2991 3.13012 0
M  V30 7661 C 723.676 2.5393 3.56143 0
M  V30 7662 C 722.735 2.30961 4.72804 0
M  V30 7663 O 721.761 3.04469 4.80923 0
M  V30 7664 N 722.963 1.34261 5.6476 0
M  V30 7665 H 725.728 2.44718 1.73012 0
M  V30 7666 H 723.289 1.40064 0.812022 0
M  V30 7667 H 725.281 1.12385 3.88782 0
M  V30 7668 H 723.851 0.412668 3.09864 0
M  V30 7669 H 723.071 2.86707 2.70542 0
M  V30 7670 H 724.359 3.36411 3.81713 0
M  V30 7671 H 723.757 0.735573 5.60897 0
M  V30 7672 H 722.314 1.22713 6.40144 0
M  V30 7673 N 725.747 -0.868086 1.31537 0
M  V30 7674 C 726.975 -1.65402 1.24298 0
M  V30 7675 C 727.39 -1.87827 -0.191389 0
M  V30 7676 O 726.747 -1.43776 -1.12404 0
M  V30 7677 C 726.798 -3.02093 1.9855 0
M  V30 7678 O 726.519 -2.80668 3.36388 0
M  V30 7679 C 728.02 -3.96538 1.98173 0
M  V30 7680 H 725.24 -0.515598 0.429417 0
M  V30 7681 H 727.784 -1.0834 1.73444 0
M  V30 7682 H 725.939 -3.55838 1.53161 0
M  V30 7683 H 726.353 -3.67504 3.74221 0
M  V30 7684 H 727.827 -4.8976 2.54635 0
M  V30 7685 H 728.304 -4.28474 0.964697 0
M  V30 7686 H 728.91 -3.48729 2.4345 0
M  V30 7687 N 727.225 -1.14528 -1.08264 0
M  V30 7688 C 728.155 -0.856356 -2.1723 0
M  V30 7689 C 729.136 0.189251 -1.69044 0
M  V30 7690 O 730.321 0.0456119 -1.94146 0
M  V30 7691 C 727.451 -0.334662 -3.45684 0
M  V30 7692 C 726.405 -1.31588 -4.0727 0
M  V30 7693 C 725.731 -0.653428 -5.30692 0
M  V30 7694 C 727.031 -2.67866 -4.48381 0
M  V30 7695 H 728.725 -1.76755 -2.41657 0
M  V30 7696 H 726.271 -0.851287 -1.16143 0
M  V30 7697 H 728.224 -0.120128 -4.21229 0
M  V30 7698 H 726.948 0.611967 -3.20815 0
M  V30 7699 H 725.607 -1.51661 -3.33758 0
M  V30 7700 H 725.255 0.299054 -5.0211 0
M  V30 7701 H 724.955 -1.30817 -5.72853 0
M  V30 7702 H 726.479 -0.448453 -6.08951 0
M  V30 7703 H 727.893 -2.51692 -5.15096 0
M  V30 7704 H 726.29 -3.29627 -5.01464 0
M  V30 7705 H 727.36 -3.24632 -3.60198 0
M  V30 7706 N 728.703 1.26451 -0.940633 0
M  V30 7707 C 729.928 1.98407 -0.60412 0
M  V30 7708 C 730.353 1.69584 0.81382 0
M  V30 7709 O 729.711 0.943553 1.54812 0
M  V30 7710 C 729.759 3.50387 -0.852136 0
M  V30 7711 O 728.863 4.1233 0.076013 0
M  V30 7712 H 728.204 0.622466 -0.231153 0
M  V30 7713 H 730.734 1.60932 -1.26342 0
M  V30 7714 H 730.744 4.00614 -0.772816 0
M  V30 7715 H 729.419 3.70696 -1.88566 0
M  V30 7716 H 727.996 3.7286 -0.0543187 0
M  V30 7717 N 730.181 0.707592 1.40822 0
M  V30 7718 C 731.144 0.0587224 2.29125 0
M  V30 7719 C 732.144 -0.695624 1.44975 0
M  V30 7720 O 733.334 -0.528718 1.65983 0
M  V30 7721 C 730.466 -0.926939 3.28056 0
M  V30 7722 H 731.659 0.836349 2.88002 0
M  V30 7723 H 729.212 0.471778 1.4901 0
M  V30 7724 H 729.947 -1.7319 2.74182 0
M  V30 7725 H 729.732 -0.389015 3.90165 0
M  V30 7726 H 731.222 -1.37837 3.94196 0
M  V30 7727 N 731.66 -1.50943 0.453197 0
M  V30 7728 C 732.909 -2.01402 -0.10951 0
M  V30 7729 C 733.222 -1.3411 -1.42386 0
M  V30 7730 O 734.428 -1.75626 -2.07045 0
M  V30 7731 C 732.884 -3.5906 -0.245693 0
M  V30 7732 C 732.492 -4.353 1.05916 0
M  V30 7733 C 734.236 -4.17617 -0.761318 0
M  V30 7734 C 732.143 -5.84699 0.887752 0
M  V30 7735 H 731.073 -0.752674 -0.0447013 0
M  V30 7736 H 733.724 -1.73913 0.585375 0
M  V30 7737 H 732.106 -3.83062 -1.00395 0
M  V30 7738 H 733.28 -4.23034 1.82698 0
M  V30 7739 H 731.595 -3.88269 1.50452 0
M  V30 7740 H 734.192 -5.26963 -0.906306 0
M  V30 7741 H 734.535 -3.77824 -1.74799 0
M  V30 7742 H 735.068 -3.97753 -0.0609416 0
M  V30 7743 H 731.807 -6.28933 1.84726 0
M  V30 7744 H 731.327 -5.99587 0.160006 0
M  V30 7745 H 733.006 -6.44682 0.547223 0
M  V30 7746 N 733.138 -0.185124 -1.56509 0
M  V30 7747 C 734.068 0.735098 -2.21627 0
M  V30 7748 C 735.049 1.2288 -1.1762 0
M  V30 7749 O 736.234 1.27945 -1.46095 0
M  V30 7750 C 733.364 1.95889 -2.86783 0
M  V30 7751 C 732.318 1.6005 -3.96948 0
M  V30 7752 C 731.644 2.90009 -4.4922 0
M  V30 7753 C 732.944 0.818008 -5.15855 0
M  V30 7754 H 734.638 0.192274 -2.98782 0
M  V30 7755 H 732.184 0.0910393 -1.43712 0
M  V30 7756 H 734.137 2.60779 -3.31017 0
M  V30 7757 H 732.861 2.52608 -2.07018 0
M  V30 7758 H 731.52 0.975237 -3.5339 0
M  V30 7759 H 731.168 3.44797 -3.6623 0
M  V30 7760 H 730.868 2.66778 -5.23549 0
M  V30 7761 H 732.392 3.55904 -4.9615 0
M  V30 7762 H 733.806 1.36979 -5.56695 0
M  V30 7763 H 732.203 0.684207 -5.96187 0
M  V30 7764 H 733.273 -0.182939 -4.84555 0
M  V30 7765 N 734.616 1.57351 0.0885366 0
M  V30 7766 C 735.546 2.05561 1.10757 0
M  V30 7767 C 736.527 0.945789 1.41382 0
M  V30 7768 O 737.712 1.21747 1.51299 0
M  V30 7769 C 734.842 2.48554 2.42566 0
M  V30 7770 C 733.796 3.63259 2.26334 0
M  V30 7771 C 733.122 3.9225 3.63378 0
M  V30 7772 C 734.422 4.93913 1.69844 0
M  V30 7773 H 736.116 2.90946 0.706468 0
M  V30 7774 H 733.662 1.39968 0.338385 0
M  V30 7775 H 735.615 2.8089 3.14132 0
M  V30 7776 H 734.339 1.60176 2.84625 0
M  V30 7777 H 732.998 3.31179 1.57213 0
M  V30 7778 H 732.646 3.0103 4.02976 0
M  V30 7779 H 732.346 4.69478 3.53362 0
M  V30 7780 H 733.87 4.27067 4.36401 0
M  V30 7781 H 735.284 5.24588 2.31258 0
M  V30 7782 H 733.681 5.75349 1.70569 0
M  V30 7783 H 734.751 4.80409 0.65843 0
M  V30 7784 N 736.094 -0.359525 1.53444 0
M  V30 7785 C 737.057 -1.42357 1.7963 0
M  V30 7786 C 738.057 -1.46319 0.666884 0
M  V30 7787 O 739.247 -1.46974 0.935113 0
M  V30 7788 C 736.379 -2.81425 1.92387 0
M  V30 7789 H 737.572 -1.20409 2.74666 0
M  V30 7790 H 735.125 -0.593007 1.44614 0
M  V30 7791 H 735.86 -3.08679 0.994384 0
M  V30 7792 H 735.645 -2.79947 2.74539 0
M  V30 7793 H 737.135 -3.5847 2.14218 0
M  V30 7794 N 737.572 -1.44907 -0.619662 0
M  V30 7795 C 738.819 -1.48292 -1.37898 0
M  V30 7796 C 739.147 -0.119933 -1.9413 0
M  V30 7797 O 738.402 0.879834 -1.74807 0
M  V30 7798 C 738.701 -2.50002 -2.55409 0
M  V30 7799 C 738.367 -3.95031 -2.17397 0
M  V30 7800 C 737.029 -4.34524 -2.06743 0
M  V30 7801 C 739.381 -4.86287 -1.87548 0
M  V30 7802 C 736.709 -5.63183 -1.64445 0
M  V30 7803 C 739.061 -6.15346 -1.4674 0
M  V30 7804 C 737.725 -6.53781 -1.34636 0
M  V30 7805 H 736.995 -0.542638 -0.504603 0
M  V30 7806 H 739.642 -1.78186 -0.701581 0
M  V30 7807 H 737.947 -2.13634 -3.28433 0
M  V30 7808 H 739.644 -2.49864 -3.13639 0
M  V30 7809 H 736.234 -3.63793 -2.26611 0
M  V30 7810 H 740.418 -4.56522 -1.94682 0
M  V30 7811 H 735.674 -5.91769 -1.53687 0
M  V30 7812 H 739.848 -6.85508 -1.22685 0
M  V30 7813 H 737.475 -7.53375 -1.01634 0
M  V30 7814 N 739.05 0.861098 -1.31996 0
M  V30 7815 C 740.299 1.60965 -1.21545 0
M  V30 7816 C 740.612 1.94325 0.222972 0
M  V30 7817 O 741.818 2.67757 0.449272 0
M  V30 7818 C 740.274 2.90223 -2.12834 0
M  V30 7819 C 739.882 2.64313 -3.61722 0
M  V30 7820 C 741.626 3.68229 -2.11205 0
M  V30 7821 C 739.533 3.89532 -4.44993 0
M  V30 7822 H 738.463 0.603988 -0.451348 0
M  V30 7823 H 741.114 0.951358 -1.56912 0
M  V30 7824 H 739.496 3.57475 -1.70375 0
M  V30 7825 H 740.67 2.05413 -4.12483 0
M  V30 7826 H 738.985 1.99647 -3.65418 0
M  V30 7827 H 741.582 4.61138 -2.70658 0
M  V30 7828 H 741.925 4.01466 -1.1014 0
M  V30 7829 H 742.458 3.07873 -2.51911 0
M  V30 7830 H 739.197 3.61441 -5.46846 0
M  V30 7831 H 738.717 4.47851 -3.98985 0
M  V30 7832 H 740.396 4.57334 -4.57663 0
M  V30 7833 N 740.528 1.15101 1.07655 0
M  V30 7834 C 741.777 0.918528 1.79572 0
M  V30 7835 C 742.09 -0.555922 1.87534 0
M  V30 7836 O 743.296 -0.905893 2.55941 0
M  V30 7837 C 741.752 1.59394 3.22679 0
M  V30 7838 C 741.36 3.1052 3.22927 0
M  V30 7839 C 743.104 1.44289 3.99225 0
M  V30 7840 C 741.011 3.70862 4.60668 0
M  V30 7841 H 739.941 0.340006 0.672987 0
M  V30 7842 H 742.592 1.38079 1.20857 0
M  V30 7843 H 740.974 1.05936 3.81567 0
M  V30 7844 H 742.148 3.70708 2.737 0
M  V30 7845 H 740.463 3.25351 2.59876 0
M  V30 7846 H 743.06 1.86766 5.01022 0
M  V30 7847 H 743.403 0.389975 4.14469 0
M  V30 7848 H 743.936 1.94826 3.46825 0
M  V30 7849 H 740.675 4.7604 4.50628 0
M  V30 7850 H 740.195 3.15456 5.10145 0
M  V30 7851 H 741.874 3.71607 5.29639 0
M  V30 7852 N 742.006 -1.2595 0.947325 0
M  V30 7853 C 743.234 -1.97544 0.615127 0
M  V30 7854 C 743.649 -1.70484 -0.811221 0
M  V30 7855 O 743.006 -0.97662 -1.5417 0
M  V30 7856 C 743.057 -3.51236 0.855328 0
M  V30 7857 O 742.778 -3.77359 2.22558 0
M  V30 7858 C 744.279 -4.40066 0.534515 0
M  V30 7859 H 741.499 -0.629888 0.231263 0
M  V30 7860 H 744.043 -1.60308 1.26971 0
M  V30 7861 H 742.198 -3.8661 0.247266 0
M  V30 7862 H 742.612 -4.71857 2.29022 0
M  V30 7863 H 744.086 -5.46838 0.753168 0
M  V30 7864 H 744.563 -4.35982 -0.530701 0
M  V30 7865 H 745.169 -4.10245 1.12158 0
M  V30 7866 N 743.484 -0.715051 -1.40445 0
M  V30 7867 C 744.73 -0.263528 -2.01686 0
M  V30 7868 C 745.085 1.13052 -1.55683 0
M  V30 7869 O 744.378 1.75588 -0.766762 0
M  V30 7870 C 744.572 -0.281791 -3.56287 0
M  V30 7871 C 744.401 -1.67607 -4.17298 0
M  V30 7872 C 743.171 -2.2836 -4.50755 0
M  V30 7873 C 745.369 -2.62621 -4.42193 0
M  V30 7874 N 743.351 -3.6015 -4.97157 0
M  V30 7875 C 744.722 -3.79116 -4.90582 0
M  V30 7876 C 746.777 -2.60639 -4.24231 0
M  V30 7877 C 745.48 -4.93937 -5.22895 0
M  V30 7878 C 747.506 -3.74587 -4.57644 0
M  V30 7879 C 746.868 -4.89815 -5.06222 0
M  V30 7880 H 742.967 -0.142252 -0.768953 0
M  V30 7881 H 745.551 -0.936732 -1.70685 0
M  V30 7882 H 743.722 0.360975 -3.86719 0
M  V30 7883 H 745.454 0.186393 -4.04271 0
M  V30 7884 H 742.209 -1.80463 -4.3787 0
M  V30 7885 H 742.633 -4.27757 -5.24741 0
M  V30 7886 H 747.275 -1.72759 -3.85894 0
M  V30 7887 H 744.993 -5.82462 -5.60146 0
M  V30 7888 H 748.579 -3.74328 -4.45387 0
M  V30 7889 H 747.459 -5.76525 -5.3159 0
M  V30 7890 N 744.962 1.50701 -0.461195 0
M  V30 7891 C 746.19 2.06681 0.0951756 0
M  V30 7892 C 746.605 1.32615 1.34382 0
M  V30 7893 O 745.962 0.392531 1.78229 0
M  V30 7894 C 746.013 3.59354 0.393316 0
M  V30 7895 O 745.734 4.30626 -0.805797 0
M  V30 7896 C 747.235 4.31926 0.997744 0
M  V30 7897 H 744.455 0.670995 -0.00267259 0
M  V30 7898 H 746.999 1.93991 -0.647137 0
M  V30 7899 H 745.154 3.7188 1.08555 0
M  V30 7900 H 745.568 5.21667 -0.544409 0
M  V30 7901 H 747.042 5.39756 1.15619 0
M  V30 7902 H 747.519 3.91772 1.98523 0
M  V30 7903 H 748.125 4.23905 0.344188 0
M  V30 7904 N 746.441 0.193421 1.56409 0
M  V30 7905 C 747.852 -0.319471 1.83946 0
M  V30 7906 C 748.203 -1.61505 1.11403 0
M  V30 7907 O 747.328 -2.13139 0.374289 0
M  V30 7908 C 747.923 -0.586411 3.33686 0
M  V30 7909 C 746.482 -1.04368 3.61641 0
M  V30 7910 C 745.629 -0.0913834 2.77149 0
M  V30 7911 H 748.58 0.417242 1.53117 0
M  V30 7912 H 748.601 -1.43591 3.52366 0
M  V30 7913 H 748.113 0.356701 3.86457 0
M  V30 7914 H 746.214 -2.00113 3.14302 0
M  V30 7915 H 746.327 -0.937549 4.69837 0
M  V30 7916 H 744.691 -0.592954 2.47702 0
M  V30 7917 H 745.474 0.846142 3.32709 0
M  V30 7918 N 747.919 -1.57396 -0.0801906 0
M  V30 7919 C 749.149 -1.90778 -0.792924 0
M  V30 7920 C 749.557 -0.786814 -1.72064 0
M  V30 7921 O 748.9 0.249259 -1.82001 0
M  V30 7922 C 748.962 -3.19552 -1.64702 0
M  V30 7923 C 748.626 -4.48259 -0.889567 0
M  V30 7924 C 749.623 -5.19465 -0.212602 0
M  V30 7925 C 747.308 -4.94896 -0.859229 0
M  V30 7926 C 749.302 -6.35555 0.484566 0
M  V30 7927 C 746.989 -6.10895 -0.158284 0
M  V30 7928 C 747.987 -6.81075 0.512421 0
M  V30 7929 O 747.675 -7.94862 1.20209 0
M  V30 7930 H 747.407 -0.63527 -0.231103 0
M  V30 7931 H 749.961 -2.0532 -0.0573081 0
M  V30 7932 H 748.191 -3.01196 -2.42524 0
M  V30 7933 H 749.88 -3.38649 -2.23767 0
M  V30 7934 H 750.646 -4.84467 -0.227403 0
M  V30 7935 H 746.525 -4.4015 -1.37073 0
M  V30 7936 H 750.069 -6.9027 1.00864 0
M  V30 7937 H 745.966 -6.45345 -0.141381 0
M  V30 7938 H 746.734 -8.10932 1.11051 0
M  V30 7939 N 749.397 0.351382 -1.53633 0
M  V30 7940 C 750.345 1.45142 -1.8176 0
M  V30 7941 C 751.339 1.54819 -0.687571 0
M  V30 7942 O 752.545 1.57536 -0.870772 0
M  V30 7943 H 748.92 0.483789 -0.575719 0
M  V30 7944 H 750.891 1.1863 -2.73806 0
M  V30 7945 C 749.64 2.81779 -2.03706 0
M  V30 7946 H 748.963 2.75097 -2.90107 0
M  V30 7947 H 750.403 3.5789 -2.27356 0
M  V30 7948 C 748.862 3.26762 -0.820271 0
M  V30 7949 O 749.392 4.01697 -0.0158603 0
M  V30 7950 N 747.598 2.83472 -0.639699 0
M  V30 7951 H 747.145 2.22655 -1.29547 0
M  V30 7952 H 747.103 3.13924 0.172995 0
M  V30 7953 N 750.875 1.45233 0.611969 0
M  V30 7954 C 752.124 1.48296 1.36716 0
M  V30 7955 C 752.437 0.12706 1.95187 0
M  V30 7956 O 753.643 0.0353066 2.71477 0
M  V30 7957 C 752.099 2.61168 2.47627 0
M  V30 7958 C 751.707 4.03051 1.95587 0
M  V30 7959 C 753.451 2.73472 3.24674 0
M  V30 7960 C 751.358 5.07312 3.03954 0
M  V30 7961 H 750.288 0.5518 0.513841 0
M  V30 7962 H 752.939 1.7136 0.656359 0
M  V30 7963 H 751.321 2.31379 3.21372 0
M  V30 7964 H 752.495 4.42497 1.2858 0
M  V30 7965 H 750.81 3.95158 1.31298 0
M  V30 7966 H 753.407 3.48537 4.05494 0
M  V30 7967 H 753.75 1.79953 3.75397 0
M  V30 7968 H 754.283 3.02765 2.58028 0
M  V30 7969 H 751.022 6.02525 2.58154 0
M  V30 7970 H 750.542 4.7244 3.69541 0
M  V30 7971 H 752.221 5.31867 3.6841 0
M  V30 7972 N 752.353 -0.854086 1.3245 0
M  V30 7973 C 753.286 -1.96654 1.15768 0
M  V30 7974 C 754.264 -1.625 0.0569975 0
M  V30 7975 O 755.448 -1.87254 0.216412 0
M  V30 7976 C 752.575 -3.29776 0.772361 0
M  V30 7977 C 751.621 -3.82909 1.87837 0
M  V30 7978 S 752.454 -4.0643 3.48675 0
M  V30 7979 C 753.61 -5.42526 3.12116 0
M  V30 7980 H 753.843 -2.10504 2.09942 0
M  V30 7981 H 751.376 -1.00612 1.17118 0
M  V30 7982 H 753.334 -4.06706 0.556809 0
M  V30 7983 H 751.995 -3.13739 -0.150519 0
M  V30 7984 H 751.188 -4.79192 1.56177 0
M  V30 7985 H 750.79 -3.12825 2.0498 0
M  V30 7986 H 753.082 -6.24792 2.61996 0
M  V30 7987 H 754.025 -5.79148 4.07422 0
M  V30 7988 H 754.433 -5.06556 2.49121 0
M  V30 7989 N 753.831 -1.1567 -1.07043 0
M  V30 7990 C 755.077 -0.9349 -1.79965 0
M  V30 7991 C 755.41 0.536464 -1.86643 0
M  V30 7992 O 754.685 1.39781 -1.35247 0
M  V30 7993 C 754.968 -1.55371 -3.24857 0
M  V30 7994 C 754.821 -3.09589 -3.26305 0
M  V30 7995 C 756.14 -1.24209 -4.22209 0
M  V30 7996 H 753.259 -0.341061 -0.653335 0
M  V30 7997 H 755.901 -1.42883 -1.25237 0
M  V30 7998 H 754.051 -1.13368 -3.71591 0
M  V30 7999 H 755.723 -3.60521 -2.87789 0
M  V30 8000 H 753.966 -3.43315 -2.65174 0
M  V30 8001 H 754.637 -3.48002 -4.28484 0
M  V30 8002 H 757.113 -1.60548 -3.8388 0
M  V30 8003 H 755.989 -1.70119 -5.21872 0
M  V30 8004 H 756.25 -0.15964 -4.41812 0
M  V30 8005 N 755.309 1.25446 -0.953992 0
M  V30 8006 C 756.239 2.28264 -0.491717 0
M  V30 8007 C 757.22 1.63717 0.461617 0
M  V30 8008 O 758.405 1.90821 0.36071 0
M  V30 8009 C 755.535 3.46525 0.231915 0
M  V30 8010 C 754.489 4.23247 -0.636098 0
M  V30 8011 C 753.815 5.34254 0.218238 0
M  V30 8012 C 755.115 4.85971 -1.91389 0
M  V30 8013 H 756.809 2.67183 -1.35106 0
M  V30 8014 H 754.355 1.2844 -0.651095 0
M  V30 8015 H 756.308 4.17576 0.566439 0
M  V30 8016 H 755.032 3.06594 1.12551 0
M  V30 8017 H 753.691 3.53978 -0.953696 0
M  V30 8018 H 753.339 4.90564 1.11156 0
M  V30 8019 H 753.039 5.86501 -0.359232 0
M  V30 8020 H 754.563 6.08138 0.547743 0
M  V30 8021 H 755.977 5.49168 -1.64581 0
M  V30 8022 H 754.374 5.48391 -2.43696 0
M  V30 8023 H 755.444 4.08192 -2.61738 0
M  V30 8024 N 756.787 0.722489 1.40064 0
M  V30 8025 C 758.033 0.265371 2.01056 0
M  V30 8026 C 758.366 -1.14062 1.57174 0
M  V30 8027 O 757.641 -1.77514 0.794916 0
M  V30 8028 C 757.924 0.353157 3.58364 0
M  V30 8029 C 757.777 1.79802 4.123 0
M  V30 8030 C 759.096 -0.271677 4.39261 0
M  V30 8031 H 756.215 0.0979002 0.730469 0
M  V30 8032 H 758.857 0.916289 1.66446 0
M  V30 8033 H 757.007 -0.201037 3.87979 0
M  V30 8034 H 758.679 2.40813 3.93455 0
M  V30 8035 H 756.922 2.32348 3.66329 0
M  V30 8036 H 757.593 1.81079 5.21454 0
M  V30 8037 H 760.069 0.200607 4.15616 0
M  V30 8038 H 758.945 -0.179843 5.48605 0
M  V30 8039 H 759.206 -1.35611 4.20787 0
M  V30 8040 N 758.265 -1.50454 0.469181 0
M  V30 8041 C 759.213 -2.30101 -0.340033 0
M  V30 8042 C 760.207 -1.37306 -0.992135 0
M  V30 8043 O 761.413 -1.54506 -0.923458 0
M  V30 8044 H 757.788 -0.740941 -0.128495 0
M  V30 8045 H 759.759 -2.96315 0.352144 0
M  V30 8046 C 758.508 -3.17804 -1.41052 0
M  V30 8047 H 757.831 -3.89115 -0.918124 0
M  V30 8048 H 759.271 -3.76533 -1.94934 0
M  V30 8049 C 757.73 -2.35272 -2.4114 0
M  V30 8050 O 758.26 -2.03448 -3.4637 0
M  V30 8051 N 756.466 -1.97889 -2.1281 0
M  V30 8052 H 756.013 -2.2397 -1.27261 0
M  V30 8053 H 755.971 -1.42971 -2.80012 0
M  V30 8054 N 759.743 -0.201713 -1.56304 0
M  V30 8055 C 760.971 0.440723 -2.02152 0
M  V30 8056 C 761.386 1.54735 -1.08179 0
M  V30 8057 O 760.743 1.82289 -0.0878196 0
M  V30 8058 C 760.794 0.990884 -3.47655 0
M  V30 8059 O 760.515 -0.0715937 -4.38041 0
M  V30 8060 C 762.016 1.70854 -4.09052 0
M  V30 8061 H 759.236 0.109987 -0.661924 0
M  V30 8062 H 761.78 -0.312358 -2.021 0
M  V30 8063 H 759.935 1.69432 -3.48384 0
M  V30 8064 H 760.349 0.338892 -5.23404 0
M  V30 8065 H 761.823 2.04572 -5.12693 0
M  V30 8066 H 762.3 2.61462 -3.52894 0
M  V30 8067 H 762.906 1.0508 -4.12114 0
M  V30 8068 N 761.222 1.57436 0.0718424 0
M  V30 8069 C 762.469 1.87248 0.771007 0
M  V30 8070 C 762.797 0.793441 1.7758 0
M  V30 8071 O 762.052 -0.210565 1.94564 0
M  V30 8072 C 762.351 3.23723 1.51455 0
M  V30 8073 C 762.017 4.46194 0.649736 0
M  V30 8074 C 760.679 4.79438 0.411409 0
M  V30 8075 C 763.031 5.21176 0.05004 0
M  V30 8076 C 760.359 5.85077 -0.436096 0
M  V30 8077 C 762.711 6.27712 -0.784919 0
M  V30 8078 C 761.375 6.59457 -1.03312 0
M  V30 8079 H 760.645 0.685188 0.282132 0
M  V30 8080 H 763.292 1.91474 0.0317896 0
M  V30 8081 H 761.597 3.15287 2.32597 0
M  V30 8082 H 763.294 3.44023 2.06031 0
M  V30 8083 H 759.884 4.20175 0.84562 0
M  V30 8084 H 764.068 4.95806 0.221282 0
M  V30 8085 H 759.324 6.08071 -0.637136 0
M  V30 8086 H 763.498 6.84974 -1.25635 0
M  V30 8087 H 761.125 7.4114 -1.6916 0
M  V30 8088 N 762.7 -0.34323 1.53817 0
M  V30 8089 C 763.94 -1.09188 1.72793 0
M  V30 8090 C 764.304 -1.85876 0.481062 0
M  V30 8091 O 765.505 -2.63158 0.547851 0
M  V30 8092 C 763.776 -2.00783 2.9567 0
M  V30 8093 S 765.335 -2.82866 3.35459 0
M  V30 8094 H 762.153 -0.368926 0.607795 0
M  V30 8095 H 764.755 -0.370265 1.91962 0
M  V30 8096 H 763.459 -1.43245 3.84589 0
M  V30 8097 H 762.99 -2.77381 2.78968 0
M  V30 8098 H 765.005 -4.03196 2.89218 0
M  V30 8099 N 764.178 -1.45556 -0.604258 0
M  V30 8100 C 765.455 -1.40221 -1.36373 0
M  V30 8101 C 765.835 -0.0745195 -2.10968 0
M  V30 8102 O 765.183 0.943594 -2.08107 0
M  V30 8103 C 765.393 -2.61807 -2.30777 0
M  V30 8104 C 766.741 -3.07037 -2.93281 0
M  V30 8105 O 767.765 -2.62203 -2.41097 0
M  V30 8106 O 766.624 -3.8485 -3.88011 0
M  V30 8107 H 763.718 -0.556602 -0.611656 0
M  V30 8108 H 766.264 -1.57689 -0.627069 0
M  V30 8109 H 765.036 -3.50017 -1.74939 0
M  V30 8110 H 764.659 -2.46688 -3.11818 0
M  V30 8111 N 765.656 0.84705 -1.32902 0
M  V30 8112 C 766.881 1.63925 -1.27056 0
M  V30 8113 C 767.306 1.87443 0.157136 0
M  V30 8114 O 766.664 1.43266 1.11106 0
M  V30 8115 C 766.712 2.97134 -2.04313 0
M  V30 8116 O 765.816 3.88049 -1.39614 0
M  V30 8117 H 765.157 0.499477 -0.437514 0
M  V30 8118 H 767.687 1.05443 -1.75336 0
M  V30 8119 H 767.697 3.46896 -2.14772 0
M  V30 8120 H 766.372 2.79339 -3.08128 0
M  V30 8121 H 764.949 3.46525 -1.3775 0
M  V30 8122 N 767.134 1.16236 1.06428 0
M  V30 8123 C 768.374 0.95369 1.80787 0
M  V30 8124 C 768.738 -0.509495 1.85117 0
M  V30 8125 O 769.939 -0.836822 2.55442 0
M  V30 8126 C 768.21 1.56235 3.21443 0
M  V30 8127 S 769.769 1.49812 4.12434 0
M  V30 8128 H 766.587 0.343004 0.622792 0
M  V30 8129 H 769.189 1.47957 1.27785 0
M  V30 8130 H 767.893 2.62 3.15886 0
M  V30 8131 H 767.424 1.03574 3.79521 0
M  V30 8132 H 769.439 0.49745 4.937 0
M  V30 8133 N 768.612 -1.24939 0.960631 0
M  V30 8134 C 769.861 -1.92118 0.614298 0
M  V30 8135 C 770.174 -1.75998 -0.853474 0
M  V30 8136 O 771.38 -2.37804 -1.31003 0
M  V30 8137 C 769.836 -3.44303 1.04801 0
M  V30 8138 C 769.444 -3.69123 2.53875 0
M  V30 8139 C 771.188 -4.17375 0.774497 0
M  V30 8140 C 769.095 -5.14843 2.91016 0
M  V30 8141 H 768.025 -0.719319 0.226045 0
M  V30 8142 H 770.676 -1.41701 1.16589 0
M  V30 8143 H 769.058 -3.93715 0.42479 0
M  V30 8144 H 770.232 -3.30339 3.21267 0
M  V30 8145 H 768.547 -3.09323 2.78762 0
M  V30 8146 H 771.144 -5.24723 1.02808 0
M  V30 8147 H 771.487 -4.15294 -0.289192 0
M  V30 8148 H 772.02 -3.7389 1.35835 0
M  V30 8149 H 768.759 -5.2204 3.96427 0
M  V30 8150 H 768.279 -5.54652 2.28302 0
M  V30 8151 H 769.958 -5.83017 2.80535 0
M  V30 8152 N 770.09 -0.729906 -1.39679 0
M  V30 8153 C 771.501 -0.346241 -1.83461 0
M  V30 8154 C 771.852 1.1215 -1.60987 0
M  V30 8155 O 770.977 1.86456 -1.09832 0
M  V30 8156 C 771.572 -0.621656 -3.33048 0
M  V30 8157 C 770.131 -0.291543 -3.75269 0
M  V30 8158 C 769.278 -0.886844 -2.62736 0
M  V30 8159 H 772.229 -0.927949 -1.28743 0
M  V30 8160 H 772.25 0.108301 -3.80346 0
M  V30 8161 H 771.762 -1.68996 -3.49373 0
M  V30 8162 H 769.863 0.771133 -3.64533 0
M  V30 8163 H 769.976 -0.770544 -4.72863 0
M  V30 8164 H 768.34 -0.313839 -2.52759 0
M  V30 8165 H 769.123 -1.95971 -2.81869 0
M  V30 8166 N 771.568 1.50203 -0.477153 0
M  V30 8167 C 772.515 2.28656 0.31386 0
M  V30 8168 C 773.485 1.33977 0.981802 0
M  V30 8169 O 774.67 1.62919 0.993072 0
M  V30 8170 C 771.81 3.16027 1.38639 0
M  V30 8171 C 770.923 4.25743 0.732615 0
M  V30 8172 C 770.058 5.00363 1.78355 0
M  V30 8173 C 769.097 6.01945 1.11035 0
M  V30 8174 N 768.234 6.6982 2.10441 0
M  V30 8175 H 773.074 2.958 -0.361445 0
M  V30 8176 H 770.611 1.45867 -0.190093 0
M  V30 8177 H 772.569 3.6504 2.01994 0
M  V30 8178 H 771.199 2.50917 2.03077 0
M  V30 8179 H 770.251 3.80398 -0.0136546 0
M  V30 8180 H 771.563 4.98393 0.201513 0
M  V30 8181 H 770.717 5.53124 2.49276 0
M  V30 8182 H 769.456 4.27432 2.34847 0
M  V30 8183 H 768.461 5.48438 0.386797 0
M  V30 8184 H 769.686 6.76851 0.552248 0
M  V30 8185 H 767.632 5.99677 2.65939 0
M  V30 8186 H 767.549 7.38366 1.62332 0
M  V30 8187 H 768.817 7.27196 2.80724 0
M  V30 8188 N 773.046 0.209999 1.56195 0
M  V30 8189 C 774.274 -0.429996 2.02382 0
M  V30 8190 C 774.689 -1.54159 1.08998 0
M  V30 8191 O 774.046 -1.82239 0.0974856 0
M  V30 8192 C 774.097 -0.972433 3.48175 0
M  V30 8193 O 773.818 0.0948231 4.37997 0
M  V30 8194 C 775.319 -1.68683 4.09952 0
M  V30 8195 H 772.539 -0.106475 0.662498 0
M  V30 8196 H 775.083 0.323072 2.01932 0
M  V30 8197 H 773.238 -1.67582 3.49278 0
M  V30 8198 H 773.652 -0.31113 5.23576 0
M  V30 8199 H 775.126 -2.01851 5.13771 0
M  V30 8200 H 775.603 -2.59587 3.54276 0
M  V30 8201 H 776.209 -1.02893 4.12666 0
M  V30 8202 N 774.524 -1.57472 -0.0634922 0
M  V30 8203 C 775.771 -1.87654 -0.761066 0
M  V30 8204 C 776.099 -0.802847 -1.77157 0
M  V30 8205 O 775.354 0.200244 -1.94673 0
M  V30 8206 C 775.653 -3.24521 -1.49736 0
M  V30 8207 C 775.319 -4.46532 -0.626065 0
M  V30 8208 C 773.981 -4.7965 -0.385978 0
M  V30 8209 C 776.333 -5.21195 -0.0224001 0
M  V30 8210 C 773.661 -5.84837 0.467118 0
M  V30 8211 C 776.013 -6.27286 0.818198 0
M  V30 8212 C 774.677 -6.58899 1.06808 0
M  V30 8213 H 773.947 -0.686675 -0.278494 0
M  V30 8214 H 776.594 -1.91488 -0.0216348 0
M  V30 8215 H 774.899 -3.16516 -2.30921 0
M  V30 8216 H 776.596 -3.45111 -2.04204 0
M  V30 8217 H 773.186 -4.20618 -0.823325 0
M  V30 8218 H 777.37 -4.95917 -0.194985 0
M  V30 8219 H 772.626 -6.07725 0.669375 0
M  V30 8220 H 776.8 -6.84298 1.29265 0
M  V30 8221 H 774.427 -7.40233 1.73088 0
M  V30 8222 N 776.003 0.335068 -1.53997 0
M  V30 8223 C 777.249 1.07222 -1.72844 0
M  V30 8224 C 777.604 1.86054 -0.490075 0
M  V30 8225 O 776.897 1.84481 0.517416 0
M  V30 8226 C 777.091 2.0364 -2.9371 0
M  V30 8227 C 776.92 1.34287 -4.29182 0
M  V30 8228 C 775.69 1.08417 -4.93532 0
M  V30 8229 C 777.888 0.764703 -5.08583 0
M  V30 8230 N 775.87 0.357342 -6.12859 0
M  V30 8231 C 777.241 0.168876 -6.1977 0
M  V30 8232 C 779.296 0.666383 -4.9342 0
M  V30 8233 C 777.999 -0.515716 -7.17449 0
M  V30 8234 C 780.025 -0.0044859 -5.914 0
M  V30 8235 C 779.387 -0.589305 -7.01931 0
M  V30 8236 H 775.486 0.376448 -0.685427 0
M  V30 8237 H 778.07 0.354778 -1.9144 0
M  V30 8238 H 776.241 2.72668 -2.76599 0
M  V30 8239 H 777.973 2.70256 -3.01237 0
M  V30 8240 H 774.728 1.37351 -4.53246 0
M  V30 8241 H 775.152 0.00840481 -6.76999 0
M  V30 8242 H 779.794 1.10426 -4.08125 0
M  V30 8243 H 777.512 -0.965457 -8.02312 0
M  V30 8244 H 781.098 -0.0800446 -5.81745 0
M  V30 8245 H 779.978 -1.10019 -7.76444 0
M  V30 8246 N 777.481 1.45874 0.596531 0
M  V30 8247 C 778.429 1.55739 1.72766 0
M  V30 8248 C 779.423 0.426666 1.63939 0
M  V30 8249 O 780.629 0.60301 1.69599 0
M  V30 8250 H 777.004 0.489386 0.570968 0
M  V30 8251 H 778.975 2.50871 1.61575 0
M  V30 8252 C 777.724 1.55174 3.11153 0
M  V30 8253 H 777.047 2.41511 3.1861 0
M  V30 8254 H 778.487 1.66133 3.90097 0
M  V30 8255 C 776.946 0.278001 3.35751 0
M  V30 8256 O 777.476 -0.637557 3.96608 0
M  V30 8257 N 775.682 0.170227 2.90101 0
M  V30 8258 H 775.229 0.916159 2.40758 0
M  V30 8259 H 775.187 -0.68117 3.06932 0
M  V30 8260 N 778.959 -0.83999 1.33349 0
M  V30 8261 C 779.889 -1.965 1.26135 0
M  V30 8262 C 780.87 -1.69505 0.142152 0
M  V30 8263 O 782.055 -1.91346 0.331743 0
M  V30 8264 C 779.185 -3.32632 0.99866 0
M  V30 8265 C 778.139 -3.74021 2.08068 0
M  V30 8266 C 777.465 -5.07947 1.67014 0
M  V30 8267 C 778.765 -3.87925 3.49731 0
M  V30 8268 H 780.459 -2.02793 2.20262 0
M  V30 8269 H 778.005 -0.974297 1.06035 0
M  V30 8270 H 779.958 -4.10903 0.934696 0
M  V30 8271 H 778.682 -3.26593 0.0217759 0
M  V30 8272 H 777.341 -2.98012 2.13505 0
M  V30 8273 H 776.989 -4.98378 0.680316 0
M  V30 8274 H 776.689 -5.36611 2.39422 0
M  V30 8275 H 778.213 -5.88695 1.62082 0
M  V30 8276 H 779.627 -4.5651 3.46802 0
M  V30 8277 H 778.024 -4.28023 4.20614 0
M  V30 8278 H 779.094 -2.90407 3.88319 0
M  V30 8279 N 780.437 -1.16799 -1.0581 0
M  V30 8280 C 781.685 -0.950642 -1.78346 0
M  V30 8281 C 782.006 0.522524 -1.87869 0
M  V30 8282 O 781.276 1.3795 -1.39092 0
M  V30 8283 H 779.856 -0.348736 -0.6606 0
M  V30 8284 H 782.518 -1.47158 -1.27791 0
M  V30 8285 H 781.614 -1.37359 -2.80248 0
M  V30 8286 N 781.915 1.24427 -0.967243 0
M  V30 8287 C 783.145 1.96256 -0.64554 0
M  V30 8288 C 783.553 1.71959 0.789098 0
M  V30 8289 O 782.896 0.999913 1.54102 0
M  V30 8290 C 782.958 3.49553 -0.839798 0
M  V30 8291 C 782.622 3.97548 -2.25399 0
M  V30 8292 C 783.619 4.07257 -3.23168 0
M  V30 8293 C 781.304 4.30884 -2.58156 0
M  V30 8294 C 783.298 4.49635 -4.51782 0
M  V30 8295 C 780.985 4.72946 -3.86996 0
M  V30 8296 C 781.983 4.82286 -4.83621 0
M  V30 8297 O 781.671 5.23409 -6.10162 0
M  V30 8298 H 781.403 0.632002 -0.239895 0
M  V30 8299 H 783.957 1.59224 -1.29757 0
M  V30 8300 H 782.187 3.86479 -0.130603 0
M  V30 8301 H 783.876 4.02591 -0.517249 0
M  V30 8302 H 784.642 3.8172 -2.9919 0
M  V30 8303 H 780.521 4.22833 -1.83666 0
M  V30 8304 H 784.065 4.5684 -5.27203 0
M  V30 8305 H 779.962 4.9793 -4.10775 0
M  V30 8306 H 780.73 5.4156 -6.13722 0
M  V30 8307 N 783.393 0.737304 1.3929 0
M  V30 8308 C 784.639 0.295581 2.01241 0
M  V30 8309 C 784.994 -1.10561 1.57461 0
M  V30 8310 O 784.287 -1.74346 0.7946 0
M  V30 8311 C 784.481 0.338438 3.55794 0
M  V30 8312 C 784.31 1.74225 4.14579 0
M  V30 8313 C 783.08 2.35502 4.47065 0
M  V30 8314 C 785.278 2.69623 4.37959 0
M  V30 8315 N 783.26 3.68014 4.91365 0
M  V30 8316 C 784.631 3.86873 4.84489 0
M  V30 8317 C 786.686 2.67355 4.2003 0
M  V30 8318 C 785.389 5.02193 5.14971 0
M  V30 8319 C 787.415 3.8182 4.51627 0
M  V30 8320 C 786.777 4.97806 4.98366 0
M  V30 8321 H 782.876 0.154468 0.766592 0
M  V30 8322 H 785.46 0.963768 1.69173 0
M  V30 8323 H 783.631 -0.299406 3.87244 0
M  V30 8324 H 785.363 -0.122053 4.04516 0
M  V30 8325 H 782.118 1.87406 4.34943 0
M  V30 8326 H 782.542 4.36051 5.17869 0
M  V30 8327 H 787.184 1.78876 3.83097 0
M  V30 8328 H 784.902 5.913 5.50809 0
M  V30 8329 H 788.488 3.81366 4.39376 0
M  V30 8330 H 787.368 5.84909 5.22351 0
M  V30 8331 N 784.871 -1.49948 0.485112 0
M  V30 8332 C 785.801 -2.31675 -0.291364 0
M  V30 8333 C 786.782 -1.39216 -0.977383 0
M  V30 8334 O 787.967 -1.68133 -0.971855 0
M  V30 8335 C 785.097 -3.19326 -1.36558 0
M  V30 8336 C 784.051 -4.2045 -0.800359 0
M  V30 8337 C 783.377 -4.96931 -1.97391 0
M  V30 8338 C 784.677 -5.21925 0.197867 0
M  V30 8339 H 786.371 -2.96839 0.390775 0
M  V30 8340 H 783.917 -1.42749 0.189375 0
M  V30 8341 H 785.87 -3.75304 -1.91638 0
M  V30 8342 H 784.594 -2.52074 -2.07668 0
M  V30 8343 H 783.253 -3.65594 -0.271428 0
M  V30 8344 H 782.901 -4.26141 -2.67232 0
M  V30 8345 H 782.601 -5.65344 -1.60187 0
M  V30 8346 H 784.125 -5.55749 -2.52935 0
M  V30 8347 H 785.539 -5.72691 -0.264239 0
M  V30 8348 H 783.936 -5.98138 0.484908 0
M  V30 8349 H 785.006 -4.71809 1.11912 0
M  V30 8350 N 786.349 -0.21828 -1.56081 0
M  V30 8351 C 787.589 0.416193 -2.00118 0
M  V30 8352 C 787.953 1.5718 -1.10265 0
M  V30 8353 O 789.154 2.27206 -1.43635 0
M  V30 8354 C 787.425 0.842781 -3.47321 0
M  V30 8355 S 788.984 1.47182 -4.1338 0
M  V30 8356 H 785.802 0.132219 -0.698598 0
M  V30 8357 H 788.404 -0.326799 -1.92749 0
M  V30 8358 H 787.108 -0.00799925 -4.10399 0
M  V30 8359 H 786.639 1.61867 -3.58556 0
M  V30 8360 H 788.654 2.76087 -4.12299 0
M  V30 8361 N 787.827 1.57504 0.0551401 0
M  V30 8362 C 789.057 1.92015 0.762472 0
M  V30 8363 C 789.465 0.814088 1.7079 0
M  V30 8364 O 788.808 -0.220273 1.82375 0
M  V30 8365 C 788.87 3.22132 1.59598 0
M  V30 8366 C 788.534 4.49617 0.818141 0
M  V30 8367 C 789.531 5.19738 0.129933 0
M  V30 8368 C 787.216 4.96201 0.780387 0
M  V30 8369 C 789.21 6.34704 -0.585616 0
M  V30 8370 C 786.897 6.11069 0.0610756 0
M  V30 8371 C 787.895 6.80174 -0.62071 0
M  V30 8372 O 787.583 7.92849 -1.3284 0
M  V30 8373 H 787.315 0.638866 0.220967 0
M  V30 8374 H 789.869 2.05385 0.0246362 0
M  V30 8375 H 788.099 3.05016 2.37701 0
M  V30 8376 H 789.788 3.42166 2.18351 0
M  V30 8377 H 790.554 4.84767 0.150299 0
M  V30 8378 H 786.433 4.42275 1.30054 0
M  V30 8379 H 789.977 6.88578 -1.11833 0
M  V30 8380 H 785.874 6.45488 0.0386945 0
M  V30 8381 H 786.642 8.09062 -1.23938 0
M  V30 8382 N 789.305 -0.326896 1.54172 0
M  V30 8383 C 790.554 -1.06274 1.71431 0
M  V30 8384 C 790.867 -1.89282 0.493123 0
M  V30 8385 O 792.073 -2.65933 0.54699 0
M  V30 8386 C 790.529 -1.93892 3.03206 0
M  V30 8387 C 790.137 -1.16011 4.32719 0
M  V30 8388 C 791.881 -2.67232 3.29829 0
M  V30 8389 C 789.788 -2.02755 5.55558 0
M  V30 8390 H 788.718 -0.400475 0.638855 0
M  V30 8391 H 791.369 -0.321184 1.80667 0
M  V30 8392 H 789.751 -2.71933 2.87869 0
M  V30 8393 H 790.925 -0.427643 4.58811 0
M  V30 8394 H 789.24 -0.54367 4.12836 0
M  V30 8395 H 791.837 -3.32434 4.18798 0
M  V30 8396 H 792.18 -3.34692 2.47562 0
M  V30 8397 H 792.713 -1.96255 3.46018 0
M  V30 8398 H 789.452 -1.3981 6.40417 0
M  V30 8399 H 788.972 -2.73745 5.33689 0
M  V30 8400 H 790.651 -2.61419 5.91835 0
M  V30 8401 N 790.784 -1.46188 -0.588786 0
M  V30 8402 C 791.732 -1.56653 -1.71938 0
M  V30 8403 C 792.726 -0.435354 -1.6371 0
M  V30 8404 O 793.932 -0.611996 -1.69277 0
M  V30 8405 H 790.307 -0.492408 -0.568365 0
M  V30 8406 H 792.278 -2.51724 -1.60242 0
M  V30 8407 C 791.027 -1.56822 -3.10326 0
M  V30 8408 H 790.35 -2.43198 -3.17325 0
M  V30 8409 H 791.79 -1.68199 -3.89211 0
M  V30 8410 C 790.249 -0.295802 -3.35599 0
M  V30 8411 O 790.779 0.616515 -3.96941 0
M  V30 8412 N 788.985 -0.185609 -2.90007 0
M  V30 8413 H 788.532 -0.928914 -2.40269 0
M  V30 8414 H 788.49 0.664883 -3.07289 0
M  V30 8415 N 792.262 0.832906 -1.33792 0
M  V30 8416 C 793.487 1.62568 -1.28788 0
M  V30 8417 C 793.912 1.87599 0.137246 0
M  V30 8418 O 793.27 1.44436 1.0958 0
M  V30 8419 C 793.318 2.9495 -2.07453 0
M  V30 8420 O 792.422 3.86546 -1.43722 0
M  V30 8421 H 791.763 0.494809 -0.442787 0
M  V30 8422 H 794.293 1.03578 -1.76445 0
M  V30 8423 H 794.303 3.44599 -2.1844 0
M  V30 8424 H 792.978 2.76055 -3.11073 0
M  V30 8425 H 791.555 3.45044 -1.41417 0
M  V30 8426 N 793.74 1.17359 1.05189 0
M  V30 8427 C 794.968 0.986529 1.81866 0
M  V30 8428 C 795.383 -0.46522 1.82979 0
M  V30 8429 O 794.74 -1.32305 1.25705 0
M  V30 8430 C 794.791 1.52021 3.27982 0
M  V30 8431 O 794.512 2.91511 3.27037 0
M  V30 8432 C 796.013 1.37774 4.21347 0
M  V30 8433 H 793.233 0.349021 0.573084 0
M  V30 8434 H 795.777 1.55648 1.32643 0
M  V30 8435 H 793.932 0.992287 3.74476 0
M  V30 8436 H 794.346 3.16178 4.18488 0
M  V30 8437 H 795.82 1.7993 5.21852 0
M  V30 8438 H 796.297 0.32483 4.37997 0
M  V30 8439 H 796.903 1.89583 3.80708 0
M  V30 8440 N 795.218 -1.23913 0.973828 0
M  V30 8441 C 796.464 -1.92436 0.640026 0
M  V30 8442 C 796.797 -1.75875 -0.823512 0
M  V30 8443 O 796.072 -1.11563 -1.59323 0
M  V30 8444 C 796.355 -3.4526 1.0231 0
M  V30 8445 C 796.208 -3.70961 2.54378 0
M  V30 8446 C 797.527 -4.36495 0.562155 0
M  V30 8447 H 794.646 -0.698868 0.233992 0
M  V30 8448 H 797.288 -1.46163 1.21393 0
M  V30 8449 H 795.438 -3.84802 0.534751 0
M  V30 8450 H 797.11 -3.40941 3.10737 0
M  V30 8451 H 795.353 -3.15899 2.97305 0
M  V30 8452 H 796.024 -4.77912 2.76232 0
M  V30 8453 H 798.5 -4.04363 0.981333 0
M  V30 8454 H 797.376 -5.42142 0.858689 0
M  V30 8455 H 797.637 -4.38818 -0.537659 0
M  V30 8456 N 796.696 -0.74468 -1.38897 0
M  V30 8457 C 797.644 -0.100312 -2.32384 0
M  V30 8458 C 798.638 0.715191 -1.53562 0
M  V30 8459 O 799.844 0.615288 -1.69157 0
M  V30 8460 H 796.219 -0.0136403 -0.751876 0
M  V30 8461 H 798.19 -0.905007 -2.84345 0
M  V30 8462 C 796.939 0.785432 -3.38713 0
M  V30 8463 H 796.262 0.167308 -3.9945 0
M  V30 8464 H 797.702 1.20374 -4.06554 0
M  V30 8465 C 796.161 1.92408 -2.76552 0
M  V30 8466 O 796.691 3.01752 -2.65157 0
M  V30 8467 N 794.897 1.71642 -2.34494 0
M  V30 8468 H 794.444 0.827079 -2.43961 0
M  V30 8469 H 794.402 2.48 -1.93244 0
M  V30 8470 N 798.174 1.49689 -0.493057 0
M  V30 8471 C 799.585 1.8665 -0.0433032 0
M  V30 8472 C 799.936 1.40607 1.36836 0
M  V30 8473 O 799.061 0.780503 2.01834 0
M  V30 8474 C 799.656 3.38724 -0.0718069 0
M  V30 8475 C 798.215 3.75015 0.32257 0
M  V30 8476 C 797.362 2.7366 -0.4478 0
M  V30 8477 H 800.313 1.42119 -0.706246 0
M  V30 8478 H 800.334 3.73522 0.725347 0
M  V30 8479 H 799.846 3.72204 -1.09935 0
M  V30 8480 H 797.947 3.47142 1.35364 0
M  V30 8481 H 798.06 4.79099 0.00864259 0
M  V30 8482 H 796.424 2.54498 0.101354 0
M  V30 8483 H 797.207 3.09985 -1.47527 0
M  V30 8484 N 799.652 0.226554 1.55963 0
M  V30 8485 C 800.898 -0.404387 1.98727 0
M  V30 8486 C 801.231 -1.59059 1.11418 0
M  V30 8487 O 800.506 -1.93729 0.172971 0
M  V30 8488 C 800.789 -0.834081 3.50307 0
M  V30 8489 C 800.642 0.356104 4.48388 0
M  V30 8490 C 801.961 -1.68845 4.06423 0
M  V30 8491 H 799.08 -0.145515 0.722492 0
M  V30 8492 H 801.722 0.323791 1.87221 0
M  V30 8493 H 799.872 -1.45454 3.60244 0
M  V30 8494 H 801.544 0.99432 4.50456 0
M  V30 8495 H 799.787 1.0027 4.22053 0
M  V30 8496 H 800.458 0.0124333 5.51999 0
M  V30 8497 H 802.934 -1.16489 3.99461 0
M  V30 8498 H 801.81 -1.958 5.1279 0
M  V30 8499 H 802.071 -2.65347 3.53615 0
M  V30 8500 N 801.13 -1.57531 -0.0467866 0
M  V30 8501 C 802.37 -1.90294 -0.746171 0
M  V30 8502 C 802.734 -0.823194 -1.73458 0
M  V30 8503 O 803.935 -1.03463 -2.48091 0
M  V30 8504 C 802.206 -3.28249 -1.41378 0
M  V30 8505 S 803.765 -3.82812 -2.14477 0
M  V30 8506 H 800.583 -0.666496 -0.247598 0
M  V30 8507 H 803.185 -1.955 -0.00135143 0
M  V30 8508 H 801.889 -4.04712 -0.680937 0
M  V30 8509 H 801.42 -3.26302 -2.19751 0
M  V30 8510 H 803.435 -3.60111 -3.41372 0
M  V30 8511 N 802.608 0.318715 -1.54344 0
M  V30 8512 C 803.838 1.07394 -1.76494 0
M  V30 8513 C 804.246 1.82031 -0.515881 0
M  V30 8514 O 803.589 1.7609 0.52325 0
M  V30 8515 C 803.651 2.11401 -2.90775 0
M  V30 8516 C 803.315 1.56118 -4.29507 0
M  V30 8517 C 804.312 1.00043 -5.10184 0
M  V30 8518 C 801.997 1.60215 -4.76063 0
M  V30 8519 C 803.991 0.487993 -6.35529 0
M  V30 8520 C 801.678 1.08584 -6.01376 0
M  V30 8521 C 802.676 0.529714 -6.80943 0
M  V30 8522 O 802.364 0.0211823 -8.03897 0
M  V30 8523 H 802.096 0.325061 -0.592715 0
M  V30 8524 H 804.65 0.36901 -2.02058 0
M  V30 8525 H 802.88 2.85524 -2.60793 0
M  V30 8526 H 804.569 2.72683 -3.00664 0
M  V30 8527 H 805.335 0.961811 -4.75367 0
M  V30 8528 H 801.214 2.02441 -4.14172 0
M  V30 8529 H 804.758 0.0532608 -6.9758 0
M  V30 8530 H 800.655 1.12155 -6.35682 0
M  V30 8531 H 801.423 0.136151 -8.18387 0
M  V30 8532 N 804.086 1.46499 0.581025 0
M  V30 8533 C 805.049 1.5677 1.672 0
M  V30 8534 C 806.049 0.444716 1.54528 0
M  V30 8535 O 807.239 0.709074 1.59116 0
M  V30 8536 C 804.371 1.4896 3.06633 0
M  V30 8537 H 805.564 2.54 1.5945 0
M  V30 8538 H 803.117 1.34334 0.799003 0
M  V30 8539 H 803.852 0.530168 3.19937 0
M  V30 8540 H 803.637 2.30439 3.17239 0
M  V30 8541 H 805.127 1.59237 3.86048 0
M  V30 8542 N 805.565 -0.825799 1.34232 0
M  V30 8543 C 806.495 -1.95151 1.28212 0
M  V30 8544 C 807.476 -1.69345 0.160123 0
M  V30 8545 O 808.661 -1.90983 0.352019 0
M  V30 8546 C 805.791 -3.31554 1.03388 0
M  V30 8547 C 804.745 -3.71793 2.12023 0
M  V30 8548 C 804.071 -5.06147 1.72392 0
M  V30 8549 C 805.371 -3.84193 3.53826 0
M  V30 8550 H 807.065 -2.00445 2.22401 0
M  V30 8551 H 804.611 -0.962996 1.07063 0
M  V30 8552 H 806.564 -4.09889 0.978225 0
M  V30 8553 H 805.288 -3.26551 0.0564142 0
M  V30 8554 H 803.947 -2.95731 2.16654 0
M  V30 8555 H 803.595 -4.97628 0.733137 0
M  V30 8556 H 803.295 -5.34041 2.451 0
M  V30 8557 H 804.819 -5.86943 1.68317 0
M  V30 8558 H 806.233 -4.52806 3.51624 0
M  V30 8559 H 804.63 -4.23538 4.2513 0
M  V30 8560 H 805.7 -2.86272 3.91377 0
M  V30 8561 N 807.043 -1.17915 -1.04565 0
M  V30 8562 C 808.283 -0.982331 -1.79247 0
M  V30 8563 C 808.647 0.47998 -1.85904 0
M  V30 8564 O 809.848 0.796078 -2.56741 0
M  V30 8565 C 808.119 -1.61329 -3.18916 0
M  V30 8566 S 809.678 -1.56355 -4.09998 0
M  V30 8567 H 806.496 -0.352869 -0.617256 0
M  V30 8568 H 809.098 -1.49971 -1.25415 0
M  V30 8569 H 807.802 -2.66993 -3.11678 0
M  V30 8570 H 807.333 -1.09599 -3.77825 0
M  V30 8571 H 809.348 -0.57593 -4.92846 0
M  V30 8572 N 808.521 1.23394 -0.980386 0
M  V30 8573 C 809.469 2.26872 -0.513018 0
M  V30 8574 C 810.463 1.63853 0.429948 0
M  V30 8575 O 811.669 1.77417 0.303842 0
M  V30 8576 H 808.044 0.737398 -0.147473 0
M  V30 8577 H 810.015 2.63654 -1.39746 0
M  V30 8578 C 808.764 3.47289 0.168962 0
M  V30 8579 H 808.087 3.96033 -0.547546 0
M  V30 8580 H 809.527 4.21502 0.459616 0
M  V30 8581 C 807.986 3.06425 1.40019 0
M  V30 8582 O 808.516 3.14708 2.49643 0
M  V30 8583 N 806.722 2.61339 1.27084 0
M  V30 8584 H 806.269 2.54799 0.378872 0
M  V30 8585 H 806.227 2.34364 2.09573 0
M  V30 8586 N 809.999 0.752036 1.385 0
M  V30 8587 C 810.946 0.123288 2.3047 0
M  V30 8588 C 811.916 -0.711326 1.50098 0
M  V30 8589 O 813.101 -0.667775 1.78733 0
M  V30 8590 C 810.241 -0.765085 3.36512 0
M  V30 8591 C 809.354 0.0839885 4.31918 0
M  V30 8592 C 808.489 -0.807243 5.25031 0
M  V30 8593 C 807.528 0.0455583 6.12083 0
M  V30 8594 N 806.665 -0.802547 6.97498 0
M  V30 8595 H 811.505 0.913169 2.83664 0
M  V30 8596 H 809.042 0.46195 1.39658 0
M  V30 8597 H 811 -1.29476 3.966 0
M  V30 8598 H 809.63 -1.52077 2.84732 0
M  V30 8599 H 808.682 0.731276 3.73305 0
M  V30 8600 H 809.994 0.74265 4.9324 0
M  V30 8601 H 809.148 -1.40414 5.90228 0
M  V30 8602 H 807.887 -1.49964 4.64071 0
M  V30 8603 H 806.892 0.655137 5.45883 0
M  V30 8604 H 808.117 0.734994 6.75111 0
M  V30 8605 H 806.063 -1.47992 6.39089 0
M  V30 8606 H 805.98 -0.200747 7.55733 0
M  V30 8607 H 807.248 -1.38447 7.67107 0
M  V30 8608 N 811.477 -1.49425 0.500989 0
M  V30 8609 C 812.705 -2.06861 -0.0403443 0
M  V30 8610 C 813.12 -1.36132 -1.30819 0
M  V30 8611 O 812.477 -0.439647 -1.77125 0
M  V30 8612 C 812.528 -3.6027 -0.297902 0
M  V30 8613 O 812.249 -4.28338 0.919686 0
M  V30 8614 C 813.75 -4.34419 -0.882876 0
M  V30 8615 H 810.97 -0.670688 0.0204619 0
M  V30 8616 H 813.514 -1.92207 0.698342 0
M  V30 8617 H 811.669 -3.74627 -0.98657 0
M  V30 8618 H 812.083 -5.2004 0.682528 0
M  V30 8619 H 813.557 -5.42631 -1.01268 0
M  V30 8620 H 814.034 -3.96898 -1.88066 0
M  V30 8621 H 814.64 -4.24669 -0.231677 0
M  V30 8622 N 812.955 -0.234822 -1.55841 0
M  V30 8623 C 814.202 0.39326 -1.98645 0
M  V30 8624 C 814.53 1.58823 -1.12274 0
M  V30 8625 O 813.785 1.94954 -0.170731 0
M  V30 8626 C 814.084 0.858032 -3.46947 0
M  V30 8627 C 813.75 -0.227858 -4.50324 0
M  V30 8628 C 812.412 -0.526128 -4.78315 0
M  V30 8629 C 814.764 -0.961576 -5.12253 0
M  V30 8630 C 812.092 -1.5624 -5.65514 0
M  V30 8631 C 814.444 -1.98728 -6.00575 0
M  V30 8632 C 813.108 -2.29233 -6.26904 0
M  V30 8633 H 812.378 0.143904 -0.726892 0
M  V30 8634 H 815.025 -0.34012 -1.88455 0
M  V30 8635 H 813.33 1.67041 -3.54408 0
M  V30 8636 H 815.027 1.35407 -3.77447 0
M  V30 8637 H 811.617 0.0147624 -4.28597 0
M  V30 8638 H 815.801 -0.744388 -4.90686 0
M  V30 8639 H 811.057 -1.80422 -5.84173 0
M  V30 8640 H 815.231 -2.5608 -6.47608 0
M  V30 8641 H 812.858 -3.09671 -6.94268 0
M  V30 8642 N 814.433 1.57553 0.0384317 0
M  V30 8643 C 815.849 1.54663 0.39391 0
M  V30 8644 C 816.049 0.959685 1.77179 0
M  V30 8645 O 815.105 0.576647 2.45827 0
M  V30 8646 C 816.418 2.99156 0.304352 0
M  V30 8647 C 817.966 3.10659 0.382119 0
M  V30 8648 C 818.441 4.56866 0.322111 0
M  V30 8649 N 819.932 4.61629 0.38119 0
M  V30 8650 C 820.667 5.72284 0.357501 0
M  V30 8651 N 820.163 6.92207 0.286654 0
M  V30 8652 N 821.956 5.60628 0.406538 0
M  V30 8653 H 814.107 1.9406 -0.86339 0
M  V30 8654 H 816.37 0.889673 -0.327392 0
M  V30 8655 H 816.076 3.45788 -0.642141 0
M  V30 8656 H 815.95 3.60753 1.10168 0
M  V30 8657 H 818.337 2.6398 1.31904 0
M  V30 8658 H 818.418 2.5191 -0.444391 0
M  V30 8659 H 818.062 5.0421 -0.611104 0
M  V30 8660 H 817.992 5.13515 1.1666 0
M  V30 8661 H 820.483 3.75343 0.438838 0
M  V30 8662 H 820.796 7.72316 0.273421 0
M  V30 8663 H 819.141 6.9454 0.252841 0
M  V30 8664 H 822.332 4.65836 0.459812 0
M  V30 8665 H 822.505 6.46858 0.384608 0
M  V30 8666 N 815.911 -0.310526 1.54511 0
M  V30 8667 C 817.139 -1.06611 1.77318 0
M  V30 8668 C 817.554 -1.81265 0.528043 0
M  V30 8669 O 816.911 -1.75466 -0.50178 0
M  V30 8670 C 816.962 -2.05409 2.97472 0
M  V30 8671 O 816.683 -1.33785 4.17173 0
M  V30 8672 C 818.184 -2.93082 3.32593 0
M  V30 8673 H 815.404 -0.316578 0.591624 0
M  V30 8674 H 817.948 -0.352691 2.01436 0
M  V30 8675 H 816.103 -2.72266 2.7559 0
M  V30 8676 H 816.517 -2.00055 4.84849 0
M  V30 8677 H 817.991 -3.58274 4.19933 0
M  V30 8678 H 818.468 -3.60877 2.50329 0
M  V30 8679 H 819.074 -2.31768 3.566 0
M  V30 8680 N 817.389 -1.46805 -0.573248 0
M  V30 8681 C 818.617 -1.56191 -1.3569 0
M  V30 8682 C 819.032 -0.206362 -1.87669 0
M  V30 8683 O 818.389 0.797883 -1.64134 0
M  V30 8684 C 818.44 -2.57433 -2.53792 0
M  V30 8685 O 818.161 -3.87724 -2.03965 0
M  V30 8686 C 819.662 -2.76851 -3.4622 0
M  V30 8687 H 816.882 -0.527907 -0.414192 0
M  V30 8688 H 819.426 -1.92292 -0.695989 0
M  V30 8689 H 817.581 -2.24311 -3.15854 0
M  V30 8690 H 817.995 -4.42909 -2.80948 0
M  V30 8691 H 819.469 -3.5159 -4.25545 0
M  V30 8692 H 819.946 -1.84095 -3.98755 0
M  V30 8693 H 820.552 -3.11107 -2.89987 0
M  V30 8694 N 818.867 0.818669 -1.34668 0
M  V30 8695 C 820.114 1.57512 -1.27264 0
M  V30 8696 C 820.442 1.93871 0.156254 0
M  V30 8697 O 819.697 1.60582 1.11857 0
M  V30 8698 C 819.996 2.88245 -2.11304 0
M  V30 8699 C 819.662 2.71159 -3.60255 0
M  V30 8700 C 818.324 2.66207 -4.00858 0
M  V30 8701 C 820.676 2.54538 -4.54819 0
M  V30 8702 C 818.004 2.4256 -5.34211 0
M  V30 8703 C 820.356 2.32421 -5.88356 0
M  V30 8704 C 819.02 2.25884 -6.28118 0
M  V30 8705 H 818.29 0.576378 -0.465692 0
M  V30 8706 H 820.937 0.9469 -1.66451 0
M  V30 8707 H 819.242 3.55381 -1.64958 0
M  V30 8708 H 820.939 3.45869 -2.02919 0
M  V30 8709 H 817.529 2.75856 -3.28027 0
M  V30 8710 H 821.713 2.57384 -4.24343 0
M  V30 8711 H 816.969 2.35959 -5.64033 0
M  V30 8712 H 821.143 2.18548 -6.61218 0
M  V30 8713 H 818.77 2.07322 -7.31383 0
M  V30 8714 N 820.346 1.18468 1.03938 0
M  V30 8715 C 821.293 0.912859 2.1198 0
M  V30 8716 C 822.263 -0.14824 1.65437 0
M  V30 8717 O 823.448 -0.008331 1.90798 0
M  V30 8718 C 820.588 0.446114 3.42204 0
M  V30 8719 C 819.701 1.57278 4.02353 0
M  V30 8720 C 818.836 1.05863 5.20544 0
M  V30 8721 C 817.875 2.1599 5.72726 0
M  V30 8722 N 817.012 1.65959 6.82204 0
M  V30 8723 H 821.852 1.83798 2.34569 0
M  V30 8724 H 819.389 0.916504 1.15059 0
M  V30 8725 H 821.347 0.15697 4.16905 0
M  V30 8726 H 819.977 -0.442025 3.19759 0
M  V30 8727 H 819.029 1.97737 3.24968 0
M  V30 8728 H 820.341 2.40289 4.37107 0
M  V30 8729 H 819.495 0.724087 6.02364 0
M  V30 8730 H 818.234 0.198116 4.87297 0
M  V30 8731 H 817.239 2.50287 4.89527 0
M  V30 8732 H 818.464 3.02479 6.08016 0
M  V30 8733 H 816.41 0.82199 6.5083 0
M  V30 8734 H 816.327 2.42567 7.16029 0
M  V30 8735 H 817.595 1.35436 7.67644 0
M  V30 8736 N 821.824 -1.22873 0.986916 0
M  V30 8737 C 822.757 -2.23154 0.477245 0
M  V30 8738 C 823.735 -1.55981 -0.459206 0
M  V30 8739 O 824.919 -1.84503 -0.386141 0
M  V30 8740 C 822.046 -3.37289 -0.308838 0
M  V30 8741 C 821.092 -4.22637 0.572717 0
M  V30 8742 S 821.925 -4.95758 2.02446 0
M  V30 8743 C 823.081 -6.13338 1.2477 0
M  V30 8744 H 823.314 -2.6604 1.32702 0
M  V30 8745 H 820.847 -1.32455 0.793415 0
M  V30 8746 H 822.805 -4.03472 -0.756351 0
M  V30 8747 H 821.466 -2.92922 -1.13381 0
M  V30 8748 H 820.659 -5.0399 -0.0318024 0
M  V30 8749 H 820.261 -3.61555 0.956746 0
M  V30 8750 H 822.553 -6.7556 0.51231 0
M  V30 8751 H 823.496 -6.78189 2.03629 0
M  V30 8752 H 823.904 -5.59311 0.763622 0
M  V30 8753 N 823.302 -0.75937 -1.38099 0
M  V30 8754 C 824.232 -0.151077 -2.33011 0
M  V30 8755 C 825.213 0.697099 -1.5516 0
M  V30 8756 O 826.398 0.637101 -1.83452 0
M  V30 8757 C 823.528 0.738423 -3.39359 0
M  V30 8758 C 822.482 -0.0074741 -4.27999 0
M  V30 8759 C 821.808 1.00066 -5.25253 0
M  V30 8760 C 823.108 -1.17926 -5.08813 0
M  V30 8761 H 824.802 -0.943933 -2.84131 0
M  V30 8762 H 822.348 -0.455362 -1.36611 0
M  V30 8763 H 824.301 1.17369 -4.04725 0
M  V30 8764 H 823.025 1.56366 -2.86735 0
M  V30 8765 H 821.684 -0.423379 -3.64147 0
M  V30 8766 H 821.332 1.82012 -4.68914 0
M  V30 8767 H 821.032 0.506199 -5.85416 0
M  V30 8768 H 822.556 1.43512 -5.93495 0
M  V30 8769 H 823.97 -0.821262 -5.67387 0
M  V30 8770 H 822.367 -1.60497 -5.78239 0
M  V30 8771 H 823.437 -1.98938 -4.42212 0
M  V30 8772 N 824.78 1.49157 -0.508906 0
M  V30 8773 C 825.71 2.32109 0.254469 0
M  V30 8774 C 826.691 1.40754 0.955111 0
M  V30 8775 O 827.876 1.69658 0.944983 0
M  V30 8776 C 825.006 3.21458 1.3146 0
M  V30 8777 C 823.96 4.2167 0.733368 0
M  V30 8778 C 823.286 5.00009 1.8946 0
M  V30 8779 C 824.586 5.21544 -0.280875 0
M  V30 8780 H 826.28 2.9618 -0.43795 0
M  V30 8781 H 823.826 1.4243 -0.212062 0
M  V30 8782 H 825.779 3.78305 1.85643 0
M  V30 8783 H 824.503 2.55346 2.03632 0
M  V30 8784 H 823.162 3.65979 0.213231 0
M  V30 8785 H 822.81 4.30338 2.60419 0
M  V30 8786 H 822.51 5.67821 1.51173 0
M  V30 8787 H 824.034 5.59702 2.44061 0
M  V30 8788 H 825.448 5.73039 0.173095 0
M  V30 8789 H 823.845 5.97291 -0.580006 0
M  V30 8790 H 824.915 4.69969 -1.19404 0
M  V30 8791 N 826.258 0.243083 1.55714 0
M  V30 8792 C 827.188 -0.652336 2.24203 0
M  V30 8793 C 828.169 -1.1843 1.221 0
M  V30 8794 O 829.354 -1.22435 1.50743 0
M  V30 8795 C 826.484 -1.85111 2.93856 0
M  V30 8796 C 825.438 -1.45208 4.02615 0
M  V30 8797 C 824.764 -2.73137 4.59674 0
M  V30 8798 C 826.064 -0.625988 5.18535 0
M  V30 8799 H 827.758 -0.0812504 2.9929 0
M  V30 8800 H 825.304 -0.0376388 1.43951 0
M  V30 8801 H 827.257 -2.48314 3.40468 0
M  V30 8802 H 825.981 -2.44751 2.16251 0
M  V30 8803 H 824.64 -0.843406 3.56766 0
M  V30 8804 H 824.288 -3.30967 3.78774 0
M  V30 8805 H 823.988 -2.47163 5.33089 0
M  V30 8806 H 825.512 -3.37245 5.09017 0
M  V30 8807 H 826.926 -1.16223 5.61396 0
M  V30 8808 H 825.323 -0.462465 5.98315 0
M  V30 8809 H 826.393 0.362652 4.83542 0
M  V30 8810 N 827.736 -1.57571 -0.0300757 0
M  V30 8811 C 828.976 -1.91074 -0.725946 0
M  V30 8812 C 829.34 -0.841545 -1.72575 0
M  V30 8813 O 830.541 -1.06088 -2.46979 0
M  V30 8814 C 828.812 -3.2973 -1.37888 0
M  V30 8815 S 830.371 -3.85065 -2.10405 0
M  V30 8816 H 827.189 -0.669084 -0.240515 0
M  V30 8817 H 829.791 -1.9549 0.019384 0
M  V30 8818 H 828.495 -4.05411 -0.637974 0
M  V30 8819 H 828.026 -3.28614 -2.16278 0
M  V30 8820 H 830.041 -3.63711 -3.37533 0
M  V30 8821 N 829.214 0.302327 -1.54673 0
M  V30 8822 C 830.146 1.39443 -1.81902 0
M  V30 8823 C 831.159 1.46891 -0.701914 0
M  V30 8824 O 832.348 1.49233 -0.979369 0
M  V30 8825 C 829.448 2.77824 -1.9408 0
M  V30 8826 C 828.621 2.93324 -3.24468 0
M  V30 8827 C 827.68 4.12196 -3.27079 0
M  V30 8828 O 826.706 4.04344 -4.00617 0
M  V30 8829 N 827.908 5.22768 -2.52376 0
M  V30 8830 H 830.673 1.1644 -2.76155 0
M  V30 8831 H 828.234 0.492392 -1.54231 0
M  V30 8832 H 830.226 3.5559 -1.9323 0
M  V30 8833 H 828.796 2.9378 -1.06828 0
M  V30 8834 H 828.016 2.02682 -3.38103 0
M  V30 8835 H 829.304 3.0059 -4.10516 0
M  V30 8836 H 828.702 5.32027 -1.92259 0
M  V30 8837 H 827.259 5.98874 -2.57281 0
M  V30 8838 N 830.692 1.47107 0.565454 0
M  V30 8839 C 831.932 1.5488 1.33385 0
M  V30 8840 C 832.296 0.202804 1.90926 0
M  V30 8841 O 833.497 0.155345 2.68351 0
M  V30 8842 C 831.768 2.62969 2.42037 0
M  V30 8843 S 833.327 2.90269 3.29074 0
M  V30 8844 H 830.145 0.547008 0.454206 0
M  V30 8845 H 832.747 1.8444 0.648228 0
M  V30 8846 H 831.451 3.59376 1.98185 0
M  V30 8847 H 830.982 2.35197 3.15351 0
M  V30 8848 H 832.997 2.26854 4.41307 0
M  V30 8849 N 832.17 -0.811516 1.35101 0
M  V30 8850 C 833.447 -1.55491 1.18667 0
M  V30 8851 C 833.827 -2.09775 -0.236189 0
M  V30 8852 O 833.175 -1.91989 -1.23905 0
M  V30 8853 C 833.385 -2.66732 2.25067 0
M  V30 8854 C 834.733 -3.35201 2.60625 0
M  V30 8855 O 835.757 -2.76998 2.23943 0
M  V30 8856 O 834.616 -4.40334 3.23679 0
M  V30 8857 H 831.71 -0.686783 0.460716 0
M  V30 8858 H 834.256 -0.851903 1.46768 0
M  V30 8859 H 833.028 -2.24457 3.20523 0
M  V30 8860 H 832.651 -3.44673 1.98208 0
M  V30 8861 N 833.648 -1.19017 -1.03309 0
M  V30 8862 C 834.595 -0.924088 -2.11493 0
M  V30 8863 C 835.565 0.139464 -1.65513 0
M  V30 8864 O 836.75 -0.00178761 -1.908 0
M  V30 8865 C 833.89 -0.464255 -3.41963 0
M  V30 8866 C 833.003 -1.5941 -4.01513 0
M  V30 8867 C 832.138 -1.08622 -5.19976 0
M  V30 8868 C 831.177 -2.19024 -5.71572 0
M  V30 8869 N 830.314 -1.69575 -6.81314 0
M  V30 8870 H 835.154 -1.85039 -2.33591 0
M  V30 8871 H 832.691 -0.922593 -1.14572 0
M  V30 8872 H 834.649 -0.179078 -4.16815 0
M  V30 8873 H 833.279 0.425062 -3.19989 0
M  V30 8874 H 832.331 -1.99458 -3.23915 0
M  V30 8875 H 833.643 -2.42604 -4.35826 0
M  V30 8876 H 832.797 -0.756022 -6.01971 0
M  V30 8877 H 831.536 -0.223955 -4.87186 0
M  V30 8878 H 830.541 -2.5288 -4.88193 0
M  V30 8879 H 831.766 -3.05699 -6.06403 0
M  V30 8880 H 829.712 -0.856494 -6.50385 0
M  V30 8881 H 829.629 -2.46361 -7.14732 0
M  V30 8882 H 830.897 -1.39505 -7.66915 0
M  V30 8883 N 835.127 1.22348 -0.993418 0
M  V30 8884 C 836.074 2.24294 -0.544118 0
M  V30 8885 C 837.044 1.60602 0.42381 0
M  V30 8886 O 838.229 1.87952 0.328453 0
M  V30 8887 C 835.369 3.44837 0.134578 0
M  V30 8888 C 834.482 4.23043 -0.875151 0
M  V30 8889 C 833.617 5.30928 -0.169919 0
M  V30 8890 C 832.656 6.00853 -1.16798 0
M  V30 8891 N 831.793 7.00381 -0.491021 0
M  V30 8892 H 836.633 2.6209 -1.4182 0
M  V30 8893 H 834.17 1.2881 -0.710384 0
M  V30 8894 H 836.128 4.13625 0.544998 0
M  V30 8895 H 834.758 3.07804 0.972446 0
M  V30 8896 H 833.81 3.53546 -1.40389 0
M  V30 8897 H 835.122 4.71237 -1.63516 0
M  V30 8898 H 834.276 6.05972 0.297205 0
M  V30 8899 H 833.015 4.8371 0.622586 0
M  V30 8900 H 832.02 5.24591 -1.64573 0
M  V30 8901 H 833.245 6.50159 -1.96137 0
M  V30 8902 H 831.191 6.55393 0.282037 0
M  V30 8903 H 831.108 7.46584 -1.18947 0
M  V30 8904 H 832.376 7.79486 -0.0467169 0
M  V30 8905 N 836.605 0.766683 1.37694 0
M  V30 8906 C 837.552 0.147725 2.30327 0
M  V30 8907 C 838.522 -0.695366 1.50844 0
M  V30 8908 O 839.707 -0.64878 1.79431 0
M  V30 8909 C 836.847 -0.72935 3.37305 0
M  V30 8910 C 835.96 0.129795 4.31805 0
M  V30 8911 C 835.095 -0.751511 5.25857 0
M  V30 8912 C 834.134 0.110475 6.12 0
M  V30 8913 N 833.271 -0.728522 6.9831 0
M  V30 8914 H 838.111 0.943204 2.82679 0
M  V30 8915 H 835.648 0.476736 1.3916 0
M  V30 8916 H 837.606 -1.25263 3.97951 0
M  V30 8917 H 836.236 -1.49048 2.86329 0
M  V30 8918 H 835.288 0.770829 3.72508 0
M  V30 8919 H 836.6 0.794923 4.92425 0
M  V30 8920 H 835.754 -1.34146 5.91684 0
M  V30 8921 H 834.493 -1.45034 4.65636 0
M  V30 8922 H 833.498 0.712999 5.45157 0
M  V30 8923 H 834.723 0.806557 6.74293 0
M  V30 8924 H 832.669 -1.41206 6.40622 0
M  V30 8925 H 832.586 -0.12058 7.55904 0
M  V30 8926 H 833.854 -1.30303 7.68532 0
M  V30 8927 N 838.083 -1.48885 0.516809 0
M  V30 8928 C 839.499 -1.58651 0.173788 0
M  V30 8929 C 839.699 -1.52033 -1.32243 0
M  V30 8930 O 838.755 -1.40251 -2.09967 0
M  V30 8931 C 840.068 -2.90816 0.764628 0
M  V30 8932 C 841.616 -3.04316 0.732164 0
M  V30 8933 C 842.091 -4.39123 1.30135 0
M  V30 8934 N 843.582 -4.45656 1.26273 0
M  V30 8935 C 844.317 -5.48446 1.67317 0
M  V30 8936 N 843.813 -6.58258 2.16028 0
M  V30 8937 N 845.606 -5.39251 1.58635 0
M  V30 8938 H 837.757 -1.5143 1.48939 0
M  V30 8939 H 840.02 -0.718243 0.618733 0
M  V30 8940 H 839.726 -3.01275 1.81456 0
M  V30 8941 H 839.6 -3.76473 0.234113 0
M  V30 8942 H 841.987 -2.93478 -0.308975 0
M  V30 8943 H 842.068 -2.20303 1.3 0
M  V30 8944 H 841.712 -4.50714 2.34135 0
M  V30 8945 H 841.642 -5.21801 0.709305 0
M  V30 8946 H 844.133 -3.66879 0.906006 0
M  V30 8947 H 844.446 -7.32811 2.45374 0
M  V30 8948 H 842.791 -6.59257 2.20013 0
M  V30 8949 H 845.982 -4.52354 1.20387 0
M  V30 8950 H 846.155 -6.19229 1.90944 0
M  V30 8951 N 839.561 -0.251338 -1.55583 0
M  V30 8952 C 840.977 0.103409 -1.59265 0
M  V30 8953 C 841.177 1.56559 -1.26852 0
M  V30 8954 O 840.233 2.31071 -1.01796 0
M  V30 8955 C 841.546 -0.249781 -2.99661 0
M  V30 8956 C 843.094 -0.194442 -3.12395 0
M  V30 8957 C 843.569 -0.521728 -4.55019 0
M  V30 8958 N 845.06 -0.472393 -4.60785 0
M  V30 8959 C 845.795 -0.698737 -5.69127 0
M  V30 8960 N 845.291 -0.988443 -6.85713 0
M  V30 8961 N 847.084 -0.629143 -5.58568 0
M  V30 8962 H 839.235 -1.20484 -1.74921 0
M  V30 8963 H 841.498 -0.485092 -0.814488 0
M  V30 8964 H 841.204 -1.26577 -3.28133 0
M  V30 8965 H 841.078 0.420973 -3.74844 0
M  V30 8966 H 843.465 0.812229 -2.83702 0
M  V30 8967 H 843.546 -0.899111 -2.39478 0
M  V30 8968 H 843.19 -1.52597 -4.84434 0
M  V30 8969 H 843.12 0.204468 -5.26203 0
M  V30 8970 H 845.611 -0.257386 -3.77022 0
M  V30 8971 H 845.924 -1.14846 -7.64219 0
M  V30 8972 H 844.269 -1.02596 -6.87386 0
M  V30 8973 H 847.46 -0.402826 -4.66364 0
M  V30 8974 H 847.633 -0.808935 -6.42931 0
M  V30 8975 N 841.039 1.57585 0.0217189 0
M  V30 8976 C 841.986 2.07036 1.02004 0
M  V30 8977 C 842.956 0.96106 1.35473 0
M  V30 8978 O 844.141 1.23211 1.45684 0
M  V30 8979 C 841.281 2.56056 2.31364 0
M  V30 8980 C 840.394 3.80805 2.03989 0
M  V30 8981 C 839.529 4.18409 3.27272 0
M  V30 8982 C 838.568 5.36055 2.95486 0
M  V30 8983 N 837.705 5.69056 4.11242 0
M  V30 8984 H 842.545 2.92073 0.591396 0
M  V30 8985 H 840.082 1.44403 0.280384 0
M  V30 8986 H 842.04 2.82548 3.06957 0
M  V30 8987 H 840.67 1.73925 2.71937 0
M  V30 8988 H 839.722 3.61354 1.1886 0
M  V30 8989 H 841.034 4.66512 1.76546 0
M  V30 8990 H 840.188 4.46068 4.11228 0
M  V30 8991 H 838.927 3.31369 3.57835 0
M  V30 8992 H 837.932 5.08142 2.09933 0
M  V30 8993 H 839.157 6.24755 2.66193 0
M  V30 8994 H 837.103 4.84974 4.41742 0
M  V30 8995 H 837.02 6.49288 3.87247 0
M  V30 8996 H 838.288 6.01295 4.96049 0
M  V30 8997 N 842.517 -0.29412 1.54831 0
M  V30 8998 C 843.449 -1.38476 1.82639 0
M  V30 8999 C 844.462 -1.46517 0.709694 0
M  V30 9000 O 845.651 -1.48712 0.987269 0
M  V30 9001 C 842.751 -2.76791 1.95551 0
M  V30 9002 C 841.924 -2.91599 3.26019 0
M  V30 9003 C 840.983 -4.10456 3.29261 0
M  V30 9004 O 840.009 -4.02214 4.02756 0
M  V30 9005 N 841.211 -5.21422 2.55145 0
M  V30 9006 H 843.976 -1.14974 2.76769 0
M  V30 9007 H 841.537 -0.484206 1.5449 0
M  V30 9008 H 843.529 -3.5456 1.95113 0
M  V30 9009 H 842.099 -2.93209 1.08384 0
M  V30 9010 H 841.319 -2.00886 3.39173 0
M  V30 9011 H 842.607 -2.98409 4.12104 0
M  V30 9012 H 842.005 -5.31 1.95078 0
M  V30 9013 H 840.562 -5.97501 2.60454 0
M  V30 9014 N 843.995 -1.47404 -0.557645 0
M  V30 9015 C 844.927 -1.55917 -1.67995 0
M  V30 9016 C 845.94 -0.445411 -1.56588 0
M  V30 9017 O 847.129 -0.714999 -1.63554 0
M  V30 9018 C 844.229 -1.44697 -3.06457 0
M  V30 9019 C 843.402 -2.70633 -3.43622 0
M  V30 9020 C 842.461 -2.53256 -4.61246 0
M  V30 9021 O 841.487 -3.27068 -4.65849 0
M  V30 9022 N 842.689 -1.61053 -5.57711 0
M  V30 9023 H 845.454 -2.52694 -1.61139 0
M  V30 9024 H 843.015 -1.43778 -0.744271 0
M  V30 9025 H 845.007 -1.30806 -3.82978 0
M  V30 9026 H 843.577 -0.560039 -3.07542 0
M  V30 9027 H 842.797 -2.99288 -2.56555 0
M  V30 9028 H 844.085 -3.5424 -3.65228 0
M  V30 9029 H 843.483 -1.00235 -5.56749 0
M  V30 9030 H 842.04 -1.53115 -6.33561 0
M  V30 9031 N 845.473 0.80434 -1.35529 0
M  V30 9032 C 846.703 1.59052 -1.31856 0
M  V30 9033 C 847.111 1.88905 0.105549 0
M  V30 9034 O 846.454 1.49422 1.06858 0
M  V30 9035 C 846.516 2.94626 -2.06 0
M  V30 9036 C 846.18 2.87576 -3.55175 0
M  V30 9037 C 847.177 2.60856 -4.49722 0
M  V30 9038 C 844.862 3.06623 -3.97854 0
M  V30 9039 C 846.856 2.53262 -5.84925 0
M  V30 9040 C 844.543 2.98652 -5.33151 0
M  V30 9041 C 845.541 2.72007 -6.26499 0
M  V30 9042 O 845.229 2.64003 -7.59314 0
M  V30 9043 H 844.961 0.500486 -0.454411 0
M  V30 9044 H 847.515 1.0074 -1.78999 0
M  V30 9045 H 845.745 3.5493 -1.53498 0
M  V30 9046 H 847.434 3.55785 -1.95376 0
M  V30 9047 H 848.2 2.45858 -4.18066 0
M  V30 9048 H 844.079 3.26372 -3.2558 0
M  V30 9049 H 847.623 2.32386 -6.57756 0
M  V30 9050 H 843.52 3.13208 -5.64421 0
M  V30 9051 H 844.288 2.79595 -7.69265 0
M  V30 9052 N 846.951 1.19563 1.02676 0
M  V30 9053 C 847.883 0.893054 2.11086 0
M  V30 9054 C 848.896 -0.115101 1.62393 0
M  V30 9055 O 850.085 0.11459 1.78132 0
M  V30 9056 C 847.185 0.315533 3.37428 0
M  V30 9057 C 846.358 1.37276 4.153 0
M  V30 9058 C 845.417 0.808398 5.19953 0
M  V30 9059 O 844.443 1.48661 5.49444 0
M  V30 9060 N 845.645 -0.387253 5.79207 0
M  V30 9061 H 848.41 1.82622 2.37633 0
M  V30 9062 H 845.971 1.09792 1.18984 0
M  V30 9063 H 847.963 -0.0759166 4.04629 0
M  V30 9064 H 846.533 -0.521961 3.08211 0
M  V30 9065 H 845.753 1.93897 3.43217 0
M  V30 9066 H 847.041 2.08509 4.64114 0
M  V30 9067 H 846.439 -0.955725 5.57568 0
M  V30 9068 H 844.996 -0.720457 6.47806 0
M  V30 9069 N 848.429 -1.21819 0.999893 0
M  V30 9070 C 849.361 -2.23356 0.514256 0
M  V30 9071 C 850.374 -1.5795 -0.394413 0
M  V30 9072 O 851.563 -1.77427 -0.195428 0
M  V30 9073 C 848.663 -3.37797 -0.273207 0
M  V30 9074 C 847.836 -4.32791 0.633293 0
M  V30 9075 C 846.895 -5.26098 -0.103673 0
M  V30 9076 O 845.921 -5.66881 0.513269 0
M  V30 9077 N 847.123 -5.63764 -1.38383 0
M  V30 9078 H 849.888 -2.65653 1.3874 0
M  V30 9079 H 847.449 -1.3619 0.875431 0
M  V30 9080 H 849.441 -3.97209 -0.775053 0
M  V30 9081 H 848.011 -2.94527 -1.0475 0
M  V30 9082 H 847.231 -3.71595 1.31571 0
M  V30 9083 H 848.519 -4.93196 1.25039 0
M  V30 9084 H 847.917 -5.32614 -1.90627 0
M  V30 9085 H 846.474 -6.25562 -1.83073 0
M  V30 9086 N 849.908 -0.773975 -1.37286 0
M  V30 9087 C 851.324 -0.45386 -1.53011 0
M  V30 9088 C 851.524 1.03018 -1.73175 0
M  V30 9089 O 850.58 1.81597 -1.75438 0
M  V30 9090 C 851.893 -1.27087 -2.72524 0
M  V30 9091 C 853.441 -1.26299 -2.86387 0
M  V30 9092 C 853.916 -2.0634 -4.08886 0
M  V30 9093 N 855.407 -2.03706 -4.16003 0
M  V30 9094 C 856.142 -2.62418 -5.09828 0
M  V30 9095 N 855.638 -3.29926 -6.09197 0
M  V30 9096 N 857.431 -2.52236 -5.02328 0
M  V30 9097 H 849.582 -1.73551 -1.22449 0
M  V30 9098 H 851.845 -0.736874 -0.596423 0
M  V30 9099 H 851.551 -2.32263 -2.64096 0
M  V30 9100 H 851.425 -0.90157 -3.66267 0
M  V30 9101 H 853.812 -0.219213 -2.94285 0
M  V30 9102 H 853.893 -1.67195 -1.93596 0
M  V30 9103 H 853.537 -3.10741 -4.01749 0
M  V30 9104 H 853.467 -1.62825 -5.00795 0
M  V30 9105 H 855.958 -1.54559 -3.44848 0
M  V30 9106 H 856.271 -3.72095 -6.77322 0
M  V30 9107 H 854.616 -3.34026 -6.09469 0
M  V30 9108 H 857.807 -1.99108 -4.23643 0
M  V30 9109 H 857.98 -2.98286 -5.75265 0
M  V30 9110 N 851.386 1.48609 -0.524698 0
M  V30 9111 C 852.318 2.27508 0.278 0
M  V30 9112 C 853.331 1.35042 0.909258 0
M  V30 9113 O 854.52 1.60136 0.788592 0
M  V30 9114 C 851.62 3.08247 1.40843 0
M  V30 9115 C 850.793 4.28455 0.880083 0
M  V30 9116 C 849.852 4.91048 1.891 0
M  V30 9117 O 848.878 5.5042 1.45005 0
M  V30 9118 N 850.08 4.82816 3.22288 0
M  V30 9119 H 852.845 2.97037 -0.398642 0
M  V30 9120 H 850.406 1.57876 -0.358698 0
M  V30 9121 H 852.398 3.46992 2.08276 0
M  V30 9122 H 850.968 2.41173 1.98883 0
M  V30 9123 H 850.188 3.94189 0.0299228 0
M  V30 9124 H 851.476 5.06279 0.505881 0
M  V30 9125 H 850.874 4.3572 3.60783 0
M  V30 9126 H 849.431 5.25676 3.85368 0
M  V30 9127 N 852.864 0.259585 1.55447 0
M  V30 9128 C 854.089 -0.368317 2.04103 0
M  V30 9129 C 854.514 -1.49827 1.13725 0
M  V30 9130 O 853.872 -1.80814 0.132705 0
M  V30 9131 C 853.92 -0.841506 3.50644 0
M  V30 9132 O 853.024 -1.95008 3.63381 0
M  V30 9133 H 852.365 -0.0785227 0.659341 0
M  V30 9134 H 854.895 0.389349 2.00861 0
M  V30 9135 H 854.905 -1.14138 3.9171 0
M  V30 9136 H 853.58 -0.0147001 4.15897 0
M  V30 9137 H 852.157 -1.65393 3.34215 0
M  V30 9138 N 854.342 -1.57594 -0.0133615 0
M  V30 9139 C 855.588 -1.90262 -0.702019 0
M  V30 9140 C 855.921 -0.859219 -1.74158 0
M  V30 9141 O 855.196 0.123778 -1.94106 0
M  V30 9142 C 855.479 -3.3354 -1.35732 0
M  V30 9143 C 855.332 -4.48586 -0.330208 0
M  V30 9144 C 856.651 -3.76004 -2.28712 0
M  V30 9145 H 853.77 -0.691943 -0.253739 0
M  V30 9146 H 856.412 -1.89967 0.0351894 0
M  V30 9147 H 854.562 -3.33921 -1.98567 0
M  V30 9148 H 856.234 -4.6034 0.297433 0
M  V30 9149 H 854.477 -4.32394 0.348926 0
M  V30 9150 H 855.148 -5.45762 -0.827508 0
M  V30 9151 H 857.624 -3.77089 -1.75906 0
M  V30 9152 H 856.5 -4.77032 -2.71535 0
M  V30 9153 H 856.761 -3.09129 -3.16056 0
M  V30 9154 N 855.82 0.285905 -1.54985 0
M  V30 9155 C 857.069 1.01691 -1.74189 0
M  V30 9156 C 857.382 1.87908 -0.543135 0
M  V30 9157 O 858.588 2.64389 -0.617305 0
M  V30 9158 C 857.044 1.85785 -3.0824 0
M  V30 9159 C 856.652 1.04497 -4.35642 0
M  V30 9160 C 858.396 2.58393 -3.36798 0
M  V30 9161 C 856.303 1.87955 -5.60738 0
M  V30 9162 H 855.233 0.383396 -0.649248 0
M  V30 9163 H 857.884 0.27317 -1.81455 0
M  V30 9164 H 856.266 2.64205 -2.94978 0
M  V30 9165 H 857.44 0.305847 -4.59784 0
M  V30 9166 H 855.755 0.434023 -4.14132 0
M  V30 9167 H 858.352 3.21214 -4.27464 0
M  V30 9168 H 858.695 3.28011 -2.56349 0
M  V30 9169 H 859.228 1.87012 -3.511 0
M  V30 9170 H 855.967 1.22781 -6.43898 0
M  V30 9171 H 855.487 2.59499 -5.40759 0
M  V30 9172 H 857.166 2.45636 -5.98558 0
M  V30 9173 N 857.298 1.47698 0.54982 0
M  V30 9174 C 858.545 1.54702 1.30665 0
M  V30 9175 C 858.873 0.212418 1.93337 0
M  V30 9176 O 858.128 -0.79543 1.78805 0
M  V30 9177 C 858.427 2.61903 2.4319 0
M  V30 9178 C 858.093 4.04953 1.98302 0
M  V30 9179 C 856.755 4.43893 1.85776 0
M  V30 9180 C 859.107 4.94682 1.64133 0
M  V30 9181 C 856.435 5.70387 1.37388 0
M  V30 9182 C 858.787 6.21646 1.17214 0
M  V30 9183 C 857.451 6.5946 1.0329 0
M  V30 9184 H 856.721 0.566096 0.478139 0
M  V30 9185 H 859.368 1.8133 0.615767 0
M  V30 9186 H 857.673 2.2906 3.17866 0
M  V30 9187 H 859.37 2.64543 3.0136 0
M  V30 9188 H 855.96 3.74191 2.08995 0
M  V30 9189 H 860.144 4.65291 1.72679 0
M  V30 9190 H 855.4 5.98427 1.25278 0
M  V30 9191 H 859.574 6.90581 0.898391 0
M  V30 9192 H 857.201 7.57367 0.655735 0
M  V30 9193 N 858.776 -0.797141 1.35954 0
M  V30 9194 C 859.726 -1.89899 1.26184 0
M  V30 9195 C 860.71 -1.60152 0.155007 0
M  V30 9196 O 861.902 -1.72715 0.387108 0
M  V30 9197 C 859.031 -3.2699 1.04559 0
M  V30 9198 C 858.117 -3.62772 2.19675 0
M  V30 9199 N 858.508 -3.6992 3.44953 0
M  V30 9200 C 856.806 -3.92786 2.1127 0
M  V30 9201 C 857.507 -4.01718 4.20711 0
M  V30 9202 N 856.483 -4.16298 3.49567 0
M  V30 9203 H 860.285 -1.9364 2.2109 0
M  V30 9204 H 857.799 -0.992246 1.28562 0
M  V30 9205 H 859.796 -4.0578 0.956474 0
M  V30 9206 H 858.456 -3.24529 0.105467 0
M  V30 9207 H 859.467 -3.52759 3.79185 0
M  V30 9208 H 856.144 -3.98295 1.25168 0
M  V30 9209 H 857.534 -4.14237 5.29016 0
M  V30 9210 N 860.254 -1.20106 -1.0204 0
M  V30 9211 C 861.201 -0.946468 -2.10501 0
M  V30 9212 C 862.171 0.121902 -1.65652 0
M  V30 9213 O 863.356 -0.0220244 -1.90787 0
M  V30 9214 C 860.496 -0.500499 -3.41451 0
M  V30 9215 C 859.609 -1.63659 -3.998 0
M  V30 9216 C 858.744 -1.14131 -5.18794 0
M  V30 9217 C 857.783 -2.25074 -5.69217 0
M  V30 9218 N 856.92 -1.76791 -6.79477 0
M  V30 9219 H 861.76 -1.87506 -2.31615 0
M  V30 9220 H 859.297 -0.934693 -1.13587 0
M  V30 9221 H 861.255 -0.223276 -4.16602 0
M  V30 9222 H 859.885 0.391099 -3.20422 0
M  V30 9223 H 858.937 -2.02882 -3.21781 0
M  V30 9224 H 860.249 -2.47213 -4.33229 0
M  V30 9225 H 859.403 -0.819826 -6.01135 0
M  V30 9226 H 858.142 -0.275615 -4.86921 0
M  V30 9227 H 857.147 -2.58043 -4.85483 0
M  V30 9228 H 858.372 -3.12114 -6.03127 0
M  V30 9229 H 856.318 -0.925428 -6.4944 0
M  V30 9230 H 856.235 -2.53928 -7.12079 0
M  V30 9231 H 857.503 -1.47631 -7.65392 0
M  V30 9232 N 861.732 1.21287 -1.00634 0
M  V30 9233 C 863.148 1.42467 -0.719389 0
M  V30 9234 C 863.348 1.88767 0.704927 0
M  V30 9235 O 862.404 2.05004 1.47409 0
M  V30 9236 C 863.717 2.455 -1.73639 0
M  V30 9237 C 865.265 2.59281 -1.75335 0
M  V30 9238 C 865.74 3.65547 -2.75934 0
M  V30 9239 N 867.231 3.73019 -2.74611 0
M  V30 9240 C 867.966 4.54873 -3.4911 0
M  V30 9241 N 867.462 5.40614 -4.33253 0
M  V30 9242 N 869.255 4.49309 -3.37754 0
M  V30 9243 H 861.406 0.895454 -1.92602 0
M  V30 9244 H 863.669 0.455491 -0.831404 0
M  V30 9245 H 863.375 2.18455 -2.75627 0
M  V30 9246 H 863.249 3.44325 -1.54014 0
M  V30 9247 H 865.636 2.85661 -0.740377 0
M  V30 9248 H 865.717 1.60685 -1.99032 0
M  V30 9249 H 865.361 3.39911 -3.77389 0
M  V30 9250 H 865.291 4.63741 -2.49503 0
M  V30 9251 H 867.782 3.11766 -2.13565 0
M  V30 9252 H 868.095 6.0013 -4.86892 0
M  V30 9253 H 866.44 5.40151 -4.37335 0
M  V30 9254 H 869.631 3.81357 -2.71449 0
M  V30 9255 H 869.804 5.12867 -3.9607 0
M  V30 9256 N 863.21 0.781244 1.36873 0
M  V30 9257 C 864.173 0.180094 2.28491 0
M  V30 9258 C 865.173 -0.617798 1.48458 0
M  V30 9259 O 866.363 -0.439991 1.68552 0
M  V30 9260 C 863.495 -0.751741 3.32508 0
M  V30 9261 H 864.688 0.987837 2.83164 0
M  V30 9262 H 862.241 0.550102 1.463 0
M  V30 9263 H 862.976 -1.58413 2.82977 0
M  V30 9264 H 862.761 -0.181649 3.91679 0
M  V30 9265 H 864.251 -1.16748 4.00949 0
M  V30 9266 N 864.689 -1.48329 0.532571 0
M  V30 9267 C 866.1 -1.86469 0.0927749 0
M  V30 9268 C 866.451 -1.44186 -1.3306 0
M  V30 9269 O 865.576 -0.833741 -1.99694 0
M  V30 9270 C 866.171 -3.38414 0.161588 0
M  V30 9271 C 864.73 -3.75739 -0.223028 0
M  V30 9272 C 863.877 -2.72377 0.520199 0
M  V30 9273 H 866.828 -1.40197 0.743678 0
M  V30 9274 H 866.849 -3.75314 -0.626059 0
M  V30 9275 H 866.361 -3.69159 1.19765 0
M  V30 9276 H 864.462 -3.50608 -1.26113 0
M  V30 9277 H 864.575 -4.78954 0.118385 0
M  V30 9278 H 862.939 -2.54678 -0.0338425 0
M  V30 9279 H 863.722 -3.05965 1.55694 0
M  V30 9280 N 866.167 -0.267825 -1.55308 0
M  V30 9281 C 867.077 0.633055 -2.25897 0
M  V30 9282 C 868.093 1.17613 -1.28231 0
M  V30 9283 O 869.269 1.20797 -1.61153 0
M  V30 9284 C 866.334 1.80397 -2.96071 0
M  V30 9285 C 865.395 1.29829 -4.09198 0
M  V30 9286 C 864.628 2.4134 -4.76016 0
M  V30 9287 O 864.851 3.60537 -4.42006 0
M  V30 9288 O 863.785 2.09909 -5.64111 0
M  V30 9289 H 867.611 0.0614381 -3.03638 0
M  V30 9290 H 865.196 -0.0355072 -1.49358 0
M  V30 9291 H 867.078 2.48685 -3.40197 0
M  V30 9292 H 865.753 2.36281 -2.21253 0
M  V30 9293 H 864.66 0.582086 -3.69544 0
M  V30 9294 H 865.993 0.785288 -4.85895 0
M  V30 9295 N 867.645 1.57599 0.00500368 0
M  V30 9296 C 868.577 2.04949 1.02609 0
M  V30 9297 C 869.59 0.966507 1.31006 0
M  V30 9298 O 870.779 1.2434 1.2807 0
M  V30 9299 C 867.879 2.43023 2.36206 0
M  V30 9300 C 867.052 3.73993 2.26821 0
M  V30 9301 C 866.111 3.9899 3.43065 0
M  V30 9302 O 865.137 4.69725 3.21477 0
M  V30 9303 N 866.339 3.46496 4.65748 0
M  V30 9304 H 869.104 2.93167 0.622336 0
M  V30 9305 H 866.665 1.60752 0.192488 0
M  V30 9306 H 868.657 2.56863 3.12735 0
M  V30 9307 H 867.227 1.60349 2.68341 0
M  V30 9308 H 866.447 3.70277 1.35235 0
M  V30 9309 H 867.735 4.59865 2.17719 0
M  V30 9310 H 867.133 2.89206 4.86186 0
M  V30 9311 H 865.69 3.65675 5.3956 0
M  V30 9312 N 869.123 -0.277682 1.55134 0
M  V30 9313 C 870.086 -1.32635 1.86924 0
M  V30 9314 C 871.086 -1.42578 0.743507 0
M  V30 9315 O 872.276 -1.4181 1.01171 0
M  V30 9316 C 869.408 -2.70832 2.07034 0
M  V30 9317 H 870.601 -1.0568 2.80663 0
M  V30 9318 H 868.154 -0.515517 1.47554 0
M  V30 9319 H 868.889 -3.02974 1.15661 0
M  V30 9320 H 868.674 -2.65001 2.88993 0
M  V30 9321 H 870.164 -3.46611 2.32918 0
M  V30 9322 N 870.601 -1.47988 -0.541979 0
M  V30 9323 C 871.531 -1.64503 -1.65713 0
M  V30 9324 C 872.512 -0.494116 -1.62765 0
M  V30 9325 O 873.697 -0.725256 -1.80149 0
M  V30 9326 C 870.827 -1.67337 -3.04328 0
M  V30 9327 C 869.781 -2.81809 -3.2213 0
M  V30 9328 C 869.107 -2.69724 -4.61685 0
M  V30 9329 C 870.407 -4.23241 -3.06046 0
M  V30 9330 H 872.101 -2.5786 -1.52147 0
M  V30 9331 H 869.647 -1.24094 -0.730529 0
M  V30 9332 H 871.6 -1.77481 -3.82202 0
M  V30 9333 H 870.324 -0.705514 -3.18889 0
M  V30 9334 H 868.983 -2.71201 -2.46669 0
M  V30 9335 H 868.631 -1.70934 -4.73065 0
M  V30 9336 H 868.331 -3.4653 -4.74543 0
M  V30 9337 H 869.855 -2.81818 -5.41674 0
M  V30 9338 H 871.269 -4.34746 -3.73723 0
M  V30 9339 H 869.666 -5.00952 -3.30405 0
M  V30 9340 H 870.736 -4.40543 -2.02609 0
M  V30 9341 O 872.118 0.686819 -1.46168 0
M  V30 9342 H 872.809 1.33902 -1.39964 0
M  V30 END ATOM
M  V30 BEGIN BOND
M  V30 END BOND
M  V30 END CTAB
M  END
$$$$
