drugbank_target|P14927 Cytochrome b-c1 complex subunit 7 (DB04141; DB04799; DB07401; DB07636; DB07763; DB07778; DB08330; DB08453; DB08690)
 OpenBabel12092120423D

  0  0  0     0  0            999 V3000
M  V30 BEGIN CTAB
M  V30 COUNTS 1907 1928 0 0 0
M  V30 BEGIN ATOM
M  V30 1 H -0.908 1.98254 -0.117106 0
M  V30 2 N 0 1.576 0 0
M  V30 3 C 0.933 2.03868 1.02534 0
M  V30 4 C 1.911 0.928543 1.3348 0
M  V30 5 O 3.095 1.19667 1.45644 0
M  V30 6 C 0.222 2.43627 2.35294 0
M  V30 7 C -0.732 3.65373 2.2001 0
M  V30 8 S 0.101 5.13292 1.52614 0
M  V30 9 C 1.257 5.56322 2.86805 0
M  V30 10 H 1.49 2.90518 0.631377 0
M  V30 11 H -0.977 1.52953 0.210867 0
M  V30 12 H 0.981 2.67203 3.11629 0
M  V30 13 H -0.358 1.57376 2.7183 0
M  V30 14 H -1.165 3.90944 3.18086 0
M  V30 15 H -1.563 3.418 1.51819 0
M  V30 16 H 0.729 5.58782 3.83104 0
M  V30 17 H 1.672 6.56266 2.65933 0
M  V30 18 H 2.08 4.83886 2.90714 0
M  V30 19 N 1.4781 -0.272755 1.55222 0
M  V30 20 C 2.4411 -1.32041 1.87344 0
M  V30 21 C 3.4411 -1.42342 0.74803 0
M  V30 22 O 4.6311 -1.41488 1.0162 0
M  V30 23 C 1.7631 -2.70173 2.07893 0
M  V30 24 H 2.9561 -1.04789 2.80997 0
M  V30 25 H 0.5091 -0.51083 1.47717 0
M  V30 26 H 1.2441 -3.02605 1.16622 0
M  V30 27 H 1.0291 -2.64082 2.89833 0
M  V30 28 H 2.5191 -3.45869 2.34017 0
M  V30 29 N 2.9562 -1.48159 -0.537278 0
M  V30 30 C 4.2042 -1.55497 -1.29094 0
M  V30 31 C 4.5252 -0.227454 -1.93669 0
M  V30 32 O 3.7952 0.750386 -1.80959 0
M  V30 33 H 2.3752 -0.572832 -0.47945 0
M  V30 34 H 5.0372 -1.84579 -0.625818 0
M  V30 35 H 4.1332 -2.33216 -2.07405 0
M  V30 36 N 4.4343 0.785586 -1.36625 0
M  V30 37 C 5.3813 1.89838 -1.31264 0
M  V30 38 C 6.3513 1.65115 -0.180633 0
M  V30 39 O 7.5363 1.87222 -0.36777 0
M  V30 40 C 4.6763 3.26706 -1.11163 0
M  V30 41 C 3.7893 3.63476 -2.33472 0
M  V30 42 C 2.9243 4.89481 -2.06353 0
M  V30 43 C 1.9633 5.18941 -3.24602 0
M  V30 44 N 1.1003 6.36131 -2.97123 0
M  V30 45 H 5.9403 1.93756 -2.26413 0
M  V30 46 H 3.4773 0.947454 -1.12524 0
M  V30 47 H 5.4353 4.05639 -0.975337 0
M  V30 48 H 4.0653 3.222 -0.196674 0
M  V30 49 H 3.1173 2.79636 -2.57891 0
M  V30 50 H 4.4293 3.81193 -3.21704 0
M  V30 51 H 3.5833 5.76288 -1.89675 0
M  V30 52 H 2.3223 4.73841 -1.15437 0
M  V30 53 H 1.3273 4.30615 -3.41834 0
M  V30 54 H 2.5523 5.36498 -4.16349 0
M  V30 55 H 0.4983 6.21875 -2.08823 0
M  V30 56 H 0.4153 6.54198 -3.78894 0
M  V30 57 H 1.6833 7.2591 -2.84033 0
M  V30 58 N 5.9124 1.20967 1.01018 0
M  V30 59 C 6.8444 0.922059 2.09835 0
M  V30 60 C 7.8574 -0.0927106 1.62536 0
M  V30 61 O 9.0464 0.139127 1.77957 0
M  V30 62 C 6.1464 0.362004 3.36961 0
M  V30 63 C 5.3194 1.42986 4.13369 0
M  V30 64 C 4.3784 0.879976 5.1879 0
M  V30 65 O 3.4044 1.56219 5.47343 0
M  V30 66 N 4.6064 -0.307396 5.79686 0
M  V30 67 H 7.3714 1.8588 2.35093 0
M  V30 68 H 4.9324 1.11422 1.1746 0
M  V30 69 H 6.9244 -0.0201474 4.04695 0
M  V30 70 H 5.4944 -0.479437 3.08902 0
M  V30 71 H 4.7144 1.98608 3.40512 0
M  V30 72 H 6.0024 2.14885 4.61196 0
M  V30 73 H 5.4004 -0.878796 5.58832 0
M  V30 74 H 3.9574 -0.631115 6.48737 0
M  V30 75 N 7.3905 -1.2043 1.01659 0
M  V30 76 C 8.3535 -2.21433 0.591616 0
M  V30 77 C 9.3535 -1.57203 -0.338226 0
M  V30 78 O 10.5435 -1.73737 -0.126918 0
M  V30 79 C 7.6755 -3.40628 -0.136058 0
M  V30 80 H 8.8685 -2.60545 1.48514 0
M  V30 81 H 6.4215 -1.33893 0.806379 0
M  V30 82 H 7.1565 -3.07019 -1.04449 0
M  V30 83 H 6.9415 -3.88475 0.531917 0
M  V30 84 H 8.4315 -4.15475 -0.420735 0
M  V30 85 N 8.8686 -0.792821 -1.36206 0
M  V30 86 C 10.1146 -0.36733 -1.99446 0
M  V30 87 C 10.4476 1.05917 -1.62774 0
M  V30 88 O 9.7226 1.7324 -0.88421 0
M  V30 89 C 10.0056 -0.535044 -3.56103 0
M  V30 90 C 9.8586 -2.00548 -4.02617 0
M  V30 91 C 11.1776 0.0478191 -4.40074 0
M  V30 92 H 8.2966 -0.134941 -0.724541 0
M  V30 93 H 10.9386 -0.999794 -1.61568 0
M  V30 94 H 9.0886 0.00336329 -3.885 0
M  V30 95 H 10.7606 -2.60521 -3.80692 0
M  V30 96 H 9.0036 -2.50686 -3.54032 0
M  V30 97 H 9.6746 -2.07377 -5.11565 0
M  V30 98 H 12.1506 -0.411822 -4.14057 0
M  V30 99 H 11.0266 -0.0995336 -5.4881 0
M  V30 100 H 11.2876 1.14025 -4.27142 0
M  V30 101 N 10.3467 1.47872 -0.545128 0
M  V30 102 C 11.5717 2.07391 -0.0190611 0
M  V30 103 C 11.9967 1.39688 1.25971 0
M  V30 104 O 11.3547 0.467816 1.7516 0
M  V30 105 C 11.4027 3.60188 0.172335 0
M  V30 106 O 10.5067 3.9339 1.23766 0
M  V30 107 H 9.8477 0.662411 -0.0459059 0
M  V30 108 H 12.3777 1.90066 -0.757365 0
M  V30 109 H 12.3877 4.06129 0.390305 0
M  V30 110 H 11.0627 4.08865 -0.761725 0
M  V30 111 H 9.6397 3.5921 1.00114 0
M  V30 112 N 11.8248 0.280983 1.55075 0
M  V30 113 C 12.7878 -0.590896 2.21452 0
M  V30 114 C 13.7878 -1.07682 1.19421 0
M  V30 115 O 14.9778 -0.97605 1.44288 0
M  V30 116 C 12.1098 -1.81587 2.88511 0
M  V30 117 H 13.3028 -0.0112554 2.99898 0
M  V30 118 H 10.8558 0.0316438 1.56268 0
M  V30 119 H 11.5908 -2.43587 2.14093 0
M  V30 120 H 11.3758 -1.4753 3.63287 0
M  V30 121 H 12.8658 -2.43575 3.39206 0
M  V30 122 N 13.3029 -1.57598 0.00835791 0
M  V30 123 C 14.5279 -1.95617 -0.689103 0
M  V30 124 C 14.9529 -0.883753 -1.66046 0
M  V30 125 O 14.3109 0.157352 -1.80616 0
M  V30 126 C 14.3589 -3.32736 -1.38994 0
M  V30 127 O 13.4629 -3.27631 -2.50463 0
M  V30 128 H 12.8039 -0.638379 -0.182668 0
M  V30 129 H 15.3339 -2.045 0.064036 0
M  V30 130 H 15.3439 -3.68494 -1.75147 0
M  V30 131 H 14.0189 -4.1034 -0.677778 0
M  V30 132 H 12.5959 -3.03561 -2.16576 0
M  V30 133 N 14.781 0.264519 -1.55364 0
M  V30 134 C 16.029 0.993021 -1.76021 0
M  V30 135 C 16.35 1.86511 -0.569099 0
M  V30 136 O 15.62 1.91438 0.415735 0
M  V30 137 H 14.2 0.369639 -0.649135 0
M  V30 138 H 16.862 0.286707 -1.9278 0
M  V30 139 H 15.958 1.62502 -2.66457 0
M  V30 140 N 16.2591 1.48442 0.529413 0
M  V30 141 C 17.2061 1.63007 1.63394 0
M  V30 142 C 18.1761 0.47212 1.59249 0
M  V30 143 O 19.3611 0.695673 1.77666 0
M  V30 144 C 16.5011 1.6763 3.01653 0
M  V30 145 C 15.6141 2.94535 3.16027 0
M  V30 146 C 14.7491 2.90316 4.44849 0
M  V30 147 C 13.7881 4.11923 4.52754 0
M  V30 148 N 12.9251 4.05777 5.72965 0
M  V30 149 H 17.7651 2.5733 1.50285 0
M  V30 150 H 15.3021 1.27613 0.731656 0
M  V30 151 H 17.2601 1.68292 3.81751 0
M  V30 152 H 15.8901 0.76797 3.13532 0
M  V30 153 H 14.9421 3.03615 2.29177 0
M  V30 154 H 16.2541 3.84512 3.17729 0
M  V30 155 H 15.4081 2.89382 5.33238 0
M  V30 156 H 14.1471 1.98068 4.45668 0
M  V30 157 H 13.1521 4.13131 3.62771 0
M  V30 158 H 14.3771 5.0533 4.53672 0
M  V30 159 H 12.3231 3.16351 5.74681 0
M  V30 160 H 12.2401 4.8946 5.76164 0
M  V30 161 H 13.5081 4.08904 6.6364 0
M  V30 162 N 17.7372 -0.778329 1.37039 0
M  V30 163 C 18.9832 -1.53817 1.33086 0
M  V30 164 C 19.3382 -1.92208 -0.0860346 0
M  V30 165 O 18.6312 -1.60713 -1.04316 0
M  V30 166 C 18.8252 -2.81845 2.19768 0
M  V30 167 C 18.6542 -2.55967 3.69744 0
M  V30 168 C 17.4242 -2.50428 4.38878 0
M  V30 169 C 19.6222 -2.2441 4.62758 0
M  V30 170 N 17.6042 -2.16564 5.74433 0
M  V30 171 C 18.9752 -2.0063 5.86641 0
M  V30 172 C 21.0302 -2.1051 4.5121 0
M  V30 173 C 19.7332 -1.64354 7.00272 0
M  V30 174 C 21.7592 -1.75634 5.64718 0
M  V30 175 C 21.1212 -1.52709 6.87648 0
M  V30 176 H 17.2202 -0.563434 0.542279 0
M  V30 177 H 19.8042 -0.908617 1.72198 0
M  V30 178 H 17.9752 -3.42649 1.82883 0
M  V30 179 H 19.7072 -3.47682 2.07122 0
M  V30 180 H 16.4622 -2.66056 3.91805 0
M  V30 181 H 16.8862 -2.02348 6.46053 0
M  V30 182 H 21.5282 -2.26919 3.56746 0
M  V30 183 H 19.2462 -1.46683 7.94676 0
M  V30 184 H 22.8322 -1.65546 5.57751 0
M  V30 185 H 21.7122 -1.2612 7.73992 0
M  V30 186 N 19.2153 -1.21501 -1.00376 0
M  V30 187 C 20.1453 -0.999478 -2.11028 0
M  V30 188 C 21.1263 0.0759671 -1.6993 0
M  V30 189 O 22.3113 -0.0841106 -1.94018 0
M  V30 190 C 19.4413 -0.564709 -3.42678 0
M  V30 191 C 18.3953 -1.58486 -3.97576 0
M  V30 192 C 17.7213 -1.00628 -5.25146 0
M  V30 193 C 19.0213 -2.97204 -4.29496 0
M  V30 194 H 20.7153 -1.92495 -2.29317 0
M  V30 195 H 18.2613 -0.92693 -1.102 0
M  V30 196 H 20.2143 -0.401091 -4.19487 0
M  V30 197 H 18.9383 0.396411 -3.24185 0
M  V30 198 H 17.5973 -1.73606 -3.22888 0
M  V30 199 H 17.2453 -0.0368439 -5.02987 0
M  V30 200 H 16.9453 -1.68771 -5.62841 0
M  V30 201 H 18.4693 -0.854015 -6.04598 0
M  V30 202 H 19.8833 -2.8552 -4.97143 0
M  V30 203 H 18.2803 -3.62372 -4.78338 0
M  V30 204 H 19.3503 -3.47956 -3.3772 0
M  V30 205 N 20.6934 1.19889 -1.02296 0
M  V30 206 C 21.9704 1.85148 -0.630832 0
M  V30 207 C 22.3504 1.91385 0.890782 0
M  V30 208 O 21.6984 1.42642 1.78509 0
M  V30 209 C 21.9084 3.24442 -1.28602 0
M  V30 210 C 23.2564 4.00663 -1.4055 0
M  V30 211 O 24.2804 3.33818 -1.24273 0
M  V30 212 O 23.1394 5.20387 -1.66913 0
M  V30 213 H 20.2334 0.797613 -0.218499 0
M  V30 214 H 22.7794 1.27427 -1.12074 0
M  V30 215 H 21.5514 3.14704 -2.32545 0
M  V30 216 H 21.1744 3.89802 -0.7836 0
M  V30 217 N 22.1715 0.800033 1.35784 0
M  V30 218 C 23.4195 0.376597 1.9856 0
M  V30 219 C 23.7405 -1.05812 1.63795 0
M  V30 220 O 23.0105 -1.73103 0.917171 0
M  V30 221 H 21.5905 0.136261 0.734467 0
M  V30 222 H 24.2525 1.02442 1.65806 0
M  V30 223 H 23.3485 0.477002 3.08433 0
M  V30 224 N 23.6496 -1.47581 0.552962 0
M  V30 225 C 24.8986 -2.01684 0.0251995 0
M  V30 226 C 25.2116 -1.43317 -1.33115 0
M  V30 227 O 26.4176 -1.89057 -1.94858 0
M  V30 228 C 24.8736 -3.599 -0.00542052 0
M  V30 229 C 24.4816 -4.27257 1.34742 0
M  V30 230 C 26.2256 -4.21768 -0.4808 0
M  V30 231 C 24.1326 -5.77467 1.27614 0
M  V30 232 H 23.0626 -0.753979 0.00565033 0
M  V30 233 H 25.7136 -1.69616 0.70018 0
M  V30 234 H 24.0956 -3.88911 -0.745961 0
M  V30 235 H 25.2696 -4.09893 2.10534 0
M  V30 236 H 23.5846 -3.77358 1.76039 0
M  V30 237 H 26.1816 -5.31838 -0.55246 0
M  V30 238 H 26.5246 -3.88651 -1.49184 0
M  V30 239 H 27.0576 -3.97273 0.204752 0
M  V30 240 H 23.7966 -6.15196 2.26304 0
M  V30 241 H 23.3166 -5.9718 0.55996 0
M  V30 242 H 24.9956 -6.3959 0.976421 0
M  V30 243 N 25.1277 -0.289203 -1.54924 0
M  V30 244 C 26.5437 0.0645403 -1.59469 0
M  V30 245 C 26.7437 1.53419 -1.30632 0
M  V30 246 O 25.7997 2.2852 -1.074 0
M  V30 247 C 27.1127 -0.32278 -2.98963 0
M  V30 248 C 28.6607 -0.270564 -3.11828 0
M  V30 249 C 29.1357 -0.632532 -4.53611 0
M  V30 250 N 30.6267 -0.584617 -4.59496 0
M  V30 251 C 31.3617 -0.837314 -5.67254 0
M  V30 252 N 30.8577 -1.15536 -6.83098 0
M  V30 253 N 32.6507 -0.765166 -5.56868 0
M  V30 254 H 24.8017 -1.24714 -1.71931 0
M  V30 255 H 27.0647 -0.504809 -0.802416 0
M  V30 256 H 26.7707 -1.34541 -3.24948 0
M  V30 257 H 26.6447 0.32944 -3.75759 0
M  V30 258 H 29.0317 0.742805 -2.85598 0
M  V30 259 H 29.1127 -0.957242 -2.37214 0
M  V30 260 H 28.7567 -1.64365 -4.80569 0
M  V30 261 H 28.6867 0.07609 -5.26545 0
M  V30 262 H 31.1777 -0.349248 -3.76283 0
M  V30 263 H 31.4907 -1.33447 -7.61191 0
M  V30 264 H 29.8357 -1.19328 -6.84679 0
M  V30 265 H 33.0267 -0.516432 -4.65243 0
M  V30 266 H 33.1997 -0.965477 -6.40767 0
M  V30 267 N 26.6058 1.57591 -0.0167156 0
M  V30 268 C 27.5528 2.09462 0.969251 0
M  V30 269 C 28.5228 0.99381 1.33089 0
M  V30 270 O 29.7078 1.26726 1.42636 0
M  V30 271 C 26.8478 2.61622 2.25051 0
M  V30 272 C 25.9608 3.85666 1.94642 0
M  V30 273 C 25.0958 4.26266 3.16972 0
M  V30 274 C 24.1348 5.43101 2.82326 0
M  V30 275 N 23.2718 5.78915 3.97243 0
M  V30 276 H 28.1118 2.93428 0.519997 0
M  V30 277 H 25.6488 1.45044 0.245087 0
M  V30 278 H 27.6068 2.89949 2.99976 0
M  V30 279 H 26.2368 1.80505 2.67615 0
M  V30 280 H 25.2888 3.64145 1.10013 0
M  V30 281 H 26.6008 4.70678 1.65117 0
M  V30 282 H 25.7548 4.55963 4.00228 0
M  V30 283 H 24.4938 3.39996 3.49648 0
M  V30 284 H 23.4988 5.1311 1.97479 0
M  V30 285 H 24.7238 6.3106 2.50879 0
M  V30 286 H 22.6698 4.95602 4.29785 0
M  V30 287 H 22.5868 6.58539 3.71299 0
M  V30 288 H 23.8548 6.13212 4.81239 0
M  V30 289 N 28.0839 -0.256276 1.55502 0
M  V30 290 C 29.3299 -0.982884 1.78076 0
M  V30 291 C 29.6849 -1.83319 0.584109 0
M  V30 292 O 28.9779 -1.86875 -0.422877 0
M  V30 293 C 29.1719 -1.88432 3.03691 0
M  V30 294 C 29.0009 -1.12276 4.35459 0
M  V30 295 C 27.7709 -0.831647 4.98409 0
M  V30 296 C 29.9689 -0.504933 5.11815 0
M  V30 297 N 27.9509 -0.0450423 6.13883 0
M  V30 298 C 29.3219 0.146696 6.19826 0
M  V30 299 C 31.3769 -0.414455 4.96172 0
M  V30 300 C 30.0799 0.880103 7.13895 0
M  V30 301 C 32.1059 0.305398 5.90611 0
M  V30 302 C 31.4679 0.945701 6.98023 0
M  V30 303 H 27.5669 -0.341084 0.703694 0
M  V30 304 H 30.1509 -0.256909 1.92998 0
M  V30 305 H 28.3219 -2.58241 2.90114 0
M  V30 306 H 30.0539 -2.54579 3.14598 0
M  V30 307 H 26.8089 -1.14111 4.59647 0
M  V30 308 H 27.2329 0.336079 6.76165 0
M  V30 309 H 31.8749 -0.895163 4.13215 0
M  V30 310 H 29.5929 1.37244 7.9636 0
M  V30 311 H 33.1789 0.375946 5.80584 0
M  V30 312 H 32.0589 1.49383 7.6984 0
M  V30 313 N 29.562 -1.4872 -0.521534 0
M  V30 314 C 30.792 -1.6061 -1.29954 0
M  V30 315 C 31.2 -0.268728 -1.87282 0
M  V30 316 O 30.543 0.753221 -1.67548 0
M  V30 317 C 30.605 -2.60013 -2.48261 0
M  V30 318 C 30.269 -4.04874 -2.11957 0
M  V30 319 C 31.266 -4.92304 -1.67132 0
M  V30 320 C 28.951 -4.5047 -2.22221 0
M  V30 321 C 30.945 -6.2336 -1.33047 0
M  V30 322 C 28.632 -5.81544 -1.87748 0
M  V30 323 C 29.63 -6.67812 -1.43234 0
M  V30 324 O 29.318 -7.96446 -1.09217 0
M  V30 325 H 29.05 -0.544116 -0.401141 0
M  V30 326 H 31.604 -1.95339 -0.634958 0
M  V30 327 H 29.834 -2.20422 -3.17728 0
M  V30 328 H 31.523 -2.61648 -3.10315 0
M  V30 329 H 32.289 -4.58312 -1.58665 0
M  V30 330 H 28.168 -3.83504 -2.55823 0
M  V30 331 H 31.712 -6.90649 -0.982299 0
M  V30 332 H 27.609 -6.15069 -1.95858 0
M  V30 333 H 28.377 -8.09275 -1.22542 0
M  V30 334 N 31.0401 0.771051 -1.3745 0
M  V30 335 C 32.2701 1.55789 -1.35696 0
M  V30 336 C 32.6781 1.89107 0.0594523 0
M  V30 337 O 32.0211 1.51984 1.03183 0
M  V30 338 C 32.0831 2.89515 -2.13123 0
M  V30 339 C 31.7471 2.78829 -3.62082 0
M  V30 340 C 32.7441 2.49812 -4.5595 0
M  V30 341 C 30.4291 2.9683 -4.05213 0
M  V30 342 C 32.4231 2.38923 -5.90927 0
M  V30 343 C 30.1101 2.85562 -5.40276 0
M  V30 344 C 31.1081 2.56649 -6.32946 0
M  V30 345 O 30.7961 2.45408 -7.65526 0
M  V30 346 H 30.5281 0.489257 -0.466481 0
M  V30 347 H 33.0821 0.963446 -1.81403 0
M  V30 348 H 31.3121 3.51081 -1.62107 0
M  V30 349 H 33.0011 3.50915 -2.03994 0
M  V30 350 H 33.7671 2.3559 -4.23937 0
M  V30 351 H 29.6461 3.18335 -3.33442 0
M  V30 352 H 33.1901 2.16277 -6.63227 0
M  V30 353 H 29.0871 2.99351 -5.71891 0
M  V30 354 H 29.8551 2.60753 -7.75855 0
M  V30 355 N 32.5182 1.22032 0.997298 0
M  V30 356 C 33.4662 0.983634 2.10778 0
M  V30 357 C 34.4602 -0.0717564 1.69248 0
M  V30 358 O 35.6662 0.080304 1.79821 0
M  V30 359 H 32.0412 0.300877 0.689186 0
M  V30 360 H 34.0122 1.92606 2.27916 0
M  V30 361 C 32.7612 0.57326 3.42942 0
M  V30 362 H 32.0842 1.37702 3.75338 0
M  V30 363 H 33.5242 0.447031 4.21637 0
M  V30 364 C 31.9832 -0.7167 3.29188 0
M  V30 365 O 32.5132 -1.77027 3.60589 0
M  V30 366 N 30.7192 -0.686167 2.82383 0
M  V30 367 H 30.2662 0.171507 2.57028 0
M  V30 368 H 30.2242 -1.54955 2.73562 0
M  V30 369 N 33.9963 -1.19345 1.0293 0
M  V30 370 C 34.9593 -2.20793 0.615069 0
M  V30 371 C 35.9593 -1.57553 -0.321533 0
M  V30 372 O 37.1493 -1.73862 -0.108483 0
M  V30 373 C 34.2813 -3.40754 -0.0999222 0
M  V30 374 H 35.4743 -2.58955 1.51269 0
M  V30 375 H 33.0273 -1.3303 0.820534 0
M  V30 376 H 33.7623 -3.0811 -1.01187 0
M  V30 377 H 33.5473 -3.87889 0.57309 0
M  V30 378 H 35.0373 -4.15898 -0.376645 0
M  V30 379 N 35.4744 -0.807222 -1.35358 0
M  V30 380 C 36.4374 -0.223665 -2.28106 0
M  V30 381 C 37.4374 0.589354 -1.4961 0
M  V30 382 O 38.6274 0.407745 -1.69361 0
M  V30 383 C 35.7594 0.688149 -3.33882 0
M  V30 384 H 36.9524 -1.04169 -2.81227 0
M  V30 385 H 34.5054 -0.577921 -1.45223 0
M  V30 386 H 35.2404 1.52984 -2.85948 0
M  V30 387 H 35.0254 0.10687 -3.91954 0
M  V30 388 H 36.5154 1.09075 -4.03104 0
M  V30 389 N 36.9525 1.47285 -0.560781 0
M  V30 390 C 38.2005 2.02064 -0.0379868 0
M  V30 391 C 38.5215 1.43711 1.31803 0
M  V30 392 O 37.7915 0.61362 1.86042 0
M  V30 393 H 36.3715 0.746918 -0.0110531 0
M  V30 394 H 39.0335 1.80648 -0.731598 0
M  V30 395 H 38.1295 3.12064 0.0474463 0
M  V30 396 N 38.4306 0.297415 1.54768 0
M  V30 397 C 39.6776 -0.312913 2.00068 0
M  V30 398 C 40.0056 -1.54171 1.18582 0
M  V30 399 O 39.2606 -1.94108 0.249133 0
M  V30 400 C 39.5596 -0.717561 3.50123 0
M  V30 401 C 39.2256 0.409095 4.4904 0
M  V30 402 C 37.8876 0.718399 4.75807 0
M  V30 403 C 40.2396 1.16717 5.07963 0
M  V30 404 C 37.5676 1.78896 5.5876 0
M  V30 405 C 39.9196 2.22762 5.92081 0
M  V30 406 C 38.5836 2.54303 6.1716 0
M  V30 407 H 37.8536 -0.114503 0.7321 0
M  V30 408 H 40.5006 0.415767 1.86932 0
M  V30 409 H 38.8056 -1.52627 3.60849 0
M  V30 410 H 40.5026 -1.20091 3.82595 0
M  V30 411 H 37.0926 0.157918 4.28309 0
M  V30 412 H 41.2766 0.941466 4.87289 0
M  V30 413 H 36.5326 2.0381 5.7643 0
M  V30 414 H 40.7066 2.81962 6.36765 0
M  V30 415 H 38.3336 3.3739 6.81229 0
M  V30 416 N 39.9087 -1.5758 0.0250728 0
M  V30 417 C 40.8567 -2.11125 -0.97617 0
M  V30 418 C 41.8507 -1.03689 -1.33959 0
M  V30 419 O 43.0567 -1.22128 -1.3223 0
M  V30 420 H 39.4317 -0.674468 -0.332561 0
M  V30 421 H 41.4027 -2.94194 -0.499223 0
M  V30 422 C 40.1517 -2.65017 -2.2508 0
M  V30 423 H 39.4747 -3.47333 -1.9799 0
M  V30 424 H 40.9147 -3.06133 -2.93357 0
M  V30 425 C 39.3737 -1.57574 -2.97779 0
M  V30 426 O 39.9037 -0.973203 -3.89733 0
M  V30 427 N 38.1097 -1.29716 -2.60043 0
M  V30 428 H 37.6567 -1.789 -1.85345 0
M  V30 429 H 37.6147 -0.58051 -3.08994 0
M  V30 430 N 41.3868 0.248026 -1.55636 0
M  V30 431 C 42.3338 1.30707 -1.90222 0
M  V30 432 C 43.3038 1.47881 -0.756332 0
M  V30 433 O 44.4888 1.61883 -1.00988 0
M  V30 434 C 41.6288 2.65769 -2.20138 0
M  V30 435 C 40.7418 2.56612 -3.47526 0
M  V30 436 C 39.8768 3.8402 -3.67017 0
M  V30 437 C 38.9158 3.69476 -4.8801 0
M  V30 438 N 38.0528 4.88774 -5.04029 0
M  V30 439 H 42.8928 1.00512 -2.80538 0
M  V30 440 H 40.4298 0.485055 -1.38873 0
M  V30 441 H 42.3878 3.44386 -2.35487 0
M  V30 442 H 41.0178 2.94115 -1.33027 0
M  V30 443 H 40.0698 1.69571 -3.40514 0
M  V30 444 H 41.3818 2.41774 -4.36287 0
M  V30 445 H 40.5358 4.7108 -3.8232 0
M  V30 446 H 39.2748 4.01754 -2.76487 0
M  V30 447 H 38.2798 2.80799 -4.72686 0
M  V30 448 H 39.5048 3.53238 -5.8 0
M  V30 449 H 37.4508 5.0687 -4.16435 0
M  V30 450 H 37.3678 4.76562 -5.86877 0
M  V30 451 H 38.6358 5.77335 -5.23741 0
M  V30 452 N 42.8649 1.48995 0.513639 0
M  V30 453 C 43.7949 1.67636 1.62544 0
M  V30 454 C 44.7759 0.525087 1.61793 0
M  V30 455 O 45.9609 0.759502 1.78732 0
M  V30 456 C 43.0909 1.73114 3.01079 0
M  V30 457 C 42.0449 2.87905 3.16693 0
M  V30 458 C 41.3709 2.78486 4.56453 0
M  V30 459 C 42.6709 4.29005 2.97913 0
M  V30 460 H 44.3649 2.60716 1.47198 0
M  V30 461 H 41.9109 1.25465 0.706714 0
M  V30 462 H 43.8639 1.84742 3.78746 0
M  V30 463 H 42.5879 0.766241 3.17484 0
M  V30 464 H 41.2469 2.75859 2.41448 0
M  V30 465 H 40.8949 1.7993 4.69717 0
M  V30 466 H 40.5949 3.55523 4.67843 0
M  V30 467 H 42.1189 2.92104 5.36197 0
M  V30 468 H 43.5329 4.41798 3.65359 0
M  V30 469 H 41.9299 5.07166 3.20785 0
M  V30 470 H 42.9999 4.44329 1.94165 0
M  V30 471 N 44.343 -0.763751 1.37857 0
M  V30 472 C 45.591 -1.51957 1.33243 0
M  V30 473 C 45.912 -1.94835 -0.0801709 0
M  V30 474 O 45.182 -1.66894 -1.02582 0
M  V30 475 H 43.762 -0.563626 0.49024 0
M  V30 476 H 46.424 -0.908504 1.7243 0
M  V30 477 H 45.52 -2.41523 1.97669 0
M  V30 478 N 45.8211 -1.22559 -0.990812 0
M  V30 479 C 46.7511 -1.0218 -2.09956 0
M  V30 480 C 47.7321 0.0579394 -1.70001 0
M  V30 481 O 48.9171 -0.104684 -1.93918 0
M  V30 482 C 46.0471 -0.601023 -3.4206 0
M  V30 483 C 45.0011 -1.62694 -3.95872 0
M  V30 484 C 44.3271 -1.06193 -5.24049 0
M  V30 485 C 45.6271 -3.01743 -4.2632 0
M  V30 486 H 47.3211 -1.94916 -2.27262 0
M  V30 487 H 44.8671 -0.938566 -1.09211 0
M  V30 488 H 46.8201 -0.445561 -4.19038 0
M  V30 489 H 45.5441 0.362005 -3.24588 0
M  V30 490 H 44.2031 -1.77021 -3.21028 0
M  V30 491 H 43.8511 -0.0901903 -5.02919 0
M  V30 492 H 43.5511 -1.74732 -5.61019 0
M  V30 493 H 45.0751 -0.918092 -6.03658 0
M  V30 494 H 46.4891 -2.90777 -4.94087 0
M  V30 495 H 44.8861 -3.67425 -4.74467 0
M  V30 496 H 45.9561 -3.51518 -3.34011 0
M  V30 497 N 47.2992 1.18797 -1.03562 0
M  V30 498 C 48.2322 2.2105 -0.56676 0
M  V30 499 C 49.2102 1.57704 0.395993 0
M  V30 500 O 50.3942 1.85908 0.311498 0
M  V30 501 C 47.5212 3.38259 0.172704 0
M  V30 502 C 46.5672 4.19987 -0.74252 0
M  V30 503 S 47.4002 4.87199 -2.22254 0
M  V30 504 C 48.5562 6.07813 -1.49379 0
M  V30 505 H 48.7892 2.60478 -1.43312 0
M  V30 506 H 46.3222 1.29151 -0.846133 0
M  V30 507 H 48.2802 4.06191 0.593191 0
M  V30 508 H 46.9412 2.97252 1.01488 0
M  V30 509 H 46.1342 5.03709 -0.171265 0
M  V30 510 H 45.7362 3.57408 -1.10163 0
M  V30 511 H 48.0282 6.72948 -0.784056 0
M  V30 512 H 48.9712 6.69435 -2.30786 0
M  V30 513 H 49.3792 5.55781 -0.988331 0
M  V30 514 N 48.7773 0.814389 1.34928 0
M  V30 515 C 50.1933 0.499084 1.51596 0
M  V30 516 C 50.3933 -0.978319 1.76157 0
M  V30 517 O 49.4493 -1.76309 1.80752 0
M  V30 518 C 50.7623 1.35121 2.68631 0
M  V30 519 C 52.3103 1.34746 2.82511 0
M  V30 520 C 52.7853 2.18388 4.0258 0
M  V30 521 N 54.2763 2.15966 4.09772 0
M  V30 522 C 55.0113 2.77437 5.01813 0
M  V30 523 N 54.5073 3.47866 5.99134 0
M  V30 524 N 56.3003 2.67037 4.94619 0
M  V30 525 H 48.4513 1.7711 1.17243 0
M  V30 526 H 50.7143 0.754256 0.574284 0
M  V30 527 H 50.4203 2.40001 2.57085 0
M  V30 528 H 50.2943 1.00991 3.63429 0
M  V30 529 H 52.6813 0.30648 2.93504 0
M  V30 530 H 52.7623 1.72869 1.88547 0
M  V30 531 H 52.4063 3.2253 3.92347 0
M  V30 532 H 52.3363 1.77621 4.9574 0
M  V30 533 H 54.8273 1.64729 3.40107 0
M  V30 534 H 55.1403 3.92038 6.65977 0
M  V30 535 H 53.4853 3.51972 5.99284 0
M  V30 536 H 56.6763 2.11597 4.17546 0
M  V30 537 H 56.8493 3.15232 5.66156 0
M  V30 538 N 50.2554 -1.46986 0.568584 0
M  V30 539 C 51.5324 -1.95592 -0.0174074 0
M  V30 540 C 51.9124 -1.51124 -1.47393 0
M  V30 541 O 51.2604 -0.755329 -2.15655 0
M  V30 542 C 51.4704 -3.48719 0.139913 0
M  V30 543 C 52.8184 -4.246 0.000426376 0
M  V30 544 O 53.8424 -3.56135 0.0680316 0
M  V30 545 O 52.7014 -5.46302 -0.146988 0
M  V30 546 H 49.7954 -0.82498 -0.0577599 0
M  V30 547 H 52.3414 -1.57335 0.635909 0
M  V30 548 H 51.1134 -3.73927 1.15301 0
M  V30 549 H 50.7364 -3.93771 -0.550491 0
M  V30 550 N 51.7335 -0.305618 -1.54608 0
M  V30 551 C 53.0105 0.355652 -1.92339 0
M  V30 552 C 53.3905 1.71324 -1.23335 0
M  V30 553 O 52.7385 2.25473 -0.370702 0
M  V30 554 C 52.9485 0.46572 -3.45879 0
M  V30 555 C 54.2965 0.734426 -4.182 0
M  V30 556 O 55.3205 0.54935 -3.51938 0
M  V30 557 O 54.1795 1.09024 -5.35515 0
M  V30 558 H 51.2735 0.199666 -0.802535 0
M  V30 559 H 53.8195 -0.354017 -1.65966 0
M  V30 560 H 52.5915 -0.488461 -3.88239 0
M  V30 561 H 52.2145 1.22367 -3.78301 0
M  V30 562 N 53.2116 1.57565 -0.0334293 0
M  V30 563 C 54.4396 1.9628 0.654347 0
M  V30 564 C 54.8546 0.910138 1.65414 0
M  V30 565 O 54.2116 -0.107595 1.82183 0
M  V30 566 C 54.2626 3.35067 1.35693 0
M  V30 567 O 53.9836 4.36296 0.397191 0
M  V30 568 C 55.4846 3.88439 2.13613 0
M  V30 569 H 52.7046 0.646369 0.180132 0
M  V30 570 H 55.2486 2.04282 -0.0944721 0
M  V30 571 H 53.4036 3.2827 2.05712 0
M  V30 572 H 53.8176 5.1678 0.896597 0
M  V30 573 H 55.2916 4.8788 2.58219 0
M  V30 574 H 55.7686 3.22914 2.97696 0
M  V30 575 H 56.3746 3.98516 1.48543 0
M  V30 576 N 54.6897 -0.239769 1.55765 0
M  V30 577 C 55.9387 -0.964754 1.77131 0
M  V30 578 C 56.2517 -1.86213 0.59868 0
M  V30 579 O 57.4577 -2.6244 0.695522 0
M  V30 580 C 55.9137 -1.76552 3.1362 0
M  V30 581 C 55.5217 -0.915185 4.38553 0
M  V30 582 C 57.2657 -2.48281 3.44321 0
M  V30 583 C 55.1727 -1.71225 5.66071 0
M  V30 584 H 54.1027 -0.363953 0.660344 0
M  V30 585 H 56.7537 -0.219181 1.82186 0
M  V30 586 H 55.1357 -2.55331 3.02691 0
M  V30 587 H 56.3097 -0.169217 4.60489 0
M  V30 588 H 54.6247 -0.310889 4.15238 0
M  V30 589 H 57.2217 -3.08382 4.36812 0
M  V30 590 H 57.5647 -3.20256 2.65973 0
M  V30 591 H 58.0977 -1.76507 3.56497 0
M  V30 592 H 54.8367 -1.03612 6.4726 0
M  V30 593 H 54.3567 -2.43331 5.48224 0
M  V30 594 H 56.0357 -2.27758 6.05587 0
M  V30 595 N 56.1678 -1.49265 -0.50573 0
M  V30 596 C 57.3978 -1.61979 -1.28243 0
M  V30 597 C 57.8058 -0.288576 -1.86986 0
M  V30 598 O 57.1488 0.735408 -1.68337 0
M  V30 599 C 57.2108 -2.62632 -2.45489 0
M  V30 600 C 56.8748 -4.071 -2.07651 0
M  V30 601 C 57.8718 -4.94049 -1.61901 0
M  V30 602 C 55.5568 -4.52801 -2.17431 0
M  V30 603 C 57.5508 -6.24736 -1.26428 0
M  V30 604 C 55.2378 -5.83503 -1.8157 0
M  V30 605 C 56.2358 -6.69294 -1.36142 0
M  V30 606 O 55.9238 -7.9756 -1.00764 0
M  V30 607 H 55.6558 -0.54834 -0.395347 0
M  V30 608 H 58.2098 -1.96002 -0.614204 0
M  V30 609 H 56.4398 -2.2378 -3.15372 0
M  V30 610 H 58.1288 -2.64925 -3.07522 0
M  V30 611 H 58.8948 -4.5997 -1.53795 0
M  V30 612 H 54.7738 -3.86196 -2.51742 0
M  V30 613 H 58.3178 -6.91652 -0.908992 0
M  V30 614 H 54.2148 -6.17112 -1.89324 0
M  V30 615 H 54.9828 -8.10529 -1.13952 0
M  V30 616 N 57.6459 0.756429 -1.3826 0
M  V30 617 C 58.5559 1.9009 -1.37488 0
M  V30 618 C 59.5719 1.71855 -0.272366 0
M  V30 619 O 60.7479 1.94827 -0.510318 0
M  V30 620 C 57.8129 3.25421 -1.19592 0
M  V30 621 C 56.8739 3.56202 -2.39622 0
M  V30 622 C 56.1069 4.85075 -2.2257 0
M  V30 623 O 56.3299 5.57246 -1.21793 0
M  V30 624 O 55.2639 5.15269 -3.11098 0
M  V30 625 H 59.0899 1.93695 -2.33914 0
M  V30 626 H 56.6749 0.901313 -1.1915 0
M  V30 627 H 58.5569 4.06337 -1.11661 0
M  V30 628 H 57.2319 3.22634 -0.262486 0
M  V30 629 H 56.1389 2.75458 -2.53128 0
M  V30 630 H 57.4719 3.63747 -3.31586 0
M  V30 631 N 59.124 1.23083 0.984299 0
M  V30 632 C 60.401 0.9689 1.69917 0
M  V30 633 C 60.781 -0.513604 2.04757 0
M  V30 634 O 60.129 -1.48383 1.73767 0
M  V30 635 C 60.339 1.87518 2.94343 0
M  V30 636 C 61.687 2.13636 3.6694 0
M  V30 637 O 62.711 1.85036 3.04368 0
M  V30 638 O 61.57 2.62119 4.79537 0
M  V30 639 H 58.664 0.365095 0.742048 0
M  V30 640 H 61.21 1.34107 1.03987 0
M  V30 641 H 59.982 2.87756 2.65164 0
M  V30 642 H 59.605 1.50514 3.6801 0
M  V30 643 N 60.6021 -1.18246 1.0419 0
M  V30 644 C 61.5121 -2.25574 0.644476 0
M  V30 645 C 62.5281 -1.70845 -0.329826 0
M  V30 646 O 63.7041 -2.00554 -0.184443 0
M  V30 647 C 60.7691 -3.46697 0.014877 0
M  V30 648 C 59.8301 -4.16554 1.03834 0
M  V30 649 C 59.0631 -5.31894 0.438692 0
M  V30 650 O 59.2861 -5.65385 -0.754752 0
M  V30 651 O 58.2201 -5.90459 1.168 0
M  V30 652 H 62.0461 -2.61836 1.53869 0
M  V30 653 H 59.6311 -1.25352 0.812854 0
M  V30 654 H 61.5131 -4.20062 -0.335538 0
M  V30 655 H 60.1881 -3.12255 -0.853138 0
M  V30 656 H 59.0951 -3.45251 1.44057 0
M  V30 657 H 60.4281 -4.54998 1.87716 0
M  V30 658 N 62.0802 -0.821533 -1.34494 0
M  V30 659 C 63.3572 -0.33159 -1.92769 0
M  V30 660 C 63.7372 1.18088 -1.74981 0
M  V30 661 O 63.0852 1.98733 -1.12772 0
M  V30 662 C 63.2952 -0.759398 -3.40638 0
M  V30 663 C 64.6432 -0.757433 -4.1779 0
M  V30 664 O 65.6672 -0.70189 -3.49216 0
M  V30 665 O 64.5262 -0.829361 -5.4017 0
M  V30 666 H 61.6202 -0.0902502 -0.822061 0
M  V30 667 H 64.1662 -0.906231 -1.43477 0
M  V30 668 H 62.9382 -1.8012 -3.47379 0
M  V30 669 H 62.5612 -0.160378 -3.97276 0
M  V30 670 N 63.5583 1.46682 -0.576371 0
M  V30 671 C 64.8043 2.02712 -0.0596221 0
M  V30 672 C 65.1373 1.44765 1.29448 0
M  V30 673 O 64.4123 0.610355 1.84675 0
M  V30 674 C 64.6953 3.60098 0.0129503 0
M  V30 675 C 64.5483 4.28441 -1.3696 0
M  V30 676 C 65.8673 4.34224 0.71678 0
M  V30 677 H 62.9863 0.736637 -0.0231407 0
M  V30 678 H 65.6283 1.74898 -0.742351 0
M  V30 679 H 63.7783 3.83926 0.594378 0
M  V30 680 H 65.4503 4.15896 -1.9957 0
M  V30 681 H 63.6933 3.8805 -1.93907 0
M  V30 682 H 64.3643 5.3716 -1.27135 0
M  V30 683 H 66.8403 4.15503 0.222908 0
M  V30 684 H 65.7163 5.43936 0.73657 0
M  V30 685 H 65.9773 4.04823 1.77682 0
M  V30 686 N 65.0364 0.313813 1.54444 0
M  V30 687 C 65.9834 -0.55655 2.23989 0
M  V30 688 C 66.9534 -1.11943 1.22711 0
M  V30 689 O 68.1384 -1.16158 1.51367 0
M  V30 690 C 65.2784 -1.71635 2.99392 0
M  V30 691 C 64.3914 -1.18364 4.15468 0
M  V30 692 C 63.5264 -2.30834 4.78424 0
M  V30 693 C 62.5654 -1.74762 5.86622 0
M  V30 694 N 61.7024 -2.80855 6.43479 0
M  V30 695 H 66.5424 0.0430893 2.97969 0
M  V30 696 H 64.0794 0.0330359 1.47063 0
M  V30 697 H 66.0374 -2.39868 3.41349 0
M  V30 698 H 64.6674 -2.28742 2.27765 0
M  V30 699 H 63.7194 -0.393163 3.78363 0
M  V30 700 H 65.0314 -0.733262 4.93381 0
M  V30 701 H 64.1854 -3.0699 5.23299 0
M  V30 702 H 62.9244 -2.79204 3.99871 0
M  V30 703 H 61.9294 -0.970995 5.41158 0
M  V30 704 H 63.1544 -1.2728 6.67066 0
M  V30 705 H 61.1004 -3.28535 5.67804 0
M  V30 706 H 61.0174 -2.40351 7.16776 0
M  V30 707 H 62.2854 -3.5687 6.93011 0
M  V30 708 N 66.5145 -1.57545 0.0417849 0
M  V30 709 C 67.4245 -2.14451 -0.951213 0
M  V30 710 C 68.4405 -1.09992 -1.34825 0
M  V30 711 O 69.6165 -1.42114 -1.42708 0
M  V30 712 C 66.6815 -2.67063 -2.21084 0
M  V30 713 C 65.7425 -3.86284 -1.87304 0
M  V30 714 C 64.9755 -4.36378 -3.07261 0
M  V30 715 O 65.1985 -3.85587 -4.20332 0
M  V30 716 O 64.1325 -5.28077 -2.88822 0
M  V30 717 H 67.9585 -2.99601 -0.497287 0
M  V30 718 H 65.5435 -1.48317 -0.179567 0
M  V30 719 H 67.4255 -3.00914 -2.95006 0
M  V30 720 H 66.1005 -1.84989 -2.65633 0
M  V30 721 H 65.0075 -3.57338 -1.10727 0
M  V30 722 H 66.3405 -4.6956 -1.47562 0
M  V30 723 N 67.9926 0.231505 -1.5589 0
M  V30 724 C 68.9556 1.27028 -1.90779 0
M  V30 725 C 69.9556 1.40308 -0.785507 0
M  V30 726 O 71.1456 1.38744 -1.05336 0
M  V30 727 C 68.2776 2.64566 -2.14983 0
M  V30 728 H 69.4706 0.973017 -2.83677 0
M  V30 729 H 67.0236 0.471486 -1.49019 0
M  V30 730 H 67.7586 2.99406 -1.24604 0
M  V30 731 H 67.5436 2.56305 -2.96732 0
M  V30 732 H 69.0336 3.39543 -2.43105 0
M  V30 733 N 69.4707 1.49531 0.497807 0
M  V30 734 C 70.7197 1.58426 1.24837 0
M  V30 735 C 71.0327 0.277643 1.93619 0
M  V30 736 O 72.2387 0.24517 2.70391 0
M  V30 737 C 70.6947 2.79538 2.26686 0
M  V30 738 C 70.3027 4.16971 1.63828 0
M  V30 739 C 72.0467 2.97764 3.0255 0
M  V30 740 C 69.9537 5.29301 2.63807 0
M  V30 741 H 68.8837 0.58989 0.469623 0
M  V30 742 H 71.5347 1.75923 0.521857 0
M  V30 743 H 69.9167 2.55542 3.02514 0
M  V30 744 H 71.0907 4.51116 0.939711 0
M  V30 745 H 69.4057 4.04129 1.00342 0
M  V30 746 H 72.0027 3.78856 3.77323 0
M  V30 747 H 72.3457 2.08448 3.60354 0
M  V30 748 H 72.8787 3.21815 2.33838 0
M  V30 749 H 69.6177 6.20687 2.10779 0
M  V30 750 H 69.1377 4.99606 3.31894 0
M  V30 751 H 70.8167 5.58768 3.2617 0
M  V30 752 N 70.9488 -0.749086 1.3866 0
M  V30 753 C 72.3648 -1.05276 1.19955 0
M  V30 754 C 72.5648 -2.01435 0.05134 0
M  V30 755 O 71.6208 -2.45232 -0.60147 0
M  V30 756 C 72.9338 -1.62853 2.52783 0
M  V30 757 C 74.4818 -1.75002 2.59506 0
M  V30 758 C 74.9568 -2.35991 3.92521 0
M  V30 759 N 76.4478 -2.43416 3.94085 0
M  V30 760 C 77.1828 -2.91511 4.9377 0
M  V30 761 N 76.6788 -3.39608 6.03853 0
M  V30 762 N 78.4718 -2.90592 4.81157 0
M  V30 763 H 70.6228 -0.111066 2.12109 0
M  V30 764 H 72.8858 -0.111901 0.941373 0
M  V30 765 H 72.5918 -0.99664 3.37283 0
M  V30 766 H 72.4658 -2.61854 2.715 0
M  V30 767 H 74.8528 -2.37317 1.75398 0
M  V30 768 H 74.9338 -0.74693 2.44652 0
M  V30 769 H 74.5778 -1.74308 4.77053 0
M  V30 770 H 74.5078 -3.3695 4.04688 0
M  V30 771 H 76.9988 -2.09405 3.14576 0
M  V30 772 H 77.3118 -3.74775 6.75843 0
M  V30 773 H 75.6568 -3.37653 6.07466 0
M  V30 774 H 78.8478 -2.52332 3.94267 0
M  V30 775 H 79.0208 -3.27762 5.58996 0
M  V30 776 N 72.4269 -1.23603 -0.977757 0
M  V30 777 C 73.8429 -0.999251 -1.24447 0
M  V30 778 C 74.0429 0.298053 -1.99283 0
M  V30 779 O 73.0989 1.01681 -2.31122 0
M  V30 780 C 74.4119 -2.20784 -2.04144 0
M  V30 781 C 75.9599 -2.25303 -2.17273 0
M  V30 782 C 76.4349 -3.45755 -3.00362 0
M  V30 783 N 77.9259 -3.4601 -3.07947 0
M  V30 784 C 78.6609 -4.35868 -3.72568 0
M  V30 785 N 78.1569 -5.35966 -4.38991 0
M  V30 786 N 79.9499 -4.23605 -3.6948 0
M  V30 787 H 72.1009 -2.06986 -0.476483 0
M  V30 788 H 74.3639 -0.907801 -0.273134 0
M  V30 789 H 74.0699 -3.14945 -1.56533 0
M  V30 790 H 73.9439 -2.22085 -3.04891 0
M  V30 791 H 76.3309 -1.3168 -2.64092 0
M  V30 792 H 76.4119 -2.28033 -1.15907 0
M  V30 793 H 76.0559 -4.39687 -2.5424 0
M  V30 794 H 75.9859 -3.40266 -4.01904 0
M  V30 795 H 78.4769 -2.73588 -2.60688 0
M  V30 796 H 78.7899 -6.00783 -4.86086 0
M  V30 797 H 77.1349 -5.39863 -4.37691 0
M  V30 798 H 80.3259 -3.44647 -3.16759 0
M  V30 799 H 80.4989 -4.93836 -4.1956 0
M  V30 800 N 73.905 1.17692 -1.04816 0
M  V30 801 C 74.835 2.23777 -0.666791 0
M  V30 802 C 75.816 1.66796 0.33361 0
M  V30 803 O 77.001 1.93039 0.212042 0
M  V30 804 C 74.131 3.47281 -0.0367933 0
M  V30 805 C 73.085 4.17059 -0.961546 0
M  V30 806 C 72.411 5.34342 -0.195626 0
M  V30 807 C 73.711 4.69713 -2.28402 0
M  V30 808 H 75.405 2.55933 -1.55367 0
M  V30 809 H 72.951 1.23019 -0.748484 0
M  V30 810 H 74.904 4.20706 0.241775 0
M  V30 811 H 73.628 3.14381 0.885004 0
M  V30 812 H 72.287 3.45541 -1.22462 0
M  V30 813 H 71.935 4.97692 0.728816 0
M  V30 814 H 71.635 5.81966 -0.811775 0
M  V30 815 H 73.159 6.10553 0.0757473 0
M  V30 816 H 74.573 5.34794 -2.06563 0
M  V30 817 H 72.97 5.279 -2.8538 0
M  V30 818 H 74.04 3.86726 -2.92525 0
M  V30 819 N 75.3831 0.828654 1.34056 0
M  V30 820 C 76.7941 0.477534 1.8049 0
M  V30 821 C 77.1451 -1.00258 1.6865 0
M  V30 822 O 76.2701 -1.78057 1.22982 0
M  V30 823 C 76.8651 0.860018 3.27703 0
M  V30 824 C 75.4241 0.561185 3.72193 0
M  V30 825 C 74.5711 1.07385 2.55663 0
M  V30 826 H 77.5221 1.0183 1.21722 0
M  V30 827 H 77.5431 0.166038 3.80138 0
M  V30 828 H 77.0551 1.93731 3.36288 0
M  V30 829 H 75.1561 -0.506465 3.69142 0
M  V30 830 H 75.2691 1.10926 4.66082 0
M  V30 831 H 73.6331 0.495149 2.49841 0
M  V30 832 H 74.4161 2.15771 2.67016 0
M  V30 833 N 76.8612 -1.46375 0.584142 0
M  V30 834 C 77.7712 -2.34115 -0.150728 0
M  V30 835 C 78.7872 -1.49838 -0.884567 0
M  V30 836 O 79.9632 -1.82704 -0.847429 0
M  V30 837 C 77.0282 -3.2705 -1.15062 0
M  V30 838 C 76.0892 -4.27228 -0.421293 0
M  V30 839 C 75.3222 -5.15722 -1.37355 0
M  V30 840 O 75.5452 -5.07176 -2.61014 0
M  V30 841 O 74.4792 -5.95383 -0.883355 0
M  V30 842 H 78.3052 -2.98309 0.569708 0
M  V30 843 H 75.8902 -1.45373 0.344535 0
M  V30 844 H 77.7722 -3.84381 -1.72712 0
M  V30 845 H 76.4472 -2.65451 -1.8525 0
M  V30 846 H 75.3542 -3.7358 0.197085 0
M  V30 847 H 76.6872 -4.91616 0.239641 0
M  V30 848 N 78.3393 -0.321999 -1.54275 0
M  V30 849 C 79.2873 0.560206 -2.25753 0
M  V30 850 C 80.2813 1.11984 -1.27106 0
M  V30 851 O 81.4873 1.06806 -1.44888 0
M  V30 852 H 77.8623 0.199304 -0.725108 0
M  V30 853 H 79.8333 -0.0649365 -2.98329 0
M  V30 854 C 78.5823 1.71023 -3.02731 0
M  V30 855 H 77.9053 1.28885 -3.78456 0
M  V30 856 H 79.3453 2.30314 -3.55993 0
M  V30 857 C 77.8043 2.62692 -2.10938 0
M  V30 858 O 78.3343 3.64364 -1.6912 0
M  V30 859 N 76.5403 2.30891 -1.76459 0
M  V30 860 H 76.0873 1.48253 -2.10663 0
M  V30 861 H 76.0453 2.92487 -1.1532 0
M  V30 862 N 79.8174 1.5752 -0.0501392 0
M  V30 863 C 80.7474 2.14502 0.922566 0
M  V30 864 C 81.7284 1.06642 1.3252 0
M  V30 865 O 82.9134 1.34577 1.4001 0
M  V30 866 C 80.0434 2.68916 2.19776 0
M  V30 867 C 78.9974 3.8175 1.93523 0
M  V30 868 C 78.3234 4.22677 3.27487 0
M  V30 869 C 79.6234 5.06932 1.25765 0
M  V30 870 H 81.3174 2.9603 0.447952 0
M  V30 871 H 78.8634 1.42401 0.214024 0
M  V30 872 H 80.8164 3.07419 2.88222 0
M  V30 873 H 79.5404 1.84578 2.69441 0
M  V30 874 H 78.1994 3.43718 1.27489 0
M  V30 875 H 77.8474 3.35291 3.74952 0
M  V30 876 H 77.5474 4.98725 3.1072 0
M  V30 877 H 79.0714 4.63779 3.97166 0
M  V30 878 H 80.4854 5.42888 1.84244 0
M  V30 879 H 78.8824 5.88116 1.19328 0
M  V30 880 H 79.9524 4.84337 0.233536 0
M  V30 881 N 81.2955 -0.223234 1.56011 0
M  V30 882 C 82.5255 -0.963413 1.82762 0
M  V30 883 C 82.9335 -1.78516 0.626804 0
M  V30 884 O 82.2765 -1.78974 -0.414014 0
M  V30 885 C 82.3385 -1.93126 3.0322 0
M  V30 886 C 82.0025 -1.2942 4.38291 0
M  V30 887 C 82.9995 -0.684916 5.15369 0
M  V30 888 C 80.6845 -1.30647 4.85012 0
M  V30 889 C 82.6785 -0.0963971 6.37327 0
M  V30 890 C 80.3655 -0.71411 6.06913 0
M  V30 891 C 81.3635 -0.110123 6.82911 0
M  V30 892 O 81.0515 0.47303 8.02507 0
M  V30 893 H 80.7835 -0.288011 0.611576 0
M  V30 894 H 83.3375 -0.244103 2.03944 0
M  V30 895 H 81.5675 -2.68952 2.77852 0
M  V30 896 H 83.2565 -2.53685 3.16857 0
M  V30 897 H 84.0225 -0.667774 4.80381 0
M  V30 898 H 79.9015 -1.76598 4.25833 0
M  V30 899 H 83.4455 0.375657 6.96588 0
M  V30 900 H 79.3425 -0.728659 6.41374 0
M  V30 901 H 80.1105 0.367186 8.17676 0
M  V30 902 N 82.7736 -1.49793 -0.48987 0
M  V30 903 C 83.7216 -1.67783 -1.61095 0
M  V30 904 C 84.7156 -0.543683 -1.60438 0
M  V30 905 O 85.9216 -0.723647 -1.64813 0
M  V30 906 H 82.2966 -0.529255 -0.534222 0
M  V30 907 H 84.2676 -2.61861 -1.43078 0
M  V30 908 C 83.0166 -1.77191 -2.99164 0
M  V30 909 H 82.3396 -2.63841 -3.0038 0
M  V30 910 H 83.7796 -1.93809 -3.77113 0
M  V30 911 C 82.2386 -0.519203 -3.32875 0
M  V30 912 O 82.7686 0.350124 -4.00171 0
M  V30 913 N 80.9746 -0.378816 -2.8812 0
M  V30 914 H 80.5216 -1.08725 -2.33531 0
M  V30 915 H 80.4796 0.458239 -3.11043 0
M  V30 916 N 84.2517 0.741722 -1.39055 0
M  V30 917 C 85.5287 1.49252 -1.26425 0
M  V30 918 C 85.9087 2.10705 0.129144 0
M  V30 919 O 85.2567 1.98045 1.13976 0
M  V30 920 C 85.4667 2.54934 -2.38347 0
M  V30 921 C 86.8147 3.21506 -2.77343 0
M  V30 922 O 87.8387 2.65245 -2.37747 0
M  V30 923 O 86.6977 4.23294 -3.45665 0
M  V30 924 H 83.7917 0.662451 -0.495064 0
M  V30 925 H 86.3377 0.776121 -1.50912 0
M  V30 926 H 85.1097 2.07857 -3.31529 0
M  V30 927 H 84.7327 3.34141 -2.15489 0
M  V30 928 N 85.7298 1.2412 0.971189 0
M  V30 929 C 87.1458 1.00584 1.23916 0
M  V30 930 C 87.3458 -0.287481 1.99439 0
M  V30 931 O 86.4018 -1.00454 2.31658 0
M  V30 932 C 87.7148 2.21864 2.0297 0
M  V30 933 C 89.2628 2.26452 2.16076 0
M  V30 934 C 89.7378 3.47343 2.98524 0
M  V30 935 N 91.2288 3.47639 3.06107 0
M  V30 936 C 91.9638 4.37837 3.70251 0
M  V30 937 N 91.4598 5.38286 4.36142 0
M  V30 938 N 93.2528 4.25558 3.67228 0
M  V30 939 H 85.4038 2.07236 0.465499 0
M  V30 940 H 87.6668 0.909236 0.268315 0
M  V30 941 H 87.3728 3.15771 1.54861 0
M  V30 942 H 87.2468 2.23698 3.03709 0
M  V30 943 H 89.6338 1.33078 2.6339 0
M  V30 944 H 89.7148 2.28645 1.14696 0
M  V30 945 H 89.3588 4.41029 2.51905 0
M  V30 946 H 89.2888 3.42393 4.00093 0
M  V30 947 H 91.7798 2.74966 2.59233 0
M  V30 948 H 92.0928 6.03352 4.82894 0
M  V30 949 H 90.4378 5.42176 4.34822 0
M  V30 950 H 93.6288 3.46322 3.14927 0
M  V30 951 H 93.8018 4.96054 4.16935 0
M  V30 952 N 87.2079 -1.17134 1.05439 0
M  V30 953 C 88.1409 -2.2012 0.601855 0
M  V30 954 C 89.1189 -1.58314 -0.370854 0
M  V30 955 O 90.3029 -1.8638 -0.281882 0
M  V30 956 C 87.4299 -3.38491 -0.118868 0
M  V30 957 C 86.4759 -4.18752 0.809242 0
M  V30 958 S 87.3089 -4.83602 2.29977 0
M  V30 959 C 88.4649 -6.0536 1.59029 0
M  V30 960 H 88.6979 -2.58165 1.47438 0
M  V30 961 H 86.2309 -1.27788 0.866573 0
M  V30 962 H 88.1889 -4.07084 -0.528495 0
M  V30 963 H 86.8499 -2.98829 -0.967465 0
M  V30 964 H 86.0429 -5.03373 0.251379 0
M  V30 965 H 85.6449 -3.5561 1.15835 0
M  V30 966 H 87.9369 -6.71615 0.891017 0
M  V30 967 H 88.8799 -6.65679 2.41407 0
M  V30 968 H 89.2879 -5.54138 1.07663 0
M  V30 969 N 88.686 -0.835752 -1.33615 0
M  V30 970 C 89.933 -0.429959 -1.97883 0
M  V30 971 C 90.261 1.01006 -1.66217 0
M  V30 972 O 89.516 1.72047 -0.93265 0
M  V30 973 C 89.815 -0.593925 -3.52431 0
M  V30 974 C 89.481 -2.00158 -4.04039 0
M  V30 975 C 88.143 -2.38662 -4.17844 0
M  V30 976 C 90.495 -2.92117 -4.31644 0
M  V30 977 C 87.823 -3.68435 -4.56588 0
M  V30 978 C 90.175 -4.21368 -4.71838 0
M  V30 979 C 88.839 -4.59833 -4.83849 0
M  V30 980 H 88.109 -0.157333 -0.724104 0
M  V30 981 H 90.756 -1.06217 -1.59343 0
M  V30 982 H 89.061 0.121619 -3.91611 0
M  V30 983 H 90.758 -0.260282 -4.00154 0
M  V30 984 H 87.348 -1.69252 -3.93766 0
M  V30 985 H 91.532 -2.63608 -4.20505 0
M  V30 986 H 86.788 -3.98046 -4.64079 0
M  V30 987 H 90.962 -4.92703 -4.92155 0
M  V30 988 H 88.589 -5.60438 -5.13627 0
M  V30 989 N 90.1641 1.46063 -0.591896 0
M  V30 990 C 91.5801 1.57561 -0.254288 0
M  V30 991 C 91.7801 1.58565 1.24336 0
M  V30 992 O 90.8361 1.50753 2.02558 0
M  V30 993 C 92.1491 2.86549 -0.911611 0
M  V30 994 C 93.6971 3.00197 -0.886059 0
M  V30 995 C 94.1721 4.31933 -1.5231 0
M  V30 996 N 95.6631 4.38654 -1.48786 0
M  V30 997 C 96.3981 5.39222 -1.95006 0
M  V30 998 N 95.8941 6.46414 -2.49241 0
M  V30 999 N 97.6871 5.3048 -1.85868 0
M  V30 1000 H 89.8381 1.43655 -1.56451 0
M  V30 1001 H 92.1011 0.68583 -0.654478 0
M  V30 1002 H 91.8071 2.91651 -1.96551 0
M  V30 1003 H 91.6811 3.74794 -0.425368 0
M  V30 1004 H 94.0681 2.9467 0.159246 0
M  V30 1005 H 94.1491 2.13403 -1.41041 0
M  V30 1006 H 93.7931 4.38217 -2.56765 0
M  V30 1007 H 93.7231 5.17516 -0.973891 0
M  V30 1008 H 96.2141 3.61793 -1.09151 0
M  V30 1009 H 96.5271 7.19376 -2.82344 0
M  V30 1010 H 94.8721 6.47208 -2.53272 0
M  V30 1011 H 98.0631 4.45643 -1.43248 0
M  V30 1012 H 98.2361 6.08711 -2.22204 0
M  V30 1013 N 91.6422 0.330177 1.54103 0
M  V30 1014 C 92.8912 -0.271336 1.99867 0
M  V30 1015 C 93.2042 -1.52723 1.22209 0
M  V30 1016 O 94.4102 -2.20515 1.58383 0
M  V30 1017 C 92.8662 -0.534032 3.55916 0
M  V30 1018 C 92.4742 0.705193 4.42415 0
M  V30 1019 C 94.2182 -1.09514 4.1013 0
M  V30 1020 C 92.1252 0.414035 5.89949 0
M  V30 1021 H 91.0552 -0.105166 0.74663 0
M  V30 1022 H 93.7062 0.443429 1.78062 0
M  V30 1023 H 92.0882 -1.30915 3.73734 0
M  V30 1024 H 93.2622 1.4804 4.36372 0
M  V30 1025 H 91.5772 1.18698 3.99124 0
M  V30 1026 H 94.1742 -1.3277 5.17954 0
M  V30 1027 H 94.5172 -2.04656 3.62521 0
M  V30 1028 H 95.0502 -0.381038 3.95971 0
M  V30 1029 H 91.7892 1.33481 6.41766 0
M  V30 1030 H 91.3092 -0.323336 5.98928 0
M  V30 1031 H 92.9882 0.0263105 6.46995 0
M  V30 1032 N 93.1203 -1.57491 0.0584922 0
M  V30 1033 C 94.0673 -2.11958 -0.913376 0
M  V30 1034 C 95.0373 -1.02875 -1.30407 0
M  V30 1035 O 96.2223 -1.30464 -1.39226 0
M  V30 1036 C 93.3623 -2.67497 -2.18035 0
M  V30 1037 C 92.4753 -3.90691 -1.84349 0
M  V30 1038 C 91.6103 -4.3452 -3.05559 0
M  V30 1039 C 90.6493 -5.50395 -2.67827 0
M  V30 1040 N 89.7863 -5.89244 -3.81754 0
M  V30 1041 H 94.6263 -2.94704 -0.442017 0
M  V30 1042 H 92.1633 -1.45643 -0.206545 0
M  V30 1043 H 94.1213 -2.978 -2.92183 0
M  V30 1044 H 92.7513 -1.87537 -2.62735 0
M  V30 1045 H 91.8033 -3.66934 -1.00319 0
M  V30 1046 H 93.1153 -4.7489 -1.5258 0
M  V30 1047 H 92.2693 -4.66414 -3.87998 0
M  V30 1048 H 91.0083 -3.49147 -3.40511 0
M  V30 1049 H 90.0133 -5.18165 -1.83806 0
M  V30 1050 H 91.2383 -6.3749 -2.34059 0
M  V30 1051 H 89.1843 -5.06823 -4.16493 0
M  V30 1052 H 89.1013 -6.68151 -3.53708 0
M  V30 1053 H 90.3693 -6.25756 -4.64811 0
M  V30 1054 N 94.5984 0.214957 -1.56127 0
M  V30 1055 C 96.0144 0.564948 -1.49267 0
M  V30 1056 C 96.2144 1.86827 -0.754838 0
M  V30 1057 O 95.2704 2.50745 -0.297198 0
M  V30 1058 C 96.5834 0.638071 -2.93852 0
M  V30 1059 C 98.1314 0.728253 -3.0441 0
M  V30 1060 C 98.6064 0.832663 -4.50367 0
M  V30 1061 N 100.097 0.896712 -4.54437 0
M  V30 1062 C 100.832 0.997324 -5.6466 0
M  V30 1063 N 100.328 1.06147 -6.8462 0
M  V30 1064 N 102.121 1.03297 -5.52527 0
M  V30 1065 H 94.2724 -0.640211 -2.02522 0
M  V30 1066 H 96.5354 -0.225507 -0.920788 0
M  V30 1067 H 96.2414 -0.250126 -3.50809 0
M  V30 1068 H 96.1154 1.49947 -3.46115 0
M  V30 1069 H 98.5024 1.60689 -2.47514 0
M  V30 1070 H 98.5834 -0.158952 -2.55306 0
M  V30 1071 H 98.2274 -0.0415417 -5.07883 0
M  V30 1072 H 98.1574 1.73538 -4.97184 0
M  V30 1073 H 100.648 0.857188 -3.6805 0
M  V30 1074 H 100.961 1.1382 -7.64372 0
M  V30 1075 H 99.3064 1.03049 -6.87318 0
M  V30 1076 H 102.497 0.979558 -4.57736 0
M  V30 1077 H 102.67 1.10793 -6.38458 0
M  V30 1078 N 96.0765 1.50051 0.48192 0
M  V30 1079 C 97.0395 1.67584 1.5636 0
M  V30 1080 C 98.0395 0.546894 1.51214 0
M  V30 1081 O 99.2295 0.813725 1.54026 0
M  V30 1082 C 96.3615 1.691 2.96003 0
M  V30 1083 H 97.5545 2.64078 1.42136 0
M  V30 1084 H 95.1075 1.39369 0.707533 0
M  V30 1085 H 95.8425 0.742589 3.15684 0
M  V30 1086 H 95.6275 2.51105 3.01146 0
M  V30 1087 H 97.1175 1.84656 3.74556 0
M  V30 1088 N 97.5546 -0.734337 1.39446 0
M  V30 1089 C 98.4846 -1.86155 1.40955 0
M  V30 1090 C 99.4656 -1.67898 0.272827 0
M  V30 1091 O 100.651 -1.88207 0.478743 0
M  V30 1092 C 97.7806 -3.23912 1.25294 0
M  V30 1093 C 96.7346 -3.56808 2.36373 0
M  V30 1094 C 96.0606 -4.93508 2.058 0
M  V30 1095 C 97.3606 -3.59713 3.78687 0
M  V30 1096 H 99.0546 -1.8515 2.35287 0
M  V30 1097 H 96.6006 -0.889367 1.13253 0
M  V30 1098 H 98.5536 -4.02443 1.2497 0
M  V30 1099 H 97.2776 -3.25446 0.274308 0
M  V30 1100 H 95.9366 -2.80606 2.35914 0
M  V30 1101 H 95.5846 -4.91623 1.06374 0
M  V30 1102 H 95.2846 -5.16486 2.80208 0
M  V30 1103 H 96.8086 -5.74396 2.07128 0
M  V30 1104 H 98.2226 -4.2832 3.81071 0
M  V30 1105 H 96.6196 -3.94209 4.52459 0
M  V30 1106 H 97.6896 -2.59504 4.09617 0
M  V30 1107 N 99.0327 -1.24633 -0.964593 0
M  V30 1108 C 100.31 -0.995809 -1.68354 0
M  V30 1109 C 100.69 0.480964 -2.05548 0
M  V30 1110 O 100.038 1.45599 -1.76105 0
M  V30 1111 C 100.248 -1.92177 -2.91323 0
M  V30 1112 C 101.596 -2.19446 -3.63495 0
M  V30 1113 O 102.62 -1.89855 -3.01386 0
M  V30 1114 O 101.479 -2.69714 -4.75307 0
M  V30 1115 H 98.5727 -0.376854 -0.736146 0
M  V30 1116 H 101.119 -1.35745 -1.0184 0
M  V30 1117 H 99.8907 -2.91938 -2.60553 0
M  V30 1118 H 99.5137 -1.56349 -3.65569 0
M  V30 1119 N 100.511 1.16574 -1.06058 0
M  V30 1120 C 101.441 2.23057 -0.690488 0
M  V30 1121 C 102.422 1.67141 0.315901 0
M  V30 1122 O 103.607 1.93253 0.191556 0
M  V30 1123 C 100.737 3.47222 -0.073625 0
M  V30 1124 C 99.6908 4.16016 -1.00573 0
M  V30 1125 C 99.0168 5.34104 -0.252289 0
M  V30 1126 C 100.317 4.67264 -2.33371 0
M  V30 1127 H 102.011 2.54271 -1.58072 0
M  V30 1128 H 99.5568 1.22218 -0.76149 0
M  V30 1129 H 101.51 4.20939 0.19714 0
M  V30 1130 H 100.234 3.15302 0.85161 0
M  V30 1131 H 98.8928 3.44223 -1.2612 0
M  V30 1132 H 98.5408 4.98437 0.675988 0
M  V30 1133 H 98.2408 5.81072 -0.873455 0
M  V30 1134 H 99.7648 6.10599 0.0109857 0
M  V30 1135 H 101.179 5.32573 -2.12223 0
M  V30 1136 H 99.5758 5.24843 -2.90963 0
M  V30 1137 H 100.646 3.83602 -2.96611 0
M  V30 1138 N 101.989 0.842826 1.3317 0
M  V30 1139 C 102.937 0.267495 2.31057 0
M  V30 1140 C 103.931 -0.602682 1.58316 0
M  V30 1141 O 105.137 -0.491803 1.73151 0
M  V30 1142 H 101.512 0.0677813 0.748939 0
M  V30 1143 H 103.483 1.10754 2.77085 0
M  V30 1144 C 102.232 -0.539331 3.43492 0
M  V30 1145 H 101.555 0.12095 3.99617 0
M  V30 1146 H 102.995 -0.90767 4.14171 0
M  V30 1147 C 101.454 -1.71981 2.89697 0
M  V30 1148 O 101.984 -2.81862 2.86211 0
M  V30 1149 N 100.19 -1.54299 2.46252 0
M  V30 1150 H 99.7369 -0.649143 2.49287 0
M  V30 1151 H 99.6949 -2.33431 2.10612 0
M  V30 1152 N 103.467 -1.45747 0.599634 0
M  V30 1153 C 104.397 -2.33235 -0.111306 0
M  V30 1154 C 105.378 -1.46359 -0.866781 0
M  V30 1155 O 106.563 -1.75146 -0.838904 0
M  V30 1156 C 103.693 -3.28932 -1.11451 0
M  V30 1157 C 102.647 -4.25381 -0.472772 0
M  V30 1158 C 101.973 -5.1071 -1.58365 0
M  V30 1159 C 103.273 -5.18831 0.600948 0
M  V30 1160 H 104.967 -2.92927 0.61919 0
M  V30 1161 H 102.513 -1.40857 0.299215 0
M  V30 1162 H 104.466 -3.89002 -1.62036 0
M  V30 1163 H 103.19 -2.67381 -1.8755 0
M  V30 1164 H 101.849 -3.66598 0.0121472 0
M  V30 1165 H 101.497 -4.45533 -2.33473 0
M  V30 1166 H 101.197 -5.7604 -1.15982 0
M  V30 1167 H 102.721 -5.73647 -2.09194 0
M  V30 1168 H 104.135 -5.73019 0.179491 0
M  V30 1169 H 102.532 -5.92595 0.946076 0
M  V30 1170 H 103.602 -4.6174 1.48068 0
M  V30 1171 N 104.945 -0.338344 -1.53925 0
M  V30 1172 C 105.892 0.520845 -2.24846 0
M  V30 1173 C 106.862 1.09976 -1.24477 0
M  V30 1174 O 108.047 1.13735 -1.53196 0
M  V30 1175 C 105.187 1.6685 -3.02084 0
M  V30 1176 C 104.3 1.11739 -4.17299 0
M  V30 1177 C 103.435 2.23193 -4.82036 0
M  V30 1178 C 102.474 1.65407 -5.89328 0
M  V30 1179 N 101.611 2.70582 -6.47866 0
M  V30 1180 H 106.451 -0.0904881 -2.97863 0
M  V30 1181 H 103.988 -0.0564282 -1.46992 0
M  V30 1182 H 105.946 2.34407 -3.45122 0
M  V30 1183 H 104.576 2.2509 -2.31375 0
M  V30 1184 H 103.628 0.332919 -3.7894 0
M  V30 1185 H 104.94 0.654677 -4.94485 0
M  V30 1186 H 104.094 2.98626 -5.28117 0
M  V30 1187 H 102.833 2.72807 -4.04262 0
M  V30 1188 H 101.838 0.884779 -5.42634 0
M  V30 1189 H 103.063 1.16652 -6.69006 0
M  V30 1190 H 101.009 3.1946 -5.72959 0
M  V30 1191 H 100.926 2.28917 -7.20509 0
M  V30 1192 H 102.194 3.45799 -6.98601 0
M  V30 1193 N 106.423 1.57458 -0.0668435 0
M  V30 1194 C 107.373 2.0896 0.912119 0
M  V30 1195 C 108.357 0.998186 1.26195 0
M  V30 1196 O 109.549 1.26133 1.24175 0
M  V30 1197 C 106.678 2.6508 2.18145 0
M  V30 1198 C 105.764 3.81218 1.85832 0
M  V30 1199 N 106.155 4.90378 1.23948 0
M  V30 1200 C 104.453 3.9042 2.15612 0
M  V30 1201 C 105.154 5.71279 1.09616 0
M  V30 1202 N 104.13 5.19389 1.60423 0
M  V30 1203 H 107.932 2.90749 0.42924 0
M  V30 1204 H 105.446 1.6182 0.137184 0
M  V30 1205 H 107.443 3.0029 2.89192 0
M  V30 1206 H 106.103 1.84736 2.67025 0
M  V30 1207 H 107.114 5.09847 0.909731 0
M  V30 1208 H 103.791 3.21043 2.66903 0
M  V30 1209 H 105.181 6.69085 0.614425 0
M  V30 1210 N 107.901 -0.206675 1.56239 0
M  V30 1211 C 108.833 -1.27997 1.9013 0
M  V30 1212 C 109.846 -1.42299 0.790883 0
M  V30 1213 O 111.035 -1.42931 1.06925 0
M  V30 1214 C 108.135 -2.65368 2.10792 0
M  V30 1215 C 107.308 -2.72824 3.41886 0
M  V30 1216 C 106.367 -3.9131 3.51799 0
M  V30 1217 O 105.393 -3.78953 4.24716 0
M  V30 1218 N 106.595 -5.06265 2.84035 0
M  V30 1219 H 109.36 -0.992444 2.82791 0
M  V30 1220 H 106.921 -0.396652 1.56966 0
M  V30 1221 H 108.913 -3.43039 2.14724 0
M  V30 1222 H 107.483 -2.86657 1.24685 0
M  V30 1223 H 106.703 -1.81515 3.49923 0
M  V30 1224 H 107.991 -2.74786 4.28217 0
M  V30 1225 H 107.389 -5.19203 2.246 0
M  V30 1226 H 105.946 -5.81925 2.93609 0
M  V30 1227 N 109.379 -1.50304 -0.473955 0
M  V30 1228 C 110.628 -1.60392 -1.22301 0
M  V30 1229 C 110.941 -0.308411 -1.93153 0
M  V30 1230 O 112.147 -0.288156 -2.69966 0
M  V30 1231 C 110.603 -2.83109 -2.2221 0
M  V30 1232 C 110.211 -4.19524 -1.57173 0
M  V30 1233 C 111.955 -3.0254 -2.97775 0
M  V30 1234 C 109.862 -5.33431 -2.55353 0
M  V30 1235 H 108.792 -0.597286 -0.460179 0
M  V30 1236 H 111.443 -1.76731 -0.493803 0
M  V30 1237 H 109.825 -2.60322 -2.9841 0
M  V30 1238 H 110.999 -4.52554 -0.867824 0
M  V30 1239 H 109.314 -4.05674 -0.939002 0
M  V30 1240 H 111.911 -3.84811 -3.71248 0
M  V30 1241 H 112.254 -2.14154 -3.56992 0
M  V30 1242 H 112.787 -3.25494 -2.28688 0
M  V30 1243 H 109.526 -6.23962 -2.00878 0
M  V30 1244 H 109.046 -5.04823 -3.23904 0
M  V30 1245 H 110.725 -5.63887 -3.17239 0
M  V30 1246 N 110.857 0.726932 -1.39834 0
M  V30 1247 C 111.787 1.85405 -1.41941 0
M  V30 1248 C 112.768 1.67751 -0.281728 0
M  V30 1249 O 113.953 1.8795 -0.488717 0
M  V30 1250 C 111.083 3.23243 -1.2701 0
M  V30 1251 C 110.037 3.55549 -2.38262 0
M  V30 1252 C 109.363 4.9241 -2.08415 0
M  V30 1253 C 110.663 3.577 -3.80589 0
M  V30 1254 H 112.357 1.83899 -2.36266 0
M  V30 1255 H 109.903 0.883349 -1.13723 0
M  V30 1256 H 111.856 4.01775 -1.27103 0
M  V30 1257 H 110.58 3.25296 -0.291564 0
M  V30 1258 H 109.239 2.79351 -2.37399 0
M  V30 1259 H 108.887 4.91052 -1.0898 0
M  V30 1260 H 108.587 5.14992 -2.82943 0
M  V30 1261 H 110.111 5.73289 -2.10171 0
M  V30 1262 H 111.525 4.26293 -3.83337 0
M  V30 1263 H 109.922 3.91804 -4.54543 0
M  V30 1264 H 110.992 2.57328 -4.10987 0
M  V30 1265 N 112.336 1.25143 0.95797 0
M  V30 1266 C 113.747 1.08851 1.51685 0
M  V30 1267 C 114.098 -0.33687 1.93286 0
M  V30 1268 O 113.223 -1.22644 1.7829 0
M  V30 1269 C 113.818 1.96978 2.75654 0
M  V30 1270 C 112.377 1.84881 3.27866 0
M  V30 1271 C 111.524 1.91329 2.0072 0
M  V30 1272 H 114.475 1.38478 0.77522 0
M  V30 1273 H 114.496 1.5078 3.4935 0
M  V30 1274 H 114.008 3.00712 2.45345 0
M  V30 1275 H 112.109 0.840182 3.63004 0
M  V30 1276 H 112.222 2.6951 3.96107 0
M  V30 1277 H 110.586 1.35174 2.15871 0
M  V30 1278 H 111.369 2.96661 1.72764 0
M  V30 1279 N 113.814 -1.1601 1.06675 0
M  V30 1280 C 114.761 -2.20525 0.680967 0
M  V30 1281 C 115.731 -1.62904 -0.324283 0
M  V30 1282 O 116.916 -1.89615 -0.212294 0
M  V30 1283 C 114.056 -3.45013 0.0776551 0
M  V30 1284 C 113.169 -4.16863 1.13355 0
M  V30 1285 C 112.304 -5.2888 0.49597 0
M  V30 1286 C 111.343 -5.92537 1.53513 0
M  V30 1287 N 110.48 -6.96038 0.920631 0
M  V30 1288 H 115.32 -2.52876 1.57663 0
M  V30 1289 H 112.857 -1.24199 0.788223 0
M  V30 1290 H 114.815 -4.16193 -0.289704 0
M  V30 1291 H 113.445 -3.132 -0.781393 0
M  V30 1292 H 112.497 -3.44248 1.61857 0
M  V30 1293 H 113.809 -4.60294 1.92174 0
M  V30 1294 H 112.963 -6.06653 0.0758604 0
M  V30 1295 H 111.702 -4.86622 -0.324062 0
M  V30 1296 H 110.707 -5.13482 1.9651 0
M  V30 1297 H 111.932 -6.36873 2.35733 0
M  V30 1298 H 109.878 -6.55888 0.12138 0
M  V30 1299 H 109.795 -7.3786 1.64616 0
M  V30 1300 H 111.063 -7.77725 0.525795 0
M  V30 1301 N 115.292 -0.849877 -1.32721 0
M  V30 1302 C 116.202 -0.293791 -2.32753 0
M  V30 1303 C 117.218 0.585906 -1.63839 0
M  V30 1304 O 118.394 0.487413 -1.95413 0
M  V30 1305 C 115.459 0.512752 -3.42887 0
M  V30 1306 C 114.52 -0.39252 -4.27502 0
M  V30 1307 C 113.753 0.375625 -5.32377 0
M  V30 1308 O 113.976 1.60613 -5.4732 0
M  V30 1309 O 112.91 -0.256094 -6.01355 0
M  V30 1310 H 116.736 -1.12242 -2.82197 0
M  V30 1311 H 114.321 -0.612685 -1.36259 0
M  V30 1312 H 116.203 0.970704 -4.10067 0
M  V30 1313 H 114.878 1.31826 -2.95641 0
M  V30 1314 H 113.785 -0.898547 -3.63149 0
M  V30 1315 H 115.118 -1.16309 -4.7826 0
M  V30 1316 N 116.77 1.45427 -0.607355 0
M  V30 1317 C 117.702 2.2871 0.149752 0
M  V30 1318 C 118.715 1.39937 0.831958 0
M  V30 1319 O 119.904 1.64313 0.697385 0
M  V30 1320 C 117.004 3.15673 1.23304 0
M  V30 1321 C 116.177 4.32722 0.637996 0
M  V30 1322 C 115.236 5.00895 1.61215 0
M  V30 1323 O 114.262 5.57697 1.13854 0
M  V30 1324 N 115.464 5.00159 2.94655 0
M  V30 1325 H 118.229 2.94328 -0.564882 0
M  V30 1326 H 115.79 1.55612 -0.446823 0
M  V30 1327 H 117.782 3.58144 1.88454 0
M  V30 1328 H 116.352 2.51965 1.8502 0
M  V30 1329 H 115.572 3.93734 -0.191572 0
M  V30 1330 H 116.86 5.08321 0.220665 0
M  V30 1331 H 116.258 4.553 3.35735 0
M  V30 1332 H 114.815 5.46495 3.55228 0
M  V30 1333 N 118.248 0.346503 1.53744 0
M  V30 1334 C 119.494 -0.242135 2.01954 0
M  V30 1335 C 119.849 -1.47962 1.22984 0
M  V30 1336 O 119.142 -1.89077 0.309924 0
M  V30 1337 C 119.336 -0.605809 3.52228 0
M  V30 1338 C 119.165 0.594882 4.45748 0
M  V30 1339 C 117.935 1.1011 4.93157 0
M  V30 1340 C 120.133 1.45425 4.93311 0
M  V30 1341 N 118.115 2.26381 5.70636 0
M  V30 1342 C 119.486 2.46383 5.68942 0
M  V30 1343 C 121.541 1.47935 4.75415 0
M  V30 1344 C 120.244 3.49684 6.28581 0
M  V30 1345 C 122.27 2.50119 5.35905 0
M  V30 1346 C 121.632 3.49803 6.11406 0
M  V30 1347 H 117.731 -0.0518296 0.780281 0
M  V30 1348 H 120.315 0.486736 1.88518 0
M  V30 1349 H 118.486 -1.30378 3.65864 0
M  V30 1350 H 120.218 -1.17789 3.87179 0
M  V30 1351 H 116.973 0.668721 4.68855 0
M  V30 1352 H 117.397 2.85094 6.14044 0
M  V30 1353 H 122.039 0.722274 4.16585 0
M  V30 1354 H 119.757 4.26285 6.86518 0
M  V30 1355 H 123.343 2.52892 5.23963 0
M  V30 1356 H 122.223 4.27576 6.5738 0
M  V30 1357 N 119.726 -1.57421 0.075193 0
M  V30 1358 C 120.954 -1.97946 -0.602076 0
M  V30 1359 C 121.369 -0.953674 -1.62943 0
M  V30 1360 O 120.726 0.0592551 -1.82404 0
M  V30 1361 C 120.777 -3.38546 -1.26762 0
M  V30 1362 O 120.498 -4.37195 -0.281376 0
M  V30 1363 C 121.999 -3.93966 -2.03239 0
M  V30 1364 H 119.219 -0.650918 -0.162931 0
M  V30 1365 H 121.763 -2.03959 0.148601 0
M  V30 1366 H 119.918 -3.33609 -1.96936 0
M  V30 1367 H 120.332 -5.18975 -0.759267 0
M  V30 1368 H 121.806 -4.94555 -2.45193 0
M  V30 1369 H 122.283 -3.30693 -2.8903 0
M  V30 1370 H 122.889 -4.02315 -1.37924 0
M  V30 1371 N 121.204 0.198386 -1.56346 0
M  V30 1372 C 122.151 1.24589 -1.94284 0
M  V30 1373 C 123.121 1.454 -0.802997 0
M  V30 1374 O 124.306 1.58588 -1.06087 0
M  V30 1375 C 121.446 2.58631 -2.28482 0
M  V30 1376 C 120.559 2.45426 -3.55514 0
M  V30 1377 C 119.694 3.7215 -3.79049 0
M  V30 1378 C 118.733 3.53763 -4.99518 0
M  V30 1379 N 117.87 4.72491 -5.19323 0
M  V30 1380 H 122.71 0.915356 -2.83593 0
M  V30 1381 H 120.247 0.440629 -1.40346 0
M  V30 1382 H 122.205 3.3672 -2.46324 0
M  V30 1383 H 120.835 2.89734 -1.42317 0
M  V30 1384 H 119.887 1.58652 -3.45737 0
M  V30 1385 H 121.199 2.27772 -4.43758 0
M  V30 1386 H 120.353 4.58679 -3.97113 0
M  V30 1387 H 119.092 3.92754 -2.89129 0
M  V30 1388 H 118.097 2.65619 -4.8138 0
M  V30 1389 H 119.322 3.34607 -5.90944 0
M  V30 1390 H 117.268 4.93365 -4.3235 0
M  V30 1391 H 117.185 4.5765 -6.01741 0
M  V30 1392 H 118.453 5.6038 -5.41843 0
M  V30 1393 N 122.682 1.50554 0.465978 0
M  V30 1394 C 123.912 1.65323 1.23903 0
M  V30 1395 C 124.32 0.338051 1.86155 0
M  V30 1396 O 123.663 -0.690518 1.70228 0
M  V30 1397 C 123.725 2.69048 2.3844 0
M  V30 1398 C 123.389 4.12462 1.96784 0
M  V30 1399 C 124.386 4.98168 1.48745 0
M  V30 1400 C 122.071 4.58407 2.05349 0
M  V30 1401 C 124.065 6.27868 1.0982 0
M  V30 1402 C 121.752 5.88112 1.66035 0
M  V30 1403 C 122.75 6.72668 1.18349 0
M  V30 1404 O 122.438 7.99951 0.795825 0
M  V30 1405 H 122.17 0.558629 0.38067 0
M  V30 1406 H 124.724 1.97561 0.562022 0
M  V30 1407 H 122.954 2.32062 3.09328 0
M  V30 1408 H 124.643 2.72985 3.0039 0
M  V30 1409 H 125.409 4.63885 1.41546 0
M  V30 1410 H 121.288 3.92735 2.41414 0
M  V30 1411 H 124.832 6.93819 0.725293 0
M  V30 1412 H 120.729 6.21914 1.72895 0
M  V30 1413 H 121.497 8.13265 0.924222 0
M  V30 1414 N 124.16 -0.719506 1.40217 0
M  V30 1415 C 125.07 -1.86378 1.42479 0
M  V30 1416 C 126.086 -1.71073 0.317834 0
M  V30 1417 O 127.262 -1.93406 0.561794 0
M  V30 1418 C 124.327 -3.22136 1.28178 0
M  V30 1419 C 123.388 -3.49723 2.48982 0
M  V30 1420 C 122.621 -4.79004 2.35353 0
M  V30 1421 O 122.844 -5.53821 1.36524 0
M  V30 1422 O 121.778 -5.06839 3.2465 0
M  V30 1423 H 125.604 -1.87425 2.38968 0
M  V30 1424 H 123.189 -0.869405 1.21498 0
M  V30 1425 H 125.071 -4.03234 1.22395 0
M  V30 1426 H 123.746 -3.21825 0.347934 0
M  V30 1427 H 122.653 -2.6865 2.60342 0
M  V30 1428 H 123.986 -3.54828 3.41113 0
M  V30 1429 N 125.638 -1.25649 -0.95132 0
M  V30 1430 C 126.548 -1.08073 -2.08224 0
M  V30 1431 C 127.564 -0.0169666 -1.73992 0
M  V30 1432 O 128.74 -0.218593 -2.0021 0
M  V30 1433 C 125.805 -0.704922 -3.39458 0
M  V30 1434 C 124.866 -1.84699 -3.87537 0
M  V30 1435 C 124.099 -1.48902 -5.12508 0
M  V30 1436 O 124.322 -0.386156 -5.69091 0
M  V30 1437 O 123.256 -2.32033 -5.55378 0
M  V30 1438 H 127.082 -2.02924 -2.25954 0
M  V30 1439 H 124.667 -1.04618 -1.06656 0
M  V30 1440 H 126.549 -0.507609 -4.18332 0
M  V30 1441 H 125.224 0.214291 -3.2299 0
M  V30 1442 H 124.131 -2.09919 -3.09653 0
M  V30 1443 H 125.464 -2.74557 -4.08509 0
M  V30 1444 N 127.117 1.15442 -1.07289 0
M  V30 1445 C 128.027 2.23786 -0.704057 0
M  V30 1446 C 129.043 1.7166 0.284413 0
M  V30 1447 O 130.219 2.00972 0.131205 0
M  V30 1448 C 127.284 3.46535 -0.106792 0
M  V30 1449 C 126.345 4.13654 -1.14842 0
M  V30 1450 C 125.578 5.30544 -0.57956 0
M  V30 1451 O 125.801 5.67187 0.604585 0
M  V30 1452 O 124.735 5.87154 -1.32414 0
M  V30 1453 H 128.561 2.57664 -1.60757 0
M  V30 1454 H 126.146 1.23152 -0.845803 0
M  V30 1455 H 128.028 4.20804 0.224048 0
M  V30 1456 H 126.703 3.14407 0.770049 0
M  V30 1457 H 125.61 3.4131 -1.5316 0
M  V30 1458 H 126.943 4.49861 -1.99714 0
M  V30 1459 N 128.595 0.856903 1.32268 0
M  V30 1460 C 129.543 0.291987 2.3076 0
M  V30 1461 C 130.537 -0.585857 1.58947 0
M  V30 1462 O 131.743 -0.47341 1.73663 0
M  V30 1463 H 128.118 0.075721 0.748178 0
M  V30 1464 H 130.089 1.13687 2.75895 0
M  V30 1465 C 128.838 -0.502869 3.44044 0
M  V30 1466 H 128.161 0.163328 3.99466 0
M  V30 1467 H 129.601 -0.863691 4.1511 0
M  V30 1468 C 128.06 -1.68898 2.91505 0
M  V30 1469 O 128.59 -2.78811 2.89184 0
M  V30 1470 N 126.796 -1.51679 2.47875 0
M  V30 1471 H 126.343 -0.622666 2.49961 0
M  V30 1472 H 126.301 -2.31184 2.13076 0
M  V30 1473 N 130.073 -1.45103 0.615059 0
M  V30 1474 C 131.32 -2.02183 0.113179 0
M  V30 1475 C 131.648 -1.48249 -1.25906 0
M  V30 1476 O 130.903 -0.650265 -1.84581 0
M  V30 1477 C 131.202 -3.57386 0.0318797 0
M  V30 1478 C 130.868 -4.30505 1.34077 0
M  V30 1479 C 129.53 -4.50197 1.69929 0
M  V30 1480 C 131.882 -4.72238 2.20546 0
M  V30 1481 C 129.21 -5.08881 2.91988 0
M  V30 1482 C 131.562 -5.32272 3.41861 0
M  V30 1483 C 130.226 -5.50187 3.77956 0
M  V30 1484 H 129.496 -0.739842 0.0414151 0
M  V30 1485 H 132.143 -1.74073 0.798168 0
M  V30 1486 H 130.448 -3.84817 -0.736409 0
M  V30 1487 H 132.145 -3.99264 -0.372712 0
M  V30 1488 H 128.735 -4.15496 1.05173 0
M  V30 1489 H 132.919 -4.56751 1.94146 0
M  V30 1490 H 128.175 -5.20939 3.2005 0
M  V30 1491 H 132.349 -5.63563 4.09109 0
M  V30 1492 H 129.976 -5.95427 4.72622 0
M  V30 1493 N 131.551 -0.354651 -1.53558 0
M  V30 1494 C 132.781 0.239167 -2.05211 0
M  V30 1495 C 133.189 1.43879 -1.22863 0
M  V30 1496 O 132.532 1.81857 -0.259565 0
M  V30 1497 C 132.594 0.707251 -3.52474 0
M  V30 1498 C 132.258 -0.374212 -4.55465 0
M  V30 1499 C 133.255 -1.22054 -5.0537 0
M  V30 1500 C 130.94 -0.531323 -4.99482 0
M  V30 1501 C 132.934 -2.20942 -5.97882 0
M  V30 1502 C 130.621 -1.52358 -5.91802 0
M  V30 1503 C 131.619 -2.36108 -6.40892 0
M  V30 1504 O 131.307 -3.33643 -7.31394 0
M  V30 1505 H 131.039 0.0479716 -0.674296 0
M  V30 1506 H 133.593 -0.508121 -1.99016 0
M  V30 1507 H 131.823 1.50596 -3.56171 0
M  V30 1508 H 133.512 1.22285 -3.87042 0
M  V30 1509 H 134.278 -1.1103 -4.7212 0
M  V30 1510 H 130.157 0.110738 -4.60867 0
M  V30 1511 H 133.701 -2.86348 -6.36121 0
M  V30 1512 H 129.598 -1.63434 -6.24467 0
M  V30 1513 H 130.366 -3.29244 -7.4936 0
M  V30 1514 N 133.029 1.57378 -0.0835403 0
M  V30 1515 C 133.959 2.1641 0.87686 0
M  V30 1516 C 134.94 1.09429 1.30228 0
M  V30 1517 O 136.125 1.37516 1.37124 0
M  V30 1518 C 133.255 2.73517 2.14022 0
M  V30 1519 C 132.209 3.85769 1.85381 0
M  V30 1520 C 131.535 4.29529 3.18448 0
M  V30 1521 C 132.835 5.09486 1.14984 0
M  V30 1522 H 134.529 2.96914 0.385059 0
M  V30 1523 H 132.075 1.42823 0.18377 0
M  V30 1524 H 134.028 3.13463 2.81636 0
M  V30 1525 H 132.752 1.90252 2.65465 0
M  V30 1526 H 131.411 3.46345 1.20169 0
M  V30 1527 H 131.059 3.43169 3.67755 0
M  V30 1528 H 130.759 5.05204 3.00071 0
M  V30 1529 H 132.283 4.72099 3.8724 0
M  V30 1530 H 133.697 5.46674 1.72687 0
M  V30 1531 H 132.094 5.90515 1.06826 0
M  V30 1532 H 133.164 4.84724 0.130749 0
M  V30 1533 N 134.507 -0.190092 1.56449 0
M  V30 1534 C 135.417 -1.25591 1.98152 0
M  V30 1535 C 136.433 -1.49519 0.889944 0
M  V30 1536 O 137.609 -1.62036 1.19609 0
M  V30 1537 C 134.674 -2.57916 2.3169 0
M  V30 1538 C 133.735 -2.42015 3.5458 0
M  V30 1539 C 132.968 -3.6803 3.8651 0
M  V30 1540 O 133.191 -4.72413 3.1966 0
M  V30 1541 O 132.125 -3.6326 4.79923 0
M  V30 1542 H 135.951 -0.931988 2.89046 0
M  V30 1543 H 133.536 -0.395488 1.4407 0
M  V30 1544 H 135.418 -3.36008 2.54316 0
M  V30 1545 H 134.093 -2.89925 1.43963 0
M  V30 1546 H 133 -1.62017 3.37196 0
M  V30 1547 H 134.333 -2.14937 4.4279 0
M  V30 1548 N 135.985 -1.50799 -0.457987 0
M  V30 1549 C 137.396 -1.55152 -1.0385 0
M  V30 1550 C 137.747 -0.362719 -1.92818 0
M  V30 1551 O 136.872 0.522915 -2.09987 0
M  V30 1552 C 137.467 -2.81173 -1.89017 0
M  V30 1553 C 136.026 -2.88164 -2.42154 0
M  V30 1554 C 135.173 -2.49591 -1.20829 0
M  V30 1555 H 138.124 -1.56874 -0.240068 0
M  V30 1556 H 138.145 -2.63769 -2.74238 0
M  V30 1557 H 137.657 -3.67677 -1.24238 0
M  V30 1558 H 135.758 -2.06042 -3.10447 0
M  V30 1559 H 135.871 -3.91356 -2.76364 0
M  V30 1560 H 134.235 -2.02322 -1.54719 0
M  V30 1561 H 135.018 -3.38418 -0.576927 0
M  V30 1562 N 137.463 0.71206 -1.40597 0
M  V30 1563 C 138.693 1.49894 -1.42181 0
M  V30 1564 C 139.101 1.89189 -0.0208078 0
M  V30 1565 O 138.444 1.56223 0.966436 0
M  V30 1566 C 138.506 2.80215 -2.25211 0
M  V30 1567 C 138.17 2.63221 -3.73582 0
M  V30 1568 C 139.167 2.30249 -4.66135 0
M  V30 1569 C 136.852 2.79376 -4.17438 0
M  V30 1570 C 138.846 2.13645 -6.00529 0
M  V30 1571 C 136.533 2.6239 -5.51901 0
M  V30 1572 C 137.531 2.29573 -6.43262 0
M  V30 1573 O 137.219 2.12719 -7.75246 0
M  V30 1574 H 136.951 0.469031 -0.486812 0
M  V30 1575 H 139.505 0.88564 -1.85326 0
M  V30 1576 H 137.735 3.4389 -1.76852 0
M  V30 1577 H 139.424 3.41947 -2.18694 0
M  V30 1578 H 140.19 2.17398 -4.33547 0
M  V30 1579 H 136.069 3.03906 -3.46644 0
M  V30 1580 H 139.613 1.87953 -6.71803 0
M  V30 1581 H 135.51 2.74826 -5.84073 0
M  V30 1582 H 136.278 2.27611 -7.86216 0
M  V30 1583 N 138.941 1.26152 0.944643 0
M  V30 1584 C 139.871 1.09902 2.06019 0
M  V30 1585 C 140.852 0.00519538 1.70099 0
M  V30 1586 O 142.037 0.176583 1.93396 0
M  V30 1587 C 139.167 0.727562 3.39594 0
M  V30 1588 C 138.121 1.77274 3.89561 0
M  V30 1589 C 137.447 1.25569 5.19747 0
M  V30 1590 C 138.747 3.17357 4.14827 0
M  V30 1591 H 140.441 2.03217 2.19871 0
M  V30 1592 H 137.987 0.978452 1.05652 0
M  V30 1593 H 139.94 0.600777 4.17095 0
M  V30 1594 H 138.664 -0.241287 3.25707 0
M  V30 1595 H 137.323 1.88814 3.14237 0
M  V30 1596 H 136.971 0.276783 5.02238 0
M  V30 1597 H 136.671 1.95433 5.54148 0
M  V30 1598 H 138.195 1.1415 5.99835 0
M  V30 1599 H 139.609 3.08914 4.82954 0
M  V30 1600 H 138.006 3.84781 4.60504 0
M  V30 1601 H 139.076 3.63673 3.20734 0
M  V30 1602 N 140.419 -1.14872 1.07899 0
M  V30 1603 C 141.366 -2.19791 0.704319 0
M  V30 1604 C 142.336 -1.63238 -0.306987 0
M  V30 1605 O 143.521 -1.8983 -0.192171 0
M  V30 1606 C 140.661 -3.44911 0.114244 0
M  V30 1607 C 139.774 -4.15637 1.1777 0
M  V30 1608 C 138.909 -5.28324 0.552037 0
M  V30 1609 C 137.948 -5.90875 1.59789 0
M  V30 1610 N 137.085 -6.95022 0.994404 0
M  V30 1611 H 141.925 -2.5119 1.60336 0
M  V30 1612 H 139.462 -1.23356 0.801352 0
M  V30 1613 H 141.42 -4.16477 -0.245544 0
M  V30 1614 H 140.05 -3.14011 -0.74813 0
M  V30 1615 H 139.102 -3.42512 1.65499 0
M  V30 1616 H 140.414 -4.5823 1.97046 0
M  V30 1617 H 139.568 -6.06538 0.1402 0
M  V30 1618 H 138.307 -4.86939 -0.272431 0
M  V30 1619 H 137.312 -5.11369 2.01945 0
M  V30 1620 H 138.537 -6.34337 2.42474 0
M  V30 1621 H 136.483 -6.55722 0.190939 0
M  V30 1622 H 136.4 -7.36073 1.72432 0
M  V30 1623 H 137.668 -7.77123 0.608253 0
M  V30 1624 N 141.898 -0.863906 -1.31812 0
M  V30 1625 C 142.808 -0.318461 -2.32428 0
M  V30 1626 C 143.824 0.568496 -1.64451 0
M  V30 1627 O 145 0.46666 -1.95919 0
M  V30 1628 C 142.065 0.476355 -3.43412 0
M  V30 1629 C 141.126 -0.43784 -4.27061 0
M  V30 1630 C 140.359 0.319138 -5.32745 0
M  V30 1631 O 140.582 1.54799 -5.48993 0
M  V30 1632 O 139.516 -0.319861 -6.01049 0
M  V30 1633 H 143.342 -1.15229 -2.80991 0
M  V30 1634 H 140.927 -0.627103 -1.35602 0
M  V30 1635 H 142.809 0.927156 -4.11074 0
M  V30 1636 H 141.484 1.28683 -2.97022 0
M  V30 1637 H 140.391 -0.937013 -3.62175 0
M  V30 1638 H 141.724 -1.21375 -4.77 0
M  V30 1639 N 143.376 1.44774 -0.622745 0
M  V30 1640 C 144.622 2.0242 -0.124083 0
M  V30 1641 C 144.955 1.4881 1.24777 0
M  V30 1642 O 144.23 0.668799 1.8264 0
M  V30 1643 C 144.513 3.59957 -0.101619 0
M  V30 1644 C 144.366 4.23867 -1.50521 0
M  V30 1645 C 145.685 4.36284 0.578272 0
M  V30 1646 H 142.804 0.735528 -0.0465645 0
M  V30 1647 H 145.446 1.72447 -0.797617 0
M  V30 1648 H 143.596 3.85623 0.471934 0
M  V30 1649 H 145.268 4.09336 -2.12701 0
M  V30 1650 H 143.511 3.81684 -2.06154 0
M  V30 1651 H 144.182 5.32843 -1.4416 0
M  V30 1652 H 146.658 4.16001 0.0906057 0
M  V30 1653 H 145.534 5.46004 0.563149 0
M  V30 1654 H 145.795 4.10271 1.64713 0
M  V30 1655 N 144.854 0.36279 1.53368 0
M  V30 1656 C 146.103 -0.22888 2.00397 0
M  V30 1657 C 146.416 -1.50096 1.25421 0
M  V30 1658 O 147.622 -2.17106 1.63025 0
M  V30 1659 C 146.078 -0.458417 3.56969 0
M  V30 1660 C 145.686 0.798877 4.4082 0
M  V30 1661 C 147.43 -1.00789 4.12361 0
M  V30 1662 C 145.337 0.539078 5.88938 0
M  V30 1663 H 144.267 -0.089305 0.748693 0
M  V30 1664 H 146.918 0.481099 1.77081 0
M  V30 1665 H 145.3 -1.22959 3.76427 0
M  V30 1666 H 146.474 1.57262 4.33134 0
M  V30 1667 H 144.789 1.27137 3.96516 0
M  V30 1668 H 147.386 -1.21754 5.20653 0
M  V30 1669 H 147.729 -1.9692 3.66781 0
M  V30 1670 H 148.262 -0.296961 3.9669 0
M  V30 1671 H 145.001 1.47064 6.3879 0
M  V30 1672 H 144.521 -0.196222 5.99479 0
M  V30 1673 H 146.2 0.163542 6.46793 0
M  V30 1674 N 146.332 -1.57332 0.0918853 0
M  V30 1675 C 147.748 -1.57389 -0.264766 0
M  V30 1676 C 147.948 -1.10281 -1.68643 0
M  V30 1677 O 147.004 -0.777801 -2.40222 0
M  V30 1678 C 148.317 -3.00648 -0.0561195 0
M  V30 1679 C 149.865 -3.12754 -0.124116 0
M  V30 1680 C 150.34 -4.57965 0.0564972 0
M  V30 1681 N 151.831 -4.632 0.00155611 0
M  V30 1682 C 152.566 -5.73281 0.116598 0
M  V30 1683 N 152.062 -6.92208 0.286294 0
M  V30 1684 N 153.855 -5.6207 0.0580973 0
M  V30 1685 H 146.006 -1.86262 1.02079 0
M  V30 1686 H 148.269 -0.859579 0.399786 0
M  V30 1687 H 147.975 -3.393 0.925669 0
M  V30 1688 H 147.849 -3.68623 -0.799823 0
M  V30 1689 H 150.236 -2.73976 -1.09641 0
M  V30 1690 H 150.317 -2.47377 0.651024 0
M  V30 1691 H 149.961 -4.97436 1.02564 0
M  V30 1692 H 149.891 -5.21399 -0.738297 0
M  V30 1693 H 152.382 -3.77686 -0.127192 0
M  V30 1694 H 152.695 -7.71934 0.365676 0
M  V30 1695 H 151.04 -6.94254 0.32192 0
M  V30 1696 H 154.231 -4.68043 -0.0733204 0
M  V30 1697 H 154.404 -6.47824 0.151203 0
M  V30 1698 N 147.81 0.181792 -1.56548 0
M  V30 1699 C 148.72 1.24538 -1.98815 0
M  V30 1700 C 149.736 1.49045 -0.897861 0
M  V30 1701 O 150.912 1.61399 -1.20467 0
M  V30 1702 C 147.977 2.56683 -2.33055 0
M  V30 1703 C 147.038 2.40131 -3.55859 0
M  V30 1704 C 146.271 3.65975 -3.88456 0
M  V30 1705 O 146.494 4.70711 -3.22161 0
M  V30 1706 O 145.428 3.6071 -4.81842 0
M  V30 1707 H 149.254 0.916647 -2.89536 0
M  V30 1708 H 146.839 0.387842 -1.44278 0
M  V30 1709 H 148.721 3.34655 -2.56094 0
M  V30 1710 H 147.396 2.89157 -1.45498 0
M  V30 1711 H 146.303 1.60226 -3.38051 0
M  V30 1712 H 147.636 2.12585 -4.43924 0
M  V30 1713 N 149.288 1.51039 0.449983 0
M  V30 1714 C 150.704 1.38934 0.785462 0
M  V30 1715 C 150.904 0.461817 1.96136 0
M  V30 1716 O 149.96 -0.0877389 2.52348 0
M  V30 1717 C 151.273 2.80724 1.0777 0
M  V30 1718 C 152.821 2.89787 1.1829 0
M  V30 1719 C 153.296 4.32457 1.50815 0
M  V30 1720 N 154.787 4.35505 1.57764 0
M  V30 1721 C 155.522 5.42914 1.84477 0
M  V30 1722 N 155.018 6.60502 2.09068 0
M  V30 1723 N 156.811 5.3038 1.86155 0
M  V30 1724 H 148.962 2.09904 -0.324647 0
M  V30 1725 H 151.225 0.944378 -0.0827957 0
M  V30 1726 H 150.931 3.50531 0.286498 0
M  V30 1727 H 150.805 3.19273 2.00859 0
M  V30 1728 H 153.192 2.20186 1.96474 0
M  V30 1729 H 153.273 2.54752 0.231314 0
M  V30 1730 H 152.917 5.02603 0.731622 0
M  V30 1731 H 152.847 4.64995 2.47158 0
M  V30 1732 H 155.338 3.50724 1.40715 0
M  V30 1733 H 155.651 7.38158 2.28785 0
M  V30 1734 H 153.996 6.63639 2.06416 0
M  V30 1735 H 157.187 4.37505 1.66454 0
M  V30 1736 H 157.36 6.1417 2.06637 0
M  V30 1737 N 150.766 -0.704594 1.40972 0
M  V30 1738 C 151.713 -1.81862 1.42109 0
M  V30 1739 C 152.683 -1.63781 0.276593 0
M  V30 1740 O 153.868 -1.84759 0.4763 0
M  V30 1741 C 151.008 -3.19669 1.30022 0
M  V30 1742 C 150.121 -3.49246 2.54267 0
M  V30 1743 C 149.256 -4.76618 2.3454 0
M  V30 1744 C 148.295 -4.99133 3.54306 0
M  V30 1745 N 147.432 -6.17726 3.33706 0
M  V30 1746 H 152.272 -1.80226 2.37324 0
M  V30 1747 H 149.809 -0.880238 1.17857 0
M  V30 1748 H 151.767 -3.99263 1.21018 0
M  V30 1749 H 150.397 -3.20506 0.384192 0
M  V30 1750 H 149.449 -2.64125 2.73756 0
M  V30 1751 H 150.761 -3.61788 3.43381 0
M  V30 1752 H 149.915 -5.64249 2.22952 0
M  V30 1753 H 148.654 -4.66305 1.42867 0
M  V30 1754 H 147.659 -4.09953 3.66359 0
M  V30 1755 H 148.884 -5.11311 4.4692 0
M  V30 1756 H 146.83 -6.08642 2.44725 0
M  V30 1757 H 146.747 -6.30995 4.16391 0
M  V30 1758 H 148.015 -7.08115 3.25873 0
M  V30 1759 N 152.244 -1.26651 -0.937939 0
M  V30 1760 C 153.154 -1.10276 -2.07066 0
M  V30 1761 C 154.17 -0.0354197 -1.73964 0
M  V30 1762 O 155.346 -0.239816 -1.99967 0
M  V30 1763 C 152.411 -0.740887 -3.38691 0
M  V30 1764 C 151.472 -1.88799 -3.85556 0
M  V30 1765 C 150.705 -1.54329 -5.10899 0
M  V30 1766 O 150.928 -0.446494 -5.6865 0
M  V30 1767 O 149.862 -2.37911 -5.52885 0
M  V30 1768 H 153.688 -2.05309 -2.23789 0
M  V30 1769 H 151.273 -1.05743 -1.0554 0
M  V30 1770 H 153.155 -0.55195 -4.1777 0
M  V30 1771 H 151.83 0.180022 -3.23199 0
M  V30 1772 H 150.737 -2.13191 -3.07409 0
M  V30 1773 H 152.07 -2.78874 -4.05574 0
M  V30 1774 N 153.722 1.14298 -1.08507 0
M  V30 1775 C 155.138 1.37347 -0.812901 0
M  V30 1776 C 155.338 1.93052 0.577325 0
M  V30 1777 O 154.394 2.14389 1.33393 0
M  V30 1778 C 155.707 2.33359 -1.89642 0
M  V30 1779 C 157.255 2.46996 -1.92255 0
M  V30 1780 C 157.73 3.46309 -2.99724 0
M  V30 1781 N 159.221 3.53853 -2.98902 0
M  V30 1782 C 159.956 4.3055 -3.787 0
M  V30 1783 N 159.452 5.10482 -4.6838 0
M  V30 1784 N 161.245 4.25757 -3.66998 0
M  V30 1785 H 153.396 0.764867 -1.9815 0
M  V30 1786 H 155.659 0.398966 -0.859959 0
M  V30 1787 H 155.365 1.99565 -2.89597 0
M  V30 1788 H 155.239 3.33274 -1.76659 0
M  V30 1789 H 157.626 2.80081 -0.929445 0
M  V30 1790 H 157.707 1.47039 -2.09316 0
M  V30 1791 H 157.351 3.13957 -3.99241 0
M  V30 1792 H 157.281 4.46049 -2.79907 0
M  V30 1793 H 159.772 2.96812 -2.33904 0
M  V30 1794 H 160.085 5.66284 -5.25873 0
M  V30 1795 H 158.43 5.09747 -4.72422 0
M  V30 1796 H 161.621 3.62383 -2.96304 0
M  V30 1797 H 161.794 4.85279 -4.29427 0
M  V30 1798 N 155.201 0.870884 1.31352 0
M  V30 1799 C 156.111 0.330783 2.32256 0
M  V30 1800 C 157.127 -0.559767 1.6475 0
M  V30 1801 O 158.303 -0.456263 1.96164 0
M  V30 1802 C 155.368 -0.458137 3.4366 0
M  V30 1803 C 154.429 0.460482 4.26823 0
M  V30 1804 C 153.662 -0.290881 5.32907 0
M  V30 1805 O 153.885 -1.51885 5.49806 0
M  V30 1806 O 152.819 0.351732 6.00871 0
M  V30 1807 H 156.645 1.16718 2.80376 0
M  V30 1808 H 154.23 0.634285 1.35267 0
M  V30 1809 H 156.112 -0.905343 4.1156 0
M  V30 1810 H 154.787 -1.27106 2.97701 0
M  V30 1811 H 153.694 0.956207 3.61673 0
M  V30 1812 H 155.027 1.23903 4.7635 0
M  V30 1813 N 156.679 -1.44442 0.630414 0
M  V30 1814 C 157.589 -2.34476 -0.0761693 0
M  V30 1815 C 158.605 -1.52576 -0.836449 0
M  V30 1816 O 159.781 -1.85307 -0.788874 0
M  V30 1817 C 156.846 -3.30545 -1.04599 0
M  V30 1818 C 155.907 -4.28352 -0.28516 0
M  V30 1819 C 155.14 -5.19831 -1.20878 0
M  V30 1820 O 155.363 -5.15223 -2.44747 0
M  V30 1821 O 154.297 -5.97892 -0.693491 0
M  V30 1822 H 158.123 -2.96345 0.664324 0
M  V30 1823 H 155.708 -1.44203 0.39061 0
M  V30 1824 H 157.59 -3.89681 -1.60396 0
M  V30 1825 H 156.265 -2.7121 -1.76711 0
M  V30 1826 H 155.172 -3.72764 0.315837 0
M  V30 1827 H 156.505 -4.90605 0.395924 0
M  V30 1828 N 158.157 -0.370918 -1.53173 0
M  V30 1829 C 159.403 0.209976 -2.02313 0
M  V30 1830 C 159.758 1.45987 -1.25322 0
M  V30 1831 O 159.051 1.8856 -0.339965 0
M  V30 1832 C 159.245 0.549696 -3.53147 0
M  V30 1833 C 159.074 -0.665721 -4.44745 0
M  V30 1834 C 157.844 -1.17942 -4.91343 0
M  V30 1835 C 160.042 -1.53255 -4.90935 0
M  V30 1836 N 158.024 -2.35431 -5.66962 0
M  V30 1837 C 159.395 -2.55403 -5.64951 0
M  V30 1838 C 161.45 -1.5548 -4.73002 0
M  V30 1839 C 160.153 -3.5964 -6.22938 0
M  V30 1840 C 162.179 -2.58613 -5.31858 0
M  V30 1841 C 161.541 -3.59485 -6.05764 0
M  V30 1842 H 157.64 0.0394095 -0.781006 0
M  V30 1843 H 160.224 -0.516666 -1.8772 0
M  V30 1844 H 158.395 1.24541 -3.67891 0
M  V30 1845 H 160.127 1.11614 -3.89004 0
M  V30 1846 H 156.882 -0.743228 -4.67732 0
M  V30 1847 H 157.306 -2.94827 -6.09431 0
M  V30 1848 H 161.948 -0.788457 -4.15383 0
M  V30 1849 H 159.666 -4.37153 -6.79649 0
M  V30 1850 H 163.252 -2.61195 -5.19873 0
M  V30 1851 H 162.132 -4.3798 -6.50495 0
M  V30 1852 N 159.635 1.57281 -0.100228 0
M  V30 1853 C 160.598 2.13158 0.842398 0
M  V30 1854 C 161.598 1.06202 1.20738 0
M  V30 1855 O 162.788 1.32066 1.13597 0
M  V30 1856 C 159.92 2.65639 2.13655 0
M  V30 1857 H 161.113 2.97766 0.357114 0
M  V30 1858 H 158.666 1.5559 0.148823 0
M  V30 1859 H 159.401 1.84566 2.66657 0
M  V30 1860 H 159.186 3.43844 1.88451 0
M  V30 1861 H 160.676 3.08846 2.81077 0
M  V30 1862 N 161.113 -0.173488 1.56642 0
M  V30 1863 C 162.06 -1.21482 1.96242 0
M  V30 1864 C 163.03 -1.44104 0.826027 0
M  V30 1865 O 164.215 -1.5688 1.08597 0
M  V30 1866 C 161.355 -2.54964 2.32567 0
M  V30 1867 C 160.468 -2.39739 3.59373 0
M  V30 1868 C 159.603 -3.66072 3.84921 0
M  V30 1869 C 158.642 -3.45771 5.05083 0
M  V30 1870 N 157.779 -4.64169 5.26775 0
M  V30 1871 H 162.619 -0.870123 2.85014 0
M  V30 1872 H 160.156 -0.418245 1.41029 0
M  V30 1873 H 162.114 -3.32758 2.5165 0
M  V30 1874 H 160.744 -2.87433 1.46908 0
M  V30 1875 H 159.796 -1.53131 3.48217 0
M  V30 1876 H 161.108 -2.20683 4.47326 0
M  V30 1877 H 160.262 -4.52303 4.0436 0
M  V30 1878 H 159.001 -3.88105 2.9534 0
M  V30 1879 H 158.006 -2.57927 4.85545 0
M  V30 1880 H 159.231 -3.25163 5.96193 0
M  V30 1881 H 157.177 -4.86425 4.40144 0
M  V30 1882 H 157.094 -4.48019 6.08946 0
M  V30 1883 H 158.362 -5.51689 5.5069 0
M  V30 1884 N 162.591 -1.51276 -0.441967 0
M  V30 1885 C 163.538 -1.72256 -1.53612 0
M  V30 1886 C 164.508 -0.564164 -1.56225 0
M  V30 1887 O 165.693 -0.798074 -1.73307 0
M  V30 1888 C 162.833 -1.84932 -2.91366 0
M  V30 1889 C 161.946 -3.12459 -2.98317 0
M  V30 1890 C 161.081 -3.15758 -4.27166 0
M  V30 1891 C 160.12 -4.37619 -4.27967 0
M  V30 1892 N 159.257 -4.38493 -5.48333 0
M  V30 1893 H 164.097 -2.65654 -1.35026 0
M  V30 1894 H 161.634 -1.31662 -0.656009 0
M  V30 1895 H 163.592 -1.90263 -3.7129 0
M  V30 1896 H 162.222 -0.949461 -3.08521 0
M  V30 1897 H 161.274 -3.1646 -2.11086 0
M  V30 1898 H 162.586 -4.02382 -2.94771 0
M  V30 1899 H 161.74 -3.19979 -5.15459 0
M  V30 1900 H 160.479 -2.23715 -4.33362 0
M  V30 1901 H 159.484 -4.33579 -3.38067 0
M  V30 1902 H 160.709 -5.30921 -4.23438 0
M  V30 1903 H 158.655 -3.49318 -5.55259 0
M  V30 1904 H 158.572 -5.22219 -5.46647 0
M  V30 1905 H 159.84 -4.469 -6.38671 0
M  V30 1906 O 164.108 0.587699 -1.50427 0
M  V30 1907 H 164.799 1.24259 -1.48592 0
M  V30 END ATOM
M  V30 BEGIN BOND
M  V30 END BOND
M  V30 END CTAB
M  END
$$$$
