drugbank_target|A9X444 Muscle nicotinic acetylcholine receptor (DB00674)
 OpenBabel12092121243D

  0  0  0     0  0            999 V3000
M  V30 BEGIN CTAB
M  V30 COUNTS 1461 1475 0 0 0
M  V30 BEGIN ATOM
M  V30 1 H -0.908 1.98254 -0.117106 0
M  V30 2 N 0 1.576 0 0
M  V30 3 C 1.416 1.55577 0.356078 0
M  V30 4 C 1.616 1.00261 1.74786 0
M  V30 5 O 0.672 0.636422 2.44348 0
M  V30 6 C 1.985 2.99809 0.23131 0
M  V30 7 C 3.533 3.11498 0.306249 0
M  V30 8 C 4.008 4.57516 0.210606 0
M  V30 9 N 5.499 4.62421 0.268505 0
M  V30 10 C 6.234 5.72986 0.21784 0
M  V30 11 N 5.73 6.927 0.11777 0
M  V30 12 N 7.523 5.61453 0.269704 0
M  V30 13 H -0.326 1.91897 -0.910456 0
M  V30 14 H 1.937 0.881425 -0.34899 0
M  V30 15 H 1.643 3.44119 -0.726273 0
M  V30 16 H 1.517 3.63332 1.01338 0
M  V30 17 H 3.904 2.67118 1.25428 0
M  V30 18 H 3.985 2.50752 -0.505689 0
M  V30 19 H 3.629 5.0257 -0.733877 0
M  V30 20 H 3.559 5.16207 1.04103 0
M  V30 21 H 6.05 3.76302 0.347178 0
M  V30 22 H 6.363 7.72753 0.0850063 0
M  V30 23 H 4.708 6.9495 0.083398 0
M  V30 24 H 7.899 4.66819 0.346078 0
M  V30 25 H 8.072 6.47603 0.226754 0
M  V30 26 N 1.4781 -0.272755 1.55222 0
M  V30 27 C 2.4081 -1.34136 1.91127 0
M  V30 28 C 3.3891 -1.51513 0.773168 0
M  V30 29 O 4.5741 -1.64552 1.03132 0
M  V30 30 C 1.7041 -2.70083 2.1834 0
M  V30 31 C 0.6581 -2.67437 3.34158 0
M  V30 32 C -0.0159 -4.06938 3.46851 0
M  V30 33 C 1.2841 -2.26686 4.70543 0
M  V30 34 H 2.9781 -1.04333 2.80633 0
M  V30 35 H 0.5241 -0.500454 1.35024 0
M  V30 36 H 2.4771 -3.44952 2.42046 0
M  V30 37 H 1.2011 -3.01469 1.25634 0
M  V30 38 H -0.1399 -1.95026 3.1042 0
M  V30 39 H -0.4919 -4.35547 2.51611 0
M  V30 40 H -0.7919 -4.06062 4.2472 0
M  V30 41 H 0.7321 -4.83545 3.72849 0
M  V30 42 H 2.1461 -2.91277 4.93792 0
M  V30 43 H 0.5431 -2.36971 5.5133 0
M  V30 44 H 1.6131 -1.21818 4.69349 0
M  V30 45 N 2.9562 -1.48159 -0.537278 0
M  V30 46 C 4.2022 -1.56035 -1.29541 0
M  V30 47 C 4.5352 -0.230377 -1.92829 0
M  V30 48 O 3.8102 0.762952 -1.78911 0
M  V30 49 C 4.0932 -2.69323 -2.39034 0
M  V30 50 C 3.9462 -4.12002 -1.80485 0
M  V30 51 C 5.2652 -2.78408 -3.40847 0
M  V30 52 H 2.3842 -0.567992 -0.469632 0
M  V30 53 H 5.0262 -1.80302 -0.599277 0
M  V30 54 H 3.1762 -2.48763 -2.98412 0
M  V30 55 H 4.8482 -4.43981 -1.25215 0
M  V30 56 H 3.0912 -4.19344 -1.11055 0
M  V30 57 H 3.7622 -4.87077 -2.59731 0
M  V30 58 H 6.2382 -2.97012 -2.91416 0
M  V30 59 H 5.1142 -3.59416 -4.14863 0
M  V30 60 H 5.3752 -1.86269 -4.00944 0
M  V30 61 N 4.4343 0.785586 -1.36625 0
M  V30 62 C 5.3973 1.87999 -1.31107 0
M  V30 63 C 6.3973 1.59316 -0.217959 0
M  V30 64 O 7.5873 1.67656 -0.472977 0
M  V30 65 C 4.7193 3.24861 -1.03334 0
M  V30 66 H 5.9123 1.94307 -2.2844 0
M  V30 67 H 3.4653 0.983813 -1.21453 0
M  V30 68 H 4.2003 3.24235 -0.0647432 0
M  V30 69 H 3.9853 3.4707 -1.82441 0
M  V30 70 H 5.4753 4.04929 -1.02088 0
M  V30 71 N 5.9124 1.20967 1.01018 0
M  V30 72 C 6.8594 0.964281 2.09691 0
M  V30 73 C 7.8294 -0.107853 1.65749 0
M  V30 74 O 9.0144 0.0381987 1.90762 0
M  V30 75 C 6.1544 0.52943 3.41015 0
M  V30 76 C 5.2674 1.67043 3.98398 0
M  V30 77 C 4.4024 1.18525 5.17808 0
M  V30 78 C 3.4414 2.29892 5.67288 0
M  V30 79 N 2.5784 1.82546 6.77954 0
M  V30 80 H 7.4184 1.89463 2.30017 0
M  V30 81 H 4.9554 0.944289 1.1279 0
M  V30 82 H 6.9134 0.258588 4.16398 0
M  V30 83 H 5.5434 -0.363919 3.20742 0
M  V30 84 H 4.5954 2.05603 3.20049 0
M  V30 85 H 5.9074 2.50877 4.31117 0
M  V30 86 H 5.0614 0.870762 6.00419 0
M  V30 87 H 3.8004 0.316887 4.86669 0
M  V30 88 H 2.8054 2.6215 4.83278 0
M  V30 89 H 4.0304 3.17216 6.00459 0
M  V30 90 H 1.9764 0.980454 6.48632 0
M  V30 91 H 1.8934 2.59956 7.09901 0
M  V30 92 H 3.1614 1.54115 7.64113 0
M  V30 93 N 7.3905 -1.2043 1.01659 0
M  V30 94 C 8.3205 -2.25466 0.607226 0
M  V30 95 C 9.3015 -1.65853 -0.377716 0
M  V30 96 O 10.4865 -1.92409 -0.263149 0
M  V30 97 C 7.6165 -3.47256 -0.0552949 0
M  V30 98 C 6.5705 -4.19462 0.850632 0
M  V30 99 C 5.8965 -5.34673 0.0538859 0
M  V30 100 C 7.1965 -4.75603 2.15868 0
M  V30 101 H 8.8905 -2.59962 1.48526 0
M  V30 102 H 6.4365 -1.2496 0.715605 0
M  V30 103 H 8.3895 -4.19917 -0.353233 0
M  V30 104 H 7.1135 -3.11924 -0.968045 0
M  V30 105 H 5.7725 -3.48667 1.13257 0
M  V30 106 H 5.4205 -4.95585 -0.860514 0
M  V30 107 H 5.1205 -5.83913 0.657192 0
M  V30 108 H 6.6445 -6.10138 -0.237598 0
M  V30 109 H 8.0585 -5.40083 1.92311 0
M  V30 110 H 6.4555 -5.3528 2.71284 0
M  V30 111 H 7.5255 -3.94346 2.82169 0
M  V30 112 N 8.8686 -0.792821 -1.36206 0
M  V30 113 C 10.1156 -0.366786 -1.99151 0
M  V30 114 C 10.4436 1.06243 -1.62919 0
M  V30 115 O 9.6986 1.74927 -0.877442 0
M  V30 116 C 9.9976 -0.481501 -3.54142 0
M  V30 117 C 9.6636 -1.87202 -4.10203 0
M  V30 118 C 8.3256 -2.25248 -4.25226 0
M  V30 119 C 10.6776 -2.78237 -4.40719 0
M  V30 120 C 8.0056 -3.53723 -4.68078 0
M  V30 121 C 10.3576 -4.06144 -4.85005 0
M  V30 122 C 9.0216 -4.44207 -4.98234 0
M  V30 123 H 8.2916 -0.134217 -0.728743 0
M  V30 124 H 10.9386 -1.01094 -1.62641 0
M  V30 125 H 9.2436 0.246146 -3.91026 0
M  V30 126 H 10.9406 -0.132844 -4.0078 0
M  V30 127 H 7.5306 -1.56639 -3.98951 0
M  V30 128 H 11.7146 -2.50097 -4.28679 0
M  V30 129 H 6.9706 -3.8308 -4.76508 0
M  V30 130 H 11.1446 -4.76796 -5.07581 0
M  V30 131 H 8.7716 -5.43814 -5.31197 0
M  V30 132 N 10.3467 1.47872 -0.545128 0
M  V30 133 C 11.2937 2.29849 0.2093 0
M  V30 134 C 12.2637 1.38313 0.919707 0
M  V30 135 O 13.4487 1.67277 0.917772 0
M  V30 136 C 10.5887 3.22019 1.24088 0
M  V30 137 C 9.7017 4.2864 0.537778 0
M  V30 138 C 8.8367 5.07973 1.5536 0
M  V30 139 C 7.8757 6.06381 0.8348 0
M  V30 140 N 7.0127 6.78717 1.79688 0
M  V30 141 H 11.8527 2.93845 -0.49591 0
M  V30 142 H 9.3897 1.44848 -0.256389 0
M  V30 143 H 11.3477 3.73868 1.85144 0
M  V30 144 H 9.9777 2.59914 1.91428 0
M  V30 145 H 9.0297 3.7994 -0.187046 0
M  V30 146 H 10.3417 4.98793 -0.0258907 0
M  V30 147 H 9.4957 5.63912 2.23803 0
M  V30 148 H 8.2347 4.37693 2.15118 0
M  V30 149 H 7.2397 5.49631 0.136388 0
M  V30 150 H 8.4647 6.78665 0.24313 0
M  V30 151 H 6.4107 6.11177 2.38326 0
M  V30 152 H 6.3277 7.44998 1.28505 0
M  V30 153 H 7.5957 7.39237 2.47282 0
M  V30 154 N 11.8248 0.280983 1.55075 0
M  V30 155 C 13.1018 -0.386207 1.91749 0
M  V30 156 C 13.4818 -1.73264 1.20594 0
M  V30 157 O 12.8298 -2.26034 0.334784 0
M  V30 158 C 13.0398 -0.520687 3.45094 0
M  V30 159 C 14.3878 -0.800865 4.16979 0
M  V30 160 O 15.4118 -0.605271 3.5102 0
M  V30 161 O 14.2708 -1.1753 5.33712 0
M  V30 162 H 11.3648 -0.212408 0.799257 0
M  V30 163 H 13.9108 0.327568 1.66509 0
M  V30 164 H 12.6828 0.426633 3.88967 0
M  V30 165 H 12.3058 -1.2837 3.76307 0
M  V30 166 N 13.3029 -1.57598 0.00835791 0
M  V30 167 C 14.5329 -1.94931 -0.684496 0
M  V30 168 C 14.9409 -0.882233 -1.67372 0
M  V30 169 O 14.2839 0.146621 -1.83114 0
M  V30 170 C 14.3459 -3.283 -1.4649 0
M  V30 171 C 14.0099 -4.52548 -0.63634 0
M  V30 172 C 15.0069 -5.19839 0.0795586 0
M  V30 173 C 12.6919 -4.98942 -0.579849 0
M  V30 174 C 14.6859 -6.3183 0.840843 0
M  V30 175 C 12.3729 -6.10819 0.185155 0
M  V30 176 C 13.3709 -6.77121 0.894227 0
M  V30 177 O 13.0589 -7.86853 1.64673 0
M  V30 178 H 12.7909 -0.647249 -0.19505 0
M  V30 179 H 15.3449 -2.05318 0.0581272 0
M  V30 180 H 13.5749 -3.14345 -2.2522 0
M  V30 181 H 15.2639 -3.50685 -2.04389 0
M  V30 182 H 16.0299 -4.84979 0.0451202 0
M  V30 183 H 11.9089 -4.47155 -1.1213 0
M  V30 184 H 15.4529 -6.83513 1.39483 0
M  V30 185 H 11.3499 -6.4512 0.221384 0
M  V30 186 H 12.1179 -8.03412 1.56432 0
M  V30 187 N 14.781 0.264519 -1.55364 0
M  V30 188 C 16.006 1.01726 -1.80739 0
M  V30 189 C 16.431 1.78836 -0.583044 0
M  V30 190 O 15.789 1.75167 0.467566 0
M  V30 191 C 15.837 1.94482 -3.03659 0
M  V30 192 O 14.941 3.03386 -2.7934 0
M  V30 193 H 14.282 0.290395 -0.597132 0
M  V30 194 H 16.812 0.290854 -2.02522 0
M  V30 195 H 16.822 2.36278 -3.32621 0
M  V30 196 H 15.497 1.37772 -3.92418 0
M  V30 197 H 14.074 2.65844 -2.61498 0
M  V30 198 N 16.2591 1.48442 0.529413 0
M  V30 199 C 17.4841 1.60406 1.31471 0
M  V30 200 C 17.9091 0.264738 1.86228 0
M  V30 201 O 17.2671 -0.763668 1.64432 0
M  V30 202 C 17.3151 2.65419 2.44101 0
M  V30 203 O 16.4191 2.22618 3.47153 0
M  V30 204 H 15.7601 0.537863 0.389357 0
M  V30 205 H 18.2901 1.94432 0.636965 0
M  V30 206 H 18.3001 2.86709 2.90279 0
M  V30 207 H 16.9751 3.62652 2.03608 0
M  V30 208 H 15.5521 2.11543 3.0709 0
M  V30 209 N 17.7372 -0.778329 1.37039 0
M  V30 210 C 18.9832 -1.53892 1.32079 0
M  V30 211 C 19.3162 -1.9396 -0.0965386 0
M  V30 212 O 18.5912 -1.63568 -1.05242 0
M  V30 213 C 18.8742 -2.80847 2.25382 0
M  V30 214 C 18.7272 -2.47076 3.75864 0
M  V30 215 C 20.0462 -3.82741 2.1725 0
M  V30 216 H 17.1652 -0.558303 0.48111 0
M  V30 217 H 19.8072 -0.893397 1.67685 0
M  V30 218 H 17.9572 -3.35931 1.95148 0
M  V30 219 H 19.6292 -1.97957 4.16666 0
M  V30 220 H 17.8722 -1.79863 3.94755 0
M  V30 221 H 18.5432 -3.37798 4.36574 0
M  V30 222 H 21.0192 -3.37133 2.43887 0
M  V30 223 H 19.8952 -4.69303 2.84686 0
M  V30 224 H 20.1562 -4.2652 1.16331 0
M  V30 225 N 19.2153 -1.21501 -1.00376 0
M  V30 226 C 20.4613 -1.03452 -1.74429 0
M  V30 227 C 20.7943 0.430764 -1.89362 0
M  V30 228 O 20.0693 1.31962 -1.42886 0
M  V30 229 C 20.3523 -1.73375 -3.15615 0
M  V30 230 C 20.2053 -3.27431 -3.08397 0
M  V30 231 C 21.5243 -1.47732 -4.14564 0
M  V30 232 H 18.6433 -0.377226 -0.633143 0
M  V30 233 H 21.2853 -1.49693 -1.17013 0
M  V30 234 H 19.4353 -1.34064 -3.64636 0
M  V30 235 H 21.1073 -3.76119 -2.67081 0
M  V30 236 H 19.3503 -3.5767 -2.45468 0
M  V30 237 H 20.0213 -3.71524 -4.08258 0
M  V30 238 H 22.4973 -1.8186 -3.74254 0
M  V30 239 H 21.3733 -1.99169 -5.11491 0
M  V30 240 H 21.6343 -0.407589 -4.40217 0
M  V30 241 N 20.6934 1.19889 -1.02296 0
M  V30 242 C 22.1094 1.41462 -0.738954 0
M  V30 243 C 22.3094 1.89721 0.678846 0
M  V30 244 O 21.3654 2.07016 1.4457 0
M  V30 245 C 22.6784 2.43083 -1.77005 0
M  V30 246 C 24.2264 2.5684 -1.78892 0
M  V30 247 C 24.7014 3.61709 -2.80945 0
M  V30 248 N 26.1924 3.69199 -2.79725 0
M  V30 249 C 26.9274 4.50019 -3.55345 0
M  V30 250 N 26.4234 5.34592 -4.40662 0
M  V30 251 N 28.2164 4.44612 -3.43914 0
M  V30 252 H 20.3674 0.868827 -1.93817 0
M  V30 253 H 22.6304 0.44399 -0.837602 0
M  V30 254 H 22.3364 2.14636 -2.78612 0
M  V30 255 H 22.2104 3.4217 -1.58744 0
M  V30 256 H 24.5974 2.84614 -0.779674 0
M  V30 257 H 24.6784 1.57927 -2.01228 0
M  V30 258 H 24.3224 3.34678 -3.82038 0
M  V30 259 H 24.2524 4.60259 -2.5587 0
M  V30 260 H 26.7434 3.08794 -2.17842 0
M  V30 261 H 27.0564 5.93363 -4.95116 0
M  V30 262 H 25.4014 5.34073 -4.44737 0
M  V30 263 H 28.5924 3.7758 -2.76679 0
M  V30 264 H 28.7654 5.0736 -4.031 0
M  V30 265 N 22.1715 0.800033 1.35784 0
M  V30 266 C 23.5825 0.439142 1.81462 0
M  V30 267 C 23.9335 -1.03813 1.66485 0
M  V30 268 O 23.0585 -1.80626 1.19177 0
M  V30 269 C 23.6535 0.790314 3.29453 0
M  V30 270 C 22.2125 0.482111 3.733 0
M  V30 271 C 21.3595 1.01938 2.57883 0
M  V30 272 H 24.3105 0.992254 1.23855 0
M  V30 273 H 24.3315 0.0853677 3.80404 0
M  V30 274 H 23.8435 1.86554 3.40322 0
M  V30 275 H 21.9445 -0.584652 3.67984 0
M  V30 276 H 22.0575 1.01015 4.6833 0
M  V30 277 H 20.4215 0.442043 2.50835 0
M  V30 278 H 21.2045 2.10059 2.71533 0
M  V30 279 N 23.6496 -1.47581 0.552962 0
M  V30 280 C 24.8956 -2.02782 0.0273648 0
M  V30 281 C 25.2286 -1.42687 -1.31734 0
M  V30 282 O 24.5036 -0.580897 -1.85623 0
M  V30 283 C 24.7866 -3.60031 -0.0702371 0
M  V30 284 C 24.6396 -4.30566 1.30126 0
M  V30 285 C 25.9586 -4.33028 -0.785771 0
M  V30 286 H 23.0776 -0.736912 0.0114185 0
M  V30 287 H 25.7196 -1.76056 0.714432 0
M  V30 288 H 23.8696 -3.82932 -0.655382 0
M  V30 289 H 25.5416 -4.19018 1.92929 0
M  V30 290 H 23.7846 -3.91086 1.87709 0
M  V30 291 H 24.4556 -5.39114 1.18573 0
M  V30 292 H 26.9316 -4.15095 -0.288982 0
M  V30 293 H 25.8076 -5.42695 -0.823013 0
M  V30 294 H 26.0686 -4.01945 -1.841 0
M  V30 295 N 25.1277 -0.289203 -1.54924 0
M  V30 296 C 26.0377 0.601863 -2.26748 0
M  V30 297 C 27.0537 1.15834 -1.2984 0
M  V30 298 O 28.2297 1.18564 -1.62802 0
M  V30 299 C 25.2947 1.76299 -2.98529 0
M  V30 300 C 24.3557 1.24178 -4.10948 0
M  V30 301 C 23.5887 2.34757 -4.79296 0
M  V30 302 O 23.8117 3.54411 -4.46933 0
M  V30 303 O 22.7457 2.02115 -5.66951 0
M  V30 304 H 26.5717 0.0195879 -3.03694 0
M  V30 305 H 24.1567 -0.0560868 -1.49295 0
M  V30 306 H 26.0387 2.43973 -3.43592 0
M  V30 307 H 24.7137 2.33209 -2.24488 0
M  V30 308 H 23.6207 0.531104 -3.70311 0
M  V30 309 H 24.9537 0.718252 -4.86931 0
M  V30 310 N 26.6058 1.57591 -0.0167156 0
M  V30 311 C 27.8828 1.82547 0.702564 0
M  V30 312 C 28.2628 0.898018 1.91047 0
M  V30 313 O 27.6108 -0.0493456 2.28447 0
M  V30 314 C 27.8208 3.31459 1.09251 0
M  V30 315 C 29.1688 3.97622 1.48937 0
M  V30 316 O 30.1928 3.35881 1.18584 0
M  V30 317 O 29.0518 5.06415 2.05442 0
M  V30 318 H 26.1458 0.752268 0.343544 0
M  V30 319 H 28.6918 1.69644 -0.0434495 0
M  V30 320 H 27.4638 3.9061 0.23227 0
M  V30 321 H 27.0868 3.49422 1.89709 0
M  V30 322 N 28.0839 -0.256276 1.55502 0
M  V30 323 C 29.0339 -1.31981 1.85916 0
M  V30 324 C 30.0179 -1.43927 0.719296 0
M  V30 325 O 31.2099 -1.47326 0.981019 0
M  V30 326 C 28.3389 -2.67703 2.14918 0
M  V30 327 C 27.4249 -2.59801 3.35208 0
M  V30 328 N 27.8159 -2.21524 4.54709 0
M  V30 329 C 26.1139 -2.90832 3.38131 0
M  V30 330 C 26.8149 -2.24024 5.36832 0
M  V30 331 N 25.7909 -2.63158 4.75656 0
M  V30 332 H 29.5929 -1.01423 2.75845 0
M  V30 333 H 27.1069 -0.464911 1.55603 0
M  V30 334 H 29.1039 -3.44445 2.34869 0
M  V30 335 H 27.7639 -2.99137 1.26282 0
M  V30 336 H 28.7749 -1.93223 4.80505 0
M  V30 337 H 25.4519 -3.26867 2.59739 0
M  V30 338 H 26.8419 -1.9685 6.42417 0
M  V30 339 N 29.562 -1.4872 -0.521534 0
M  V30 340 C 30.978 -1.35028 -0.850855 0
M  V30 341 C 31.178 -0.367712 -1.98116 0
M  V30 342 O 30.234 0.208037 -2.51642 0
M  V30 343 C 31.547 -2.75263 -1.21041 0
M  V30 344 C 33.095 -2.83813 -1.31981 0
M  V30 345 C 33.57 -4.24769 -1.71276 0
M  V30 346 N 35.061 -4.27482 -1.78363 0
M  V30 347 C 35.796 -5.33494 -2.1017 0
M  V30 348 N 35.292 -6.49775 -2.40343 0
M  V30 349 N 37.085 -5.20894 -2.11248 0
M  V30 350 H 29.236 -2.11214 0.22413 0
M  V30 351 H 31.499 -0.947252 0.0376439 0
M  V30 352 H 31.205 -3.48765 -0.453415 0
M  V30 353 H 31.079 -3.09327 -2.15863 0
M  V30 354 H 33.466 -2.10561 -2.06756 0
M  V30 355 H 33.547 -2.53358 -0.352596 0
M  V30 356 H 33.191 -4.9854 -0.970588 0
M  V30 357 H 33.121 -4.52673 -2.69062 0
M  V30 358 H 35.612 -3.43611 -1.57288 0
M  V30 359 H 35.925 -7.26402 -2.63743 0
M  V30 360 H 34.27 -6.53035 -2.37844 0
M  V30 361 H 37.461 -4.29065 -1.87139 0
M  V30 362 H 37.634 -6.03612 -2.35704 0
M  V30 363 N 31.0401 0.771051 -1.3745 0
M  V30 364 C 31.9721 1.89352 -1.29146 0
M  V30 365 C 32.9851 1.61477 -0.207124 0
M  V30 366 O 34.1741 1.72382 -0.463324 0
M  V30 367 C 31.2741 3.24596 -0.974195 0
M  V30 368 C 30.4471 3.80111 -2.16413 0
M  V30 369 C 29.5061 4.93832 -1.81703 0
M  V30 370 O 28.5321 5.09382 -2.54006 0
M  V30 371 N 29.7341 5.75483 -0.761573 0
M  V30 372 H 32.4991 1.96991 -2.25864 0
M  V30 373 H 30.0601 0.950191 -1.31084 0
M  V30 374 H 32.0521 3.98193 -0.722828 0
M  V30 375 H 30.6221 3.12454 -0.0955527 0
M  V30 376 H 29.8421 2.98284 -2.57721 0
M  V30 377 H 31.1301 4.13932 -2.95867 0
M  V30 378 H 30.5281 5.65469 -0.161609 0
M  V30 379 H 29.0851 6.49302 -0.570064 0
M  V30 380 N 32.5182 1.22032 0.997298 0
M  V30 381 C 33.7642 1.04376 1.73878 0
M  V30 382 C 34.0972 -0.420716 1.89588 0
M  V30 383 O 33.3722 -1.31202 1.43583 0
M  V30 384 C 33.6552 1.75047 3.14691 0
M  V30 385 C 33.5082 3.29062 3.06656 0
M  V30 386 C 34.8272 1.49928 4.13775 0
M  V30 387 H 31.9462 0.380578 0.631133 0
M  V30 388 H 34.5882 1.50312 1.16217 0
M  V30 389 H 32.7382 1.35996 3.63919 0
M  V30 390 H 34.4102 3.7753 2.65083 0
M  V30 391 H 32.6532 3.58967 2.43568 0
M  V30 392 H 33.3242 3.73683 4.06282 0
M  V30 393 H 35.8002 1.83842 3.73285 0
M  V30 394 H 34.6762 2.01878 5.10428 0
M  V30 395 H 34.9372 0.430929 4.39995 0
M  V30 396 N 33.9963 -1.19345 1.0293 0
M  V30 397 C 35.2423 -1.89318 0.727083 0
M  V30 398 C 35.5753 -1.79446 -0.742483 0
M  V30 399 O 34.8503 -1.1871 -1.54072 0
M  V30 400 C 35.1333 -3.40238 1.17942 0
M  V30 401 C 34.9863 -3.58979 2.71024 0
M  V30 402 C 36.3053 -4.33479 0.760548 0
M  V30 403 H 33.4243 -0.687475 0.265606 0
M  V30 404 H 36.0663 -1.40477 1.2793 0
M  V30 405 H 34.2163 -3.81964 0.709608 0
M  V30 406 H 35.8883 -3.26421 3.25955 0
M  V30 407 H 34.1313 -3.02018 3.11396 0
M  V30 408 H 34.8023 -4.64823 2.9773 0
M  V30 409 H 37.2783 -3.99469 1.16464 0
M  V30 410 H 36.1543 -5.37664 1.10493 0
M  V30 411 H 36.4153 -4.40813 -0.337063 0
M  V30 412 N 35.4744 -0.807222 -1.35358 0
M  V30 413 C 36.3844 -0.219594 -2.3357 0
M  V30 414 C 37.4004 0.637734 -1.61892 0
M  V30 415 O 38.5764 0.549336 -1.93763 0
M  V30 416 C 35.6414 0.62158 -3.41083 0
M  V30 417 C 34.7024 -0.256315 -4.28534 0
M  V30 418 C 33.9354 0.544807 -5.30912 0
M  V30 419 O 34.1584 1.77944 -5.41934 0
M  V30 420 O 33.0924 -0.0646478 -6.01865 0
M  V30 421 H 36.9184 -1.03208 -2.85625 0
M  V30 422 H 34.5034 -0.569025 -1.38139 0
M  V30 423 H 36.3854 1.10067 -4.06772 0
M  V30 424 H 35.0604 1.41165 -2.91297 0
M  V30 425 H 33.9674 -0.782559 -3.65823 0
M  V30 426 H 35.3004 -1.01034 -4.81719 0
M  V30 427 N 36.9525 1.47285 -0.560781 0
M  V30 428 C 38.1985 2.02764 -0.0381184 0
M  V30 429 C 38.5315 1.43384 1.30976 0
M  V30 430 O 37.8065 0.590733 1.85312 0
M  V30 431 C 38.0895 3.60064 0.0511427 0
M  V30 432 C 37.9425 4.2987 -1.32408 0
M  V30 433 C 39.2615 4.33439 0.762795 0
M  V30 434 H 36.3805 0.736841 -0.0153264 0
M  V30 435 H 39.0225 1.75675 -0.723759 0
M  V30 436 H 37.1725 3.83274 0.635065 0
M  V30 437 H 38.8445 4.17989 -1.95148 0
M  V30 438 H 37.0875 3.90085 -1.8978 0
M  V30 439 H 37.7585 5.38478 -1.21431 0
M  V30 440 H 40.2345 4.15243 0.266965 0
M  V30 441 H 39.1105 5.43124 0.794221 0
M  V30 442 H 39.3715 4.02915 1.81966 0
M  V30 443 N 38.4306 0.297415 1.54768 0
M  V30 444 C 39.6586 -0.315623 2.04478 0
M  V30 445 C 40.0736 -1.47792 1.17486 0
M  V30 446 O 39.4306 -1.81404 0.19971 0
M  V30 447 C 39.4816 -0.7753 3.53088 0
M  V30 448 O 39.2026 0.340732 4.36773 0
M  V30 449 C 40.7036 -1.45386 4.18781 0
M  V30 450 H 37.9236 -0.0690887 0.667434 0
M  V30 451 H 40.4676 0.436003 1.99798 0
M  V30 452 H 38.6226 -1.47696 3.58141 0
M  V30 453 H 39.0366 -0.0165035 5.24497 0
M  V30 454 H 40.5106 -1.72669 5.24299 0
M  V30 455 H 40.9876 -2.39275 3.68299 0
M  V30 456 H 41.5936 -0.795475 4.17795 0
M  V30 457 N 39.9087 -1.5758 0.0250728 0
M  V30 458 C 41.1547 -1.91917 -0.655413 0
M  V30 459 C 41.4877 -0.901433 -1.72011 0
M  V30 460 O 40.7627 0.0764069 -1.9435 0
M  V30 461 C 41.0457 -3.36751 -1.27558 0
M  V30 462 C 40.8987 -4.49258 -0.220719 0
M  V30 463 C 42.2177 -3.81469 -2.19475 0
M  V30 464 H 39.3367 -0.697925 -0.23679 0
M  V30 465 H 41.9787 -1.89825 0.0815036 0
M  V30 466 H 40.1287 -3.38664 -1.90365 0
M  V30 467 H 41.8007 -4.59478 0.409601 0
M  V30 468 H 40.0437 -4.31415 0.454264 0
M  V30 469 H 40.7147 -5.47618 -0.694175 0
M  V30 470 H 43.1907 -3.81266 -1.66659 0
M  V30 471 H 42.0667 -4.83512 -2.59822 0
M  V30 472 H 42.3277 -3.16744 -3.08424 0
M  V30 473 N 41.3868 0.248026 -1.55636 0
M  V30 474 C 42.6348 0.974295 -1.77065 0
M  V30 475 C 42.9558 1.85897 -0.588849 0
M  V30 476 O 42.2258 1.91868 0.395407 0
M  V30 477 H 40.8058 0.362733 -0.653019 0
M  V30 478 H 43.4678 0.266244 -1.93073 0
M  V30 479 H 42.5638 1.59667 -2.68166 0
M  V30 480 N 42.8649 1.48995 0.513639 0
M  V30 481 C 43.7949 1.67636 1.62544 0
M  V30 482 C 44.7759 0.525087 1.61793 0
M  V30 483 O 45.9609 0.759502 1.78732 0
M  V30 484 C 43.0909 1.73114 3.01079 0
M  V30 485 C 42.0449 2.87905 3.16693 0
M  V30 486 C 41.3709 2.78486 4.56453 0
M  V30 487 C 42.6709 4.29005 2.97913 0
M  V30 488 H 44.3649 2.60716 1.47198 0
M  V30 489 H 41.9109 1.25465 0.706714 0
M  V30 490 H 43.8639 1.84742 3.78746 0
M  V30 491 H 42.5879 0.766241 3.17484 0
M  V30 492 H 41.2469 2.75859 2.41448 0
M  V30 493 H 40.8949 1.7993 4.69717 0
M  V30 494 H 40.5949 3.55523 4.67843 0
M  V30 495 H 42.1189 2.92104 5.36197 0
M  V30 496 H 43.5329 4.41798 3.65359 0
M  V30 497 H 41.9299 5.07166 3.20785 0
M  V30 498 H 42.9999 4.44329 1.94165 0
M  V30 499 N 44.343 -0.763751 1.37857 0
M  V30 500 C 45.275 -1.88664 1.30148 0
M  V30 501 C 46.288 -1.61365 0.215685 0
M  V30 502 O 47.477 -1.72134 0.472459 0
M  V30 503 C 44.577 -3.24075 0.991396 0
M  V30 504 C 43.75 -3.78958 2.18426 0
M  V30 505 C 42.809 -4.92862 1.8432 0
M  V30 506 O 41.835 -5.08027 2.56704 0
M  V30 507 N 43.037 -5.75071 0.792081 0
M  V30 508 H 45.802 -1.95791 2.26905 0
M  V30 509 H 43.363 -0.943226 1.31586 0
M  V30 510 H 45.355 -3.97804 0.743935 0
M  V30 511 H 43.925 -3.12399 0.112122 0
M  V30 512 H 43.145 -2.96913 2.59299 0
M  V30 513 H 44.433 -4.12357 2.98058 0
M  V30 514 H 43.831 -5.65375 0.191595 0
M  V30 515 H 42.388 -6.48991 0.60449 0
M  V30 516 N 45.8211 -1.22559 -0.990812 0
M  V30 517 C 46.7511 -1.0218 -2.09956 0
M  V30 518 C 47.7321 0.0579394 -1.70001 0
M  V30 519 O 48.9171 -0.104684 -1.93918 0
M  V30 520 C 46.0471 -0.601023 -3.4206 0
M  V30 521 C 45.0011 -1.62694 -3.95872 0
M  V30 522 C 44.3271 -1.06193 -5.24049 0
M  V30 523 C 45.6271 -3.01743 -4.2632 0
M  V30 524 H 47.3211 -1.94916 -2.27262 0
M  V30 525 H 44.8671 -0.938566 -1.09211 0
M  V30 526 H 46.8201 -0.445561 -4.19038 0
M  V30 527 H 45.5441 0.362005 -3.24588 0
M  V30 528 H 44.2031 -1.77021 -3.21028 0
M  V30 529 H 43.8511 -0.0901903 -5.02919 0
M  V30 530 H 43.5511 -1.74732 -5.61019 0
M  V30 531 H 45.0751 -0.918092 -6.03658 0
M  V30 532 H 46.4891 -2.90777 -4.94087 0
M  V30 533 H 44.8861 -3.67425 -4.74467 0
M  V30 534 H 45.9561 -3.51518 -3.34011 0
M  V30 535 N 47.2992 1.18797 -1.03562 0
M  V30 536 C 48.5482 1.87978 -0.731235 0
M  V30 537 C 48.8612 1.80911 0.743671 0
M  V30 538 O 50.0672 2.45407 1.16137 0
M  V30 539 C 48.5232 3.3721 -1.25768 0
M  V30 540 C 48.1312 3.52818 -2.76085 0
M  V30 541 C 49.8752 4.11825 -1.0296 0
M  V30 542 C 47.7822 4.9598 -3.22114 0
M  V30 543 H 46.7122 0.704063 -0.269835 0
M  V30 544 H 49.3632 1.34266 -1.25079 0
M  V30 545 H 47.7452 3.90359 -0.666011 0
M  V30 546 H 48.9192 3.09965 -3.40966 0
M  V30 547 H 47.2342 2.91602 -2.97249 0
M  V30 548 H 49.8312 5.17411 -1.34869 0
M  V30 549 H 50.1742 4.16287 0.0333546 0
M  V30 550 H 50.7072 3.64833 -1.58562 0
M  V30 551 H 47.4462 4.96684 -4.27768 0
M  V30 552 H 46.9662 5.39569 -2.61965 0
M  V30 553 H 48.6452 5.6467 -3.15844 0
M  V30 554 N 48.7773 0.814389 1.34928 0
M  V30 555 C 49.7093 0.187834 2.28429 0
M  V30 556 C 50.7223 -0.617374 1.5064 0
M  V30 557 O 51.9113 -0.448454 1.72775 0
M  V30 558 C 49.0113 -0.755962 3.30361 0
M  V30 559 C 48.1843 0.00456686 4.374 0
M  V30 560 C 47.2433 -0.858876 5.19143 0
M  V30 561 O 46.2693 -0.306968 5.68372 0
M  V30 562 N 47.4713 -2.17988 5.38016 0
M  V30 563 H 50.2363 0.991105 2.82838 0
M  V30 564 H 47.7973 0.670561 1.4736 0
M  V30 565 H 49.7893 -1.338 3.81942 0
M  V30 566 H 48.3593 -1.46001 2.7641 0
M  V30 567 H 47.5793 0.767865 3.86649 0
M  V30 568 H 48.8673 0.528422 5.06049 0
M  V30 569 H 48.2653 -2.65212 4.99679 0
M  V30 570 H 46.8223 -2.71098 5.92747 0
M  V30 571 N 50.2554 -1.46986 0.568584 0
M  V30 572 C 51.1854 -2.32946 -0.160753 0
M  V30 573 C 52.1664 -1.44487 -0.897631 0
M  V30 574 O 53.3514 -1.73327 -0.875867 0
M  V30 575 C 50.4814 -3.26494 -1.18403 0
M  V30 576 C 49.4354 -4.24282 -0.562895 0
M  V30 577 C 48.7614 -5.07236 -1.69163 0
M  V30 578 C 50.0614 -5.19989 0.490761 0
M  V30 579 H 51.7554 -2.94175 0.556916 0
M  V30 580 H 49.3014 -1.4146 0.26927 0
M  V30 581 H 51.2544 -3.85477 -1.70251 0
M  V30 582 H 49.9784 -2.63343 -1.93179 0
M  V30 583 H 48.6374 -3.66541 -0.0656164 0
M  V30 584 H 48.2854 -4.4048 -2.42871 0
M  V30 585 H 47.9854 -5.7345 -1.28174 0
M  V30 586 H 49.5094 -5.6908 -2.21314 0
M  V30 587 H 50.9234 -5.73271 0.0579047 0
M  V30 588 H 49.3204 -5.94469 0.820165 0
M  V30 589 H 50.3904 -4.64777 1.3824 0
M  V30 590 N 51.7335 -0.305618 -1.54608 0
M  V30 591 C 52.9825 0.303098 -1.9941 0
M  V30 592 C 53.2955 1.54648 -1.19764 0
M  V30 593 O 54.5015 2.23007 -1.54855 0
M  V30 594 C 52.9575 0.590588 -3.55021 0
M  V30 595 C 52.5655 -0.634719 -4.43481 0
M  V30 596 C 54.3095 1.16025 -4.08336 0
M  V30 597 C 52.2165 -0.320126 -5.90533 0
M  V30 598 H 51.1465 0.117031 -0.744862 0
M  V30 599 H 53.7975 -0.415045 -1.78745 0
M  V30 600 H 52.1795 1.36845 -3.71604 0
M  V30 601 H 53.3535 -1.41079 -4.38672 0
M  V30 602 H 51.6685 -1.12333 -4.00962 0
M  V30 603 H 54.2655 1.40994 -5.15776 0
M  V30 604 H 54.6085 2.10397 -3.5922 0
M  V30 605 H 55.1415 0.443985 -3.95315 0
M  V30 606 H 51.8805 -1.23254 -6.43808 0
M  V30 607 H 51.4005 0.418579 -5.98338 0
M  V30 608 H 53.0795 0.0766241 -6.46955 0
M  V30 609 N 53.2116 1.57565 -0.0334293 0
M  V30 610 C 54.1596 2.1164 0.96496 0
M  V30 611 C 55.1536 1.04398 1.33407 0
M  V30 612 O 56.3596 1.22828 1.3158 0
M  V30 613 H 52.7346 0.676222 0.32898 0
M  V30 614 H 54.7056 2.94455 0.483614 0
M  V30 615 C 53.4546 2.66207 2.23672 0
M  V30 616 H 52.7776 3.48378 1.96145 0
M  V30 617 H 54.2176 3.07685 2.9173 0
M  V30 618 C 52.6766 1.59151 2.96939 0
M  V30 619 O 53.2066 0.993858 3.89211 0
M  V30 620 N 51.4126 1.31093 2.59351 0
M  V30 621 H 50.9596 1.7988 1.84393 0
M  V30 622 H 50.9176 0.596889 3.08682 0
M  V30 623 N 54.6897 -0.239769 1.55765 0
M  V30 624 C 55.9357 -0.968234 1.78194 0
M  V30 625 C 56.2687 -1.84701 0.599938 0
M  V30 626 O 55.5437 -1.9031 -0.401524 0
M  V30 627 C 55.8267 -1.8227 3.10564 0
M  V30 628 C 55.6797 -0.971633 4.3918 0
M  V30 629 C 56.9987 -2.80388 3.39221 0
M  V30 630 H 54.1177 -0.350572 0.648281 0
M  V30 631 H 56.7597 -0.238259 1.885 0
M  V30 632 H 54.9097 -2.44507 3.01908 0
M  V30 633 H 56.5817 -0.367408 4.59835 0
M  V30 634 H 54.8247 -0.276276 4.32919 0
M  V30 635 H 55.4957 -1.60346 5.28198 0
M  V30 636 H 57.9717 -2.28287 3.47885 0
M  V30 637 H 56.8477 -3.3729 4.33044 0
M  V30 638 H 57.1087 -3.57212 2.60484 0
M  V30 639 N 56.1678 -1.49265 -0.50573 0
M  V30 640 C 57.4448 -1.49012 -1.26707 0
M  V30 641 C 57.8248 -0.215205 -2.1 0
M  V30 642 O 57.1728 0.802547 -2.13943 0
M  V30 643 C 57.3828 -2.7663 -2.12783 0
M  V30 644 C 58.7308 -3.25932 -2.72127 0
M  V30 645 O 59.7548 -2.77715 -2.23054 0
M  V30 646 O 58.6138 -4.09897 -3.61451 0
M  V30 647 H 55.7078 -0.596197 -0.57313 0
M  V30 648 H 58.2538 -1.61524 -0.52039 0
M  V30 649 H 57.0258 -3.60916 -1.5118 0
M  V30 650 H 56.6488 -2.66956 -2.94653 0
M  V30 651 N 57.6459 0.756429 -1.3826 0
M  V30 652 C 58.5559 1.9009 -1.37488 0
M  V30 653 C 59.5719 1.71855 -0.272366 0
M  V30 654 O 60.7479 1.94827 -0.510318 0
M  V30 655 C 57.8129 3.25421 -1.19592 0
M  V30 656 C 56.8739 3.56202 -2.39622 0
M  V30 657 C 56.1069 4.85075 -2.2257 0
M  V30 658 O 56.3299 5.57246 -1.21793 0
M  V30 659 O 55.2639 5.15269 -3.11098 0
M  V30 660 H 59.0899 1.93695 -2.33914 0
M  V30 661 H 56.6749 0.901313 -1.1915 0
M  V30 662 H 58.5569 4.06337 -1.11661 0
M  V30 663 H 57.2319 3.22634 -0.262486 0
M  V30 664 H 56.1389 2.75458 -2.53128 0
M  V30 665 H 57.4719 3.63747 -3.31586 0
M  V30 666 N 59.124 1.23083 0.984299 0
M  V30 667 C 60.37 1.06214 1.72761 0
M  V30 668 C 60.703 -0.400584 1.90024 0
M  V30 669 O 59.978 -1.29672 1.44967 0
M  V30 670 C 60.261 1.78375 3.12817 0
M  V30 671 C 60.114 3.32296 3.03149 0
M  V30 672 C 61.433 1.54309 4.12161 0
M  V30 673 H 58.552 0.387251 0.627061 0
M  V30 674 H 61.194 1.51536 1.14616 0
M  V30 675 H 59.344 1.39848 3.62457 0
M  V30 676 H 61.016 3.8032 2.61064 0
M  V30 677 H 59.259 3.6153 2.39747 0
M  V30 678 H 59.93 3.77972 4.02295 0
M  V30 679 H 62.406 1.87791 3.71314 0
M  V30 680 H 61.282 2.07281 5.08258 0
M  V30 681 H 61.543 0.477572 4.39513 0
M  V30 682 N 60.6021 -1.18246 1.0419 0
M  V30 683 C 61.5501 -2.23968 0.627792 0
M  V30 684 C 62.5441 -1.65828 -0.346019 0
M  V30 685 O 63.7501 -1.78733 -0.213175 0
M  V30 686 H 60.1251 -0.728939 0.184802 0
M  V30 687 H 62.0961 -2.56202 1.52981 0
M  V30 688 C 60.8451 -3.47699 0.00796591 0
M  V30 689 H 60.1681 -3.92734 0.748347 0
M  V30 690 H 61.6081 -4.23294 -0.24455 0
M  V30 691 C 60.0671 -3.13153 -1.24246 0
M  V30 692 O 60.5971 -3.27003 -2.33307 0
M  V30 693 N 58.8031 -2.67467 -1.13622 0
M  V30 694 H 58.3501 -2.56396 -0.248734 0
M  V30 695 H 58.3081 -2.44724 -1.97377 0
M  V30 696 N 62.0802 -0.821533 -1.34494 0
M  V30 697 C 63.0122 -0.199946 -2.28326 0
M  V30 698 C 64.0252 0.609377 -1.50965 0
M  V30 699 O 65.2142 0.439285 -1.7301 0
M  V30 700 C 62.3142 0.738431 -3.30757 0
M  V30 701 C 61.4872 -0.0277632 -4.37391 0
M  V30 702 C 60.5462 0.831332 -5.19591 0
M  V30 703 O 59.5722 0.276822 -5.68526 0
M  V30 704 N 60.7742 2.15132 -5.39165 0
M  V30 705 H 63.5392 -1.00609 -2.82308 0
M  V30 706 H 61.1002 -0.678366 -1.47003 0
M  V30 707 H 63.0922 1.31773 -3.82646 0
M  V30 708 H 61.6622 1.44533 -2.7718 0
M  V30 709 H 60.8822 -0.788359 -3.86236 0
M  V30 710 H 62.1702 -0.555251 -5.05761 0
M  V30 711 H 61.5682 2.62559 -5.01078 0
M  V30 712 H 60.1252 2.6795 -5.94177 0
M  V30 713 N 63.5583 1.46682 -0.576371 0
M  V30 714 C 64.8073 2.01619 -0.0572825 0
M  V30 715 C 65.1203 1.45417 1.30818 0
M  V30 716 O 66.3263 1.92133 1.91825 0
M  V30 717 C 64.7823 3.59863 -0.0518371 0
M  V30 718 C 64.3903 4.25059 -1.41523 0
M  V30 719 C 66.1343 4.2248 0.413639 0
M  V30 720 C 64.0413 5.75364 -1.36785 0
M  V30 721 H 62.9713 0.753794 -0.0176448 0
M  V30 722 H 65.6223 1.68481 -0.727076 0
M  V30 723 H 64.0043 3.90048 0.683994 0
M  V30 724 H 65.1783 4.06491 -2.17029 0
M  V30 725 H 63.4933 3.7451 -1.8202 0
M  V30 726 H 66.0903 5.3265 0.467779 0
M  V30 727 H 66.4333 3.90976 1.42982 0
M  V30 728 H 66.9663 3.96897 -0.267929 0
M  V30 729 H 63.7053 6.11518 -2.36063 0
M  V30 730 H 63.2253 5.96214 -0.654895 0
M  V30 731 H 64.9043 6.37955 -1.07805 0
M  V30 732 N 65.0364 0.313813 1.54444 0
M  V30 733 C 66.2824 -0.292108 2.00685 0
M  V30 734 C 66.6154 -1.52548 1.20177 0
M  V30 735 O 65.8904 -1.92452 0.281531 0
M  V30 736 C 66.1734 -0.635968 3.5444 0
M  V30 737 C 66.0264 0.607437 4.4568 0
M  V30 738 C 67.3454 -1.45747 4.15266 0
M  V30 739 H 64.4644 -0.104697 0.729526 0
M  V30 740 H 67.1064 0.428457 1.85106 0
M  V30 741 H 65.2564 -1.24986 3.67846 0
M  V30 742 H 66.9284 1.24581 4.44159 0
M  V30 743 H 65.1714 1.23822 4.15753 0
M  V30 744 H 65.8424 0.322515 5.51057 0
M  V30 745 H 68.3184 -0.938645 4.05375 0
M  V30 746 H 67.1944 -1.66683 5.2298 0
M  V30 747 H 67.4554 -2.45063 3.67963 0
M  V30 748 N 66.5145 -1.57545 0.0417849 0
M  V30 749 C 67.7425 -1.96624 -0.643928 0
M  V30 750 C 68.1575 -0.918897 -1.64929 0
M  V30 751 O 67.5145 0.0979323 -1.82237 0
M  V30 752 C 67.5655 -3.35781 -1.33914 0
M  V30 753 O 67.2865 -4.365 -0.374048 0
M  V30 754 C 68.7875 -3.89566 -2.1155 0
M  V30 755 H 66.0075 -0.647316 -0.176702 0
M  V30 756 H 68.5515 -2.04229 0.105304 0
M  V30 757 H 66.7065 -3.29357 -2.03968 0
M  V30 758 H 67.1205 -5.17248 -0.869179 0
M  V30 759 H 68.5945 -4.89242 -2.55628 0
M  V30 760 H 69.0715 -3.24488 -2.9598 0
M  V30 761 H 69.6775 -3.99298 -1.46427 0
M  V30 762 N 67.9926 0.231505 -1.5589 0
M  V30 763 C 69.2206 0.974505 -1.82513 0
M  V30 764 C 69.6356 1.78344 -0.619591 0
M  V30 765 O 68.9926 1.77792 0.411848 0
M  V30 766 C 69.0436 1.90007 -3.07538 0
M  V30 767 O 68.7646 1.12385 -4.2344 0
M  V30 768 C 70.2656 2.75779 -3.47075 0
M  V30 769 H 67.4856 0.286065 -0.606966 0
M  V30 770 H 70.0296 0.249739 -2.02969 0
M  V30 771 H 68.1846 2.57891 -2.89086 0
M  V30 772 H 68.5986 1.75125 -4.944 0
M  V30 773 H 70.0726 3.36443 -4.37619 0
M  V30 774 H 70.5496 3.47672 -2.68367 0
M  V30 775 H 71.1556 2.13323 -3.67931 0
M  V30 776 N 69.4707 1.49531 0.497807 0
M  V30 777 C 70.4187 1.66926 1.61983 0
M  V30 778 C 71.4127 0.535167 1.60724 0
M  V30 779 O 72.6187 0.714896 1.65195 0
M  V30 780 H 68.9937 0.526415 0.537021 0
M  V30 781 H 70.9647 2.61098 1.44465 0
M  V30 782 C 69.7137 1.75602 3.00099 0
M  V30 783 H 69.0367 2.62244 3.01775 0
M  V30 784 H 70.4767 1.91807 3.78135 0
M  V30 785 C 68.9357 0.501543 3.33146 0
M  V30 786 O 69.4657 -0.371342 3.9998 0
M  V30 787 N 67.6717 0.363531 2.88317 0
M  V30 788 H 67.2187 1.07485 2.34104 0
M  V30 789 H 67.1767 -0.474728 3.10795 0
M  V30 790 N 70.9488 -0.749086 1.3866 0
M  V30 791 C 72.1948 -1.51056 1.35314 0
M  V30 792 C 72.5278 -1.94121 -0.0553751 0
M  V30 793 O 71.8028 -1.65763 -1.01749 0
M  V30 794 C 72.0858 -2.76003 2.31288 0
M  V30 795 C 71.9388 -2.39047 3.8102 0
M  V30 796 C 73.2578 -3.78046 2.2532 0
M  V30 797 H 70.3768 -0.547972 0.492844 0
M  V30 798 H 73.0188 -0.857628 1.69543 0
M  V30 799 H 71.1688 -3.31716 2.02229 0
M  V30 800 H 72.8408 -1.89074 4.20771 0
M  V30 801 H 71.0838 -1.71449 3.98482 0
M  V30 802 H 71.7548 -3.28462 4.4364 0
M  V30 803 H 74.2308 -3.31884 2.50983 0
M  V30 804 H 73.1068 -4.63159 2.94576 0
M  V30 805 H 73.3678 -4.23957 1.25352 0
M  V30 806 N 72.4269 -1.23603 -0.977757 0
M  V30 807 C 73.8429 -0.999251 -1.24447 0
M  V30 808 C 74.0429 0.298053 -1.99283 0
M  V30 809 O 73.0989 1.01681 -2.31122 0
M  V30 810 C 74.4119 -2.20784 -2.04144 0
M  V30 811 C 75.9599 -2.25303 -2.17273 0
M  V30 812 C 76.4349 -3.45755 -3.00362 0
M  V30 813 N 77.9259 -3.4601 -3.07947 0
M  V30 814 C 78.6609 -4.35868 -3.72568 0
M  V30 815 N 78.1569 -5.35966 -4.38991 0
M  V30 816 N 79.9499 -4.23605 -3.6948 0
M  V30 817 H 72.1009 -2.06986 -0.476483 0
M  V30 818 H 74.3639 -0.907801 -0.273134 0
M  V30 819 H 74.0699 -3.14945 -1.56533 0
M  V30 820 H 73.9439 -2.22085 -3.04891 0
M  V30 821 H 76.3309 -1.3168 -2.64092 0
M  V30 822 H 76.4119 -2.28033 -1.15907 0
M  V30 823 H 76.0559 -4.39687 -2.5424 0
M  V30 824 H 75.9859 -3.40266 -4.01904 0
M  V30 825 H 78.4769 -2.73588 -2.60688 0
M  V30 826 H 78.7899 -6.00783 -4.86086 0
M  V30 827 H 77.1349 -5.39863 -4.37691 0
M  V30 828 H 80.3259 -3.44647 -3.16759 0
M  V30 829 H 80.4989 -4.93836 -4.1956 0
M  V30 830 N 73.905 1.17692 -1.04816 0
M  V30 831 C 74.835 2.23777 -0.666791 0
M  V30 832 C 75.816 1.66796 0.33361 0
M  V30 833 O 77.001 1.93039 0.212042 0
M  V30 834 C 74.131 3.47281 -0.0367933 0
M  V30 835 C 73.085 4.17059 -0.961546 0
M  V30 836 C 72.411 5.34342 -0.195626 0
M  V30 837 C 73.711 4.69713 -2.28402 0
M  V30 838 H 75.405 2.55933 -1.55367 0
M  V30 839 H 72.951 1.23019 -0.748484 0
M  V30 840 H 74.904 4.20706 0.241775 0
M  V30 841 H 73.628 3.14381 0.885004 0
M  V30 842 H 72.287 3.45541 -1.22462 0
M  V30 843 H 71.935 4.97692 0.728816 0
M  V30 844 H 71.635 5.81966 -0.811775 0
M  V30 845 H 73.159 6.10553 0.0757473 0
M  V30 846 H 74.573 5.34794 -2.06563 0
M  V30 847 H 72.97 5.279 -2.8538 0
M  V30 848 H 74.04 3.86726 -2.92525 0
M  V30 849 N 75.3831 0.828654 1.34056 0
M  V30 850 C 76.3301 0.252567 2.29414 0
M  V30 851 C 77.3001 -0.62588 1.53857 0
M  V30 852 O 78.4851 -0.566312 1.82202 0
M  V30 853 C 75.6251 -0.574831 3.40279 0
M  V30 854 C 74.7381 0.326499 4.30764 0
M  V30 855 C 73.8731 -0.511016 5.28736 0
M  V30 856 C 72.9121 0.389342 6.1086 0
M  V30 857 N 72.0491 -0.409439 7.00905 0
M  V30 858 H 76.8891 1.07108 2.78086 0
M  V30 859 H 74.4261 0.539677 1.36843 0
M  V30 860 H 76.3841 -1.06992 4.03248 0
M  V30 861 H 75.0141 -1.35841 2.92826 0
M  V30 862 H 74.0661 0.939837 3.68607 0
M  V30 863 H 75.3781 1.01857 4.88289 0
M  V30 864 H 74.5321 -1.07035 5.97184 0
M  V30 865 H 73.2711 -1.23657 4.71763 0
M  V30 866 H 72.2761 0.960769 5.4134 0
M  V30 867 H 73.5011 1.1131 6.69916 0
M  V30 868 H 71.4471 -1.11856 6.46393 0
M  V30 869 H 71.3641 0.224126 7.55668 0
M  V30 870 H 72.6321 -0.951336 7.73673 0
M  V30 871 N 76.8612 -1.46375 0.584142 0
M  V30 872 C 77.7932 -2.28443 -0.186119 0
M  V30 873 C 78.8062 -1.38596 -0.854115 0
M  V30 874 O 79.9952 -1.63183 -0.723438 0
M  V30 875 C 77.0952 -3.13671 -1.28311 0
M  V30 876 C 76.2682 -4.31652 -0.706758 0
M  V30 877 C 75.3272 -4.98267 -1.69163 0
M  V30 878 O 74.3532 -5.55815 -1.22712 0
M  V30 879 N 75.5552 -4.95408 -3.02575 0
M  V30 880 H 78.3202 -2.9519 0.517986 0
M  V30 881 H 75.8812 -1.56303 0.42201 0
M  V30 882 H 77.8732 -3.55101 -1.94128 0
M  V30 883 H 76.4432 -2.48989 -1.89005 0
M  V30 884 H 75.6632 -3.93989 0.128908 0
M  V30 885 H 76.9512 -5.07906 -0.301506 0
M  V30 886 H 76.3492 -4.49902 -3.42936 0
M  V30 887 H 74.9062 -5.40774 -3.63877 0
M  V30 888 N 78.3393 -0.321999 -1.54275 0
M  V30 889 C 79.5873 0.280489 -2.00144 0
M  V30 890 C 79.9083 1.52777 -1.21178 0
M  V30 891 O 79.1783 1.9338 -0.313187 0
M  V30 892 H 77.7583 0.106632 -0.73935 0
M  V30 893 H 80.4203 -0.438184 -1.8991 0
M  V30 894 H 79.5163 0.537972 -3.07428 0
M  V30 895 N 79.8174 1.5752 -0.0501392 0
M  V30 896 C 81.0944 1.83996 0.663685 0
M  V30 897 C 81.4744 0.938339 1.89099 0
M  V30 898 O 80.8224 -0.00087759 2.285 0
M  V30 899 C 81.0324 3.33702 1.02196 0
M  V30 900 C 82.3804 4.00691 1.40469 0
M  V30 901 O 83.4044 3.38321 1.11433 0
M  V30 902 O 82.2634 5.10658 1.94654 0
M  V30 903 H 79.3574 0.759385 0.32751 0
M  V30 904 H 81.9034 1.69514 -0.0794238 0
M  V30 905 H 80.6754 3.91015 0.149364 0
M  V30 906 H 80.2984 3.53368 1.82255 0
M  V30 907 N 81.2955 -0.223234 1.56011 0
M  V30 908 C 82.2285 -1.30377 1.87289 0
M  V30 909 C 83.2065 -1.45286 0.730112 0
M  V30 910 O 84.3905 -1.61126 0.978302 0
M  V30 911 C 81.5175 -2.67431 2.07843 0
M  V30 912 C 80.5635 -2.69546 3.30526 0
M  V30 913 S 81.3965 -2.23781 4.865 0
M  V30 914 C 82.5525 -3.62714 5.10088 0
M  V30 915 H 82.7855 -1.03652 2.78646 0
M  V30 916 H 80.3185 -0.425393 1.48424 0
M  V30 917 H 82.2765 -3.46336 2.20368 0
M  V30 918 H 80.9375 -2.91381 1.17285 0
M  V30 919 H 80.1305 -3.70255 3.41947 0
M  V30 920 H 79.7325 -1.98703 3.16849 0
M  V30 921 H 82.0245 -4.58391 4.98883 0
M  V30 922 H 82.9675 -3.5621 6.11981 0
M  V30 923 H 83.3755 -3.56323 4.37829 0
M  V30 924 N 82.7736 -1.49793 -0.48987 0
M  V30 925 C 84.0196 -1.60078 -1.24511 0
M  V30 926 C 84.3526 -0.291608 -1.91998 0
M  V30 927 O 83.6276 0.705647 -1.81248 0
M  V30 928 C 83.9106 -2.76791 -2.30345 0
M  V30 929 C 83.7636 -4.17535 -1.67286 0
M  V30 930 C 85.0826 -2.89111 -3.31817 0
M  V30 931 H 82.2016 -0.582645 -0.451324 0
M  V30 932 H 84.8436 -1.82117 -0.541612 0
M  V30 933 H 82.9936 -2.5813 -2.90346 0
M  V30 934 H 84.6656 -4.4774 -1.11026 0
M  V30 935 H 82.9086 -4.22665 -0.976577 0
M  V30 936 H 83.5796 -4.95094 -2.44103 0
M  V30 937 H 86.0556 -3.06133 -2.81819 0
M  V30 938 H 84.9316 -3.72433 -4.03219 0
M  V30 939 H 85.1926 -1.9893 -3.94815 0
M  V30 940 N 84.2517 0.741722 -1.39055 0
M  V30 941 C 85.5287 1.49252 -1.26425 0
M  V30 942 C 85.9087 2.10705 0.129144 0
M  V30 943 O 85.2567 1.98045 1.13976 0
M  V30 944 C 85.4667 2.54934 -2.38347 0
M  V30 945 C 86.8147 3.21506 -2.77343 0
M  V30 946 O 87.8387 2.65245 -2.37747 0
M  V30 947 O 86.6977 4.23294 -3.45665 0
M  V30 948 H 83.7917 0.662451 -0.495064 0
M  V30 949 H 86.3377 0.776121 -1.50912 0
M  V30 950 H 85.1097 2.07857 -3.31529 0
M  V30 951 H 84.7327 3.34141 -2.15489 0
M  V30 952 N 85.7298 1.2412 0.971189 0
M  V30 953 C 86.6598 1.05508 2.08304 0
M  V30 954 C 87.6408 -0.0308864 1.70072 0
M  V30 955 O 88.8258 0.135521 1.93727 0
M  V30 956 C 85.9558 0.655365 3.4106 0
M  V30 957 C 84.9098 1.68971 3.93234 0
M  V30 958 C 84.2358 1.14516 5.22293 0
M  V30 959 C 85.5358 3.08487 4.21465 0
M  V30 960 H 87.2298 1.98507 2.24132 0
M  V30 961 H 84.7758 0.955821 1.07704 0
M  V30 962 H 86.7288 0.51217 4.18276 0
M  V30 963 H 85.4528 -0.31032 3.25122 0
M  V30 964 H 84.1118 1.82106 3.18171 0
M  V30 965 H 83.7598 0.170189 5.02712 0
M  V30 966 H 83.4598 1.83635 5.58168 0
M  V30 967 H 84.9838 1.01401 6.02121 0
M  V30 968 H 86.3978 2.98601 4.89398 0
M  V30 969 H 84.7948 3.74926 4.68562 0
M  V30 970 H 85.8648 3.56787 3.28376 0
M  V30 971 N 87.2079 -1.17134 1.05439 0
M  V30 972 C 88.6189 -1.69084 0.791676 0
M  V30 973 C 88.9699 -1.83822 -0.685839 0
M  V30 974 O 88.0949 -1.52757 -1.53278 0
M  V30 975 C 88.6899 -3.07119 1.4305 0
M  V30 976 C 87.2489 -3.56225 1.21577 0
M  V30 977 C 86.3959 -2.32421 1.51247 0
M  V30 978 H 89.3469 -1.01617 1.219 0
M  V30 979 H 89.3679 -3.71087 0.84112 0
M  V30 980 H 88.8799 -2.9636 2.50584 0
M  V30 981 H 86.9809 -3.72257 0.159787 0
M  V30 982 H 87.0939 -4.38837 1.92246 0
M  V30 983 H 85.4579 -2.3701 0.932653 0
M  V30 984 H 86.2409 -2.24268 2.5992 0
M  V30 985 N 88.686 -0.835752 -1.33615 0
M  V30 986 C 90.102 -0.523139 -1.50783 0
M  V30 987 C 90.302 0.950171 -1.77691 0
M  V30 988 O 89.358 1.73411 -1.83534 0
M  V30 989 C 90.671 -1.39378 -2.66448 0
M  V30 990 C 92.219 -1.39223 -2.80332 0
M  V30 991 C 92.694 -2.24765 -3.99055 0
M  V30 992 N 94.185 -2.22458 -4.06284 0
M  V30 993 C 94.92 -2.85386 -4.97336 0
M  V30 994 N 94.416 -3.57354 -5.93523 0
M  V30 995 N 96.209 -2.74872 -4.90308 0
M  V30 996 H 88.36 -1.78952 -1.14411 0
M  V30 997 H 90.623 -0.763297 -0.562212 0
M  V30 998 H 90.329 -2.44061 -2.53234 0
M  V30 999 H 90.203 -1.0676 -3.61776 0
M  V30 1000 H 92.59 -0.353136 -2.92979 0
M  V30 1001 H 92.671 -1.75846 -1.85773 0
M  V30 1002 H 92.315 -3.28732 -3.87167 0
M  V30 1003 H 92.245 -1.85485 -4.92852 0
M  V30 1004 H 94.736 -1.70119 -3.37443 0
M  V30 1005 H 95.049 -4.02584 -6.59656 0
M  V30 1006 H 93.394 -3.61461 -5.93608 0
M  V30 1007 H 96.585 -2.18213 -4.14126 0
M  V30 1008 H 96.758 -3.24199 -5.61069 0
M  V30 1009 N 90.1641 1.46063 -0.591896 0
M  V30 1010 C 91.5751 1.85944 -0.167822 0
M  V30 1011 C 91.9261 1.49429 1.27143 0
M  V30 1012 O 91.0511 0.913515 1.96173 0
M  V30 1013 C 91.6461 3.37489 -0.297794 0
M  V30 1014 C 90.2051 3.76332 0.0714732 0
M  V30 1015 C 89.3521 2.7006 -0.629509 0
M  V30 1016 H 92.3031 1.37087 -0.799555 0
M  V30 1017 H 92.3241 3.77532 0.474349 0
M  V30 1018 H 91.8361 3.64034 -1.3454 0
M  V30 1019 H 89.9371 3.55405 1.11886 0
M  V30 1020 H 90.0501 4.78088 -0.311245 0
M  V30 1021 H 88.4141 2.54607 -0.0687867 0
M  V30 1022 H 89.1971 2.99444 -1.67894 0
M  V30 1023 N 91.6422 0.330177 1.54103 0
M  V30 1024 C 92.8672 -0.274893 2.0557 0
M  V30 1025 C 93.2922 -1.44487 1.20437 0
M  V30 1026 O 92.6502 -1.80021 0.214991 0
M  V30 1027 C 92.6982 -0.68079 3.54115 0
M  V30 1028 O 91.8022 -1.7824 3.71893 0
M  V30 1029 H 91.1432 -0.0483849 0.662235 0
M  V30 1030 H 93.6732 0.480508 1.98878 0
M  V30 1031 H 93.6832 -0.961635 3.96505 0
M  V30 1032 H 92.3582 0.174903 4.15532 0
M  V30 1033 H 90.9352 -1.49985 3.41407 0
M  V30 1034 N 93.1203 -1.57491 0.0584922 0
M  V30 1035 C 94.3603 -1.94851 -0.617458 0
M  V30 1036 C 94.7243 -0.937165 -1.67575 0
M  V30 1037 O 95.9253 -1.19795 -2.40629 0
M  V30 1038 C 94.1963 -3.36955 -1.19147 0
M  V30 1039 S 95.7553 -3.96277 -1.8844 0
M  V30 1040 H 92.5733 -0.681539 -0.202547 0
M  V30 1041 H 95.1753 -1.95073 0.129176 0
M  V30 1042 H 93.8793 -4.08355 -0.409215 0
M  V30 1043 H 93.4103 -3.40245 -1.97476 0
M  V30 1044 H 95.4253 -3.82099 -3.16568 0
M  V30 1045 N 94.5984 0.214957 -1.56127 0
M  V30 1046 C 95.8444 0.939762 -1.79712 0
M  V30 1047 C 96.1774 1.83723 -0.629247 0
M  V30 1048 O 95.4524 1.90925 0.371197 0
M  V30 1049 C 95.7354 1.77306 -3.13424 0
M  V30 1050 C 95.5884 0.90164 -4.40671 0
M  V30 1051 C 96.9074 2.74956 -3.43638 0
M  V30 1052 H 94.0264 0.340214 -0.653776 0
M  V30 1053 H 96.6684 0.20824 -1.88855 0
M  V30 1054 H 94.8184 2.39673 -3.0576 0
M  V30 1055 H 96.4904 0.294206 -4.60361 0
M  V30 1056 H 94.7334 0.207368 -4.33304 0
M  V30 1057 H 95.4044 1.51923 -5.30682 0
M  V30 1058 H 97.8804 2.22724 -3.51473 0
M  V30 1059 H 96.7564 3.30358 -4.38355 0
M  V30 1060 H 97.0174 3.53023 -2.66134 0
M  V30 1061 N 96.0765 1.50051 0.48192 0
M  V30 1062 C 97.3045 1.64237 1.25832 0
M  V30 1063 C 97.7195 0.321336 1.86045 0
M  V30 1064 O 97.0765 -0.695478 1.68729 0
M  V30 1065 C 97.1275 2.72548 2.37487 0
M  V30 1066 O 96.8485 3.99529 1.79745 0
M  V30 1067 C 98.3495 2.9761 3.28547 0
M  V30 1068 H 95.5695 0.55237 0.380957 0
M  V30 1069 H 98.1135 1.96207 0.576467 0
M  V30 1070 H 96.2685 2.43303 3.01467 0
M  V30 1071 H 96.6825 4.59342 2.5319 0
M  V30 1072 H 98.1565 3.77084 4.03127 0
M  V30 1073 H 98.6335 2.0826 3.86684 0
M  V30 1074 H 99.2395 3.28345 2.70314 0
M  V30 1075 N 97.5546 -0.734337 1.39446 0
M  V30 1076 C 98.4846 -1.86155 1.40955 0
M  V30 1077 C 99.4656 -1.67898 0.272827 0
M  V30 1078 O 100.651 -1.88207 0.478743 0
M  V30 1079 C 97.7806 -3.23912 1.25294 0
M  V30 1080 C 96.7346 -3.56808 2.36373 0
M  V30 1081 C 96.0606 -4.93508 2.058 0
M  V30 1082 C 97.3606 -3.59713 3.78687 0
M  V30 1083 H 99.0546 -1.8515 2.35287 0
M  V30 1084 H 96.6006 -0.889367 1.13253 0
M  V30 1085 H 98.5536 -4.02443 1.2497 0
M  V30 1086 H 97.2776 -3.25446 0.274308 0
M  V30 1087 H 95.9366 -2.80606 2.35914 0
M  V30 1088 H 95.5846 -4.91623 1.06374 0
M  V30 1089 H 95.2846 -5.16486 2.80208 0
M  V30 1090 H 96.8086 -5.74396 2.07128 0
M  V30 1091 H 98.2226 -4.2832 3.81071 0
M  V30 1092 H 96.6196 -3.94209 4.52459 0
M  V30 1093 H 97.6896 -2.59504 4.09617 0
M  V30 1094 N 99.0327 -1.24633 -0.964593 0
M  V30 1095 C 100.281 -1.08573 -1.70459 0
M  V30 1096 C 100.602 0.375655 -1.91347 0
M  V30 1097 O 99.8717 1.26779 -1.49345 0
M  V30 1098 H 98.4517 -0.398784 -0.631649 0
M  V30 1099 H 101.114 -1.56601 -1.16026 0
M  V30 1100 H 100.21 -1.58623 -2.68785 0
M  V30 1101 N 100.511 1.16574 -1.06058 0
M  V30 1102 C 101.757 1.87324 -0.777022 0
M  V30 1103 C 102.09 1.81351 0.694645 0
M  V30 1104 O 101.365 1.22753 1.50871 0
M  V30 1105 C 101.648 3.36991 -1.26922 0
M  V30 1106 C 101.501 3.51667 -2.80447 0
M  V30 1107 C 102.82 4.3131 -0.87521 0
M  V30 1108 H 99.9388 0.680191 -0.28374 0
M  V30 1109 H 102.581 1.37036 -1.3161 0
M  V30 1110 H 100.731 3.79949 -0.81063 0
M  V30 1111 H 102.403 3.17664 -3.34495 0
M  V30 1112 H 100.646 2.93656 -3.19294 0
M  V30 1113 H 101.317 4.56766 -3.0995 0
M  V30 1114 H 103.793 3.9624 -1.27014 0
M  V30 1115 H 102.669 5.34545 -1.2471 0
M  V30 1116 H 102.93 4.41552 0.220071 0
M  V30 1117 N 101.989 0.842826 1.3317 0
M  V30 1118 C 103.4 0.496651 1.79973 0
M  V30 1119 C 103.751 -0.984641 1.69703 0
M  V30 1120 O 102.876 -1.76743 1.24863 0
M  V30 1121 C 103.471 0.894727 3.26772 0
M  V30 1122 C 102.03 0.600629 3.71577 0
M  V30 1123 C 101.177 1.10091 2.5451 0
M  V30 1124 H 104.128 1.03116 1.20635 0
M  V30 1125 H 104.149 0.206347 3.7994 0
M  V30 1126 H 103.661 1.97287 3.34215 0
M  V30 1127 H 101.762 -0.467284 3.69658 0
M  V30 1128 H 101.875 1.15863 4.64879 0
M  V30 1129 H 100.239 0.52162 2.49301 0
M  V30 1130 H 101.022 2.18591 2.64713 0
M  V30 1131 N 103.467 -1.45747 0.599634 0
M  V30 1132 C 104.397 -2.33235 -0.111306 0
M  V30 1133 C 105.378 -1.46359 -0.866781 0
M  V30 1134 O 106.563 -1.75146 -0.838904 0
M  V30 1135 C 103.693 -3.28932 -1.11451 0
M  V30 1136 C 102.647 -4.25381 -0.472772 0
M  V30 1137 C 101.973 -5.1071 -1.58365 0
M  V30 1138 C 103.273 -5.18831 0.600948 0
M  V30 1139 H 104.967 -2.92927 0.61919 0
M  V30 1140 H 102.513 -1.40857 0.299215 0
M  V30 1141 H 104.466 -3.89002 -1.62036 0
M  V30 1142 H 103.19 -2.67381 -1.8755 0
M  V30 1143 H 101.849 -3.66598 0.0121472 0
M  V30 1144 H 101.497 -4.45533 -2.33473 0
M  V30 1145 H 101.197 -5.7604 -1.15982 0
M  V30 1146 H 102.721 -5.73647 -2.09194 0
M  V30 1147 H 104.135 -5.73019 0.179491 0
M  V30 1148 H 102.532 -5.92595 0.946076 0
M  V30 1149 H 103.602 -4.6174 1.48068 0
M  V30 1150 N 104.945 -0.338344 -1.53925 0
M  V30 1151 C 106.192 0.259758 -2.00827 0
M  V30 1152 C 106.52 1.50973 -1.22628 0
M  V30 1153 O 105.775 1.93379 -0.300509 0
M  V30 1154 C 106.074 0.62448 -3.51902 0
M  V30 1155 C 105.74 -0.528006 -4.47798 0
M  V30 1156 C 104.402 -0.844298 -4.73735 0
M  V30 1157 C 106.754 -1.30143 -5.0469 0
M  V30 1158 C 104.082 -1.93648 -5.53821 0
M  V30 1159 C 106.434 -2.38382 -5.85967 0
M  V30 1160 C 105.098 -2.70576 -6.10201 0
M  V30 1161 H 104.368 0.0950523 -0.734878 0
M  V30 1162 H 107.015 -0.465182 -1.85764 0
M  V30 1163 H 105.32 1.43006 -3.64769 0
M  V30 1164 H 107.017 1.09905 -3.85645 0
M  V30 1165 H 103.607 -0.271421 -4.2774 0
M  V30 1166 H 107.791 -1.07033 -4.84621 0
M  V30 1167 H 103.047 -2.19021 -5.70824 0
M  V30 1168 H 107.221 -2.98746 -6.29066 0
M  V30 1169 H 104.848 -3.55333 -6.72044 0
M  V30 1170 N 106.423 1.57458 -0.0668435 0
M  V30 1171 C 107.648 1.9804 0.616027 0
M  V30 1172 C 108.073 0.944771 1.62652 0
M  V30 1173 O 107.431 -0.0902094 1.81075 0
M  V30 1174 C 107.479 3.37665 1.26549 0
M  V30 1175 O 106.583 3.36701 2.38131 0
M  V30 1176 H 105.924 0.644719 0.158849 0
M  V30 1177 H 108.454 2.04121 -0.139891 0
M  V30 1178 H 108.464 3.7474 1.6135 0
M  V30 1179 H 107.139 4.12573 0.525016 0
M  V30 1180 H 105.716 3.1139 2.0516 0
M  V30 1181 N 107.901 -0.206675 1.56239 0
M  V30 1182 C 108.851 -1.26 1.90021 0
M  V30 1183 C 109.835 -1.41566 0.764721 0
M  V30 1184 O 111.027 -1.44131 1.02739 0
M  V30 1185 C 108.156 -2.6073 2.23326 0
M  V30 1186 C 107.242 -2.49005 3.43304 0
M  V30 1187 N 107.633 -2.06946 4.61527 0
M  V30 1188 C 105.931 -2.79927 3.47213 0
M  V30 1189 C 106.632 -2.06832 5.43687 0
M  V30 1190 N 105.608 -2.47892 4.83788 0
M  V30 1191 H 109.41 -0.925955 2.78932 0
M  V30 1192 H 106.924 -0.415172 1.57003 0
M  V30 1193 H 108.921 -3.36798 2.45708 0
M  V30 1194 H 107.581 -2.94968 1.35735 0
M  V30 1195 H 108.592 -1.77839 4.86409 0
M  V30 1196 H 105.269 -3.18438 2.70006 0
M  V30 1197 H 106.659 -1.76312 6.48354 0
M  V30 1198 N 109.379 -1.50304 -0.473955 0
M  V30 1199 C 110.309 -1.71886 -1.58042 0
M  V30 1200 C 111.29 -0.567799 -1.60344 0
M  V30 1201 O 112.475 -0.806623 -1.76656 0
M  V30 1202 C 109.605 -1.81036 -2.96384 0
M  V30 1203 C 108.559 -2.962 -3.08949 0
M  V30 1204 C 107.885 -2.9049 -4.48909 0
M  V30 1205 C 109.185 -4.36752 -2.86434 0
M  V30 1206 H 110.879 -2.64527 -1.40234 0
M  V30 1207 H 108.425 -1.27295 -0.673201 0
M  V30 1208 H 110.378 -1.94719 -3.73714 0
M  V30 1209 H 109.102 -0.850147 -3.15341 0
M  V30 1210 H 107.761 -2.82164 -2.3405 0
M  V30 1211 H 107.409 -1.92321 -4.64781 0
M  V30 1212 H 107.109 -3.67802 -4.58253 0
M  V30 1213 H 108.633 -3.06218 -5.28264 0
M  V30 1214 H 110.047 -4.5133 -3.53517 0
M  V30 1215 H 108.444 -5.15493 -3.07225 0
M  V30 1216 H 109.514 -4.49321 -1.82316 0
M  V30 1217 N 110.857 0.726932 -1.39834 0
M  V30 1218 C 111.789 1.85147 -1.35104 0
M  V30 1219 C 112.802 1.60736 -0.258392 0
M  V30 1220 O 113.991 1.70821 -0.517931 0
M  V30 1221 C 111.091 3.21332 -1.07697 0
M  V30 1222 C 110.264 3.73033 -2.28396 0
M  V30 1223 C 109.323 4.87802 -1.97322 0
M  V30 1224 O 108.349 5.01043 -2.70083 0
M  V30 1225 N 109.551 5.72768 -0.944273 0
M  V30 1226 H 112.316 1.89706 -2.32017 0
M  V30 1227 H 109.877 0.908006 -1.3404 0
M  V30 1228 H 111.869 3.95691 -0.849144 0
M  V30 1229 H 110.439 3.11992 -0.194909 0
M  V30 1230 H 109.659 2.89934 -2.6708 0
M  V30 1231 H 110.947 4.0431 -3.08887 0
M  V30 1232 H 110.345 5.64669 -0.341427 0
M  V30 1233 H 108.902 6.4716 -0.776346 0
M  V30 1234 N 112.336 1.25143 0.95797 0
M  V30 1235 C 113.284 1.05019 2.07542 0
M  V30 1236 C 114.278 -0.0178751 1.69391 0
M  V30 1237 O 115.484 0.137472 1.79474 0
M  V30 1238 H 111.859 0.32265 0.679265 0
M  V30 1239 H 113.83 1.99759 2.21673 0
M  V30 1240 C 112.579 0.682074 3.40944 0
M  V30 1241 H 111.902 1.49573 3.70767 0
M  V30 1242 H 113.342 0.580945 4.20001 0
M  V30 1243 C 111.801 -0.611608 3.31302 0
M  V30 1244 O 112.331 -1.65465 3.66038 0
M  V30 1245 N 110.537 -0.595982 2.84423 0
M  V30 1246 H 110.084 0.253192 2.56353 0
M  V30 1247 H 110.042 -1.46173 2.78354 0
M  V30 1248 N 113.814 -1.1601 1.06675 0
M  V30 1249 C 114.724 -2.24156 0.692179 0
M  V30 1250 C 115.74 -1.71507 -0.293513 0
M  V30 1251 O 116.916 -2.009 -0.141861 0
M  V30 1252 C 113.981 -3.46587 0.0884131 0
M  V30 1253 C 113.042 -4.14257 1.12646 0
M  V30 1254 C 112.275 -5.30844 0.551416 0
M  V30 1255 O 112.498 -5.66858 -0.634656 0
M  V30 1256 O 111.432 -5.87848 1.29298 0
M  V30 1257 H 115.258 -2.58513 1.59388 0
M  V30 1258 H 112.843 -1.23599 0.83926 0
M  V30 1259 H 114.725 -4.20679 -0.246361 0
M  V30 1260 H 113.4 -3.13994 -0.786712 0
M  V30 1261 H 112.307 -3.42118 1.51348 0
M  V30 1262 H 113.64 -4.50914 1.97325 0
M  V30 1263 N 115.292 -0.849877 -1.32721 0
M  V30 1264 C 116.224 -0.248332 -2.27851 0
M  V30 1265 C 117.237 0.577218 -1.52224 0
M  V30 1266 O 118.426 0.402489 -1.73903 0
M  V30 1267 C 115.526 0.668107 -3.32249 0
M  V30 1268 C 114.699 -0.120534 -4.37234 0
M  V30 1269 C 113.758 0.720932 -5.21238 0
M  V30 1270 O 112.784 0.156166 -5.68986 0
M  V30 1271 N 113.986 2.03647 -5.43607 0
M  V30 1272 H 116.751 -1.06575 -2.80111 0
M  V30 1273 H 114.312 -0.709395 -1.45531 0
M  V30 1274 H 116.304 1.23627 -3.85355 0
M  V30 1275 H 114.874 1.38621 -2.80184 0
M  V30 1276 H 114.094 -0.870108 -3.84477 0
M  V30 1277 H 115.382 -0.662406 -5.0447 0
M  V30 1278 H 114.78 2.51871 -5.06535 0
M  V30 1279 H 113.337 2.55287 -5.99727 0
M  V30 1280 N 116.77 1.45427 -0.607355 0
M  V30 1281 C 118.016 2.03097 -0.111035 0
M  V30 1282 C 118.371 1.46735 1.24445 0
M  V30 1283 O 117.664 0.632478 1.8086 0
M  V30 1284 C 117.858 3.57398 -0.0129263 0
M  V30 1285 C 117.687 4.28726 -1.35735 0
M  V30 1286 C 116.457 4.66659 -1.93798 0
M  V30 1287 C 118.655 4.60699 -2.28607 0
M  V30 1288 N 116.637 5.22845 -3.21723 0
M  V30 1289 C 118.008 5.17716 -3.41131 0
M  V30 1290 C 120.063 4.42638 -2.27982 0
M  V30 1291 C 118.766 5.58576 -4.53194 0
M  V30 1292 C 120.792 4.84531 -3.39093 0
M  V30 1293 C 120.154 5.4164 -4.50339 0
M  V30 1294 H 116.253 0.777476 -0.083994 0
M  V30 1295 H 118.837 1.77249 -0.805655 0
M  V30 1296 H 117.008 3.82907 0.650914 0
M  V30 1297 H 118.74 4.01722 0.490033 0
M  V30 1298 H 115.495 4.50207 -1.47007 0
M  V30 1299 H 115.919 5.55438 -3.87063 0
M  V30 1300 H 120.561 3.97798 -1.43235 0
M  V30 1301 H 118.279 6.02382 -5.38667 0
M  V30 1302 H 121.865 4.72289 -3.39757 0
M  V30 1303 H 120.745 5.73461 -5.34895 0
M  V30 1304 N 118.248 0.346503 1.53744 0
M  V30 1305 C 119.494 -0.249473 2.0126 0
M  V30 1306 C 119.827 -1.49965 1.23386 0
M  V30 1307 O 119.102 -1.91811 0.32229 0
M  V30 1308 C 119.385 -0.560643 3.55709 0
M  V30 1309 C 119.238 0.701836 4.44291 0
M  V30 1310 C 120.557 -1.36905 4.18264 0
M  V30 1311 H 117.676 -0.0891987 0.731582 0
M  V30 1312 H 120.318 0.467624 1.84156 0
M  V30 1313 H 118.468 -1.17156 3.70414 0
M  V30 1314 H 120.14 1.33974 4.41417 0
M  V30 1315 H 118.383 1.32612 4.13033 0
M  V30 1316 H 119.054 0.43933 5.50249 0
M  V30 1317 H 121.53 -0.852448 4.07275 0
M  V30 1318 H 120.406 -1.55553 5.26398 0
M  V30 1319 H 120.667 -2.37203 3.73078 0
M  V30 1320 N 119.726 -1.57421 0.075193 0
M  V30 1321 C 121.003 -1.85029 -0.634329 0
M  V30 1322 C 121.383 -0.968305 -1.87582 0
M  V30 1323 O 120.731 -0.0354749 -2.28472 0
M  V30 1324 C 120.941 -3.35286 -0.968742 0
M  V30 1325 C 122.289 -4.02875 -1.34077 0
M  V30 1326 O 123.313 -3.40051 -1.06037 0
M  V30 1327 O 122.172 -5.13691 -1.86506 0
M  V30 1328 H 119.266 -0.7645 -0.315387 0
M  V30 1329 H 121.812 -1.69366 0.106382 0
M  V30 1330 H 120.584 -3.91203 -0.0871376 0
M  V30 1331 H 120.207 -3.56223 -1.7661 0
M  V30 1332 N 121.204 0.198386 -1.56346 0
M  V30 1333 C 122.434 0.934215 -1.84271 0
M  V30 1334 C 122.842 1.77496 -0.655125 0
M  V30 1335 O 122.185 1.7961 0.385488 0
M  V30 1336 C 122.247 1.88278 -3.06254 0
M  V30 1337 C 121.911 1.22431 -4.40295 0
M  V30 1338 C 122.908 0.602839 -5.16393 0
M  V30 1339 C 120.593 1.22915 -4.87029 0
M  V30 1340 C 122.587 -0.0050083 -6.374 0
M  V30 1341 C 120.274 0.617465 -6.07973 0
M  V30 1342 C 121.272 0.00146341 -6.83 0
M  V30 1343 O 120.96 -0.600642 -8.01653 0
M  V30 1344 H 120.692 0.278245 -0.616081 0
M  V30 1345 H 123.246 0.211626 -2.04307 0
M  V30 1346 H 121.476 2.64498 -2.82095 0
M  V30 1347 H 123.165 2.48612 -3.20853 0
M  V30 1348 H 123.931 0.591265 -4.81382 0
M  V30 1349 H 119.81 1.69801 -4.28589 0
M  V30 1350 H 123.354 -0.48643 -6.95902 0
M  V30 1351 H 119.251 0.62653 -6.42452 0
M  V30 1352 H 120.019 -0.497225 -8.16988 0
M  V30 1353 N 122.682 1.50554 0.465978 0
M  V30 1354 C 123.63 1.70324 1.58406 0
M  V30 1355 C 124.624 0.569139 1.59553 0
M  V30 1356 O 125.83 0.749776 1.63641 0
M  V30 1357 H 122.205 0.537688 0.525734 0
M  V30 1358 H 124.176 2.64104 1.38894 0
M  V30 1359 C 122.925 1.81928 2.96307 0
M  V30 1360 H 122.248 2.68586 2.96144 0
M  V30 1361 H 123.688 1.99784 3.73982 0
M  V30 1362 C 122.147 0.572095 3.32007 0
M  V30 1363 O 122.677 -0.286416 4.00678 0
M  V30 1364 N 120.883 0.424606 2.87481 0
M  V30 1365 H 120.43 1.12427 2.31771 0
M  V30 1366 H 120.388 -0.408697 3.11732 0
M  V30 1367 N 124.16 -0.719506 1.40217 0
M  V30 1368 C 125.09 -1.8465 1.42922 0
M  V30 1369 C 126.071 -1.67599 0.29062 0
M  V30 1370 O 127.256 -1.87688 0.498677 0
M  V30 1371 C 124.386 -3.22565 1.28722 0
M  V30 1372 C 123.34 -3.54281 2.40144 0
M  V30 1373 C 122.666 -4.91298 2.11023 0
M  V30 1374 C 123.966 -3.55676 3.82481 0
M  V30 1375 H 125.66 -1.82644 2.37237 0
M  V30 1376 H 123.206 -0.877305 1.1419 0
M  V30 1377 H 125.159 -4.01095 1.29232 0
M  V30 1378 H 123.883 -3.25137 0.308811 0
M  V30 1379 H 122.542 -2.78088 2.38877 0
M  V30 1380 H 122.19 -4.90468 1.11582 0
M  V30 1381 H 121.89 -5.13485 2.8567 0
M  V30 1382 H 123.414 -5.72166 2.13209 0
M  V30 1383 H 124.828 -4.24254 3.85592 0
M  V30 1384 H 123.225 -3.89388 4.56614 0
M  V30 1385 H 124.295 -2.55144 4.12346 0
M  V30 1386 N 125.638 -1.25649 -0.95132 0
M  V30 1387 C 126.585 -1.06323 -2.04851 0
M  V30 1388 C 127.555 0.0286491 -1.66075 0
M  V30 1389 O 128.74 -0.12917 -1.90362 0
M  V30 1390 C 125.88 -0.691529 -3.381 0
M  V30 1391 C 124.993 -1.85861 -3.89974 0
M  V30 1392 C 124.128 -1.43096 -5.11563 0
M  V30 1393 C 123.167 -2.56696 -5.55674 0
M  V30 1394 N 122.304 -2.14684 -6.68472 0
M  V30 1395 H 127.144 -2.00222 -2.20715 0
M  V30 1396 H 124.681 -0.997027 -1.08156 0
M  V30 1397 H 126.639 -0.456963 -4.1469 0
M  V30 1398 H 125.269 0.210474 -3.22113 0
M  V30 1399 H 124.321 -2.20639 -3.09875 0
M  V30 1400 H 125.633 -2.71161 -4.18657 0
M  V30 1401 H 124.787 -1.15624 -5.9558 0
M  V30 1402 H 123.526 -0.548722 -4.84603 0
M  V30 1403 H 122.531 -2.84909 -4.7022 0
M  V30 1404 H 123.756 -3.45503 -5.8464 0
M  V30 1405 H 121.702 -1.28881 -6.43215 0
M  V30 1406 H 121.619 -2.9353 -6.96689 0
M  V30 1407 H 122.887 -1.90397 -7.5589 0
M  V30 1408 N 127.117 1.15442 -1.07289 0
M  V30 1409 C 128.363 1.8672 -0.806679 0
M  V30 1410 C 128.718 1.80723 0.660084 0
M  V30 1411 O 128.011 1.21902 1.47819 0
M  V30 1412 C 128.205 3.3489 -1.24834 0
M  V30 1413 C 128.034 3.55313 -2.7565 0
M  V30 1414 C 126.804 3.7082 -3.4325 0
M  V30 1415 C 129.002 3.53188 -3.73848 0
M  V30 1416 N 126.984 3.7929 -4.82713 0
M  V30 1417 C 128.355 3.67765 -4.99149 0
M  V30 1418 C 130.41 3.36459 -3.67015 0
M  V30 1419 C 129.113 3.6734 -6.18428 0
M  V30 1420 C 131.139 3.37333 -4.85758 0
M  V30 1421 C 130.501 3.52438 -6.09891 0
M  V30 1422 H 126.6 0.700433 -0.347733 0
M  V30 1423 H 129.184 1.38441 -1.36902 0
M  V30 1424 H 127.355 3.81786 -0.713713 0
M  V30 1425 H 129.087 3.93875 -0.929745 0
M  V30 1426 H 125.842 3.71568 -2.93656 0
M  V30 1427 H 126.266 3.8727 -5.55294 0
M  V30 1428 H 130.908 3.237 -2.71989 0
M  V30 1429 H 128.626 3.78878 -7.13777 0
M  V30 1430 H 132.212 3.25617 -4.82146 0
M  V30 1431 H 131.092 3.53047 -7.00234 0
M  V30 1432 N 128.595 0.856903 1.32268 0
M  V30 1433 C 129.543 0.291987 2.3076 0
M  V30 1434 C 130.537 -0.585857 1.58947 0
M  V30 1435 O 131.743 -0.47341 1.73663 0
M  V30 1436 H 128.118 0.075721 0.748178 0
M  V30 1437 H 130.089 1.13687 2.75895 0
M  V30 1438 C 128.838 -0.502869 3.44044 0
M  V30 1439 H 128.161 0.163328 3.99466 0
M  V30 1440 H 129.601 -0.863691 4.1511 0
M  V30 1441 C 128.06 -1.68898 2.91505 0
M  V30 1442 O 128.59 -2.78811 2.89184 0
M  V30 1443 N 126.796 -1.51679 2.47875 0
M  V30 1444 H 126.343 -0.622666 2.49961 0
M  V30 1445 H 126.301 -2.31184 2.13076 0
M  V30 1446 N 130.073 -1.45103 0.615059 0
M  V30 1447 C 131.484 -1.85654 0.197383 0
M  V30 1448 C 131.835 -1.51433 -1.24749 0
M  V30 1449 O 130.96 -0.944608 -1.94695 0
M  V30 1450 C 131.555 -3.36972 0.351448 0
M  V30 1451 C 130.114 -3.76398 -0.011593 0
M  V30 1452 C 129.261 -2.69024 0.672394 0
M  V30 1453 H 132.212 -1.35797 0.821263 0
M  V30 1454 H 132.233 -3.78239 -0.414227 0
M  V30 1455 H 131.745 -3.61847 1.40314 0
M  V30 1456 H 129.846 -3.5714 -1.06217 0
M  V30 1457 H 129.959 -4.77532 0.387265 0
M  V30 1458 H 128.323 -2.54465 0.109284 0
M  V30 1459 H 129.106 -2.96735 1.72636 0
M  V30 1460 O 131.59 -0.496846 -1.53667 0
M  V30 1461 H 132.281 0.021856 -1.93688 0
M  V30 END ATOM
M  V30 BEGIN BOND
M  V30 END BOND
M  V30 END CTAB
M  END
$$$$
