drugbank_target|Q13303 Voltage-gated potassium channel subunit beta-2 (DB00228; DB01069; DB01110)
 OpenBabel12092121213D

  0  0  0     0  0            999 V3000
M  V30 BEGIN CTAB
M  V30 COUNTS 5786 5845 0 0 0
M  V30 BEGIN ATOM
M  V30 1 H -0.908 1.98254 -0.117106 0
M  V30 2 N 0 1.576 0 0
M  V30 3 C 0.933 2.03868 1.02534 0
M  V30 4 C 1.911 0.928543 1.3348 0
M  V30 5 O 3.095 1.19667 1.45644 0
M  V30 6 C 0.222 2.43627 2.35294 0
M  V30 7 C -0.732 3.65373 2.2001 0
M  V30 8 S 0.101 5.13292 1.52614 0
M  V30 9 C 1.257 5.56322 2.86805 0
M  V30 10 H 1.49 2.90518 0.631377 0
M  V30 11 H -0.977 1.52953 0.210867 0
M  V30 12 H 0.981 2.67203 3.11629 0
M  V30 13 H -0.358 1.57376 2.7183 0
M  V30 14 H -1.165 3.90944 3.18086 0
M  V30 15 H -1.563 3.418 1.51819 0
M  V30 16 H 0.729 5.58782 3.83104 0
M  V30 17 H 1.672 6.56266 2.65933 0
M  V30 18 H 2.08 4.83886 2.90714 0
M  V30 19 N 1.4781 -0.272755 1.55222 0
M  V30 20 C 2.7081 -1.02107 1.79604 0
M  V30 21 C 3.1161 -1.80419 0.569693 0
M  V30 22 O 2.4591 -1.77566 -0.470743 0
M  V30 23 C 2.5211 -2.02675 2.96922 0
M  V30 24 C 2.1851 -1.43299 4.33952 0
M  V30 25 C 3.1821 -0.84853 5.12929 0
M  V30 26 C 0.8671 -1.46012 4.8061 0
M  V30 27 C 2.8611 -0.299109 6.36698 0
M  V30 28 C 0.5481 -0.906833 6.04334 0
M  V30 29 C 1.5461 -0.32733 6.82215 0
M  V30 30 O 1.2341 0.217479 8.03606 0
M  V30 31 H 0.9661 -0.307322 0.602104 0
M  V30 32 H 3.5201 -0.308862 2.03065 0
M  V30 33 H 1.7501 -2.77656 2.69155 0
M  V30 34 H 3.4391 -2.63637 3.08626 0
M  V30 35 H 4.2051 -0.820265 4.78013 0
M  V30 36 H 0.0841 -1.90056 4.2 0
M  V30 37 H 3.6281 0.153852 6.9743 0
M  V30 38 H -0.4749 -0.932339 6.38731 0
M  V30 39 H 0.2931 0.106863 8.1843 0
M  V30 40 N 2.9562 -1.48159 -0.537278 0
M  V30 41 C 4.3672 -1.49429 -1.11928 0
M  V30 42 C 4.7182 -0.26 -1.9447 0
M  V30 43 O 3.8432 0.633489 -2.0692 0
M  V30 44 C 4.4382 -2.70758 -2.03656 0
M  V30 45 C 2.9972 -2.74923 -2.57088 0
M  V30 46 C 2.1442 -2.42835 -1.3389 0
M  V30 47 H 5.0952 -1.55381 -0.322886 0
M  V30 48 H 5.1162 -2.48861 -2.87834 0
M  V30 49 H 4.6282 -3.60575 -1.43553 0
M  V30 50 H 2.7292 -1.89296 -3.20933 0
M  V30 51 H 2.8422 -3.76157 -2.9672 0
M  V30 52 H 1.2062 -1.93836 -1.65226 0
M  V30 53 H 1.9892 -3.34884 -0.755504 0
M  V30 54 N 4.4343 0.785586 -1.36625 0
M  V30 55 C 5.3443 1.92964 -1.33425 0
M  V30 56 C 6.3603 1.72394 -0.235851 0
M  V30 57 O 7.5363 1.95866 -0.468878 0
M  V30 58 C 4.6013 3.27884 -1.12662 0
M  V30 59 C 3.6623 3.61204 -2.32013 0
M  V30 60 C 2.8953 4.89687 -2.12231 0
M  V30 61 O 3.1183 5.59704 -1.09945 0
M  V30 62 O 2.0523 5.21752 -3.00098 0
M  V30 63 H 5.8783 1.98613 -2.29753 0
M  V30 64 H 3.4633 0.926384 -1.17211 0
M  V30 65 H 5.3453 4.08614 -1.03016 0
M  V30 66 H 4.0203 3.23118 -0.193991 0
M  V30 67 H 2.9273 2.80765 -2.47228 0
M  V30 68 H 4.2603 3.70698 -3.23796 0
M  V30 69 N 5.9124 1.20967 1.01018 0
M  V30 70 C 7.1374 1.0503 1.78839 0
M  V30 71 C 7.5624 -0.395752 1.8389 0
M  V30 72 O 6.9204 -1.28529 1.27867 0
M  V30 73 C 6.9684 1.64602 3.2084 0
M  V30 74 O 6.0724 0.887988 4.02726 0
M  V30 75 H 5.4134 0.369987 0.551367 0
M  V30 76 H 7.9434 1.60399 1.27018 0
M  V30 77 H 7.9534 1.68607 3.71532 0
M  V30 78 H 6.6284 2.69841 3.16479 0
M  V30 79 H 5.2054 0.922648 3.61305 0
M  V30 80 N 7.3905 -1.2043 1.01659 0
M  V30 81 C 8.6185 -1.93777 0.725132 0
M  V30 82 C 9.0335 -1.74772 -0.714166 0
M  V30 83 O 8.3905 -1.06169 -1.4844 0
M  V30 84 C 8.4415 -3.45876 1.05129 0
M  V30 85 O 8.1625 -3.6426 2.43406 0
M  V30 86 C 9.6635 -4.36368 0.780891 0
M  V30 87 H 6.8835 -0.615901 0.266284 0
M  V30 88 H 9.4275 -1.52922 1.35776 0
M  V30 89 H 7.5825 -3.8461 0.464065 0
M  V30 90 H 7.9965 -4.58246 2.55169 0
M  V30 91 H 9.4705 -5.41743 1.05918 0
M  V30 92 H 9.9475 -4.38275 -0.284937 0
M  V30 93 H 10.5535 -4.03296 1.35027 0
M  V30 94 N 8.8686 -0.792821 -1.36206 0
M  V30 95 C 10.0966 -0.378825 -2.03402 0
M  V30 96 C 10.5116 1.00586 -1.59774 0
M  V30 97 O 9.8686 1.64574 -0.788764 0
M  V30 98 C 9.9196 -0.43683 -3.58851 0
M  V30 99 O 9.6406 -1.76691 -4.00889 0
M  V30 100 C 11.1416 -0.0138943 -4.43298 0
M  V30 101 H 8.3616 -0.155673 -0.652692 0
M  V30 102 H 10.9056 -1.07261 -1.74113 0
M  V30 103 H 9.0606 0.208575 -3.86838 0
M  V30 104 H 9.4746 -1.72011 -4.95492 0
M  V30 105 H 10.9486 -0.105615 -5.51899 0
M  V30 106 H 11.4256 1.03915 -4.2673 0
M  V30 107 H 12.0316 -0.63192 -4.20579 0
M  V30 108 N 10.3467 1.47872 -0.545128 0
M  V30 109 C 11.5947 2.02093 -0.016553 0
M  V30 110 C 11.9157 1.42305 1.3332 0
M  V30 111 O 11.1857 0.593853 1.86682 0
M  V30 112 H 9.7657 0.746993 -0.00313038 0
M  V30 113 H 12.4277 1.81414 -0.712397 0
M  V30 114 H 11.5237 3.11996 0.0805422 0
M  V30 115 N 11.8248 0.280983 1.55075 0
M  V30 116 C 13.0498 -0.340154 2.04592 0
M  V30 117 C 13.4748 -1.48246 1.15779 0
M  V30 118 O 12.8328 -1.80614 0.15761 0
M  V30 119 C 12.8808 -0.793104 3.5177 0
M  V30 120 O 11.9848 -1.89981 3.66034 0
M  V30 121 H 11.3258 -0.0694289 0.66036 0
M  V30 122 H 13.8558 0.416993 2.00306 0
M  V30 123 H 13.8658 -1.08729 3.93245 0
M  V30 124 H 12.5408 0.0426163 4.15878 0
M  V30 125 H 11.1178 -1.60771 3.36463 0
M  V30 126 N 13.3029 -1.57598 0.00835791 0
M  V30 127 C 14.7139 -1.7892 -0.53333 0
M  V30 128 C 15.0649 -0.916609 -1.73473 0
M  V30 129 O 14.1899 -0.121336 -2.1606 0
M  V30 130 C 14.7849 -3.24488 -0.974313 0
M  V30 131 C 13.3439 -3.46878 -1.46125 0
M  V30 132 C 12.4909 -2.74157 -0.416302 0
M  V30 133 H 15.4419 -1.56958 0.234495 0
M  V30 134 H 15.4629 -3.3306 -1.83988 0
M  V30 135 H 14.9749 -3.87972 -0.099718 0
M  V30 136 H 13.0759 -2.8862 -2.35646 0
M  V30 137 H 13.1889 -4.55572 -1.48295 0
M  V30 138 H 11.5529 -2.39022 -0.87981 0
M  V30 139 H 12.3359 -3.40345 0.44947 0
M  V30 140 N 14.781 0.264519 -1.55364 0
M  V30 141 C 15.744 1.31046 -1.88042 0
M  V30 142 C 16.744 1.41943 -0.755569 0
M  V30 143 O 17.934 1.40947 -1.02369 0
M  V30 144 C 15.066 2.69067 -2.09323 0
M  V30 145 H 16.259 1.03297 -2.81549 0
M  V30 146 H 13.812 0.502989 -1.47986 0
M  V30 147 H 14.547 3.01982 -1.18226 0
M  V30 148 H 14.332 2.62542 -2.91229 0
M  V30 149 H 15.822 3.44623 -2.35848 0
M  V30 150 N 16.2591 1.48442 0.529413 0
M  V30 151 C 17.6751 1.34575 0.858004 0
M  V30 152 C 17.8751 0.3572 1.98309 0
M  V30 153 O 16.9311 -0.221379 2.51528 0
M  V30 154 C 18.2441 2.74617 1.22499 0
M  V30 155 C 19.7921 2.83109 1.33484 0
M  V30 156 C 20.2671 4.23854 1.73526 0
M  V30 157 N 21.7581 4.2653 1.80628 0
M  V30 158 C 22.4931 5.32372 2.12997 0
M  V30 159 N 21.9891 6.48491 2.43786 0
M  V30 160 N 23.7821 5.19766 2.14008 0
M  V30 161 H 15.9331 2.1133 -0.212925 0
M  V30 162 H 18.1961 0.947439 -0.0326199 0
M  V30 163 H 17.9021 3.4852 0.471905 0
M  V30 164 H 17.7761 3.08177 2.17501 0
M  V30 165 H 20.1631 2.09462 2.0787 0
M  V30 166 H 20.2441 2.53168 0.366027 0
M  V30 167 H 19.8881 4.98018 0.997013 0
M  V30 168 H 19.8181 4.5124 2.71459 0
M  V30 169 H 22.3091 3.42772 1.59108 0
M  V30 170 H 22.6221 7.24993 2.67592 0
M  V30 171 H 20.9671 6.51765 2.41304 0
M  V30 172 H 24.1581 4.28066 1.89412 0
M  V30 173 H 24.3311 6.02354 2.38902 0
M  V30 174 N 17.7372 -0.778329 1.37039 0
M  V30 175 C 18.6672 -1.90546 1.34962 0
M  V30 176 C 19.6482 -1.68681 0.219274 0
M  V30 177 O 20.8332 -1.89634 0.418624 0
M  V30 178 C 17.9632 -3.27734 1.14925 0
M  V30 179 C 16.9172 -3.64147 2.24902 0
M  V30 180 C 16.2432 -4.99806 1.89996 0
M  V30 181 C 17.5432 -3.71579 3.67051 0
M  V30 182 H 19.2372 -1.92541 2.29277 0
M  V30 183 H 16.7832 -0.924948 1.10366 0
M  V30 184 H 18.7362 -4.06215 1.12104 0
M  V30 185 H 17.4602 -3.26154 0.170631 0
M  V30 186 H 16.1192 -2.8797 2.26868 0
M  V30 187 H 15.7672 -4.94759 0.906796 0
M  V30 188 H 15.4672 -5.25139 2.63634 0
M  V30 189 H 16.9912 -5.80694 1.88749 0
M  V30 190 H 18.4052 -4.40227 3.67251 0
M  V30 191 H 16.8022 -4.08405 4.39688 0
M  V30 192 H 17.8722 -2.72404 4.01154 0
M  V30 193 N 19.2153 -1.21501 -1.00376 0
M  V30 194 C 20.4403 -1.05977 -1.78279 0
M  V30 195 C 20.8653 0.385994 -1.84097 0
M  V30 196 O 20.2233 1.27849 -1.28547 0
M  V30 197 C 20.2713 -1.66302 -3.19963 0
M  V30 198 O 19.3753 -0.909333 -4.0225 0
M  V30 199 H 18.7163 -0.372906 -0.549397 0
M  V30 200 H 21.2463 -1.6107 -1.26165 0
M  V30 201 H 21.2563 -1.70574 -3.70632 0
M  V30 202 H 19.9313 -2.71515 -3.15043 0
M  V30 203 H 18.5083 -0.941795 -3.60811 0
M  V30 204 N 20.6934 1.19889 -1.02296 0
M  V30 205 C 21.6234 2.25141 -0.619174 0
M  V30 206 C 22.6044 1.66051 0.368915 0
M  V30 207 O 23.7894 1.92546 0.252941 0
M  V30 208 C 20.9194 3.4728 0.0368783 0
M  V30 209 C 19.8734 4.19005 -0.872865 0
M  V30 210 C 19.1994 5.34637 -0.0822402 0
M  V30 211 C 20.4994 4.74452 -2.18387 0
M  V30 212 H 22.1934 2.59171 -1.49903 0
M  V30 213 H 19.7394 1.24579 -0.722222 0
M  V30 214 H 21.6924 4.20098 0.330958 0
M  V30 215 H 20.4164 3.12433 0.95149 0
M  V30 216 H 19.0754 3.48061 -1.15105 0
M  V30 217 H 18.7234 4.96034 0.83422 0
M  V30 218 H 18.4234 5.83557 -0.688149 0
M  V30 219 H 19.9474 6.10255 0.205238 0
M  V30 220 H 21.3614 5.39055 -1.95172 0
M  V30 221 H 19.7584 5.33834 -2.74119 0
M  V30 222 H 20.8284 3.92844 -2.84257 0
M  V30 223 N 22.1715 0.800033 1.35784 0
M  V30 224 C 23.5875 0.482977 1.52117 0
M  V30 225 C 23.7875 -0.996948 1.75109 0
M  V30 226 O 22.8435 -1.78216 1.78872 0
M  V30 227 C 24.1565 1.32264 2.70049 0
M  V30 228 C 25.7045 1.31742 2.83924 0
M  V30 229 C 26.1795 2.14106 4.04874 0
M  V30 230 N 27.6705 2.11607 4.12039 0
M  V30 231 C 28.4055 2.72099 5.04727 0
M  V30 232 N 27.9015 3.41492 6.02789 0
M  V30 233 N 29.6945 2.61776 4.97423 0
M  V30 234 H 21.8455 1.75856 1.19115 0
M  V30 235 H 24.1085 0.748122 0.582252 0
M  V30 236 H 23.8145 2.37261 2.59616 0
M  V30 237 H 23.6885 0.971303 3.6448 0
M  V30 238 H 26.0755 0.275333 2.93813 0
M  V30 239 H 26.1565 1.70859 1.9037 0
M  V30 240 H 25.8005 3.18351 3.95746 0
M  V30 241 H 25.7305 1.72353 4.97596 0
M  V30 242 H 28.2215 1.61112 3.41835 0
M  V30 243 H 28.5345 3.84953 6.70098 0
M  V30 244 H 26.8795 3.45596 6.02983 0
M  V30 245 H 30.0705 2.07157 4.19766 0
M  V30 246 H 30.2435 3.0921 5.69468 0
M  V30 247 N 23.6496 -1.47581 0.552962 0
M  V30 248 C 24.5816 -2.27997 -0.234533 0
M  V30 249 C 25.5946 -1.36753 -0.883321 0
M  V30 250 O 26.7836 -1.61612 -0.757889 0
M  V30 251 C 23.8836 -3.10879 -1.34935 0
M  V30 252 C 23.0566 -4.30056 -0.798158 0
M  V30 253 C 22.1156 -4.94567 -1.79694 0
M  V30 254 O 21.1416 -5.53087 -1.34474 0
M  V30 255 N 22.3436 -4.88878 -3.13015 0
M  V30 256 H 25.1086 -2.96222 0.455255 0
M  V30 257 H 22.6696 -1.57163 0.388761 0
M  V30 258 H 24.6616 -3.50903 -2.01616 0
M  V30 259 H 23.2316 -2.44924 -1.94244 0
M  V30 260 H 22.4516 -3.94174 0.0453079 0
M  V30 261 H 23.7396 -5.07152 -0.409173 0
M  V30 262 H 23.1376 -4.42526 -3.52402 0
M  V30 263 H 21.6946 -5.32934 -3.75266 0
M  V30 264 N 25.1277 -0.289203 -1.54924 0
M  V30 265 C 26.3557 0.326463 -2.04308 0
M  V30 266 C 26.7707 1.48413 -1.16701 0
M  V30 267 O 26.1277 1.81507 -0.190087 0
M  V30 268 C 26.1787 0.794014 -3.52672 0
M  V30 269 O 25.8997 -0.317564 -4.36948 0
M  V30 270 C 27.4007 1.47605 -4.18004 0
M  V30 271 H 24.6207 0.0726272 -0.667058 0
M  V30 272 H 27.1647 -0.425401 -2.00026 0
M  V30 273 H 25.3197 1.49593 -3.57352 0
M  V30 274 H 25.7337 0.0443186 -5.24481 0
M  V30 275 H 27.2077 1.75447 -5.23376 0
M  V30 276 H 27.6847 2.41224 -3.67025 0
M  V30 277 H 28.2907 0.81762 -4.17367 0
M  V30 278 N 26.6058 1.57591 -0.0167156 0
M  V30 279 C 27.8538 1.90906 0.663285 0
M  V30 280 C 28.1748 0.892509 1.73376 0
M  V30 281 O 27.4448 -0.0677623 1.95783 0
M  V30 282 H 26.0248 0.704637 0.247983 0
M  V30 283 H 28.6868 1.94803 -0.0615909 0
M  V30 284 H 27.7828 2.9116 1.12393 0
M  V30 285 N 28.0839 -0.256276 1.55502 0
M  V30 286 C 29.3089 -1.00766 1.81276 0
M  V30 287 C 29.7339 -1.78524 0.59252 0
M  V30 288 O 29.0919 -1.75413 -0.45827 0
M  V30 289 C 29.1399 -1.92869 3.04687 0
M  V30 290 O 28.2439 -3.019 2.80945 0
M  V30 291 H 27.5849 -0.287224 0.598664 0
M  V30 292 H 30.1149 -0.280109 2.02674 0
M  V30 293 H 30.1249 -2.34511 3.33869 0
M  V30 294 H 28.7999 -1.35689 3.93143 0
M  V30 295 H 27.3769 -2.64454 2.62904 0
M  V30 296 N 29.562 -1.4872 -0.521534 0
M  V30 297 C 30.973 -1.50607 -1.10337 0
M  V30 298 C 31.324 -0.280612 -1.94183 0
M  V30 299 O 30.449 0.611507 -2.0758 0
M  V30 300 C 31.044 -2.72903 -2.00772 0
M  V30 301 C 29.603 -2.77634 -2.54158 0
M  V30 302 C 28.75 -2.44241 -1.31307 0
M  V30 303 H 31.701 -1.55714 -0.306388 0
M  V30 304 H 31.722 -2.519 -2.85178 0
M  V30 305 H 31.234 -3.62077 -1.39721 0
M  V30 306 H 29.335 -1.92689 -3.18907 0
M  V30 307 H 29.448 -3.79283 -2.92714 0
M  V30 308 H 27.812 -1.95577 -1.63161 0
M  V30 309 H 28.595 -3.35666 -0.719943 0
M  V30 310 N 31.0401 0.771051 -1.3745 0
M  V30 311 C 32.2881 1.52661 -1.32435 0
M  V30 312 C 32.6091 1.9479 0.0905024 0
M  V30 313 O 31.8791 1.66348 1.03466 0
M  V30 314 H 30.4591 0.566218 -0.487244 0
M  V30 315 H 33.1211 0.917636 -1.71946 0
M  V30 316 H 32.2171 2.42568 -1.96385 0
M  V30 317 N 32.5182 1.22032 0.997298 0
M  V30 318 C 33.4512 0.929735 2.08401 0
M  V30 319 C 34.4292 -0.125681 1.62114 0
M  V30 320 O 35.6132 0.00495409 1.88499 0
M  V30 321 C 32.7402 0.397488 3.3636 0
M  V30 322 C 31.7862 1.4369 4.01566 0
M  V30 323 S 32.6192 3.00874 4.42984 0
M  V30 324 C 33.7752 2.49276 5.74119 0
M  V30 325 H 34.0082 1.84998 2.32729 0
M  V30 326 H 31.5412 1.0509 1.13117 0
M  V30 327 H 33.4992 0.0969846 4.10385 0
M  V30 328 H 32.1602 -0.501571 3.10069 0
M  V30 329 H 31.3532 1.01427 4.93689 0
M  V30 330 H 30.9552 1.68588 3.33847 0
M  V30 331 H 33.2472 1.90242 6.50242 0
M  V30 332 H 34.1902 3.39872 6.21203 0
M  V30 333 H 34.5982 1.90714 5.31308 0
M  V30 334 N 33.9963 -1.19345 1.0293 0
M  V30 335 C 35.2453 -1.88363 0.721256 0
M  V30 336 C 35.5583 -1.80514 -0.753254 0
M  V30 337 O 36.7643 -2.44788 -1.17436 0
M  V30 338 C 35.2203 -3.37872 1.23978 0
M  V30 339 C 34.8283 -3.54278 2.74211 0
M  V30 340 C 36.5723 -4.12365 1.00775 0
M  V30 341 C 34.4793 -4.97682 3.19479 0
M  V30 342 H 33.4093 -0.705484 0.266098 0
M  V30 343 H 36.0603 -1.34928 1.24365 0
M  V30 344 H 34.4423 -3.90707 0.6453 0
M  V30 345 H 35.6163 -3.11769 3.39318 0
M  V30 346 H 33.9313 -2.93174 2.95699 0
M  V30 347 H 36.5283 -5.18119 1.32123 0
M  V30 348 H 36.8713 -4.16263 -0.0554308 0
M  V30 349 H 37.4043 -3.65668 1.56625 0
M  V30 350 H 34.1433 -4.98945 4.25128 0
M  V30 351 H 33.6633 -5.4095 2.591 0
M  V30 352 H 35.3423 -5.66337 3.12845 0
M  V30 353 N 35.4744 -0.807222 -1.35358 0
M  V30 354 C 36.7044 -0.399796 -2.02695 0
M  V30 355 C 37.1124 0.994176 -1.60974 0
M  V30 356 O 36.4554 1.65209 -0.803226 0
M  V30 357 C 36.5174 -0.404445 -3.57218 0
M  V30 358 C 36.1814 -1.74904 -4.22206 0
M  V30 359 C 37.1784 -2.70743 -4.4384 0
M  V30 360 C 34.8634 -2.03322 -4.5931 0
M  V30 361 C 36.8574 -3.93183 -5.01683 0
M  V30 362 C 34.5444 -3.26026 -5.16866 0
M  V30 363 C 35.5424 -4.20774 -5.37994 0
M  V30 364 O 35.2304 -5.41312 -5.94337 0
M  V30 365 H 34.9624 -0.160517 -0.656666 0
M  V30 366 H 37.5164 -1.09235 -1.73945 0
M  V30 367 H 35.7464 0.344707 -3.85161 0
M  V30 368 H 37.4354 -0.0192429 -4.05895 0
M  V30 369 H 38.2014 -2.5008 -4.15554 0
M  V30 370 H 34.0804 -1.30384 -4.42178 0
M  V30 371 H 37.6244 -4.6715 -5.1809 0
M  V30 372 H 33.5214 -3.46559 -5.44579 0
M  V30 373 H 34.2894 -5.42618 -6.12787 0
M  V30 374 N 36.9525 1.47285 -0.560781 0
M  V30 375 C 38.1775 2.07359 -0.0410566 0
M  V30 376 C 38.6025 1.41017 1.24483 0
M  V30 377 O 37.9605 0.486368 1.74654 0
M  V30 378 C 38.0085 3.6035 0.134123 0
M  V30 379 O 37.1125 3.94681 1.19587 0
M  V30 380 H 36.4535 0.661887 -0.0529291 0
M  V30 381 H 38.9835 1.89252 -0.777482 0
M  V30 382 H 38.9935 4.0652 0.347207 0
M  V30 383 H 37.6685 4.08034 -0.805047 0
M  V30 384 H 36.2455 3.60251 0.962987 0
M  V30 385 N 38.4306 0.297415 1.54768 0
M  V30 386 C 39.6586 -0.315623 2.04478 0
M  V30 387 C 40.0736 -1.47792 1.17486 0
M  V30 388 O 39.4306 -1.81404 0.19971 0
M  V30 389 C 39.4816 -0.7753 3.53088 0
M  V30 390 O 39.2026 0.340732 4.36773 0
M  V30 391 C 40.7036 -1.45386 4.18781 0
M  V30 392 H 37.9236 -0.0690887 0.667434 0
M  V30 393 H 40.4676 0.436003 1.99798 0
M  V30 394 H 38.6226 -1.47696 3.58141 0
M  V30 395 H 39.0366 -0.0165035 5.24497 0
M  V30 396 H 40.5106 -1.72669 5.24299 0
M  V30 397 H 40.9876 -2.39275 3.68299 0
M  V30 398 H 41.5936 -0.795475 4.17795 0
M  V30 399 N 39.9087 -1.5758 0.0250728 0
M  V30 400 C 41.3247 -1.56124 -0.331282 0
M  V30 401 C 41.5247 -1.03029 -1.73169 0
M  V30 402 O 40.5807 -0.675215 -2.43305 0
M  V30 403 C 41.8937 -3.00139 -0.183584 0
M  V30 404 C 43.4417 -3.11946 -0.256654 0
M  V30 405 C 43.9167 -4.57793 -0.137792 0
M  V30 406 N 45.4077 -4.6279 -0.194904 0
M  V30 407 C 46.1427 -5.7326 -0.126655 0
M  V30 408 N 45.6387 -6.928 -0.00755288 0
M  V30 409 N 47.4317 -5.61811 -0.180348 0
M  V30 410 H 39.5827 -1.90424 0.94087 0
M  V30 411 H 41.8457 -0.875761 0.362968 0
M  V30 412 H 41.5517 -3.4292 0.780927 0
M  V30 413 H 41.4257 -3.64899 -0.955448 0
M  V30 414 H 43.8127 -2.69079 -1.21162 0
M  V30 415 H 43.8937 -2.49915 0.545517 0
M  V30 416 H 43.5377 -5.01339 0.813739 0
M  V30 417 H 43.4677 -5.17798 -0.958775 0
M  V30 418 H 45.9587 -3.76807 -0.287267 0
M  V30 419 H 46.2717 -7.72791 0.0379428 0
M  V30 420 H 44.6167 -6.94995 0.0271731 0
M  V30 421 H 47.8077 -4.6731 -0.271767 0
M  V30 422 H 47.9807 -6.47882 -0.123697 0
M  V30 423 N 41.3868 0.248026 -1.55636 0
M  V30 424 C 42.6168 0.992367 -1.81206 0
M  V30 425 C 43.0248 1.7949 -0.598324 0
M  V30 426 O 42.3678 1.78292 0.442434 0
M  V30 427 C 42.4298 1.97926 -3.00109 0
M  V30 428 C 42.0938 1.36377 -4.36177 0
M  V30 429 C 43.0908 0.76682 -5.14214 0
M  V30 430 C 40.7758 1.38347 -4.82872 0
M  V30 431 C 42.7698 0.197778 -6.37093 0
M  V30 432 C 40.4568 0.810574 -6.057 0
M  V30 433 C 41.4548 0.218754 -6.8265 0
M  V30 434 O 41.1428 -0.345298 -8.03158 0
M  V30 435 H 40.8748 0.297704 -0.606917 0
M  V30 436 H 43.4288 0.276517 -2.0353 0
M  V30 437 H 41.6588 2.73339 -2.73538 0
M  V30 438 H 43.3478 2.58694 -3.12781 0
M  V30 439 H 44.1138 0.744114 -4.79258 0
M  V30 440 H 39.9928 1.8335 -4.2297 0
M  V30 441 H 43.5368 -0.264788 -6.97097 0
M  V30 442 H 39.4338 0.830604 -6.40134 0
M  V30 443 H 40.2018 -0.237055 -8.18157 0
M  V30 444 N 42.8649 1.48995 0.513639 0
M  V30 445 C 44.1129 1.57531 1.26604 0
M  V30 446 C 44.4339 0.258236 1.93283 0
M  V30 447 O 43.7039 -0.721502 1.8213 0
M  V30 448 H 42.2839 0.580387 0.470276 0
M  V30 449 H 44.9459 1.85552 0.596373 0
M  V30 450 H 44.0419 2.36486 2.03669 0
M  V30 451 N 44.343 -0.763751 1.37857 0
M  V30 452 C 45.568 -1.55805 1.36893 0
M  V30 453 C 45.993 -1.88054 -0.0416135 0
M  V30 454 O 45.351 -1.49825 -1.02089 0
M  V30 455 C 45.399 -2.84012 2.22192 0
M  V30 456 O 44.503 -3.78732 1.63204 0
M  V30 457 H 43.844 -0.471638 0.46739 0
M  V30 458 H 46.374 -0.944657 1.81487 0
M  V30 459 H 46.384 -3.33037 2.35691 0
M  V30 460 H 45.059 -2.59869 3.24716 0
M  V30 461 H 43.636 -3.37402 1.58791 0
M  V30 462 N 45.8211 -1.22559 -0.990812 0
M  V30 463 C 47.2321 -1.04791 -1.54518 0
M  V30 464 C 47.5831 0.387998 -1.92325 0
M  V30 465 O 46.7081 1.27328 -1.74976 0
M  V30 466 C 47.3031 -1.896 -2.80779 0
M  V30 467 C 45.8621 -1.76124 -3.32652 0
M  V30 468 C 45.0091 -1.8594 -2.05722 0
M  V30 469 H 47.9601 -1.36374 -0.811662 0
M  V30 470 H 47.9811 -1.41464 -3.53225 0
M  V30 471 H 47.4931 -2.94101 -2.53231 0
M  V30 472 H 45.5941 -0.743643 -3.65104 0
M  V30 473 H 45.7071 -2.58913 -4.03114 0
M  V30 474 H 44.0711 -1.29403 -2.19379 0
M  V30 475 H 44.8541 -2.91976 -1.80568 0
M  V30 476 N 47.2992 1.18797 -1.03562 0
M  V30 477 C 48.2462 2.22253 -0.622259 0
M  V30 478 C 49.2162 1.61987 0.36736 0
M  V30 479 O 50.4012 1.88986 0.262492 0
M  V30 480 C 47.5412 3.45097 0.0138462 0
M  V30 481 C 46.6542 4.19722 -1.02263 0
M  V30 482 C 45.7892 5.30009 -0.355573 0
M  V30 483 C 44.8282 5.96399 -1.37749 0
M  V30 484 N 43.9652 6.98234 -0.735766 0
M  V30 485 H 48.8052 2.56968 -1.50903 0
M  V30 486 H 46.3422 1.26245 -0.755017 0
M  V30 487 H 48.3002 4.15279 0.399948 0
M  V30 488 H 46.9302 3.11018 0.864158 0
M  V30 489 H 45.9822 3.48418 -1.52673 0
M  V30 490 H 47.2942 4.65227 -1.79903 0
M  V30 491 H 46.4482 6.0664 0.0850095 0
M  V30 492 H 45.1872 4.85592 0.452967 0
M  V30 493 H 44.1922 5.18512 -1.82826 0
M  V30 494 H 45.4172 6.42899 -2.18764 0
M  V30 495 H 43.3632 6.55979 0.0525597 0
M  V30 496 H 43.2802 7.41965 -1.44995 0
M  V30 497 H 44.5482 7.78845 -0.31941 0
M  V30 498 N 48.7773 0.814389 1.34928 0
M  V30 499 C 50.1933 0.499084 1.51596 0
M  V30 500 C 50.3933 -0.978319 1.76157 0
M  V30 501 O 49.4493 -1.76309 1.80752 0
M  V30 502 C 50.7623 1.35121 2.68631 0
M  V30 503 C 52.3103 1.34746 2.82511 0
M  V30 504 C 52.7853 2.18388 4.0258 0
M  V30 505 N 54.2763 2.15966 4.09772 0
M  V30 506 C 55.0113 2.77437 5.01813 0
M  V30 507 N 54.5073 3.47866 5.99134 0
M  V30 508 N 56.3003 2.67037 4.94619 0
M  V30 509 H 48.4513 1.7711 1.17243 0
M  V30 510 H 50.7143 0.754256 0.574284 0
M  V30 511 H 50.4203 2.40001 2.57085 0
M  V30 512 H 50.2943 1.00991 3.63429 0
M  V30 513 H 52.6813 0.30648 2.93504 0
M  V30 514 H 52.7623 1.72869 1.88547 0
M  V30 515 H 52.4063 3.2253 3.92347 0
M  V30 516 H 52.3363 1.77621 4.9574 0
M  V30 517 H 54.8273 1.64729 3.40107 0
M  V30 518 H 55.1403 3.92038 6.65977 0
M  V30 519 H 53.4853 3.51972 5.99284 0
M  V30 520 H 56.6763 2.11597 4.17546 0
M  V30 521 H 56.8493 3.15232 5.66156 0
M  V30 522 N 50.2554 -1.46986 0.568584 0
M  V30 523 C 51.1874 -2.28233 -0.210337 0
M  V30 524 C 52.2004 -1.37682 -0.868767 0
M  V30 525 O 53.3894 -1.62406 -0.740705 0
M  V30 526 C 50.4894 -3.12293 -1.3163 0
M  V30 527 C 49.6624 -4.30878 -0.7525 0
M  V30 528 C 48.7214 -4.96445 -1.74439 0
M  V30 529 O 47.7474 -5.54482 -1.286 0
M  V30 530 N 48.9494 -4.92171 -3.07812 0
M  V30 531 H 51.7144 -2.95723 0.486648 0
M  V30 532 H 49.2754 -1.56742 0.405409 0
M  V30 533 H 51.2674 -3.53022 -1.97883 0
M  V30 534 H 49.8374 -2.46971 -1.91636 0
M  V30 535 H 49.0574 -3.94104 0.0871128 0
M  V30 536 H 50.3454 -5.07558 -0.35536 0
M  V30 537 H 49.7434 -4.46239 -3.47688 0
M  V30 538 H 48.3004 -5.36884 -3.69592 0
M  V30 539 N 51.7335 -0.305618 -1.54608 0
M  V30 540 C 52.6635 0.561482 -2.26649 0
M  V30 541 C 53.6445 1.13415 -1.26772 0
M  V30 542 O 54.8295 1.16262 -1.55553 0
M  V30 543 C 51.9595 1.73122 -3.01075 0
M  V30 544 C 50.9135 1.2887 -4.08138 0
M  V30 545 C 50.2395 2.54396 -4.70305 0
M  V30 546 C 51.5395 0.416578 -5.20636 0
M  V30 547 H 53.2335 -0.0393902 -2.99374 0
M  V30 548 H 50.7795 -0.020385 -1.43986 0
M  V30 549 H 52.7325 2.34396 -3.50195 0
M  V30 550 H 51.4565 2.3584 -2.25936 0
M  V30 551 H 50.1155 0.698991 -3.59875 0
M  V30 552 H 49.7635 3.15439 -3.918 0
M  V30 553 H 49.4635 2.25486 -5.42614 0
M  V30 554 H 50.9875 3.16464 -5.2219 0
M  V30 555 H 52.4015 0.935116 -5.65622 0
M  V30 556 H 50.7985 0.221046 -5.99693 0
M  V30 557 H 51.8685 -0.557162 -4.81688 0
M  V30 558 N 53.2116 1.57565 -0.0334293 0
M  V30 559 C 54.1436 2.0739 0.975811 0
M  V30 560 C 55.1566 0.998166 1.2861 0
M  V30 561 O 56.3456 1.27426 1.25 0
M  V30 562 C 53.4456 2.4871 2.30209 0
M  V30 563 C 52.6186 3.79413 2.17634 0
M  V30 564 C 51.6776 4.07237 3.33233 0
M  V30 565 O 50.7036 4.77425 3.09927 0
M  V30 566 N 51.9056 3.5775 4.5716 0
M  V30 567 H 54.6706 2.94598 0.55066 0
M  V30 568 H 52.2316 1.61173 0.15323 0
M  V30 569 H 54.2236 2.64413 3.06378 0
M  V30 570 H 52.7936 1.66845 2.64351 0
M  V30 571 H 52.0136 3.73465 1.26165 0
M  V30 572 H 53.3016 4.65038 2.0644 0
M  V30 573 H 52.6996 3.00976 4.78989 0
M  V30 574 H 51.2566 3.78724 5.30482 0
M  V30 575 N 54.6897 -0.239769 1.55765 0
M  V30 576 C 55.9367 -0.966801 1.7793 0
M  V30 577 C 56.2647 -1.85046 0.599015 0
M  V30 578 O 55.5197 -1.91197 -0.417395 0
M  V30 579 C 55.8187 -1.852 3.05672 0
M  V30 580 C 55.4847 -1.1231 4.36689 0
M  V30 581 C 54.1467 -0.921689 4.72291 0
M  V30 582 C 56.4987 -0.607019 5.17653 0
M  V30 583 C 53.8267 -0.191996 5.86386 0
M  V30 584 C 56.1787 0.109241 6.32506 0
M  V30 585 C 54.8427 0.322073 6.66723 0
M  V30 586 H 54.1127 -0.353778 0.651093 0
M  V30 587 H 56.7597 -0.23634 1.90036 0
M  V30 588 H 55.0647 -2.64975 2.8861 0
M  V30 589 H 56.7617 -2.41635 3.20021 0
M  V30 590 H 53.3517 -1.29004 4.08725 0
M  V30 591 H 57.5357 -0.750153 4.90598 0
M  V30 592 H 52.7917 -0.0166949 6.11398 0
M  V30 593 H 56.9657 0.516737 6.9448 0
M  V30 594 H 54.5927 0.88944 7.54979 0
M  V30 595 N 56.1678 -1.49265 -0.50573 0
M  V30 596 C 57.3978 -1.61979 -1.28243 0
M  V30 597 C 57.8058 -0.288576 -1.86986 0
M  V30 598 O 57.1488 0.735408 -1.68337 0
M  V30 599 C 57.2108 -2.62632 -2.45489 0
M  V30 600 C 56.8748 -4.071 -2.07651 0
M  V30 601 C 57.8718 -4.94049 -1.61901 0
M  V30 602 C 55.5568 -4.52801 -2.17431 0
M  V30 603 C 57.5508 -6.24736 -1.26428 0
M  V30 604 C 55.2378 -5.83503 -1.8157 0
M  V30 605 C 56.2358 -6.69294 -1.36142 0
M  V30 606 O 55.9238 -7.9756 -1.00764 0
M  V30 607 H 55.6558 -0.54834 -0.395347 0
M  V30 608 H 58.2098 -1.96002 -0.614204 0
M  V30 609 H 56.4398 -2.2378 -3.15372 0
M  V30 610 H 58.1288 -2.64925 -3.07522 0
M  V30 611 H 58.8948 -4.5997 -1.53795 0
M  V30 612 H 54.7738 -3.86196 -2.51742 0
M  V30 613 H 58.3178 -6.91652 -0.908992 0
M  V30 614 H 54.2148 -6.17112 -1.89324 0
M  V30 615 H 54.9828 -8.10529 -1.13952 0
M  V30 616 N 57.6459 0.756429 -1.3826 0
M  V30 617 C 59.0619 1.0591 -1.19395 0
M  V30 618 C 59.2619 2.01459 -0.0406567 0
M  V30 619 O 58.3179 2.44909 0.614467 0
M  V30 620 C 59.6309 1.64191 -2.51916 0
M  V30 621 C 61.1789 1.76376 -2.58574 0
M  V30 622 C 61.6539 2.38069 -3.91264 0
M  V30 623 N 63.1449 2.45503 -3.92788 0
M  V30 624 C 63.8799 2.94126 -4.92217 0
M  V30 625 N 63.3759 3.42805 -6.02043 0
M  V30 626 N 65.1689 2.9314 -4.7961 0
M  V30 627 H 57.3199 0.122313 -2.12048 0
M  V30 628 H 59.5829 0.116892 -0.940766 0
M  V30 629 H 59.2889 1.01451 -3.3675 0
M  V30 630 H 59.1629 2.6329 -2.70108 0
M  V30 631 H 61.5499 2.38244 -1.74137 0
M  V30 632 H 61.6309 0.759894 -2.44252 0
M  V30 633 H 61.2749 1.76835 -4.76121 0
M  V30 634 H 61.2049 3.39091 -4.02895 0
M  V30 635 H 63.6959 2.1107 -3.13461 0
M  V30 636 H 64.0089 3.78354 -6.73846 0
M  V30 637 H 62.3539 3.4087 -6.05667 0
M  V30 638 H 65.5449 2.54419 -3.92923 0
M  V30 639 H 65.7179 3.30721 -5.5725 0
M  V30 640 N 59.124 1.23083 0.984299 0
M  V30 641 C 60.072 1.00593 2.09723 0
M  V30 642 C 61.066 -0.0538014 1.69315 0
M  V30 643 O 62.272 0.0993719 1.79725 0
M  V30 644 H 58.647 0.30817 0.685956 0
M  V30 645 H 60.618 1.95012 2.2586 0
M  V30 646 C 59.367 0.609601 3.42314 0
M  V30 647 H 58.69 1.41675 3.73856 0
M  V30 648 H 60.13 0.491726 4.21139 0
M  V30 649 C 58.589 -0.681745 3.2993 0
M  V30 650 O 59.119 -1.73192 3.62446 0
M  V30 651 N 57.325 -0.656178 2.83095 0
M  V30 652 H 56.872 0.198759 2.56832 0
M  V30 653 H 56.83 -1.52044 2.75191 0
M  V30 654 N 60.6021 -1.18246 1.0419 0
M  V30 655 C 61.5321 -2.24127 0.654914 0
M  V30 656 C 62.5131 -1.66617 -0.342451 0
M  V30 657 O 63.6981 -1.92924 -0.222277 0
M  V30 658 C 60.8281 -3.47295 0.0183757 0
M  V30 659 C 59.7821 -4.17563 0.939414 0
M  V30 660 C 59.1081 -5.34438 0.167286 0
M  V30 661 C 60.4081 -4.70917 2.25908 0
M  V30 662 H 62.1021 -2.56753 1.54007 0
M  V30 663 H 59.6481 -1.23414 0.74195 0
M  V30 664 H 61.6011 -4.20572 -0.264082 0
M  V30 665 H 60.3251 -3.13907 -0.901664 0
M  V30 666 H 58.9841 -3.46186 1.20628 0
M  V30 667 H 58.6321 -4.97298 -0.7552 0
M  V30 668 H 58.3321 -5.82388 0.780901 0
M  V30 669 H 59.8561 -6.10504 -0.108125 0
M  V30 670 H 61.2701 -5.35882 2.03724 0
M  V30 671 H 59.6671 -5.29406 2.82577 0
M  V30 672 H 60.7371 -3.88272 2.9047 0
M  V30 673 N 62.0802 -0.821533 -1.34494 0
M  V30 674 C 63.3282 -0.408139 -1.97936 0
M  V30 675 C 63.6492 1.03193 -1.65457 0
M  V30 676 O 62.9192 1.71622 -0.944595 0
M  V30 677 H 61.4992 -0.147928 -0.732206 0
M  V30 678 H 64.1612 -1.05067 -1.64155 0
M  V30 679 H 63.2572 -0.52601 -3.07635 0
M  V30 680 N 63.5583 1.46682 -0.576371 0
M  V30 681 C 64.5053 2.30241 0.160499 0
M  V30 682 C 65.4753 1.40233 0.890162 0
M  V30 683 O 66.6603 1.69186 0.882084 0
M  V30 684 C 63.8003 3.24578 1.1723 0
M  V30 685 C 62.9133 4.29684 0.446736 0
M  V30 686 C 62.0483 5.11154 1.44551 0
M  V30 687 C 61.0873 6.08015 0.70599 0
M  V30 688 N 60.2243 6.82376 1.65251 0
M  V30 689 H 65.0643 2.92727 -0.558127 0
M  V30 690 H 62.6013 1.44272 -0.287056 0
M  V30 691 H 64.5593 3.77711 1.77172 0
M  V30 692 H 63.1893 2.63916 1.85872 0
M  V30 693 H 62.2413 3.79458 -0.267594 0
M  V30 694 H 63.5533 4.98626 -0.131686 0
M  V30 695 H 62.7073 5.68533 2.11791 0
M  V30 696 H 61.4463 4.42158 2.05786 0
M  V30 697 H 60.4513 5.49796 0.0197725 0
M  V30 698 H 61.6763 6.79028 0.09912 0
M  V30 699 H 59.6223 6.16094 2.25308 0
M  V30 700 H 59.5393 7.47556 1.12673 0
M  V30 701 H 60.8073 7.44316 2.31546 0
M  V30 702 N 65.0364 0.313813 1.54444 0
M  V30 703 C 66.2614 -0.296681 2.05267 0
M  V30 704 C 66.6864 -1.45757 1.18897 0
M  V30 705 O 66.0444 -1.80239 0.195886 0
M  V30 706 C 66.0924 -0.71831 3.53373 0
M  V30 707 O 65.1964 -1.82175 3.69981 0
M  V30 708 H 64.5374 -0.0554061 0.661684 0
M  V30 709 H 67.0674 0.459387 1.99376 0
M  V30 710 H 67.0774 -1.00364 3.95463 0
M  V30 711 H 65.7524 0.130821 4.15694 0
M  V30 712 H 64.3294 -1.53598 3.39797 0
M  V30 713 N 66.5145 -1.57545 0.0417849 0
M  V30 714 C 67.7625 -1.91937 -0.632829 0
M  V30 715 C 68.0835 -0.919978 -1.71934 0
M  V30 716 O 67.3535 0.0366064 -1.95866 0
M  V30 717 H 65.9335 -0.708493 -0.236742 0
M  V30 718 H 68.5955 -1.9468 0.0925745 0
M  V30 719 H 67.6915 -2.92912 -1.07746 0
M  V30 720 N 67.9926 0.231505 -1.5589 0
M  V30 721 C 68.9226 1.29022 -1.94617 0
M  V30 722 C 69.9036 1.4941 -0.813067 0
M  V30 723 O 71.0886 1.6176 -1.07459 0
M  V30 724 C 68.2186 2.64199 -2.25424 0
M  V30 725 C 67.1726 2.58484 -3.41131 0
M  V30 726 C 66.4986 3.97599 -3.57518 0
M  V30 727 C 67.7986 2.1413 -4.76388 0
M  V30 728 H 69.4926 0.968563 -2.83301 0
M  V30 729 H 67.0386 0.464479 -1.36303 0
M  V30 730 H 68.9916 3.38413 -2.51107 0
M  V30 731 H 67.7156 2.98032 -1.33583 0
M  V30 732 H 66.3746 1.86727 -3.15481 0
M  V30 733 H 66.0226 4.28723 -2.6307 0
M  V30 734 H 65.7226 3.94659 -4.35337 0
M  V30 735 H 67.2466 4.7349 -3.85538 0
M  V30 736 H 68.6606 2.78083 -5.01341 0
M  V30 737 H 67.0576 2.2227 -5.57419 0
M  V30 738 H 68.1276 1.09331 -4.72414 0
M  V30 739 N 69.4707 1.49531 0.497807 0
M  V30 740 C 70.8867 1.36365 0.829266 0
M  V30 741 C 71.0867 0.399184 1.97506 0
M  V30 742 O 70.1427 -0.167977 2.51941 0
M  V30 743 C 71.4557 2.77153 1.16647 0
M  V30 744 C 73.0037 2.85877 1.27449 0
M  V30 745 C 73.4787 4.2744 1.64497 0
M  V30 746 N 74.9697 4.30265 1.7154 0
M  V30 747 C 75.7047 5.3677 2.01656 0
M  V30 748 N 75.2007 6.53516 2.29976 0
M  V30 749 N 76.9937 5.24189 2.02934 0
M  V30 750 H 69.1447 2.10831 -0.257703 0
M  V30 751 H 71.4077 0.946534 -0.0527091 0
M  V30 752 H 71.1137 3.49442 0.397872 0
M  V30 753 H 70.9877 3.12722 2.10915 0
M  V30 754 H 73.3747 2.13824 2.0338 0
M  V30 755 H 73.4557 2.53887 0.312244 0
M  V30 756 H 73.0997 5.00021 0.891151 0
M  V30 757 H 73.0297 4.56896 2.61827 0
M  V30 758 H 75.5207 3.4607 1.51802 0
M  V30 759 H 75.8337 7.30506 2.52153 0
M  V30 760 H 74.1787 6.56737 2.27425 0
M  V30 761 H 77.3697 4.31988 1.80289 0
M  V30 762 H 77.5427 6.07286 2.26071 0
M  V30 763 N 70.9488 -0.749086 1.3866 0
M  V30 764 C 72.1948 -1.51056 1.35314 0
M  V30 765 C 72.5278 -1.94121 -0.0553751 0
M  V30 766 O 71.8028 -1.65763 -1.01749 0
M  V30 767 C 72.0858 -2.76003 2.31288 0
M  V30 768 C 71.9388 -2.39047 3.8102 0
M  V30 769 C 73.2578 -3.78046 2.2532 0
M  V30 770 H 70.3768 -0.547972 0.492844 0
M  V30 771 H 73.0188 -0.857628 1.69543 0
M  V30 772 H 71.1688 -3.31716 2.02229 0
M  V30 773 H 72.8408 -1.89074 4.20771 0
M  V30 774 H 71.0838 -1.71449 3.98482 0
M  V30 775 H 71.7548 -3.28462 4.4364 0
M  V30 776 H 74.2308 -3.31884 2.50983 0
M  V30 777 H 73.1068 -4.63159 2.94576 0
M  V30 778 H 73.3678 -4.23957 1.25352 0
M  V30 779 N 72.4269 -1.23603 -0.977757 0
M  V30 780 C 73.6519 -1.09735 -1.75991 0
M  V30 781 C 74.0769 0.346858 -1.84874 0
M  V30 782 O 73.4349 1.25093 -1.3123 0
M  V30 783 C 73.4829 -1.73051 -3.16363 0
M  V30 784 O 72.5869 -0.994452 -4.0023 0
M  V30 785 H 71.9279 -0.384476 -0.541364 0
M  V30 786 H 74.4579 -1.6371 -1.2272 0
M  V30 787 H 74.4679 -1.78398 -3.66931 0
M  V30 788 H 73.1429 -2.78137 -3.09213 0
M  V30 789 H 71.7199 -1.01812 -3.58732 0
M  V30 790 N 73.905 1.17692 -1.04816 0
M  V30 791 C 75.145 1.89545 -0.764979 0
M  V30 792 C 75.509 1.78979 0.695028 0
M  V30 793 O 76.71 2.45613 1.09215 0
M  V30 794 C 74.981 3.35659 -1.22751 0
M  V30 795 S 76.54 4.25526 -1.07112 0
M  V30 796 H 73.358 0.654432 -0.27792 0
M  V30 797 H 75.96 1.42163 -1.34201 0
M  V30 798 H 74.664 3.40882 -2.28533 0
M  V30 799 H 74.195 3.88083 -0.644594 0
M  V30 800 H 76.21 4.962 0.00697508 0
M  V30 801 N 75.3831 0.828654 1.34056 0
M  V30 802 C 76.3131 0.269443 2.3194 0
M  V30 803 C 77.2941 -0.617247 1.58506 0
M  V30 804 O 78.4791 -0.542931 1.86456 0
M  V30 805 C 75.6091 -0.564793 3.42677 0
M  V30 806 C 74.5631 0.225241 4.27407 0
M  V30 807 C 73.8891 -0.7321 5.29664 0
M  V30 808 C 75.1891 1.43663 5.02154 0
M  V30 809 H 76.8831 1.08728 2.7896 0
M  V30 810 H 74.4291 0.524283 1.34117 0
M  V30 811 H 76.3821 -0.966233 4.10173 0
M  V30 812 H 75.1061 -1.41574 2.9432 0
M  V30 813 H 73.7651 0.608117 3.61521 0
M  V30 814 H 73.4131 -1.57916 4.77568 0
M  V30 815 H 73.1131 -0.20767 5.87233 0
M  V30 816 H 74.6371 -1.13128 6.00029 0
M  V30 817 H 76.0511 1.1089 5.62473 0
M  V30 818 H 74.4481 1.89711 5.69324 0
M  V30 819 H 75.5181 2.21181 4.31517 0
M  V30 820 N 76.8612 -1.46375 0.584142 0
M  V30 821 C 78.1092 -2.01978 0.0701287 0
M  V30 822 C 78.4302 -1.4579 -1.295 0
M  V30 823 O 77.7002 -0.64314 -1.85042 0
M  V30 824 H 76.2802 -0.746648 0.0229345 0
M  V30 825 H 78.9422 -1.79461 0.760245 0
M  V30 826 H 78.0382 -3.121 0.0022064 0
M  V30 827 N 78.3393 -0.321999 -1.54275 0
M  V30 828 C 79.2693 0.537411 -2.27231 0
M  V30 829 C 80.2503 1.12064 -1.27968 0
M  V30 830 O 81.4353 1.14606 -1.56777 0
M  V30 831 C 78.5653 1.69919 -3.02894 0
M  V30 832 C 77.5193 1.24534 -4.09482 0
M  V30 833 C 76.8453 2.49394 -4.72977 0
M  V30 834 C 78.1453 0.361335 -5.21049 0
M  V30 835 H 79.8393 -0.0711406 -2.99315 0
M  V30 836 H 77.3853 -0.0356555 -1.43956 0
M  V30 837 H 79.3383 2.30668 -3.52662 0
M  V30 838 H 78.0623 2.33431 -2.28424 0
M  V30 839 H 76.7213 0.660782 -3.60596 0
M  V30 840 H 76.3693 3.11265 -3.95124 0
M  V30 841 H 76.0693 2.19718 -5.44975 0
M  V30 842 H 77.5933 3.10908 -5.25517 0
M  V30 843 H 79.0073 0.875072 -5.66582 0
M  V30 844 H 77.4043 0.157428 -5.99893 0
M  V30 845 H 78.4743 -0.60822 -4.8107 0
M  V30 846 N 79.8174 1.5752 -0.0501392 0
M  V30 847 C 81.0654 1.9227 0.622642 0
M  V30 848 C 81.3864 0.929083 1.71444 0
M  V30 849 O 80.6564 -0.0262186 1.95882 0
M  V30 850 H 79.2364 0.709739 0.232981 0
M  V30 851 H 81.8984 1.94628 -0.102898 0
M  V30 852 H 80.9944 2.93479 1.06191 0
M  V30 853 N 81.2955 -0.223234 1.56011 0
M  V30 854 C 82.5235 -0.964812 1.83027 0
M  V30 855 C 82.9385 -1.78013 0.62904 0
M  V30 856 O 82.2955 -1.78008 -0.402414 0
M  V30 857 C 82.3465 -1.88373 3.08542 0
M  V30 858 O 82.0675 -1.10137 4.2403 0
M  V30 859 C 83.5685 -2.73934 3.48533 0
M  V30 860 H 80.7885 -0.282842 0.608475 0
M  V30 861 H 83.3325 -0.238971 2.03099 0
M  V30 862 H 81.4875 -2.56354 2.9045 0
M  V30 863 H 81.9015 -1.72501 4.95322 0
M  V30 864 H 83.3755 -3.34117 4.39397 0
M  V30 865 H 83.8525 -3.46244 2.70207 0
M  V30 866 H 84.4585 -2.11369 3.69057 0
M  V30 867 N 82.7736 -1.49793 -0.48987 0
M  V30 868 C 84.0196 -1.61049 -1.24236 0
M  V30 869 C 84.3746 -0.298412 -1.90072 0
M  V30 870 O 83.6676 0.702262 -1.78266 0
M  V30 871 C 83.8616 -2.71488 -2.32441 0
M  V30 872 C 83.6906 -4.13308 -1.77218 0
M  V30 873 C 82.4606 -4.79955 -1.58023 0
M  V30 874 C 84.6586 -4.98176 -1.27772 0
M  V30 875 N 82.6406 -6.06052 -0.978465 0
M  V30 876 C 84.0116 -6.14843 -0.798 0
M  V30 877 C 86.0666 -4.84091 -1.16449 0
M  V30 878 C 84.7696 -7.18975 -0.216245 0
M  V30 879 C 86.7956 -5.88382 -0.596698 0
M  V30 880 C 86.1576 -7.04285 -0.127262 0
M  V30 881 H 82.2566 -0.643611 -0.444172 0
M  V30 882 H 84.8406 -1.86842 -0.54754 0
M  V30 883 H 83.0116 -2.47449 -2.99372 0
M  V30 884 H 84.7436 -2.72205 -2.99477 0
M  V30 885 H 81.4986 -4.36936 -1.82712 0
M  V30 886 H 81.9226 -6.73407 -0.696534 0
M  V30 887 H 86.5646 -3.94786 -1.5134 0
M  V30 888 H 84.2826 -8.0797 0.144903 0
M  V30 889 H 87.8686 -5.79545 -0.511716 0
M  V30 890 H 86.7486 -7.83606 0.30523 0
M  V30 891 N 84.2517 0.741722 -1.39055 0
M  V30 892 C 85.4977 1.50336 -1.36113 0
M  V30 893 C 85.8307 1.94148 0.0450796 0
M  V30 894 O 85.1057 1.66301 1.00868 0
M  V30 895 C 85.3887 2.74773 -2.32749 0
M  V30 896 C 85.2417 2.37023 -3.82283 0
M  V30 897 C 86.5607 3.76846 -2.27322 0
M  V30 898 H 83.6797 0.545351 -0.495743 0
M  V30 899 H 86.3217 0.848624 -1.69995 0
M  V30 900 H 84.4717 3.30639 -2.03986 0
M  V30 901 H 86.1437 1.8684 -4.21768 0
M  V30 902 H 84.3867 1.69334 -3.99385 0
M  V30 903 H 85.0577 3.26104 -4.45376 0
M  V30 904 H 87.5337 3.30548 -2.5274 0
M  V30 905 H 86.4097 4.6159 -2.97028 0
M  V30 906 H 86.6707 4.23286 -1.27599 0
M  V30 907 N 85.7298 1.2412 0.971189 0
M  V30 908 C 86.9578 1.10575 1.74874 0
M  V30 909 C 87.3728 -0.342017 1.85676 0
M  V30 910 O 86.7298 -1.23617 1.34258 0
M  V30 911 C 86.7808 1.73579 3.171 0
M  V30 912 O 86.5018 3.12695 3.06844 0
M  V30 913 C 88.0028 1.65598 4.11208 0
M  V30 914 H 85.2228 0.386504 0.548503 0
M  V30 915 H 87.7668 1.64156 1.21955 0
M  V30 916 H 85.9218 1.24009 3.67016 0
M  V30 917 H 86.3358 3.43412 3.96445 0
M  V30 918 H 87.8098 2.1437 5.08674 0
M  V30 919 H 88.2868 0.616532 4.34851 0
M  V30 920 H 88.8928 2.14578 3.67201 0
M  V30 921 N 87.2079 -1.17134 1.05439 0
M  V30 922 C 88.4549 -1.87456 0.765942 0
M  V30 923 C 88.7829 -1.81189 -0.707153 0
M  V30 924 O 88.0379 -1.21633 -1.5331 0
M  V30 925 C 88.3369 -3.36833 1.19491 0
M  V30 926 C 88.0029 -3.63301 2.67063 0
M  V30 927 C 86.6649 -3.70234 3.07376 0
M  V30 928 C 89.0169 -3.74575 3.62413 0
M  V30 929 C 86.3449 -3.85933 4.41896 0
M  V30 930 C 88.6969 -3.91793 4.9667 0
M  V30 931 C 87.3609 -3.96966 5.36633 0
M  V30 932 H 86.6309 -0.685948 0.280278 0
M  V30 933 H 89.2779 -1.38556 1.32192 0
M  V30 934 H 87.5829 -3.87807 0.557969 0
M  V30 935 H 89.2799 -3.89611 0.948893 0
M  V30 936 H 85.8699 -3.58532 2.34846 0
M  V30 937 H 90.0539 -3.68537 3.32406 0
M  V30 938 H 85.3099 -3.88187 4.72357 0
M  V30 939 H 89.4839 -3.99458 5.70444 0
M  V30 940 H 87.1109 -4.08883 6.40874 0
M  V30 941 N 88.686 -0.835752 -1.33615 0
M  V30 942 C 89.934 -0.429109 -1.97492 0
M  V30 943 C 90.255 1.01433 -1.66543 0
M  V30 944 O 89.525 1.70611 -0.962744 0
M  V30 945 H 88.105 -0.155686 -0.730596 0
M  V30 946 H 90.767 -1.06802 -1.63031 0
M  V30 947 H 89.863 -0.55861 -3.0706 0
M  V30 948 N 90.1641 1.46063 -0.591896 0
M  V30 949 C 91.4121 2.01938 -0.0808391 0
M  V30 950 C 91.7331 1.46475 1.28725 0
M  V30 951 O 91.0031 0.652944 1.84698 0
M  V30 952 H 89.5831 0.746516 -0.0268938 0
M  V30 953 H 92.2451 1.79055 -0.769752 0
M  V30 954 H 91.3411 3.12094 -0.0187578 0
M  V30 955 N 91.6422 0.330177 1.54103 0
M  V30 956 C 92.5742 -0.566902 2.22079 0
M  V30 957 C 93.5872 -1.07462 1.22294 0
M  V30 958 O 94.7762 -0.987065 1.48726 0
M  V30 959 C 91.8762 -1.79138 2.87685 0
M  V30 960 C 91.0492 -1.42123 4.13666 0
M  V30 961 C 90.1082 -2.50394 4.62806 0
M  V30 962 O 89.1342 -2.14261 5.27334 0
M  V30 963 N 90.3362 -3.81433 4.37595 0
M  V30 964 H 93.1012 0.0151844 2.99696 0
M  V30 965 H 90.6622 0.153681 1.61169 0
M  V30 966 H 92.6542 -2.50975 3.1748 0
M  V30 967 H 91.2242 -2.28115 2.13734 0
M  V30 968 H 90.4442 -0.534201 3.90564 0
M  V30 969 H 91.7322 -1.14971 4.9564 0
M  V30 970 H 91.1302 -4.13584 3.8596 0
M  V30 971 H 89.6872 -4.4948 4.72029 0
M  V30 972 N 93.1203 -1.57491 0.0584922 0
M  V30 973 C 94.3693 -1.92155 -0.613146 0
M  V30 974 C 94.6823 -0.939334 -1.71569 0
M  V30 975 O 95.8883 -1.17829 -2.44599 0
M  V30 976 C 94.3443 -3.41303 -1.14195 0
M  V30 977 C 93.9523 -4.47944 -0.0711265 0
M  V30 978 C 95.6963 -3.84988 -1.78841 0
M  V30 979 C 93.6033 -5.88212 -0.613225 0
M  V30 980 H 92.5333 -0.717162 -0.232796 0
M  V30 981 H 95.1843 -1.83049 0.12857 0
M  V30 982 H 93.5663 -3.45437 -1.93621 0
M  V30 983 H 94.7403 -4.55408 0.702836 0
M  V30 984 H 93.0553 -4.13644 0.478313 0
M  V30 985 H 95.6523 -4.87159 -2.20408 0
M  V30 986 H 95.9953 -3.21632 -2.64308 0
M  V30 987 H 96.5283 -3.83401 -1.06059 0
M  V30 988 H 93.2673 -6.55183 0.203978 0
M  V30 989 H 92.7873 -5.84294 -1.35501 0
M  V30 990 H 94.4663 -6.37687 -1.09383 0
M  V30 991 N 94.5984 0.214957 -1.56127 0
M  V30 992 C 95.8264 0.955092 -1.83536 0
M  V30 993 C 96.2414 1.77677 -0.638472 0
M  V30 994 O 95.5984 1.78219 0.392968 0
M  V30 995 C 95.6494 1.86734 -3.09536 0
M  V30 996 O 95.3704 1.07887 -4.24608 0
M  V30 997 C 96.8714 2.72082 -3.4998 0
M  V30 998 H 94.0914 0.279611 -0.609966 0
M  V30 999 H 96.6354 0.228197 -2.03223 0
M  V30 1000 H 94.7904 2.5481 -2.91806 0
M  V30 1001 H 95.2044 1.69872 -4.9623 0
M  V30 1002 H 96.6784 3.31782 -4.41163 0
M  V30 1003 H 97.1554 3.44806 -2.7204 0
M  V30 1004 H 97.7614 2.09409 -3.70173 0
M  V30 1005 N 96.0765 1.50051 0.48192 0
M  V30 1006 C 97.3535 1.51009 1.2432 0
M  V30 1007 C 97.7335 0.248587 2.09631 0
M  V30 1008 O 97.0815 -0.768409 2.15192 0
M  V30 1009 C 97.2915 2.79981 2.08355 0
M  V30 1010 C 98.6395 3.3022 2.66908 0
M  V30 1011 O 99.6635 2.81228 2.18607 0
M  V30 1012 O 98.5225 4.15595 3.54884 0
M  V30 1013 H 95.6165 0.605239 0.563573 0
M  V30 1014 H 98.1625 1.62332 0.494627 0
M  V30 1015 H 96.9345 3.63275 1.45419 0
M  V30 1016 H 96.5575 2.7161 2.90368 0
M  V30 1017 N 97.5546 -0.734337 1.39446 0
M  V30 1018 C 98.4646 -1.87879 1.40495 0
M  V30 1019 C 99.4806 -1.714 0.299672 0
M  V30 1020 O 100.657 -1.93991 0.541249 0
M  V30 1021 C 97.7216 -3.23477 1.24754 0
M  V30 1022 C 96.7826 -3.52344 2.45259 0
M  V30 1023 C 96.0156 -4.81473 2.30259 0
M  V30 1024 O 96.2386 -5.55237 1.30643 0
M  V30 1025 O 95.1726 -5.10254 3.19256 0
M  V30 1026 H 98.9986 -1.89949 2.36966 0
M  V30 1027 H 96.5836 -0.882243 1.20569 0
M  V30 1028 H 98.4656 -4.04509 1.18111 0
M  V30 1029 H 97.1406 -3.22176 0.313781 0
M  V30 1030 H 96.0476 -2.71396 2.57478 0
M  V30 1031 H 97.3806 -3.58426 3.37331 0
M  V30 1032 N 99.0327 -1.24633 -0.964593 0
M  V30 1033 C 99.9657 -0.984662 -2.05863 0
M  V30 1034 C 100.944 0.0826554 -1.6239 0
M  V30 1035 O 102.128 -0.0549296 -1.8842 0
M  V30 1036 C 99.2547 -0.486529 -3.35187 0
M  V30 1037 C 98.3007 -1.54286 -3.97615 0
M  V30 1038 S 99.1337 -3.12513 -4.34851 0
M  V30 1039 C 100.29 -2.6441 -5.67308 0
M  V30 1040 H 100.523 -1.91104 -2.27743 0
M  V30 1041 H 98.0557 -1.08052 -1.10291 0
M  V30 1042 H 100.014 -0.205757 -4.09984 0
M  V30 1043 H 98.6747 0.419186 -3.1129 0
M  V30 1044 H 97.8677 -1.14481 -4.90826 0
M  V30 1045 H 97.4697 -1.7738 -3.2926 0
M  V30 1046 H 99.7617 -2.07416 -6.44969 0
M  V30 1047 H 100.705 -3.56222 -6.11973 0
M  V30 1048 H 101.113 -2.04734 -5.26065 0
M  V30 1049 N 100.511 1.16574 -1.06058 0
M  V30 1050 C 101.474 2.19085 -0.673392 0
M  V30 1051 C 102.474 1.5835 0.279648 0
M  V30 1052 O 103.664 1.74088 0.0623488 0
M  V30 1053 C 100.796 3.40899 0.00954234 0
M  V30 1054 H 101.989 2.54853 -1.58081 0
M  V30 1055 H 99.5418 1.30808 -0.855516 0
M  V30 1056 H 100.277 3.10684 0.929826 0
M  V30 1057 H 100.062 3.86233 -0.67573 0
M  V30 1058 H 101.552 4.1675 0.266245 0
M  V30 1059 N 101.989 0.842826 1.3317 0
M  V30 1060 C 102.899 0.281444 2.32906 0
M  V30 1061 C 103.915 -0.594587 1.63526 0
M  V30 1062 O 105.091 -0.49777 1.95152 0
M  V30 1063 C 102.156 -0.530929 3.42611 0
M  V30 1064 C 101.217 0.369843 4.27704 0
M  V30 1065 C 100.45 -0.403853 5.3217 0
M  V30 1066 O 100.673 -1.63513 5.46461 0
M  V30 1067 O 99.6069 0.224199 6.01482 0
M  V30 1068 H 103.433 1.10744 2.82789 0
M  V30 1069 H 101.018 0.60545 1.36582 0
M  V30 1070 H 102.9 -0.992437 4.09547 0
M  V30 1071 H 101.575 -1.33392 2.94938 0
M  V30 1072 H 100.482 0.879275 3.6362 0
M  V30 1073 H 101.815 1.13771 4.78871 0
M  V30 1074 N 103.467 -1.45747 0.599634 0
M  V30 1075 C 104.399 -2.28628 -0.161879 0
M  V30 1076 C 105.412 -1.39494 -0.839367 0
M  V30 1077 O 106.601 -1.63941 -0.706089 0
M  V30 1078 C 103.701 -3.15014 -1.24976 0
M  V30 1079 C 102.874 -4.32378 -0.660935 0
M  V30 1080 C 101.933 -5.00033 -1.63869 0
M  V30 1081 O 100.959 -5.57085 -1.1681 0
M  V30 1082 N 102.161 -4.98589 -2.97303 0
M  V30 1083 H 104.926 -2.94624 0.549265 0
M  V30 1084 H 102.487 -1.55847 0.438565 0
M  V30 1085 H 104.479 -3.5714 -1.9035 0
M  V30 1086 H 103.049 -2.5098 -1.86354 0
M  V30 1087 H 102.269 -3.9383 0.170688 0
M  V30 1088 H 103.557 -5.08197 -0.247619 0
M  V30 1089 H 102.955 -4.53514 -3.38145 0
M  V30 1090 H 101.512 -5.44603 -3.58121 0
M  V30 1091 N 104.945 -0.338344 -1.53925 0
M  V30 1092 C 105.875 0.51328 -2.27789 0
M  V30 1093 C 106.856 1.107 -1.29149 0
M  V30 1094 O 108.041 1.12937 -1.57984 0
M  V30 1095 C 105.171 1.66697 -3.04679 0
M  V30 1096 C 104.125 1.20183 -4.1078 0
M  V30 1097 C 103.451 2.44363 -4.75595 0
M  V30 1098 C 104.751 0.30605 -5.21403 0
M  V30 1099 H 106.445 -0.102883 -2.99223 0
M  V30 1100 H 103.991 -0.0509219 -1.4391 0
M  V30 1101 H 105.944 2.26915 -3.55088 0
M  V30 1102 H 104.668 2.30995 -2.30887 0
M  V30 1103 H 103.327 0.622499 -3.61276 0
M  V30 1104 H 102.975 3.07057 -3.98403 0
M  V30 1105 H 102.675 2.13925 -5.47275 0
M  V30 1106 H 104.199 3.05317 -5.28786 0
M  V30 1107 H 105.613 0.814929 -5.67478 0
M  V30 1108 H 104.01 0.0937929 -6.00027 0
M  V30 1109 H 105.08 -0.65921 -4.80398 0
M  V30 1110 N 106.423 1.57458 -0.0668435 0
M  V30 1111 C 107.356 2.08033 0.93795 0
M  V30 1112 C 108.334 0.984321 1.29421 0
M  V30 1113 O 109.518 1.25736 1.40437 0
M  V30 1114 C 106.645 2.53388 2.24749 0
M  V30 1115 C 105.691 3.74376 2.04315 0
M  V30 1116 S 106.524 5.19303 1.30706 0
M  V30 1117 C 107.68 5.67986 2.62951 0
M  V30 1118 H 107.913 2.92935 0.50759 0
M  V30 1119 H 105.446 1.5371 0.145804 0
M  V30 1120 H 107.404 2.8018 3.00016 0
M  V30 1121 H 106.065 1.68763 2.64911 0
M  V30 1122 H 105.258 4.04083 3.01218 0
M  V30 1123 H 104.86 3.47931 1.37186 0
M  V30 1124 H 107.152 5.74528 3.5906 0
M  V30 1125 H 108.095 6.66955 2.3786 0
M  V30 1126 H 108.503 4.95781 2.69929 0
M  V30 1127 N 107.901 -0.206675 1.56239 0
M  V30 1128 C 109.129 -0.945345 1.8404 0
M  V30 1129 C 109.544 -1.77336 0.647885 0
M  V30 1130 O 108.901 -1.78425 -0.383511 0
M  V30 1131 C 108.952 -1.8509 3.10522 0
M  V30 1132 O 108.673 -1.05634 4.25174 0
M  V30 1133 C 110.174 -2.70222 3.51418 0
M  V30 1134 H 107.394 -0.276372 0.61144 0
M  V30 1135 H 109.938 -0.217417 2.03341 0
M  V30 1136 H 108.093 -2.53259 2.93153 0
M  V30 1137 H 108.507 -1.67238 4.97124 0
M  V30 1138 H 109.981 -3.29438 4.42916 0
M  V30 1139 H 110.458 -3.43358 2.73864 0
M  V30 1140 H 111.064 -2.07443 3.71278 0
M  V30 1141 N 109.379 -1.50304 -0.473955 0
M  V30 1142 C 110.309 -1.71886 -1.58042 0
M  V30 1143 C 111.29 -0.567799 -1.60344 0
M  V30 1144 O 112.475 -0.806623 -1.76656 0
M  V30 1145 C 109.605 -1.81036 -2.96384 0
M  V30 1146 C 108.559 -2.962 -3.08949 0
M  V30 1147 C 107.885 -2.9049 -4.48909 0
M  V30 1148 C 109.185 -4.36752 -2.86434 0
M  V30 1149 H 110.879 -2.64527 -1.40234 0
M  V30 1150 H 108.425 -1.27295 -0.673201 0
M  V30 1151 H 110.378 -1.94719 -3.73714 0
M  V30 1152 H 109.102 -0.850147 -3.15341 0
M  V30 1153 H 107.761 -2.82164 -2.3405 0
M  V30 1154 H 107.409 -1.92321 -4.64781 0
M  V30 1155 H 107.109 -3.67802 -4.58253 0
M  V30 1156 H 108.633 -3.06218 -5.28264 0
M  V30 1157 H 110.047 -4.5133 -3.53517 0
M  V30 1158 H 108.444 -5.15493 -3.07225 0
M  V30 1159 H 109.514 -4.49321 -1.82316 0
M  V30 1160 N 110.857 0.726932 -1.39834 0
M  V30 1161 C 111.82 1.82269 -1.38962 0
M  V30 1162 C 112.82 1.58248 -0.285334 0
M  V30 1163 O 114.01 1.65499 -0.54366 0
M  V30 1164 C 111.142 3.20186 -1.17019 0
M  V30 1165 H 112.335 1.84443 -2.36476 0
M  V30 1166 H 109.888 0.931416 -1.25516 0
M  V30 1167 H 110.623 3.23669 -0.202204 0
M  V30 1168 H 110.408 3.3902 -1.96998 0
M  V30 1169 H 111.898 4.00235 -1.1917 0
M  V30 1170 N 112.336 1.25143 0.95797 0
M  V30 1171 C 113.566 1.12261 1.73439 0
M  V30 1172 C 113.974 -0.326715 1.86358 0
M  V30 1173 O 113.317 -1.2367 1.35836 0
M  V30 1174 C 113.379 1.69966 3.16784 0
M  V30 1175 C 113.043 3.18936 3.27305 0
M  V30 1176 C 114.04 4.15968 3.11877 0
M  V30 1177 C 111.725 3.59083 3.51234 0
M  V30 1178 C 113.719 5.51126 3.20217 0
M  V30 1179 C 111.406 4.9438 3.5921 0
M  V30 1180 C 112.404 5.90211 3.43716 0
M  V30 1181 O 112.092 7.23046 3.51368 0
M  V30 1182 H 111.824 0.392476 0.550399 0
M  V30 1183 H 114.378 1.65927 1.21068 0
M  V30 1184 H 112.608 1.10744 3.70503 0
M  V30 1185 H 114.297 1.52232 3.76272 0
M  V30 1186 H 115.063 3.86292 2.93264 0
M  V30 1187 H 110.942 2.84989 3.62356 0
M  V30 1188 H 114.486 6.25905 3.0804 0
M  V30 1189 H 110.383 5.23723 3.77339 0
M  V30 1190 H 111.151 7.31097 3.6802 0
M  V30 1191 N 113.814 -1.1601 1.06675 0
M  V30 1192 C 115.091 -1.82679 0.699114 0
M  V30 1193 C 115.471 -1.94559 -0.819137 0
M  V30 1194 O 114.819 -1.49169 -1.73092 0
M  V30 1195 C 115.029 -3.19445 1.40555 0
M  V30 1196 C 116.377 -3.95171 1.55323 0
M  V30 1197 O 117.401 -3.28976 1.36577 0
M  V30 1198 O 116.26 -5.13833 1.86112 0
M  V30 1199 H 113.354 -0.788954 0.247951 0
M  V30 1200 H 115.9 -1.23179 1.16726 0
M  V30 1201 H 114.672 -3.05856 2.44065 0
M  V30 1202 H 114.295 -3.86625 0.927733 0
M  V30 1203 N 115.292 -0.849877 -1.32721 0
M  V30 1204 C 116.24 -0.279745 -2.30912 0
M  V30 1205 C 117.234 0.594278 -1.58634 0
M  V30 1206 O 118.44 0.482613 -1.73409 0
M  V30 1207 H 114.815 -0.0717521 -0.748569 0
M  V30 1208 H 116.786 -1.12222 -2.76494 0
M  V30 1209 C 115.535 0.521108 -3.43773 0
M  V30 1210 H 114.858 -0.142141 -3.99547 0
M  V30 1211 H 116.298 0.885693 -4.14646 0
M  V30 1212 C 114.757 1.70442 -2.90605 0
M  V30 1213 O 115.287 2.8034 -2.87702 0
M  V30 1214 N 113.493 1.52991 -2.47067 0
M  V30 1215 H 113.04 0.635914 -2.49628 0
M  V30 1216 H 112.998 2.32311 -2.11847 0
M  V30 1217 N 116.77 1.45427 -0.607355 0
M  V30 1218 C 118.018 2.01841 -0.102253 0
M  V30 1219 C 118.339 1.47832 1.27164 0
M  V30 1220 O 117.609 0.672497 1.83995 0
M  V30 1221 H 116.189 0.746188 -0.0348101 0
M  V30 1222 H 118.851 1.78229 -0.7887 0
M  V30 1223 H 117.947 3.12057 -0.0518585 0
M  V30 1224 N 118.248 0.346503 1.53744 0
M  V30 1225 C 119.497 -0.250122 2.00143 0
M  V30 1226 C 119.81 -1.51418 1.23822 0
M  V30 1227 O 121.016 -2.18823 1.60713 0
M  V30 1228 C 119.472 -0.496252 3.56462 0
M  V30 1229 C 119.08 0.752077 4.41642 0
M  V30 1230 C 120.824 -1.05157 4.11269 0
M  V30 1231 C 118.731 0.476583 5.89477 0
M  V30 1232 H 117.661 -0.0972409 0.747703 0
M  V30 1233 H 120.312 0.46229 1.77581 0
M  V30 1234 H 118.694 -1.26944 3.75102 0
M  V30 1235 H 119.868 1.5266 4.34778 0
M  V30 1236 H 118.183 1.22925 3.97842 0
M  V30 1237 H 120.78 -1.27269 5.19333 0
M  V30 1238 H 121.123 -2.00799 3.64672 0
M  V30 1239 H 121.656 -0.339019 3.96353 0
M  V30 1240 H 118.395 1.4028 6.40314 0
M  V30 1241 H 117.915 -0.259794 5.99237 0
M  V30 1242 H 119.594 0.0949315 6.4693 0
M  V30 1243 N 119.726 -1.57421 0.075193 0
M  V30 1244 C 120.674 -2.14124 -0.908508 0
M  V30 1245 C 121.668 -1.07898 -1.30592 0
M  V30 1246 O 122.874 -1.26273 -1.28277 0
M  V30 1247 H 119.249 -0.684707 -0.310935 0
M  V30 1248 H 121.22 -2.95634 -0.405374 0
M  V30 1249 C 119.969 -2.72044 -2.16535 0
M  V30 1250 H 119.292 -3.53456 -1.86839 0
M  V30 1251 H 120.732 -3.15311 -2.83469 0
M  V30 1252 C 119.191 -1.66968 -2.92615 0
M  V30 1253 O 119.721 -1.0967 -3.86439 0
M  V30 1254 N 117.927 -1.37923 -2.55784 0
M  V30 1255 H 117.474 -1.84706 -1.79559 0
M  V30 1256 H 117.432 -0.67852 -3.06991 0
M  V30 1257 N 121.204 0.198386 -1.56346 0
M  V30 1258 C 122.134 1.24865 -1.9731 0
M  V30 1259 C 123.115 1.47651 -0.844576 0
M  V30 1260 O 124.3 1.59444 -1.10866 0
M  V30 1261 C 121.43 2.59358 -2.30977 0
M  V30 1262 C 120.384 2.5119 -3.46537 0
M  V30 1263 C 119.71 3.89926 -3.65871 0
M  V30 1264 C 121.01 2.03977 -4.80823 0
M  V30 1265 H 122.704 0.908252 -2.85291 0
M  V30 1266 H 120.25 0.435462 -1.37258 0
M  V30 1267 H 122.203 3.33011 -2.58228 0
M  V30 1268 H 120.927 2.95132 -1.39874 0
M  V30 1269 H 119.586 1.79993 -3.19371 0
M  V30 1270 H 119.234 4.23046 -2.72105 0
M  V30 1271 H 118.934 3.85336 -4.4361 0
M  V30 1272 H 120.458 4.65205 -3.95495 0
M  V30 1273 H 121.872 2.67386 -5.07127 0
M  V30 1274 H 120.269 2.10397 -5.62008 0
M  V30 1275 H 121.339 0.992861 -4.74626 0
M  V30 1276 N 122.682 1.50554 0.465978 0
M  V30 1277 C 123.929 1.61798 1.21768 0
M  V30 1278 C 124.257 0.320696 1.91838 0
M  V30 1279 O 123.512 -0.693724 1.82992 0
M  V30 1280 C 123.811 2.75152 2.28093 0
M  V30 1281 C 123.477 4.15454 1.75239 0
M  V30 1282 C 122.139 4.53628 1.60546 0
M  V30 1283 C 124.491 5.03121 1.36083 0
M  V30 1284 C 121.819 5.77204 1.05128 0
M  V30 1285 C 124.171 6.27249 0.821056 0
M  V30 1286 C 122.835 6.64221 0.660795 0
M  V30 1287 H 122.105 0.592063 0.445582 0
M  V30 1288 H 124.752 1.84503 0.512927 0
M  V30 1289 H 123.057 2.46556 3.04496 0
M  V30 1290 H 124.754 2.81055 2.86023 0
M  V30 1291 H 121.344 3.85341 1.87644 0
M  V30 1292 H 125.528 4.74257 1.46267 0
M  V30 1293 H 120.784 6.0452 0.91462 0
M  V30 1294 H 124.958 6.94537 0.509018 0
M  V30 1295 H 122.585 7.59854 0.229226 0
M  V30 1296 N 124.16 -0.719506 1.40217 0
M  V30 1297 C 125.437 -1.47221 1.28784 0
M  V30 1298 C 125.817 -2.10883 -0.0956067 0
M  V30 1299 O 125.165 -1.99833 -1.10811 0
M  V30 1300 C 125.375 -2.5111 2.42373 0
M  V30 1301 C 126.723 -3.17053 2.82423 0
M  V30 1302 O 127.747 -2.61429 2.41937 0
M  V30 1303 O 126.606 -4.17742 3.52355 0
M  V30 1304 H 123.7 -0.654491 0.50554 0
M  V30 1305 H 126.246 -0.752014 1.52128 0
M  V30 1306 H 125.018 -2.02556 3.34793 0
M  V30 1307 H 124.641 -3.3067 2.20778 0
M  V30 1308 N 125.638 -1.25649 -0.95132 0
M  V30 1309 C 126.866 -1.13343 -1.73092 0
M  V30 1310 C 127.281 0.312434 -1.86197 0
M  V30 1311 O 126.638 1.21465 -1.36207 0
M  V30 1312 C 126.689 -1.78602 -3.14299 0
M  V30 1313 O 126.41 -3.17537 -3.01831 0
M  V30 1314 C 127.911 -1.72119 -4.08522 0
M  V30 1315 H 125.131 -0.395181 -0.542285 0
M  V30 1316 H 127.675 -1.66076 -1.19328 0
M  V30 1317 H 125.83 -1.29832 -3.64996 0
M  V30 1318 H 126.244 -3.49676 -3.90931 0
M  V30 1319 H 127.718 -2.22435 -5.052 0
M  V30 1320 H 128.195 -0.685635 -4.33815 0
M  V30 1321 H 128.801 -2.20393 -3.63741 0
M  V30 1322 N 127.117 1.15442 -1.07289 0
M  V30 1323 C 128.08 2.18358 -0.696591 0
M  V30 1324 C 129.08 1.58637 0.262837 0
M  V30 1325 O 130.27 1.74145 0.0438809 0
M  V30 1326 C 127.402 3.4089 -0.0266151 0
M  V30 1327 H 128.595 2.53162 -1.60776 0
M  V30 1328 H 126.148 1.29893 -0.869342 0
M  V30 1329 H 126.883 3.11653 0.896822 0
M  V30 1330 H 126.668 3.85495 -0.716657 0
M  V30 1331 H 128.158 4.17009 0.222028 0
M  V30 1332 N 128.595 0.856903 1.32268 0
M  V30 1333 C 129.505 0.306131 2.32594 0
M  V30 1334 C 130.521 -0.577209 1.64147 0
M  V30 1335 O 131.697 -0.477043 1.95669 0
M  V30 1336 C 128.762 -0.494561 3.43154 0
M  V30 1337 C 127.823 0.415186 4.27288 0
M  V30 1338 C 127.056 -0.347387 5.32568 0
M  V30 1339 O 127.279 -1.57708 5.48165 0
M  V30 1340 O 126.213 0.287982 6.01211 0
M  V30 1341 H 130.039 1.13737 2.81598 0
M  V30 1342 H 127.624 0.619902 1.35932 0
M  V30 1343 H 129.506 -0.948944 4.10576 0
M  V30 1344 H 128.181 -1.30257 2.96336 0
M  V30 1345 H 127.088 0.917793 3.62667 0
M  V30 1346 H 128.421 1.18844 4.77637 0
M  V30 1347 N 130.073 -1.45103 0.615059 0
M  V30 1348 C 131.319 -2.02483 0.113347 0
M  V30 1349 C 131.652 -1.48146 -1.25564 0
M  V30 1350 O 130.927 -0.659104 -1.82992 0
M  V30 1351 C 131.21 -3.60005 0.0825278 0
M  V30 1352 C 131.063 -4.2466 1.48271 0
M  V30 1353 C 132.382 -4.35972 -0.601401 0
M  V30 1354 H 129.501 -0.735764 0.0426632 0
M  V30 1355 H 132.143 -1.72868 0.788461 0
M  V30 1356 H 130.293 -3.85367 -0.492378 0
M  V30 1357 H 131.965 -4.10458 2.10527 0
M  V30 1358 H 130.208 -3.82772 2.04127 0
M  V30 1359 H 130.879 -5.336 1.41332 0
M  V30 1360 H 133.355 -4.15947 -0.112666 0
M  V30 1361 H 132.231 -5.45697 -0.592097 0
M  V30 1362 H 132.492 -4.09391 -1.66887 0
M  V30 1363 N 131.551 -0.354651 -1.53558 0
M  V30 1364 C 132.781 0.239167 -2.05211 0
M  V30 1365 C 133.189 1.43879 -1.22863 0
M  V30 1366 O 132.532 1.81857 -0.259565 0
M  V30 1367 C 132.594 0.707251 -3.52474 0
M  V30 1368 C 132.258 -0.374212 -4.55465 0
M  V30 1369 C 133.255 -1.22054 -5.0537 0
M  V30 1370 C 130.94 -0.531323 -4.99482 0
M  V30 1371 C 132.934 -2.20942 -5.97882 0
M  V30 1372 C 130.621 -1.52358 -5.91802 0
M  V30 1373 C 131.619 -2.36108 -6.40892 0
M  V30 1374 O 131.307 -3.33643 -7.31394 0
M  V30 1375 H 131.039 0.0479716 -0.674296 0
M  V30 1376 H 133.593 -0.508121 -1.99016 0
M  V30 1377 H 131.823 1.50596 -3.56171 0
M  V30 1378 H 133.512 1.22285 -3.87042 0
M  V30 1379 H 134.278 -1.1103 -4.7212 0
M  V30 1380 H 130.157 0.110738 -4.60867 0
M  V30 1381 H 133.701 -2.86348 -6.36121 0
M  V30 1382 H 129.598 -1.63434 -6.24467 0
M  V30 1383 H 130.366 -3.29244 -7.4936 0
M  V30 1384 N 133.029 1.57378 -0.0835403 0
M  V30 1385 C 133.992 2.12252 0.864959 0
M  V30 1386 C 134.992 1.04916 1.21858 0
M  V30 1387 O 136.182 1.30853 1.14991 0
M  V30 1388 C 133.314 2.63358 2.16461 0
M  V30 1389 H 134.507 2.97371 0.388676 0
M  V30 1390 H 132.06 1.55423 0.165317 0
M  V30 1391 H 132.795 1.81727 2.686 0
M  V30 1392 H 132.58 3.41826 1.92087 0
M  V30 1393 H 134.07 3.05847 2.84337 0
M  V30 1394 N 134.507 -0.190092 1.56449 0
M  V30 1395 C 135.47 -1.21925 1.9408 0
M  V30 1396 C 136.47 -1.38176 0.822431 0
M  V30 1397 O 137.66 -1.35903 1.08977 0
M  V30 1398 C 134.792 -2.58773 2.21922 0
M  V30 1399 H 135.985 -0.897464 2.86157 0
M  V30 1400 H 133.538 -0.43181 1.50217 0
M  V30 1401 H 134.273 -2.95998 1.32499 0
M  V30 1402 H 134.058 -2.48348 3.03424 0
M  V30 1403 H 135.548 -3.32978 2.52022 0
M  V30 1404 N 135.985 -1.50799 -0.457987 0
M  V30 1405 C 137.233 -1.62121 -1.2067 0
M  V30 1406 C 137.554 -0.329793 -1.92191 0
M  V30 1407 O 136.824 0.653409 -1.84682 0
M  V30 1408 H 135.404 -0.597441 -0.448411 0
M  V30 1409 H 138.066 -1.87637 -0.527096 0
M  V30 1410 H 137.162 -2.43882 -1.94751 0
M  V30 1411 N 137.463 0.71206 -1.40597 0
M  V30 1412 C 138.41 1.82613 -1.41142 0
M  V30 1413 C 139.38 1.63925 -0.267903 0
M  V30 1414 O 140.565 1.85009 -0.466495 0
M  V30 1415 C 137.705 3.20354 -1.28324 0
M  V30 1416 C 136.818 3.50589 -2.52411 0
M  V30 1417 C 135.953 4.77855 -2.32009 0
M  V30 1418 C 134.992 5.01005 -3.51654 0
M  V30 1419 N 134.129 6.19487 -3.30425 0
M  V30 1420 H 138.969 1.81482 -2.36365 0
M  V30 1421 H 136.506 0.886475 -1.17388 0
M  V30 1422 H 138.464 3.99899 -1.18899 0
M  V30 1423 H 137.094 3.20705 -0.367189 0
M  V30 1424 H 136.146 2.65573 -2.72351 0
M  V30 1425 H 137.458 3.63604 -3.41458 0
M  V30 1426 H 136.612 5.65424 -2.19956 0
M  V30 1427 H 135.351 4.67056 -1.40392 0
M  V30 1428 H 134.356 4.1189 -3.64179 0
M  V30 1429 H 135.581 5.13674 -4.44202 0
M  V30 1430 H 133.527 6.09932 -2.41494 0
M  V30 1431 H 133.444 6.33194 -4.13039 0
M  V30 1432 H 134.712 7.09834 -3.22113 0
M  V30 1433 N 138.941 1.26152 0.944643 0
M  V30 1434 C 139.904 1.07474 2.0244 0
M  V30 1435 C 140.904 0.0242064 1.60782 0
M  V30 1436 O 142.094 0.267302 1.72137 0
M  V30 1437 C 139.226 0.633956 3.34953 0
M  V30 1438 H 140.419 2.03336 2.20442 0
M  V30 1439 H 137.972 1.087 1.12312 0
M  V30 1440 H 138.707 -0.326811 3.22649 0
M  V30 1441 H 138.492 1.39247 3.66542 0
M  V30 1442 H 139.982 0.52501 4.14287 0
M  V30 1443 N 140.419 -1.14872 1.07899 0
M  V30 1444 C 141.329 -2.2341 0.715915 0
M  V30 1445 C 142.345 -1.71808 -0.275306 0
M  V30 1446 O 143.521 -2.01039 -0.120545 0
M  V30 1447 C 140.586 -3.46474 0.125168 0
M  V30 1448 C 139.647 -4.13039 1.17034 0
M  V30 1449 C 138.88 -5.30229 0.607688 0
M  V30 1450 O 139.103 -5.675 -0.574497 0
M  V30 1451 O 138.037 -5.86444 1.35526 0
M  V30 1452 H 141.863 -2.56808 1.62121 0
M  V30 1453 H 139.448 -1.22702 0.852322 0
M  V30 1454 H 141.33 -4.20917 -0.201729 0
M  V30 1455 H 140.005 -3.14811 -0.753364 0
M  V30 1456 H 138.912 -3.40493 1.54968 0
M  V30 1457 H 140.245 -4.48796 2.02097 0
M  V30 1458 N 141.898 -0.863906 -1.31812 0
M  V30 1459 C 143.144 -0.472535 -1.97218 0
M  V30 1460 C 143.477 0.971394 -1.68159 0
M  V30 1461 O 142.752 1.68309 -0.974798 0
M  V30 1462 C 143.035 -0.723054 -3.52766 0
M  V30 1463 C 142.888 -2.21608 -3.91421 0
M  V30 1464 C 144.207 -0.185522 -4.39709 0
M  V30 1465 H 141.326 -0.173158 -0.71637 0
M  V30 1466 H 143.968 -1.08403 -1.56041 0
M  V30 1467 H 142.118 -0.202577 -3.87971 0
M  V30 1468 H 143.79 -2.80334 -3.66347 0
M  V30 1469 H 142.033 -2.691 -3.40246 0
M  V30 1470 H 142.704 -2.34203 -4.99853 0
M  V30 1471 H 145.18 -0.630726 -4.11292 0
M  V30 1472 H 144.056 -0.390306 -5.47511 0
M  V30 1473 H 144.317 0.912229 -4.32586 0
M  V30 1474 N 143.376 1.44774 -0.622745 0
M  V30 1475 C 144.622 2.0242 -0.124083 0
M  V30 1476 C 144.955 1.4881 1.24777 0
M  V30 1477 O 144.23 0.668799 1.8264 0
M  V30 1478 C 144.513 3.59957 -0.101619 0
M  V30 1479 C 144.366 4.23867 -1.50521 0
M  V30 1480 C 145.685 4.36284 0.578272 0
M  V30 1481 H 142.804 0.735528 -0.0465645 0
M  V30 1482 H 145.446 1.72447 -0.797617 0
M  V30 1483 H 143.596 3.85623 0.471934 0
M  V30 1484 H 145.268 4.09336 -2.12701 0
M  V30 1485 H 143.511 3.81684 -2.06154 0
M  V30 1486 H 144.182 5.32843 -1.4416 0
M  V30 1487 H 146.658 4.16001 0.0906057 0
M  V30 1488 H 145.534 5.46004 0.563149 0
M  V30 1489 H 145.795 4.10271 1.64713 0
M  V30 1490 N 144.854 0.36279 1.53368 0
M  V30 1491 C 145.784 -0.476976 2.28576 0
M  V30 1492 C 146.765 -1.08631 1.30894 0
M  V30 1493 O 147.95 -1.10409 1.59761 0
M  V30 1494 C 145.08 -1.61828 3.07293 0
M  V30 1495 C 144.034 -1.13633 4.1264 0
M  V30 1496 C 143.36 -2.36766 4.79423 0
M  V30 1497 C 144.66 -0.223061 5.21823 0
M  V30 1498 H 146.354 0.150474 2.99022 0
M  V30 1499 H 143.9 0.0738103 1.43811 0
M  V30 1500 H 145.853 -2.21237 3.58653 0
M  V30 1501 H 144.577 -2.27292 2.34533 0
M  V30 1502 H 143.236 -0.564945 3.62221 0
M  V30 1503 H 142.884 -3.0068 4.03238 0
M  V30 1504 H 142.584 -2.05192 5.50609 0
M  V30 1505 H 144.108 -2.96865 5.33576 0
M  V30 1506 H 145.522 -0.724545 5.68703 0
M  V30 1507 H 143.919 0.001678 6.001 0
M  V30 1508 H 144.989 0.735553 4.79289 0
M  V30 1509 N 146.332 -1.57332 0.0918853 0
M  V30 1510 C 147.58 -1.93853 -0.571446 0
M  V30 1511 C 147.901 -0.974212 -1.6892 0
M  V30 1512 O 147.171 -0.0257254 -1.95883 0
M  V30 1513 H 145.751 -0.715666 -0.214082 0
M  V30 1514 H 148.413 -1.94287 0.154464 0
M  V30 1515 H 147.509 -2.96191 -0.983729 0
M  V30 1516 N 147.81 0.181792 -1.56548 0
M  V30 1517 C 148.758 1.24461 -1.965 0
M  V30 1518 C 149.752 1.464 -0.852261 0
M  V30 1519 O 150.958 1.47103 -1.03733 0
M  V30 1520 H 147.333 0.418138 -0.625031 0
M  V30 1521 H 149.304 0.880714 -2.85107 0
M  V30 1522 C 148.053 2.57891 -2.33212 0
M  V30 1523 H 147.376 2.41829 -3.18369 0
M  V30 1524 H 148.816 3.3097 -2.65019 0
M  V30 1525 C 147.275 3.15871 -1.17163 0
M  V30 1526 O 147.805 3.9913 -0.453708 0
M  V30 1527 N 146.011 2.74808 -0.944936 0
M  V30 1528 H 145.558 2.07205 -1.53049 0
M  V30 1529 H 145.516 3.13939 -0.170286 0
M  V30 1530 N 149.288 1.51039 0.449983 0
M  V30 1531 C 150.537 1.62317 1.19733 0
M  V30 1532 C 150.85 0.339101 1.92638 0
M  V30 1533 O 152.056 0.331069 2.69474 0
M  V30 1534 C 150.512 2.86608 2.17678 0
M  V30 1535 C 150.12 4.21972 1.50479 0
M  V30 1536 C 151.864 3.07239 2.92924 0
M  V30 1537 C 149.771 5.37426 2.46834 0
M  V30 1538 H 148.701 0.604532 0.450619 0
M  V30 1539 H 151.352 1.77494 0.465625 0
M  V30 1540 H 149.734 2.65037 2.94231 0
M  V30 1541 H 150.908 4.53878 0.795716 0
M  V30 1542 H 149.223 4.07117 0.874344 0
M  V30 1543 H 151.82 3.90668 3.65079 0
M  V30 1544 H 152.163 2.19807 3.5354 0
M  V30 1545 H 152.696 3.29091 2.23481 0
M  V30 1546 H 149.435 6.27079 1.90926 0
M  V30 1547 H 148.955 5.09912 3.15832 0
M  V30 1548 H 150.634 5.68862 3.08228 0
M  V30 1549 N 150.766 -0.704594 1.40972 0
M  V30 1550 C 152.015 -1.46018 1.39146 0
M  V30 1551 C 152.328 -1.956 0.000589254 0
M  V30 1552 O 153.534 -2.71137 -0.1403 0
M  V30 1553 C 151.99 -2.63996 2.4461 0
M  V30 1554 C 151.598 -2.21238 3.89561 0
M  V30 1555 C 153.342 -3.41677 2.51907 0
M  V30 1556 C 151.249 -3.3612 4.86598 0
M  V30 1557 H 150.179 -0.548444 0.517422 0
M  V30 1558 H 152.83 -0.765784 1.66757 0
M  V30 1559 H 151.212 -3.3566 2.10115 0
M  V30 1560 H 152.386 -1.56923 4.33257 0
M  V30 1561 H 150.701 -1.56574 3.85841 0
M  V30 1562 H 153.298 -4.27182 3.2159 0
M  V30 1563 H 153.641 -3.86247 1.55303 0
M  V30 1564 H 154.174 -2.77064 2.85448 0
M  V30 1565 H 150.913 -2.96572 5.84573 0
M  V30 1566 H 150.433 -3.99315 4.47557 0
M  V30 1567 H 152.112 -4.02029 5.06934 0
M  V30 1568 N 152.244 -1.26651 -0.937939 0
M  V30 1569 C 153.191 -1.0849 -2.03712 0
M  V30 1570 C 154.161 0.011033 -1.66096 0
M  V30 1571 O 155.346 -0.149353 -1.90215 0
M  V30 1572 C 152.486 -0.72735 -3.37348 0
M  V30 1573 C 151.599 -1.89986 -3.87981 0
M  V30 1574 C 150.734 -1.48513 -5.10017 0
M  V30 1575 C 149.773 -2.62575 -5.5292 0
M  V30 1576 N 148.91 -2.21762 -6.66158 0
M  V30 1577 H 153.75 -2.02551 -2.18579 0
M  V30 1578 H 151.287 -1.00844 -1.07093 0
M  V30 1579 H 153.245 -0.50092 -4.14182 0
M  V30 1580 H 151.875 0.176298 -3.22318 0
M  V30 1581 H 150.927 -2.23913 -3.07518 0
M  V30 1582 H 152.239 -2.75586 -4.15757 0
M  V30 1583 H 151.393 -1.21934 -5.94321 0
M  V30 1584 H 150.132 -0.60009 -4.83994 0
M  V30 1585 H 149.137 -2.8988 -4.67172 0
M  V30 1586 H 150.362 -3.51685 -5.80943 0
M  V30 1587 H 148.308 -1.35696 -6.41812 0
M  V30 1588 H 148.225 -3.00903 -6.93537 0
M  V30 1589 H 149.493 -1.98403 -7.53828 0
M  V30 1590 N 153.722 1.14298 -1.08507 0
M  V30 1591 C 154.669 2.19414 -0.715965 0
M  V30 1592 C 155.639 1.63399 0.298326 0
M  V30 1593 O 156.824 1.89929 0.182101 0
M  V30 1594 C 153.964 3.44845 -0.132534 0
M  V30 1595 C 153.077 4.15007 -1.19973 0
M  V30 1596 C 152.212 5.28024 -0.580048 0
M  V30 1597 C 151.251 5.9002 -1.62921 0
M  V30 1598 N 150.388 6.94485 -1.03125 0
M  V30 1599 H 155.228 2.50336 -1.61666 0
M  V30 1600 H 152.765 1.2293 -0.807882 0
M  V30 1601 H 154.723 4.16601 0.223454 0
M  V30 1602 H 153.353 3.14403 0.731467 0
M  V30 1603 H 152.405 3.41629 -1.67313 0
M  V30 1604 H 153.717 4.57178 -1.99473 0
M  V30 1605 H 152.871 6.06455 -0.172364 0
M  V30 1606 H 151.61 4.87076 0.246603 0
M  V30 1607 H 150.615 5.10291 -2.04654 0
M  V30 1608 H 151.84 6.33042 -2.45835 0
M  V30 1609 H 149.786 6.55612 -0.225711 0
M  V30 1610 H 149.703 7.35148 -1.76334 0
M  V30 1611 H 150.971 7.7679 -0.649458 0
M  V30 1612 N 155.201 0.870884 1.31352 0
M  V30 1613 C 156.148 0.325425 2.28494 0
M  V30 1614 C 157.118 -0.576615 1.5577 0
M  V30 1615 O 158.303 -0.508059 1.83911 0
M  V30 1616 C 155.443 -0.466283 3.41935 0
M  V30 1617 C 154.556 0.463378 4.29508 0
M  V30 1618 C 153.691 -0.342544 5.30094 0
M  V30 1619 C 152.73 0.583486 6.09313 0
M  V30 1620 N 151.867 -0.186244 7.01853 0
M  V30 1621 H 156.707 1.15901 2.74538 0
M  V30 1622 H 154.244 0.58294 1.35056 0
M  V30 1623 H 156.202 -0.941085 4.06447 0
M  V30 1624 H 154.832 -1.26456 2.97 0
M  V30 1625 H 153.884 1.05663 3.65431 0
M  V30 1626 H 155.196 1.1734 4.84802 0
M  V30 1627 H 154.35 -0.879816 6.00287 0
M  V30 1628 H 153.089 -1.08585 4.75458 0
M  V30 1629 H 152.094 1.13251 5.3801 0
M  V30 1630 H 153.319 1.32566 6.66035 0
M  V30 1631 H 151.265 -0.912348 6.49625 0
M  V30 1632 H 151.182 0.464422 7.54572 0
M  V30 1633 H 152.45 -0.704716 7.76308 0
M  V30 1634 N 156.679 -1.44442 0.630414 0
M  V30 1635 C 157.927 -2.01653 0.134351 0
M  V30 1636 C 158.248 -1.49836 -1.24796 0
M  V30 1637 O 157.518 -0.701684 -1.82902 0
M  V30 1638 H 156.098 -0.74554 0.0466769 0
M  V30 1639 H 158.76 -1.76952 0.816955 0
M  V30 1640 H 157.856 -3.11935 0.101498 0
M  V30 1641 N 158.157 -0.370918 -1.53173 0
M  V30 1642 C 159.403 0.209976 -2.02313 0
M  V30 1643 C 159.758 1.45987 -1.25322 0
M  V30 1644 O 159.051 1.8856 -0.339965 0
M  V30 1645 C 159.245 0.549696 -3.53147 0
M  V30 1646 C 159.074 -0.665721 -4.44745 0
M  V30 1647 C 157.844 -1.17942 -4.91343 0
M  V30 1648 C 160.042 -1.53255 -4.90935 0
M  V30 1649 N 158.024 -2.35431 -5.66962 0
M  V30 1650 C 159.395 -2.55403 -5.64951 0
M  V30 1651 C 161.45 -1.5548 -4.73002 0
M  V30 1652 C 160.153 -3.5964 -6.22938 0
M  V30 1653 C 162.179 -2.58613 -5.31858 0
M  V30 1654 C 161.541 -3.59485 -6.05764 0
M  V30 1655 H 157.64 0.0394095 -0.781006 0
M  V30 1656 H 160.224 -0.516666 -1.8772 0
M  V30 1657 H 158.395 1.24541 -3.67891 0
M  V30 1658 H 160.127 1.11614 -3.89004 0
M  V30 1659 H 156.882 -0.743228 -4.67732 0
M  V30 1660 H 157.306 -2.94827 -6.09431 0
M  V30 1661 H 161.948 -0.788457 -4.15383 0
M  V30 1662 H 159.666 -4.37153 -6.79649 0
M  V30 1663 H 163.252 -2.61195 -5.19873 0
M  V30 1664 H 162.132 -4.3798 -6.50495 0
M  V30 1665 N 159.635 1.57281 -0.100228 0
M  V30 1666 C 161.051 1.57527 0.256416 0
M  V30 1667 C 161.251 1.11173 1.68056 0
M  V30 1668 O 160.307 0.79053 2.39806 0
M  V30 1669 C 161.62 3.00673 0.0401747 0
M  V30 1670 C 163.168 3.12815 0.107528 0
M  V30 1671 C 163.643 4.57929 -0.0807834 0
M  V30 1672 N 165.134 4.63193 -0.0261207 0
M  V30 1673 C 165.869 5.73212 -0.146999 0
M  V30 1674 N 165.365 6.92047 -0.322999 0
M  V30 1675 N 167.158 5.62031 -0.0879044 0
M  V30 1676 H 159.309 1.85718 -1.03065 0
M  V30 1677 H 161.572 0.857446 -0.404339 0
M  V30 1678 H 161.278 3.38804 -0.943649 0
M  V30 1679 H 161.152 3.69042 0.780262 0
M  V30 1680 H 163.539 2.74554 1.08186 0
M  V30 1681 H 163.62 2.47028 -0.664134 0
M  V30 1682 H 163.264 4.96886 -1.05201 0
M  V30 1683 H 163.194 5.21783 0.710635 0
M  V30 1684 H 165.685 3.77748 0.107161 0
M  V30 1685 H 165.998 7.7173 -0.406608 0
M  V30 1686 H 164.343 6.94074 -0.358733 0
M  V30 1687 H 167.534 4.68075 0.048498 0
M  V30 1688 H 167.707 6.47734 -0.185557 0
M  V30 1689 N 161.113 -0.173488 1.56642 0
M  V30 1690 C 162.529 -0.525174 1.50712 0
M  V30 1691 C 162.729 -1.8476 0.804107 0
M  V30 1692 O 161.785 -2.49869 0.363574 0
M  V30 1693 C 163.098 -0.559937 2.95441 0
M  V30 1694 C 164.646 -0.647288 3.06234 0
M  V30 1695 C 165.121 -0.712963 4.52417 0
M  V30 1696 N 166.612 -0.775911 4.56655 0
M  V30 1697 C 167.347 -0.847264 5.67106 0
M  V30 1698 N 166.843 -0.879585 6.87194 0
M  V30 1699 N 168.636 -0.886117 5.55071 0
M  V30 1700 H 160.787 0.693681 2.00753 0
M  V30 1701 H 163.05 0.249841 0.914485 0
M  V30 1702 H 162.756 0.343049 3.50023 0
M  V30 1703 H 162.63 -1.40718 3.49969 0
M  V30 1704 H 165.017 -1.5407 2.51687 0
M  V30 1705 H 165.098 0.226586 2.54794 0
M  V30 1706 H 164.742 0.176183 5.07594 0
M  V30 1707 H 164.672 -1.60295 5.0161 0
M  V30 1708 H 167.163 -0.759304 3.70193 0
M  V30 1709 H 167.476 -0.935144 7.67121 0
M  V30 1710 H 165.821 -0.847898 6.89808 0
M  V30 1711 H 169.012 -0.857853 4.60172 0
M  V30 1712 H 169.185 -0.938263 6.41171 0
M  V30 1713 N 162.591 -1.51276 -0.441967 0
M  V30 1714 C 163.816 -1.67799 -1.21895 0
M  V30 1715 C 164.241 -0.372864 -1.84367 0
M  V30 1716 O 163.599 0.666501 -1.68604 0
M  V30 1717 C 163.647 -2.79199 -2.28211 0
M  V30 1718 O 162.751 -2.42479 -3.33583 0
M  V30 1719 H 162.092 -0.559649 -0.357336 0
M  V30 1720 H 164.622 -1.97815 -0.522522 0
M  V30 1721 H 164.632 -3.03146 -2.73069 0
M  V30 1722 H 163.307 -3.73906 -1.82118 0
M  V30 1723 H 161.884 -2.29087 -2.94234 0
M  V30 1724 N 164.069 0.697108 -1.41344 0
M  V30 1725 C 165.294 1.49096 -1.44171 0
M  V30 1726 C 165.719 1.88038 -0.0481568 0
M  V30 1727 O 165.077 1.54525 0.948243 0
M  V30 1728 C 165.125 2.73088 -2.3549 0
M  V30 1729 O 164.229 3.70514 -1.81088 0
M  V30 1730 H 163.57 0.448801 -0.489361 0
M  V30 1731 H 166.1 0.856992 -1.85787 0
M  V30 1732 H 166.11 3.21413 -2.51312 0
M  V30 1733 H 164.785 2.44081 -3.36745 0
M  V30 1734 H 163.362 3.29441 -1.74708 0
M  V30 1735 N 165.547 1.27147 0.931209 0
M  V30 1736 C 166.477 1.12081 2.04842 0
M  V30 1737 C 167.458 0.0232364 1.70084 0
M  V30 1738 O 168.643 0.197085 1.93197 0
M  V30 1739 C 165.773 0.76354 3.38803 0
M  V30 1740 C 164.727 1.81396 3.87659 0
M  V30 1741 C 164.053 1.31075 5.18385 0
M  V30 1742 C 165.353 3.21739 4.11438 0
M  V30 1743 H 167.047 2.05537 2.17703 0
M  V30 1744 H 164.593 0.989603 1.04608 0
M  V30 1745 H 166.546 0.644982 4.16435 0
M  V30 1746 H 165.27 -0.206727 3.25945 0
M  V30 1747 H 163.929 1.92136 3.12217 0
M  V30 1748 H 163.577 0.330037 5.01916 0
M  V30 1749 H 163.277 2.013 5.52044 0
M  V30 1750 H 164.801 1.20506 5.98591 0
M  V30 1751 H 166.215 3.14019 4.79651 0
M  V30 1752 H 164.612 3.89644 4.56397 0
M  V30 1753 H 165.682 3.67054 3.16859 0
M  V30 1754 N 167.025 -1.13721 1.09112 0
M  V30 1755 C 168.271 -1.85198 0.826414 0
M  V30 1756 C 168.604 -1.83129 -0.646319 0
M  V30 1757 O 167.879 -1.2671 -1.47563 0
M  V30 1758 C 168.162 -3.33507 1.35812 0
M  V30 1759 C 168.015 -3.44108 2.89672 0
M  V30 1760 C 169.334 -4.28838 0.989256 0
M  V30 1761 H 166.453 -0.67243 0.301675 0
M  V30 1762 H 169.095 -1.33499 1.35197 0
M  V30 1763 H 167.245 -3.77666 0.911082 0
M  V30 1764 H 168.917 -3.08684 3.428 0
M  V30 1765 H 167.16 -2.85087 3.26967 0
M  V30 1766 H 167.831 -4.48388 3.21951 0
M  V30 1767 H 170.307 -3.92734 1.37475 0
M  V30 1768 H 169.183 -5.31051 1.38838 0
M  V30 1769 H 169.444 -4.4198 -0.102924 0
M  V30 1770 N 168.503 -0.877838 -1.30888 0
M  V30 1771 C 169.752 -0.488793 -1.95688 0
M  V30 1772 C 170.065 0.965485 -1.70111 0
M  V30 1773 O 171.271 1.46104 -2.28836 0
M  V30 1774 C 169.727 -0.823201 -3.50359 0
M  V30 1775 C 169.335 -2.29477 -3.84765 0
M  V30 1776 C 171.079 -0.503009 -4.21509 0
M  V30 1777 C 168.986 -2.57118 -5.32583 0
M  V30 1778 H 167.916 -0.179062 -0.732429 0
M  V30 1779 H 170.567 -1.07183 -1.48943 0
M  V30 1780 H 168.949 -0.169331 -3.95638 0
M  V30 1781 H 170.123 -2.99236 -3.5042 0
M  V30 1782 H 168.438 -2.58178 -3.267 0
M  V30 1783 H 171.035 -0.68665 -5.30273 0
M  V30 1784 H 171.378 0.557109 -4.12555 0
M  V30 1785 H 171.911 -1.11376 -3.8189 0
M  V30 1786 H 168.65 -3.61843 -5.4658 0
M  V30 1787 H 168.17 -1.91961 -5.68253 0
M  V30 1788 H 169.849 -2.42251 -5.99936 0
M  V30 1789 N 169.982 1.44106 -0.638065 0
M  V30 1790 C 171.21 2.06336 -0.152615 0
M  V30 1791 C 171.625 1.47731 1.17563 0
M  V30 1792 O 170.982 0.602806 1.72257 0
M  V30 1793 C 171.033 3.61479 -0.0391491 0
M  V30 1794 O 170.754 4.17903 -1.31487 0
M  V30 1795 C 172.255 4.40757 0.474176 0
M  V30 1796 H 169.475 0.665862 -0.0828776 0
M  V30 1797 H 172.019 1.84862 -0.87443 0
M  V30 1798 H 170.174 3.82191 0.633142 0
M  V30 1799 H 170.588 5.11416 -1.16421 0
M  V30 1800 H 172.062 5.49707 0.502562 0
M  V30 1801 H 172.539 4.12697 1.50258 0
M  V30 1802 H 173.145 4.24979 -0.165102 0
M  V30 1803 N 171.46 0.379036 1.52974 0
M  V30 1804 C 172.688 -0.20679 2.05864 0
M  V30 1805 C 173.103 -1.41356 1.25155 0
M  V30 1806 O 172.46 -1.8009 0.295588 0
M  V30 1807 C 172.511 -0.587045 3.56702 0
M  V30 1808 O 172.232 0.571776 4.34353 0
M  V30 1809 C 173.733 -1.22983 4.25899 0
M  V30 1810 H 170.953 -0.0336123 0.670158 0
M  V30 1811 H 173.497 0.541298 1.97206 0
M  V30 1812 H 171.652 -1.28504 3.65466 0
M  V30 1813 H 172.066 0.261544 5.23847 0
M  V30 1814 H 173.54 -1.44635 5.32715 0
M  V30 1815 H 174.017 -2.19416 3.80465 0
M  V30 1816 H 174.623 -0.572892 4.21424 0
M  V30 1817 N 172.938 -1.57226 0.108567 0
M  V30 1818 C 173.885 -2.14756 -0.845481 0
M  V30 1819 C 174.855 -1.06971 -1.27068 0
M  V30 1820 O 176.04 -1.34827 -1.35005 0
M  V30 1821 C 173.18 -2.74298 -2.09415 0
M  V30 1822 C 172.293 -3.96358 -1.71826 0
M  V30 1823 C 171.428 -4.44021 -2.9158 0
M  V30 1824 C 170.467 -5.58637 -2.50181 0
M  V30 1825 N 169.604 -6.01091 -3.62814 0
M  V30 1826 H 174.444 -2.95961 -0.348035 0
M  V30 1827 H 171.981 -1.46226 -0.160106 0
M  V30 1828 H 173.939 -3.06945 -2.82561 0
M  V30 1829 H 172.569 -1.95801 -2.56636 0
M  V30 1830 H 171.621 -3.69939 -0.885947 0
M  V30 1831 H 172.933 -4.79504 -1.37394 0
M  V30 1832 H 172.087 -4.78522 -3.72963 0
M  V30 1833 H 170.826 -3.59803 -3.29231 0
M  V30 1834 H 169.831 -5.23751 -1.67228 0
M  V30 1835 H 171.056 -6.44613 -2.13659 0
M  V30 1836 H 169.002 -5.19817 -4.00158 0
M  V30 1837 H 168.919 -6.79066 -3.32273 0
M  V30 1838 H 170.187 -6.40227 -4.44668 0
M  V30 1839 N 174.416 0.165178 -1.56732 0
M  V30 1840 C 175.665 0.879143 -1.81532 0
M  V30 1841 C 175.978 1.83144 -0.686842 0
M  V30 1842 O 177.184 2.58823 -0.819944 0
M  V30 1843 C 175.64 1.61388 -3.21686 0
M  V30 1844 C 175.248 0.704904 -4.4242 0
M  V30 1845 C 176.992 2.3157 -3.55774 0
M  V30 1846 C 174.899 1.44022 -5.73595 0
M  V30 1847 H 173.829 0.332033 -0.676957 0
M  V30 1848 H 176.48 0.132008 -1.83025 0
M  V30 1849 H 174.862 2.40599 -3.14529 0
M  V30 1850 H 176.036 -0.0506815 -4.60772 0
M  V30 1851 H 174.351 0.112419 -4.16248 0
M  V30 1852 H 176.948 2.8719 -4.51028 0
M  V30 1853 H 177.291 3.07201 -2.8095 0
M  V30 1854 H 177.824 1.59297 -3.64513 0
M  V30 1855 H 174.563 0.72612 -6.51466 0
M  V30 1856 H 174.083 2.16898 -5.5921 0
M  V30 1857 H 175.762 1.98606 -6.15764 0
M  V30 1858 N 175.894 1.51508 0.433938 0
M  V30 1859 C 177.141 1.64345 1.18309 0
M  V30 1860 C 177.469 0.361315 1.91115 0
M  V30 1861 O 176.724 -0.654753 1.84422 0
M  V30 1862 C 177.023 2.79928 2.22205 0
M  V30 1863 C 176.689 4.19078 1.66387 0
M  V30 1864 C 175.351 4.56932 1.50887 0
M  V30 1865 C 177.703 5.05894 1.25381 0
M  V30 1866 C 175.031 5.79305 0.928608 0
M  V30 1867 C 177.383 6.2885 0.687823 0
M  V30 1868 C 176.047 6.65473 0.519755 0
M  V30 1869 H 175.317 0.601381 0.432923 0
M  V30 1870 H 177.964 1.85549 0.473676 0
M  V30 1871 H 176.269 2.52959 2.99197 0
M  V30 1872 H 177.966 2.87059 2.79997 0
M  V30 1873 H 174.556 3.89234 1.79428 0
M  V30 1874 H 178.74 4.77253 1.36175 0
M  V30 1875 H 173.996 6.06324 0.786186 0
M  V30 1876 H 178.17 6.95461 0.361581 0
M  V30 1877 H 175.797 7.6017 0.0679979 0
M  V30 1878 N 177.372 -0.689602 1.41712 0
M  V30 1879 C 178.618 -1.45041 1.42599 0
M  V30 1880 C 178.973 -1.92366 0.0363764 0
M  V30 1881 O 178.266 -1.67022 -0.938844 0
M  V30 1882 C 178.46 -2.67298 2.37247 0
M  V30 1883 C 178.289 -2.31935 3.85274 0
M  V30 1884 C 177.059 -2.2201 4.53916 0
M  V30 1885 C 179.257 -1.94526 4.76093 0
M  V30 1886 N 177.239 -1.79594 5.87043 0
M  V30 1887 C 178.61 -1.62915 5.98213 0
M  V30 1888 C 180.665 -1.81388 4.63684 0
M  V30 1889 C 179.368 -1.19486 7.09306 0
M  V30 1890 C 181.394 -1.39364 5.74745 0
M  V30 1891 C 180.756 -1.08668 6.95967 0
M  V30 1892 H 176.855 -0.527806 0.577014 0
M  V30 1893 H 179.439 -0.797266 1.77628 0
M  V30 1894 H 177.61 -3.30325 2.04304 0
M  V30 1895 H 179.342 -3.33806 2.28814 0
M  V30 1896 H 176.097 -2.406 4.07932 0
M  V30 1897 H 176.521 -1.60851 6.57614 0
M  V30 1898 H 181.163 -2.03772 3.70455 0
M  V30 1899 H 178.881 -0.958477 8.02396 0
M  V30 1900 H 182.467 -1.2974 5.6715 0
M  V30 1901 H 181.347 -0.766417 7.80446 0
M  V30 1902 N 178.85 -1.27639 -0.924453 0
M  V30 1903 C 180.098 -1.13941 -1.66918 0
M  V30 1904 C 180.419 0.314589 -1.92446 0
M  V30 1905 O 179.689 1.21964 -1.53303 0
M  V30 1906 H 178.269 -0.418678 -0.618642 0
M  V30 1907 H 180.931 -1.60213 -1.10985 0
M  V30 1908 H 180.027 -1.67094 -2.63602 0
M  V30 1909 N 180.328 1.1314 -1.09713 0
M  V30 1910 C 181.576 1.84119 -0.833338 0
M  V30 1911 C 181.897 1.84097 0.642904 0
M  V30 1912 O 181.167 1.29881 1.46655 0
M  V30 1913 H 179.747 0.681766 -0.305293 0
M  V30 1914 H 182.409 1.37038 -1.38588 0
M  V30 1915 H 181.505 2.88543 -1.18951 0
M  V30 1916 N 181.806 0.884767 1.30421 0
M  V30 1917 C 182.753 0.349642 2.28136 0
M  V30 1918 C 183.723 -0.560061 1.56373 0
M  V30 1919 O 184.908 -0.488524 1.8444 0
M  V30 1920 C 182.048 -0.42999 3.42411 0
M  V30 1921 C 181.161 0.508907 4.28992 0
M  V30 1922 C 180.296 -0.286301 5.30428 0
M  V30 1923 C 179.335 0.648079 6.08659 0
M  V30 1924 N 178.472 -0.111792 7.02011 0
M  V30 1925 H 183.312 1.18807 2.73293 0
M  V30 1926 H 180.849 0.597231 1.3443 0
M  V30 1927 H 182.807 -0.897923 4.07423 0
M  V30 1928 H 181.437 -1.23299 2.98324 0
M  V30 1929 H 180.489 1.09533 3.64289 0
M  V30 1930 H 181.801 1.22475 4.8353 0
M  V30 1931 H 180.955 -0.816098 6.01186 0
M  V30 1932 H 179.694 -1.03536 4.76583 0
M  V30 1933 H 178.699 1.18951 5.36778 0
M  V30 1934 H 179.924 1.39623 6.64592 0
M  V30 1935 H 177.87 -0.843395 6.50556 0
M  V30 1936 H 177.787 0.544429 7.54037 0
M  V30 1937 H 179.055 -0.622339 7.77012 0
M  V30 1938 N 183.284 -1.43765 0.645699 0
M  V30 1939 C 184.247 -2.29163 -0.0409488 0
M  V30 1940 C 185.247 -1.41813 -0.757996 0
M  V30 1941 O 186.437 -1.63527 -0.600382 0
M  V30 1942 C 183.569 -3.23716 -1.06869 0
M  V30 1943 H 184.762 -2.91366 0.710345 0
M  V30 1944 H 182.315 -1.5092 0.406547 0
M  V30 1945 H 183.05 -2.66393 -1.84947 0
M  V30 1946 H 182.835 -3.88105 -0.558277 0
M  V30 1947 H 184.325 -3.87831 -1.54845 0
M  V30 1948 N 184.763 -0.387143 -1.52771 0
M  V30 1949 C 185.673 0.456442 -2.30117 0
M  V30 1950 C 186.689 1.07342 -1.36944 0
M  V30 1951 O 187.865 1.07971 -1.70013 0
M  V30 1952 C 184.93 1.56957 -3.09136 0
M  V30 1953 C 183.991 0.977916 -4.18014 0
M  V30 1954 C 183.224 2.038 -4.93256 0
M  V30 1955 O 183.447 3.25271 -4.68567 0
M  V30 1956 O 182.381 1.6565 -5.78657 0
M  V30 1957 H 186.207 -0.17359 -3.03203 0
M  V30 1958 H 183.792 -0.150919 -1.48636 0
M  V30 1959 H 185.674 2.21628 -3.58412 0
M  V30 1960 H 184.349 2.18461 -2.38865 0
M  V30 1961 H 183.256 0.294525 -3.72939 0
M  V30 1962 H 184.589 0.407128 -4.90513 0
M  V30 1963 N 186.241 1.57166 -0.116904 0
M  V30 1964 C 187.469 1.99473 0.549383 0
M  V30 1965 C 187.884 0.996541 1.60357 0
M  V30 1966 O 187.241 -0.0108731 1.82497 0
M  V30 1967 C 187.292 3.41788 1.17741 0
M  V30 1968 O 187.013 4.37788 0.165362 0
M  V30 1969 C 188.514 3.99216 1.92722 0
M  V30 1970 H 185.734 0.655009 0.145616 0
M  V30 1971 H 188.278 2.03494 -0.202625 0
M  V30 1972 H 186.433 3.38713 1.88021 0
M  V30 1973 H 186.847 5.20806 0.621403 0
M  V30 1974 H 188.321 5.00882 2.31995 0
M  V30 1975 H 188.798 3.3824 2.80161 0
M  V30 1976 H 189.404 4.0583 1.27209 0
M  V30 1977 N 187.719 -0.156864 1.56817 0
M  V30 1978 C 188.629 -1.2136 2.00771 0
M  V30 1979 C 189.645 -1.47598 0.921459 0
M  V30 1980 O 190.821 -1.59462 1.2302 0
M  V30 1981 C 187.886 -2.52943 2.37109 0
M  V30 1982 C 186.947 -2.34439 3.59634 0
M  V30 1983 C 186.18 -3.59748 3.94229 0
M  V30 1984 O 186.403 -4.65526 3.29609 0
M  V30 1985 O 185.337 -3.52998 4.8752 0
M  V30 1986 H 189.163 -0.870468 2.90958 0
M  V30 1987 H 186.748 -0.36484 1.44877 0
M  V30 1988 H 188.63 -3.30538 2.61386 0
M  V30 1989 H 187.305 -2.86806 1.5008 0
M  V30 1990 H 186.212 -1.54828 3.40557 0
M  V30 1991 H 187.545 -2.05496 4.4725 0
M  V30 1992 N 189.197 -1.51736 -0.425897 0
M  V30 1993 C 190.613 -1.40166 -0.76326 0
M  V30 1994 C 190.813 -0.492962 -1.95377 0
M  V30 1995 O 189.869 0.0475815 -2.52455 0
M  V30 1996 C 191.182 -2.82403 -1.03291 0
M  V30 1997 C 192.73 -2.91632 -1.13665 0
M  V30 1998 C 193.205 -4.34801 -1.43916 0
M  V30 1999 N 194.696 -4.3796 -1.50816 0
M  V30 2000 C 195.431 -5.4578 -1.75817 0
M  V30 2001 N 194.927 -6.63744 -1.98534 0
M  V30 2002 N 196.72 -5.33274 -1.77694 0
M  V30 2003 H 188.871 -2.09361 0.358 0
M  V30 2004 H 191.134 -0.942941 0.0978094 0
M  V30 2005 H 190.84 -3.50943 -0.230696 0
M  V30 2006 H 190.714 -3.22428 -1.95754 0
M  V30 2007 H 193.101 -2.23284 -1.92947 0
M  V30 2008 H 193.182 -2.55088 -0.190756 0
M  V30 2009 H 192.826 -5.03703 -0.65157 0
M  V30 2010 H 192.756 -4.68868 -2.39729 0
M  V30 2011 H 195.247 -3.52919 -1.35118 0
M  V30 2012 H 195.56 -7.41704 -2.17013 0
M  V30 2013 H 193.905 -6.66839 -1.95832 0
M  V30 2014 H 197.096 -4.40098 -1.59473 0
M  V30 2015 H 197.269 -6.1738 -1.9684 0
M  V30 2016 N 190.675 0.682077 -1.42076 0
M  V30 2017 C 191.923 1.4393 -1.41876 0
M  V30 2018 C 192.244 1.94971 -0.0335599 0
M  V30 2019 O 191.514 1.72591 0.926773 0
M  V30 2020 H 190.094 0.534085 -0.522267 0
M  V30 2021 H 192.756 0.806427 -1.77434 0
M  V30 2022 H 191.852 2.29588 -2.11414 0
M  V30 2023 N 192.153 1.28127 0.917671 0
M  V30 2024 C 193.083 1.14248 2.03641 0
M  V30 2025 C 194.064 0.0412748 1.7005 0
M  V30 2026 O 195.249 0.217566 1.92977 0
M  V30 2027 C 192.379 0.799431 3.37974 0
M  V30 2028 C 191.333 1.85497 3.85713 0
M  V30 2029 C 190.659 1.36565 5.16966 0
M  V30 2030 C 191.959 3.26085 4.08002 0
M  V30 2031 H 193.653 2.07835 2.15511 0
M  V30 2032 H 191.199 1.00064 1.03553 0
M  V30 2033 H 193.152 0.689114 4.15727 0
M  V30 2034 H 191.876 -0.172145 3.26146 0
M  V30 2035 H 190.535 1.95437 3.10161 0
M  V30 2036 H 190.183 0.383253 5.01538 0
M  V30 2037 H 189.883 2.07143 5.49878 0
M  V30 2038 H 191.407 1.26848 5.97279 0
M  V30 2039 H 192.821 3.19089 4.76293 0
M  V30 2040 H 191.218 3.94462 4.52238 0
M  V30 2041 H 192.288 3.70394 3.12948 0
M  V30 2042 N 193.631 -1.12557 1.10312 0
M  V30 2043 C 194.856 -1.88405 0.867085 0
M  V30 2044 C 195.281 -1.79038 -0.576817 0
M  V30 2045 O 194.639 -1.14439 -1.40618 0
M  V30 2046 C 194.687 -3.3563 1.31851 0
M  V30 2047 O 193.791 -4.09565 0.482734 0
M  V30 2048 H 193.132 -0.585455 0.313271 0
M  V30 2049 H 195.662 -1.42352 1.4696 0
M  V30 2050 H 195.672 -3.86469 1.3079 0
M  V30 2051 H 194.347 -3.41765 2.37001 0
M  V30 2052 H 192.924 -3.68695 0.558448 0
M  V30 2053 N 195.109 -0.891671 -1.2995 0
M  V30 2054 C 196.525 -0.58662 -1.48428 0
M  V30 2055 C 196.725 0.873951 -1.81561 0
M  V30 2056 O 195.781 1.65471 -1.90724 0
M  V30 2057 C 197.094 -1.50553 -2.60296 0
M  V30 2058 C 198.642 -1.50988 -2.74175 0
M  V30 2059 C 199.117 -2.41488 -3.89163 0
M  V30 2060 N 200.608 -2.39489 -3.96483 0
M  V30 2061 C 201.343 -3.06223 -4.84784 0
M  V30 2062 N 200.839 -3.82206 -5.77833 0
M  V30 2063 N 202.632 -2.95421 -4.78208 0
M  V30 2064 H 194.783 -1.83644 -1.06718 0
M  V30 2065 H 197.046 -0.786455 -0.529332 0
M  V30 2066 H 196.752 -2.54581 -2.42654 0
M  V30 2067 H 196.626 -1.22008 -3.56923 0
M  V30 2068 H 199.013 -0.47708 -2.91218 0
M  V30 2069 H 199.094 -1.83567 -1.78148 0
M  V30 2070 H 198.738 -3.44857 -3.72876 0
M  V30 2071 H 198.668 -2.06222 -4.84541 0
M  V30 2072 H 201.159 -1.84278 -3.29924 0
M  V30 2073 H 201.472 -4.302 -6.41988 0
M  V30 2074 H 199.817 -3.86313 -5.77743 0
M  V30 2075 H 203.008 -2.35581 -4.04499 0
M  V30 2076 H 203.181 -3.47704 -5.46814 0
M  V30 2077 N 196.587 1.43421 -0.653314 0
M  V30 2078 C 197.534 2.30768 0.0382271 0
M  V30 2079 C 198.504 1.44755 0.814576 0
M  V30 2080 O 199.689 1.73624 0.791162 0
M  V30 2081 C 196.829 3.30336 0.998599 0
M  V30 2082 C 195.942 4.31448 0.218342 0
M  V30 2083 C 195.077 5.18098 1.17252 0
M  V30 2084 C 194.116 6.10902 0.382702 0
M  V30 2085 N 193.253 6.90176 1.28848 0
M  V30 2086 H 198.093 2.89357 -0.712511 0
M  V30 2087 H 195.63 1.42548 -0.363128 0
M  V30 2088 H 197.588 3.86572 1.56901 0
M  V30 2089 H 196.218 2.73397 1.71621 0
M  V30 2090 H 195.27 3.77506 -0.46836 0
M  V30 2091 H 196.582 4.97227 -0.395812 0
M  V30 2092 H 195.736 5.7896 1.81356 0
M  V30 2093 H 194.475 4.52444 1.82058 0
M  V30 2094 H 193.48 5.49128 -0.27169 0
M  V30 2095 H 194.705 6.78598 -0.260957 0
M  V30 2096 H 192.651 6.27171 1.92334 0
M  V30 2097 H 192.568 7.52478 0.728887 0
M  V30 2098 H 193.836 7.55543 1.91766 0
M  V30 2099 N 198.065 0.39524 1.52563 0
M  V30 2100 C 199.015 -0.4541 2.23432 0
M  V30 2101 C 199.999 -1.02482 1.24042 0
M  V30 2102 O 201.191 -0.949938 1.49349 0
M  V30 2103 C 198.32 -1.57769 3.049 0
M  V30 2104 C 197.406 -1.01842 4.1169 0
M  V30 2105 N 197.797 -0.184613 5.05463 0
M  V30 2106 C 196.095 -1.29033 4.26927 0
M  V30 2107 C 196.796 0.125013 5.81566 0
M  V30 2108 N 195.772 -0.480498 5.41472 0
M  V30 2109 H 199.574 0.189413 2.93289 0
M  V30 2110 H 197.088 0.204877 1.61102 0
M  V30 2111 H 199.085 -2.19862 3.54212 0
M  V30 2112 H 197.745 -2.22397 2.36579 0
M  V30 2113 H 198.756 0.178602 5.17592 0
M  V30 2114 H 195.433 -1.93721 3.69836 0
M  V30 2115 H 196.823 0.800962 6.67109 0
M  V30 2116 N 199.544 -1.57102 0.125237 0
M  V30 2117 C 200.793 -1.94582 -0.531095 0
M  V30 2118 C 201.106 -1.01126 -1.6743 0
M  V30 2119 O 202.312 -1.28097 -2.39381 0
M  V30 2120 C 200.768 -3.45839 -0.996164 0
M  V30 2121 C 200.376 -4.47842 0.118926 0
M  V30 2122 C 202.12 -3.92227 -1.62352 0
M  V30 2123 C 200.027 -5.90284 -0.363192 0
M  V30 2124 H 198.957 -0.726391 -0.20217 0
M  V30 2125 H 201.608 -1.82339 0.206092 0
M  V30 2126 H 199.99 -3.53338 -1.78796 0
M  V30 2127 H 201.164 -4.52018 0.895358 0
M  V30 2128 H 199.479 -4.11243 0.653324 0
M  V30 2129 H 202.076 -4.96069 -1.99548 0
M  V30 2130 H 202.419 -3.32552 -2.50429 0
M  V30 2131 H 202.952 -3.87554 -0.897019 0
M  V30 2132 H 199.691 -6.53728 0.481679 0
M  V30 2133 H 199.211 -5.89515 -1.10597 0
M  V30 2134 H 200.89 -6.41752 -0.822377 0
M  V30 2135 N 201.022 0.148545 -1.56898 0
M  V30 2136 C 202.271 0.85984 -1.82454 0
M  V30 2137 C 202.584 1.82406 -0.706229 0
M  V30 2138 O 203.79 2.57938 -0.847349 0
M  V30 2139 C 202.246 1.57967 -3.2338 0
M  V30 2140 C 201.854 0.65794 -4.43142 0
M  V30 2141 C 203.598 2.27784 -3.58211 0
M  V30 2142 C 201.505 1.3793 -5.75091 0
M  V30 2143 H 200.435 0.324834 -0.68044 0
M  V30 2144 H 203.086 0.112588 -1.83154 0
M  V30 2145 H 201.468 2.37249 -3.17063 0
M  V30 2146 H 202.642 -0.0995497 -4.60692 0
M  V30 2147 H 200.957 0.0682643 -4.16344 0
M  V30 2148 H 203.554 2.8239 -4.54048 0
M  V30 2149 H 203.897 3.04204 -2.84193 0
M  V30 2150 H 204.43 1.55421 -3.66182 0
M  V30 2151 H 201.169 0.656982 -6.52199 0
M  V30 2152 H 200.689 2.10954 -5.61479 0
M  V30 2153 H 202.368 1.92063 -6.17835 0
M  V30 2154 N 202.5 1.5196 0.417844 0
M  V30 2155 C 203.41 1.77554 1.53336 0
M  V30 2156 C 204.426 0.660655 1.6097 0
M  V30 2157 O 205.602 0.945099 1.77848 0
M  V30 2158 C 202.667 1.91291 2.89152 0
M  V30 2159 C 201.728 3.15183 2.91475 0
M  V30 2160 C 200.961 3.28256 4.20813 0
M  V30 2161 O 201.184 2.46798 5.14244 0
M  V30 2162 O 200.118 4.21356 4.29817 0
M  V30 2163 H 203.944 2.7222 1.34647 0
M  V30 2164 H 201.529 1.36698 0.602828 0
M  V30 2165 H 203.411 2.02199 3.69721 0
M  V30 2166 H 202.086 0.998129 3.07927 0
M  V30 2167 H 200.993 3.09739 2.09791 0
M  V30 2168 H 202.326 4.06414 2.77648 0
M  V30 2169 N 203.978 -0.674533 1.42435 0
M  V30 2170 C 205.226 -1.43175 1.42637 0
M  V30 2171 C 205.547 -1.94951 0.0438992 0
M  V30 2172 O 204.817 -1.7308 -0.917607 0
M  V30 2173 H 203.397 -0.531307 0.525092 0
M  V30 2174 H 206.059 -0.797006 1.77859 0
M  V30 2175 H 205.155 -2.28463 2.12629 0
M  V30 2176 N 205.456 -1.28612 -0.910864 0
M  V30 2177 C 206.386 -1.15326 -2.03032 0
M  V30 2178 C 207.367 -0.0502924 -1.70026 0
M  V30 2179 O 208.552 -0.227797 -1.92859 0
M  V30 2180 C 205.682 -0.817343 -3.37545 0
M  V30 2181 C 204.636 -1.8754 -3.84724 0
M  V30 2182 C 203.962 -1.39305 -5.16235 0
M  V30 2183 C 205.262 -3.28244 -4.06267 0
M  V30 2184 H 206.956 -2.08975 -2.14406 0
M  V30 2185 H 204.502 -1.00612 -1.03021 0
M  V30 2186 H 206.455 -0.711151 -4.15356 0
M  V30 2187 H 205.179 0.154846 -3.26233 0
M  V30 2188 H 203.838 -1.97079 -3.09121 0
M  V30 2189 H 203.486 -0.409846 -5.01328 0
M  V30 2190 H 203.186 -2.10057 -5.48771 0
M  V30 2191 H 204.71 -1.30014 -5.96598 0
M  V30 2192 H 206.124 -3.21611 -4.74594 0
M  V30 2193 H 204.521 -3.96855 -4.5014 0
M  V30 2194 H 205.591 -3.72048 -3.10979 0
M  V30 2195 N 206.934 1.1197 -1.10907 0
M  V30 2196 C 207.881 2.17846 -0.762345 0
M  V30 2197 C 208.851 1.63995 0.263599 0
M  V30 2198 O 210.036 1.90273 0.141773 0
M  V30 2199 C 207.176 3.44487 -0.205651 0
M  V30 2200 C 206.289 4.12369 -1.28748 0
M  V30 2201 C 205.424 5.26674 -0.691919 0
M  V30 2202 C 204.463 5.86431 -1.75399 0
M  V30 2203 N 203.6 6.92142 -1.17833 0
M  V30 2204 H 208.44 2.46851 -1.6694 0
M  V30 2205 H 205.977 1.21188 -0.833776 0
M  V30 2206 H 207.935 4.16981 0.135037 0
M  V30 2207 H 206.565 3.15884 0.664613 0
M  V30 2208 H 205.617 3.38003 -1.74522 0
M  V30 2209 H 206.929 4.52844 -2.09125 0
M  V30 2210 H 206.083 6.05953 -0.300963 0
M  V30 2211 H 204.822 4.8749 0.143232 0
M  V30 2212 H 203.827 5.05835 -2.15432 0
M  V30 2213 H 205.052 6.27685 -2.59208 0
M  V30 2214 H 202.998 6.54985 -0.364725 0
M  V30 2215 H 202.915 7.31242 -1.91887 0
M  V30 2216 H 204.183 7.75237 -0.81408 0
M  V30 2217 N 208.412 0.89855 1.29475 0
M  V30 2218 C 209.375 0.380272 2.26023 0
M  V30 2219 C 210.375 -0.484891 1.53315 0
M  V30 2220 O 211.565 -0.290108 1.71767 0
M  V30 2221 C 208.697 -0.45651 3.3783 0
M  V30 2222 H 209.89 1.23295 2.73383 0
M  V30 2223 H 207.443 0.676589 1.40897 0
M  V30 2224 H 208.178 -1.32922 2.95808 0
M  V30 2225 H 207.963 0.163393 3.91759 0
M  V30 2226 H 209.453 -0.810466 4.0966 0
M  V30 2227 N 209.89 -1.43072 0.660911 0
M  V30 2228 C 211.115 -2.06584 0.183805 0
M  V30 2229 C 211.54 -1.49257 -1.14472 0
M  V30 2230 O 210.898 -0.605528 -1.70889 0
M  V30 2231 C 210.946 -3.60418 0.114434 0
M  V30 2232 O 210.05 -4.01981 -0.921137 0
M  V30 2233 H 209.391 -0.656669 0.0983994 0
M  V30 2234 H 211.921 -1.83447 0.906006 0
M  V30 2235 H 211.931 -4.07946 -0.0663394 0
M  V30 2236 H 210.606 -4.01519 1.08422 0
M  V30 2237 H 209.183 -3.66029 -0.71253 0
M  V30 2238 N 211.368 -0.403325 -1.52352 0
M  V30 2239 C 212.298 0.416205 -2.29761 0
M  V30 2240 C 213.279 1.05123 -1.33728 0
M  V30 2241 O 214.464 1.06134 -1.62632 0
M  V30 2242 C 211.594 1.53624 -3.11475 0
M  V30 2243 C 210.548 1.02653 -4.15507 0
M  V30 2244 C 209.874 2.23971 -4.85532 0
M  V30 2245 C 211.174 0.08463 -5.22231 0
M  V30 2246 H 212.868 -0.229701 -2.98518 0
M  V30 2247 H 210.414 -0.111913 -1.43564 0
M  V30 2248 H 212.367 2.1165 -3.64393 0
M  V30 2249 H 211.091 2.20994 -2.40477 0
M  V30 2250 H 209.75 0.46871 -3.63591 0
M  V30 2251 H 209.398 2.89883 -4.11068 0
M  V30 2252 H 209.098 1.90521 -5.55856 0
M  V30 2253 H 210.622 2.82614 -5.41259 0
M  V30 2254 H 212.036 0.573509 -5.70424 0
M  V30 2255 H 210.433 -0.160783 -5.99885 0
M  V30 2256 H 211.503 -0.86237 -4.7717 0
M  V30 2257 N 212.846 1.57033 -0.133567 0
M  V30 2258 C 213.756 2.19632 0.824564 0
M  V30 2259 C 214.772 1.17666 1.28182 0
M  V30 2260 O 215.948 1.50193 1.3418 0
M  V30 2261 C 213.013 2.79499 2.05137 0
M  V30 2262 C 212.074 3.96548 1.64464 0
M  V30 2263 C 211.307 4.5355 2.81297 0
M  V30 2264 O 211.53 4.09438 3.97136 0
M  V30 2265 O 210.464 5.44018 2.57542 0
M  V30 2266 H 214.29 3.01991 0.321766 0
M  V30 2267 H 211.875 1.49112 0.0927889 0
M  V30 2268 H 213.757 3.17602 2.7696 0
M  V30 2269 H 212.432 2.00162 2.54395 0
M  V30 2270 H 211.339 3.63186 0.897048 0
M  V30 2271 H 212.672 4.77364 1.19934 0
M  V30 2272 N 214.325 -0.140222 1.56975 0
M  V30 2273 C 215.741 -0.493088 1.51792 0
M  V30 2274 C 215.941 -1.83013 0.843116 0
M  V30 2275 O 214.997 -2.49041 0.416493 0
M  V30 2276 C 216.31 -0.497144 2.96562 0
M  V30 2277 C 217.858 -0.582186 3.07538 0
M  V30 2278 C 218.333 -0.616838 4.53827 0
M  V30 2279 N 219.824 -0.678873 4.58198 0
M  V30 2280 C 220.559 -0.726782 5.68775 0
M  V30 2281 N 220.055 -0.733623 6.88905 0
M  V30 2282 N 221.848 -0.768179 5.56826 0
M  V30 2283 H 213.999 0.736108 1.99237 0
M  V30 2284 H 216.262 0.269182 0.90898 0
M  V30 2285 H 215.968 0.417217 3.49217 0
M  V30 2286 H 215.842 -1.33263 3.52875 0
M  V30 2287 H 218.229 -1.48697 2.54899 0
M  V30 2288 H 218.31 0.280581 2.54257 0
M  V30 2289 H 217.954 0.283812 5.07106 0
M  V30 2290 H 217.884 -1.49619 5.04898 0
M  V30 2291 H 220.375 -0.68061 3.7172 0
M  V30 2292 H 220.688 -0.772215 7.68932 0
M  V30 2293 H 219.033 -0.701389 6.91452 0
M  V30 2294 H 222.224 -0.760051 4.61888 0
M  V30 2295 H 222.397 -0.80205 6.43017 0
M  V30 2296 N 215.803 -1.52179 -0.40978 0
M  V30 2297 C 216.733 -1.78435 -1.5061 0
M  V30 2298 C 217.714 -0.635295 -1.57791 0
M  V30 2299 O 218.899 -0.880823 -1.73076 0
M  V30 2300 C 216.029 -1.93444 -2.88439 0
M  V30 2301 C 214.983 -3.09038 -2.96108 0
M  V30 2302 C 214.309 -3.09268 -4.36185 0
M  V30 2303 C 215.609 -4.48508 -2.67652 0
M  V30 2304 H 217.303 -2.70237 -1.28889 0
M  V30 2305 H 214.849 -1.30036 -0.618605 0
M  V30 2306 H 216.802 -2.10394 -3.65119 0
M  V30 2307 H 215.526 -0.983129 -3.11452 0
M  V30 2308 H 214.185 -2.91837 -2.21872 0
M  V30 2309 H 213.833 -2.11861 -4.56206 0
M  V30 2310 H 213.533 -3.86907 -4.42241 0
M  V30 2311 H 215.057 -3.28348 -5.14801 0
M  V30 2312 H 216.471 -4.65918 -3.34056 0
M  V30 2313 H 214.868 -5.28059 -2.85085 0
M  V30 2314 H 215.938 -4.56649 -1.63095 0
M  V30 2315 N 217.281 0.66697 -1.42791 0
M  V30 2316 C 218.213 1.7925 -1.42836 0
M  V30 2317 C 219.226 1.59496 -0.326333 0
M  V30 2318 O 220.415 1.6847 -0.589916 0
M  V30 2319 C 217.515 3.16476 -1.21229 0
M  V30 2320 C 216.688 3.63011 -2.44013 0
M  V30 2321 C 215.747 4.78993 -2.17834 0
M  V30 2322 O 214.773 4.89137 -2.91091 0
M  V30 2323 N 215.975 5.68248 -1.18635 0
M  V30 2324 H 218.74 1.79695 -2.39854 0
M  V30 2325 H 216.301 0.850338 -1.37771 0
M  V30 2326 H 218.293 3.91734 -1.01621 0
M  V30 2327 H 216.863 3.10884 -0.32706 0
M  V30 2328 H 216.083 2.78346 -2.79137 0
M  V30 2329 H 217.371 3.90845 -3.25757 0
M  V30 2330 H 216.769 5.62712 -0.580615 0
M  V30 2331 H 215.326 6.43285 -1.05013 0
M  V30 2332 N 218.759 1.29093 0.90403 0
M  V30 2333 C 219.689 1.16401 2.02418 0
M  V30 2334 C 220.67 0.0593085 1.69997 0
M  V30 2335 O 221.855 0.238021 1.92736 0
M  V30 2336 C 218.985 0.835233 3.37107 0
M  V30 2337 C 217.939 1.89578 3.83724 0
M  V30 2338 C 217.265 1.42041 5.15489 0
M  V30 2339 C 218.565 3.30394 4.04521 0
M  V30 2340 H 220.259 2.10109 2.13295 0
M  V30 2341 H 217.805 1.01157 1.02486 0
M  V30 2342 H 219.758 0.733169 4.14973 0
M  V30 2343 H 218.482 -0.137543 3.2631 0
M  V30 2344 H 217.141 1.98715 3.08071 0
M  V30 2345 H 216.789 0.436426 5.01103 0
M  V30 2346 H 216.489 2.12964 5.4765 0
M  V30 2347 H 218.013 1.33176 5.959 0
M  V30 2348 H 219.427 3.24123 4.72882 0
M  V30 2349 H 217.824 3.99237 4.48029 0
M  V30 2350 H 218.894 3.73692 3.09002 0
M  V30 2351 N 220.237 -1.11381 1.11499 0
M  V30 2352 C 221.147 -2.21019 0.786628 0
M  V30 2353 C 222.163 -1.72597 -0.220507 0
M  V30 2354 O 223.339 -2.01321 -0.0565251 0
M  V30 2355 C 220.404 -3.459 0.235333 0
M  V30 2356 C 219.465 -4.09107 1.30115 0
M  V30 2357 C 218.698 -5.28027 0.776068 0
M  V30 2358 O 218.921 -5.6904 -0.393661 0
M  V30 2359 O 217.855 -5.81835 1.54114 0
M  V30 2360 H 221.681 -2.51521 1.70209 0
M  V30 2361 H 219.266 -1.19928 0.890928 0
M  V30 2362 H 221.148 -4.21346 -0.067715 0
M  V30 2363 H 219.823 -3.17049 -0.652828 0
M  V30 2364 H 218.73 -3.35391 1.65722 0
M  V30 2365 H 220.063 -4.42139 2.16273 0
M  V30 2366 N 221.715 -0.905404 -1.28997 0
M  V30 2367 C 222.945 -0.549049 -1.99171 0
M  V30 2368 C 223.353 0.87203 -1.67906 0
M  V30 2369 O 222.696 1.58796 -0.923561 0
M  V30 2370 C 222.758 -0.668306 -3.53234 0
M  V30 2371 C 222.422 -2.0574 -4.08069 0
M  V30 2372 C 223.419 -3.0292 -4.22534 0
M  V30 2373 C 221.104 -2.36833 -4.42962 0
M  V30 2374 C 223.098 -4.29314 -4.71135 0
M  V30 2375 C 220.785 -3.63467 -4.91258 0
M  V30 2376 C 221.783 -4.59522 -5.053 0
M  V30 2377 O 221.471 -5.83907 -5.52546 0
M  V30 2378 H 221.203 -0.208784 -0.64295 0
M  V30 2379 H 223.757 -1.21836 -1.65363 0
M  V30 2380 H 221.987 0.0580547 -3.86656 0
M  V30 2381 H 223.676 -0.320273 -4.04634 0
M  V30 2382 H 224.442 -2.80216 -3.95859 0
M  V30 2383 H 220.321 -1.62824 -4.31288 0
M  V30 2384 H 223.865 -5.04293 -4.8201 0
M  V30 2385 H 219.762 -3.86 -5.17372 0
M  V30 2386 H 220.53 -5.86578 -5.70849 0
M  V30 2387 N 223.193 1.4272 -0.668489 0
M  V30 2388 C 224.439 2.01923 -0.188419 0
M  V30 2389 C 224.772 1.52704 1.19979 0
M  V30 2390 O 224.047 0.726566 1.8042 0
M  V30 2391 C 224.33 3.59451 -0.216085 0
M  V30 2392 C 224.183 4.18864 -1.6393 0
M  V30 2393 C 225.502 4.37903 0.439179 0
M  V30 2394 H 222.621 0.733674 -0.0699412 0
M  V30 2395 H 225.263 1.69822 -0.852076 0
M  V30 2396 H 223.413 3.86929 0.349012 0
M  V30 2397 H 225.085 4.02362 -2.25616 0
M  V30 2398 H 223.328 3.74933 -2.18193 0
M  V30 2399 H 223.999 5.27987 -1.61039 0
M  V30 2400 H 226.475 4.16079 -0.0417878 0
M  V30 2401 H 225.351 5.47519 0.389157 0
M  V30 2402 H 225.612 4.15303 1.51577 0
M  V30 2403 N 224.671 0.411399 1.52136 0
M  V30 2404 C 225.948 -0.222308 1.94333 0
M  V30 2405 C 226.328 -1.6242 1.34844 0
M  V30 2406 O 225.676 -2.22384 0.525145 0
M  V30 2407 C 225.886 -0.226345 3.48265 0
M  V30 2408 C 227.234 -0.444592 4.22266 0
M  V30 2409 O 228.258 -0.305602 3.54887 0
M  V30 2410 O 227.117 -0.718749 5.41753 0
M  V30 2411 H 224.211 -0.143907 0.814383 0
M  V30 2412 H 226.757 0.467506 1.63133 0
M  V30 2413 H 225.529 0.75475 3.83952 0
M  V30 2414 H 225.152 -0.960163 3.85832 0
M  V30 2415 N 226.149 -1.5696 0.141893 0
M  V30 2416 C 227.395 -1.9625 -0.511248 0
M  V30 2417 C 227.728 -1.02654 -1.64851 0
M  V30 2418 O 227.003 -0.0679676 -1.94381 0
M  V30 2419 C 227.286 -3.45285 -1.02227 0
M  V30 2420 C 227.139 -4.49658 0.113138 0
M  V30 2421 C 228.458 -3.96698 -1.90574 0
M  V30 2422 H 225.577 -0.713567 -0.184367 0
M  V30 2423 H 228.219 -1.88698 0.222087 0
M  V30 2424 H 226.369 -3.51852 -1.64719 0
M  V30 2425 H 228.041 -4.55174 0.749302 0
M  V30 2426 H 226.284 -4.26857 0.773026 0
M  V30 2427 H 226.955 -5.51258 -0.286053 0
M  V30 2428 H 229.431 -3.92578 -1.37918 0
M  V30 2429 H 228.307 -5.01453 -2.2324 0
M  V30 2430 H 228.568 -3.3875 -2.84079 0
M  V30 2431 N 227.627 0.131896 -1.57047 0
M  V30 2432 C 228.873 0.843179 -1.84441 0
M  V30 2433 C 229.206 1.80129 -0.725749 0
M  V30 2434 O 228.481 1.92624 0.269469 0
M  V30 2435 C 228.764 1.60442 -3.22382 0
M  V30 2436 C 228.617 0.666782 -4.4483 0
M  V30 2437 C 229.936 2.56354 -3.5773 0
M  V30 2438 H 227.055 0.305081 -0.670891 0
M  V30 2439 H 229.697 0.107839 -1.89694 0
M  V30 2440 H 227.847 2.23128 -3.18035 0
M  V30 2441 H 229.519 0.0497646 -4.61273 0
M  V30 2442 H 227.762 -0.022609 -4.33794 0
M  V30 2443 H 228.433 1.23579 -5.37989 0
M  V30 2444 H 230.909 2.0378 -3.62785 0
M  V30 2445 H 229.785 3.06657 -4.5525 0
M  V30 2446 H 230.046 3.38419 -2.84473 0
M  V30 2447 N 229.106 1.52395 0.401703 0
M  V30 2448 C 230.353 1.66817 1.14796 0
M  V30 2449 C 230.681 0.401772 1.90305 0
M  V30 2450 O 229.936 -0.615487 1.85769 0
M  V30 2451 C 230.235 2.84578 2.16217 0
M  V30 2452 C 229.901 4.22513 1.5746 0
M  V30 2453 C 228.563 4.60029 1.41161 0
M  V30 2454 C 230.915 5.0844 1.14622 0
M  V30 2455 C 228.243 5.81144 0.80552 0
M  V30 2456 C 230.595 6.30167 0.55428 0
M  V30 2457 C 229.259 6.66426 0.378482 0
M  V30 2458 H 228.529 0.610428 0.420069 0
M  V30 2459 H 231.176 1.86512 0.434212 0
M  V30 2460 H 229.481 2.59248 2.93764 0
M  V30 2461 H 231.178 2.92933 2.73845 0
M  V30 2462 H 227.768 3.92953 1.71132 0
M  V30 2463 H 231.952 4.80034 1.26021 0
M  V30 2464 H 227.208 6.07855 0.657399 0
M  V30 2465 H 231.382 6.96071 0.213983 0
M  V30 2466 H 229.009 7.60143 -0.0932606 0
M  V30 2467 N 230.584 -0.659388 1.43143 0
M  V30 2468 C 231.547 -1.75432 1.47501 0
M  V30 2469 C 232.547 -1.56707 0.360512 0
M  V30 2470 O 233.737 -1.62717 0.622002 0
M  V30 2471 C 230.869 -3.14239 1.32162 0
M  V30 2472 H 232.062 -1.7295 2.45006 0
M  V30 2473 H 229.615 -0.870469 1.29817 0
M  V30 2474 H 230.35 -3.22336 0.356401 0
M  V30 2475 H 230.135 -3.29235 2.12948 0
M  V30 2476 H 231.625 -3.94094 1.3813 0
M  V30 2477 N 232.062 -1.29571 -0.897171 0
M  V30 2478 C 233.01 -1.14802 -2.02295 0
M  V30 2479 C 234.004 -0.0629637 -1.69283 0
M  V30 2480 O 235.21 -0.222945 -1.78614 0
M  V30 2481 H 231.585 -0.354692 -0.663097 0
M  V30 2482 H 233.556 -2.10108 -2.11889 0
M  V30 2483 C 232.305 -0.843966 -3.37302 0
M  V30 2484 H 231.628 -1.67093 -3.63208 0
M  V30 2485 H 233.068 -0.780672 -4.16751 0
M  V30 2486 C 231.527 0.452843 -3.33843 0
M  V30 2487 O 232.057 1.47813 -3.73516 0
M  V30 2488 N 230.263 0.459601 -2.86943 0
M  V30 2489 H 229.81 -0.375213 -2.54853 0
M  V30 2490 H 229.768 1.32726 -2.85011 0
M  V30 2491 N 233.54 1.10788 -1.12088 0
M  V30 2492 C 234.956 1.34691 -0.856186 0
M  V30 2493 C 235.156 1.94791 0.515615 0
M  V30 2494 O 234.212 2.18524 1.26505 0
M  V30 2495 C 235.525 2.27208 -1.9697 0
M  V30 2496 C 237.073 2.40755 -2.00016 0
M  V30 2497 C 237.548 3.36598 -3.1059 0
M  V30 2498 N 239.039 3.44164 -3.10008 0
M  V30 2499 C 239.774 4.18284 -3.92206 0
M  V30 2500 N 239.27 4.95322 -4.84384 0
M  V30 2501 N 241.063 4.13865 -3.80357 0
M  V30 2502 H 233.214 0.70144 -2.00483 0
M  V30 2503 H 235.477 0.371405 -0.872217 0
M  V30 2504 H 235.183 1.90251 -2.958 0
M  V30 2505 H 235.057 3.27485 -1.87172 0
M  V30 2506 H 237.444 2.76982 -1.01808 0
M  V30 2507 H 237.525 1.40305 -2.13888 0
M  V30 2508 H 237.169 3.01096 -4.09028 0
M  V30 2509 H 237.099 4.36918 -2.93956 0
M  V30 2510 H 239.59 2.8922 -2.43228 0
M  V30 2511 H 239.903 5.49267 -5.43623 0
M  V30 2512 H 238.248 4.94459 -4.884 0
M  V30 2513 H 241.439 3.52773 -3.07683 0
M  V30 2514 H 241.612 4.71372 -4.44649 0
M  V30 2515 N 235.018 0.912232 1.28515 0
M  V30 2516 C 236.429 0.591352 1.77087 0
M  V30 2517 C 236.78 -0.8933 1.74684 0
M  V30 2518 O 235.905 -1.69876 1.34056 0
M  V30 2519 C 236.5 1.06668 3.2157 0
M  V30 2520 C 235.059 0.79675 3.67871 0
M  V30 2521 C 234.206 1.23427 2.48316 0
M  V30 2522 H 237.157 1.09365 1.15 0
M  V30 2523 H 237.178 0.407455 3.78312 0
M  V30 2524 H 236.69 2.14726 3.23287 0
M  V30 2525 H 234.791 -0.270679 3.71616 0
M  V30 2526 H 234.904 1.40343 4.58084 0
M  V30 2527 H 233.268 0.653036 2.46186 0
M  V30 2528 H 234.051 2.32316 2.52753 0
M  V30 2529 N 236.496 -1.42363 0.676048 0
M  V30 2530 C 237.773 -1.95183 0.127726 0
M  V30 2531 C 238.153 -1.61641 -1.35777 0
M  V30 2532 O 237.501 -0.913216 -2.09458 0
M  V30 2533 C 237.711 -3.46721 0.398199 0
M  V30 2534 C 239.059 -4.23427 0.315383 0
M  V30 2535 O 240.083 -3.54649 0.332016 0
M  V30 2536 O 238.942 -5.45888 0.25865 0
M  V30 2537 H 236.036 -0.826992 0.00359427 0
M  V30 2538 H 238.582 -1.52184 0.750864 0
M  V30 2539 H 237.354 -3.64344 1.4272 0
M  V30 2540 H 236.977 -3.96769 -0.256885 0
M  V30 2541 N 237.974 -0.419461 -1.51915 0
M  V30 2542 C 239.385 0.0477853 -1.86639 0
M  V30 2543 C 239.736 1.43531 -1.33766 0
M  V30 2544 O 238.861 2.05401 -0.68113 0
M  V30 2545 C 239.456 0.0934885 -3.38671 0
M  V30 2546 C 238.015 0.505097 -3.72996 0
M  V30 2547 C 237.162 -0.313792 -2.75519 0
M  V30 2548 H 240.113 -0.636088 -1.45395 0
M  V30 2549 H 240.134 0.906667 -3.6954 0
M  V30 2550 H 239.646 -0.916501 -3.77123 0
M  V30 2551 H 237.747 1.52135 -3.40126 0
M  V30 2552 H 237.86 0.242309 -4.78487 0
M  V30 2553 H 236.224 0.225363 -2.53701 0
M  V30 2554 H 237.007 -1.32232 -3.16812 0
M  V30 2555 N 239.452 1.56882 -0.150215 0
M  V30 2556 C 240.4 2.18214 0.805313 0
M  V30 2557 C 241.394 1.14006 1.25296 0
M  V30 2558 O 242.6 1.3225 1.22107 0
M  V30 2559 H 238.975 0.698762 0.277913 0
M  V30 2560 H 240.946 2.97231 0.263862 0
M  V30 2561 C 239.695 2.82065 2.03309 0
M  V30 2562 H 239.018 3.61968 1.69763 0
M  V30 2563 H 240.458 3.28477 2.68103 0
M  V30 2564 C 238.917 1.80739 2.84315 0
M  V30 2565 O 239.447 1.27983 3.80767 0
M  V30 2566 N 237.653 1.4997 2.48913 0
M  V30 2567 H 237.2 1.93062 1.70542 0
M  V30 2568 H 237.158 0.824217 3.03404 0
M  V30 2569 N 240.93 -0.123565 1.57115 0
M  V30 2570 C 242.158 -0.846461 1.88793 0
M  V30 2571 C 242.573 -1.73652 0.740976 0
M  V30 2572 O 241.93 -1.80207 -0.288393 0
M  V30 2573 C 241.981 -1.6837 3.19897 0
M  V30 2574 O 241.702 -0.829477 4.30176 0
M  V30 2575 C 243.203 -2.51214 3.65248 0
M  V30 2576 H 240.423 -0.243573 0.625231 0
M  V30 2577 H 242.967 -0.109324 2.04208 0
M  V30 2578 H 241.122 -2.37364 3.06165 0
M  V30 2579 H 241.536 -1.40651 5.0529 0
M  V30 2580 H 243.01 -3.05497 4.59756 0
M  V30 2581 H 243.487 -3.28359 2.9168 0
M  V30 2582 H 244.093 -1.8747 3.81752 0
M  V30 2583 N 242.408 -1.52605 -0.393616 0
M  V30 2584 C 243.819 -1.59417 -0.971761 0
M  V30 2585 C 244.17 -0.444173 -1.91106 0
M  V30 2586 O 243.295 0.433382 -2.12016 0
M  V30 2587 C 243.89 -2.88936 -1.76921 0
M  V30 2588 C 242.449 -2.98175 -2.29714 0
M  V30 2589 C 241.596 -2.54491 -1.10135 0
M  V30 2590 H 244.547 -1.57751 -0.173317 0
M  V30 2591 H 244.568 -2.75163 -2.62804 0
M  V30 2592 H 244.08 -3.72616 -1.08532 0
M  V30 2593 H 242.181 -2.19024 -3.01429 0
M  V30 2594 H 242.294 -4.02726 -2.59517 0
M  V30 2595 H 240.658 -2.08702 -1.45999 0
M  V30 2596 H 241.441 -3.4056 -0.432874 0
M  V30 2597 N 243.887 0.651787 -1.4349 0
M  V30 2598 C 244.82 1.77668 -1.43211 0
M  V30 2599 C 245.798 1.59931 -0.29338 0
M  V30 2600 O 246.982 1.82095 -0.487191 0
M  V30 2601 C 244.109 3.14986 -1.24505 0
M  V30 2602 C 243.155 3.51421 -2.41673 0
M  V30 2603 S 243.988 3.51234 -4.04222 0
M  V30 2604 C 245.144 4.91206 -3.87902 0
M  V30 2605 H 245.377 1.77635 -2.38397 0
M  V30 2606 H 242.91 0.824558 -1.30539 0
M  V30 2607 H 244.868 3.94237 -1.144 0
M  V30 2608 H 243.529 3.1258 -0.308651 0
M  V30 2609 H 242.722 4.51291 -2.24393 0
M  V30 2610 H 242.324 2.79585 -2.48411 0
M  V30 2611 H 244.616 5.79902 -3.50315 0
M  V30 2612 H 245.559 5.13537 -4.8753 0
M  V30 2613 H 245.967 4.64808 -3.20334 0
M  V30 2614 N 245.365 1.30045 0.890287 0
M  V30 2615 C 246.275 1.17885 2.02831 0
M  V30 2616 C 247.291 0.0999609 1.73713 0
M  V30 2617 O 248.467 0.313867 1.98939 0
M  V30 2618 C 245.532 0.866079 3.35708 0
M  V30 2619 C 244.593 2.02979 3.78283 0
M  V30 2620 C 243.826 1.73184 5.0482 0
M  V30 2621 O 244.049 0.657237 5.66601 0
M  V30 2622 O 242.983 2.58267 5.43674 0
M  V30 2623 H 246.809 2.13474 2.16015 0
M  V30 2624 H 244.394 1.09587 1.01543 0
M  V30 2625 H 246.276 0.706623 4.15433 0
M  V30 2626 H 244.951 -0.0599443 3.23644 0
M  V30 2627 H 243.858 2.24454 2.99285 0
M  V30 2628 H 245.191 2.93734 3.94944 0
M  V30 2629 N 246.843 -1.10192 1.12674 0
M  V30 2630 C 247.753 -2.20172 0.810026 0
M  V30 2631 C 248.769 -1.72821 -0.202188 0
M  V30 2632 O 249.945 -2.01369 -0.0351691 0
M  V30 2633 C 247.01 -3.45631 0.272007 0
M  V30 2634 C 246.071 -4.07704 1.34447 0
M  V30 2635 C 245.304 -5.27175 0.832029 0
M  V30 2636 O 245.527 -5.69425 -0.333284 0
M  V30 2637 O 244.461 -5.80168 1.60277 0
M  V30 2638 H 248.287 -2.49701 1.72867 0
M  V30 2639 H 245.872 -1.18977 0.903597 0
M  V30 2640 H 247.754 -4.21394 -0.0230219 0
M  V30 2641 H 246.429 -3.17723 -0.619164 0
M  V30 2642 H 245.336 -3.33614 1.6927 0
M  V30 2643 H 246.669 -4.3982 2.2095 0
M  V30 2644 N 248.321 -0.919034 -1.28029 0
M  V30 2645 C 249.549 -0.570971 -1.98866 0
M  V30 2646 C 249.964 0.848996 -1.68634 0
M  V30 2647 O 249.321 1.56307 -0.942036 0
M  V30 2648 C 249.372 -0.776876 -3.53054 0
M  V30 2649 O 249.093 -2.14097 -3.82222 0
M  V30 2650 C 250.594 -0.436356 -4.41147 0
M  V30 2651 H 247.814 -0.217175 -0.634883 0
M  V30 2652 H 250.358 -1.23368 -1.63097 0
M  V30 2653 H 248.513 -0.161085 -3.87065 0
M  V30 2654 H 248.927 -2.18455 -4.76841 0
M  V30 2655 H 250.401 -0.63117 -5.4838 0
M  V30 2656 H 250.878 0.627686 -4.34692 0
M  V30 2657 H 251.484 -1.02991 -4.12641 0
M  V30 2658 N 249.799 1.42003 -0.683588 0
M  V30 2659 C 251.045 2.01712 -0.209825 0
M  V30 2660 C 251.378 1.53968 1.18353 0
M  V30 2661 O 250.653 0.745661 1.79639 0
M  V30 2662 C 250.936 3.59202 -0.254197 0
M  V30 2663 C 250.789 4.17102 -1.68363 0
M  V30 2664 C 252.108 4.38344 0.392709 0
M  V30 2665 H 249.227 0.732891 -0.0777189 0
M  V30 2666 H 251.869 1.68909 -0.87004 0
M  V30 2667 H 250.019 3.87278 0.307954 0
M  V30 2668 H 251.691 3.99946 -2.29871 0
M  V30 2669 H 249.934 3.72597 -2.22157 0
M  V30 2670 H 250.605 5.26249 -1.6663 0
M  V30 2671 H 253.081 4.16011 -0.0859162 0
M  V30 2672 H 251.957 5.47901 0.331063 0
M  V30 2673 H 252.218 4.16887 1.47164 0
M  V30 2674 N 251.277 0.427512 1.51691 0
M  V30 2675 C 252.693 0.0792977 1.59403 0
M  V30 2676 C 252.893 -1.41035 1.43914 0
M  V30 2677 O 251.949 -2.17922 1.27539 0
M  V30 2678 C 253.262 0.590636 2.94842 0
M  V30 2679 C 254.81 0.550215 3.08126 0
M  V30 2680 C 255.285 1.03836 4.46074 0
M  V30 2681 N 256.776 0.995943 4.52366 0
M  V30 2682 C 257.511 1.34463 5.57411 0
M  V30 2683 N 257.007 1.76569 6.69922 0
M  V30 2684 N 258.8 1.26343 5.47717 0
M  V30 2685 H 250.951 1.39687 1.60004 0
M  V30 2686 H 253.214 0.575003 0.753708 0
M  V30 2687 H 252.92 1.63251 3.11516 0
M  V30 2688 H 252.794 0.0102061 3.77199 0
M  V30 2689 H 255.181 -0.482654 2.91126 0
M  V30 2690 H 255.262 1.16693 2.27632 0
M  V30 2691 H 254.906 2.06965 4.63819 0
M  V30 2692 H 254.836 0.398286 5.25092 0
M  V30 2693 H 257.327 0.68661 3.7161 0
M  V30 2694 H 257.64 2.01438 7.46085 0
M  V30 2695 H 255.985 1.80488 6.71155 0
M  V30 2696 H 259.176 0.933209 4.58703 0
M  V30 2697 H 259.349 1.53846 6.29472 0
M  V30 2698 N 252.755 -1.56801 0.158532 0
M  V30 2699 C 253.718 -2.16138 -0.762705 0
M  V30 2700 C 254.718 -1.1061 -1.16713 0
M  V30 2701 O 255.908 -1.36191 -1.08617 0
M  V30 2702 C 253.04 -2.73386 -2.03649 0
M  V30 2703 H 254.233 -2.98886 -0.246354 0
M  V30 2704 H 251.786 -1.56035 -0.0909744 0
M  V30 2705 H 252.521 -1.94335 -2.59623 0
M  V30 2706 H 252.306 -3.50601 -1.75559 0
M  V30 2707 H 253.796 -3.19065 -2.6942 0
M  V30 2708 N 254.233 0.115231 -1.57178 0
M  V30 2709 C 255.166 1.17166 -1.95825 0
M  V30 2710 C 256.144 1.39912 -0.828463 0
M  V30 2711 O 257.328 1.54004 -1.08697 0
M  V30 2712 C 254.455 2.52478 -2.25771 0
M  V30 2713 C 253.501 2.46136 -3.48309 0
M  V30 2714 S 254.334 1.89736 -5.0076 0
M  V30 2715 C 255.49 3.26713 -5.33863 0
M  V30 2716 H 255.723 0.842103 -2.85124 0
M  V30 2717 H 253.256 0.322136 -1.51002 0
M  V30 2718 H 255.214 3.30332 -2.43702 0
M  V30 2719 H 253.875 2.82609 -1.37079 0
M  V30 2720 H 253.068 3.45819 -3.66641 0
M  V30 2721 H 252.67 1.76404 -3.29784 0
M  V30 2722 H 254.962 4.22935 -5.29275 0
M  V30 2723 H 255.905 3.13205 -6.35065 0
M  V30 2724 H 256.313 3.25316 -4.61335 0
M  V30 2725 N 255.711 1.52812 0.385517 0
M  V30 2726 C 256.939 1.71907 1.15133 0
M  V30 2727 C 257.354 0.439004 1.83625 0
M  V30 2728 O 256.711 -0.586765 1.7281 0
M  V30 2729 C 256.762 2.87099 2.19673 0
M  V30 2730 O 256.483 4.10151 1.53973 0
M  V30 2731 C 257.984 3.17902 3.08955 0
M  V30 2732 H 255.204 0.575479 0.345057 0
M  V30 2733 H 257.748 1.99476 0.45052 0
M  V30 2734 H 255.903 2.61982 2.85384 0
M  V30 2735 H 256.317 4.74514 2.23465 0
M  V30 2736 H 257.791 4.01959 3.7833 0
M  V30 2737 H 258.268 2.3243 3.72657 0
M  V30 2738 H 258.874 3.44871 2.48885 0
M  V30 2739 N 257.189 -0.644168 1.43834 0
M  V30 2740 C 258.139 -1.7501 1.46135 0
M  V30 2741 C 259.123 -1.57507 0.328685 0
M  V30 2742 O 260.315 -1.67465 0.5731 0
M  V30 2743 C 257.444 -3.13641 1.39585 0
M  V30 2744 C 256.53 -3.3666 2.57916 0
M  V30 2745 N 256.921 -3.30107 3.83227 0
M  V30 2746 C 255.219 -3.67411 2.52834 0
M  V30 2747 C 255.92 -3.53456 4.61999 0
M  V30 2748 N 254.896 -3.75705 3.9287 0
M  V30 2749 H 258.698 -1.68382 2.40883 0
M  V30 2750 H 256.212 -0.846169 1.38614 0
M  V30 2751 H 258.209 -3.92933 1.39317 0
M  V30 2752 H 256.869 -3.21444 0.45865 0
M  V30 2753 H 257.88 -3.09316 4.15384 0
M  V30 2754 H 254.557 -3.82275 1.67845 0
M  V30 2755 H 255.947 -3.54093 5.71024 0
M  V30 2756 N 258.668 -1.30515 -0.883378 0
M  V30 2757 C 259.914 -1.19607 -1.63774 0
M  V30 2758 C 260.247 0.248314 -1.92606 0
M  V30 2759 O 259.522 1.17742 -1.54813 0
M  V30 2760 C 259.805 -2.02669 -2.97653 0
M  V30 2761 C 259.658 -3.55335 -2.75784 0
M  V30 2762 C 260.977 -1.86573 -3.98596 0
M  V30 2763 H 258.096 -0.435856 -0.594305 0
M  V30 2764 H 260.738 -1.60165 -1.02212 0
M  V30 2765 H 258.888 -1.68208 -3.50197 0
M  V30 2766 H 260.56 -3.99863 -2.30016 0
M  V30 2767 H 258.803 -3.79438 -2.1026 0
M  V30 2768 H 259.474 -4.08745 -3.70988 0
M  V30 2769 H 261.95 -2.16703 -3.55217 0
M  V30 2770 H 260.826 -2.47014 -4.90179 0
M  V30 2771 H 261.087 -0.825321 -4.34328 0
M  V30 2772 N 260.146 1.09593 -1.13257 0
M  V30 2773 C 261.395 1.81105 -0.887917 0
M  V30 2774 C 261.708 1.86563 0.587672 0
M  V30 2775 O 262.914 2.54367 0.949204 0
M  V30 2776 C 261.37 3.25338 -1.53895 0
M  V30 2777 C 260.978 3.28151 -3.04994 0
M  V30 2778 C 262.722 4.01617 -1.37492 0
M  V30 2779 C 260.629 4.66897 -3.6299 0
M  V30 2780 H 259.559 0.678661 -0.328534 0
M  V30 2781 H 262.21 1.23183 -1.36008 0
M  V30 2782 H 260.592 3.8331 -0.994446 0
M  V30 2783 H 261.766 2.79953 -3.66009 0
M  V30 2784 H 260.081 2.65361 -3.20893 0
M  V30 2785 H 262.678 5.04119 -1.78235 0
M  V30 2786 H 263.021 4.15072 -0.31957 0
M  V30 2787 H 263.554 3.50082 -1.88912 0
M  V30 2788 H 260.293 4.58643 -4.68323 0
M  V30 2789 H 259.813 5.15426 -3.06752 0
M  V30 2790 H 261.492 5.3587 -3.62563 0
M  V30 2791 N 261.624 0.925811 1.2754 0
M  V30 2792 C 262.572 0.413897 2.28888 0
M  V30 2793 C 263.566 -0.500779 1.61829 0
M  V30 2794 O 264.772 -0.38069 1.75928 0
M  V30 2795 H 261.147 0.115274 0.743112 0
M  V30 2796 H 263.118 1.28151 2.69481 0
M  V30 2797 C 261.867 -0.319792 3.46226 0
M  V30 2798 H 261.19 0.374846 3.98039 0
M  V30 2799 H 262.63 -0.642435 4.19105 0
M  V30 2800 C 261.089 -1.53209 3.00048 0
M  V30 2801 O 261.619 -2.6309 3.03557 0
M  V30 2802 N 259.825 -1.38326 2.55566 0
M  V30 2803 H 259.372 -0.489292 2.5291 0
M  V30 2804 H 259.33 -2.19564 2.25031 0
M  V30 2805 N 263.102 -1.41638 0.69111 0
M  V30 2806 C 264.034 -2.29194 -0.0161523 0
M  V30 2807 C 265.047 -1.44549 -0.748955 0
M  V30 2808 O 266.236 -1.681 -0.6004 0
M  V30 2809 C 263.336 -3.22325 -1.0469 0
M  V30 2810 C 262.509 -4.35706 -0.384621 0
M  V30 2811 C 261.568 -5.09443 -1.31737 0
M  V30 2812 O 260.594 -5.63386 -0.811451 0
M  V30 2813 N 261.796 -5.16487 -2.64993 0
M  V30 2814 H 264.561 -2.90534 0.735523 0
M  V30 2815 H 262.122 -1.52742 0.53679 0
M  V30 2816 H 264.114 -3.68522 -1.67252 0
M  V30 2817 H 262.684 -2.62323 -1.70015 0
M  V30 2818 H 261.904 -3.91948 0.420804 0
M  V30 2819 H 263.192 -5.08743 0.0760765 0
M  V30 2820 H 262.59 -4.741 -3.08619 0
M  V30 2821 H 261.147 -5.66276 -3.22761 0
M  V30 2822 N 264.58 -0.43555 -1.51462 0
M  V30 2823 C 265.828 0.131254 -2.01673 0
M  V30 2824 C 266.149 1.43368 -1.32177 0
M  V30 2825 O 265.419 1.90524 -0.455769 0
M  V30 2826 H 263.999 0.0514954 -0.745223 0
M  V30 2827 H 266.661 -0.577847 -1.86137 0
M  V30 2828 H 265.757 0.308446 -3.10572 0
M  V30 2829 N 266.058 1.56714 -0.166846 0
M  V30 2830 C 266.991 2.13577 0.80375 0
M  V30 2831 C 267.969 1.06464 1.22899 0
M  V30 2832 O 269.153 1.34413 1.32157 0
M  V30 2833 C 266.28 2.67168 2.0818 0
M  V30 2834 C 265.326 3.86612 1.80093 0
M  V30 2835 S 266.159 5.26565 0.97416 0
M  V30 2836 C 267.315 5.83558 2.26297 0
M  V30 2837 H 267.548 2.9557 0.320267 0
M  V30 2838 H 265.081 1.54326 0.0477555 0
M  V30 2839 H 267.039 2.98692 2.8159 0
M  V30 2840 H 265.7 1.85269 2.53642 0
M  V30 2841 H 264.893 4.22422 2.7491 0
M  V30 2842 H 264.495 3.55951 1.14781 0
M  V30 2843 H 266.787 5.962 3.21795 0
M  V30 2844 H 267.73 6.80731 1.94962 0
M  V30 2845 H 268.138 5.11944 2.37853 0
M  V30 2846 N 267.536 -0.106894 1.57237 0
M  V30 2847 C 268.499 -1.11466 2.0027 0
M  V30 2848 C 269.499 -1.33623 0.894519 0
M  V30 2849 O 270.689 -1.29935 1.16028 0
M  V30 2850 C 267.821 -2.46646 2.35327 0
M  V30 2851 H 269.014 -0.744516 2.90512 0
M  V30 2852 H 266.567 -0.351576 1.52295 0
M  V30 2853 H 267.302 -2.88558 1.48003 0
M  V30 2854 H 267.087 -2.31915 3.16161 0
M  V30 2855 H 268.577 -3.19151 2.69318 0
M  V30 2856 N 269.014 -1.53014 -0.377408 0
M  V30 2857 C 269.947 -1.73382 -1.48371 0
M  V30 2858 C 270.925 -0.581879 -1.51832 0
M  V30 2859 O 272.109 -0.81307 -1.70063 0
M  V30 2860 C 269.236 -1.80192 -2.8679 0
M  V30 2861 C 268.282 -3.02056 -3.01105 0
M  V30 2862 S 269.115 -4.61811 -2.71093 0
M  V30 2863 C 270.271 -4.71453 -4.11683 0
M  V30 2864 H 270.504 -2.66946 -1.30872 0
M  V30 2865 H 268.037 -1.43453 -0.571012 0
M  V30 2866 H 269.995 -1.84802 -3.6655 0
M  V30 2867 H 268.656 -0.877008 -3.01608 0
M  V30 2868 H 267.849 -3.03396 -4.02451 0
M  V30 2869 H 267.451 -2.95498 -2.29253 0
M  V30 2870 H 269.743 -4.50781 -5.0577 0
M  V30 2871 H 270.686 -5.73487 -4.15353 0
M  V30 2872 H 271.094 -4.00189 -3.98132 0
M  V30 2873 N 270.492 0.636531 -1.44174 0
M  V30 2874 C 271.722 1.42146 -1.49927 0
M  V30 2875 C 272.13 1.88812 -0.121063 0
M  V30 2876 O 271.473 1.61126 0.882267 0
M  V30 2877 C 271.535 2.67883 -2.39748 0
M  V30 2878 C 271.199 2.43048 -3.8701 0
M  V30 2879 C 272.196 2.05216 -4.77684 0
M  V30 2880 C 269.881 2.56856 -4.3166 0
M  V30 2881 C 271.875 1.81512 -6.11009 0
M  V30 2882 C 269.562 2.32766 -5.65034 0
M  V30 2883 C 270.56 1.95152 -6.54526 0
M  V30 2884 O 270.248 1.71326 -7.85431 0
M  V30 2885 H 269.98 0.442567 -0.51099 0
M  V30 2886 H 272.534 0.786158 -1.8976 0
M  V30 2887 H 270.764 3.34032 -1.94832 0
M  V30 2888 H 272.453 3.29874 -2.36513 0
M  V30 2889 H 273.219 1.94111 -4.44462 0
M  V30 2890 H 269.098 2.85104 -3.62266 0
M  V30 2891 H 272.642 1.52077 -6.80822 0
M  V30 2892 H 268.539 2.43479 -5.97819 0
M  V30 2893 H 269.307 1.85616 -7.97176 0
M  V30 2894 N 271.97 1.30982 0.876444 0
M  V30 2895 C 273.216 1.21484 1.63136 0
M  V30 2896 C 273.571 -0.226339 1.91064 0
M  V30 2897 O 272.864 -1.15788 1.52656 0
M  V30 2898 C 273.058 1.98572 2.9716 0
M  V30 2899 C 272.887 3.50039 2.82317 0
M  V30 2900 C 271.657 4.19393 2.81847 0
M  V30 2901 C 273.855 4.45111 2.57644 0
M  V30 2902 N 271.837 5.57061 2.57985 0
M  V30 2903 C 273.208 5.70402 2.42986 0
M  V30 2904 C 275.263 4.3461 2.42937 0
M  V30 2905 C 273.966 6.8638 2.15115 0
M  V30 2906 C 275.992 5.50365 2.16454 0
M  V30 2907 C 275.354 6.74642 2.02578 0
M  V30 2908 H 271.453 0.499632 0.601575 0
M  V30 2909 H 274.037 1.65094 1.03209 0
M  V30 2910 H 272.208 1.5734 3.55104 0
M  V30 2911 H 273.94 1.81146 3.61895 0
M  V30 2912 H 270.695 3.71303 2.93991 0
M  V30 2913 H 271.119 6.29529 2.49043 0
M  V30 2914 H 275.761 3.39199 2.52396 0
M  V30 2915 H 273.479 7.81824 2.04394 0
M  V30 2916 H 277.065 5.44154 2.05884 0
M  V30 2917 H 275.945 7.62699 1.82374 0
M  V30 2918 N 273.449 -1.08991 1.13837 0
M  V30 2919 C 274.697 -1.80899 0.901098 0
M  V30 2920 C 275.018 -1.86356 -0.574134 0
M  V30 2921 O 274.288 -1.35235 -1.41733 0
M  V30 2922 H 272.868 -0.669966 0.330386 0
M  V30 2923 H 275.53 -1.318 1.43578 0
M  V30 2924 H 274.626 -2.83929 1.29578 0
M  V30 2925 N 274.927 -0.932562 -1.27047 0
M  V30 2926 C 276.155 -0.592031 -1.98249 0
M  V30 2927 C 276.57 0.831062 -1.69525 0
M  V30 2928 O 275.927 1.55299 -0.958561 0
M  V30 2929 C 275.978 -0.814279 -3.5221 0
M  V30 2930 O 275.699 -2.18139 -3.7993 0
M  V30 2931 C 277.2 -0.483121 -4.4066 0
M  V30 2932 H 274.42 -0.223896 -0.632544 0
M  V30 2933 H 276.964 -1.25091 -1.61779 0
M  V30 2934 H 275.119 -0.20213 -3.86872 0
M  V30 2935 H 275.533 -2.235 -4.74498 0
M  V30 2936 H 277.007 -0.689298 -5.47679 0
M  V30 2937 H 277.484 0.581546 -4.35333 0
M  V30 2938 H 278.09 -1.07362 -4.11526 0
M  V30 2939 N 276.405 1.4127 -0.698611 0
M  V30 2940 C 277.63 2.06024 -0.238512 0
M  V30 2941 C 278.055 1.5224 1.10475 0
M  V30 2942 O 277.413 0.650623 1.69223 0
M  V30 2943 C 277.461 3.59988 -0.209952 0
M  V30 2944 O 276.565 4.04282 0.814235 0
M  V30 2945 H 275.906 0.653829 -0.115775 0
M  V30 2946 H 278.436 1.8098 -0.954326 0
M  V30 2947 H 278.446 4.07979 -0.0418436 0
M  V30 2948 H 277.121 3.98503 -1.1903 0
M  V30 2949 H 275.698 3.6779 0.615234 0
M  V30 2950 N 277.883 0.443576 1.51229 0
M  V30 2951 C 279.299 0.0962001 1.5931 0
M  V30 2952 C 279.499 -1.39501 1.45402 0
M  V30 2953 O 278.555 -2.16557 1.29843 0
M  V30 2954 C 279.868 0.621875 2.94199 0
M  V30 2955 C 281.416 0.582865 3.07525 0
M  V30 2956 C 281.891 1.08562 4.44948 0
M  V30 2957 N 283.382 1.04387 4.51284 0
M  V30 2958 C 284.117 1.40368 5.55954 0
M  V30 2959 N 283.613 1.83664 6.68011 0
M  V30 2960 N 285.406 1.32145 5.46346 0
M  V30 2961 H 277.557 1.41376 1.58514 0
M  V30 2962 H 279.82 0.582965 0.747567 0
M  V30 2963 H 279.526 1.66546 3.09767 0
M  V30 2964 H 279.4 0.0502125 3.77167 0
M  V30 2965 H 281.787 -0.451749 2.91622 0
M  V30 2966 H 281.868 1.191 2.26382 0
M  V30 2967 H 281.512 2.11873 4.61598 0
M  V30 2968 H 281.442 0.453956 5.2464 0
M  V30 2969 H 283.933 0.725986 3.70861 0
M  V30 2970 H 284.246 2.0934 7.43906 0
M  V30 2971 H 282.591 1.87596 6.69203 0
M  V30 2972 H 285.782 0.981808 4.57688 0
M  V30 2973 H 285.955 1.60514 6.27805 0
M  V30 2974 N 279.361 -1.56624 0.175154 0
M  V30 2975 C 280.607 -1.98061 -0.462976 0
M  V30 2976 C 280.962 -1.05949 -1.60601 0
M  V30 2977 O 280.255 -0.0999027 -1.91339 0
M  V30 2978 C 280.449 -3.43419 -0.989864 0
M  V30 2979 C 280.278 -4.49587 0.100583 0
M  V30 2980 C 279.048 -5.02281 0.551539 0
M  V30 2981 C 281.246 -5.06322 0.902369 0
M  V30 2982 N 279.228 -5.92088 1.62189 0
M  V30 2983 C 280.599 -5.92607 1.82256 0
M  V30 2984 C 282.654 -4.88811 0.947019 0
M  V30 2985 C 281.357 -6.63254 2.78364 0
M  V30 2986 C 283.383 -5.60182 1.89606 0
M  V30 2987 C 282.745 -6.46197 2.80372 0
M  V30 2988 H 278.844 -0.769833 -0.137409 0
M  V30 2989 H 281.428 -1.9273 0.276256 0
M  V30 2990 H 279.599 -3.49288 -1.6986 0
M  V30 2991 H 281.331 -3.7186 -1.59694 0
M  V30 2992 H 278.086 -4.73367 0.148537 0
M  V30 2993 H 278.51 -6.41696 2.15767 0
M  V30 2994 H 283.152 -4.22004 0.259304 0
M  V30 2995 H 280.87 -7.29271 3.48122 0
M  V30 2996 H 284.456 -5.48617 1.93676 0
M  V30 2997 H 283.336 -7.00453 3.52612 0
M  V30 2998 N 280.839 0.0985539 -1.57292 0
M  V30 2999 C 282.064 0.820196 -1.90493 0
M  V30 3000 C 282.489 1.71658 -0.769094 0
M  V30 3001 O 281.847 1.79133 0.279495 0
M  V30 3002 C 281.895 1.61242 -3.22542 0
M  V30 3003 O 280.999 2.72108 -3.09888 0
M  V30 3004 H 280.34 0.225547 -0.62452 0
M  V30 3005 H 282.87 0.0748159 -2.04463 0
M  V30 3006 H 282.88 1.99737 -3.55766 0
M  V30 3007 H 281.555 0.954535 -4.04798 0
M  V30 3008 H 280.132 2.36667 -2.88172 0
M  V30 3009 N 282.317 1.53212 0.369288 0
M  V30 3010 C 283.542 1.73423 1.1375 0
M  V30 3011 C 283.967 0.460404 1.82378 0
M  V30 3012 O 283.325 -0.585298 1.71592 0
M  V30 3013 C 283.373 2.89769 2.1463 0
M  V30 3014 O 282.477 2.58119 3.21634 0
M  V30 3015 H 281.818 0.576061 0.330227 0
M  V30 3016 H 284.348 2.00083 0.427547 0
M  V30 3017 H 284.358 3.15829 2.58294 0
M  V30 3018 H 283.033 3.8217 1.64071 0
M  V30 3019 H 281.61 2.42864 2.82969 0
M  V30 3020 N 283.795 -0.628877 1.44509 0
M  V30 3021 C 284.728 -1.75367 1.46019 0
M  V30 3022 C 285.706 -1.59444 0.318787 0
M  V30 3023 O 286.89 -1.81297 0.516099 0
M  V30 3024 C 284.017 -3.12965 1.29501 0
M  V30 3025 C 283.063 -3.47532 2.47233 0
M  V30 3026 S 283.896 -3.44758 4.09758 0
M  V30 3027 C 285.052 -4.84973 3.95667 0
M  V30 3028 H 285.285 -1.7382 2.41193 0
M  V30 3029 H 282.818 -0.803686 1.31834 0
M  V30 3030 H 284.776 -3.92367 1.20658 0
M  V30 3031 H 283.437 -3.12049 0.358341 0
M  V30 3032 H 282.63 -4.47664 2.31544 0
M  V30 3033 H 282.232 -2.75598 2.52828 0
M  V30 3034 H 284.524 -5.74255 3.59496 0
M  V30 3035 H 285.467 -5.05716 4.95638 0
M  V30 3036 H 285.875 -4.59653 3.27688 0
M  V30 3037 N 285.273 -1.31445 -0.869486 0
M  V30 3038 C 286.183 -1.21097 -2.0093 0
M  V30 3039 C 287.199 -0.127584 -1.73532 0
M  V30 3040 O 288.375 -0.345477 -1.98415 0
M  V30 3041 C 285.44 -0.919378 -3.34288 0
M  V30 3042 C 284.501 -2.08971 -3.75006 0
M  V30 3043 C 283.734 -1.81194 -5.02001 0
M  V30 3044 O 283.957 -0.747296 -5.65484 0
M  V30 3045 O 282.891 -2.66883 -5.39497 0
M  V30 3046 H 286.717 -2.16883 -2.12592 0
M  V30 3047 H 284.302 -1.11189 -0.997868 0
M  V30 3048 H 286.184 -0.772625 -4.14257 0
M  V30 3049 H 284.859 0.00844772 -3.23699 0
M  V30 3050 H 283.766 -2.29187 -2.95676 0
M  V30 3051 H 285.099 -2.9998 -3.90221 0
M  V30 3052 N 286.751 1.08385 -1.14413 0
M  V30 3053 C 288 1.80153 -0.907076 0
M  V30 3054 C 288.313 1.87176 0.567851 0
M  V30 3055 O 289.519 2.55359 0.922172 0
M  V30 3056 C 287.975 3.23687 -1.57336 0
M  V30 3057 C 287.583 3.24897 -3.08457 0
M  V30 3058 C 289.327 4.00136 -1.41744 0
M  V30 3059 C 287.234 4.6302 -3.67921 0
M  V30 3060 H 286.164 0.675139 -0.335714 0
M  V30 3061 H 288.815 1.21733 -1.37307 0
M  V30 3062 H 287.197 3.82234 -1.03505 0
M  V30 3063 H 288.371 2.76055 -3.68958 0
M  V30 3064 H 286.686 2.61943 -3.2369 0
M  V30 3065 H 289.283 5.02201 -1.83572 0
M  V30 3066 H 289.626 4.14709 -0.363576 0
M  V30 3067 H 290.159 3.48058 -1.92614 0
M  V30 3068 H 286.898 4.5365 -4.73161 0
M  V30 3069 H 286.418 5.12143 -3.12201 0
M  V30 3070 H 288.097 5.31994 -3.68227 0
M  V30 3071 N 288.23 0.939286 1.26551 0
M  V30 3072 C 289.163 0.391702 2.24813 0
M  V30 3073 C 290.141 -0.518421 1.54114 0
M  V30 3074 O 291.325 -0.456299 1.82894 0
M  V30 3075 C 288.452 -0.437382 3.35864 0
M  V30 3076 C 287.498 0.410946 4.24516 0
M  V30 3077 S 288.331 1.83372 5.03125 0
M  V30 3078 C 289.487 1.01264 6.17654 0
M  V30 3079 H 289.72 1.22448 2.70913 0
M  V30 3080 H 287.253 0.742269 1.35387 0
M  V30 3081 H 289.211 -0.909837 4.0029 0
M  V30 3082 H 287.872 -1.24482 2.8838 0
M  V30 3083 H 287.065 -0.224191 5.03501 0
M  V30 3084 H 286.667 0.818014 3.64945 0
M  V30 3085 H 288.959 0.254023 6.77024 0
M  V30 3086 H 289.902 1.77589 6.85469 0
M  V30 3087 H 290.31 0.549532 5.61819 0
M  V30 3088 N 289.708 -1.40897 0.706093 0
M  V30 3089 C 290.618 -2.3455 0.0482286 0
M  V30 3090 C 291.634 -1.56796 -0.754396 0
M  V30 3091 O 292.81 -1.89228 -0.689538 0
M  V30 3092 C 289.875 -3.35625 -0.869303 0
M  V30 3093 C 288.936 -4.29261 -0.0576994 0
M  V30 3094 C 288.169 -5.25508 -0.931531 0
M  V30 3095 O 288.392 -5.27472 -2.17092 0
M  V30 3096 O 287.326 -6.00727 -0.375587 0
M  V30 3097 H 291.152 -2.92407 0.820476 0
M  V30 3098 H 288.737 -1.4193 0.4665 0
M  V30 3099 H 290.619 -3.97635 -1.39514 0
M  V30 3100 H 289.294 -2.80196 -1.62086 0
M  V30 3101 H 288.201 -3.70566 0.512988 0
M  V30 3102 H 289.534 -4.87817 0.655426 0
M  V30 3103 N 291.186 -0.45159 -1.50991 0
M  V30 3104 C 292.149 0.341117 -2.26647 0
M  V30 3105 C 293.149 0.937422 -1.30649 0
M  V30 3106 O 294.339 0.809644 -1.54241 0
M  V30 3107 C 291.471 1.48398 -3.06905 0
M  V30 3108 H 292.664 -0.322117 -2.98165 0
M  V30 3109 H 290.217 -0.205122 -1.54948 0
M  V30 3110 H 290.952 2.18284 -2.39838 0
M  V30 3111 H 290.737 1.06241 -3.77432 0
M  V30 3112 H 292.227 2.04367 -3.64176 0
M  V30 3113 N 292.664 1.56529 -0.183458 0
M  V30 3114 C 293.894 2.01331 0.463612 0
M  V30 3115 C 294.302 1.06278 1.5653 0
M  V30 3116 O 293.645 0.0577976 1.83609 0
M  V30 3117 C 293.707 3.42547 1.09096 0
M  V30 3118 C 293.371 4.56817 0.129442 0
M  V30 3119 C 294.368 5.15734 -0.656807 0
M  V30 3120 C 292.053 5.02295 0.02174 0
M  V30 3121 C 294.047 6.1857 -1.53784 0
M  V30 3122 C 291.734 6.04978 -0.862864 0
M  V30 3123 C 292.732 6.62988 -1.64123 0
M  V30 3124 O 292.42 7.63677 -2.51103 0
M  V30 3125 H 292.152 0.664917 0.121907 0
M  V30 3126 H 294.706 2.034 -0.285954 0
M  V30 3127 H 292.936 3.37428 1.88889 0
M  V30 3128 H 294.625 3.71228 1.64148 0
M  V30 3129 H 295.391 4.81473 -0.583839 0
M  V30 3130 H 291.27 4.56847 0.617392 0
M  V30 3131 H 294.814 6.63777 -2.14583 0
M  V30 3132 H 290.711 6.38663 -0.93699 0
M  V30 3133 H 291.479 7.81049 -2.44753 0
M  V30 3134 N 294.142 -0.090211 1.57342 0
M  V30 3135 C 295.367 -0.810082 1.90925 0
M  V30 3136 C 295.792 -1.71248 0.778187 0
M  V30 3137 O 295.15 -1.79278 -0.269991 0
M  V30 3138 C 295.198 -1.59529 3.23393 0
M  V30 3139 O 294.302 -2.70461 3.11327 0
M  V30 3140 H 293.643 -0.222231 0.625707 0
M  V30 3141 H 296.173 -0.0639716 2.045 0
M  V30 3142 H 296.183 -1.97847 3.5682 0
M  V30 3143 H 294.858 -0.933055 4.05299 0
M  V30 3144 H 293.435 -2.35135 2.89423 0
M  V30 3145 N 295.62 -1.53406 -0.361157 0
M  V30 3146 C 296.866 -1.70054 -1.10496 0
M  V30 3147 C 297.199 -0.453278 -1.88836 0
M  V30 3148 O 296.474 0.5495 -1.86576 0
M  V30 3149 C 296.757 -2.95317 -2.06058 0
M  V30 3150 C 296.61 -4.3021 -1.31298 0
M  V30 3151 C 297.929 -3.16193 -3.06121 0
M  V30 3152 H 295.048 -0.618799 -0.400321 0
M  V30 3153 H 297.69 -1.86052 -0.385318 0
M  V30 3154 H 295.84 -2.81809 -2.67425 0
M  V30 3155 H 297.512 -4.55538 -0.726807 0
M  V30 3156 H 295.755 -4.29421 -0.614853 0
M  V30 3157 H 296.426 -5.14 -2.01265 0
M  V30 3158 H 298.902 -3.28916 -2.5486 0
M  V30 3159 H 297.778 -4.05266 -3.70204 0
M  V30 3160 H 298.039 -2.31676 -3.76535 0
M  V30 3161 N 297.098 0.621204 -1.44841 0
M  V30 3162 C 298.061 1.71459 -1.521 0
M  V30 3163 C 299.061 1.55696 -0.401933 0
M  V30 3164 O 300.251 1.61011 -0.664925 0
M  V30 3165 C 297.383 3.10624 -1.40447 0
M  V30 3166 H 298.576 1.66394 -2.49506 0
M  V30 3167 H 296.129 0.835745 -1.3208 0
M  V30 3168 H 296.864 3.21277 -0.441737 0
M  V30 3169 H 296.649 3.23473 -2.21602 0
M  V30 3170 H 298.139 3.90293 -1.4853 0
M  V30 3171 N 298.576 1.31904 0.862503 0
M  V30 3172 C 299.992 1.10724 1.14945 0
M  V30 3173 C 300.192 -0.117421 2.01158 0
M  V30 3174 O 299.248 -0.804595 2.39338 0
M  V30 3175 C 300.561 2.38267 1.83437 0
M  V30 3176 C 302.109 2.43949 1.96106 0
M  V30 3177 C 302.584 3.71394 2.68013 0
M  V30 3178 N 304.075 3.72331 2.75543 0
M  V30 3179 C 304.81 4.67641 3.31812 0
M  V30 3180 N 304.306 5.73313 3.88953 0
M  V30 3181 N 306.099 4.5515 3.29841 0
M  V30 3182 H 298.25 2.10436 0.288191 0
M  V30 3183 H 300.513 0.928705 0.190292 0
M  V30 3184 H 300.219 3.27759 1.27542 0
M  V30 3185 H 300.093 2.48633 2.83657 0
M  V30 3186 H 302.48 1.54922 2.51164 0
M  V30 3187 H 302.561 2.37543 0.949059 0
M  V30 3188 H 302.205 4.60791 2.13621 0
M  V30 3189 H 302.135 3.75069 3.69636 0
M  V30 3190 H 304.626 2.95947 2.34997 0
M  V30 3191 H 304.939 6.42107 4.30022 0
M  V30 3192 H 303.284 5.77077 3.87308 0
M  V30 3193 H 306.475 3.71766 2.84443 0
M  V30 3194 H 306.648 5.29604 3.73394 0
M  V30 3195 N 300.054 -1.07777 1.14986 0
M  V30 3196 C 300.986 -2.14769 0.800436 0
M  V30 3197 C 301.999 -1.61739 -0.185595 0
M  V30 3198 O 303.188 -1.78462 0.0370358 0
M  V30 3199 C 300.288 -3.38481 0.168533 0
M  V30 3200 C 299.461 -4.20876 1.1909 0
M  V30 3201 C 298.52 -5.22976 0.581575 0
M  V30 3202 O 297.546 -5.55388 1.24633 0
M  V30 3203 N 298.748 -5.76976 -0.638706 0
M  V30 3204 H 301.513 -2.45348 1.72118 0
M  V30 3205 H 299.074 -1.23645 1.04515 0
M  V30 3206 H 301.066 -4.03916 -0.251764 0
M  V30 3207 H 299.636 -3.05651 -0.655467 0
M  V30 3208 H 298.856 -3.51322 1.78791 0
M  V30 3209 H 300.144 -4.7274 1.88133 0
M  V30 3210 H 299.542 -5.52886 -1.19723 0
M  V30 3211 H 298.099 -6.44061 -1.00142 0
M  V30 3212 N 301.532 -0.945985 -1.26051 0
M  V30 3213 C 302.779 -0.596118 -1.93527 0
M  V30 3214 C 303.107 0.865559 -1.74179 0
M  V30 3215 O 302.362 1.63524 -1.0751 0
M  V30 3216 C 302.661 -0.890475 -3.46129 0
M  V30 3217 C 302.327 -2.3368 -3.85622 0
M  V30 3218 C 300.989 -2.73216 -3.96114 0
M  V30 3219 C 303.341 -3.27648 -4.05334 0
M  V30 3220 C 300.669 -4.05806 -4.2372 0
M  V30 3221 C 303.021 -4.59841 -4.3443 0
M  V30 3222 C 301.685 -4.99185 -4.43137 0
M  V30 3223 H 300.955 -0.218135 -0.708165 0
M  V30 3224 H 303.602 -1.1934 -1.49768 0
M  V30 3225 H 301.907 -0.210711 -3.91233 0
M  V30 3226 H 303.604 -0.598478 -3.96509 0
M  V30 3227 H 300.194 -2.02015 -3.78005 0
M  V30 3228 H 304.378 -2.98298 -3.96651 0
M  V30 3229 H 299.634 -4.35945 -4.28675 0
M  V30 3230 H 303.808 -5.32641 -4.48628 0
M  V30 3231 H 301.435 -6.01952 -4.64282 0
M  V30 3232 N 303.011 1.40521 -0.713556 0
M  V30 3233 C 303.959 2.32549 -0.0485227 0
M  V30 3234 C 304.953 1.51931 0.74922 0
M  V30 3235 O 306.159 1.67745 0.652816 0
M  V30 3236 H 302.534 0.751994 0.00311138 0
M  V30 3237 H 304.505 2.86291 -0.841443 0
M  V30 3238 C 303.254 3.36879 0.860687 0
M  V30 3239 H 302.577 3.98978 0.256246 0
M  V30 3240 H 304.017 4.03772 1.294 0
M  V30 3241 C 302.476 2.72197 1.9852 0
M  V30 3242 O 303.006 2.5837 3.07584 0
M  V30 3243 N 301.212 2.30612 1.76823 0
M  V30 3244 H 300.759 2.42059 0.881217 0
M  V30 3245 H 300.717 1.87672 2.52243 0
M  V30 3246 N 304.489 0.459591 1.5075 0
M  V30 3247 C 305.419 -0.330644 2.31147 0
M  V30 3248 C 306.4 -1.00087 1.37538 0
M  V30 3249 O 307.585 -1.00025 1.66459 0
M  V30 3250 C 304.715 -1.41958 3.16962 0
M  V30 3251 C 303.669 -0.871608 4.19031 0
M  V30 3252 C 302.995 -2.05797 4.9351 0
M  V30 3253 C 304.295 0.109251 5.22186 0
M  V30 3254 H 305.989 0.340336 2.97459 0
M  V30 3255 H 303.535 0.165119 1.4305 0
M  V30 3256 H 305.488 -1.9798 3.71997 0
M  V30 3257 H 304.212 -2.11917 2.48513 0
M  V30 3258 H 302.871 -0.333442 3.6508 0
M  V30 3259 H 302.519 -2.74427 4.21544 0
M  V30 3260 H 302.219 -1.6976 5.62544 0
M  V30 3261 H 303.743 -2.62331 5.51375 0
M  V30 3262 H 305.157 -0.361405 5.7216 0
M  V30 3263 H 303.554 0.383316 5.98875 0
M  V30 3264 H 304.624 1.03887 4.73641 0
M  V30 3265 N 305.967 -1.56429 0.191757 0
M  V30 3266 C 307.195 -2.01867 -0.453586 0
M  V30 3267 C 307.61 -1.07191 -1.5542 0
M  V30 3268 O 306.967 -0.0762108 -1.82341 0
M  V30 3269 C 307.018 -3.47017 -1.013 0
M  V30 3270 O 306.739 -4.38078 0.0437005 0
M  V30 3271 C 308.24 -4.07956 -1.73456 0
M  V30 3272 H 305.46 -0.661211 -0.114199 0
M  V30 3273 H 308.004 -2.02295 0.299483 0
M  V30 3274 H 306.159 -3.47298 -1.71647 0
M  V30 3275 H 306.573 -5.23178 -0.372212 0
M  V30 3276 H 308.047 -5.1138 -2.07833 0
M  V30 3277 H 308.524 -3.51222 -2.63704 0
M  V30 3278 H 309.13 -4.11437 -1.07702 0
M  V30 3279 N 307.445 0.0818655 -1.57387 0
M  V30 3280 C 308.856 0.634871 -1.75574 0
M  V30 3281 C 309.207 1.78435 -0.815809 0
M  V30 3282 O 308.332 2.164 0.0025366 0
M  V30 3283 C 308.927 1.15845 -3.18379 0
M  V30 3284 C 307.486 1.65741 -3.37945 0
M  V30 3285 C 306.633 0.572549 -2.71325 0
M  V30 3286 H 309.584 -0.144268 -1.58043 0
M  V30 3287 H 309.605 2.02751 -3.21982 0
M  V30 3288 H 309.117 0.321631 -3.86765 0
M  V30 3289 H 307.218 2.51781 -2.74658 0
M  V30 3290 H 307.331 1.74129 -4.46336 0
M  V30 3291 H 305.695 1.01518 -2.33594 0
M  V30 3292 H 306.478 -0.253918 -3.4236 0
M  V30 3293 N 308.923 1.53595 0.353017 0
M  V30 3294 C 310.334 1.61937 0.929153 0
M  V30 3295 C 310.685 0.494686 1.89861 0
M  V30 3296 O 309.81 -0.377017 2.1309 0
M  V30 3297 C 310.405 2.93526 1.69199 0
M  V30 3298 C 308.964 3.04161 2.21727 0
M  V30 3299 C 308.111 2.57322 1.03348 0
M  V30 3300 H 311.062 1.58155 0.131431 0
M  V30 3301 H 311.083 2.82034 2.55416 0
M  V30 3302 H 310.595 3.75362 0.986144 0
M  V30 3303 H 308.696 2.26938 2.95516 0
M  V30 3304 H 308.809 4.09465 2.48748 0
M  V30 3305 H 307.173 2.12499 1.40414 0
M  V30 3306 H 307.956 3.41588 0.342428 0
M  V30 3307 N 310.401 -0.613514 1.45168 0
M  V30 3308 C 311.65 -1.36874 1.4815 0
M  V30 3309 C 311.963 -1.952 0.124982 0
M  V30 3310 O 313.169 -2.71481 0.0324176 0
M  V30 3311 C 311.625 -2.47905 2.60904 0
M  V30 3312 C 311.233 -1.96016 4.02842 0
M  V30 3313 C 312.977 -3.24965 2.73126 0
M  V30 3314 C 310.884 -3.04494 5.06988 0
M  V30 3315 H 309.814 -0.514428 0.551253 0
M  V30 3316 H 312.465 -0.658182 1.7129 0
M  V30 3317 H 310.847 -3.21618 2.31037 0
M  V30 3318 H 312.021 -1.29051 4.4236 0
M  V30 3319 H 310.336 -1.31719 3.95018 0
M  V30 3320 H 312.933 -4.05865 3.48106 0
M  V30 3321 H 313.276 -3.75588 1.79553 0
M  V30 3322 H 313.809 -2.5835 3.0249 0
M  V30 3323 H 310.548 -2.58795 6.0225 0
M  V30 3324 H 310.068 -3.70044 4.72046 0
M  V30 3325 H 311.747 -3.68976 5.31475 0
M  V30 3326 N 311.879 -1.3236 -0.855495 0
M  V30 3327 C 313.119 -1.24187 -1.62348 0
M  V30 3328 C 313.483 0.193597 -1.91021 0
M  V30 3329 O 314.684 0.39904 -2.65822 0
M  V30 3330 C 312.955 -2.07661 -2.90881 0
M  V30 3331 S 314.514 -2.16505 -3.81669 0
M  V30 3332 H 311.332 -0.442076 -0.556857 0
M  V30 3333 H 313.934 -1.67198 -1.01317 0
M  V30 3334 H 312.638 -3.11018 -2.67761 0
M  V30 3335 H 312.169 -1.65425 -3.56929 0
M  V30 3336 H 314.184 -1.31394 -4.78487 0
M  V30 3337 N 313.357 1.07166 -1.15556 0
M  V30 3338 C 314.267 2.17947 -0.868116 0
M  V30 3339 C 315.283 1.73297 0.156297 0
M  V30 3340 O 316.459 2.01392 -0.0182327 0
M  V30 3341 C 313.524 3.44789 -0.36355 0
M  V30 3342 C 312.585 4.03996 -1.45209 0
M  V30 3343 C 311.818 5.24783 -0.971508 0
M  V30 3344 O 312.041 5.70109 0.182194 0
M  V30 3345 O 310.975 5.75715 -1.75603 0
M  V30 3346 H 314.801 2.4503 -1.79427 0
M  V30 3347 H 312.386 1.16539 -0.934824 0
M  V30 3348 H 314.268 4.21307 -0.0887113 0
M  V30 3349 H 312.943 3.19253 0.534708 0
M  V30 3350 H 311.85 3.29009 -1.78056 0
M  V30 3351 H 313.183 4.33808 -2.32533 0
M  V30 3352 N 314.835 0.952656 1.25548 0
M  V30 3353 C 315.767 0.428609 2.25157 0
M  V30 3354 C 316.78 -0.454428 1.56329 0
M  V30 3355 O 317.969 -0.263023 1.76552 0
M  V30 3356 C 315.069 -0.401972 3.36508 0
M  V30 3357 C 314.242 0.467601 4.34893 0
M  V30 3358 C 313.301 -0.30445 5.25319 0
M  V30 3359 O 312.327 0.296473 5.68427 0
M  V30 3360 N 313.529 -1.59805 5.5807 0
M  V30 3361 H 316.294 1.28497 2.70756 0
M  V30 3362 H 313.855 0.822798 1.39433 0
M  V30 3363 H 315.847 -0.926134 3.9396 0
M  V30 3364 H 314.417 -1.15918 2.90313 0
M  V30 3365 H 313.637 1.17288 3.76347 0
M  V30 3366 H 314.925 1.06119 4.97611 0
M  V30 3367 H 314.323 -2.10823 5.24948 0
M  V30 3368 H 312.88 -2.06822 6.18116 0
M  V30 3369 N 316.313 -1.40141 0.720998 0
M  V30 3370 C 317.276 -2.29058 0.0805834 0
M  V30 3371 C 318.276 -1.45632 -0.681758 0
M  V30 3372 O 319.466 -1.6648 -0.512856 0
M  V30 3373 C 316.598 -3.28925 -0.895593 0
M  V30 3374 H 317.791 -2.87191 0.863793 0
M  V30 3375 H 315.344 -1.48553 0.485975 0
M  V30 3376 H 316.079 -2.75822 -1.70566 0
M  V30 3377 H 315.864 -3.90519 -0.351766 0
M  V30 3378 H 317.354 -3.95494 -1.34069 0
M  V30 3379 N 317.792 -0.46758 -1.50504 0
M  V30 3380 C 318.702 0.33382 -2.32213 0
M  V30 3381 C 319.718 0.999323 -1.42441 0
M  V30 3382 O 320.894 0.988068 -1.75497 0
M  V30 3383 C 317.959 1.4035 -3.17022 0
M  V30 3384 C 317.02 0.754961 -4.2261 0
M  V30 3385 C 316.253 1.77367 -5.03365 0
M  V30 3386 O 316.476 2.99976 -4.8515 0
M  V30 3387 O 315.41 1.34744 -5.86624 0
M  V30 3388 H 319.236 -0.334067 -3.01857 0
M  V30 3389 H 316.821 -0.229496 -1.47627 0
M  V30 3390 H 318.703 2.02318 -3.69656 0
M  V30 3391 H 317.378 2.05492 -2.5011 0
M  V30 3392 H 316.285 0.0964244 -3.73976 0
M  V30 3393 H 317.618 0.146545 -4.91982 0
M  V30 3394 N 319.27 1.56325 -0.20005 0
M  V30 3395 C 320.5 2.01811 0.442232 0
M  V30 3396 C 320.908 1.07932 1.55394 0
M  V30 3397 O 320.251 0.0772685 1.83537 0
M  V30 3398 C 320.313 3.43685 1.05457 0
M  V30 3399 C 319.977 4.56928 0.0809833 0
M  V30 3400 C 320.974 5.15009 -0.711471 0
M  V30 3401 C 318.659 5.0229 -0.0315364 0
M  V30 3402 C 320.653 6.16904 -1.60336 0
M  V30 3403 C 318.34 6.04028 -0.926981 0
M  V30 3404 C 319.338 6.6121 -1.71146 0
M  V30 3405 O 319.026 7.60971 -2.59189 0
M  V30 3406 H 318.758 0.666173 0.114848 0
M  V30 3407 H 321.312 2.03085 -0.307511 0
M  V30 3408 H 319.542 3.39413 1.85299 0
M  V30 3409 H 321.231 3.72948 1.60201 0
M  V30 3410 H 321.997 4.80827 -0.634873 0
M  V30 3411 H 317.876 4.57476 0.568902 0
M  V30 3412 H 321.42 6.61464 -2.21611 0
M  V30 3413 H 317.317 6.37634 -1.00468 0
M  V30 3414 H 318.085 7.7841 -2.53023 0
M  V30 3415 N 320.748 -0.0735177 1.57428 0
M  V30 3416 C 321.698 -1.09442 2.00016 0
M  V30 3417 C 322.682 -1.34575 0.881947 0
M  V30 3418 O 323.874 -1.34905 1.14585 0
M  V30 3419 C 321.003 -2.40865 2.4462 0
M  V30 3420 C 320.089 -2.19014 3.63172 0
M  V30 3421 N 320.48 -1.67087 4.77405 0
M  V30 3422 C 318.778 -2.49494 3.69688 0
M  V30 3423 C 319.479 -1.6001 5.5926 0
M  V30 3424 N 318.455 -2.05999 5.03056 0
M  V30 3425 H 322.257 -0.686227 2.85776 0
M  V30 3426 H 319.771 -0.280617 1.59957 0
M  V30 3427 H 321.768 -3.14763 2.73368 0
M  V30 3428 H 320.428 -2.82403 1.60246 0
M  V30 3429 H 321.439 -1.35975 4.99731 0
M  V30 3430 H 318.116 -2.94409 2.96023 0
M  V30 3431 H 319.506 -1.2073 6.60964 0
M  V30 3432 N 322.226 -1.5378 -0.344866 0
M  V30 3433 C 323.159 -1.7649 -1.4466 0
M  V30 3434 C 324.137 -0.613954 -1.50563 0
M  V30 3435 O 325.321 -0.84896 -1.683 0
M  V30 3436 C 322.448 -1.86235 -2.82903 0
M  V30 3437 C 321.494 -3.08375 -2.94631 0
M  V30 3438 S 322.327 -4.67457 -2.61236 0
M  V30 3439 C 323.483 -4.80079 -4.0159 0
M  V30 3440 H 323.716 -2.69661 -1.2518 0
M  V30 3441 H 321.249 -1.44632 -0.540455 0
M  V30 3442 H 323.207 -1.92535 -3.62547 0
M  V30 3443 H 321.868 -0.940786 -2.9968 0
M  V30 3444 H 321.061 -3.11865 -3.95925 0
M  V30 3445 H 320.663 -3.00294 -2.22934 0
M  V30 3446 H 322.955 -4.61407 -4.96094 0
M  V30 3447 H 323.898 -5.82168 -4.03095 0
M  V30 3448 H 324.306 -4.08544 -3.89554 0
M  V30 3449 N 323.704 0.605807 -1.45491 0
M  V30 3450 C 324.951 1.36476 -1.49601 0
M  V30 3451 C 325.279 1.94007 -0.138452 0
M  V30 3452 O 324.534 1.75638 0.863114 0
M  V30 3453 C 324.833 2.53012 -2.52428 0
M  V30 3454 C 324.499 2.13617 -3.97087 0
M  V30 3455 C 323.161 2.02587 -4.36477 0
M  V30 3456 C 325.513 1.82899 -4.88055 0
M  V30 3457 C 322.841 1.59064 -5.64726 0
M  V30 3458 C 325.193 1.40861 -6.16718 0
M  V30 3459 C 323.857 1.28391 -6.55036 0
M  V30 3460 H 323.127 0.499402 -0.547429 0
M  V30 3461 H 325.774 0.684546 -1.78847 0
M  V30 3462 H 324.079 3.26379 -2.16758 0
M  V30 3463 H 325.776 3.1124 -2.52845 0
M  V30 3464 H 322.366 2.23129 -3.65939 0
M  V30 3465 H 326.55 1.90317 -4.58359 0
M  V30 3466 H 321.806 1.48034 -5.93208 0
M  V30 3467 H 325.98 1.16138 -6.86648 0
M  V30 3468 H 323.607 0.944403 -7.54311 0
M  V30 3469 N 325.182 1.32811 0.848464 0
M  V30 3470 C 326.114 1.18095 1.96433 0
M  V30 3471 C 327.127 0.114354 1.62398 0
M  V30 3472 O 328.316 0.363892 1.74751 0
M  V30 3473 C 325.416 0.786798 3.2964 0
M  V30 3474 C 324.589 1.943 3.91875 0
M  V30 3475 C 323.648 1.53138 5.03423 0
M  V30 3476 O 322.674 2.24432 5.23086 0
M  V30 3477 N 323.876 0.430915 5.78898 0
M  V30 3478 H 326.641 2.14218 2.09597 0
M  V30 3479 H 324.202 1.2543 1.02367 0
M  V30 3480 H 326.194 0.493715 4.01677 0
M  V30 3481 H 324.764 -0.0834541 3.12489 0
M  V30 3482 H 323.984 2.40224 3.12547 0
M  V30 3483 H 325.272 2.71689 4.30189 0
M  V30 3484 H 324.67 -0.162333 5.65467 0
M  V30 3485 H 323.227 0.197466 6.51501 0
M  V30 3486 N 326.66 -1.06551 1.16123 0
M  V30 3487 C 328.076 -1.3142 0.905585 0
M  V30 3488 C 328.276 -1.96571 -0.442964 0
M  V30 3489 O 327.332 -2.23068 -1.18308 0
M  V30 3490 C 328.645 -2.19741 2.05267 0
M  V30 3491 C 330.193 -2.33165 2.08813 0
M  V30 3492 C 330.668 -3.24838 3.22868 0
M  V30 3493 N 332.159 -3.32421 3.22568 0
M  V30 3494 C 332.894 -4.0344 4.0746 0
M  V30 3495 N 332.39 -4.77003 5.02434 0
M  V30 3496 N 334.183 -3.99464 3.95456 0
M  V30 3497 H 326.334 -0.626548 2.02949 0
M  V30 3498 H 328.597 -0.338777 0.8854 0
M  V30 3499 H 328.303 -1.79142 3.02657 0
M  V30 3500 H 328.177 -3.20313 1.99198 0
M  V30 3501 H 330.564 -2.73013 1.12018 0
M  V30 3502 H 330.645 -1.3227 2.18948 0
M  V30 3503 H 330.289 -2.85708 4.19921 0
M  V30 3504 H 330.219 -4.25707 3.0997 0
M  V30 3505 H 332.71 -2.79994 2.53795 0
M  V30 3506 H 333.023 -5.28712 5.63634 0
M  V30 3507 H 331.368 -4.75992 5.06415 0
M  V30 3508 H 334.559 -3.4111 3.20564 0
M  V30 3509 H 334.732 -4.54544 4.61837 0
M  V30 3510 N 328.138 -0.959301 -1.25041 0
M  V30 3511 C 329.048 -0.489994 -2.29426 0
M  V30 3512 C 330.064 0.444944 -1.68215 0
M  V30 3513 O 331.24 0.320046 -1.98841 0
M  V30 3514 C 328.305 0.220309 -3.45999 0
M  V30 3515 C 327.366 -0.753418 -4.22637 0
M  V30 3516 C 326.599 -0.076918 -5.33645 0
M  V30 3517 O 326.822 1.13649 -5.58963 0
M  V30 3518 O 325.756 -0.764824 -5.97021 0
M  V30 3519 H 329.582 -1.35755 -2.71669 0
M  V30 3520 H 327.167 -0.725961 -1.30576 0
M  V30 3521 H 329.049 0.619677 -4.16819 0
M  V30 3522 H 327.724 1.06296 -3.0575 0
M  V30 3523 H 326.631 -1.20308 -3.54227 0
M  V30 3524 H 327.964 -1.56423 -4.66683 0
M  V30 3525 N 329.616 1.39756 -0.72842 0
M  V30 3526 C 330.563 2.30647 -0.0841519 0
M  V30 3527 C 331.533 1.48869 0.7367 0
M  V30 3528 O 332.718 1.77574 0.698015 0
M  V30 3529 C 329.858 3.35165 0.822091 0
M  V30 3530 C 328.971 4.31999 -0.0106663 0
M  V30 3531 C 328.106 5.23585 0.896241 0
M  V30 3532 C 327.145 6.12072 0.0583381 0
M  V30 3533 N 326.282 6.96035 0.920818 0
M  V30 3534 H 331.122 2.85173 -0.864891 0
M  V30 3535 H 328.659 1.40422 -0.438179 0
M  V30 3536 H 330.617 3.94345 1.36189 0
M  V30 3537 H 329.247 2.8211 1.56888 0
M  V30 3538 H 328.299 3.74492 -0.66781 0
M  V30 3539 H 329.611 4.9443 -0.658825 0
M  V30 3540 H 328.765 5.87759 1.50412 0
M  V30 3541 H 327.504 4.61459 1.57819 0
M  V30 3542 H 326.509 5.46916 -0.562389 0
M  V30 3543 H 327.734 6.76261 -0.6203 0
M  V30 3544 H 325.68 6.36485 1.58818 0
M  V30 3545 H 325.597 7.55284 0.32899 0
M  V30 3546 H 326.865 7.64646 1.51447 0
M  V30 3547 N 331.094 0.475555 1.50254 0
M  V30 3548 C 332.34 -0.0780073 2.0265 0
M  V30 3549 C 332.673 -1.38968 1.35652 0
M  V30 3550 O 331.948 -1.8839 0.483691 0
M  V30 3551 C 332.231 -0.257161 3.59181 0
M  V30 3552 C 332.084 1.07585 4.36744 0
M  V30 3553 C 333.403 -1.00965 4.28362 0
M  V30 3554 H 330.522 -0.0268758 0.73651 0
M  V30 3555 H 333.164 0.622015 1.7953 0
M  V30 3556 H 331.314 -0.853412 3.79011 0
M  V30 3557 H 332.986 1.70902 4.28474 0
M  V30 3558 H 331.229 1.6714 4.00308 0
M  V30 3559 H 331.9 0.904088 5.44546 0
M  V30 3560 H 334.376 -0.504214 4.13034 0
M  V30 3561 H 333.252 -1.10381 5.37687 0
M  V30 3562 H 333.513 -2.04731 3.91839 0
M  V30 3563 N 332.573 -1.56217 0.208337 0
M  V30 3564 C 333.483 -2.23316 -0.718836 0
M  V30 3565 C 334.499 -1.23648 -1.22422 0
M  V30 3566 O 335.675 -1.56423 -1.26861 0
M  V30 3567 C 332.74 -2.88968 -1.91568 0
M  V30 3568 C 331.801 -4.03943 -1.45357 0
M  V30 3569 C 331.034 -4.66455 -2.59337 0
M  V30 3570 O 331.257 -4.27919 -3.77149 0
M  V30 3571 O 330.191 -5.55686 -2.31293 0
M  V30 3572 H 334.017 -3.03182 -0.177315 0
M  V30 3573 H 331.602 -1.49384 -0.0215402 0
M  V30 3574 H 333.484 -3.30455 -2.61491 0
M  V30 3575 H 332.159 -2.12071 -2.44556 0
M  V30 3576 H 331.066 -3.67052 -0.722746 0
M  V30 3577 H 332.399 -4.82543 -0.970219 0
M  V30 3578 N 334.051 0.0651679 -1.57465 0
M  V30 3579 C 335.297 0.764193 -1.87851 0
M  V30 3580 C 335.63 1.76889 -0.801495 0
M  V30 3581 O 334.905 1.93594 0.187528 0
M  V30 3582 C 335.188 1.46625 -3.28897 0
M  V30 3583 C 335.041 0.477515 -4.47258 0
M  V30 3584 C 336.36 2.4095 -3.68281 0
M  V30 3585 H 333.479 0.276351 -0.683227 0
M  V30 3586 H 336.121 0.0272868 -1.8998 0
M  V30 3587 H 334.271 2.09438 -3.27212 0
M  V30 3588 H 335.943 -0.145922 -4.61069 0
M  V30 3589 H 334.186 -0.206576 -4.33308 0
M  V30 3590 H 334.857 1.0065 -5.42746 0
M  V30 3591 H 337.333 1.88209 -3.71102 0
M  V30 3592 H 336.209 2.87072 -4.67847 0
M  V30 3593 H 336.47 3.26049 -2.98571 0
M  V30 3594 N 335.529 1.53961 0.336706 0
M  V30 3595 C 336.461 1.78751 1.4346 0
M  V30 3596 C 337.474 0.669019 1.48418 0
M  V30 3597 O 338.663 0.945884 1.51378 0
M  V30 3598 C 335.763 1.87844 2.82078 0
M  V30 3599 C 334.936 3.17854 3.00479 0
M  V30 3600 C 333.995 3.17816 4.19379 0
M  V30 3601 O 333.021 3.91511 4.13168 0
M  V30 3602 N 334.223 2.40669 5.2826 0
M  V30 3603 H 336.988 2.73493 1.22563 0
M  V30 3604 H 334.549 1.53096 0.526625 0
M  V30 3605 H 336.541 1.85261 3.59806 0
M  V30 3606 H 335.111 1.00257 2.96086 0
M  V30 3607 H 334.331 3.33504 2.10163 0
M  V30 3608 H 335.619 4.03718 3.0966 0
M  V30 3609 H 335.017 1.8036 5.36178 0
M  V30 3610 H 333.574 2.43877 6.04456 0
M  V30 3611 N 337.007 -0.598083 1.45811 0
M  V30 3612 C 337.937 -1.71873 1.58057 0
M  V30 3613 C 338.918 -1.64533 0.431615 0
M  V30 3614 O 340.103 -1.82787 0.65595 0
M  V30 3615 C 337.233 -3.10495 1.55597 0
M  V30 3616 C 336.187 -3.32654 2.69305 0
M  V30 3617 C 335.513 -4.71646 2.51902 0
M  V30 3618 C 336.813 -3.21981 4.11248 0
M  V30 3619 H 338.507 -1.61881 2.51863 0
M  V30 3620 H 336.053 -0.777372 1.21214 0
M  V30 3621 H 338.006 -3.88699 1.6276 0
M  V30 3622 H 336.73 -3.2135 0.583255 0
M  V30 3623 H 335.389 -2.56843 2.61586 0
M  V30 3624 H 335.037 -4.79246 1.52748 0
M  V30 3625 H 334.737 -4.87426 3.2816 0
M  V30 3626 H 336.261 -5.52038 2.60933 0
M  V30 3627 H 337.675 -3.90049 4.20161 0
M  V30 3628 H 336.072 -3.49289 4.87972 0
M  V30 3629 H 337.142 -2.1928 4.32486 0
M  V30 3630 N 338.485 -1.33259 -0.841409 0
M  V30 3631 C 339.896 -1.22066 -1.41269 0
M  V30 3632 C 340.247 0.161479 -1.95534 0
M  V30 3633 O 339.372 1.06094 -1.88608 0
M  V30 3634 C 339.967 -2.20996 -2.568 0
M  V30 3635 C 338.526 -2.13649 -3.09888 0
M  V30 3636 C 337.673 -2.08623 -1.82679 0
M  V30 3637 H 340.624 -1.44895 -0.647395 0
M  V30 3638 H 340.645 -1.81621 -3.34356 0
M  V30 3639 H 340.157 -3.2158 -2.17274 0
M  V30 3640 H 338.258 -1.16359 -3.53965 0
M  V30 3641 H 338.371 -3.04079 -3.70234 0
M  V30 3642 H 336.735 -1.54061 -2.02824 0
M  V30 3643 H 337.518 -3.1101 -1.45353 0
M  V30 3644 N 339.963 1.05934 -1.16686 0
M  V30 3645 C 340.873 2.17014 -0.891183 0
M  V30 3646 C 341.889 1.73453 0.137907 0
M  V30 3647 O 343.065 2.01361 -0.039592 0
M  V30 3648 C 340.13 3.44384 -0.400099 0
M  V30 3649 C 339.191 4.02433 -1.49486 0
M  V30 3650 C 338.424 5.23723 -1.02711 0
M  V30 3651 O 338.647 5.7027 0.121716 0
M  V30 3652 O 337.581 5.7382 -1.81699 0
M  V30 3653 H 341.407 2.43113 -1.82015 0
M  V30 3654 H 338.992 1.15541 -0.947132 0
M  V30 3655 H 340.874 4.21189 -0.133392 0
M  V30 3656 H 339.549 3.19802 0.500817 0
M  V30 3657 H 338.456 3.27102 -1.81535 0
M  V30 3658 H 339.789 4.31317 -2.37121 0
M  V30 3659 N 341.441 0.965919 1.2453 0
M  V30 3660 C 342.371 0.513476 2.27784 0
M  V30 3661 C 343.352 -0.445974 1.6415 0
M  V30 3662 O 344.537 -0.342485 1.91156 0
M  V30 3663 C 341.667 -0.198839 3.4673 0
M  V30 3664 C 340.621 0.676456 4.2262 0
M  V30 3665 C 339.947 -0.167248 5.34438 0
M  V30 3666 C 341.247 1.96017 4.84123 0
M  V30 3667 H 342.941 1.3765 2.65881 0
M  V30 3668 H 340.487 0.663321 1.27813 0
M  V30 3669 H 342.44 -0.526567 4.18097 0
M  V30 3670 H 341.164 -1.0962 3.07654 0
M  V30 3671 H 339.823 0.98743 3.53052 0
M  V30 3672 H 339.471 -1.0647 4.91603 0
M  V30 3673 H 339.171 0.415181 5.86131 0
M  V30 3674 H 340.695 -0.489688 6.08633 0
M  V30 3675 H 342.109 1.69814 5.47573 0
M  V30 3676 H 340.506 2.48918 5.4604 0
M  V30 3677 H 341.576 2.65622 4.05676 0
M  V30 3678 N 342.919 -1.39368 0.735821 0
M  V30 3679 C 344.166 -2.00497 0.284123 0
M  V30 3680 C 344.494 -1.58387 -1.12889 0
M  V30 3681 O 343.749 -0.804359 -1.78406 0
M  V30 3682 C 344.048 -3.5583 0.334651 0
M  V30 3683 C 343.714 -4.17593 1.7008 0
M  V30 3684 C 342.376 -4.34176 2.07472 0
M  V30 3685 C 344.728 -4.51848 2.59775 0
M  V30 3686 C 342.056 -4.82304 3.34065 0
M  V30 3687 C 344.408 -5.01384 3.85741 0
M  V30 3688 C 343.072 -5.16175 4.23225 0
M  V30 3689 H 342.342 -0.73367 0.103968 0
M  V30 3690 H 344.989 -1.66683 0.942825 0
M  V30 3691 H 343.294 -3.89674 -0.407625 0
M  V30 3692 H 344.991 -4.00986 -0.0329927 0
M  V30 3693 H 341.581 -4.05087 1.40008 0
M  V30 3694 H 345.765 -4.38653 2.32157 0
M  V30 3695 H 341.021 -4.91941 3.63049 0
M  V30 3696 H 345.195 -5.26863 4.55399 0
M  V30 3697 H 342.822 -5.5323 5.21384 0
M  V30 3698 N 344.397 -0.483516 -1.5 0
M  V30 3699 C 345.347 0.32306 -2.257 0
M  V30 3700 C 346.331 0.950755 -1.29805 0
M  V30 3701 O 347.523 0.861247 -1.54634 0
M  V30 3702 C 344.652 1.39724 -3.13579 0
M  V30 3703 C 343.738 0.776663 -4.16928 0
M  V30 3704 N 344.129 -0.1104 -5.0568 0
M  V30 3705 C 342.427 1.03922 -4.33724 0
M  V30 3706 C 343.128 -0.46387 -5.79848 0
M  V30 3707 N 342.104 0.163987 -5.43353 0
M  V30 3708 H 345.906 -0.360086 -2.91686 0
M  V30 3709 H 343.42 -0.298456 -1.59634 0
M  V30 3710 H 345.417 1.98837 -3.66428 0
M  V30 3711 H 344.077 2.08225 -2.49143 0
M  V30 3712 H 345.088 -0.480069 -5.1567 0
M  V30 3713 H 341.765 1.71829 -3.80501 0
M  V30 3714 H 343.155 -1.18854 -6.61304 0
M  V30 3715 N 345.875 1.56104 -0.216619 0
M  V30 3716 C 346.822 2.2007 0.695531 0
M  V30 3717 C 347.792 1.15471 1.19397 0
M  V30 3718 O 348.977 1.43807 1.25396 0
M  V30 3719 C 346.117 2.88073 1.90021 0
M  V30 3720 C 345.23 4.07253 1.44113 0
M  V30 3721 C 344.365 4.63052 2.603 0
M  V30 3722 C 343.404 5.74545 2.11103 0
M  V30 3723 N 342.541 6.24656 3.20545 0
M  V30 3724 H 347.381 2.97655 0.143327 0
M  V30 3725 H 344.918 1.46982 0.0589934 0
M  V30 3726 H 346.876 3.25681 2.60745 0
M  V30 3727 H 345.506 2.13015 2.42538 0
M  V30 3728 H 344.558 3.75164 0.628999 0
M  V30 3729 H 345.87 4.8783 1.04036 0
M  V30 3730 H 345.024 5.03078 3.39113 0
M  V30 3731 H 343.763 3.81628 3.03663 0
M  V30 3732 H 342.768 5.34027 1.3075 0
M  V30 3733 H 343.993 6.57801 1.68746 0
M  V30 3734 H 341.939 5.46148 3.63399 0
M  V30 3735 H 341.856 7.00343 2.84704 0
M  V30 3736 H 343.124 6.69338 3.99508 0
M  V30 3737 N 347.353 -0.0568162 1.57498 0
M  V30 3738 C 348.602 -0.752001 1.87157 0
M  V30 3739 C 348.915 -1.77978 0.811375 0
M  V30 3740 O 350.121 -2.52559 0.996293 0
M  V30 3741 C 348.577 -1.38844 3.3204 0
M  V30 3742 C 348.185 -0.398456 4.46225 0
M  V30 3743 C 349.929 -2.06512 3.70882 0
M  V30 3744 C 347.836 -1.04166 5.82154 0
M  V30 3745 H 346.766 -0.28461 0.698222 0
M  V30 3746 H 349.417 -0.00561272 1.83499 0
M  V30 3747 H 347.799 -2.1836 3.30356 0
M  V30 3748 H 348.973 0.367977 4.59328 0
M  V30 3749 H 347.288 0.174592 4.16034 0
M  V30 3750 H 349.885 -2.55437 4.6974 0
M  V30 3751 H 350.228 -2.87117 3.01445 0
M  V30 3752 H 350.761 -1.33808 3.7462 0
M  V30 3753 H 347.5 -0.275614 6.5492 0
M  V30 3754 H 347.02 -1.7786 5.72823 0
M  V30 3755 H 348.699 -1.55715 6.27982 0
M  V30 3756 N 348.832 -1.54138 -0.328536 0
M  V30 3757 C 350.08 -1.71765 -1.06496 0
M  V30 3758 C 350.401 -0.49149 -1.88704 0
M  V30 3759 O 349.671 0.494539 -1.89555 0
M  V30 3760 H 348.251 -0.633295 -0.396164 0
M  V30 3761 H 350.913 -1.91429 -0.366176 0
M  V30 3762 H 350.009 -2.5951 -1.73381 0
M  V30 3763 N 350.31 0.590341 -1.46126 0
M  V30 3764 C 351.556 1.35082 -1.51264 0
M  V30 3765 C 351.889 1.93534 -0.160711 0
M  V30 3766 O 351.164 1.76045 0.826956 0
M  V30 3767 C 351.447 2.48588 -2.6053 0
M  V30 3768 C 351.3 1.95221 -4.05227 0
M  V30 3769 C 352.619 3.50662 -2.6594 0
M  V30 3770 H 349.738 0.489803 -0.550692 0
M  V30 3771 H 352.38 0.663887 -1.78024 0
M  V30 3772 H 350.53 3.07186 -2.37843 0
M  V30 3773 H 352.202 1.41139 -4.39178 0
M  V30 3774 H 350.445 1.26101 -4.15068 0
M  V30 3775 H 351.116 2.77121 -4.77397 0
M  V30 3776 H 353.592 3.01934 -2.86313 0
M  V30 3777 H 352.468 4.27551 -3.44226 0
M  V30 3778 H 352.729 4.07399 -1.71694 0
M  V30 3779 N 351.788 1.33704 0.83433 0
M  V30 3780 C 353.036 1.25169 1.58673 0
M  V30 3781 C 353.357 -0.18127 1.94156 0
M  V30 3782 O 352.627 -1.11113 1.6134 0
M  V30 3783 H 351.207 0.4603 0.58833 0
M  V30 3784 H 353.869 1.67478 0.996847 0
M  V30 3785 H 352.965 1.84856 2.51465 0
M  V30 3786 N 353.266 -1.05314 1.17247 0
M  V30 3787 C 354.229 -2.112 0.890357 0
M  V30 3788 C 355.229 -1.60359 -0.118943 0
M  V30 3789 O 356.419 -1.73833 0.113086 0
M  V30 3790 C 353.551 -3.39266 0.333422 0
M  V30 3791 H 354.744 -2.37659 1.82916 0
M  V30 3792 H 352.297 -1.21538 0.982758 0
M  V30 3793 H 353.032 -3.18462 -0.612587 0
M  V30 3794 H 352.817 -3.77477 1.06082 0
M  V30 3795 H 354.307 -4.17315 0.154322 0
M  V30 3796 N 354.744 -0.972509 -1.24016 0
M  V30 3797 C 355.677 -0.45117 -2.23696 0
M  V30 3798 C 356.655 0.477378 -1.55434 0
M  V30 3799 O 357.839 0.407647 -1.84039 0
M  V30 3800 C 354.966 0.34818 -3.36906 0
M  V30 3801 C 354.012 -0.523355 -4.23277 0
M  V30 3802 S 354.845 -1.96647 -4.98087 0
M  V30 3803 C 356.001 -1.17604 -6.14752 0
M  V30 3804 H 356.234 -1.29588 -2.67571 0
M  V30 3805 H 353.767 -0.777903 -1.33372 0
M  V30 3806 H 355.725 0.803387 -4.02562 0
M  V30 3807 H 354.386 1.16792 -2.91579 0
M  V30 3808 H 353.579 0.0906181 -5.03919 0
M  V30 3809 H 353.181 -0.914485 -3.62647 0
M  V30 3810 H 355.473 -0.433434 -6.76112 0
M  V30 3811 H 356.416 -1.95701 -6.8052 0
M  V30 3812 H 356.824 -0.698295 -5.60164 0
M  V30 3813 N 356.222 1.38976 -0.743202 0
M  V30 3814 C 357.45 2.04636 -0.30525 0
M  V30 3815 C 357.865 1.56044 1.06281 0
M  V30 3816 O 357.222 0.728921 1.67311 0
M  V30 3817 C 357.273 3.60193 -0.307177 0
M  V30 3818 O 356.994 4.06998 -1.62124 0
M  V30 3819 C 358.495 4.4306 0.145928 0
M  V30 3820 H 355.715 0.65788 -0.132041 0
M  V30 3821 H 358.259 1.77866 -1.00915 0
M  V30 3822 H 356.414 3.85835 0.347898 0
M  V30 3823 H 356.828 5.01371 -1.54036 0
M  V30 3824 H 358.302 5.51921 0.0934183 0
M  V30 3825 H 358.779 4.22706 1.19231 0
M  V30 3826 H 359.385 4.22584 -0.479886 0
M  V30 3827 N 357.7 0.491464 1.49741 0
M  V30 3828 C 358.946 -0.0485431 2.03342 0
M  V30 3829 C 359.301 -1.35566 1.36527 0
M  V30 3830 O 358.594 -1.85262 0.488729 0
M  V30 3831 C 358.788 -0.267329 3.56399 0
M  V30 3832 C 358.617 1.01703 4.38049 0
M  V30 3833 C 357.387 1.56614 4.80417 0
M  V30 3834 C 359.585 1.91782 4.77204 0
M  V30 3835 N 357.567 2.7974 5.4646 0
M  V30 3836 C 358.938 2.99489 5.42868 0
M  V30 3837 C 360.993 1.92575 4.5915 0
M  V30 3838 C 359.696 4.08005 5.92389 0
M  V30 3839 C 361.722 3.0006 5.09626 0
M  V30 3840 C 361.084 4.06485 5.75282 0
M  V30 3841 H 357.183 0.0227779 0.781668 0
M  V30 3842 H 359.767 0.664204 1.8302 0
M  V30 3843 H 357.938 -0.949126 3.76625 0
M  V30 3844 H 359.67 -0.803492 3.96644 0
M  V30 3845 H 356.425 1.11256 4.60347 0
M  V30 3846 H 356.849 3.42323 5.84075 0
M  V30 3847 H 361.491 1.11605 4.07804 0
M  V30 3848 H 359.209 4.89779 6.42761 0
M  V30 3849 H 362.795 3.01681 4.97473 0
M  V30 3850 H 361.675 4.88287 6.13633 0
M  V30 3851 N 359.178 -1.55987 0.224894 0
M  V30 3852 C 360.403 -2.03232 -0.41369 0
M  V30 3853 C 360.828 -1.10359 -1.52323 0
M  V30 3854 O 360.186 -0.092395 -1.81064 0
M  V30 3855 C 360.234 -3.48682 -0.919405 0
M  V30 3856 O 359.338 -3.58947 -2.03054 0
M  V30 3857 H 358.679 -0.657428 -0.0931903 0
M  V30 3858 H 361.209 -2.01679 0.34451 0
M  V30 3859 H 361.219 -3.8907 -1.22835 0
M  V30 3860 H 359.894 -4.15761 -0.107339 0
M  V30 3861 H 358.471 -3.30448 -1.72796 0
M  V30 3862 N 360.656 0.0484629 -1.57525 0
M  V30 3863 C 362.067 0.597486 -1.76881 0
M  V30 3864 C 362.418 1.76664 -0.853475 0
M  V30 3865 O 361.543 2.16357 -0.0433656 0
M  V30 3866 C 362.138 1.09066 -3.20765 0
M  V30 3867 C 360.697 1.58535 -3.41385 0
M  V30 3868 C 359.844 0.514868 -2.72478 0
M  V30 3869 H 362.795 -0.177758 -1.57701 0
M  V30 3870 H 362.816 1.95875 -3.2621 0
M  V30 3871 H 362.328 0.239521 -3.8736 0
M  V30 3872 H 360.429 2.45898 -2.79937 0
M  V30 3873 H 360.542 1.64622 -4.49929 0
M  V30 3874 H 358.906 0.965407 -2.35695 0
M  V30 3875 H 359.689 -0.32648 -3.41744 0
M  V30 3876 N 362.134 1.5431 0.320358 0
M  V30 3877 C 363.064 1.86912 1.3995 0
M  V30 3878 C 364.045 0.726211 1.53819 0
M  V30 3879 O 365.23 0.980233 1.67646 0
M  V30 3880 C 362.36 2.09932 2.7667 0
M  V30 3881 C 361.314 3.25776 2.77586 0
M  V30 3882 C 360.64 3.34173 4.17412 0
M  V30 3883 C 361.94 4.6335 2.41048 0
M  V30 3884 H 363.634 2.77292 1.12914 0
M  V30 3885 H 361.18 1.33421 0.541738 0
M  V30 3886 H 363.133 2.31324 3.52232 0
M  V30 3887 H 361.857 1.16304 3.0519 0
M  V30 3888 H 360.516 3.04276 2.04479 0
M  V30 3889 H 360.164 2.38098 4.43078 0
M  V30 3890 H 359.864 4.12033 4.18931 0
M  V30 3891 H 361.388 3.57803 4.94782 0
M  V30 3892 H 362.802 4.84602 3.06324 0
M  V30 3893 H 361.199 5.43782 2.53813 0
M  V30 3894 H 362.269 4.65381 1.36193 0
M  V30 3895 N 363.613 -0.582584 1.46437 0
M  V30 3896 C 364.576 -1.67366 1.56592 0
M  V30 3897 C 365.576 -1.54575 0.443072 0
M  V30 3898 O 366.766 -1.59191 0.707381 0
M  V30 3899 C 363.898 -3.06791 1.48634 0
M  V30 3900 H 365.091 -1.5972 2.5383 0
M  V30 3901 H 362.644 -0.800432 1.34249 0
M  V30 3902 H 363.379 -3.19993 0.526763 0
M  V30 3903 H 363.164 -3.17484 2.30101 0
M  V30 3904 H 364.654 -3.86218 1.58826 0
M  V30 3905 N 365.091 -1.34144 -0.827227 0
M  V30 3906 C 366.331 -1.27603 -1.59677 0
M  V30 3907 C 366.695 0.153035 -1.91389 0
M  V30 3908 O 367.896 0.342566 -2.66608 0
M  V30 3909 C 366.167 -2.13784 -2.86411 0
M  V30 3910 S 367.726 -2.24552 -3.76991 0
M  V30 3911 H 364.544 -0.453789 -0.547354 0
M  V30 3912 H 367.146 -1.69309 -0.977479 0
M  V30 3913 H 365.85 -3.16627 -2.61104 0
M  V30 3914 H 365.381 -1.72959 -3.5334 0
M  V30 3915 H 367.396 -1.41514 -4.75593 0
M  V30 3916 N 366.569 1.04691 -1.17803 0
M  V30 3917 C 367.817 1.7743 -0.967617 0
M  V30 3918 C 368.138 1.88359 0.504574 0
M  V30 3919 O 367.408 1.40402 1.36617 0
M  V30 3920 H 365.988 0.657242 -0.355024 0
M  V30 3921 H 368.65 1.2638 -1.48371 0
M  V30 3922 H 367.746 2.78924 -1.40027 0
M  V30 3923 N 368.047 0.979072 1.23499 0
M  V30 3924 C 369.296 0.642751 1.91185 0
M  V30 3925 C 369.609 -0.827253 1.77245 0
M  V30 3926 O 370.815 -1.27458 2.39722 0
M  V30 3927 C 369.271 1.09901 3.42709 0
M  V30 3928 C 368.879 2.59327 3.65313 0
M  V30 3929 C 370.623 0.836371 4.16179 0
M  V30 3930 C 368.53 2.98627 5.10467 0
M  V30 3931 H 367.46 0.236698 0.715884 0
M  V30 3932 H 370.111 1.1868 1.39955 0
M  V30 3933 H 368.493 0.48319 3.93041 0
M  V30 3934 H 369.667 3.26136 3.25533 0
M  V30 3935 H 367.982 2.83323 3.05151 0
M  V30 3936 H 370.579 1.10586 5.23139 0
M  V30 3937 H 370.922 -0.227509 4.15678 0
M  V30 3938 H 371.455 1.41371 3.71832 0
M  V30 3939 H 368.194 4.04133 5.16098 0
M  V30 3940 H 367.714 2.3651 5.51201 0
M  V30 3941 H 369.393 2.89159 5.78788 0
M  V30 3942 N 369.525 -1.3858 0.750561 0
M  V30 3943 C 370.771 -2.00481 0.305825 0
M  V30 3944 C 371.104 -1.5944 -1.10872 0
M  V30 3945 O 370.379 -0.83052 -1.75877 0
M  V30 3946 C 370.662 -3.5758 0.425287 0
M  V30 3947 C 370.515 -4.08594 1.88072 0
M  V30 3948 C 371.834 -4.39719 -0.183122 0
M  V30 3949 H 368.953 -0.728348 0.112598 0
M  V30 3950 H 371.595 -1.64566 0.949638 0
M  V30 3951 H 369.745 -3.88306 -0.122828 0
M  V30 3952 H 371.417 -3.88523 2.48691 0
M  V30 3953 H 369.66 -3.61574 2.39681 0
M  V30 3954 H 370.331 -5.177 1.91548 0
M  V30 3955 H 372.807 -4.15128 0.284303 0
M  V30 3956 H 371.683 -5.48856 -0.0692757 0
M  V30 3957 H 371.944 -4.23434 -1.27106 0
M  V30 3958 N 371.003 -0.499398 -1.49478 0
M  V30 3959 C 372.228 0.044722 -2.07352 0
M  V30 3960 C 372.653 1.30207 -1.35749 0
M  V30 3961 O 372.011 1.76516 -0.413732 0
M  V30 3962 C 372.059 0.283013 -3.59488 0
M  V30 3963 O 371.163 1.35804 -3.89398 0
M  V30 3964 H 370.504 -0.0255147 -0.66351 0
M  V30 3965 H 373.034 -0.698561 -1.92305 0
M  V30 3966 H 373.044 0.515007 -4.04737 0
M  V30 3967 H 371.719 -0.635636 -4.11014 0
M  V30 3968 H 370.296 1.11113 -3.55961 0
M  V30 3969 N 372.481 1.55866 -0.233164 0
M  V30 3970 C 373.729 1.9821 0.394593 0
M  V30 3971 C 374.05 1.12234 1.59463 0
M  V30 3972 O 373.32 0.201981 1.94856 0
M  V30 3973 H 371.9 0.732034 0.148778 0
M  V30 3974 H 374.562 1.92107 -0.32876 0
M  V30 3975 H 373.658 3.03845 0.713063 0
M  V30 3976 N 373.959 -0.0401083 1.57549 0
M  V30 3977 C 374.906 -1.04413 2.05831 0
M  V30 3978 C 375.876 -1.36585 0.945184 0
M  V30 3979 O 377.061 -1.47112 1.21502 0
M  V30 3980 C 374.201 -2.34336 2.53339 0
M  V30 3981 C 373.314 -2.08419 3.78398 0
M  V30 3982 C 372.449 -3.32133 4.14561 0
M  V30 3983 C 371.488 -3.01721 5.3257 0
M  V30 3984 N 370.625 -4.17855 5.64218 0
M  V30 3985 H 375.465 -0.625442 2.91363 0
M  V30 3986 H 373.002 -0.297218 1.44066 0
M  V30 3987 H 374.96 -3.10234 2.78946 0
M  V30 3988 H 373.59 -2.73948 1.7074 0
M  V30 3989 H 372.642 -1.23069 3.59942 0
M  V30 3990 H 373.954 -1.81978 4.64419 0
M  V30 3991 H 373.108 -4.16406 4.41238 0
M  V30 3992 H 371.847 -3.61678 3.2717 0
M  V30 3993 H 370.852 -2.15849 5.05657 0
M  V30 3994 H 372.077 -2.73466 6.21605 0
M  V30 3995 H 370.023 -4.47372 4.79786 0
M  V30 3996 H 369.94 -3.94798 6.44725 0
M  V30 3997 H 371.208 -5.03033 5.95465 0
M  V30 3998 N 375.437 -1.54477 -0.31217 0
M  V30 3999 C 376.667 -1.76948 -1.06645 0
M  V30 4000 C 377.075 -0.523593 -1.81811 0
M  V30 4001 O 376.418 0.51578 -1.76311 0
M  V30 4002 C 376.48 -2.91668 -2.10166 0
M  V30 4003 C 376.144 -4.30165 -1.54296 0
M  V30 4004 C 377.141 -5.10603 -0.978793 0
M  V30 4005 C 374.826 -4.76738 -1.58196 0
M  V30 4006 C 376.82 -6.3573 -0.461048 0
M  V30 4007 C 374.507 -6.01831 -1.06034 0
M  V30 4008 C 375.505 -6.81161 -0.500844 0
M  V30 4009 O 375.193 -8.03899 0.0128958 0
M  V30 4010 H 374.925 -0.594088 -0.322546 0
M  V30 4011 H 377.479 -2.02213 -0.360441 0
M  V30 4012 H 375.709 -2.62001 -2.84416 0
M  V30 4013 H 377.398 -3.01817 -2.71406 0
M  V30 4014 H 378.164 -4.75771 -0.941651 0
M  V30 4015 H 374.043 -4.15027 -2.00683 0
M  V30 4016 H 377.587 -6.97596 -0.0236894 0
M  V30 4017 H 373.484 -6.36152 -1.09459 0
M  V30 4018 H 374.252 -8.18437 -0.101457 0
M  V30 4019 N 376.915 0.57481 -1.46744 0
M  V30 4020 C 378.192 1.3352 -1.4294 0
M  V30 4021 C 378.572 2.10775 -0.117009 0
M  V30 4022 O 377.92 2.09966 0.901474 0
M  V30 4023 C 378.13 2.25456 -2.66403 0
M  V30 4024 C 379.478 2.87035 -3.12883 0
M  V30 4025 O 380.502 2.35766 -2.67007 0
M  V30 4026 O 379.361 3.80179 -3.92589 0
M  V30 4027 H 376.455 0.600318 -0.568812 0
M  V30 4028 H 379.001 0.595171 -1.58921 0
M  V30 4029 H 377.773 1.67851 -3.53471 0
M  V30 4030 H 377.396 3.06785 -2.52921 0
M  V30 4031 N 378.394 1.34581 0.820102 0
M  V30 4032 C 379.619 1.30333 1.61332 0
M  V30 4033 C 380.044 -0.119339 1.87721 0
M  V30 4034 O 379.402 -1.08197 1.45475 0
M  V30 4035 C 379.45 2.10258 2.92957 0
M  V30 4036 O 378.554 1.47404 3.85157 0
M  V30 4037 H 377.895 0.447488 0.490561 0
M  V30 4038 H 380.425 1.77425 1.01889 0
M  V30 4039 H 380.435 2.21718 3.42498 0
M  V30 4040 H 379.11 3.13693 2.73074 0
M  V30 4041 H 377.687 1.44703 3.43679 0
M  V30 4042 N 379.872 -1.04064 1.18357 0
M  V30 4043 C 381.12 -1.76915 0.977013 0
M  V30 4044 C 381.441 -1.88624 -0.494577 0
M  V30 4045 O 380.711 -1.41125 -1.3587 0
M  V30 4046 H 379.291 -0.65535 0.358504 0
M  V30 4047 H 381.953 -1.25592 1.49039 0
M  V30 4048 H 381.049 -2.78178 1.41504 0
M  V30 4049 N 381.35 -0.985608 -1.22978 0
M  V30 4050 C 382.599 -0.652881 -1.90841 0
M  V30 4051 C 382.912 0.817842 -1.77681 0
M  V30 4052 O 384.118 1.26185 -2.40395 0
M  V30 4053 C 382.574 -1.11717 -3.42122 0
M  V30 4054 C 382.182 -2.6126 -3.63933 0
M  V30 4055 C 383.926 -0.85843 -4.1573 0
M  V30 4056 C 381.833 -3.0133 -5.08876 0
M  V30 4057 H 380.763 -0.240491 -0.714619 0
M  V30 4058 H 383.414 -1.1942 -1.39324 0
M  V30 4059 H 381.796 -0.504027 -3.92779 0
M  V30 4060 H 382.97 -3.27858 -3.23799 0
M  V30 4061 H 381.285 -2.84937 -3.03644 0
M  V30 4062 H 383.882 -1.13359 -5.22546 0
M  V30 4063 H 384.225 0.205461 -4.15793 0
M  V30 4064 H 384.758 -1.43341 -3.71077 0
M  V30 4065 H 381.497 -4.06864 -5.13947 0
M  V30 4066 H 381.017 -2.3943 -5.49939 0
M  V30 4067 H 382.696 -2.92224 -5.77247 0
M  V30 4068 N 382.828 1.3818 -0.7579 0
M  V30 4069 C 384.239 1.82726 -0.383134 0
M  V30 4070 C 384.59 1.63214 1.08884 0
M  V30 4071 O 383.715 1.13566 1.84205 0
M  V30 4072 C 384.31 3.31728 -0.688631 0
M  V30 4073 C 382.869 3.74606 -0.367091 0
M  V30 4074 C 382.016 2.60896 -0.939599 0
M  V30 4075 H 384.967 1.26847 -0.953699 0
M  V30 4076 H 384.988 3.80487 0.0316492 0
M  V30 4077 H 384.5 3.45898 -1.76001 0
M  V30 4078 H 382.601 3.66013 0.697532 0
M  V30 4079 H 382.714 4.71215 -0.865658 0
M  V30 4080 H 381.078 2.52075 -0.3647 0
M  V30 4081 H 381.861 2.77864 -2.0161 0
M  V30 4082 N 384.306 0.507319 1.49211 0
M  V30 4083 C 385.717 0.0611118 1.866 0
M  V30 4084 C 386.068 -1.35488 1.41907 0
M  V30 4085 O 385.193 -2.0108 0.799726 0
M  V30 4086 C 385.788 0.104125 3.3864 0
M  V30 4087 C 384.347 -0.28677 3.75306 0
M  V30 4088 C 383.494 0.473893 2.73221 0
M  V30 4089 H 386.445 0.719775 1.41439 0
M  V30 4090 H 386.466 -0.689672 3.74198 0
M  V30 4091 H 385.978 1.13482 3.71138 0
M  V30 4092 H 384.079 -1.32046 3.48417 0
M  V30 4093 H 384.192 0.0370745 4.79086 0
M  V30 4094 H 382.556 -0.0770644 2.54583 0
M  V30 4095 H 383.339 1.50478 3.08563 0
M  V30 4096 N 385.784 -1.5574 0.241426 0
M  V30 4097 C 387.014 -2.02913 -0.38857 0
M  V30 4098 C 387.422 -1.12014 -1.52478 0
M  V30 4099 O 386.765 -0.125903 -1.83268 0
M  V30 4100 C 386.827 -3.4636 -0.963075 0
M  V30 4101 C 386.491 -4.56982 0.0401916 0
M  V30 4102 C 387.488 -5.12941 0.847766 0
M  V30 4103 C 385.173 -5.0203 0.164699 0
M  V30 4104 C 387.167 -6.12437 1.76636 0
M  V30 4105 C 384.854 -6.01358 1.0868 0
M  V30 4106 C 385.852 -6.5644 1.88616 0
M  V30 4107 O 385.54 -7.53831 2.79273 0
M  V30 4108 H 385.272 -0.668983 -0.0971452 0
M  V30 4109 H 387.826 -2.02198 0.361248 0
M  V30 4110 H 386.056 -3.44206 -1.76235 0
M  V30 4111 H 387.745 -3.77065 -1.50257 0
M  V30 4112 H 388.511 -4.78974 0.762133 0
M  V30 4113 H 384.39 -4.58824 -0.447411 0
M  V30 4114 H 387.934 -6.55355 2.39071 0
M  V30 4115 H 383.831 -6.34746 1.17338 0
M  V30 4116 H 384.599 -7.71428 2.73572 0
M  V30 4117 N 387.262 0.0317525 -1.57568 0
M  V30 4118 C 388.487 0.738664 -1.938 0
M  V30 4119 C 388.912 1.68242 -0.841208 0
M  V30 4120 O 388.27 1.80157 0.203267 0
M  V30 4121 C 388.318 1.47417 -3.29091 0
M  V30 4122 O 387.422 2.5872 -3.2115 0
M  V30 4123 H 386.763 0.198856 -0.633524 0
M  V30 4124 H 389.293 -0.0119713 -2.04596 0
M  V30 4125 H 389.303 1.84468 -3.63917 0
M  V30 4126 H 387.978 0.781988 -4.08482 0
M  V30 4127 H 386.555 2.24231 -2.97951 0
M  V30 4128 N 388.74 1.54641 0.303973 0
M  V30 4129 C 390.156 1.45788 0.649463 0
M  V30 4130 C 390.356 0.64666 1.90842 0
M  V30 4131 O 389.412 0.153183 2.52035 0
M  V30 4132 C 390.725 2.89718 0.805227 0
M  V30 4133 C 392.273 2.99742 0.901305 0
M  V30 4134 C 392.748 4.44863 1.08909 0
M  V30 4135 N 394.239 4.48559 1.15536 0
M  V30 4136 C 394.974 5.58026 1.3189 0
M  V30 4137 N 394.47 6.77422 1.45161 0
M  V30 4138 N 396.263 5.45708 1.34755 0
M  V30 4139 H 388.414 2.05854 -0.523237 0
M  V30 4140 H 390.677 0.932186 -0.172431 0
M  V30 4141 H 390.383 3.51666 -0.0489108 0
M  V30 4142 H 390.257 3.36964 1.69513 0
M  V30 4143 H 392.644 2.3791 1.74593 0
M  V30 4144 H 392.725 2.55797 -0.0125531 0
M  V30 4145 H 392.369 5.07288 0.249241 0
M  V30 4146 H 392.299 4.86436 2.01713 0
M  V30 4147 H 394.79 3.6254 1.06646 0
M  V30 4148 H 395.103 7.56604 1.57387 0
M  V30 4149 H 393.448 6.80292 1.42223 0
M  V30 4150 H 396.639 4.51378 1.23996 0
M  V30 4151 H 396.812 6.3107 1.47157 0
M  V30 4152 N 390.218 -0.567019 1.47046 0
M  V30 4153 C 391.181 -1.65696 1.58359 0
M  V30 4154 C 392.181 -1.54097 0.459441 0
M  V30 4155 O 393.371 -1.58432 0.724225 0
M  V30 4156 C 390.503 -3.05197 1.51879 0
M  V30 4157 H 391.696 -1.57019 2.5551 0
M  V30 4158 H 389.249 -0.786148 1.3509 0
M  V30 4159 H 389.984 -3.19417 0.560673 0
M  V30 4160 H 389.769 -3.15025 2.33455 0
M  V30 4161 H 391.259 -3.84511 1.62913 0
M  V30 4162 N 391.696 -1.35014 -0.812953 0
M  V30 4163 C 392.921 -1.31187 -1.60639 0
M  V30 4164 C 393.346 0.109382 -1.87782 0
M  V30 4165 O 392.704 1.07424 -1.46047 0
M  V30 4166 C 392.752 -2.11809 -2.91838 0
M  V30 4167 O 391.856 -1.49444 -3.8437 0
M  V30 4168 H 391.197 -0.450084 -0.488181 0
M  V30 4169 H 393.727 -1.77963 -1.00947 0
M  V30 4170 H 393.737 -2.23531 -3.41318 0
M  V30 4171 H 392.412 -3.15137 -2.71407 0
M  V30 4172 H 390.989 -1.46524 -3.42907 0
M  V30 4173 N 393.175 1.03435 -1.18907 0
M  V30 4174 C 394.105 2.13503 -0.945448 0
M  V30 4175 C 395.086 1.69682 0.119189 0
M  V30 4176 O 396.271 1.94169 -0.034707 0
M  V30 4177 C 393.401 3.44004 -0.477316 0
M  V30 4178 C 392.355 4.0148 -1.48316 0
M  V30 4179 C 391.681 5.27537 -0.872311 0
M  V30 4180 C 392.981 4.36921 -2.86177 0
M  V30 4181 H 394.675 2.34141 -1.86597 0
M  V30 4182 H 392.221 1.12523 -0.898584 0
M  V30 4183 H 394.174 4.20372 -0.294204 0
M  V30 4184 H 392.898 3.23072 0.478786 0
M  V30 4185 H 391.557 3.27201 -1.65332 0
M  V30 4186 H 391.205 5.02917 0.0911752 0
M  V30 4187 H 390.905 5.66954 -1.54393 0
M  V30 4188 H 392.429 6.06576 -0.699871 0
M  V30 4189 H 393.843 5.04248 -2.72776 0
M  V30 4190 H 392.24 4.87405 -3.50081 0
M  V30 4191 H 393.31 3.46466 -3.39248 0
M  V30 4192 N 394.653 0.992116 1.22453 0
M  V30 4193 C 395.6 0.541731 2.24352 0
M  V30 4194 C 396.57 -0.425519 1.60557 0
M  V30 4195 O 397.755 -0.330453 1.87917 0
M  V30 4196 C 394.895 -0.138248 3.44823 0
M  V30 4197 C 394.008 0.870649 4.23136 0
M  V30 4198 C 393.143 0.164269 5.30946 0
M  V30 4199 C 392.182 1.16159 6.00977 0
M  V30 4200 N 391.319 0.483568 7.00433 0
M  V30 4201 H 396.159 1.41541 2.62241 0
M  V30 4202 H 393.696 0.709013 1.28885 0
M  V30 4203 H 395.654 -0.5494 4.13567 0
M  V30 4204 H 394.284 -0.975721 3.077 0
M  V30 4205 H 393.336 1.40013 3.53696 0
M  V30 4206 H 394.648 1.63014 4.7141 0
M  V30 4207 H 393.802 -0.303653 6.0594 0
M  V30 4208 H 392.541 -0.627733 4.83643 0
M  V30 4209 H 391.546 1.64015 5.24766 0
M  V30 4210 H 392.771 1.95445 6.50368 0
M  V30 4211 H 390.717 -0.289012 6.55363 0
M  V30 4212 H 390.634 1.18152 7.4671 0
M  V30 4213 H 391.902 0.0384219 7.79491 0
M  V30 4214 N 396.131 -1.37776 0.765217 0
M  V30 4215 C 397.379 -1.99454 0.325943 0
M  V30 4216 C 397.7 -1.61049 -1.09947 0
M  V30 4217 O 396.97 -0.872821 -1.75381 0
M  V30 4218 H 395.55 -0.737697 0.117525 0
M  V30 4219 H 398.212 -1.68359 0.981895 0
M  V30 4220 H 397.308 -3.09547 0.398353 0
M  V30 4221 N 397.609 -0.515225 -1.4894 0
M  V30 4222 C 398.839 0.0205735 -2.0659 0
M  V30 4223 C 399.247 1.30064 -1.37405 0
M  V30 4224 O 398.59 1.78087 -0.450632 0
M  V30 4225 C 398.652 0.330124 -3.57981 0
M  V30 4226 C 398.316 -0.854295 -4.48944 0
M  V30 4227 C 399.313 -1.7487 -4.89609 0
M  V30 4228 C 396.998 -1.05712 -4.9105 0
M  V30 4229 C 398.992 -2.82996 -5.71132 0
M  V30 4230 C 396.679 -2.14154 -5.72347 0
M  V30 4231 C 397.677 -3.0263 -6.12294 0
M  V30 4232 O 397.365 -4.09198 -6.91962 0
M  V30 4233 H 397.097 -0.0236833 -0.675585 0
M  V30 4234 H 399.651 -0.715956 -1.92518 0
M  V30 4235 H 397.881 1.12044 -3.70112 0
M  V30 4236 H 399.57 0.806233 -3.97812 0
M  V30 4237 H 400.336 -1.60388 -4.57712 0
M  V30 4238 H 396.215 -0.377788 -4.59449 0
M  V30 4239 H 399.759 -3.52083 -6.02232 0
M  V30 4240 H 395.656 -2.28626 -6.03656 0
M  V30 4241 H 396.424 -4.06726 -7.10293 0
M  V30 4242 N 399.087 1.5561 -0.249682 0
M  V30 4243 C 400.019 2.18834 0.681496 0
M  V30 4244 C 401.032 1.16546 1.1367 0
M  V30 4245 O 402.221 1.43397 1.06299 0
M  V30 4246 C 399.321 2.77992 1.9384 0
M  V30 4247 C 398.494 4.05725 1.63419 0
M  V30 4248 C 397.553 4.49174 2.74096 0
M  V30 4249 O 396.579 5.15492 2.41364 0
M  V30 4250 N 397.781 4.17191 4.03649 0
M  V30 4251 H 400.546 2.9937 0.140514 0
M  V30 4252 H 398.107 1.6175 -0.0697541 0
M  V30 4253 H 400.099 3.04015 2.67127 0
M  V30 4254 H 398.669 2.01596 2.38909 0
M  V30 4255 H 397.889 3.87261 0.736358 0
M  V30 4256 H 399.177 4.88999 1.40562 0
M  V30 4257 H 398.575 3.63955 4.33074 0
M  V30 4258 H 397.132 4.48043 4.73393 0
M  V30 4259 N 400.565 -0.0233959 1.57583 0
M  V30 4260 C 401.811 -0.708611 1.90657 0
M  V30 4261 C 402.166 -1.7266 0.848895 0
M  V30 4262 O 401.459 -1.91075 -0.141749 0
M  V30 4263 C 401.653 -1.41428 3.28227 0
M  V30 4264 C 401.482 -0.466155 4.47277 0
M  V30 4265 C 400.252 -0.085117 5.05228 0
M  V30 4266 C 402.45 0.257836 5.13653 0
M  V30 4267 N 400.432 0.863672 6.07794 0
M  V30 4268 C 401.803 1.06209 6.10835 0
M  V30 4269 C 403.858 0.324174 4.96844 0
M  V30 4270 C 402.561 1.9266 6.93018 0
M  V30 4271 C 404.587 1.17583 5.79593 0
M  V30 4272 C 403.949 1.96799 6.7635 0
M  V30 4273 H 400.048 -0.233222 0.746412 0
M  V30 4274 H 402.632 0.0314512 1.94675 0
M  V30 4275 H 400.803 -2.12477 3.25128 0
M  V30 4276 H 402.535 -2.05233 3.488 0
M  V30 4277 H 399.29 -0.448516 4.71471 0
M  V30 4278 H 399.714 1.33274 6.63752 0
M  V30 4279 H 404.356 -0.273975 4.21911 0
M  V30 4280 H 402.074 2.53552 7.67292 0
M  V30 4281 H 405.66 1.23076 5.68633 0
M  V30 4282 H 404.54 2.61635 7.39268 0
M  V30 4283 N 402.043 -1.548 -0.295768 0
M  V30 4284 C 402.973 -1.89115 -1.36959 0
M  V30 4285 C 403.954 -0.75059 -1.52644 0
M  V30 4286 O 405.139 -1.00678 -1.66065 0
M  V30 4287 C 402.269 -2.14307 -2.73295 0
M  V30 4288 C 401.223 -3.30151 -2.72368 0
M  V30 4289 C 400.549 -3.40772 -4.12042 0
M  V30 4290 C 401.849 -4.67126 -2.33646 0
M  V30 4291 H 403.543 -2.79053 -1.08488 0
M  V30 4292 H 401.089 -1.34266 -0.520443 0
M  V30 4293 H 403.042 -2.36898 -3.48507 0
M  V30 4294 H 401.766 -1.21145 -3.03301 0
M  V30 4295 H 400.425 -3.0749 -1.99613 0
M  V30 4296 H 400.073 -2.45117 -4.39234 0
M  V30 4297 H 399.773 -4.18645 -4.12322 0
M  V30 4298 H 401.297 -3.6563 -4.89027 0
M  V30 4299 H 402.711 -4.89414 -2.98575 0
M  V30 4300 H 401.108 -5.47751 -2.45129 0
M  V30 4301 H 402.178 -4.67489 -1.28772 0
M  V30 4302 N 403.521 0.559213 -1.47345 0
M  V30 4303 C 404.468 1.66645 -1.59682 0
M  V30 4304 C 405.438 1.60168 -0.43994 0
M  V30 4305 O 406.623 1.79031 -0.659736 0
M  V30 4306 C 403.763 3.04969 -1.61518 0
M  V30 4307 C 402.876 3.21897 -2.88108 0
M  V30 4308 C 402.011 4.50608 -2.81294 0
M  V30 4309 C 401.05 4.60961 -4.02717 0
M  V30 4310 N 400.187 5.81024 -3.94151 0
M  V30 4311 H 405.027 1.55439 -2.54249 0
M  V30 4312 H 402.564 0.757219 -1.26113 0
M  V30 4313 H 404.522 3.85064 -1.60566 0
M  V30 4314 H 403.152 3.15015 -0.704645 0
M  V30 4315 H 402.204 2.35248 -2.98936 0
M  V30 4316 H 403.516 3.25412 -3.78032 0
M  V30 4317 H 402.67 5.3896 -2.7858 0
M  V30 4318 H 401.409 4.49568 -1.89049 0
M  V30 4319 H 400.414 3.71021 -4.05738 0
M  V30 4320 H 401.639 4.63761 -4.96087 0
M  V30 4321 H 399.585 5.80938 -3.04708 0
M  V30 4322 H 399.502 5.85909 -4.77752 0
M  V30 4323 H 400.77 6.71744 -3.9545 0
M  V30 4324 N 404.999 1.35443 0.805782 0
M  V30 4325 C 406.276 1.19325 1.54987 0
M  V30 4326 C 406.656 -0.227294 2.09873 0
M  V30 4327 O 406.004 -1.2309 1.92512 0
M  V30 4328 C 406.214 2.26196 2.65775 0
M  V30 4329 C 407.562 2.62043 3.34094 0
M  V30 4330 O 408.586 2.25115 2.76046 0
M  V30 4331 O 407.445 3.25542 4.38958 0
M  V30 4332 H 404.539 0.463623 0.684823 0
M  V30 4333 H 407.085 1.47127 0.845674 0
M  V30 4334 H 405.857 3.21471 2.23096 0
M  V30 4335 H 405.48 1.99667 3.43829 0
M  V30 4336 N 406.477 -1.02803 1.19454 0
M  V30 4337 C 407.424 -2.11099 0.933046 0
M  V30 4338 C 408.394 -1.65571 -0.132447 0
M  V30 4339 O 409.579 -1.90797 0.00987576 0
M  V30 4340 C 406.719 -3.41763 0.478747 0
M  V30 4341 C 405.832 -4.00833 1.6111 0
M  V30 4342 C 404.967 -5.19511 1.10825 0
M  V30 4343 C 404.006 -5.70639 2.21445 0
M  V30 4344 N 403.143 -6.80589 1.72461 0
M  V30 4345 H 407.983 -2.32804 1.86028 0
M  V30 4346 H 405.52 -1.14179 0.927441 0
M  V30 4347 H 407.478 -4.16736 0.196745 0
M  V30 4348 H 406.108 -3.20166 -0.411493 0
M  V30 4349 H 405.16 -3.23066 2.00829 0
M  V30 4350 H 406.472 -4.34794 2.4445 0
M  V30 4351 H 405.626 -6.01645 0.781533 0
M  V30 4352 H 404.365 -4.87086 0.244606 0
M  V30 4353 H 403.37 -4.87116 2.54947 0
M  V30 4354 H 404.595 -6.05102 3.08267 0
M  V30 4355 H 402.541 -6.50016 0.884056 0
M  V30 4356 H 402.458 -7.13681 2.49389 0
M  V30 4357 H 403.726 -7.66317 1.42755 0
M  V30 4358 N 407.956 -0.998596 -1.21925 0
M  V30 4359 C 409.205 -0.673085 -1.90138 0
M  V30 4360 C 409.518 0.79895 -1.78539 0
M  V30 4361 O 410.724 1.23628 -2.4172 0
M  V30 4362 C 409.18 -1.15339 -3.40918 0
M  V30 4363 C 408.788 -2.65106 -3.61141 0
M  V30 4364 C 410.532 -0.902476 -4.14796 0
M  V30 4365 C 408.439 -3.0671 -5.05651 0
M  V30 4366 H 407.369 -0.248057 -0.712028 0
M  V30 4367 H 410.02 -1.20891 -1.38049 0
M  V30 4368 H 408.402 -0.545658 -3.92223 0
M  V30 4369 H 409.576 -3.31274 -3.20304 0
M  V30 4370 H 407.891 -2.88142 -3.00605 0
M  V30 4371 H 410.488 -1.18895 -5.21314 0
M  V30 4372 H 410.831 0.161349 -4.15987 0
M  V30 4373 H 411.364 -1.47269 -3.69536 0
M  V30 4374 H 408.103 -4.12292 -5.09603 0
M  V30 4375 H 407.623 -2.45249 -5.47369 0
M  V30 4376 H 409.302 -2.9833 -5.74115 0
M  V30 4377 N 409.434 1.37368 -0.772513 0
M  V30 4378 C 410.364 2.32856 -0.173304 0
M  V30 4379 C 411.345 1.55818 0.682262 0
M  V30 4380 O 412.53 1.84052 0.619566 0
M  V30 4381 C 409.66 3.40048 0.706007 0
M  V30 4382 C 408.614 4.27973 -0.0483144 0
M  V30 4383 C 407.94 5.26184 0.950491 0
M  V30 4384 C 409.24 5.07665 -1.22776 0
M  V30 4385 H 410.934 2.83217 -0.971002 0
M  V30 4386 H 408.48 1.3617 -0.468377 0
M  V30 4387 H 410.433 4.05827 1.13501 0
M  V30 4388 H 409.157 2.88214 1.53623 0
M  V30 4389 H 407.816 3.63726 -0.458107 0
M  V30 4390 H 407.464 4.7063 1.77529 0
M  V30 4391 H 407.164 5.85872 0.450314 0
M  V30 4392 H 408.688 5.94838 1.37842 0
M  V30 4393 H 410.102 5.66578 -0.875366 0
M  V30 4394 H 408.499 5.76681 -1.66007 0
M  V30 4395 H 409.569 4.40294 -2.03149 0
M  V30 4396 N 410.912 0.523116 1.48665 0
M  V30 4397 C 412.137 -0.0117284 2.07397 0
M  V30 4398 C 412.562 -1.28031 1.37803 0
M  V30 4399 O 411.92 -1.75836 0.441762 0
M  V30 4400 C 411.968 -0.225786 3.59892 0
M  V30 4401 O 411.072 -1.29592 3.91509 0
M  V30 4402 H 410.413 0.0360673 0.66302 0
M  V30 4403 H 412.943 0.729066 1.9117 0
M  V30 4404 H 412.953 -0.450552 4.05505 0
M  V30 4405 H 411.628 0.700944 4.09951 0
M  V30 4406 H 410.205 -1.05436 3.57684 0
M  V30 4407 N 412.39 -1.55475 0.257931 0
M  V30 4408 C 413.3 -2.2549 -0.647425 0
M  V30 4409 C 414.316 -1.2748 -1.18427 0
M  V30 4410 O 415.492 -1.6038 -1.2182 0
M  V30 4411 C 412.557 -2.94916 -1.82278 0
M  V30 4412 C 411.618 -4.08363 -1.32432 0
M  V30 4413 C 410.851 -4.74469 -2.44366 0
M  V30 4414 O 411.074 -4.39701 -3.63344 0
M  V30 4415 O 410.008 -5.62763 -2.13497 0
M  V30 4416 H 413.834 -3.03593 -0.0807707 0
M  V30 4417 H 411.419 -1.49377 0.0259962 0
M  V30 4418 H 413.301 -3.38606 -2.50846 0
M  V30 4419 H 411.976 -2.19744 -2.37685 0
M  V30 4420 H 410.883 -3.69166 -0.605605 0
M  V30 4421 H 412.216 -4.85385 -0.816211 0
M  V30 4422 N 413.868 0.0150385 -1.57593 0
M  V30 4423 C 414.778 1.02791 -2.10882 0
M  V30 4424 C 415.794 1.38702 -1.0506 0
M  V30 4425 O 416.97 1.47739 -1.36877 0
M  V30 4426 C 414.035 2.30568 -2.58919 0
M  V30 4427 C 413.096 2.01108 -3.79281 0
M  V30 4428 C 412.329 3.22794 -4.25018 0
M  V30 4429 O 412.552 4.33959 -3.70183 0
M  V30 4430 O 411.486 3.07672 -5.17322 0
M  V30 4431 H 415.312 0.604973 -2.97613 0
M  V30 4432 H 412.897 0.23292 -1.47573 0
M  V30 4433 H 414.779 3.05662 -2.90084 0
M  V30 4434 H 413.454 2.72129 -1.75293 0
M  V30 4435 H 412.361 1.23537 -3.53114 0
M  V30 4436 H 413.694 1.64394 -4.63935 0
M  V30 4437 N 415.346 1.54954 0.287554 0
M  V30 4438 C 416.594 1.74528 1.01904 0
M  V30 4439 C 416.915 0.541349 1.87335 0
M  V30 4440 O 416.185 -0.444108 1.908 0
M  V30 4441 H 414.765 0.643576 0.379235 0
M  V30 4442 H 417.427 1.92333 0.315294 0
M  V30 4443 H 416.523 2.64015 1.6644 0
M  V30 4444 N 416.824 -0.551391 1.4764 0
M  V30 4445 C 418.24 -0.877887 1.33287 0
M  V30 4446 C 418.44 -1.98817 0.327721 0
M  V30 4447 O 417.496 -2.51171 -0.258695 0
M  V30 4448 C 418.809 -1.26563 2.72768 0
M  V30 4449 C 420.357 -1.37673 2.81097 0
M  V30 4450 C 420.832 -1.79799 4.21232 0
M  V30 4451 N 422.323 -1.8694 4.23802 0
M  V30 4452 C 423.058 -2.20876 5.29151 0
M  V30 4453 N 422.554 -2.53386 6.448 0
M  V30 4454 N 424.347 -2.217 5.16532 0
M  V30 4455 H 416.498 0.18153 2.11623 0
M  V30 4456 H 418.761 0.0185514 0.947818 0
M  V30 4457 H 418.467 -0.523591 3.47781 0
M  V30 4458 H 418.341 -2.22052 3.04915 0
M  V30 4459 H 420.728 -2.10956 2.06353 0
M  V30 4460 H 420.809 -0.40357 2.52596 0
M  V30 4461 H 420.453 -1.07083 4.96483 0
M  V30 4462 H 420.383 -2.78128 4.4716 0
M  V30 4463 H 422.874 -1.64179 3.40373 0
M  V30 4464 H 423.187 -2.78325 7.20941 0
M  V30 4465 H 421.532 -2.50953 6.48111 0
M  V30 4466 H 424.723 -1.95745 4.25207 0
M  V30 4467 H 424.896 -2.47818 5.98741 0
M  V30 4468 N 418.302 -1.35869 -0.798587 0
M  V30 4469 C 419.718 -1.16082 -1.09532 0
M  V30 4470 C 419.918 0.0213124 -2.01489 0
M  V30 4471 O 418.974 0.689488 -2.42904 0
M  V30 4472 C 420.287 -2.46748 -1.7186 0
M  V30 4473 C 421.835 -2.53028 -1.84244 0
M  V30 4474 C 422.31 -3.83758 -2.49988 0
M  V30 4475 N 423.801 -3.85053 -2.57465 0
M  V30 4476 C 424.536 -4.8294 -3.09122 0
M  V30 4477 N 424.032 -5.91217 -3.61157 0
M  V30 4478 N 425.825 -4.70369 -3.0775 0
M  V30 4479 H 417.976 -2.11571 -0.187461 0
M  V30 4480 H 420.239 -0.936726 -0.145765 0
M  V30 4481 H 419.945 -3.33471 -1.11759 0
M  V30 4482 H 419.819 -2.61883 -2.71472 0
M  V30 4483 H 422.206 -1.66729 -2.43486 0
M  V30 4484 H 422.287 -2.418 -0.834643 0
M  V30 4485 H 421.931 -4.70459 -1.91393 0
M  V30 4486 H 421.861 -3.92278 -3.5132 0
M  V30 4487 H 424.352 -3.06822 -2.20609 0
M  V30 4488 H 424.665 -6.61892 -3.98896 0
M  V30 4489 H 423.01 -5.94899 -3.59333 0
M  V30 4490 H 426.201 -3.84914 -2.66381 0
M  V30 4491 H 426.374 -5.46816 -3.47701 0
M  V30 4492 N 419.78 1.02168 -1.19998 0
M  V30 4493 C 420.712 2.10705 -0.901994 0
M  V30 4494 C 421.725 1.6244 0.108216 0
M  V30 4495 O 422.914 1.78082 -0.12214 0
M  V30 4496 C 420.014 3.37291 -0.329834 0
M  V30 4497 C 419.187 4.14714 -1.39035 0
M  V30 4498 C 418.246 5.19606 -0.830432 0
M  V30 4499 O 417.272 5.48809 -1.50989 0
M  V30 4500 N 418.474 5.79366 0.362696 0
M  V30 4501 H 421.239 2.36856 -1.83628 0
M  V30 4502 H 418.8 1.18518 -1.10296 0
M  V30 4503 H 420.792 4.04657 0.0587633 0
M  V30 4504 H 419.362 3.0843 0.508891 0
M  V30 4505 H 418.582 3.42392 -1.9535 0
M  V30 4506 H 419.87 4.63226 -2.10474 0
M  V30 4507 H 419.268 5.57968 0.932081 0
M  V30 4508 H 417.825 6.48106 0.69299 0
M  V30 4509 N 421.258 1.00505 1.21394 0
M  V30 4510 C 422.19 0.52372 2.23136 0
M  V30 4511 C 423.203 -0.387714 1.58116 0
M  V30 4512 O 424.392 -0.187905 1.77508 0
M  V30 4513 C 421.492 -0.258885 3.3791 0
M  V30 4514 C 420.665 0.651634 4.32519 0
M  V30 4515 C 419.724 -0.0813705 5.26137 0
M  V30 4516 O 418.75 0.537295 5.66658 0
M  V30 4517 N 419.952 -1.35992 5.64346 0
M  V30 4518 H 422.717 1.39865 2.65062 0
M  V30 4519 H 420.278 0.881196 1.35818 0
M  V30 4520 H 422.27 -0.758208 3.97534 0
M  V30 4521 H 420.84 -1.035 2.94968 0
M  V30 4522 H 420.06 1.33145 3.71034 0
M  V30 4523 H 421.348 1.27129 4.92662 0
M  V30 4524 H 420.746 -1.88368 5.33417 0
M  V30 4525 H 419.303 -1.8042 6.26332 0
M  V30 4526 N 422.737 -1.36956 0.779787 0
M  V30 4527 C 423.7 -2.2851 0.177662 0
M  V30 4528 C 424.7 -1.48393 -0.619377 0
M  V30 4529 O 425.89 -1.68505 -0.441785 0
M  V30 4530 C 423.022 -3.32428 -0.755279 0
M  V30 4531 H 424.215 -2.83269 0.984823 0
M  V30 4532 H 421.768 -1.46358 0.548544 0
M  V30 4533 H 422.503 -2.82808 -1.58714 0
M  V30 4534 H 422.288 -3.91659 -0.185817 0
M  V30 4535 H 423.778 -4.00824 -1.17174 0
M  V30 4536 N 424.215 -0.530993 -1.48385 0
M  V30 4537 C 425.162 0.231223 -2.29639 0
M  V30 4538 C 426.132 0.932864 -1.37429 0
M  V30 4539 O 427.317 0.933692 -1.66394 0
M  V30 4540 C 424.457 1.27155 -3.2082 0
M  V30 4541 C 423.57 0.578655 -4.28107 0
M  V30 4542 C 422.705 1.602 -5.06467 0
M  V30 4543 C 421.744 0.892625 -6.05556 0
M  V30 4544 N 420.881 1.86157 -6.76971 0
M  V30 4545 H 425.721 -0.467848 -2.94305 0
M  V30 4546 H 423.258 -0.242556 -1.45086 0
M  V30 4547 H 425.216 1.88703 -3.72085 0
M  V30 4548 H 423.846 1.939 -2.58075 0
M  V30 4549 H 422.898 -0.150782 -3.80101 0
M  V30 4550 H 424.21 0.0217065 -4.98795 0
M  V30 4551 H 423.364 2.29173 -5.61751 0
M  V30 4552 H 422.103 2.19285 -4.35621 0
M  V30 4553 H 421.108 0.188829 -5.49476 0
M  V30 4554 H 422.333 0.307878 -6.78402 0
M  V30 4555 H 420.279 2.44147 -6.08875 0
M  V30 4556 H 420.196 1.35608 -7.43738 0
M  V30 4557 H 421.464 2.54325 -7.36844 0
M  V30 4558 N 425.693 1.55336 -0.266172 0
M  V30 4559 C 426.623 2.25146 0.618981 0
M  V30 4560 C 427.604 1.23845 1.16604 0
M  V30 4561 O 428.789 1.52544 1.20183 0
M  V30 4562 C 425.919 2.96572 1.80728 0
M  V30 4563 C 424.873 4.04726 1.39215 0
M  V30 4564 C 424.199 4.63678 2.66283 0
M  V30 4565 C 425.499 5.19407 0.548942 0
M  V30 4566 H 427.193 2.99377 0.0368116 0
M  V30 4567 H 424.739 1.43991 0.0162651 0
M  V30 4568 H 426.692 3.44116 2.43232 0
M  V30 4569 H 425.416 2.19861 2.41514 0
M  V30 4570 H 424.075 3.57979 0.790351 0
M  V30 4571 H 423.723 3.83646 3.25308 0
M  V30 4572 H 423.423 5.367 2.39222 0
M  V30 4573 H 424.947 5.13967 3.29651 0
M  V30 4574 H 426.361 5.63059 1.07876 0
M  V30 4575 H 424.758 5.98936 0.373593 0
M  V30 4576 H 425.828 4.8295 -0.434394 0
M  V30 4577 N 427.171 -0.0066808 1.57599 0
M  V30 4578 C 428.118 -1.00024 2.08 0
M  V30 4579 C 429.088 -1.34549 0.973943 0
M  V30 4580 O 430.273 -1.44502 1.24595 0
M  V30 4581 C 427.413 -2.2891 2.58252 0
M  V30 4582 C 426.526 -2.00346 3.82734 0
M  V30 4583 C 425.661 -3.23265 4.21513 0
M  V30 4584 C 424.7 -2.90357 5.3885 0
M  V30 4585 N 423.837 -4.05793 5.72954 0
M  V30 4586 H 428.677 -0.563499 2.92624 0
M  V30 4587 H 426.214 -0.266592 1.44664 0
M  V30 4588 H 428.172 -3.04247 2.85464 0
M  V30 4589 H 426.802 -2.70265 1.76512 0
M  V30 4590 H 425.854 -1.15406 3.62471 0
M  V30 4591 H 427.166 -1.72086 4.68175 0
M  V30 4592 H 426.32 -4.06953 4.49971 0
M  V30 4593 H 425.059 -3.54657 3.34768 0
M  V30 4594 H 424.064 -2.05075 5.10122 0
M  V30 4595 H 425.289 -2.60219 6.27266 0
M  V30 4596 H 423.235 -4.37094 4.89167 0
M  V30 4597 H 423.152 -3.81034 6.52954 0
M  V30 4598 H 424.42 -4.90289 6.06001 0
M  V30 4599 N 428.649 -1.55105 -0.279332 0
M  V30 4600 C 429.559 -1.90638 -1.36727 0
M  V30 4601 C 430.575 -0.802899 -1.54368 0
M  V30 4602 O 431.751 -1.10138 -1.68616 0
M  V30 4603 C 428.816 -2.16547 -2.70755 0
M  V30 4604 C 427.877 -3.40146 -2.61915 0
M  V30 4605 C 427.11 -3.6481 -3.8955 0
M  V30 4606 O 427.333 -2.92095 -4.89935 0
M  V30 4607 O 426.267 -4.58343 -3.90135 0
M  V30 4608 H 430.093 -2.83237 -1.09591 0
M  V30 4609 H 427.678 -1.4157 -0.477306 0
M  V30 4610 H 429.56 -2.34665 -3.50014 0
M  V30 4611 H 428.235 -1.27131 -2.9769 0
M  V30 4612 H 427.142 -3.2737 -1.81052 0
M  V30 4613 H 428.475 -4.29761 -2.3993 0
M  V30 4614 N 430.127 0.543554 -1.4793 0
M  V30 4615 C 431.057 1.65888 -1.64327 0
M  V30 4616 C 432.038 1.62818 -0.492383 0
M  V30 4617 O 433.223 1.80226 -0.723338 0
M  V30 4618 C 430.353 3.04506 -1.67013 0
M  V30 4619 C 429.307 3.2243 -2.81466 0
M  V30 4620 C 428.633 4.61972 -2.69233 0
M  V30 4621 C 429.933 3.06496 -4.22915 0
M  V30 4622 H 431.627 1.52421 -2.57698 0
M  V30 4623 H 429.173 0.731849 -1.24016 0
M  V30 4624 H 431.126 3.82391 -1.77074 0
M  V30 4625 H 429.85 3.18964 -0.70212 0
M  V30 4626 H 428.509 2.46957 -2.70938 0
M  V30 4627 H 428.157 4.73247 -1.7043 0
M  V30 4628 H 427.857 4.74911 -3.46025 0
M  V30 4629 H 429.381 5.41974 -2.81242 0
M  V30 4630 H 430.795 3.74186 -4.34348 0
M  V30 4631 H 429.192 3.30938 -5.006 0
M  V30 4632 H 430.262 2.03077 -4.40327 0
M  V30 4633 N 431.605 1.3629 0.791371 0
M  V30 4634 C 432.537 1.26321 1.91248 0
M  V30 4635 C 433.55 0.18313 1.61767 0
M  V30 4636 O 434.739 0.437682 1.73051 0
M  V30 4637 C 431.839 0.925901 3.26007 0
M  V30 4638 C 431.012 2.10746 3.83281 0
M  V30 4639 C 430.071 1.74352 4.96475 0
M  V30 4640 O 429.097 2.46416 5.13096 0
M  V30 4641 N 430.299 0.676058 5.7655 0
M  V30 4642 H 433.064 2.22915 2.00323 0
M  V30 4643 H 430.625 1.29659 0.969546 0
M  V30 4644 H 432.617 0.663636 3.99222 0
M  V30 4645 H 431.187 0.0491581 3.12561 0
M  V30 4646 H 430.407 2.53264 3.02077 0
M  V30 4647 H 431.695 2.8969 4.18279 0
M  V30 4648 H 431.093 0.0776467 5.65647 0
M  V30 4649 H 429.65 0.473612 6.50077 0
M  V30 4650 N 433.083 -1.0153 1.20538 0
M  V30 4651 C 434.046 -2.0826 0.957098 0
M  V30 4652 C 435.046 -1.60657 -0.0678655 0
M  V30 4653 O 436.236 -1.73385 0.168332 0
M  V30 4654 C 433.368 -3.38033 0.441188 0
M  V30 4655 H 434.561 -2.31719 1.90384 0
M  V30 4656 H 432.114 -1.1835 1.02093 0
M  V30 4657 H 432.849 -3.20249 -0.510961 0
M  V30 4658 H 432.634 -3.73911 1.18038 0
M  V30 4659 H 434.124 -4.16613 0.287009 0
M  V30 4660 N 434.561 -1.01147 -1.20859 0
M  V30 4661 C 435.81 -0.693214 -1.89413 0
M  V30 4662 C 436.123 0.779969 -1.79376 0
M  V30 4663 O 437.329 1.21057 -2.43017 0
M  V30 4664 C 435.785 -1.18949 -3.39675 0
M  V30 4665 C 435.393 -2.68921 -3.58309 0
M  V30 4666 C 437.137 -0.94642 -4.13815 0
M  V30 4667 C 435.044 -3.12056 -5.0237 0
M  V30 4668 H 433.974 -0.255595 -0.709357 0
M  V30 4669 H 436.625 -1.22349 -1.36759 0
M  V30 4670 H 435.007 -0.587228 -3.91622 0
M  V30 4671 H 436.181 -3.34652 -3.16772 0
M  V30 4672 H 434.496 -2.91314 -2.97532 0
M  V30 4673 H 437.093 -1.24417 -5.20023 0
M  V30 4674 H 437.436 0.117219 -4.16135 0
M  V30 4675 H 437.969 -1.5118 -3.67953 0
M  V30 4676 H 434.708 -4.17674 -5.05202 0
M  V30 4677 H 434.228 -2.51041 -5.44737 0
M  V30 4678 H 435.907 -3.04403 -5.70918 0
M  V30 4679 N 436.039 1.36541 -0.78704 0
M  V30 4680 C 437.002 2.28413 -0.189778 0
M  V30 4681 C 438.002 1.48719 0.611499 0
M  V30 4682 O 439.192 1.68737 0.432842 0
M  V30 4683 C 436.324 3.32824 0.737638 0
M  V30 4684 H 437.517 2.82743 -0.999831 0
M  V30 4685 H 435.07 1.46065 -0.556298 0
M  V30 4686 H 435.805 2.83646 1.57212 0
M  V30 4687 H 435.59 3.91752 0.165044 0
M  V30 4688 H 437.08 4.0144 1.15047 0
M  V30 4689 N 437.518 0.538854 1.48102 0
M  V30 4690 C 438.428 -0.222648 2.33541 0
M  V30 4691 C 439.444 -0.930225 1.47047 0
M  V30 4692 O 440.62 -0.903211 1.80011 0
M  V30 4693 C 437.685 -1.25064 3.23357 0
M  V30 4694 C 436.746 -0.552469 4.2573 0
M  V30 4695 C 435.979 -1.53149 5.11254 0
M  V30 4696 O 436.202 -2.76487 4.9891 0
M  V30 4697 O 435.136 -1.06602 5.92385 0
M  V30 4698 H 438.962 0.477707 2.99919 0
M  V30 4699 H 436.547 0.299669 1.46364 0
M  V30 4700 H 438.429 -1.8445 3.78888 0
M  V30 4701 H 437.104 -1.93325 2.59629 0
M  V30 4702 H 436.011 0.082114 3.7401 0
M  V30 4703 H 437.344 0.0883526 4.92121 0
M  V30 4704 N 438.996 -1.55193 0.274407 0
M  V30 4705 C 440.412 -1.59401 -0.0797543 0
M  V30 4706 C 440.612 -1.29162 -1.54659 0
M  V30 4707 O 439.668 -1.05215 -2.29534 0
M  V30 4708 C 440.981 -2.99257 0.294238 0
M  V30 4709 C 442.529 -3.12072 0.240796 0
M  V30 4710 C 443.004 -4.54194 0.589218 0
M  V30 4711 N 444.495 -4.60033 0.540744 0
M  V30 4712 C 445.23 -5.68027 0.783147 0
M  V30 4713 N 444.726 -6.8417 1.09013 0
M  V30 4714 N 446.519 -5.57572 0.711993 0
M  V30 4715 H 438.67 -1.73113 1.23067 0
M  V30 4716 H 440.933 -0.807197 0.497129 0
M  V30 4717 H 440.639 -3.26217 1.31435 0
M  V30 4718 H 440.513 -3.75427 -0.365281 0
M  V30 4719 H 442.9 -2.84877 -0.770024 0
M  V30 4720 H 442.981 -2.38117 0.934563 0
M  V30 4721 H 442.625 -4.82115 1.59772 0
M  V30 4722 H 442.555 -5.26448 -0.126331 0
M  V30 4723 H 445.046 -3.76599 0.313327 0
M  V30 4724 H 445.359 -7.6243 1.26178 0
M  V30 4725 H 443.704 -6.85787 1.12789 0
M  V30 4726 H 446.895 -4.65714 0.472014 0
M  V30 4727 H 447.068 -6.41659 0.90429 0
M  V30 4728 N 440.474 -0.00167713 -1.576 0
M  V30 4729 C 441.404 0.988091 -2.11563 0
M  V30 4730 C 442.385 1.35736 -1.02517 0
M  V30 4731 O 443.57 1.44082 -1.30208 0
M  V30 4732 C 440.7 2.27941 -2.62031 0
M  V30 4733 C 439.654 2.0517 -3.75619 0
M  V30 4734 C 438.98 3.4033 -4.12407 0
M  V30 4735 C 440.28 1.41294 -5.02825 0
M  V30 4736 H 441.974 0.538771 -2.94513 0
M  V30 4737 H 439.52 0.257712 -1.41675 0
M  V30 4738 H 441.473 2.97539 -2.9841 0
M  V30 4739 H 440.197 2.74989 -1.76205 0
M  V30 4740 H 438.856 1.37998 -3.39635 0
M  V30 4741 H 438.504 3.85085 -3.23603 0
M  V30 4742 H 438.204 3.25909 -4.88935 0
M  V30 4743 H 439.728 4.1124 -4.51347 0
M  V30 4744 H 441.142 2.00851 -5.36965 0
M  V30 4745 H 439.539 1.37356 -5.84169 0
M  V30 4746 H 440.609 0.382362 -4.8339 0
M  V30 4747 N 441.952 1.55251 0.271103 0
M  V30 4748 C 443.2 1.75599 1.00047 0
M  V30 4749 C 443.521 0.561188 1.8675 0
M  V30 4750 O 442.791 -0.423846 1.9126 0
M  V30 4751 H 441.371 0.647562 0.372387 0
M  V30 4752 H 444.033 1.92656 0.294876 0
M  V30 4753 H 443.129 2.65766 1.6363 0
M  V30 4754 N 443.43 -0.535701 1.48216 0
M  V30 4755 C 444.67 -1.30238 1.57536 0
M  V30 4756 C 445.034 -1.90479 0.241229 0
M  V30 4757 O 446.235 -2.67983 0.20938 0
M  V30 4758 C 444.506 -2.3669 2.67792 0
M  V30 4759 S 446.065 -3.23159 2.9684 0
M  V30 4760 H 442.883 -0.443093 0.556048 0
M  V30 4761 H 445.485 -0.610937 1.85709 0
M  V30 4762 H 444.189 -1.90905 3.63296 0
M  V30 4763 H 443.72 -3.10548 2.41502 0
M  V30 4764 H 445.735 -4.36647 2.35699 0
M  V30 4765 N 444.908 -1.36708 -0.784132 0
M  V30 4766 C 446.136 -1.34398 -1.57305 0
M  V30 4767 C 446.551 0.0735577 -1.88657 0
M  V30 4768 O 445.908 1.03193 -1.50524 0
M  V30 4769 C 445.959 -2.17053 -2.89085 0
M  V30 4770 O 445.68 -3.53281 -2.59083 0
M  V30 4771 C 447.181 -2.22583 -3.83369 0
M  V30 4772 H 444.401 -0.460819 -0.487736 0
M  V30 4773 H 446.945 -1.79879 -0.972819 0
M  V30 4774 H 445.1 -1.75113 -3.45564 0
M  V30 4775 H 445.514 -3.9647 -3.43383 0
M  V30 4776 H 446.988 -2.84763 -4.72878 0
M  V30 4777 H 447.465 -1.23075 -4.21603 0
M  V30 4778 H 448.071 -2.64781 -3.32823 0
M  V30 4779 N 446.386 1.0089 -1.21074 0
M  V30 4780 C 447.316 2.1145 -0.990523 0
M  V30 4781 C 448.297 1.69897 0.0831699 0
M  V30 4782 O 449.482 1.94052 -0.0758853 0
M  V30 4783 C 446.612 3.42914 -0.550177 0
M  V30 4784 C 445.566 3.98244 -1.56799 0
M  V30 4785 C 444.892 5.25568 -0.984013 0
M  V30 4786 C 446.192 4.30752 -2.95381 0
M  V30 4787 H 447.886 2.3013 -1.91521 0
M  V30 4788 H 445.432 1.10592 -0.92225 0
M  V30 4789 H 447.385 4.19653 -0.383305 0
M  V30 4790 H 446.109 3.24014 0.41015 0
M  V30 4791 H 444.768 3.23621 -1.72236 0
M  V30 4792 H 444.416 5.02998 -0.0155216 0
M  V30 4793 H 444.116 5.63551 -1.66384 0
M  V30 4794 H 445.64 6.04955 -0.828378 0
M  V30 4795 H 447.054 4.98349 -2.8341 0
M  V30 4796 H 445.451 4.79869 -3.60341 0
M  V30 4797 H 446.521 3.39192 -3.46521 0
M  V30 4798 N 447.864 1.01787 1.20321 0
M  V30 4799 C 449.275 0.739307 1.71438 0
M  V30 4800 C 449.626 -0.742041 1.81627 0
M  V30 4801 O 448.751 -1.57903 1.47971 0
M  V30 4802 C 449.346 1.33538 3.11373 0
M  V30 4803 C 447.905 1.10566 3.59795 0
M  V30 4804 C 447.052 1.44028 2.36962 0
M  V30 4805 H 450.003 1.18718 1.05317 0
M  V30 4806 H 450.024 0.726611 3.73498 0
M  V30 4807 H 449.536 2.41352 3.03926 0
M  V30 4808 H 447.637 0.0452405 3.72573 0
M  V30 4809 H 447.75 1.78661 4.44542 0
M  V30 4810 H 446.114 0.85933 2.39766 0
M  V30 4811 H 446.897 2.52901 2.32155 0
M  V30 4812 N 449.342 -1.36122 0.79427 0
M  V30 4813 C 450.274 -2.28683 0.153903 0
M  V30 4814 C 451.287 -1.49707 -0.639669 0
M  V30 4815 O 452.476 -1.7209 -0.474054 0
M  V30 4816 C 449.576 -3.29202 -0.804921 0
M  V30 4817 C 448.749 -4.37358 -0.060366 0
M  V30 4818 C 447.808 -5.17811 -0.935849 0
M  V30 4819 O 446.834 -5.67853 -0.391309 0
M  V30 4820 N 448.036 -5.34721 -2.25951 0
M  V30 4821 H 450.801 -2.84278 0.949008 0
M  V30 4822 H 448.362 -1.4834 0.648611 0
M  V30 4823 H 450.354 -3.79914 -1.39455 0
M  V30 4824 H 448.924 -2.74212 -1.50088 0
M  V30 4825 H 448.144 -3.87746 0.710382 0
M  V30 4826 H 449.432 -5.06777 0.45324 0
M  V30 4827 H 448.83 -4.95687 -2.72601 0
M  V30 4828 H 447.387 -5.88657 -2.79867 0
M  V30 4829 N 450.82 -0.546701 -1.47814 0
M  V30 4830 C 451.75 0.195317 -2.32682 0
M  V30 4831 C 452.731 0.918981 -1.43139 0
M  V30 4832 O 453.916 0.901501 -1.72008 0
M  V30 4833 C 451.046 1.23237 -3.247 0
M  V30 4834 C 450 0.625818 -4.234 0
M  V30 4835 C 449.326 1.76674 -5.04669 0
M  V30 4836 C 450.626 -0.413515 -5.2066 0
M  V30 4837 H 452.32 -0.513184 -2.94969 0
M  V30 4838 H 449.866 -0.248241 -1.41844 0
M  V30 4839 H 451.819 1.75955 -3.82907 0
M  V30 4840 H 450.543 1.97067 -2.60446 0
M  V30 4841 H 449.202 0.120023 -3.66403 0
M  V30 4842 H 448.85 2.49383 -4.36826 0
M  V30 4843 H 448.55 1.36673 -5.71484 0
M  V30 4844 H 450.074 2.29738 -5.65732 0
M  V30 4845 H 451.488 0.0272042 -5.73294 0
M  V30 4846 H 449.885 -0.731825 -5.95621 0
M  V30 4847 H 450.955 -1.31325 -4.66778 0
M  V30 4848 N 452.299 1.55045 -0.282633 0
M  V30 4849 C 453.262 2.21515 0.588539 0
M  V30 4850 C 454.262 1.19535 1.07554 0
M  V30 4851 O 455.452 1.44391 0.974514 0
M  V30 4852 C 452.584 2.88704 1.8128 0
M  V30 4853 H 453.777 2.99899 0.00806397 0
M  V30 4854 H 451.33 1.56265 -0.0333067 0
M  V30 4855 H 452.065 2.14352 2.43359 0
M  V30 4856 H 451.85 3.63443 1.47144 0
M  V30 4857 H 453.34 3.39465 2.43214 0
M  V30 4858 N 453.777 0.010035 1.57597 0
M  V30 4859 C 455.026 -0.671945 1.90178 0
M  V30 4860 C 455.339 -1.74376 0.886131 0
M  V30 4861 O 456.545 -2.48107 1.10252 0
M  V30 4862 C 455.001 -1.24636 3.3763 0
M  V30 4863 C 454.609 -0.208838 4.47513 0
M  V30 4864 C 456.353 -1.90595 3.79307 0
M  V30 4865 C 454.26 -0.793814 5.86048 0
M  V30 4866 H 453.19 -0.25474 0.709665 0
M  V30 4867 H 455.841 0.0722206 1.83358 0
M  V30 4868 H 454.223 -2.04152 3.3932 0
M  V30 4869 H 455.397 0.562463 4.57354 0
M  V30 4870 H 453.712 0.350889 4.14919 0
M  V30 4871 H 456.309 -2.35284 4.80151 0
M  V30 4872 H 456.652 -2.74074 3.13352 0
M  V30 4873 H 457.185 -1.17798 3.79958 0
M  V30 4874 H 453.924 0.00240855 6.555 0
M  V30 4875 H 453.444 -1.53404 5.79851 0
M  V30 4876 H 455.123 -1.2894 6.34022 0
M  V30 4877 N 455.255 -1.55392 -0.262866 0
M  V30 4878 C 456.218 -1.88181 -1.30846 0
M  V30 4879 C 457.218 -0.757079 -1.41862 0
M  V30 4880 O 458.408 -1.02519 -1.40838 0
M  V30 4881 C 455.54 -2.09609 -2.68844 0
M  V30 4882 H 456.733 -2.81659 -1.02997 0
M  V30 4883 H 454.286 -1.48039 -0.501414 0
M  V30 4884 H 455.021 -1.18547 -3.01856 0
M  V30 4885 H 454.806 -2.91508 -2.62231 0
M  V30 4886 H 456.296 -2.36215 -3.44372 0
M  V30 4887 N 456.733 0.527833 -1.48498 0
M  V30 4888 C 457.979 1.28295 -1.57836 0
M  V30 4889 C 458.334 1.9077 -0.249943 0
M  V30 4890 O 457.627 1.76421 0.747402 0
M  V30 4891 C 457.821 2.39275 -2.65485 0
M  V30 4892 C 457.65 1.87679 -4.08664 0
M  V30 4893 C 456.42 1.70187 -4.75778 0
M  V30 4894 C 458.618 1.40409 -4.94762 0
M  V30 4895 N 456.6 1.13238 -6.03366 0
M  V30 4896 C 457.971 0.954216 -6.12613 0
M  V30 4897 C 460.026 1.28732 -4.8097 0
M  V30 4898 C 458.729 0.39915 -7.18192 0
M  V30 4899 C 460.755 0.746244 -5.86673 0
M  V30 4900 C 460.117 0.306457 -7.03733 0
M  V30 4901 H 456.216 0.460408 -0.632099 0
M  V30 4902 H 458.8 0.594913 -1.85388 0
M  V30 4903 H 456.971 3.05572 -2.3975 0
M  V30 4904 H 458.703 3.06308 -2.64495 0
M  V30 4905 H 455.458 1.93772 -4.32145 0
M  V30 4906 H 455.882 0.867687 -6.71417 0
M  V30 4907 H 460.524 1.61338 -3.90807 0
M  V30 4908 H 458.242 0.0607678 -8.08077 0
M  V30 4909 H 461.828 0.659041 -5.78055 0
M  V30 4910 H 460.708 -0.105708 -7.84129 0
M  V30 4911 N 458.211 1.37122 0.776871 0
M  V30 4912 C 459.451 1.33441 1.54831 0
M  V30 4913 C 459.815 -0.0818963 1.91825 0
M  V30 4914 O 461.016 -0.24338 2.67696 0
M  V30 4915 C 459.287 2.24267 2.78279 0
M  V30 4916 S 460.846 2.38389 3.68397 0
M  V30 4917 H 457.664 0.473791 0.530135 0
M  V30 4918 H 460.266 1.7282 0.913968 0
M  V30 4919 H 458.97 3.261 2.49173 0
M  V30 4920 H 458.501 1.85953 3.46677 0
M  V30 4921 H 460.516 1.59068 4.70013 0
M  V30 4922 N 459.689 -1.00246 1.21608 0
M  V30 4923 C 460.619 -2.10921 1.00172 0
M  V30 4924 C 461.6 -1.69938 -0.0741587 0
M  V30 4925 O 462.785 -1.94009 0.0861753 0
M  V30 4926 C 459.915 -3.42618 0.568355 0
M  V30 4927 C 458.869 -3.97407 1.58909 0
M  V30 4928 C 458.195 -5.25038 1.01187 0
M  V30 4929 C 459.495 -4.2918 2.97661 0
M  V30 4930 H 461.189 -2.29112 1.92739 0
M  V30 4931 H 458.735 -1.10101 0.928102 0
M  V30 4932 H 460.688 -4.19444 0.405555 0
M  V30 4933 H 459.412 -3.24227 -0.392961 0
M  V30 4934 H 458.071 -3.22703 1.73949 0
M  V30 4935 H 457.719 -5.02982 0.0421965 0
M  V30 4936 H 457.419 -5.62661 1.6937 0
M  V30 4937 H 458.943 -6.04507 0.860448 0
M  V30 4938 H 460.357 -4.96839 2.86049 0
M  V30 4939 H 458.754 -4.77952 3.6288 0
M  V30 4940 H 459.824 -3.3735 3.48315 0
M  V30 4941 N 461.167 -1.02423 -1.1978 0
M  V30 4942 C 462.583 -0.740459 -1.41384 0
M  V30 4943 C 462.783 0.676827 -1.89793 0
M  V30 4944 O 461.839 1.4435 -2.0717 0
M  V30 4945 C 463.152 -1.77264 -2.42895 0
M  V30 4946 C 464.7 -1.79165 -2.56649 0
M  V30 4947 C 465.175 -2.8133 -3.6141 0
M  V30 4948 N 466.666 -2.80118 -3.68901 0
M  V30 4949 C 467.401 -3.55824 -4.49641 0
M  V30 4950 N 466.897 -4.41231 -5.34123 0
M  V30 4951 N 468.69 -3.44387 -4.44246 0
M  V30 4952 H 460.841 -1.9391 -0.866764 0
M  V30 4953 H 463.104 -0.838074 -0.443098 0
M  V30 4954 H 462.81 -2.7884 -2.14339 0
M  V30 4955 H 462.684 -1.59108 -3.42001 0
M  V30 4956 H 465.071 -0.782702 -2.84531 0
M  V30 4957 H 465.152 -2.01396 -1.57713 0
M  V30 4958 H 464.796 -3.82394 -3.34271 0
M  V30 4959 H 464.726 -2.56359 -4.59986 0
M  V30 4960 H 467.217 -2.1817 -3.08562 0
M  V30 4961 H 467.53 -4.95747 -5.92836 0
M  V30 4962 H 465.875 -4.45306 -5.33599 0
M  V30 4963 H 469.066 -2.7708 -3.77285 0
M  V30 4964 H 469.239 -4.0364 -5.06931 0
M  V30 4965 N 462.645 1.35699 -0.801477 0
M  V30 4966 C 463.593 2.3177 -0.196317 0
M  V30 4967 C 464.587 1.56388 0.651081 0
M  V30 4968 O 465.793 1.71557 0.544815 0
M  V30 4969 H 462.168 0.750669 -0.0447189 0
M  V30 4970 H 464.139 2.8036 -1.02181 0
M  V30 4971 C 462.888 3.41671 0.644702 0
M  V30 4972 H 462.211 3.998 0.0019921 0
M  V30 4973 H 463.651 4.11184 1.0346 0
M  V30 4974 C 462.11 2.84271 1.80808 0
M  V30 4975 O 462.64 2.77408 2.9053 0
M  V30 4976 N 460.846 2.41391 1.61799 0
M  V30 4977 H 460.393 2.47173 0.725493 0
M  V30 4978 H 460.351 2.03334 2.39797 0
M  V30 4979 N 464.123 0.554532 1.47522 0
M  V30 4980 C 465.033 -0.197865 2.33764 0
M  V30 4981 C 466.049 -0.914576 1.48025 0
M  V30 4982 O 467.225 -0.884067 1.80959 0
M  V30 4983 C 464.29 -1.21628 3.24665 0
M  V30 4984 C 463.351 -0.507283 4.26292 0
M  V30 4985 C 462.584 -1.47718 5.1285 0
M  V30 4986 O 462.807 -2.7118 5.01814 0
M  V30 4987 O 461.741 -1.00313 5.93482 0
M  V30 4988 H 465.567 0.50949 2.99396 0
M  V30 4989 H 463.152 0.315176 1.46038 0
M  V30 4990 H 465.034 -1.80421 3.80823 0
M  V30 4991 H 463.709 -1.9056 2.61665 0
M  V30 4992 H 462.616 0.121778 3.73902 0
M  V30 4993 H 463.949 0.140544 4.91999 0
M  V30 4994 N 465.601 -1.54893 0.290851 0
M  V30 4995 C 466.849 -1.99538 -0.320756 0
M  V30 4996 C 467.17 -1.18075 -1.55188 0
M  V30 4997 O 466.44 -0.274162 -1.93972 0
M  V30 4998 H 465.02 -0.737052 -0.121507 0
M  V30 4999 H 467.682 -1.90755 0.399832 0
M  V30 5000 H 466.778 -3.06282 -0.599802 0
M  V30 5001 N 467.08 -0.0183926 -1.57589 0
M  V30 5002 C 468.326 0.663543 -1.91638 0
M  V30 5003 C 468.659 1.72392 -0.894134 0
M  V30 5004 O 467.934 1.94316 0.0846449 0
M  V30 5005 C 468.217 1.28984 -3.36207 0
M  V30 5006 C 468.07 0.239761 -4.49161 0
M  V30 5007 C 469.389 2.2109 -3.80536 0
M  V30 5008 H 466.508 0.239746 -0.696915 0
M  V30 5009 H 469.15 -0.073456 -1.89858 0
M  V30 5010 H 467.3 1.91799 -3.37854 0
M  V30 5011 H 468.972 -0.390119 -4.59647 0
M  V30 5012 H 467.215 -0.435972 -4.31604 0
M  V30 5013 H 467.886 0.717383 -5.47319 0
M  V30 5014 H 470.362 1.68273 -3.80557 0
M  V30 5015 H 469.238 2.61869 -4.82406 0
M  V30 5016 H 469.499 3.09764 -3.15434 0
M  V30 5017 N 468.558 1.5553 0.254621 0
M  V30 5018 C 469.783 1.81383 1.00573 0
M  V30 5019 C 470.208 0.594419 1.78461 0
M  V30 5020 O 469.566 -0.456403 1.75461 0
M  V30 5021 C 469.614 3.04892 1.92545 0
M  V30 5022 O 468.718 2.81266 3.01601 0
M  V30 5023 H 468.059 0.598969 0.286587 0
M  V30 5024 H 470.589 2.02703 0.277952 0
M  V30 5025 H 470.599 3.34119 2.34155 0
M  V30 5026 H 469.274 3.93287 1.3527 0
M  V30 5027 H 467.851 2.63185 2.64174 0
M  V30 5028 N 470.036 -0.519951 1.48776 0
M  V30 5029 C 471.261 -1.30447 1.6124 0
M  V30 5030 C 471.686 -1.86055 0.276591 0
M  V30 5031 O 471.044 -1.64915 -0.753183 0
M  V30 5032 C 471.092 -2.42406 2.66967 0
M  V30 5033 O 470.196 -3.45728 2.24824 0
M  V30 5034 H 469.537 -0.385924 0.540332 0
M  V30 5035 H 472.067 -0.624572 1.94834 0
M  V30 5036 H 472.077 -2.88447 2.88552 0
M  V30 5037 H 470.752 -2.01294 3.63941 0
M  V30 5038 H 469.329 -3.05737 2.13494 0
M  V30 5039 N 471.514 -1.37532 -0.769588 0
M  V30 5040 C 472.76 -1.33057 -1.53048 0
M  V30 5041 C 473.093 0.0841865 -1.94017 0
M  V30 5042 O 472.368 1.04198 -1.64235 0
M  V30 5043 C 472.651 -2.27166 -2.79406 0
M  V30 5044 C 472.504 -3.77429 -2.44677 0
M  V30 5045 C 473.823 -2.19683 -3.81349 0
M  V30 5046 H 470.942 -0.484655 -0.555228 0
M  V30 5047 H 473.584 -1.68251 -0.882702 0
M  V30 5048 H 471.734 -1.97283 -3.34682 0
M  V30 5049 H 473.406 -4.17918 -1.953 0
M  V30 5050 H 471.649 -3.95892 -1.77346 0
M  V30 5051 H 472.32 -4.38716 -3.35011 0
M  V30 5052 H 474.796 -2.46029 -3.35573 0
M  V30 5053 H 473.672 -2.87668 -4.67481 0
M  V30 5054 H 473.933 -1.19045 -4.25771 0
M  V30 5055 N 472.992 0.995999 -1.22138 0
M  V30 5056 C 473.922 2.10387 -1.01289 0
M  V30 5057 C 474.903 1.69975 0.0651454 0
M  V30 5058 O 476.088 1.9396 -0.0964628 0
M  V30 5059 C 473.218 3.42312 -0.586517 0
M  V30 5060 C 472.172 3.96558 -1.61014 0
M  V30 5061 C 471.498 5.24494 -1.0397 0
M  V30 5062 C 472.798 4.27595 -2.99933 0
M  V30 5063 H 474.492 2.28086 -1.93951 0
M  V30 5064 H 472.038 1.09607 -0.933928 0
M  V30 5065 H 473.991 4.19223 -0.427793 0
M  V30 5066 H 472.715 3.24431 0.375761 0
M  V30 5067 H 471.374 3.21776 -1.75658 0
M  V30 5068 H 471.022 5.02953 -0.0688703 0
M  V30 5069 H 470.722 5.61755 -1.72352 0
M  V30 5070 H 472.246 6.04042 -0.892494 0
M  V30 5071 H 473.66 4.95315 -2.8868 0
M  V30 5072 H 472.057 4.76021 -3.6541 0
M  V30 5073 H 473.127 3.35498 -3.50099 0
M  V30 5074 N 474.47 1.03057 1.19235 0
M  V30 5075 C 475.4 0.633497 2.24742 0
M  V30 5076 C 476.381 -0.358335 1.66283 0
M  V30 5077 O 477.566 -0.240676 1.92703 0
M  V30 5078 C 474.696 -0.0147648 3.47297 0
M  V30 5079 C 473.65 0.899527 4.18441 0
M  V30 5080 C 472.976 0.116281 5.34574 0
M  V30 5081 C 474.276 2.21404 4.73051 0
M  V30 5082 H 475.97 1.5155 2.58211 0
M  V30 5083 H 473.516 0.73014 1.24117 0
M  V30 5084 H 475.469 -0.304202 4.20301 0
M  V30 5085 H 474.193 -0.931577 3.13032 0
M  V30 5086 H 472.852 1.17319 3.47321 0
M  V30 5087 H 472.5 -0.802619 4.96555 0
M  V30 5088 H 472.2 0.725293 5.83107 0
M  V30 5089 H 473.724 -0.166376 6.10373 0
M  V30 5090 H 475.138 1.98601 5.37802 0
M  V30 5091 H 473.535 2.77512 5.32078 0
M  V30 5092 H 474.605 2.86752 3.91026 0
M  V30 5093 N 475.948 -1.35272 0.808662 0
M  V30 5094 C 477.196 -1.98316 0.389233 0
M  V30 5095 C 477.517 -1.64465 -1.04767 0
M  V30 5096 O 476.787 -0.928175 -1.72516 0
M  V30 5097 H 475.367 -0.733585 0.140935 0
M  V30 5098 H 478.029 -1.6515 1.03496 0
M  V30 5099 H 477.125 -3.08123 0.496631 0
M  V30 5100 N 477.426 -0.562348 -1.47226 0
M  V30 5101 C 478.389 0.172056 -2.28553 0
M  V30 5102 C 479.389 0.837928 -1.37242 0
M  V30 5103 O 480.579 0.693001 -1.59822 0
M  V30 5104 C 477.711 1.25223 -3.17068 0
M  V30 5105 H 478.904 -0.542401 -2.94954 0
M  V30 5106 H 476.457 -0.319493 -1.53 0
M  V30 5107 H 477.192 1.99892 -2.55369 0
M  V30 5108 H 476.977 0.779515 -3.84273 0
M  V30 5109 H 478.467 1.76791 -3.78332 0
M  V30 5110 N 478.904 1.54736 -0.299062 0
M  V30 5111 C 480.129 2.04975 0.316254 0
M  V30 5112 C 480.554 1.17501 1.46885 0
M  V30 5113 O 479.912 0.178678 1.80417 0
M  V30 5114 C 479.96 3.52672 0.751997 0
M  V30 5115 O 479.064 3.68226 1.85697 0
M  V30 5116 H 478.405 0.661126 0.0617175 0
M  V30 5117 H 480.935 1.99805 -0.440341 0
M  V30 5118 H 480.945 3.94488 1.04133 0
M  V30 5119 H 479.62 4.158 -0.0911482 0
M  V30 5120 H 478.197 3.38316 1.56834 0
M  V30 5121 N 480.382 0.0267497 1.57577 0
M  V30 5122 C 481.33 -0.973923 2.11229 0
M  V30 5123 C 482.324 -1.33849 1.03831 0
M  V30 5124 O 483.53 -1.321 1.22269 0
M  V30 5125 H 479.905 -0.331844 0.674821 0
M  V30 5126 H 481.876 -0.496092 2.94247 0
M  V30 5127 C 480.625 -2.24798 2.65257 0
M  V30 5128 H 479.948 -1.9762 3.47543 0
M  V30 5129 H 481.388 -2.93031 3.06445 0
M  V30 5130 C 479.847 -2.97611 1.57891 0
M  V30 5131 O 480.377 -3.89629 0.97735 0
M  V30 5132 N 478.583 -2.59905 1.29992 0
M  V30 5133 H 478.13 -1.85154 1.79097 0
M  V30 5134 H 478.088 -3.08932 0.583798 0
M  V30 5135 N 481.861 -1.55662 -0.24637 0
M  V30 5136 C 482.824 -1.89558 -1.28842 0
M  V30 5137 C 483.824 -0.772082 -1.41052 0
M  V30 5138 O 485.014 -1.04007 -1.39743 0
M  V30 5139 C 482.146 -2.12449 -2.66605 0
M  V30 5140 H 483.339 -2.82735 -1.00004 0
M  V30 5141 H 480.892 -1.48562 -0.485684 0
M  V30 5142 H 481.627 -1.21742 -3.00582 0
M  V30 5143 H 481.412 -2.94273 -2.59125 0
M  V30 5144 H 482.902 -2.39854 -3.41847 0
M  V30 5145 N 483.339 0.512053 -1.4905 0
M  V30 5146 C 484.616 1.27337 -1.48474 0
M  V30 5147 C 484.996 2.1009 -0.206301 0
M  V30 5148 O 484.344 2.136 0.811609 0
M  V30 5149 C 484.554 2.13954 -2.75726 0
M  V30 5150 C 485.902 2.73507 -3.24776 0
M  V30 5151 O 486.926 2.24229 -2.76767 0
M  V30 5152 O 485.785 3.63186 -4.08361 0
M  V30 5153 H 482.879 0.575652 -0.593762 0
M  V30 5154 H 485.425 0.527232 -1.61302 0
M  V30 5155 H 484.197 1.52709 -3.60272 0
M  V30 5156 H 483.82 2.95782 -2.65705 0
M  V30 5157 N 484.817 1.37938 0.762283 0
M  V30 5158 C 485.749 1.30349 1.88525 0
M  V30 5159 C 486.762 0.217402 1.61342 0
M  V30 5160 O 487.951 0.474291 1.72084 0
M  V30 5161 C 485.051 0.994844 3.23969 0
M  V30 5162 C 484.224 2.18829 3.78725 0
M  V30 5163 C 483.283 1.84844 4.92665 0
M  V30 5164 O 482.309 2.57244 5.07754 0
M  V30 5165 N 483.511 0.798201 5.74986 0
M  V30 5166 H 486.276 2.27114 1.95549 0
M  V30 5167 H 483.837 1.31686 0.941825 0
M  V30 5168 H 485.829 0.748168 3.97724 0
M  V30 5169 H 484.399 0.115446 3.12387 0
M  V30 5170 H 483.619 2.59615 2.96637 0
M  V30 5171 H 484.907 2.98497 4.1204 0
M  V30 5172 H 484.305 0.197611 5.65355 0
M  V30 5173 H 482.862 0.611396 6.48926 0
M  V30 5174 N 486.295 -0.989507 1.22664 0
M  V30 5175 C 487.225 -2.09847 1.02404 0
M  V30 5176 C 488.206 -1.70007 -0.0561303 0
M  V30 5177 O 489.391 -1.93906 0.106748 0
M  V30 5178 C 486.521 -3.41996 0.604663 0
M  V30 5179 C 485.475 -3.95699 1.63115 0
M  V30 5180 C 484.801 -5.23936 1.0675 0
M  V30 5181 C 486.101 -4.25999 3.02196 0
M  V30 5182 H 487.795 -2.27054 1.95158 0
M  V30 5183 H 485.341 -1.09111 0.939727 0
M  V30 5184 H 487.294 -4.1899 0.45002 0
M  V30 5185 H 486.018 -3.24626 -0.35855 0
M  V30 5186 H 484.677 -3.2084 1.77362 0
M  V30 5187 H 484.325 -5.02909 0.0955422 0
M  V30 5188 H 484.025 -5.60833 1.75328 0
M  V30 5189 H 485.549 -6.0356 0.924516 0
M  V30 5190 H 486.963 -4.93777 2.91303 0
M  V30 5191 H 485.36 -4.74076 3.67929 0
M  V30 5192 H 486.43 -3.33636 3.51873 0
M  V30 5193 N 487.773 -1.03688 -1.18687 0
M  V30 5194 C 488.706 -0.569112 -2.2099 0
M  V30 5195 C 489.684 0.394315 -1.57746 0
M  V30 5196 O 490.868 0.309519 -1.85941 0
M  V30 5197 C 487.995 0.169104 -3.38278 0
M  V30 5198 C 487.041 -0.746989 -4.19908 0
M  V30 5199 S 487.874 -2.22773 -4.86963 0
M  V30 5200 C 489.03 -1.50025 -6.07654 0
M  V30 5201 H 489.263 -1.43589 -2.60326 0
M  V30 5202 H 486.796 -0.847507 -1.29061 0
M  V30 5203 H 488.754 0.588868 -4.06254 0
M  V30 5204 H 487.415 1.01172 -2.9736 0
M  V30 5205 H 486.608 -0.176626 -5.0369 0
M  V30 5206 H 486.21 -1.10543 -3.5729 0
M  V30 5207 H 488.502 -0.791217 -6.72864 0
M  V30 5208 H 489.445 -2.31498 -6.69189 0
M  V30 5209 H 489.853 -0.994245 -5.55675 0
M  V30 5210 N 489.251 1.34841 -0.815825 0
M  V30 5211 C 490.161 2.33425 -0.234462 0
M  V30 5212 C 491.177 1.62295 0.627413 0
M  V30 5213 O 492.353 1.94109 0.536987 0
M  V30 5214 C 489.418 3.41471 0.599849 0
M  V30 5215 C 488.479 4.28362 -0.283596 0
M  V30 5216 C 487.712 5.31248 0.51099 0
M  V30 5217 O 487.935 5.43056 1.7449 0
M  V30 5218 O 486.869 6.01812 -0.10297 0
M  V30 5219 H 490.695 2.84962 -1.05024 0
M  V30 5220 H 488.28 1.37774 -0.577809 0
M  V30 5221 H 490.162 4.07464 1.07475 0
M  V30 5222 H 488.837 2.9219 1.39308 0
M  V30 5223 H 487.744 3.65318 -0.805836 0
M  V30 5224 H 489.077 4.81066 -1.041 0
M  V30 5225 N 490.729 0.570148 1.46925 0
M  V30 5226 C 491.677 -0.183181 2.31878 0
M  V30 5227 C 492.671 -0.896721 1.43719 0
M  V30 5228 O 493.877 -0.816536 1.60414 0
M  V30 5229 H 490.252 -0.077944 0.74795 0
M  V30 5230 H 492.223 0.552312 2.93244 0
M  V30 5231 C 490.972 -1.19172 3.2664 0
M  V30 5232 H 490.295 -0.652088 3.94446 0
M  V30 5233 H 491.735 -1.68946 3.88887 0
M  V30 5234 C 490.194 -2.24627 2.51086 0
M  V30 5235 O 490.724 -3.31773 2.26472 0
M  V30 5236 N 488.93 -1.98898 2.11867 0
M  V30 5237 H 488.477 -1.11777 2.32086 0
M  V30 5238 H 488.435 -2.6967 1.61634 0
M  V30 5239 N 492.207 -1.54576 0.307264 0
M  V30 5240 C 493.456 -1.99442 -0.300976 0
M  V30 5241 C 493.769 -1.19928 -1.5452 0
M  V30 5242 O 494.975 -1.55092 -2.22842 0
M  V30 5243 C 493.431 -3.55084 -0.586809 0
M  V30 5244 C 493.039 -4.43413 0.639438 0
M  V30 5245 C 494.783 -4.0846 -1.1559 0
M  V30 5246 C 492.69 -5.90499 0.326411 0
M  V30 5247 H 491.62 -0.744986 -0.116238 0
M  V30 5248 H 494.271 -1.787 0.416947 0
M  V30 5249 H 492.653 -3.71749 -1.36449 0
M  V30 5250 H 493.827 -4.38522 1.41545 0
M  V30 5251 H 492.142 -4.00842 1.1276 0
M  V30 5252 H 494.739 -5.15926 -1.40445 0
M  V30 5253 H 495.082 -3.59443 -2.10015 0
M  V30 5254 H 495.615 -3.95362 -0.439778 0
M  V30 5255 H 492.354 -6.43676 1.23939 0
M  V30 5256 H 491.874 -5.98382 -0.412212 0
M  V30 5257 H 493.553 -6.46962 -0.0697393 0
M  V30 5258 N 493.685 -0.035106 -1.57561 0
M  V30 5259 C 494.933 0.64096 -1.91667 0
M  V30 5260 C 495.254 1.72323 -0.912681 0
M  V30 5261 O 494.524 1.95849 0.0449089 0
M  V30 5262 H 493.104 0.239743 -0.707483 0
M  V30 5263 H 495.766 -0.084321 -1.94718 0
M  V30 5264 H 494.862 1.08987 -2.92452 0
M  V30 5265 N 495.163 1.55791 0.238111 0
M  V30 5266 C 496.126 1.90239 1.27835 0
M  V30 5267 C 497.126 0.779552 1.4064 0
M  V30 5268 O 498.316 1.04747 1.3919 0
M  V30 5269 C 495.448 2.13859 2.65475 0
M  V30 5270 H 496.641 2.83262 0.985034 0
M  V30 5271 H 494.194 1.48818 0.477799 0
M  V30 5272 H 494.929 1.23334 2.99932 0
M  V30 5273 H 494.714 2.95643 2.57561 0
M  V30 5274 H 496.204 2.41664 3.40571 0
M  V30 5275 N 496.642 -0.504142 1.49319 0
M  V30 5276 C 497.891 -1.25507 1.57895 0
M  V30 5277 C 498.204 -1.93735 0.269433 0
M  V30 5278 O 499.41 -2.70492 0.233706 0
M  V30 5279 C 497.866 -2.27869 2.78574 0
M  V30 5280 C 497.474 -1.65594 4.16272 0
M  V30 5281 C 499.218 -3.0381 2.96479 0
M  V30 5282 C 497.125 -2.66048 5.28178 0
M  V30 5283 H 496.055 -0.47212 0.587894 0
M  V30 5284 H 498.706 -0.52931 1.757 0
M  V30 5285 H 497.088 -3.03594 2.54257 0
M  V30 5286 H 498.262 -0.958826 4.50714 0
M  V30 5287 H 496.577 -1.02055 4.037 0
M  V30 5288 H 499.174 -3.78925 3.77253 0
M  V30 5289 H 499.517 -3.61235 2.06918 0
M  V30 5290 H 500.05 -2.352 3.20821 0
M  V30 5291 H 496.789 -2.13408 6.19788 0
M  V30 5292 H 496.309 -3.34009 4.98195 0
M  V30 5293 H 497.988 -3.28536 5.57381 0
M  V30 5294 N 498.12 -1.38341 -0.754957 0
M  V30 5295 C 499.052 -1.31347 -1.87831 0
M  V30 5296 C 500.065 -0.225955 -1.61224 0
M  V30 5297 O 501.254 -0.48341 -1.7183 0
M  V30 5298 C 498.354 -1.01201 -3.23437 0
M  V30 5299 C 497.527 -2.20834 -3.77559 0
M  V30 5300 C 496.586 -1.87454 -4.91678 0
M  V30 5301 O 495.612 -2.59934 -5.06382 0
M  V30 5302 N 496.814 -0.828682 -5.74555 0
M  V30 5303 H 499.579 -2.28147 -1.94342 0
M  V30 5304 H 497.14 -1.32184 -0.934828 0
M  V30 5305 H 499.132 -0.769249 -3.97322 0
M  V30 5306 H 497.702 -0.132011 -3.12321 0
M  V30 5307 H 496.922 -2.61184 -2.95256 0
M  V30 5308 H 498.21 -3.00678 -4.10451 0
M  V30 5309 H 497.608 -0.227591 -5.65242 0
M  V30 5310 H 496.165 -0.645802 -6.48593 0
M  V30 5311 N 499.598 0.982988 -1.23187 0
M  V30 5312 C 500.844 1.72648 -1.06398 0
M  V30 5313 C 501.177 1.90066 0.398561 0
M  V30 5314 O 500.452 1.45105 1.29518 0
M  V30 5315 C 500.735 3.12627 -1.78707 0
M  V30 5316 C 500.588 3.02795 -3.32618 0
M  V30 5317 C 501.907 4.11997 -1.54747 0
M  V30 5318 H 499.026 0.626649 -0.387918 0
M  V30 5319 H 501.668 1.14455 -1.51658 0
M  V30 5320 H 499.818 3.62308 -1.40234 0
M  V30 5321 H 501.49 2.60659 -3.80598 0
M  V30 5322 H 499.733 2.39362 -3.61785 0
M  V30 5323 H 500.404 4.01893 -3.78399 0
M  V30 5324 H 502.88 3.71114 -1.88186 0
M  V30 5325 H 501.756 5.08037 -2.07821 0
M  V30 5326 H 502.017 4.39462 -0.482249 0
M  V30 5327 N 501.076 1.04316 1.18135 0
M  V30 5328 C 502.006 0.657299 2.24058 0
M  V30 5329 C 502.987 -0.340678 1.66654 0
M  V30 5330 O 504.172 -0.220223 1.92947 0
M  V30 5331 C 501.302 0.0220715 3.47293 0
M  V30 5332 C 500.256 0.943857 4.17463 0
M  V30 5333 C 499.582 0.172973 5.3442 0
M  V30 5334 C 500.882 2.26409 4.70677 0
M  V30 5335 H 502.576 1.5428 2.56589 0
M  V30 5336 H 500.122 0.743263 1.23335 0
M  V30 5337 H 502.075 -0.259607 4.206 0
M  V30 5338 H 500.799 -0.898323 3.14003 0
M  V30 5339 H 499.458 1.20996 3.46057 0
M  V30 5340 H 499.106 -0.749907 4.97379 0
M  V30 5341 H 498.806 0.787098 5.82304 0
M  V30 5342 H 500.33 -0.101628 6.10515 0
M  V30 5343 H 501.744 2.04294 5.35665 0
M  V30 5344 H 500.141 2.8314 5.29105 0
M  V30 5345 H 501.211 2.90883 3.87962 0
M  V30 5346 N 502.554 -1.34406 0.822964 0
M  V30 5347 C 503.965 -1.8069 0.469879 0
M  V30 5348 C 504.316 -1.68223 -1.00972 0
M  V30 5349 O 503.441 -1.22226 -1.78577 0
M  V30 5350 C 504.036 -3.28064 0.846118 0
M  V30 5351 C 502.595 -3.72428 0.545402 0
M  V30 5352 C 501.742 -2.56116 1.06301 0
M  V30 5353 H 504.693 -1.22153 1.01313 0
M  V30 5354 H 504.714 -3.80205 0.149922 0
M  V30 5355 H 504.226 -3.37107 1.92304 0
M  V30 5356 H 502.327 -3.68924 -0.522109 0
M  V30 5357 H 502.44 -4.66548 1.0895 0
M  V30 5358 H 500.804 -2.50048 0.484554 0
M  V30 5359 H 501.587 -2.67928 2.14638 0
M  V30 5360 N 504.032 -0.577932 -1.46621 0
M  V30 5361 C 504.979 0.158048 -2.30258 0
M  V30 5362 C 505.949 0.888669 -1.40328 0
M  V30 5363 O 507.134 0.880283 -1.6928 0
M  V30 5364 C 504.274 1.16884 -3.24703 0
M  V30 5365 C 503.387 0.442163 -4.29731 0
M  V30 5366 C 502.522 1.44007 -5.11308 0
M  V30 5367 C 501.561 0.69952 -6.0809 0
M  V30 5368 N 500.698 1.64525 -6.82551 0
M  V30 5369 H 505.538 -0.561242 -2.92667 0
M  V30 5370 H 503.075 -0.288591 -1.44241 0
M  V30 5371 H 505.033 1.7677 -3.779 0
M  V30 5372 H 503.663 1.85591 -2.64113 0
M  V30 5373 H 502.715 -0.271632 -3.79429 0
M  V30 5374 H 504.027 -0.136992 -4.98612 0
M  V30 5375 H 503.181 2.11186 -5.68758 0
M  V30 5376 H 501.92 2.05315 -4.42377 0
M  V30 5377 H 500.925 0.0139217 -5.49798 0
M  V30 5378 H 502.15 0.091894 -6.79038 0
M  V30 5379 H 500.096 2.24653 -6.16334 0
M  V30 5380 H 500.013 1.11878 -7.47676 0
M  V30 5381 H 501.281 2.30754 -7.44562 0
M  V30 5382 N 505.51 1.54411 -0.315457 0
M  V30 5383 C 506.44 2.27002 0.547039 0
M  V30 5384 C 507.421 1.27492 1.12605 0
M  V30 5385 O 508.606 1.5629 1.15269 0
M  V30 5386 C 505.736 3.02171 1.71201 0
M  V30 5387 C 504.69 4.0895 1.26268 0
M  V30 5388 C 504.016 4.71915 2.51396 0
M  V30 5389 C 505.316 5.20891 0.383419 0
M  V30 5390 H 507.01 2.99343 -0.0584517 0
M  V30 5391 H 504.556 1.4397 -0.0295527 0
M  V30 5392 H 506.509 3.51681 2.32161 0
M  V30 5393 H 505.233 2.27433 2.34397 0
M  V30 5394 H 503.892 3.60312 0.676062 0
M  V30 5395 H 503.54 3.93801 3.12937 0
M  V30 5396 H 503.24 5.44039 2.22026 0
M  V30 5397 H 504.764 5.24195 3.13133 0
M  V30 5398 H 506.178 5.66206 0.899082 0
M  V30 5399 H 504.575 5.99821 0.182857 0
M  V30 5400 H 505.645 4.81324 -0.587821 0
M  V30 5401 N 506.988 0.0434614 1.5754 0
M  V30 5402 C 508.213 -0.645358 1.97104 0
M  V30 5403 C 508.638 -1.64037 0.920521 0
M  V30 5404 O 507.996 -1.80922 -0.11708 0
M  V30 5405 C 508.044 -1.31547 3.35749 0
M  V30 5406 O 507.148 -2.43103 3.33129 0
M  V30 5407 H 506.489 -0.168403 0.64229 0
M  V30 5408 H 509.019 0.109573 2.04306 0
M  V30 5409 H 509.029 -1.66895 3.72304 0
M  V30 5410 H 507.704 -0.586205 4.11748 0
M  V30 5411 H 506.281 -2.0976 3.0831 0
M  V30 5412 N 508.466 -1.55915 -0.229846 0
M  V30 5413 C 509.691 -1.8296 -0.976743 0
M  V30 5414 C 510.116 -0.622735 -1.77493 0
M  V30 5415 O 509.474 0.428431 -1.76165 0
M  V30 5416 C 509.522 -3.07916 -1.8767 0
M  V30 5417 O 508.626 -2.86028 -2.97088 0
M  V30 5418 H 507.967 -0.603453 -0.277021 0
M  V30 5419 H 510.497 -2.0312 -0.245669 0
M  V30 5420 H 510.507 -3.37802 -2.2881 0
M  V30 5421 H 509.182 -3.95389 -1.28996 0
M  V30 5422 H 507.759 -2.67355 -2.59954 0
M  V30 5423 N 509.944 0.496216 -1.49584 0
M  V30 5424 C 511.169 1.27865 -1.63295 0
M  V30 5425 C 511.594 1.85592 -0.306156 0
M  V30 5426 O 510.952 1.66092 0.726851 0
M  V30 5427 C 511 2.38128 -2.7079 0
M  V30 5428 O 510.104 3.42108 -2.30296 0
M  V30 5429 H 509.445 0.377279 -0.546403 0
M  V30 5430 H 511.975 0.593497 -1.95803 0
M  V30 5431 H 511.985 2.8382 -2.93104 0
M  V30 5432 H 510.66 1.95479 -3.67098 0
M  V30 5433 H 509.237 3.02301 -2.18331 0
M  V30 5434 N 511.423 1.38739 0.74761 0
M  V30 5435 C 512.672 1.3459 1.50228 0
M  V30 5436 C 512.985 -0.0595592 1.95509 0
M  V30 5437 O 514.191 -0.22361 2.70578 0
M  V30 5438 C 512.647 2.36377 2.71393 0
M  V30 5439 C 512.255 3.82573 2.33113 0
M  V30 5440 C 513.999 2.41281 3.49262 0
M  V30 5441 C 511.906 4.76032 3.50924 0
M  V30 5442 H 510.836 0.500312 0.564096 0
M  V30 5443 H 513.487 1.64324 0.8167 0
M  V30 5444 H 511.869 1.99694 3.41962 0
M  V30 5445 H 513.043 4.28227 1.70171 0
M  V30 5446 H 511.358 3.80844 1.68365 0
M  V30 5447 H 513.955 3.08301 4.36869 0
M  V30 5448 H 514.298 1.43353 3.9084 0
M  V30 5449 H 514.831 2.76793 2.85711 0
M  V30 5450 H 511.57 5.75177 3.14408 0
M  V30 5451 H 511.09 4.35066 4.12889 0
M  V30 5452 H 512.769 4.94331 4.17427 0
M  V30 5453 N 512.901 -0.976442 1.23707 0
M  V30 5454 C 514.15 -1.71254 1.06559 0
M  V30 5455 C 514.463 -1.91528 -0.397024 0
M  V30 5456 O 515.669 -2.62625 -0.688518 0
M  V30 5457 C 514.125 -3.08207 1.8584 0
M  V30 5458 C 513.733 -2.95806 3.36456 0
M  V30 5459 C 515.477 -3.85749 1.77194 0
M  V30 5460 C 513.384 -4.28015 4.08114 0
M  V30 5461 H 512.314 -0.642171 0.395136 0
M  V30 5462 H 514.965 -1.08877 1.4771 0
M  V30 5463 H 513.347 -3.71363 1.37498 0
M  V30 5464 H 514.521 -2.41716 3.92314 0
M  V30 5465 H 512.836 -2.31736 3.45959 0
M  V30 5466 H 515.433 -4.83633 2.28041 0
M  V30 5467 H 515.776 -4.09752 0.735477 0
M  V30 5468 H 516.309 -3.29303 2.23169 0
M  V30 5469 H 513.048 -4.09208 5.12083 0
M  V30 5470 H 512.568 -4.81955 3.57043 0
M  V30 5471 H 514.247 -4.96681 4.14629 0
M  V30 5472 N 514.379 -1.04941 -1.1758 0
M  V30 5473 C 515.329 -0.618378 -2.19454 0
M  V30 5474 C 516.313 0.343813 -1.57184 0
M  V30 5475 O 517.505 0.16145 -1.76262 0
M  V30 5476 C 514.634 0.00803847 -3.43299 0
M  V30 5477 C 513.72 -0.977827 -4.12673 0
M  V30 5478 N 514.111 -2.14826 -4.57912 0
M  V30 5479 C 512.409 -0.805748 -4.38661 0
M  V30 5480 C 513.11 -2.77174 -5.11419 0
M  V30 5481 N 512.086 -2.04989 -5.03468 0
M  V30 5482 H 515.888 -1.51018 -2.52132 0
M  V30 5483 H 513.402 -0.919201 -1.33882 0
M  V30 5484 H 515.399 0.334584 -4.15555 0
M  V30 5485 H 514.059 0.895272 -3.12114 0
M  V30 5486 H 515.07 -2.52673 -4.52081 0
M  V30 5487 H 511.747 0.0306506 -4.17489 0
M  V30 5488 H 513.137 -3.76416 -5.56562 0
M  V30 5489 N 515.857 1.33968 -0.830081 0
M  V30 5490 C 516.767 2.33164 -0.259207 0
M  V30 5491 C 517.783 1.62951 0.610164 0
M  V30 5492 O 518.959 1.94668 0.516369 0
M  V30 5493 C 516.024 3.42088 0.563598 0
M  V30 5494 C 515.085 4.28037 -0.329014 0
M  V30 5495 C 514.318 5.3176 0.454616 0
M  V30 5496 O 514.541 5.44876 1.6872 0
M  V30 5497 O 513.475 6.01669 -0.166794 0
M  V30 5498 H 517.301 2.83832 -1.08041 0
M  V30 5499 H 514.886 1.37154 -0.59239 0
M  V30 5500 H 516.768 4.08581 1.03147 0
M  V30 5501 H 515.443 2.93651 1.36201 0
M  V30 5502 H 514.35 3.64443 -0.844538 0
M  V30 5503 H 515.683 4.79934 -1.09196 0
M  V30 5504 N 517.335 0.585699 1.46312 0
M  V30 5505 C 518.584 0.0701192 2.01578 0
M  V30 5506 C 518.897 -1.29889 1.46247 0
M  V30 5507 O 520.103 -1.90598 1.93351 0
M  V30 5508 C 518.559 0.0747499 3.59822 0
M  V30 5509 C 518.167 1.44226 4.24149 0
M  V30 5510 C 519.911 -0.38673 4.22735 0
M  V30 5511 C 517.818 1.40446 5.74481 0
M  V30 5512 H 516.748 0.0224441 0.753666 0
M  V30 5513 H 519.399 0.737789 1.68015 0
M  V30 5514 H 517.781 -0.659144 3.90476 0
M  V30 5515 H 518.955 2.19612 4.05101 0
M  V30 5516 H 517.27 1.84401 3.73343 0
M  V30 5517 H 519.867 -0.433853 5.32937 0
M  V30 5518 H 520.21 -1.40489 3.91878 0
M  V30 5519 H 520.743 0.293195 3.96718 0
M  V30 5520 H 517.482 2.39952 6.10003 0
M  V30 5521 H 517.002 0.692845 5.95785 0
M  V30 5522 H 518.681 1.11865 6.37256 0
M  V30 5523 N 518.813 -1.54241 0.323641 0
M  V30 5524 C 520.09 -1.92741 -0.333181 0
M  V30 5525 C 520.47 -1.25326 -1.69872 0
M  V30 5526 O 519.818 -0.396991 -2.25025 0
M  V30 5527 C 520.028 -3.46399 -0.425322 0
M  V30 5528 C 521.376 -4.19029 -0.68557 0
M  V30 5529 O 522.4 -3.52555 -0.50824 0
M  V30 5530 O 521.259 -5.36751 -1.02767 0
M  V30 5531 H 518.353 -0.804811 -0.190286 0
M  V30 5532 H 520.899 -1.65542 0.373361 0
M  V30 5533 H 519.671 -3.87643 0.533737 0
M  V30 5534 H 519.294 -3.79704 -1.17944 0
M  V30 5535 N 520.291 -0.0518155 -1.57515 0
M  V30 5536 C 521.516 0.634896 -1.97443 0
M  V30 5537 C 521.941 1.63546 -0.929207 0
M  V30 5538 O 521.299 1.80981 0.107484 0
M  V30 5539 C 521.347 1.29765 -3.36442 0
M  V30 5540 O 520.451 2.41333 -3.34413 0
M  V30 5541 H 519.792 0.164994 -0.643174 0
M  V30 5542 H 522.322 -0.120407 -2.04245 0
M  V30 5543 H 522.332 1.64918 -3.73184 0
M  V30 5544 H 521.007 0.564361 -4.12053 0
M  V30 5545 H 519.584 2.08122 -3.09418 0
M  V30 5546 N 521.769 1.56035 0.221574 0
M  V30 5547 C 523.018 1.78245 0.944016 0
M  V30 5548 C 523.331 0.620371 1.85501 0
M  V30 5549 O 524.537 0.726103 2.6161 0
M  V30 5550 C 522.993 3.15659 1.7288 0
M  V30 5551 C 522.601 4.39591 0.863942 0
M  V30 5552 C 524.345 3.47195 2.44246 0
M  V30 5553 C 522.252 5.6803 1.64607 0
M  V30 5554 H 521.182 0.664547 0.356222 0
M  V30 5555 H 523.833 1.8243 0.197904 0
M  V30 5556 H 522.215 3.0565 2.51781 0
M  V30 5557 H 523.389 4.60655 0.115464 0
M  V30 5558 H 521.704 4.15572 0.262407 0
M  V30 5559 H 524.301 4.40381 3.03263 0
M  V30 5560 H 524.644 2.69693 3.1713 0
M  V30 5561 H 525.177 3.58533 1.72334 0
M  V30 5562 H 521.916 6.48425 0.960507 0
M  V30 5563 H 521.436 5.51027 2.36917 0
M  V30 5564 H 523.115 6.08203 2.20675 0
M  V30 5565 N 523.247 -0.488276 1.49845 0
M  V30 5566 C 524.177 -1.59675 1.70371 0
M  V30 5567 C 525.158 -1.60878 0.552473 0
M  V30 5568 O 526.343 -1.77417 0.78973 0
M  V30 5569 C 523.473 -2.98098 1.782 0
M  V30 5570 C 522.427 -3.11761 2.93239 0
M  V30 5571 C 521.753 -4.51661 2.86193 0
M  V30 5572 C 523.053 -2.90589 4.33999 0
M  V30 5573 H 524.747 -1.42752 2.63177 0
M  V30 5574 H 522.293 -0.685317 1.26647 0
M  V30 5575 H 524.246 -3.75555 1.91144 0
M  V30 5576 H 522.97 -3.16138 0.820018 0
M  V30 5577 H 521.629 -2.36732 2.79917 0
M  V30 5578 H 521.277 -4.66595 1.87877 0
M  V30 5579 H 520.977 -4.61742 3.63412 0
M  V30 5580 H 522.501 -5.31162 3.01163 0
M  V30 5581 H 523.915 -3.57807 4.47936 0
M  V30 5582 H 522.312 -3.1213 5.12538 0
M  V30 5583 H 523.382 -1.86595 4.4756 0
M  V30 5584 N 524.725 -1.39134 -0.740242 0
M  V30 5585 C 525.973 -1.35803 -1.49673 0
M  V30 5586 C 526.294 0.0470897 -1.94943 0
M  V30 5587 O 525.564 0.997347 -1.68611 0
M  V30 5588 H 524.144 -0.499736 -0.555224 0
M  V30 5589 H 526.806 -1.73947 -0.879107 0
M  V30 5590 H 525.902 -2.0174 -2.38133 0
M  V30 5591 N 526.204 0.969867 -1.24223 0
M  V30 5592 C 527.152 2.08535 -1.03034 0
M  V30 5593 C 528.146 1.69366 0.0340379 0
M  V30 5594 O 529.352 1.79597 -0.12034 0
M  V30 5595 H 525.727 0.682313 -0.316154 0
M  V30 5596 H 527.698 2.23569 -1.97635 0
M  V30 5597 C 526.447 3.4158 -0.649509 0
M  V30 5598 H 525.77 3.72177 -1.46028 0
M  V30 5599 H 527.21 4.20536 -0.540841 0
M  V30 5600 C 525.669 3.30703 0.643194 0
M  V30 5601 O 526.199 3.64443 1.68951 0
M  V30 5602 N 524.405 2.83841 0.623095 0
M  V30 5603 H 523.952 2.56583 -0.228719 0
M  V30 5604 H 523.91 2.76946 1.48823 0
M  V30 5605 N 527.682 1.05563 1.17022 0
M  V30 5606 C 528.629 0.659893 2.21165 0
M  V30 5607 C 529.599 -0.339813 1.62587 0
M  V30 5608 O 530.784 -0.230378 1.89404 0
M  V30 5609 C 527.924 0.0447297 3.45071 0
M  V30 5610 C 527.037 1.09372 4.17926 0
M  V30 5611 C 526.172 0.445481 5.29329 0
M  V30 5612 C 525.211 1.47852 5.93975 0
M  V30 5613 N 524.348 0.854172 6.96885 0
M  V30 5614 H 529.188 1.55243 2.54369 0
M  V30 5615 H 526.725 0.776336 1.24946 0
M  V30 5616 H 528.683 -0.329404 4.15898 0
M  V30 5617 H 527.313 -0.811244 3.1244 0
M  V30 5618 H 526.365 1.58564 3.45777 0
M  V30 5619 H 527.677 1.87773 4.62107 0
M  V30 5620 H 526.831 0.0179688 6.06697 0
M  V30 5621 H 525.57 -0.370481 4.86291 0
M  V30 5622 H 524.575 1.91601 5.15334 0
M  V30 5623 H 525.8 2.29645 6.39093 0
M  V30 5624 H 523.746 0.0587882 6.55974 0
M  V30 5625 H 523.663 1.57567 7.39397 0
M  V30 5626 H 524.931 0.451559 7.78191 0
M  V30 5627 N 529.16 -1.33526 0.837174 0
M  V30 5628 C 530.571 -1.80182 0.489017 0
M  V30 5629 C 530.922 -1.69285 -0.991826 0
M  V30 5630 O 530.047 -1.24113 -1.77271 0
M  V30 5631 C 530.642 -3.27149 0.880866 0
M  V30 5632 C 529.201 -3.71828 0.584872 0
M  V30 5633 C 528.348 -2.54974 1.09011 0
M  V30 5634 H 531.299 -1.21071 1.02603 0
M  V30 5635 H 531.32 -3.80024 0.190239 0
M  V30 5636 H 530.832 -3.35048 1.95869 0
M  V30 5637 H 528.933 -3.69457 -0.48295 0
M  V30 5638 H 529.046 -4.65366 1.13892 0
M  V30 5639 H 527.41 -2.4952 0.511047 0
M  V30 5640 H 528.193 -2.65637 2.17467 0
M  V30 5641 N 530.638 -0.59345 -1.46 0
M  V30 5642 C 531.868 -0.0889642 -2.06408 0
M  V30 5643 C 532.276 1.22597 -1.44106 0
M  V30 5644 O 531.619 1.75448 -0.544398 0
M  V30 5645 C 531.681 0.139902 -3.59228 0
M  V30 5646 C 531.345 -1.09107 -4.43784 0
M  V30 5647 C 532.342 -2.00577 -4.79651 0
M  V30 5648 C 530.027 -1.31593 -4.84756 0
M  V30 5649 C 532.021 -3.12873 -5.55328 0
M  V30 5650 C 529.708 -2.44192 -5.60191 0
M  V30 5651 C 530.706 -3.34661 -5.95392 0
M  V30 5652 O 530.394 -4.45302 -6.69299 0
M  V30 5653 H 530.126 -0.0594613 -0.67338 0
M  V30 5654 H 532.68 -0.817 -1.88452 0
M  V30 5655 H 530.91 0.922672 -3.75531 0
M  V30 5656 H 532.599 0.594228 -4.01527 0
M  V30 5657 H 533.365 -1.84425 -4.48567 0
M  V30 5658 H 529.244 -0.620801 -4.56801 0
M  V30 5659 H 532.788 -3.83511 -5.82722 0
M  V30 5660 H 528.685 -2.60303 -5.90688 0
M  V30 5661 H 529.453 -4.43805 -6.87735 0
M  V30 5662 N 532.116 1.54067 -0.331816 0
M  V30 5663 C 533.341 2.05599 0.272705 0
M  V30 5664 C 533.766 1.2059 1.44359 0
M  V30 5665 O 533.124 0.216907 1.79998 0
M  V30 5666 C 533.172 3.54188 0.677021 0
M  V30 5667 O 532.276 3.72082 1.77844 0
M  V30 5668 H 531.617 0.662286 0.0476801 0
M  V30 5669 H 534.147 1.98826 -0.482624 0
M  V30 5670 H 534.157 3.96608 0.957415 0
M  V30 5671 H 532.832 4.15513 -0.179325 0
M  V30 5672 H 531.409 3.41566 1.49622 0
M  V30 5673 N 533.594 0.0601682 1.57485 0
M  V30 5674 C 534.541 -0.91112 2.12055 0
M  V30 5675 C 535.511 -1.30298 1.03013 0
M  V30 5676 O 536.696 -1.39087 1.30612 0
M  V30 5677 C 533.836 -2.1775 2.67729 0
M  V30 5678 C 532.949 -1.83933 3.90887 0
M  V30 5679 C 532.084 -3.05096 4.34845 0
M  V30 5680 C 531.123 -2.67241 5.5068 0
M  V30 5681 N 530.26 -3.81127 5.8965 0
M  V30 5682 H 535.1 -0.43888 2.9475 0
M  V30 5683 H 532.637 -0.204995 1.45665 0
M  V30 5684 H 534.595 -2.91866 2.98111 0
M  V30 5685 H 533.225 -2.62535 1.87816 0
M  V30 5686 H 532.277 -0.999287 3.6704 0
M  V30 5687 H 533.589 -1.52074 4.75052 0
M  V30 5688 H 532.743 -3.87502 4.66827 0
M  V30 5689 H 531.482 -3.40139 3.49509 0
M  V30 5690 H 530.487 -1.83254 5.18361 0
M  V30 5691 H 531.712 -2.3338 6.37738 0
M  V30 5692 H 529.658 -4.15954 5.07266 0
M  V30 5693 H 529.575 -3.52997 6.68528 0
M  V30 5694 H 530.843 -4.64145 6.2625 0
M  V30 5695 N 535.072 -1.5615 -0.213296 0
M  V30 5696 C 536.019 -1.93086 -1.26437 0
M  V30 5697 C 536.989 -0.789086 -1.4616 0
M  V30 5698 O 538.174 -1.04569 -1.59593 0
M  V30 5699 C 535.314 -2.26003 -2.608 0
M  V30 5700 C 534.427 -3.53156 -2.48807 0
M  V30 5701 C 533.562 -3.7548 -3.7575 0
M  V30 5702 C 532.601 -4.96119 -3.58514 0
M  V30 5703 N 531.738 -5.14791 -4.77425 0
M  V30 5704 H 536.578 -2.82707 -0.942376 0
M  V30 5705 H 534.115 -1.39919 -0.454001 0
M  V30 5706 H 536.073 -2.431 -3.39055 0
M  V30 5707 H 534.703 -1.39546 -2.91079 0
M  V30 5708 H 533.755 -3.44207 -1.61944 0
M  V30 5709 H 535.067 -4.41565 -2.31996 0
M  V30 5710 H 534.221 -3.92718 -4.62447 0
M  V30 5711 H 532.96 -2.85368 -3.95495 0
M  V30 5712 H 531.965 -4.78823 -2.70201 0
M  V30 5713 H 533.19 -5.87724 -3.40231 0
M  V30 5714 H 531.136 -4.27623 -4.97468 0
M  V30 5715 H 531.053 -5.97347 -4.63371 0
M  V30 5716 H 532.321 -5.36471 -5.65525 0
M  V30 5717 N 536.55 0.480323 -1.50102 0
M  V30 5718 C 537.827 1.24159 -1.51142 0
M  V30 5719 C 538.207 2.09605 -0.250818 0
M  V30 5720 O 537.555 2.15274 0.766118 0
M  V30 5721 C 537.765 2.08057 -2.80202 0
M  V30 5722 C 539.113 2.66556 -3.30504 0
M  V30 5723 O 540.137 2.18308 -2.81461 0
M  V30 5724 O 538.996 3.54442 -4.15973 0
M  V30 5725 H 536.09 0.562928 -0.605839 0
M  V30 5726 H 538.636 0.492899 -1.62384 0
M  V30 5727 H 537.408 1.45032 -3.6343 0
M  V30 5728 H 537.031 2.90079 -2.71919 0
M  V30 5729 N 538.028 1.39524 0.732853 0
M  V30 5730 C 539.258 1.3994 1.51988 0
M  V30 5731 C 539.666 -0.00727973 1.89199 0
M  V30 5732 O 539.009 -0.989521 1.54771 0
M  V30 5733 C 539.071 2.21026 2.83527 0
M  V30 5734 C 538.735 3.69633 2.68738 0
M  V30 5735 C 539.732 4.62665 2.37143 0
M  V30 5736 C 537.417 4.13244 2.85542 0
M  V30 5737 C 539.411 5.97291 2.22536 0
M  V30 5738 C 537.098 5.47945 2.70554 0
M  V30 5739 C 538.096 6.39783 2.39097 0
M  V30 5740 O 537.784 7.72002 2.24204 0
M  V30 5741 H 537.516 0.479795 0.476206 0
M  V30 5742 H 540.07 1.8399 0.913054 0
M  V30 5743 H 538.3 1.71728 3.46477 0
M  V30 5744 H 539.989 2.13594 3.45156 0
M  V30 5745 H 540.755 4.30272 2.2381 0
M  V30 5746 H 536.634 3.42094 3.09019 0
M  V30 5747 H 540.178 6.68939 1.97905 0
M  V30 5748 H 536.075 5.79928 2.83466 0
M  V30 5749 H 536.843 7.8275 2.39258 0
M  V30 5750 N 539.506 -0.963266 1.24736 0
M  V30 5751 C 540.922 -1.23273 1.01371 0
M  V30 5752 C 541.122 -1.99618 -0.274776 0
M  V30 5753 O 540.178 -2.32293 -0.989769 0
M  V30 5754 C 541.491 -2.01554 2.23152 0
M  V30 5755 C 543.039 -2.14629 2.27823 0
M  V30 5756 C 543.514 -2.96307 3.49237 0
M  V30 5757 N 545.005 -3.03887 3.49581 0
M  V30 5758 C 545.74 -3.67456 4.40186 0
M  V30 5759 N 545.236 -4.32706 5.41052 0
M  V30 5760 N 547.029 -3.64511 4.27888 0
M  V30 5761 H 539.18 -0.452294 2.07528 0
M  V30 5762 H 541.443 -0.262521 0.910926 0
M  V30 5763 H 541.149 -1.52847 3.1675 0
M  V30 5764 H 541.023 -3.02278 2.25628 0
M  V30 5765 H 543.41 -2.62537 1.34753 0
M  V30 5766 H 543.491 -1.13238 2.2937 0
M  V30 5767 H 543.135 -2.49091 4.42624 0
M  V30 5768 H 543.065 -3.97905 3.44933 0
M  V30 5769 H 545.556 -2.57477 2.76611 0
M  V30 5770 H 545.869 -4.79042 6.06415 0
M  V30 5771 H 544.214 -4.31361 5.44934 0
M  V30 5772 H 547.405 -3.12715 3.4832 0
M  V30 5773 H 547.578 -4.13768 4.98698 0
M  V30 5774 N 540.985 -1.06182 -1.16461 0
M  V30 5775 C 542.21 -0.798599 -1.91408 0
M  V30 5776 C 542.635 0.640987 -1.76842 0
M  V30 5777 O 541.993 1.44652 -1.09296 0
M  V30 5778 C 542.041 -1.19665 -3.40165 0
M  V30 5779 O 541.145 -0.334768 -4.11039 0
M  V30 5780 H 540.486 -0.291961 -0.596368 0
M  V30 5781 H 543.016 -1.41732 -1.47557 0
M  V30 5782 H 543.026 -1.16772 -3.90933 0
M  V30 5783 H 541.701 -2.24526 -3.50087 0
M  V30 5784 H 540.278 -0.425168 -3.70468 0
M  V30 5785 O 542.502 1.28464 -0.97874 0
M  V30 5786 H 543.193 1.83432 -0.622284 0
M  V30 END ATOM
M  V30 BEGIN BOND
M  V30 END BOND
M  V30 END CTAB
M  END
$$$$
