drugbank_target|P43133 Thermolysin (DB01786; DB01935; DB02517; DB02597; DB02655; DB02669; DB03308; DB03700; DB03949; DB04569)
 OpenBabel12092119523D

  0  0  0     0  0            999 V3000
M  V30 BEGIN CTAB
M  V30 COUNTS 8432 8529 0 0 0
M  V30 BEGIN ATOM
M  V30 1 H -0.908 1.98254 -0.117106 0
M  V30 2 N 0 1.576 0 0
M  V30 3 C 0.933 2.03868 1.02534 0
M  V30 4 C 1.911 0.928543 1.3348 0
M  V30 5 O 3.095 1.19667 1.45644 0
M  V30 6 C 0.222 2.43627 2.35294 0
M  V30 7 C -0.732 3.65373 2.2001 0
M  V30 8 S 0.101 5.13292 1.52614 0
M  V30 9 C 1.257 5.56322 2.86805 0
M  V30 10 H 1.49 2.90518 0.631377 0
M  V30 11 H -0.977 1.52953 0.210867 0
M  V30 12 H 0.981 2.67203 3.11629 0
M  V30 13 H -0.358 1.57376 2.7183 0
M  V30 14 H -1.165 3.90944 3.18086 0
M  V30 15 H -1.563 3.418 1.51819 0
M  V30 16 H 0.729 5.58782 3.83104 0
M  V30 17 H 1.672 6.56266 2.65933 0
M  V30 18 H 2.08 4.83886 2.90714 0
M  V30 19 N 1.4781 -0.272755 1.55222 0
M  V30 20 C 2.4251 -1.33716 1.88119 0
M  V30 21 C 3.3951 -1.49066 0.73271 0
M  V30 22 O 4.5801 -1.63469 0.984002 0
M  V30 23 C 1.7201 -2.69238 2.15882 0
M  V30 24 C 0.8331 -2.62108 3.43399 0
M  V30 25 C -0.0319 -3.89811 3.60861 0
M  V30 26 C -0.9929 -3.77193 4.8207 0
M  V30 27 N -1.8559 -4.9673 4.96189 0
M  V30 28 H 2.9841 -1.04962 2.78903 0
M  V30 29 H 0.5211 -0.507088 1.38083 0
M  V30 30 H 2.4791 -3.48089 2.29978 0
M  V30 31 H 1.1091 -2.96194 1.28331 0
M  V30 32 H 0.1611 -1.74967 3.37773 0
M  V30 33 H 1.4731 -2.48685 4.32386 0
M  V30 34 H 0.6271 -4.77103 3.74777 0
M  V30 35 H -0.6339 -4.06102 2.7006 0
M  V30 36 H -1.6289 -2.88284 4.68159 0
M  V30 37 H -0.4039 -3.62421 5.74307 0
M  V30 38 H -2.4579 -5.13431 4.08319 0
M  V30 39 H -2.5409 -4.85839 5.79221 0
M  V30 40 H -1.2729 -5.85594 5.1449 0
M  V30 41 N 2.9562 -1.48159 -0.537278 0
M  V30 42 C 4.3722 -1.34118 -0.865129 0
M  V30 43 C 4.5722 -0.346678 -1.98495 0
M  V30 44 O 3.6282 0.234715 -2.51407 0
M  V30 45 C 4.9412 -2.73963 -1.23954 0
M  V30 46 C 6.4892 -2.82397 -1.34984 0
M  V30 47 C 6.9642 -4.22928 -1.75772 0
M  V30 48 N 8.4552 -4.25566 -1.82887 0
M  V30 49 C 9.1902 -5.31235 -2.15817 0
M  V30 50 N 8.6862 -6.47189 -2.47222 0
M  V30 51 N 10.4792 -5.18624 -2.16761 0
M  V30 52 H 2.6302 -2.1144 0.201715 0
M  V30 53 H 4.8932 -0.947598 0.0275949 0
M  V30 54 H 4.5992 -3.48264 -0.490381 0
M  V30 55 H 4.4732 -3.0702 -2.19132 0
M  V30 56 H 6.8602 -2.08356 -2.08978 0
M  V30 57 H 6.9412 -2.5297 -0.379448 0
M  V30 58 H 6.5852 -4.97482 -1.02341 0
M  V30 59 H 6.5152 -4.49794 -2.73848 0
M  V30 60 H 9.0062 -3.41924 -1.60924 0
M  V30 61 H 9.3192 -7.23564 -2.71433 0
M  V30 62 H 7.6642 -6.50476 -2.44757 0
M  V30 63 H 10.8552 -4.27056 -1.91679 0
M  V30 64 H 11.0282 -6.01078 -2.42093 0
M  V30 65 N 4.4343 0.785586 -1.36625 0
M  V30 66 C 5.3813 1.89838 -1.31264 0
M  V30 67 C 6.3513 1.65115 -0.180633 0
M  V30 68 O 7.5363 1.87222 -0.36777 0
M  V30 69 C 4.6763 3.26706 -1.11163 0
M  V30 70 C 3.7893 3.63476 -2.33472 0
M  V30 71 C 2.9243 4.89481 -2.06353 0
M  V30 72 C 1.9633 5.18941 -3.24602 0
M  V30 73 N 1.1003 6.36131 -2.97123 0
M  V30 74 H 5.9403 1.93756 -2.26413 0
M  V30 75 H 3.4773 0.947454 -1.12524 0
M  V30 76 H 5.4353 4.05639 -0.975337 0
M  V30 77 H 4.0653 3.222 -0.196674 0
M  V30 78 H 3.1173 2.79636 -2.57891 0
M  V30 79 H 4.4293 3.81193 -3.21704 0
M  V30 80 H 3.5833 5.76288 -1.89675 0
M  V30 81 H 2.3223 4.73841 -1.15437 0
M  V30 82 H 1.3273 4.30615 -3.41834 0
M  V30 83 H 2.5523 5.36498 -4.16349 0
M  V30 84 H 0.4983 6.21875 -2.08823 0
M  V30 85 H 0.4153 6.54198 -3.78894 0
M  V30 86 H 1.6833 7.2591 -2.84033 0
M  V30 87 N 5.9124 1.20967 1.01018 0
M  V30 88 C 6.8454 0.907578 2.09376 0
M  V30 89 C 7.8234 -0.142868 1.61971 0
M  V30 90 O 9.0074 -0.0150391 1.88494 0
M  V30 91 C 6.1344 0.361791 3.36762 0
M  V30 92 C 5.1804 1.39423 4.03068 0
M  V30 93 S 6.0134 2.96159 4.4615 0
M  V30 94 C 7.1694 2.43173 5.7673 0
M  V30 95 H 7.4024 1.82519 2.34678 0
M  V30 96 H 4.9354 1.03884 1.14225 0
M  V30 97 H 6.8934 0.0534523 4.10465 0
M  V30 98 H 5.5544 -0.53443 3.0952 0
M  V30 99 H 4.7474 0.961853 4.94737 0
M  V30 100 H 4.3494 1.65038 3.35617 0
M  V30 101 H 6.6414 1.83335 6.52223 0
M  V30 102 H 7.5844 3.33264 6.24773 0
M  V30 103 H 7.9924 1.85069 5.33301 0
M  V30 104 N 7.3905 -1.2043 1.01659 0
M  V30 105 C 8.3375 -2.23215 0.586822 0
M  V30 106 C 9.3075 -1.61382 -0.393085 0
M  V30 107 O 10.4925 -1.88544 -0.292525 0
M  V30 108 C 7.6325 -3.45032 -0.0687464 0
M  V30 109 C 6.7455 -4.21296 0.955724 0
M  V30 110 C 5.8805 -5.30507 0.271208 0
M  V30 111 C 4.9195 -5.98515 1.28244 0
M  V30 112 N 4.0565 -6.99316 0.62459 0
M  V30 113 H 8.8965 -2.59336 1.46796 0
M  V30 114 H 6.4335 -1.27431 0.734836 0
M  V30 115 H 8.3915 -4.1459 -0.465965 0
M  V30 116 H 7.0215 -3.09604 -0.913529 0
M  V30 117 H 6.0735 -3.50803 1.4711 0
M  V30 118 H 7.3855 -4.6803 1.72479 0
M  V30 119 H 6.5395 -6.06428 -0.18151 0
M  V30 120 H 5.2785 -4.8481 -0.530163 0
M  V30 121 H 4.2835 -5.21355 1.74554 0
M  V30 122 H 5.5085 -6.46298 2.08509 0
M  V30 123 H 3.4545 -6.55812 -0.156914 0
M  V30 124 H 3.3715 -7.44178 1.33172 0
M  V30 125 H 4.6395 -7.79255 0.195462 0
M  V30 126 N 8.8686 -0.792821 -1.36206 0
M  V30 127 C 9.8016 -0.139422 -2.27774 0
M  V30 128 C 10.7796 0.68649 -1.47398 0
M  V30 129 O 11.9636 0.656738 -1.7669 0
M  V30 130 C 9.0906 0.807947 -3.28922 0
M  V30 131 C 8.1366 0.0633999 -4.26453 0
M  V30 132 S 8.9696 -1.26319 -5.20388 0
M  V30 133 C 10.1256 -0.31991 -6.25082 0
M  V30 134 H 10.3586 -0.915809 -2.82843 0
M  V30 135 H 7.8916 -0.587203 -1.42798 0
M  V30 136 H 9.8496 1.34908 -3.87699 0
M  V30 137 H 8.5106 1.55761 -2.72759 0
M  V30 138 H 7.7036 0.782386 -4.9789 0
M  V30 139 H 7.3056 -0.407352 -3.71775 0
M  V30 140 H 9.5976 0.499985 -6.75653 0
M  V30 141 H 10.5406 -1.00307 -7.00959 0
M  V30 142 H 10.9486 0.0782694 -5.64446 0
M  V30 143 N 10.3467 1.47872 -0.545128 0
M  V30 144 C 11.2937 2.29849 0.2093 0
M  V30 145 C 12.2637 1.38313 0.919707 0
M  V30 146 O 13.4487 1.67277 0.917772 0
M  V30 147 C 10.5887 3.22019 1.24088 0
M  V30 148 C 9.7017 4.2864 0.537778 0
M  V30 149 C 8.8367 5.07973 1.5536 0
M  V30 150 C 7.8757 6.06381 0.8348 0
M  V30 151 N 7.0127 6.78717 1.79688 0
M  V30 152 H 11.8527 2.93845 -0.49591 0
M  V30 153 H 9.3897 1.44848 -0.256389 0
M  V30 154 H 11.3477 3.73868 1.85144 0
M  V30 155 H 9.9777 2.59914 1.91428 0
M  V30 156 H 9.0297 3.7994 -0.187046 0
M  V30 157 H 10.3417 4.98793 -0.0258907 0
M  V30 158 H 9.4957 5.63912 2.23803 0
M  V30 159 H 8.2347 4.37693 2.15118 0
M  V30 160 H 7.2397 5.49631 0.136388 0
M  V30 161 H 8.4647 6.78665 0.24313 0
M  V30 162 H 6.4107 6.11177 2.38326 0
M  V30 163 H 6.3277 7.44998 1.28505 0
M  V30 164 H 7.5957 7.39237 2.47282 0
M  V30 165 N 11.8248 0.280983 1.55075 0
M  V30 166 C 12.7548 -0.597469 2.25727 0
M  V30 167 C 13.7358 -1.15417 1.24952 0
M  V30 168 O 14.9208 -1.18722 1.53684 0
M  V30 169 C 12.0508 -1.7789 2.98283 0
M  V30 170 C 11.0048 -1.35347 4.06036 0
M  V30 171 C 10.3308 -2.61846 4.66198 0
M  V30 172 C 11.6308 -0.499354 5.19907 0
M  V30 173 H 13.3248 -0.00824265 2.99399 0
M  V30 174 H 10.8708 -0.0025244 1.44 0
M  V30 175 H 12.8238 -2.39937 3.46422 0
M  V30 176 H 11.5478 -2.39405 2.22155 0
M  V30 177 H 10.2068 -0.756156 3.58717 0
M  V30 178 H 9.8548 -3.21632 3.86732 0
M  V30 179 H 9.5548 -2.3409 5.38958 0
M  V30 180 H 11.0788 -3.24732 5.1709 0
M  V30 181 H 12.4928 -1.02498 5.64063 0
M  V30 182 H 10.8898 -0.316424 5.99265 0
M  V30 183 H 11.9598 0.480459 4.82514 0
M  V30 184 N 13.3029 -1.57598 0.00835791 0
M  V30 185 C 14.5489 -1.91211 -0.675732 0
M  V30 186 C 14.8819 -0.883139 -1.72958 0
M  V30 187 O 14.1569 0.097016 -1.94258 0
M  V30 188 C 14.4399 -3.35379 -1.31123 0
M  V30 189 C 14.2929 -4.48999 -0.268356 0
M  V30 190 C 15.6119 -3.7912 -2.23508 0
M  V30 191 H 12.7309 -0.695374 -0.244179 0
M  V30 192 H 15.3729 -1.89901 0.0613655 0
M  V30 193 H 13.5229 -3.36626 -1.93946 0
M  V30 194 H 15.1949 -4.59887 0.360844 0
M  V30 195 H 13.4379 -4.31873 0.408482 0
M  V30 196 H 14.1089 -5.46851 -0.752218 0
M  V30 197 H 16.5849 -3.79477 -1.70693 0
M  V30 198 H 15.4609 -4.80729 -2.64936 0
M  V30 199 H 15.7219 -3.13455 -3.11766 0
M  V30 200 N 14.781 0.264519 -1.55364 0
M  V30 201 C 16.197 0.61215 -1.47394 0
M  V30 202 C 16.397 1.89134 -0.695018 0
M  V30 203 O 15.453 2.51563 -0.217275 0
M  V30 204 C 16.766 0.731235 -2.91674 0
M  V30 205 C 18.314 0.82473 -3.01939 0
M  V30 206 C 18.789 0.975522 -4.4749 0
M  V30 207 N 20.28 1.04083 -4.51354 0
M  V30 208 C 21.015 1.17646 -5.61201 0
M  V30 209 N 20.511 1.27874 -6.80896 0
M  V30 210 N 22.304 1.20823 -5.48961 0
M  V30 211 H 14.455 -0.575456 -2.04456 0
M  V30 212 H 16.718 -0.196099 -0.927496 0
M  V30 213 H 16.424 -0.138392 -3.51428 0
M  V30 214 H 16.298 1.60883 -3.41169 0
M  V30 215 H 18.685 1.68482 -2.42276 0
M  V30 216 H 18.766 -0.0776479 -2.55682 0
M  V30 217 H 18.41 0.120058 -5.07758 0
M  V30 218 H 18.34 1.89268 -4.91412 0
M  V30 219 H 20.831 0.973846 -3.65136 0
M  V30 220 H 21.144 1.38081 -7.60364 0
M  V30 221 H 19.489 1.24863 -6.83692 0
M  V30 222 H 22.68 1.12469 -4.54388 0
M  V30 223 H 22.853 1.31049 -6.3461 0
M  V30 224 N 16.2591 1.48442 0.529413 0
M  V30 225 C 17.5061 1.56488 1.28521 0
M  V30 226 C 17.8341 0.239042 1.93025 0
M  V30 227 O 17.0891 -0.770713 1.79885 0
M  V30 228 C 17.3881 2.6523 2.39558 0
M  V30 229 C 17.0541 4.07648 1.92702 0
M  V30 230 C 15.7161 4.46411 1.79641 0
M  V30 231 C 18.0681 4.96896 1.573 0
M  V30 232 C 15.3961 5.72226 1.29514 0
M  V30 233 C 17.7481 6.23202 1.08636 0
M  V30 234 C 16.4121 6.60821 0.941919 0
M  V30 235 H 15.6821 0.572631 0.470292 0
M  V30 236 H 18.3291 1.82161 0.59072 0
M  V30 237 H 16.6341 2.33419 3.14679 0
M  V30 238 H 18.3311 2.68671 2.97686 0
M  V30 239 H 14.9211 3.77036 2.03819 0
M  V30 240 H 19.1051 4.67626 1.66251 0
M  V30 241 H 14.3611 6.00097 1.17019 0
M  V30 242 H 18.5351 6.91753 0.803136 0
M  V30 243 H 16.1621 7.58198 0.5513 0
M  V30 244 N 17.7372 -0.778329 1.37039 0
M  V30 245 C 18.9852 -1.53361 1.31623 0
M  V30 246 C 19.3062 -1.94739 -0.100831 0
M  V30 247 O 18.5762 -1.65797 -1.04347 0
M  V30 248 H 17.1562 -0.568794 0.484234 0
M  V30 249 H 19.8182 -0.926742 1.71457 0
M  V30 250 H 18.9142 -2.43606 1.95096 0
M  V30 251 N 19.2153 -1.21501 -1.00376 0
M  V30 252 C 20.1453 -0.999478 -2.11028 0
M  V30 253 C 21.1263 0.0759671 -1.6993 0
M  V30 254 O 22.3113 -0.0841106 -1.94018 0
M  V30 255 C 19.4413 -0.564709 -3.42678 0
M  V30 256 C 18.3953 -1.58486 -3.97576 0
M  V30 257 C 17.7213 -1.00628 -5.25146 0
M  V30 258 C 19.0213 -2.97204 -4.29496 0
M  V30 259 H 20.7153 -1.92495 -2.29317 0
M  V30 260 H 18.2613 -0.92693 -1.102 0
M  V30 261 H 20.2143 -0.401091 -4.19487 0
M  V30 262 H 18.9383 0.396411 -3.24185 0
M  V30 263 H 17.5973 -1.73606 -3.22888 0
M  V30 264 H 17.2453 -0.0368439 -5.02987 0
M  V30 265 H 16.9453 -1.68771 -5.62841 0
M  V30 266 H 18.4693 -0.854015 -6.04598 0
M  V30 267 H 19.8833 -2.8552 -4.97143 0
M  V30 268 H 18.2803 -3.62372 -4.78338 0
M  V30 269 H 19.3503 -3.47956 -3.3772 0
M  V30 270 N 20.6934 1.19889 -1.02296 0
M  V30 271 C 21.6564 2.21116 -0.603351 0
M  V30 272 C 22.6564 1.5738 0.329884 0
M  V30 273 O 23.8464 1.73802 0.117702 0
M  V30 274 C 20.9784 3.40696 0.117992 0
M  V30 275 H 22.1714 2.59754 -1.49893 0
M  V30 276 H 19.7244 1.33463 -0.813468 0
M  V30 277 H 20.4594 3.07569 1.0282 0
M  V30 278 H 20.2444 3.88188 -0.552511 0
M  V30 279 H 21.7344 4.15692 0.398696 0
M  V30 280 N 22.1715 0.800033 1.35784 0
M  V30 281 C 23.1345 0.211565 2.28221 0
M  V30 282 C 24.1345 -0.59728 1.49296 0
M  V30 283 O 25.3245 -0.416721 1.69142 0
M  V30 284 C 22.4565 -0.705846 3.33513 0
M  V30 285 H 23.6495 1.02677 2.81776 0
M  V30 286 H 21.2025 0.570211 1.45528 0
M  V30 287 H 21.9375 -1.54498 2.85133 0
M  V30 288 H 21.7225 -0.127655 3.91892 0
M  V30 289 H 23.2125 -1.11211 4.02519 0
M  V30 290 N 23.6496 -1.47581 0.552962 0
M  V30 291 C 24.8976 -2.02082 0.0272703 0
M  V30 292 C 25.2186 -1.4301 -1.32563 0
M  V30 293 O 24.4886 -0.603745 -1.86365 0
M  V30 294 H 23.0686 -0.746966 0.00709182 0
M  V30 295 H 25.7306 -1.81033 0.722008 0
M  V30 296 H 24.8266 -3.12034 -0.0639951 0
M  V30 297 N 25.1277 -0.289203 -1.54924 0
M  V30 298 C 26.0577 0.58549 -2.2604 0
M  V30 299 C 27.0387 1.14753 -1.25562 0
M  V30 300 O 28.2237 1.17906 -1.54311 0
M  V30 301 C 25.3537 1.76305 -2.99222 0
M  V30 302 C 24.3077 1.33191 -4.06748 0
M  V30 303 C 23.6337 2.5937 -4.6758 0
M  V30 304 C 24.9337 0.471775 -5.20165 0
M  V30 305 H 26.6277 -0.00763532 -2.99399 0
M  V30 306 H 24.1737 -0.00511229 -1.43999 0
M  V30 307 H 26.1267 2.38097 -3.47689 0
M  V30 308 H 24.8507 2.38223 -2.23422 0
M  V30 309 H 23.5097 0.737121 -3.59113 0
M  V30 310 H 23.1577 3.19576 -3.88433 0
M  V30 311 H 22.8577 2.31228 -5.40192 0
M  V30 312 H 24.3817 3.21985 -5.18804 0
M  V30 313 H 25.7957 0.995056 -5.64599 0
M  V30 314 H 24.1927 0.284639 -5.99425 0
M  V30 315 H 25.2627 -0.506041 -4.82252 0
M  V30 316 N 26.6058 1.57591 -0.0167156 0
M  V30 317 C 27.5688 2.08393 0.954204 0
M  V30 318 C 28.5688 0.996531 1.26198 0
M  V30 319 O 29.7588 1.25858 1.20438 0
M  V30 320 C 26.8908 2.5394 2.27436 0
M  V30 321 H 28.0838 2.95455 0.514451 0
M  V30 322 H 25.6368 1.54582 0.231089 0
M  V30 323 H 26.3718 1.70171 2.76066 0
M  V30 324 H 26.1568 3.33371 2.06412 0
M  V30 325 H 27.6468 2.93512 2.97053 0
M  V30 326 N 28.0839 -0.256276 1.55502 0
M  V30 327 C 29.0469 -1.30047 1.88734 0
M  V30 328 C 30.0469 -1.4154 0.763086 0
M  V30 329 O 31.2369 -1.40403 1.03115 0
M  V30 330 C 28.3689 -2.67953 2.10747 0
M  V30 331 H 29.5619 -1.01802 2.82093 0
M  V30 332 H 27.1149 -0.495134 1.4825 0
M  V30 333 H 27.8499 -3.01351 1.19825 0
M  V30 334 H 27.6349 -2.60993 2.92617 0
M  V30 335 H 29.1249 -3.43368 2.37673 0
M  V30 336 N 29.562 -1.4872 -0.521534 0
M  V30 337 C 30.494 -1.59968 -1.64143 0
M  V30 338 C 31.507 -0.483463 -1.55456 0
M  V30 339 O 32.696 -0.75467 -1.61762 0
M  V30 340 C 29.796 -1.52127 -3.02838 0
M  V30 341 C 28.969 -2.78932 -3.36921 0
M  V30 342 C 28.028 -2.64428 -4.54933 0
M  V30 343 O 27.054 -3.38331 -4.57735 0
M  V30 344 N 28.256 -1.74606 -5.53618 0
M  V30 345 H 31.021 -2.56548 -1.54929 0
M  V30 346 H 28.582 -1.45551 -0.708988 0
M  V30 347 H 30.574 -1.40106 -3.79674 0
M  V30 348 H 29.144 -0.634868 -3.06085 0
M  V30 349 H 28.364 -3.05455 -2.4918 0
M  V30 350 H 29.652 -3.63041 -3.56481 0
M  V30 351 H 29.05 -1.13782 -5.54139 0
M  V30 352 H 27.607 -1.6852 -6.29638 0
M  V30 353 N 31.0401 0.771051 -1.3745 0
M  V30 354 C 32.2861 1.5319 -1.32894 0
M  V30 355 C 32.6191 1.94008 0.0862511 0
M  V30 356 O 31.8941 1.64124 1.04373 0
M  V30 357 C 32.1771 2.79648 -2.26868 0
M  V30 358 C 32.0301 2.45079 -3.77169 0
M  V30 359 C 33.3491 3.81583 -2.19277 0
M  V30 360 H 30.4681 0.555744 -0.484064 0
M  V30 361 H 33.1101 0.884492 -1.68157 0
M  V30 362 H 31.2601 3.34891 -1.96926 0
M  V30 363 H 32.9321 1.95745 -4.1771 0
M  V30 364 H 31.1751 1.77767 -3.95704 0
M  V30 365 H 31.8461 3.35478 -4.38359 0
M  V30 366 H 34.3221 3.35835 -2.45671 0
M  V30 367 H 33.1981 4.67787 -2.87171 0
M  V30 368 H 33.4591 4.25897 -1.18592 0
M  V30 369 N 32.5182 1.22032 0.997298 0
M  V30 370 C 33.7652 1.04222 1.73621 0
M  V30 371 C 34.0932 -0.423264 1.89839 0
M  V30 372 O 33.3482 -1.3302 1.43542 0
M  V30 373 C 33.6472 1.69345 3.14733 0
M  V30 374 C 33.3132 3.19226 3.18442 0
M  V30 375 C 31.9752 3.60124 3.19161 0
M  V30 376 C 34.3272 4.15181 3.15078 0
M  V30 377 C 31.6552 4.95467 3.14212 0
M  V30 378 C 34.0072 5.50495 3.1167 0
M  V30 379 C 32.6712 5.90779 3.10703 0
M  V30 380 H 31.9412 0.381374 0.635323 0
M  V30 381 H 34.5882 1.51732 1.16831 0
M  V30 382 H 32.8932 1.14147 3.74803 0
M  V30 383 H 34.5902 1.53059 3.7064 0
M  V30 384 H 31.1802 2.86659 3.18629 0
M  V30 385 H 35.3642 3.84605 3.13676 0
M  V30 386 H 30.6202 5.25916 3.11805 0
M  V30 387 H 34.7942 6.24576 3.08022 0
M  V30 388 H 32.4212 6.9562 3.06622 0
M  V30 389 N 33.9963 -1.19345 1.0293 0
M  V30 390 C 35.2433 -1.89038 0.726008 0
M  V30 391 C 35.5713 -1.79649 -0.745427 0
M  V30 392 O 34.8263 -1.18354 -1.55855 0
M  V30 393 C 35.1253 -3.39292 1.12319 0
M  V30 394 C 34.7913 -3.68885 2.59297 0
M  V30 395 C 33.4533 -3.76671 2.99453 0
M  V30 396 C 35.8053 -3.82178 3.54386 0
M  V30 397 C 33.1333 -3.9522 4.33611 0
M  V30 398 C 35.4853 -4.0224 4.88248 0
M  V30 399 C 34.1493 -4.08259 5.28092 0
M  V30 400 H 33.4193 -0.691739 0.265665 0
M  V30 401 H 36.0663 -1.41328 1.29223 0
M  V30 402 H 34.3713 -3.88903 0.475584 0
M  V30 403 H 36.0683 -3.91536 0.866037 0
M  V30 404 H 32.6583 -3.63433 2.27189 0
M  V30 405 H 36.8423 -3.75505 3.24514 0
M  V30 406 H 32.0983 -3.98119 4.64016 0
M  V30 407 H 36.2723 -4.11468 5.61843 0
M  V30 408 H 33.8993 -4.22384 6.32057 0
M  V30 409 N 35.4744 -0.807222 -1.35358 0
M  V30 410 C 36.4044 -0.232509 -2.3234 0
M  V30 411 C 37.3854 0.642386 -1.57504 0
M  V30 412 O 38.5704 0.572526 -1.85569 0
M  V30 413 C 35.7004 0.619238 -3.41735 0
M  V30 414 C 34.6544 -0.157215 -4.27711 0
M  V30 415 C 33.9804 0.816273 -5.28433 0
M  V30 416 C 35.2804 -1.35656 -5.04376 0
M  V30 417 H 36.9744 -1.04276 -2.80654 0
M  V30 418 H 34.5204 -0.50288 -1.34934 0
M  V30 419 H 36.4734 1.03137 -4.08584 0
M  V30 420 H 35.1974 1.46239 -2.92031 0
M  V30 421 H 33.8564 -0.550525 -3.62443 0
M  V30 422 H 33.5044 1.65494 -4.74996 0
M  V30 423 H 33.2044 0.301067 -5.86828 0
M  V30 424 H 34.7284 1.22659 -5.98153 0
M  V30 425 H 36.1424 -1.01927 -5.64166 0
M  V30 426 H 34.5394 -1.8063 -5.7227 0
M  V30 427 H 35.6094 -2.14288 -4.34981 0
M  V30 428 N 36.9525 1.47285 -0.560781 0
M  V30 429 C 38.3635 1.86258 -0.128343 0
M  V30 430 C 38.7145 1.46699 1.30284 0
M  V30 431 O 37.8395 0.871698 1.98067 0
M  V30 432 C 38.4345 3.38044 -0.22614 0
M  V30 433 C 36.9935 3.76096 0.151283 0
M  V30 434 C 36.1405 2.71335 -0.572084 0
M  V30 435 H 39.0915 1.38752 -0.770297 0
M  V30 436 H 39.1125 3.76441 0.554322 0
M  V30 437 H 38.6245 3.66806 -1.26788 0
M  V30 438 H 36.7255 3.52951 1.19399 0
M  V30 439 H 36.8385 4.78641 -0.209765 0
M  V30 440 H 35.2025 2.54696 -0.0147653 0
M  V30 441 H 35.9855 3.02938 -1.61504 0
M  V30 442 N 38.4306 0.297415 1.54768 0
M  V30 443 C 39.6606 -0.315165 2.04182 0
M  V30 444 C 40.0686 -1.4834 1.17439 0
M  V30 445 O 39.4116 -1.82695 0.191891 0
M  V30 446 C 39.4736 -0.837583 3.49607 0
M  V30 447 C 39.1376 0.204912 4.5654 0
M  V30 448 C 40.1346 1.03214 5.09552 0
M  V30 449 C 37.8196 0.345578 5.0111 0
M  V30 450 C 39.8136 1.986 6.05671 0
M  V30 451 C 37.5006 1.30289 5.97049 0
M  V30 452 C 38.4986 2.12159 6.49213 0
M  V30 453 O 38.1866 3.06268 7.43273 0
M  V30 454 H 37.9186 -0.0729646 0.672051 0
M  V30 455 H 40.4726 0.433907 2.00765 0
M  V30 456 H 38.7026 -1.63712 3.50336 0
M  V30 457 H 40.3916 -1.36566 3.82236 0
M  V30 458 H 41.1576 0.934312 4.75916 0
M  V30 459 H 37.0366 -0.28171 4.60138 0
M  V30 460 H 40.5806 2.62542 6.46311 0
M  V30 461 H 36.4776 1.40145 6.30103 0
M  V30 462 H 37.2456 3.01205 7.61064 0
M  V30 463 N 39.9087 -1.5758 0.0250728 0
M  V30 464 C 40.8567 -2.11125 -0.97617 0
M  V30 465 C 41.8507 -1.03689 -1.33959 0
M  V30 466 O 43.0567 -1.22128 -1.3223 0
M  V30 467 H 39.4317 -0.674468 -0.332561 0
M  V30 468 H 41.4027 -2.94194 -0.499223 0
M  V30 469 C 40.1517 -2.65017 -2.2508 0
M  V30 470 H 39.4747 -3.47333 -1.9799 0
M  V30 471 H 40.9147 -3.06133 -2.93357 0
M  V30 472 C 39.3737 -1.57574 -2.97779 0
M  V30 473 O 39.9037 -0.973203 -3.89733 0
M  V30 474 N 38.1097 -1.29716 -2.60043 0
M  V30 475 H 37.6567 -1.789 -1.85345 0
M  V30 476 H 37.6147 -0.58051 -3.08994 0
M  V30 477 N 41.3868 0.248026 -1.55636 0
M  V30 478 C 42.3498 1.29044 -1.89421 0
M  V30 479 C 43.3498 1.41134 -0.770581 0
M  V30 480 O 44.5398 1.39854 -1.03858 0
M  V30 481 C 41.6718 2.66831 -2.12165 0
M  V30 482 H 42.8648 1.00305 -2.82629 0
M  V30 483 H 40.4178 0.487265 -1.48511 0
M  V30 484 H 41.1528 3.00711 -1.21422 0
M  V30 485 H 40.9378 2.59438 -2.93997 0
M  V30 486 H 42.4278 3.42103 -2.3949 0
M  V30 487 N 42.8649 1.48995 0.513639 0
M  V30 488 C 43.7949 1.67636 1.62544 0
M  V30 489 C 44.7759 0.525087 1.61793 0
M  V30 490 O 45.9609 0.759502 1.78732 0
M  V30 491 C 43.0909 1.73114 3.01079 0
M  V30 492 C 42.0449 2.87905 3.16693 0
M  V30 493 C 41.3709 2.78486 4.56453 0
M  V30 494 C 42.6709 4.29005 2.97913 0
M  V30 495 H 44.3649 2.60716 1.47198 0
M  V30 496 H 41.9109 1.25465 0.706714 0
M  V30 497 H 43.8639 1.84742 3.78746 0
M  V30 498 H 42.5879 0.766241 3.17484 0
M  V30 499 H 41.2469 2.75859 2.41448 0
M  V30 500 H 40.8949 1.7993 4.69717 0
M  V30 501 H 40.5949 3.55523 4.67843 0
M  V30 502 H 42.1189 2.92104 5.36197 0
M  V30 503 H 43.5329 4.41798 3.65359 0
M  V30 504 H 41.9299 5.07166 3.20785 0
M  V30 505 H 42.9999 4.44329 1.94165 0
M  V30 506 N 44.343 -0.763751 1.37857 0
M  V30 507 C 45.306 -1.85889 1.34081 0
M  V30 508 C 46.306 -1.58949 0.243277 0
M  V30 509 O 47.496 -1.66882 0.499589 0
M  V30 510 C 44.628 -3.23176 1.08489 0
M  V30 511 H 45.821 -1.90648 2.31502 0
M  V30 512 H 43.374 -0.964367 1.23003 0
M  V30 513 H 44.109 -3.24091 0.116318 0
M  V30 514 H 43.894 -3.44124 1.8794 0
M  V30 515 H 45.384 -4.03254 1.08517 0
M  V30 516 N 45.8211 -1.22559 -0.990812 0
M  V30 517 C 47.0461 -1.07862 -1.77145 0
M  V30 518 C 47.4711 0.366447 -1.84496 0
M  V30 519 O 46.8291 1.26478 -1.29896 0
M  V30 520 C 46.8771 -1.69686 -3.18181 0
M  V30 521 O 45.9811 -0.951946 -4.01263 0
M  V30 522 H 45.3221 -0.378712 -0.545411 0
M  V30 523 H 47.8521 -1.62399 -1.2445 0
M  V30 524 H 47.8621 -1.74496 -3.68802 0
M  V30 525 H 46.5371 -2.74841 -3.12146 0
M  V30 526 H 45.1141 -0.980011 -3.59792 0
M  V30 527 N 47.2992 1.18797 -1.03562 0
M  V30 528 C 48.5272 1.92599 -0.755869 0
M  V30 529 C 48.9422 1.75886 0.686271 0
M  V30 530 O 48.2992 1.08517 1.46732 0
M  V30 531 C 48.3502 3.44159 -1.10619 0
M  V30 532 O 48.0712 3.60341 -2.4917 0
M  V30 533 C 49.5722 4.3507 -0.850214 0
M  V30 534 H 46.7922 0.611587 -0.276048 0
M  V30 535 H 49.3362 1.50742 -1.38192 0
M  V30 536 H 47.4912 3.83823 -0.525194 0
M  V30 537 H 47.9052 4.54128 -2.62427 0
M  V30 538 H 49.3792 5.39989 -1.14523 0
M  V30 539 H 49.8562 4.38673 0.215176 0
M  V30 540 H 50.4622 4.01097 -1.41426 0
M  V30 541 N 48.7773 0.814389 1.34928 0
M  V30 542 C 49.6873 0.231978 2.3345 0
M  V30 543 C 50.7033 -0.629139 1.62228 0
M  V30 544 O 51.8793 -0.539052 1.94052 0
M  V30 545 C 48.9443 -0.603482 3.41407 0
M  V30 546 C 48.0053 0.279037 4.28392 0
M  V30 547 C 47.2383 -0.516643 5.31193 0
M  V30 548 O 47.4613 -1.75068 5.4287 0
M  V30 549 O 46.3953 0.0965652 6.01823 0
M  V30 550 H 50.2213 1.04721 2.85074 0
M  V30 551 H 47.8063 0.576343 1.37836 0
M  V30 552 H 49.6883 -1.07908 4.0735 0
M  V30 553 H 48.3633 -1.39618 2.92042 0
M  V30 554 H 47.2703 0.801948 3.65403 0
M  V30 555 H 48.6033 1.03588 4.81176 0
M  V30 556 N 50.2554 -1.46986 0.568584 0
M  V30 557 C 51.2054 -2.27179 -0.193339 0
M  V30 558 C 52.1894 -1.35035 -0.874895 0
M  V30 559 O 53.3814 -1.5931 -0.771322 0
M  V30 560 C 50.5104 -3.21063 -1.21546 0
M  V30 561 C 49.5964 -4.2069 -0.536738 0
M  V30 562 N 49.9874 -5.04218 0.399673 0
M  V30 563 C 48.2854 -4.38961 -0.789254 0
M  V30 564 C 48.9864 -5.76242 0.795017 0
M  V30 565 N 47.9624 -5.434 0.1473 0
M  V30 566 H 51.7644 -2.89146 0.526458 0
M  V30 567 H 49.2784 -1.57664 0.389342 0
M  V30 568 H 51.2754 -3.77209 -1.77536 0
M  V30 569 H 49.9354 -2.60654 -1.93623 0
M  V30 570 H 50.9464 -5.12077 0.774454 0
M  V30 571 H 47.6234 -3.89713 -1.49767 0
M  V30 572 H 49.0134 -6.53417 1.56513 0
M  V30 573 N 51.7335 -0.305618 -1.54608 0
M  V30 574 C 52.9795 0.302746 -2.00528 0
M  V30 575 C 53.3125 1.53184 -1.19367 0
M  V30 576 O 52.5875 1.92598 -0.271321 0
M  V30 577 C 52.8705 0.654756 -3.54097 0
M  V30 578 C 52.7235 -0.583793 -4.45995 0
M  V30 579 C 54.0425 1.47947 -4.14487 0
M  V30 580 H 51.1615 0.108564 -0.72896 0
M  V30 581 H 53.8035 -0.418634 -1.85331 0
M  V30 582 H 51.9535 1.26935 -3.67178 0
M  V30 583 H 53.6255 -1.22224 -4.44814 0
M  V30 584 H 51.8685 -1.21615 -4.16404 0
M  V30 585 H 52.5395 -0.293287 -5.5122 0
M  V30 586 H 55.0155 0.96013 -4.04871 0
M  V30 587 H 53.8915 1.69454 -5.22088 0
M  V30 588 H 54.1525 2.47011 -3.66658 0
M  V30 589 N 53.2116 1.57565 -0.0334293 0
M  V30 590 C 54.4396 1.9628 0.654347 0
M  V30 591 C 54.8546 0.910138 1.65414 0
M  V30 592 O 54.2116 -0.107595 1.82183 0
M  V30 593 C 54.2626 3.35067 1.35693 0
M  V30 594 O 53.9836 4.36296 0.397191 0
M  V30 595 C 55.4846 3.88439 2.13613 0
M  V30 596 H 52.7046 0.646369 0.180132 0
M  V30 597 H 55.2486 2.04282 -0.0944721 0
M  V30 598 H 53.4036 3.2827 2.05712 0
M  V30 599 H 53.8176 5.1678 0.896597 0
M  V30 600 H 55.2916 4.8788 2.58219 0
M  V30 601 H 55.7686 3.22914 2.97696 0
M  V30 602 H 56.3746 3.98516 1.48543 0
M  V30 603 N 54.6897 -0.239769 1.55765 0
M  V30 604 C 55.9357 -0.963942 1.79108 0
M  V30 605 C 56.2907 -1.82689 0.60352 0
M  V30 606 O 55.5837 -1.87313 -0.403033 0
M  V30 607 C 55.7777 -1.852 3.05672 0
M  V30 608 C 55.6067 -1.07651 4.36625 0
M  V30 609 C 54.3767 -0.778738 4.99263 0
M  V30 610 C 56.5747 -0.45062 5.12322 0
M  V30 611 N 54.5567 0.0200708 6.13897 0
M  V30 612 C 55.9277 0.212429 6.19636 0
M  V30 613 C 57.9827 -0.361806 4.96584 0
M  V30 614 C 56.6857 0.955772 7.12922 0
M  V30 615 C 58.7117 0.368023 5.90254 0
M  V30 616 C 58.0737 1.01968 6.96981 0
M  V30 617 H 54.1727 -0.333601 0.707272 0
M  V30 618 H 56.7567 -0.236425 1.93259 0
M  V30 619 H 54.9277 -2.55149 2.92837 0
M  V30 620 H 56.6597 -2.51228 3.1728 0
M  V30 621 H 53.4147 -1.09229 4.60832 0
M  V30 622 H 53.8387 0.407777 6.75771 0
M  V30 623 H 58.4807 -0.851286 4.14141 0
M  V30 624 H 56.1987 1.45683 7.9486 0
M  V30 625 H 59.7847 0.437504 5.80153 0
M  V30 626 H 58.6647 1.5754 7.68213 0
M  V30 627 N 56.1678 -1.49265 -0.50573 0
M  V30 628 C 57.1158 -1.66065 -1.62866 0
M  V30 629 C 58.1098 -0.526636 -1.61006 0
M  V30 630 O 59.3158 -0.706126 -1.65571 0
M  V30 631 H 55.6908 -0.52356 -0.539805 0
M  V30 632 H 57.6618 -2.60329 -1.45848 0
M  V30 633 C 56.4108 -1.74008 -3.01026 0
M  V30 634 H 55.7338 -2.6064 -3.03161 0
M  V30 635 H 57.1738 -1.89798 -3.79147 0
M  V30 636 C 55.6328 -0.483868 -3.33407 0
M  V30 637 O 56.1628 0.392548 -3.99777 0
M  V30 638 N 54.3688 -0.348236 -2.88506 0
M  V30 639 H 53.9158 -1.06242 -2.34671 0
M  V30 640 H 53.8738 0.491204 -3.10539 0
M  V30 641 N 57.6459 0.756429 -1.3826 0
M  V30 642 C 58.5779 1.87971 -1.31147 0
M  V30 643 C 59.5909 1.61248 -0.224239 0
M  V30 644 O 60.7799 1.71881 -0.481581 0
M  V30 645 C 57.8799 3.23545 -1.00857 0
M  V30 646 C 57.0529 3.77794 -2.20432 0
M  V30 647 C 56.1119 4.91877 -1.86931 0
M  V30 648 O 55.1379 5.06659 -2.59395 0
M  V30 649 N 56.3399 5.74643 -0.822568 0
M  V30 650 H 59.1049 1.94585 -2.2794 0
M  V30 651 H 56.6659 0.936234 -1.32084 0
M  V30 652 H 58.6579 3.97403 -0.765021 0
M  V30 653 H 57.2279 3.12335 -0.128687 0
M  V30 654 H 56.4479 2.95534 -2.6087 0
M  V30 655 H 57.7359 4.10771 -3.00241 0
M  V30 656 H 57.1339 5.65266 -0.221575 0
M  V30 657 H 55.6909 6.48661 -0.638899 0
M  V30 658 N 59.124 1.23083 0.984299 0
M  V30 659 C 60.056 0.96636 2.07832 0
M  V30 660 C 61.069 -0.0582135 1.62696 0
M  V30 661 O 62.258 0.176843 1.77622 0
M  V30 662 C 59.358 0.433397 3.36117 0
M  V30 663 C 58.531 1.51722 4.10243 0
M  V30 664 C 57.59 0.989821 5.16807 0
M  V30 665 O 56.616 1.67794 5.43906 0
M  V30 666 N 57.818 -0.184367 5.80207 0
M  V30 667 H 60.583 1.90824 2.31098 0
M  V30 668 H 58.144 1.13888 1.1507 0
M  V30 669 H 60.136 0.065699 4.04647 0
M  V30 670 H 58.706 -0.413806 3.09849 0
M  V30 671 H 57.926 2.05786 3.36223 0
M  V30 672 H 59.214 2.24619 4.56534 0
M  V30 673 H 58.612 -0.760062 5.60571 0
M  V30 674 H 57.169 -0.493366 6.4993 0
M  V30 675 N 60.6021 -1.18246 1.0419 0
M  V30 676 C 61.8491 -1.88257 0.746017 0
M  V30 677 C 62.1771 -1.80429 -0.726331 0
M  V30 678 O 61.4321 -1.2 -1.54591 0
M  V30 679 C 61.7311 -3.38082 1.15911 0
M  V30 680 C 61.3971 -3.66114 2.63195 0
M  V30 681 C 60.0591 -3.73474 3.03432 0
M  V30 682 C 62.4111 -3.78398 3.5842 0
M  V30 683 C 59.7391 -3.90599 4.37778 0
M  V30 684 C 62.0911 -3.97039 4.92487 0
M  V30 685 C 60.7551 -4.02635 5.32392 0
M  V30 686 H 60.0251 -0.688883 0.272987 0
M  V30 687 H 62.6721 -1.3995 1.30715 0
M  V30 688 H 60.9771 -3.88377 0.516806 0
M  V30 689 H 62.6741 -3.90596 0.907516 0
M  V30 690 H 59.2641 -3.61003 2.3103 0
M  V30 691 H 63.4481 -3.72042 3.28479 0
M  V30 692 H 58.7041 -3.93175 4.68213 0
M  V30 693 H 62.8781 -4.05486 5.66175 0
M  V30 694 H 60.5051 -4.15657 6.36501 0
M  V30 695 N 62.0802 -0.821533 -1.34494 0
M  V30 696 C 63.0122 -0.199946 -2.28326 0
M  V30 697 C 64.0252 0.609377 -1.50965 0
M  V30 698 O 65.2142 0.439285 -1.7301 0
M  V30 699 C 62.3142 0.738431 -3.30757 0
M  V30 700 C 61.4872 -0.0277632 -4.37391 0
M  V30 701 C 60.5462 0.831332 -5.19591 0
M  V30 702 O 59.5722 0.276822 -5.68526 0
M  V30 703 N 60.7742 2.15132 -5.39165 0
M  V30 704 H 63.5392 -1.00609 -2.82308 0
M  V30 705 H 61.1002 -0.678366 -1.47003 0
M  V30 706 H 63.0922 1.31773 -3.82646 0
M  V30 707 H 61.6622 1.44533 -2.7718 0
M  V30 708 H 60.8822 -0.788359 -3.86236 0
M  V30 709 H 62.1702 -0.555251 -5.05761 0
M  V30 710 H 61.5682 2.62559 -5.01078 0
M  V30 711 H 60.1252 2.6795 -5.94177 0
M  V30 712 N 63.5583 1.46682 -0.576371 0
M  V30 713 C 64.7863 2.06798 -0.0649635 0
M  V30 714 C 65.2013 1.42612 1.23723 0
M  V30 715 O 64.5583 0.529203 1.74659 0
M  V30 716 C 64.6093 3.6132 0.114202 0
M  V30 717 O 64.3303 4.23104 -1.13644 0
M  V30 718 C 65.8313 4.38349 0.66069 0
M  V30 719 H 63.0513 0.668778 -0.0545616 0
M  V30 720 H 65.5953 1.88404 -0.795237 0
M  V30 721 H 63.7503 3.79162 0.794673 0
M  V30 722 H 64.1643 5.15894 -0.946253 0
M  V30 723 H 65.6383 5.47081 0.73526 0
M  V30 724 H 66.1153 4.05953 1.67627 0
M  V30 725 H 66.7213 4.25297 0.0152951 0
M  V30 726 N 65.0364 0.313813 1.54444 0
M  V30 727 C 66.4474 -0.176243 1.85866 0
M  V30 728 C 66.7984 -1.52405 1.23561 0
M  V30 729 O 65.9234 -2.09605 0.538016 0
M  V30 730 C 66.5184 -0.32657 3.37222 0
M  V30 731 C 65.0774 -0.760846 3.6863 0
M  V30 732 C 64.2244 0.123247 2.77026 0
M  V30 733 H 67.1754 0.534418 1.49431 0
M  V30 734 H 67.1964 -1.15908 3.62416 0
M  V30 735 H 66.7084 0.654531 3.82541 0
M  V30 736 H 64.8094 -1.75204 3.28838 0
M  V30 737 H 64.9224 -0.571353 4.75681 0
M  V30 738 H 63.2864 -0.399597 2.51546 0
M  V30 739 H 64.0694 1.10094 3.25168 0
M  V30 740 N 66.5145 -1.57545 0.0417849 0
M  V30 741 C 67.4465 -2.07904 -0.964799 0
M  V30 742 C 68.4595 -1.00497 -1.28079 0
M  V30 743 O 69.6485 -1.28087 -1.24322 0
M  V30 744 C 66.7485 -2.49928 -2.28887 0
M  V30 745 C 65.9215 -3.80562 -2.15619 0
M  V30 746 C 64.9805 -4.08999 -3.31069 0
M  V30 747 O 64.0065 -4.79061 -3.0739 0
M  V30 748 N 65.2085 -3.6017 -4.55256 0
M  V30 749 H 67.9735 -2.94886 -0.535029 0
M  V30 750 H 65.5345 -1.61252 -0.144681 0
M  V30 751 H 67.5265 -2.66034 -3.04972 0
M  V30 752 H 66.0965 -1.68245 -2.63463 0
M  V30 753 H 65.3165 -3.74129 -1.24183 0
M  V30 754 H 66.6045 -4.66126 -2.03971 0
M  V30 755 H 66.0025 -3.03512 -4.77386 0
M  V30 756 H 64.5595 -3.81532 -5.28466 0
M  V30 757 N 67.9926 0.231505 -1.5589 0
M  V30 758 C 69.2396 0.957352 -1.78441 0
M  V30 759 C 69.5676 1.84726 -0.60882 0
M  V30 760 O 68.8226 1.91416 0.40725 0
M  V30 761 C 69.1216 1.83577 -3.0665 0
M  V30 762 C 68.7876 1.09993 -4.37278 0
M  V30 763 C 67.4496 0.896629 -4.72773 0
M  V30 764 C 69.8016 0.579558 -5.17968 0
M  V30 765 C 67.1296 0.160896 -5.86479 0
M  V30 766 C 69.4816 -0.142783 -6.32439 0
M  V30 767 C 68.1456 -0.357427 -6.66542 0
M  V30 768 H 67.4156 0.35032 -0.65296 0
M  V30 769 H 70.0626 0.226259 -1.90159 0
M  V30 770 H 68.3676 2.63441 -2.90011 0
M  V30 771 H 70.0646 2.39934 -3.21298 0
M  V30 772 H 66.6546 1.26835 -4.09403 0
M  V30 773 H 70.8386 0.724125 -4.90989 0
M  V30 774 H 66.0946 -0.0157293 -6.11398 0
M  V30 775 H 70.2686 -0.553559 -6.94196 0
M  V30 776 H 67.8956 -0.929466 -7.54497 0
M  V30 777 N 69.4707 1.49531 0.497807 0
M  V30 778 C 70.7197 1.58426 1.24837 0
M  V30 779 C 71.0327 0.277643 1.93619 0
M  V30 780 O 72.2387 0.24517 2.70391 0
M  V30 781 C 70.6947 2.79538 2.26686 0
M  V30 782 C 70.3027 4.16971 1.63828 0
M  V30 783 C 72.0467 2.97764 3.0255 0
M  V30 784 C 69.9537 5.29301 2.63807 0
M  V30 785 H 68.8837 0.58989 0.469623 0
M  V30 786 H 71.5347 1.75923 0.521857 0
M  V30 787 H 69.9167 2.55542 3.02514 0
M  V30 788 H 71.0907 4.51116 0.939711 0
M  V30 789 H 69.4057 4.04129 1.00342 0
M  V30 790 H 72.0027 3.78856 3.77323 0
M  V30 791 H 72.3457 2.08448 3.60354 0
M  V30 792 H 72.8787 3.21815 2.33838 0
M  V30 793 H 69.6177 6.20687 2.10779 0
M  V30 794 H 69.1377 4.99606 3.31894 0
M  V30 795 H 70.8167 5.58768 3.2617 0
M  V30 796 N 70.9488 -0.749086 1.3866 0
M  V30 797 C 72.1738 -1.54344 1.38538 0
M  V30 798 C 72.5988 -1.88088 -0.0216655 0
M  V30 799 O 71.9568 -1.50899 -1.00494 0
M  V30 800 C 72.0048 -2.8164 2.25192 0
M  V30 801 O 71.1088 -3.7698 1.67212 0
M  V30 802 H 70.4498 -0.466654 0.472367 0
M  V30 803 H 72.9798 -0.925355 1.82478 0
M  V30 804 H 72.9898 -3.30519 2.3921 0
M  V30 805 H 71.6648 -2.56411 3.27454 0
M  V30 806 H 70.2418 -3.35699 1.6236 0
M  V30 807 N 72.4269 -1.23603 -0.977757 0
M  V30 808 C 73.6749 -1.06759 -1.71601 0
M  V30 809 C 73.9959 0.395929 -1.90938 0
M  V30 810 O 73.2659 1.28356 -1.47992 0
M  V30 811 H 71.8459 -0.392062 -0.635843 0
M  V30 812 H 74.5079 -1.55362 -1.1768 0
M  V30 813 H 73.6039 -1.55763 -2.70452 0
M  V30 814 N 73.905 1.17692 -1.04816 0
M  V30 815 C 75.182 1.83768 -0.669963 0
M  V30 816 C 75.562 1.93232 0.849986 0
M  V30 817 O 74.91 1.46397 1.75443 0
M  V30 818 C 75.12 3.21641 -1.35455 0
M  V30 819 C 76.468 3.97592 -1.49017 0
M  V30 820 O 77.492 3.31107 -1.31326 0
M  V30 821 O 76.351 5.16729 -1.77914 0
M  V30 822 H 73.445 0.792799 -0.235368 0
M  V30 823 H 75.991 1.25021 -1.14751 0
M  V30 824 H 74.763 3.097 -2.39168 0
M  V30 825 H 74.386 3.88052 -0.866107 0
M  V30 826 N 75.3831 0.828654 1.34056 0
M  V30 827 C 76.3131 0.269443 2.3194 0
M  V30 828 C 77.2941 -0.617247 1.58506 0
M  V30 829 O 78.4791 -0.542931 1.86456 0
M  V30 830 C 75.6091 -0.564793 3.42677 0
M  V30 831 C 74.5631 0.225241 4.27407 0
M  V30 832 C 73.8891 -0.7321 5.29664 0
M  V30 833 C 75.1891 1.43663 5.02154 0
M  V30 834 H 76.8831 1.08728 2.7896 0
M  V30 835 H 74.4291 0.524283 1.34117 0
M  V30 836 H 76.3821 -0.966233 4.10173 0
M  V30 837 H 75.1061 -1.41574 2.9432 0
M  V30 838 H 73.7651 0.608117 3.61521 0
M  V30 839 H 73.4131 -1.57916 4.77568 0
M  V30 840 H 73.1131 -0.20767 5.87233 0
M  V30 841 H 74.6371 -1.13128 6.00029 0
M  V30 842 H 76.0511 1.1089 5.62473 0
M  V30 843 H 74.4481 1.89711 5.69324 0
M  V30 844 H 75.5181 2.21181 4.31517 0
M  V30 845 N 76.8612 -1.46375 0.584142 0
M  V30 846 C 77.7912 -2.33103 -0.136037 0
M  V30 847 C 78.7722 -1.45431 -0.882255 0
M  V30 848 O 79.9572 -1.74246 -0.857434 0
M  V30 849 C 77.0872 -3.27731 -1.14933 0
M  V30 850 C 76.0412 -4.24855 -0.517862 0
M  V30 851 C 75.3672 -5.09001 -1.63773 0
M  V30 852 C 76.6672 -5.19439 0.545886 0
M  V30 853 H 78.3612 -2.93568 0.588086 0
M  V30 854 H 75.9072 -1.41166 0.284259 0
M  V30 855 H 77.8602 -3.87261 -1.66153 0
M  V30 856 H 76.5842 -2.65377 -1.90375 0
M  V30 857 H 75.2432 -3.6659 -0.0267361 0
M  V30 858 H 74.8912 -4.43031 -2.38185 0
M  V30 859 H 74.5912 -5.74777 -1.22085 0
M  V30 860 H 76.1152 -5.71396 -2.15266 0
M  V30 861 H 77.5292 -5.73177 0.118704 0
M  V30 862 H 75.9262 -5.93566 0.88317 0
M  V30 863 H 76.9962 -4.63285 1.43162 0
M  V30 864 N 78.3393 -0.321999 -1.54275 0
M  V30 865 C 79.2863 0.544664 -2.24281 0
M  V30 866 C 80.2563 1.1129 -1.23303 0
M  V30 867 O 81.4413 1.15354 -1.51981 0
M  V30 868 C 78.5813 1.70045 -3.00298 0
M  V30 869 C 77.6943 1.16159 -4.1609 0
M  V30 870 C 76.8293 2.28293 -4.79641 0
M  V30 871 C 75.8683 1.71648 -5.8754 0
M  V30 872 N 75.0053 2.77438 -6.44959 0
M  V30 873 H 79.8453 -0.0588907 -2.97942 0
M  V30 874 H 77.3823 -0.0408345 -1.47043 0
M  V30 875 H 79.3403 2.38054 -3.42616 0
M  V30 876 H 77.9703 2.27531 -2.28975 0
M  V30 877 H 77.0223 0.373092 -3.78566 0
M  V30 878 H 78.3343 0.707087 -4.93763 0
M  V30 879 H 77.4883 3.0421 -5.2492 0
M  V30 880 H 76.2273 2.77079 -4.01346 0
M  V30 881 H 75.2323 0.942282 -5.41665 0
M  V30 882 H 76.4573 1.23741 -6.67731 0
M  V30 883 H 74.4033 3.25519 -5.69538 0
M  V30 884 H 74.3203 2.36547 -7.1804 0
M  V30 885 H 75.5883 3.53189 -6.94894 0
M  V30 886 N 79.8174 1.5752 -0.0501392 0
M  V30 887 C 81.0634 1.92936 0.624798 0
M  V30 888 C 81.3964 0.928685 1.70555 0
M  V30 889 O 80.6714 -0.0454779 1.94447 0
M  V30 890 C 80.9544 3.38737 1.22185 0
M  V30 891 C 80.8074 4.49552 0.149218 0
M  V30 892 C 82.1264 3.84913 2.13378 0
M  V30 893 H 79.2454 0.701604 0.225657 0
M  V30 894 H 81.8874 1.89671 -0.111693 0
M  V30 895 H 80.0374 3.4165 1.84953 0
M  V30 896 H 81.7094 4.58768 -0.482648 0
M  V30 897 H 79.9524 4.30638 -0.522841 0
M  V30 898 H 80.6234 5.48653 0.606966 0
M  V30 899 H 83.0994 3.8387 1.60572 0
M  V30 900 H 81.9754 4.87584 2.52097 0
M  V30 901 H 82.2364 3.21611 3.03346 0
M  V30 902 N 81.2955 -0.223234 1.56011 0
M  V30 903 C 82.2435 -1.29627 1.93131 0
M  V30 904 C 83.2375 -1.48608 0.813146 0
M  V30 905 O 84.4435 -1.49802 0.997966 0
M  V30 906 H 80.8185 -0.434563 0.613726 0
M  V30 907 H 82.7895 -0.955995 2.82672 0
M  V30 908 C 81.5385 -2.63983 2.26292 0
M  V30 909 H 80.8615 -2.50185 3.11846 0
M  V30 910 H 82.3015 -3.3788 2.56151 0
M  V30 911 C 80.7605 -3.18866 1.08747 0
M  V30 912 O 81.2905 -4.00192 0.347727 0
M  V30 913 N 79.4965 -2.77217 0.871743 0
M  V30 914 H 79.0435 -2.1119 1.47501 0
M  V30 915 H 79.0015 -3.1428 0.0869905 0
M  V30 916 N 82.7736 -1.49793 -0.48987 0
M  V30 917 C 84.0216 -1.59525 -1.24081 0
M  V30 918 C 84.3426 -0.288953 -1.92847 0
M  V30 919 O 83.6126 0.692436 -1.83254 0
M  V30 920 H 82.1926 -0.587796 -0.460983 0
M  V30 921 H 84.8546 -1.86477 -0.566778 0
M  V30 922 H 83.9506 -2.39696 -1.99881 0
M  V30 923 N 84.2517 0.741722 -1.39055 0
M  V30 924 C 85.4797 1.53098 -1.39171 0
M  V30 925 C 85.8947 1.88794 0.0155099 0
M  V30 926 O 85.2517 1.53626 0.985159 0
M  V30 927 C 85.3027 2.82274 -2.2584 0
M  V30 928 O 85.0237 2.48097 -3.61081 0
M  V30 929 C 86.5247 3.76343 -2.34266 0
M  V30 930 H 83.7447 0.473335 -0.4756 0
M  V30 931 H 86.2887 0.917045 -1.82785 0
M  V30 932 H 84.4437 3.40015 -1.85656 0
M  V30 933 H 84.8577 3.31029 -4.06842 0
M  V30 934 H 86.3317 4.63898 -2.9917 0
M  V30 935 H 86.8087 4.17619 -1.35982 0
M  V30 936 H 87.4147 3.24523 -2.74891 0
M  V30 937 N 85.7298 1.2412 0.971189 0
M  V30 938 C 86.9548 1.10667 1.75407 0
M  V30 939 C 87.3798 -0.337048 1.85056 0
M  V30 940 O 86.7378 -1.24396 1.31892 0
M  V30 941 C 86.7858 1.74726 3.15441 0
M  V30 942 O 85.8898 1.01566 3.99697 0
M  V30 943 H 85.2308 0.387341 0.539317 0
M  V30 944 H 87.7608 1.64358 1.2185 0
M  V30 945 H 87.7708 1.80341 3.6598 0
M  V30 946 H 86.4458 2.79773 3.07734 0
M  V30 947 H 85.0228 1.03713 3.58187 0
M  V30 948 N 87.2079 -1.17134 1.05439 0
M  V30 949 C 88.6189 -1.69084 0.791676 0
M  V30 950 C 88.9699 -1.83822 -0.685839 0
M  V30 951 O 88.0949 -1.52757 -1.53278 0
M  V30 952 C 88.6899 -3.07119 1.4305 0
M  V30 953 C 87.2489 -3.56225 1.21577 0
M  V30 954 C 86.3959 -2.32421 1.51247 0
M  V30 955 H 89.3469 -1.01617 1.219 0
M  V30 956 H 89.3679 -3.71087 0.84112 0
M  V30 957 H 88.8799 -2.9636 2.50584 0
M  V30 958 H 86.9809 -3.72257 0.159787 0
M  V30 959 H 87.0939 -4.38837 1.92246 0
M  V30 960 H 85.4579 -2.3701 0.932653 0
M  V30 961 H 86.2409 -2.24268 2.5992 0
M  V30 962 N 88.686 -0.835752 -1.33615 0
M  V30 963 C 89.596 -0.269088 -2.33052 0
M  V30 964 C 90.612 0.603251 -1.63208 0
M  V30 965 O 91.788 0.508112 -1.94885 0
M  V30 966 C 88.853 0.549091 -3.42324 0
M  V30 967 C 87.914 -0.347156 -4.27894 0
M  V30 968 C 87.147 0.43207 -5.31948 0
M  V30 969 O 87.37 1.66409 -5.45586 0
M  V30 970 O 86.304 -0.192298 -6.01593 0
M  V30 971 H 90.13 -1.09243 -2.83372 0
M  V30 972 H 87.715 -0.598198 -1.36901 0
M  V30 973 H 89.597 1.01414 -4.09015 0
M  V30 974 H 88.272 1.34955 -2.94226 0
M  V30 975 H 87.179 -0.859979 -3.64081 0
M  V30 976 H 88.512 -1.1123 -4.79467 0
M  V30 977 N 90.1641 1.46063 -0.591896 0
M  V30 978 C 91.0741 2.34192 0.13831 0
M  V30 979 C 92.0901 1.50305 0.876608 0
M  V30 980 O 93.2661 1.8315 0.837728 0
M  V30 981 C 90.3311 3.27656 1.13326 0
M  V30 982 C 89.3921 4.27445 0.39863 0
M  V30 983 C 88.6251 5.16443 1.34618 0
M  V30 984 O 88.8481 5.08553 2.58321 0
M  V30 985 O 87.7821 5.95843 0.851768 0
M  V30 986 H 91.6081 2.98002 -0.58552 0
M  V30 987 H 89.1931 1.45188 -0.352239 0
M  V30 988 H 91.0751 3.85291 1.70671 0
M  V30 989 H 89.7501 2.6643 1.83839 0
M  V30 990 H 88.6571 3.73471 -0.216895 0
M  V30 991 H 89.9901 4.91482 -0.265709 0
M  V30 992 N 91.6422 0.330177 1.54103 0
M  V30 993 C 92.5722 -0.525353 2.27513 0
M  V30 994 C 93.5532 -1.11383 1.2856 0
M  V30 995 O 94.7382 -1.13773 1.57383 0
M  V30 996 C 91.8682 -1.6831 3.03791 0
M  V30 997 C 90.8222 -1.2236 4.10137 0
M  V30 998 C 90.1482 -2.46882 4.74293 0
M  V30 999 C 91.4482 -0.333697 5.21233 0
M  V30 1000 H 93.1422 0.087013 2.99274 0
M  V30 1001 H 90.6882 0.0432893 1.43935 0
M  V30 1002 H 92.6412 -2.28795 3.5388 0
M  V30 1003 H 91.3652 -2.32216 2.29659 0
M  V30 1004 H 90.0242 -0.64165 3.60941 0
M  V30 1005 H 89.6722 -3.09165 3.96769 0
M  V30 1006 H 89.3722 -2.16825 5.46133 0
M  V30 1007 H 90.8962 -3.08117 5.27159 0
M  V30 1008 H 92.3102 -0.845013 5.67038 0
M  V30 1009 H 90.7072 -0.125612 5.99969 0
M  V30 1010 H 91.7772 0.633724 4.80741 0
M  V30 1011 N 93.1203 -1.57491 0.0584922 0
M  V30 1012 C 94.3663 -1.93264 -0.614558 0
M  V30 1013 C 94.6993 -0.937717 -1.7006 0
M  V30 1014 O 93.9743 0.0351652 -1.94468 0
M  V30 1015 C 94.2573 -3.3938 -1.20386 0
M  V30 1016 C 94.1103 -4.49625 -0.125375 0
M  V30 1017 C 95.4293 -3.86039 -2.11334 0
M  V30 1018 H 92.5483 -0.702791 -0.221933 0
M  V30 1019 H 95.1903 -1.8961 0.12175 0
M  V30 1020 H 93.3403 -3.42626 -1.83139 0
M  V30 1021 H 95.0123 -4.58506 0.506971 0
M  V30 1022 H 93.2553 -4.30354 0.545672 0
M  V30 1023 H 93.9263 -5.48967 -0.577861 0
M  V30 1024 H 96.4023 -3.84716 -1.58534 0
M  V30 1025 H 95.2783 -4.88914 -2.49507 0
M  V30 1026 H 95.5393 -3.23215 -3.01636 0
M  V30 1027 N 94.5984 0.214957 -1.56127 0
M  V30 1028 C 95.8284 0.953707 -1.8327 0
M  V30 1029 C 96.2364 1.78181 -0.636262 0
M  V30 1030 O 95.5794 1.79191 0.404516 0
M  V30 1031 C 95.6414 1.91516 -3.0424 0
M  V30 1032 C 95.3054 1.27094 -4.38972 0
M  V30 1033 C 96.3024 0.657575 -5.15725 0
M  V30 1034 C 93.9874 1.28073 -4.85698 0
M  V30 1035 C 95.9814 0.0625968 -6.37369 0
M  V30 1036 C 93.6684 0.681914 -6.07283 0
M  V30 1037 C 94.6664 0.0739046 -6.8296 0
M  V30 1038 O 94.3544 -0.515582 -8.02245 0
M  V30 1039 H 94.0864 0.284764 -0.613095 0
M  V30 1040 H 96.6404 0.233283 -2.04071 0
M  V30 1041 H 94.8704 2.67475 -2.79274 0
M  V30 1042 H 96.5594 2.52001 -3.18198 0
M  V30 1043 H 97.3254 0.642288 -4.80728 0
M  V30 1044 H 93.2044 1.74337 -4.26764 0
M  V30 1045 H 96.7484 -0.412593 -6.96379 0
M  V30 1046 H 92.6454 0.694636 -6.41752 0
M  V30 1047 H 93.4134 -0.410544 -8.1747 0
M  V30 1048 N 96.0765 1.50051 0.48192 0
M  V30 1049 C 97.0085 1.64263 1.59844 0
M  V30 1050 C 98.0215 0.52451 1.54119 0
M  V30 1051 O 99.2105 0.797293 1.59704 0
M  V30 1052 C 96.3105 1.60102 2.98698 0
M  V30 1053 C 95.4835 2.87767 3.29407 0
M  V30 1054 C 94.5425 2.76397 4.47762 0
M  V30 1055 O 93.5685 3.50348 4.48603 0
M  V30 1056 N 94.7705 1.89222 5.48794 0
M  V30 1057 H 97.5355 2.60566 1.48073 0
M  V30 1058 H 95.0965 1.47379 0.670149 0
M  V30 1059 H 97.0885 1.50123 3.75826 0
M  V30 1060 H 95.6585 0.715798 3.04294 0
M  V30 1061 H 94.8785 3.11954 2.40994 0
M  V30 1062 H 96.1665 3.72365 3.4673 0
M  V30 1063 H 95.5645 1.28434 5.50928 0
M  V30 1064 H 94.1215 1.85154 6.24949 0
M  V30 1065 N 97.5546 -0.734337 1.39446 0
M  V30 1066 C 98.7846 -1.52137 1.39778 0
M  V30 1067 C 99.1926 -1.89198 -0.00929312 0
M  V30 1068 O 98.5356 -1.54666 -0.991168 0
M  V30 1069 C 98.5976 -2.83762 2.20724 0
M  V30 1070 C 98.2616 -2.69131 3.69347 0
M  V30 1071 C 99.2586 -2.37635 4.62413 0
M  V30 1072 C 96.9436 -2.85982 4.1294 0
M  V30 1073 C 98.9376 -2.23172 5.97054 0
M  V30 1074 C 96.6246 -2.71137 5.47657 0
M  V30 1075 C 97.6226 -2.39777 6.39528 0
M  V30 1076 O 97.3106 -2.25026 7.71763 0
M  V30 1077 H 97.0426 -0.476717 0.479288 0
M  V30 1078 H 99.5966 -0.915012 1.83893 0
M  V30 1079 H 97.8266 -3.4666 1.71359 0
M  V30 1080 H 99.5156 -3.45383 2.13226 0
M  V30 1081 H 100.282 -2.24267 4.30034 0
M  V30 1082 H 96.1606 -3.09383 3.41765 0
M  V30 1083 H 99.7046 -1.98617 6.68728 0
M  V30 1084 H 95.6016 -2.84083 5.79626 0
M  V30 1085 H 96.3696 -2.40091 7.82495 0
M  V30 1086 N 99.0327 -1.24633 -0.964593 0
M  V30 1087 C 100.279 -1.08949 -1.71049 0
M  V30 1088 C 100.612 0.370302 -1.90637 0
M  V30 1089 O 99.8867 1.27349 -1.47011 0
M  V30 1090 C 100.17 -1.83329 -3.0994 0
M  V30 1091 C 100.023 -3.37077 -2.97824 0
M  V30 1092 C 101.342 -1.60846 -4.09654 0
M  V30 1093 H 98.4607 -0.397178 -0.620821 0
M  V30 1094 H 101.103 -1.5334 -1.12191 0
M  V30 1095 H 99.2527 -1.45597 -3.60186 0
M  V30 1096 H 100.925 -3.84425 -2.5498 0
M  V30 1097 H 99.1677 -3.65298 -2.33965 0
M  V30 1098 H 99.8387 -3.84324 -3.96231 0
M  V30 1099 H 102.315 -1.93674 -3.68279 0
M  V30 1100 H 101.191 -2.1534 -5.04896 0
M  V30 1101 H 101.452 -0.547434 -4.38698 0
M  V30 1102 N 100.511 1.16574 -1.06058 0
M  V30 1103 C 101.421 2.2452 -0.680282 0
M  V30 1104 C 102.437 1.71348 0.302604 0
M  V30 1105 O 103.613 2.00822 0.152513 0
M  V30 1106 C 100.678 3.46629 -0.0700315 0
M  V30 1107 C 99.7388 4.14849 -1.10448 0
M  V30 1108 C 98.9718 5.31129 -0.523256 0
M  V30 1109 O 99.1948 5.66514 0.664709 0
M  V30 1110 O 98.1288 5.88526 -1.26179 0
M  V30 1111 H 101.955 2.59355 -1.58015 0
M  V30 1112 H 99.5398 1.24043 -0.832694 0
M  V30 1113 H 101.422 4.20543 0.268667 0
M  V30 1114 H 100.097 3.13573 0.803353 0
M  V30 1115 H 99.0038 3.42916 -1.49532 0
M  V30 1116 H 100.337 4.51954 -1.94931 0
M  V30 1117 N 101.989 0.842826 1.3317 0
M  V30 1118 C 102.936 0.276885 2.29133 0
M  V30 1119 C 103.906 -0.609527 1.54512 0
M  V30 1120 O 105.091 -0.546955 1.82792 0
M  V30 1121 C 102.231 -0.538707 3.40869 0
M  V30 1122 C 101.344 0.372169 4.30394 0
M  V30 1123 C 100.479 -0.454908 5.29249 0
M  V30 1124 C 99.5179 0.45411 6.10413 0
M  V30 1125 N 98.6549 -0.335075 7.013 0
M  V30 1126 H 103.495 1.10052 2.76934 0
M  V30 1127 H 101.032 0.554161 1.36262 0
M  V30 1128 H 102.99 -1.02709 4.0436 0
M  V30 1129 H 101.62 -1.32727 2.9425 0
M  V30 1130 H 100.672 0.97888 3.6759 0
M  V30 1131 H 101.984 1.0703 4.87182 0
M  V30 1132 H 101.138 -1.00695 5.98285 0
M  V30 1133 H 99.8769 -1.18646 4.73048 0
M  V30 1134 H 98.8819 1.01813 5.40291 0
M  V30 1135 H 100.107 1.18409 6.68697 0
M  V30 1136 H 98.0529 -1.04994 6.47543 0
M  V30 1137 H 97.9699 0.304262 7.55387 0
M  V30 1138 H 99.2379 -0.869224 7.74638 0
M  V30 1139 N 103.467 -1.45747 0.599634 0
M  V30 1140 C 104.415 -2.322 -0.136426 0
M  V30 1141 C 105.409 -1.45497 -0.867583 0
M  V30 1142 O 106.615 -1.62027 -0.78405 0
M  V30 1143 H 102.99 -0.749368 -0.0628588 0
M  V30 1144 H 104.961 -2.92072 0.611281 0
M  V30 1145 C 103.71 -3.28974 -1.12567 0
M  V30 1146 H 103.033 -3.9568 -0.572484 0
M  V30 1147 H 104.473 -3.92212 -1.61077 0
M  V30 1148 C 102.932 -2.55561 -2.19523 0
M  V30 1149 O 103.462 -2.33111 -3.27143 0
M  V30 1150 N 101.668 -2.15832 -1.94589 0
M  V30 1151 H 101.215 -2.3429 -1.07078 0
M  V30 1152 H 101.173 -1.67034 -2.66359 0
M  V30 1153 N 104.945 -0.338344 -1.53925 0
M  V30 1154 C 105.855 0.529421 -2.28548 0
M  V30 1155 C 106.871 1.11645 -1.3346 0
M  V30 1156 O 108.047 1.13325 -1.66492 0
M  V30 1157 C 105.112 1.66713 -3.03987 0
M  V30 1158 C 104.173 1.11041 -4.14691 0
M  V30 1159 C 103.406 2.19389 -4.86522 0
M  V30 1160 O 103.629 3.40013 -4.57982 0
M  V30 1161 O 102.563 1.83976 -5.73094 0
M  V30 1162 H 106.389 -0.0770399 -3.03602 0
M  V30 1163 H 103.974 -0.103555 -1.49041 0
M  V30 1164 H 105.856 2.32918 -3.5118 0
M  V30 1165 H 104.531 2.25949 -2.31794 0
M  V30 1166 H 103.438 0.413024 -3.71813 0
M  V30 1167 H 104.771 0.562975 -4.8897 0
M  V30 1168 N 106.423 1.57458 -0.0668435 0
M  V30 1169 C 107.371 2.13639 0.919851 0
M  V30 1170 C 108.365 1.07204 1.31163 0
M  V30 1171 O 109.571 1.25591 1.28945 0
M  V30 1172 H 105.946 0.683048 0.314562 0
M  V30 1173 H 107.917 2.95415 0.421047 0
M  V30 1174 C 106.666 2.70892 2.17975 0
M  V30 1175 H 105.989 3.5246 1.88711 0
M  V30 1176 H 107.429 3.13803 2.85138 0
M  V30 1177 C 105.888 1.65414 2.93496 0
M  V30 1178 O 106.418 1.07619 3.87015 0
M  V30 1179 N 104.624 1.36564 2.56512 0
M  V30 1180 H 104.171 1.83751 1.80536 0
M  V30 1181 H 104.129 0.66223 3.07347 0
M  V30 1182 N 107.901 -0.206675 1.56239 0
M  V30 1183 C 108.848 -1.25617 1.93621 0
M  V30 1184 C 109.818 -1.45824 0.795274 0
M  V30 1185 O 111.003 -1.59148 1.05245 0
M  V30 1186 C 108.143 -2.59839 2.27107 0
M  V30 1187 C 107.256 -2.47308 3.54207 0
M  V30 1188 C 106.391 -3.74155 3.7707 0
M  V30 1189 C 105.43 -3.56407 4.97635 0
M  V30 1190 N 104.567 -4.75238 5.1681 0
M  V30 1191 H 109.407 -0.930383 2.83104 0
M  V30 1192 H 106.944 -0.448065 1.4011 0
M  V30 1193 H 108.902 -3.38021 2.44535 0
M  V30 1194 H 107.532 -2.90485 1.40778 0
M  V30 1195 H 106.584 -1.60483 3.4489 0
M  V30 1196 H 107.896 -2.30122 4.42544 0
M  V30 1197 H 107.05 -4.60778 3.94675 0
M  V30 1198 H 105.789 -3.94282 2.87042 0
M  V30 1199 H 104.794 -2.68168 4.79964 0
M  V30 1200 H 106.019 -3.37736 5.89161 0
M  V30 1201 H 103.965 -4.95651 4.29728 0
M  V30 1202 H 103.882 -4.60835 5.99306 0
M  V30 1203 H 105.15 -5.63246 5.38864 0
M  V30 1204 N 109.379 -1.50304 -0.473955 0
M  V30 1205 C 110.626 -1.6115 -1.22625 0
M  V30 1206 C 110.954 -0.310517 -1.92005 0
M  V30 1207 O 110.209 0.703419 -1.82621 0
M  V30 1208 C 110.508 -2.73938 -2.29549 0
M  V30 1209 C 110.174 -4.14519 -1.7744 0
M  V30 1210 C 108.836 -4.5277 -1.62949 0
M  V30 1211 C 111.188 -5.02392 -1.3875 0
M  V30 1212 C 108.516 -5.76639 -1.08187 0
M  V30 1213 C 110.868 -6.26805 -0.854309 0
M  V30 1214 C 109.532 -6.63861 -0.696011 0
M  V30 1215 H 108.802 -0.589691 -0.448715 0
M  V30 1216 H 111.449 -1.84228 -0.522705 0
M  V30 1217 H 109.754 -2.44937 -3.05799 0
M  V30 1218 H 111.451 -2.79534 -2.87509 0
M  V30 1219 H 108.041 -3.8434 -1.89685 0
M  V30 1220 H 112.225 -4.73474 -1.4878 0
M  V30 1221 H 107.481 -6.04027 -0.946666 0
M  V30 1222 H 111.655 -6.94258 -0.545843 0
M  V30 1223 H 109.282 -7.59722 -0.26952 0
M  V30 1224 N 110.857 0.726932 -1.39834 0
M  V30 1225 C 111.804 1.841 -1.39197 0
M  V30 1226 C 112.774 1.642 -0.250502 0
M  V30 1227 O 113.959 1.85494 -0.446846 0
M  V30 1228 C 111.099 3.21697 -1.24919 0
M  V30 1229 C 110.212 3.53247 -2.48678 0
M  V30 1230 C 109.347 4.80289 -2.26928 0
M  V30 1231 C 108.386 5.04707 -3.4632 0
M  V30 1232 N 107.523 6.22956 -3.23836 0
M  V30 1233 H 112.363 1.83979 -2.34427 0
M  V30 1234 H 109.9 0.898876 -1.16442 0
M  V30 1235 H 111.858 4.01137 -1.1465 0
M  V30 1236 H 110.488 3.21076 -0.333153 0
M  V30 1237 H 109.54 2.68447 -2.69519 0
M  V30 1238 H 110.852 3.67205 -3.37582 0
M  V30 1239 H 110.006 5.67725 -2.13947 0
M  V30 1240 H 108.745 4.68519 -1.35431 0
M  V30 1241 H 107.75 4.1573 -3.5979 0
M  V30 1242 H 108.975 5.18357 -4.38729 0
M  V30 1243 H 106.921 6.12459 -2.35011 0
M  V30 1244 H 106.838 6.37539 -4.063 0
M  V30 1245 H 108.106 7.1321 -3.14566 0
M  V30 1246 N 112.336 1.25143 0.95797 0
M  V30 1247 C 113.583 1.09692 1.70217 0
M  V30 1248 C 113.911 -0.362654 1.91089 0
M  V30 1249 O 113.166 -1.28386 1.47701 0
M  V30 1250 C 113.465 1.79272 3.09187 0
M  V30 1251 C 113.131 3.29196 3.08125 0
M  V30 1252 C 111.793 3.70096 3.07543 0
M  V30 1253 C 114.145 4.24995 3.0171 0
M  V30 1254 C 111.473 5.05213 2.9829 0
M  V30 1255 C 113.825 5.60132 2.93999 0
M  V30 1256 C 112.489 6.00365 2.9175 0
M  V30 1257 H 111.759 0.401393 0.622868 0
M  V30 1258 H 114.406 1.55372 1.11945 0
M  V30 1259 H 112.711 1.26014 3.70982 0
M  V30 1260 H 114.408 1.64773 3.65583 0
M  V30 1261 H 110.998 2.96651 3.09348 0
M  V30 1262 H 115.182 3.9439 3.01281 0
M  V30 1263 H 110.438 5.35569 2.94916 0
M  V30 1264 H 114.612 6.3406 2.87996 0
M  V30 1265 H 112.239 7.05023 2.84336 0
M  V30 1266 N 113.814 -1.1601 1.06675 0
M  V30 1267 C 114.764 -2.18512 0.650888 0
M  V30 1268 C 115.748 -1.57677 -0.320441 0
M  V30 1269 O 116.94 -1.76482 -0.135266 0
M  V30 1270 C 114.069 -3.43273 0.0429255 0
M  V30 1271 C 113.155 -4.11176 1.03898 0
M  V30 1272 N 113.546 -4.54672 2.216 0
M  V30 1273 C 111.844 -4.37417 0.870779 0
M  V30 1274 C 112.545 -5.07248 2.84736 0
M  V30 1275 N 111.521 -5.0037 2.12441 0
M  V30 1276 H 115.323 -2.49863 1.54745 0
M  V30 1277 H 112.837 -1.32503 0.938975 0
M  V30 1278 H 114.834 -4.16006 -0.272857 0
M  V30 1279 H 113.494 -3.13408 -0.84884 0
M  V30 1280 H 114.505 -4.4828 2.59356 0
M  V30 1281 H 111.182 -4.17488 0.0313293 0
M  V30 1282 H 112.572 -5.50912 3.84636 0
M  V30 1283 N 115.292 -0.849877 -1.32721 0
M  V30 1284 C 116.202 -0.293791 -2.32753 0
M  V30 1285 C 117.218 0.585906 -1.63839 0
M  V30 1286 O 118.394 0.487413 -1.95413 0
M  V30 1287 C 115.459 0.512752 -3.42887 0
M  V30 1288 C 114.52 -0.39252 -4.27502 0
M  V30 1289 C 113.753 0.375625 -5.32377 0
M  V30 1290 O 113.976 1.60613 -5.4732 0
M  V30 1291 O 112.91 -0.256094 -6.01355 0
M  V30 1292 H 116.736 -1.12242 -2.82197 0
M  V30 1293 H 114.321 -0.612685 -1.36259 0
M  V30 1294 H 116.203 0.970704 -4.10067 0
M  V30 1295 H 114.878 1.31826 -2.95641 0
M  V30 1296 H 113.785 -0.898547 -3.63149 0
M  V30 1297 H 115.118 -1.16309 -4.7826 0
M  V30 1298 N 116.77 1.45427 -0.607355 0
M  V30 1299 C 117.718 2.32269 0.12411 0
M  V30 1300 C 118.712 1.45955 0.859854 0
M  V30 1301 O 119.918 1.6244 0.775447 0
M  V30 1302 H 116.293 0.749691 0.0588839 0
M  V30 1303 H 118.264 2.91743 -0.626762 0
M  V30 1304 C 117.013 3.29567 1.1082 0
M  V30 1305 H 116.336 3.95978 0.551492 0
M  V30 1306 H 117.776 3.93061 1.58995 0
M  V30 1307 C 116.235 2.56722 2.18164 0
M  V30 1308 O 116.765 2.34842 3.25902 0
M  V30 1309 N 114.971 2.16861 1.93442 0
M  V30 1310 H 114.518 2.34855 1.05834 0
M  V30 1311 H 114.476 1.68444 2.65469 0
M  V30 1312 N 118.248 0.346503 1.53744 0
M  V30 1313 C 119.211 -0.496439 2.23759 0
M  V30 1314 C 120.211 -1.0252 1.2388 0
M  V30 1315 O 121.401 -0.913974 1.48297 0
M  V30 1316 C 118.533 -1.69187 2.95954 0
M  V30 1317 H 119.726 0.115952 2.99676 0
M  V30 1318 H 117.279 0.0978939 1.55993 0
M  V30 1319 H 118.014 -2.34288 2.24231 0
M  V30 1320 H 117.799 -1.31989 3.69217 0
M  V30 1321 H 119.289 -2.28969 3.49232 0
M  V30 1322 N 119.726 -1.57421 0.075193 0
M  V30 1323 C 120.673 -2.12915 -0.890843 0
M  V30 1324 C 121.643 -1.04252 -1.29309 0
M  V30 1325 O 122.828 -1.31933 -1.37834 0
M  V30 1326 C 119.968 -2.69795 -2.15186 0
M  V30 1327 C 119.081 -3.92624 -1.80194 0
M  V30 1328 C 118.216 -4.37736 -3.00933 0
M  V30 1329 C 117.255 -5.53205 -2.61974 0
M  V30 1330 N 116.392 -5.9326 -3.75483 0
M  V30 1331 H 121.232 -2.95156 -0.410735 0
M  V30 1332 H 118.769 -1.45854 -0.191086 0
M  V30 1333 H 120.727 -3.00883 -2.89008 0
M  V30 1334 H 119.357 -1.90313 -2.60731 0
M  V30 1335 H 118.409 -3.67977 -0.964218 0
M  V30 1336 H 119.721 -4.76482 -1.47534 0
M  V30 1337 H 118.875 -4.70503 -3.8303 0
M  V30 1338 H 117.614 -3.52739 -3.36789 0
M  V30 1339 H 116.619 -5.20086 -1.783 0
M  V30 1340 H 117.844 -6.39936 -2.27284 0
M  V30 1341 H 115.79 -5.11212 -4.11094 0
M  V30 1342 H 115.707 -6.71865 -3.46602 0
M  V30 1343 H 116.975 -6.30651 -4.58148 0
M  V30 1344 N 121.204 0.198386 -1.56346 0
M  V30 1345 C 122.481 0.944982 -1.71258 0
M  V30 1346 C 122.861 2.0151 -0.629048 0
M  V30 1347 O 122.209 2.25639 0.360473 0
M  V30 1348 C 122.419 1.5344 -3.1346 0
M  V30 1349 C 123.767 2.01778 -3.73591 0
M  V30 1350 O 124.791 1.63288 -3.16568 0
M  V30 1351 O 123.65 2.72594 -4.73661 0
M  V30 1352 H 120.744 0.442939 -0.69838 0
M  V30 1353 H 123.29 0.188342 -1.68652 0
M  V30 1354 H 122.062 0.762869 -3.83792 0
M  V30 1355 H 121.685 2.35596 -3.20282 0
M  V30 1356 N 122.682 1.50554 0.465978 0
M  V30 1357 C 123.91 1.65563 1.24083 0
M  V30 1358 C 124.325 0.341051 1.85694 0
M  V30 1359 O 123.682 -0.677543 1.69457 0
M  V30 1360 C 123.733 2.75051 2.34583 0
M  V30 1361 O 123.454 4.01413 1.75497 0
M  V30 1362 C 124.955 3.01078 3.25372 0
M  V30 1363 H 122.175 0.55638 0.375077 0
M  V30 1364 H 124.719 1.96807 0.555624 0
M  V30 1365 H 122.874 2.46486 2.9887 0
M  V30 1366 H 123.288 4.62002 2.48303 0
M  V30 1367 H 124.762 3.81339 3.99105 0
M  V30 1368 H 125.239 2.12349 3.84453 0
M  V30 1369 H 125.845 3.31194 2.66816 0
M  V30 1370 N 124.16 -0.719506 1.40217 0
M  V30 1371 C 125.09 -1.8465 1.42922 0
M  V30 1372 C 126.071 -1.67599 0.29062 0
M  V30 1373 O 127.256 -1.87688 0.498677 0
M  V30 1374 C 124.386 -3.22565 1.28722 0
M  V30 1375 C 123.34 -3.54281 2.40144 0
M  V30 1376 C 122.666 -4.91298 2.11023 0
M  V30 1377 C 123.966 -3.55676 3.82481 0
M  V30 1378 H 125.66 -1.82644 2.37237 0
M  V30 1379 H 123.206 -0.877305 1.1419 0
M  V30 1380 H 125.159 -4.01095 1.29232 0
M  V30 1381 H 123.883 -3.25137 0.308811 0
M  V30 1382 H 122.542 -2.78088 2.38877 0
M  V30 1383 H 122.19 -4.90468 1.11582 0
M  V30 1384 H 121.89 -5.13485 2.8567 0
M  V30 1385 H 123.414 -5.72166 2.13209 0
M  V30 1386 H 124.828 -4.24254 3.85592 0
M  V30 1387 H 123.225 -3.89388 4.56614 0
M  V30 1388 H 124.295 -2.55144 4.12346 0
M  V30 1389 N 125.638 -1.25649 -0.95132 0
M  V30 1390 C 126.57 -1.02112 -2.05197 0
M  V30 1391 C 127.583 0.0150571 -1.62793 0
M  V30 1392 O 128.772 -0.223874 -1.77091 0
M  V30 1393 C 125.872 -0.522361 -3.3485 0
M  V30 1394 C 125.045 -1.62546 -4.06076 0
M  V30 1395 C 124.104 -1.12649 -5.14001 0
M  V30 1396 O 123.13 -1.82156 -5.39266 0
M  V30 1397 N 124.332 0.03047 -5.80492 0
M  V30 1398 H 127.097 -1.96885 -2.25957 0
M  V30 1399 H 124.658 -1.16899 -1.1201 0
M  V30 1400 H 126.65 -0.172961 -4.0433 0
M  V30 1401 H 125.22 0.33151 -3.10837 0
M  V30 1402 H 124.44 -2.14628 -3.30649 0
M  V30 1403 H 125.728 -2.36644 -4.50419 0
M  V30 1404 H 125.126 0.611169 -5.62389 0
M  V30 1405 H 123.683 0.320875 -6.5101 0
M  V30 1406 N 127.117 1.15442 -1.07289 0
M  V30 1407 C 128.047 2.22312 -0.714107 0
M  V30 1408 C 129.028 1.67467 0.298155 0
M  V30 1409 O 130.213 1.93445 0.171048 0
M  V30 1410 C 127.343 3.47124 -0.110448 0
M  V30 1411 C 126.297 4.14926 -1.04979 0
M  V30 1412 C 125.623 5.33807 -0.308924 0
M  V30 1413 C 126.923 4.64762 -2.38314 0
M  V30 1414 H 128.617 2.5258 -1.6076 0
M  V30 1415 H 126.163 1.21404 -0.77441 0
M  V30 1416 H 128.116 4.21124 0.152482 0
M  V30 1417 H 126.84 3.16187 0.81812 0
M  V30 1418 H 125.499 3.42866 -1.29764 0
M  V30 1419 H 125.147 4.99126 0.623084 0
M  V30 1420 H 124.847 5.80113 -0.935036 0
M  V30 1421 H 126.371 6.10576 -0.0537771 0
M  V30 1422 H 127.785 5.30292 -2.1786 0
M  V30 1423 H 126.182 5.21728 -2.96514 0
M  V30 1424 H 127.252 3.80434 -3.00663 0
M  V30 1425 N 128.595 0.856903 1.32268 0
M  V30 1426 C 129.542 0.301172 2.28827 0
M  V30 1427 C 130.512 -0.593104 1.5515 0
M  V30 1428 O 131.697 -0.527537 1.83362 0
M  V30 1429 C 128.837 -0.502523 3.41422 0
M  V30 1430 C 127.95 0.417797 4.29975 0
M  V30 1431 C 127.085 -0.398749 5.29701 0
M  V30 1432 C 126.124 0.518827 6.09897 0
M  V30 1433 N 125.261 -0.260674 7.01616 0
M  V30 1434 H 130.101 1.12983 2.75751 0
M  V30 1435 H 127.638 0.568582 1.35667 0
M  V30 1436 H 129.596 -0.984141 4.05426 0
M  V30 1437 H 128.226 -1.29599 2.95642 0
M  V30 1438 H 127.278 1.01781 3.66531 0
M  V30 1439 H 128.59 1.12191 4.86019 0
M  V30 1440 H 127.744 -0.943435 5.9932 0
M  V30 1441 H 126.483 -1.13622 4.7428 0
M  V30 1442 H 125.488 1.07538 5.39181 0
M  V30 1443 H 126.713 1.25495 6.67404 0
M  V30 1444 H 124.659 -0.981198 6.4862 0
M  V30 1445 H 124.576 0.384364 7.55022 0
M  V30 1446 H 125.844 -0.787014 7.75517 0
M  V30 1447 N 130.073 -1.45103 0.615059 0
M  V30 1448 C 130.983 -2.34382 -0.101034 0
M  V30 1449 C 131.999 -1.51681 -0.852585 0
M  V30 1450 O 133.175 -1.8446 -0.808484 0
M  V30 1451 C 130.24 -3.29417 -1.08099 0
M  V30 1452 C 129.301 -4.28025 -0.330577 0
M  V30 1453 C 128.534 -5.1852 -1.26385 0
M  V30 1454 O 128.757 -5.12598 -2.50198 0
M  V30 1455 O 127.691 -5.97122 -0.756866 0
M  V30 1456 H 131.517 -2.97033 0.632855 0
M  V30 1457 H 129.102 -1.4461 0.375293 0
M  V30 1458 H 130.984 -3.87958 -1.6452 0
M  V30 1459 H 129.659 -2.69321 -1.79577 0
M  V30 1460 H 128.566 -3.73078 0.276283 0
M  V30 1461 H 129.899 -4.90997 0.343866 0
M  V30 1462 N 131.551 -0.354651 -1.53558 0
M  V30 1463 C 132.498 0.496968 -2.25386 0
M  V30 1464 C 133.468 1.0865 -1.25636 0
M  V30 1465 O 134.653 1.12104 -1.54394 0
M  V30 1466 C 131.793 1.63637 -3.03837 0
M  V30 1467 C 130.906 1.07307 -4.18461 0
M  V30 1468 C 130.041 2.18068 -4.84376 0
M  V30 1469 C 129.08 1.59147 -5.91049 0
M  V30 1470 N 128.217 2.63695 -6.50699 0
M  V30 1471 H 133.057 -0.122075 -2.9775 0
M  V30 1472 H 130.594 -0.0720154 -1.46924 0
M  V30 1473 H 132.552 2.30734 -3.47589 0
M  V30 1474 H 131.182 2.22623 -2.33749 0
M  V30 1475 H 130.234 0.292708 -3.79272 0
M  V30 1476 H 131.546 0.602193 -4.95152 0
M  V30 1477 H 130.7 2.93007 -5.31255 0
M  V30 1478 H 129.439 2.68504 -4.07133 0
M  V30 1479 H 128.444 0.827175 -5.43542 0
M  V30 1480 H 129.669 1.09549 -6.70206 0
M  V30 1481 H 127.615 3.13365 -5.76315 0
M  V30 1482 H 127.532 2.21263 -7.22896 0
M  V30 1483 H 128.8 3.3837 -7.02229 0
M  V30 1484 N 133.029 1.57378 -0.0835403 0
M  V30 1485 C 133.976 2.13384 0.879539 0
M  V30 1486 C 134.946 1.04936 1.28754 0
M  V30 1487 O 136.131 1.32662 1.37133 0
M  V30 1488 C 133.271 2.70932 2.13752 0
M  V30 1489 C 132.384 3.93575 1.7811 0
M  V30 1490 C 131.519 4.39326 2.98607 0
M  V30 1491 C 130.558 5.54587 2.59037 0
M  V30 1492 N 129.695 5.95243 3.72331 0
M  V30 1493 H 134.535 2.9537 0.395076 0
M  V30 1494 H 132.072 1.45953 0.183349 0
M  V30 1495 H 134.03 3.02411 2.87408 0
M  V30 1496 H 132.66 1.91693 2.59718 0
M  V30 1497 H 131.712 3.68483 0.94469 0
M  V30 1498 H 133.024 4.77258 1.45005 0
M  V30 1499 H 132.178 4.72528 3.80529 0
M  V30 1500 H 130.917 3.5452 3.34913 0
M  V30 1501 H 129.922 5.21024 1.75539 0
M  V30 1502 H 131.147 6.41133 2.23887 0
M  V30 1503 H 129.093 5.13385 4.08378 0
M  V30 1504 H 129.01 6.73694 3.43034 0
M  V30 1505 H 130.278 6.33072 4.54797 0
M  V30 1506 N 134.507 -0.190092 1.56449 0
M  V30 1507 C 135.455 -1.25501 1.95837 0
M  V30 1508 C 136.449 -1.4685 0.844485 0
M  V30 1509 O 137.655 -1.47651 1.02952 0
M  V30 1510 H 134.03 -0.421447 0.622805 0
M  V30 1511 H 136.001 -0.895821 2.84636 0
M  V30 1512 C 134.75 -2.59124 2.31841 0
M  V30 1513 H 134.073 -2.43514 3.17082 0
M  V30 1514 H 135.513 -3.32371 2.6326 0
M  V30 1515 C 133.972 -3.16488 1.15486 0
M  V30 1516 O 134.502 -3.99365 0.432535 0
M  V30 1517 N 132.708 -2.75305 0.930349 0
M  V30 1518 H 132.255 -2.08013 1.51948 0
M  V30 1519 H 132.213 -3.14024 0.153634 0
M  V30 1520 N 135.985 -1.50799 -0.457987 0
M  V30 1521 C 137.262 -1.52968 -1.21902 0
M  V30 1522 C 137.642 -0.281906 -2.09209 0
M  V30 1523 O 136.99 0.734076 -2.16388 0
M  V30 1524 C 137.2 -2.8326 -2.03875 0
M  V30 1525 C 138.548 -3.34425 -2.6162 0
M  V30 1526 O 139.572 -2.8467 -2.14106 0
M  V30 1527 O 138.431 -4.21188 -3.48228 0
M  V30 1528 H 135.525 -0.614129 -0.553873 0
M  V30 1529 H 138.071 -1.63098 -0.468739 0
M  V30 1530 H 136.843 -3.65543 -1.39621 0
M  V30 1531 H 136.466 -2.76195 -2.8601 0
M  V30 1532 N 137.463 0.71206 -1.40597 0
M  V30 1533 C 138.411 1.84746 -1.41321 0
M  V30 1534 C 139.405 1.66842 -0.293268 0
M  V30 1535 O 140.611 1.73904 -0.464481 0
M  V30 1536 H 136.986 0.608522 -0.441819 0
M  V30 1537 H 138.957 1.81252 -2.37045 0
M  V30 1538 C 137.706 3.22638 -1.29614 0
M  V30 1539 H 137.029 3.37023 -2.15071 0
M  V30 1540 H 138.469 4.02209 -1.3418 0
M  V30 1541 C 136.928 3.36899 -0.00673121 0
M  V30 1542 O 137.458 3.90186 0.954859 0
M  V30 1543 N 135.664 2.9053 0.0639327 0
M  V30 1544 H 135.211 2.47353 -0.719311 0
M  V30 1545 H 135.169 3.0045 0.926118 0
M  V30 1546 N 138.941 1.26152 0.944643 0
M  V30 1547 C 139.871 1.09902 2.06019 0
M  V30 1548 C 140.852 0.00519538 1.70099 0
M  V30 1549 O 142.037 0.176583 1.93396 0
M  V30 1550 C 139.167 0.727562 3.39594 0
M  V30 1551 C 138.121 1.77274 3.89561 0
M  V30 1552 C 137.447 1.25569 5.19747 0
M  V30 1553 C 138.747 3.17357 4.14827 0
M  V30 1554 H 140.441 2.03217 2.19871 0
M  V30 1555 H 137.987 0.978452 1.05652 0
M  V30 1556 H 139.94 0.600777 4.17095 0
M  V30 1557 H 138.664 -0.241287 3.25707 0
M  V30 1558 H 137.323 1.88814 3.14237 0
M  V30 1559 H 136.971 0.276783 5.02238 0
M  V30 1560 H 136.671 1.95433 5.54148 0
M  V30 1561 H 138.195 1.1415 5.99835 0
M  V30 1562 H 139.609 3.08914 4.82954 0
M  V30 1563 H 138.006 3.84781 4.60504 0
M  V30 1564 H 139.076 3.63673 3.20734 0
M  V30 1565 N 140.419 -1.14872 1.07899 0
M  V30 1566 C 141.667 -1.85422 0.803941 0
M  V30 1567 C 141.988 -1.83051 -0.67211 0
M  V30 1568 O 141.258 -1.27532 -1.48703 0
M  V30 1569 H 139.838 -0.686537 0.294408 0
M  V30 1570 H 142.5 -1.39226 1.3639 0
M  V30 1571 H 141.596 -2.90399 1.14346 0
M  V30 1572 N 141.898 -0.863906 -1.31812 0
M  V30 1573 C 143.145 -0.471836 -1.96926 0
M  V30 1574 C 143.473 0.974578 -1.68322 0
M  V30 1575 O 142.728 1.7003 -0.968933 0
M  V30 1576 C 143.027 -0.668547 -3.51091 0
M  V30 1577 C 142.693 -2.08683 -3.99703 0
M  V30 1578 C 141.355 -2.47471 -4.12688 0
M  V30 1579 C 143.707 -3.01207 -4.25351 0
M  V30 1580 C 141.035 -3.78037 -4.4867 0
M  V30 1581 C 143.387 -4.31282 -4.62794 0
M  V30 1582 C 142.051 -4.69992 -4.73987 0
M  V30 1583 H 141.321 -0.172657 -0.720604 0
M  V30 1584 H 143.968 -1.09573 -1.57054 0
M  V30 1585 H 142.273 0.0385252 -3.91781 0
M  V30 1586 H 143.97 -0.345102 -3.99512 0
M  V30 1587 H 140.56 -1.77566 -3.90087 0
M  V30 1588 H 144.744 -2.72469 -4.14819 0
M  V30 1589 H 140 -4.078 -4.55532 0
M  V30 1590 H 144.174 -5.03031 -4.81594 0
M  V30 1591 H 141.801 -5.71207 -5.01624 0
M  V30 1592 N 143.376 1.44774 -0.622745 0
M  V30 1593 C 144.604 2.06487 -0.130722 0
M  V30 1594 C 145.019 1.46476 1.19123 0
M  V30 1595 O 144.376 0.584502 1.72887 0
M  V30 1596 C 144.427 3.615 -0.000807207 0
M  V30 1597 O 144.148 4.19274 -1.27048 0
M  V30 1598 C 145.649 4.40229 0.520898 0
M  V30 1599 H 142.869 0.666704 -0.0758106 0
M  V30 1600 H 145.413 1.85779 -0.854774 0
M  V30 1601 H 143.568 3.81498 0.673643 0
M  V30 1602 H 143.982 5.12622 -1.1099 0
M  V30 1603 H 145.456 5.49144 0.560838 0
M  V30 1604 H 145.933 4.1108 1.54627 0
M  V30 1605 H 146.539 4.25131 -0.120018 0
M  V30 1606 N 144.854 0.36279 1.53368 0
M  V30 1607 C 146.101 -0.227776 2.01215 0
M  V30 1608 C 146.429 -1.49003 1.25014 0
M  V30 1609 O 145.684 -1.92876 0.331236 0
M  V30 1610 C 145.983 -0.568417 3.52851 0
M  V30 1611 C 145.649 0.59918 4.46901 0
M  V30 1612 C 144.311 0.919559 4.72332 0
M  V30 1613 C 146.663 1.38156 5.02556 0
M  V30 1614 C 143.991 2.02434 5.5067 0
M  V30 1615 C 146.343 2.47674 5.821 0
M  V30 1616 C 145.007 2.8025 6.05819 0
M  V30 1617 H 144.277 -0.083349 0.736297 0
M  V30 1618 H 146.924 0.494677 1.85001 0
M  V30 1619 H 145.229 -1.37185 3.66998 0
M  V30 1620 H 146.926 -1.03756 3.87344 0
M  V30 1621 H 143.516 0.339437 4.27254 0
M  V30 1622 H 147.7 1.14729 4.82857 0
M  V30 1623 H 142.956 2.28075 5.67267 0
M  V30 1624 H 147.13 3.08716 6.24234 0
M  V30 1625 H 144.757 3.65979 6.66306 0
M  V30 1626 N 146.332 -1.57332 0.0918853 0
M  V30 1627 C 147.265 -2.09499 -0.904735 0
M  V30 1628 C 148.243 -1.00479 -1.27839 0
M  V30 1629 O 149.427 -1.27954 -1.38419 0
M  V30 1630 C 146.554 -2.56931 -2.2069 0
M  V30 1631 C 145.6 -3.77579 -1.98334 0
M  V30 1632 S 146.433 -5.21317 -1.22428 0
M  V30 1633 C 147.589 -5.72097 -2.53882 0
M  V30 1634 H 147.822 -2.93705 -0.460922 0
M  V30 1635 H 145.355 -1.53923 -0.121332 0
M  V30 1636 H 147.313 -2.84917 -2.95521 0
M  V30 1637 H 145.974 -1.72956 -2.62192 0
M  V30 1638 H 145.167 -4.08824 -2.94752 0
M  V30 1639 H 144.769 -3.5007 -1.31633 0
M  V30 1640 H 147.061 -5.80168 -3.49874 0
M  V30 1641 H 148.004 -6.70654 -2.27219 0
M  V30 1642 H 148.412 -5.00012 -2.62007 0
M  V30 1643 N 147.81 0.181792 -1.56548 0
M  V30 1644 C 149.226 0.53316 -1.50431 0
M  V30 1645 C 149.426 1.85184 -0.794297 0
M  V30 1646 O 148.482 2.50058 -0.350318 0
M  V30 1647 C 149.795 0.575597 -2.9514 0
M  V30 1648 C 151.343 0.663519 -3.05886 0
M  V30 1649 C 151.818 0.736946 -4.52032 0
M  V30 1650 N 153.309 0.800118 -4.56237 0
M  V30 1651 C 154.044 0.877327 -5.66649 0
M  V30 1652 N 153.54 0.916016 -6.86718 0
M  V30 1653 N 155.333 0.915542 -5.54594 0
M  V30 1654 H 147.484 -0.683025 -2.01118 0
M  V30 1655 H 149.747 -0.244988 -0.915797 0
M  V30 1656 H 149.453 -0.324482 -3.502 0
M  V30 1657 H 149.327 1.42572 -3.49218 0
M  V30 1658 H 151.714 1.55403 -2.50867 0
M  V30 1659 H 151.795 -0.21307 -2.54911 0
M  V30 1660 H 151.439 -0.149262 -5.07681 0
M  V30 1661 H 151.369 1.62953 -5.00753 0
M  V30 1662 H 153.86 0.778926 -3.69785 0
M  V30 1663 H 154.173 0.975813 -7.66614 0
M  V30 1664 H 152.518 0.884469 -6.89349 0
M  V30 1665 H 155.709 0.882245 -4.59711 0
M  V30 1666 H 155.882 0.972253 -6.40665 0
M  V30 1667 N 149.288 1.51039 0.449983 0
M  V30 1668 C 150.535 1.63081 1.20045 0
M  V30 1669 C 150.863 0.341024 1.91487 0
M  V30 1670 O 150.118 -0.674276 1.83717 0
M  V30 1671 C 150.417 2.77556 2.25161 0
M  V30 1672 C 150.083 4.17289 1.70823 0
M  V30 1673 C 148.745 4.55305 1.55725 0
M  V30 1674 C 151.097 5.04536 1.3074 0
M  V30 1675 C 148.425 5.78287 0.989999 0
M  V30 1676 C 150.777 6.28085 0.754482 0
M  V30 1677 C 149.441 6.64885 0.590308 0
M  V30 1678 H 148.711 0.596755 0.439277 0
M  V30 1679 H 151.358 1.85037 0.49333 0
M  V30 1680 H 149.663 2.49771 3.01863 0
M  V30 1681 H 151.36 2.84073 2.83026 0
M  V30 1682 H 147.95 3.8731 1.83546 0
M  V30 1683 H 152.134 4.75782 1.41229 0
M  V30 1684 H 147.39 6.05456 0.850451 0
M  V30 1685 H 151.564 6.95038 0.435324 0
M  V30 1686 H 149.191 7.60055 0.14862 0
M  V30 1687 N 150.766 -0.704594 1.40972 0
M  V30 1688 C 151.698 -1.82974 1.38033 0
M  V30 1689 C 152.711 -1.60305 0.283931 0
M  V30 1690 O 153.9 -1.69975 0.545042 0
M  V30 1691 C 151 -3.19578 1.12795 0
M  V30 1692 C 150.173 -3.69352 2.34302 0
M  V30 1693 C 149.232 -4.84601 2.05058 0
M  V30 1694 O 148.258 -4.96682 2.7802 0
M  V30 1695 N 149.46 -5.71194 1.03528 0
M  V30 1696 H 152.225 -1.85991 2.35005 0
M  V30 1697 H 149.786 -0.886567 1.35468 0
M  V30 1698 H 151.778 -3.9429 0.911987 0
M  V30 1699 H 150.348 -3.11642 0.24452 0
M  V30 1700 H 149.568 -2.85649 2.71659 0
M  V30 1701 H 150.856 -3.99345 3.1528 0
M  V30 1702 H 150.254 -5.64054 0.431217 0
M  V30 1703 H 148.811 -6.45843 0.879205 0
M  V30 1704 N 152.244 -1.26651 -0.937939 0
M  V30 1705 C 153.176 -1.04283 -2.04102 0
M  V30 1706 C 154.189 -0.00221014 -1.628 0
M  V30 1707 O 155.378 -0.242645 -1.76843 0
M  V30 1708 C 152.478 -0.557846 -3.34277 0
M  V30 1709 C 151.651 -1.66843 -4.04329 0
M  V30 1710 C 150.71 -1.18095 -5.12777 0
M  V30 1711 O 149.736 -1.87865 -5.37304 0
M  V30 1712 N 150.938 -0.0311006 -5.80492 0
M  V30 1713 H 153.703 -1.9927 -2.23856 0
M  V30 1714 H 151.264 -1.1808 -1.10764 0
M  V30 1715 H 153.256 -0.215836 -4.04124 0
M  V30 1716 H 151.826 0.298523 -3.11171 0
M  V30 1717 H 151.046 -2.18123 -3.28353 0
M  V30 1718 H 152.334 -2.41408 -4.47883 0
M  V30 1719 H 151.732 0.551486 -5.63005 0
M  V30 1720 H 150.289 0.251809 -6.51313 0
M  V30 1721 N 153.722 1.14298 -1.08507 0
M  V30 1722 C 154.95 1.89219 -0.836876 0
M  V30 1723 C 155.365 1.78638 0.611054 0
M  V30 1724 O 154.722 1.14643 1.41998 0
M  V30 1725 C 154.773 3.39158 -1.25116 0
M  V30 1726 O 154.494 3.49449 -2.64229 0
M  V30 1727 C 155.995 4.31073 -1.03398 0
M  V30 1728 H 153.215 0.599328 -0.301739 0
M  V30 1729 H 155.759 1.44746 -1.44461 0
M  V30 1730 H 153.914 3.81251 -0.687514 0
M  V30 1731 H 154.328 4.42589 -2.81452 0
M  V30 1732 H 155.802 5.34646 -1.37323 0
M  V30 1733 H 156.279 4.3919 0.0289259 0
M  V30 1734 H 156.885 3.94738 -1.58311 0
M  V30 1735 N 155.201 0.870884 1.31352 0
M  V30 1736 C 156.431 0.496049 2.00557 0
M  V30 1737 C 156.839 -0.916241 1.65534 0
M  V30 1738 O 156.182 -1.61188 0.881134 0
M  V30 1739 C 156.244 0.574418 3.54881 0
M  V30 1740 C 155.908 1.94849 4.1338 0
M  V30 1741 C 156.905 2.91611 4.30417 0
M  V30 1742 C 154.59 2.25005 4.49086 0
M  V30 1743 C 156.584 4.16672 4.82352 0
M  V30 1744 C 154.271 3.50315 5.00722 0
M  V30 1745 C 155.269 4.45964 5.17306 0
M  V30 1746 O 154.957 5.69052 5.67833 0
M  V30 1747 H 154.689 0.191664 0.64826 0
M  V30 1748 H 157.243 1.17409 1.68536 0
M  V30 1749 H 155.473 -0.160549 3.86367 0
M  V30 1750 H 157.162 0.212879 4.05341 0
M  V30 1751 H 157.928 2.69622 4.03149 0
M  V30 1752 H 153.807 1.51332 4.35453 0
M  V30 1753 H 157.351 4.91336 4.95211 0
M  V30 1754 H 153.248 3.72147 5.27424 0
M  V30 1755 H 154.016 5.71236 5.86201 0
M  V30 1756 N 156.679 -1.44442 0.630414 0
M  V30 1757 C 157.626 -2.30678 -0.0749355 0
M  V30 1758 C 158.596 -1.4344 -0.837502 0
M  V30 1759 O 159.781 -1.72343 -0.818684 0
M  V30 1760 C 156.921 -3.28706 -1.05103 0
M  V30 1761 C 156.034 -4.31046 -0.286954 0
M  V30 1762 C 155.169 -5.16167 -1.2548 0
M  V30 1763 C 154.208 -6.10216 -0.479843 0
M  V30 1764 N 153.345 -6.88039 -1.39811 0
M  V30 1765 H 158.185 -2.90454 0.666386 0
M  V30 1766 H 155.722 -1.43107 0.340404 0
M  V30 1767 H 157.68 -3.84027 -1.63031 0
M  V30 1768 H 156.31 -2.70632 -1.75949 0
M  V30 1769 H 155.362 -3.78203 0.408243 0
M  V30 1770 H 156.674 -4.97794 0.316657 0
M  V30 1771 H 155.828 -5.76002 -1.90544 0
M  V30 1772 H 154.567 -4.49491 -1.89233 0
M  V30 1773 H 153.572 -5.49491 0.184295 0
M  V30 1774 H 154.797 -6.78928 0.152965 0
M  V30 1775 H 152.743 -6.24032 -2.02287 0
M  V30 1776 H 152.66 -7.51223 -0.848508 0
M  V30 1777 H 153.928 -7.52397 -2.03762 0
M  V30 1778 N 158.157 -0.370918 -1.53173 0
M  V30 1779 C 159.405 0.216673 -2.00935 0
M  V30 1780 C 159.726 1.48845 -1.25977 0
M  V30 1781 O 158.996 1.92286 -0.374551 0
M  V30 1782 H 157.576 0.0830565 -0.742368 0
M  V30 1783 H 160.238 -0.49838 -1.8842 0
M  V30 1784 H 159.334 0.439893 -3.08984 0
M  V30 1785 N 159.635 1.57281 -0.100228 0
M  V30 1786 C 160.884 1.93713 0.561984 0
M  V30 1787 C 161.197 0.984492 1.69018 0
M  V30 1788 O 162.403 1.24273 2.41389 0
M  V30 1789 C 160.859 3.4421 1.05106 0
M  V30 1790 C 160.467 4.47975 -0.0476628 0
M  V30 1791 C 162.211 3.89595 1.68571 0
M  V30 1792 C 160.118 5.89631 0.457055 0
M  V30 1793 H 159.048 0.723082 0.2137 0
M  V30 1794 H 161.699 1.82644 -0.177057 0
M  V30 1795 H 160.081 3.50449 1.84395 0
M  V30 1796 H 161.255 4.53385 -0.823333 0
M  V30 1797 H 159.57 4.1223 -0.587816 0
M  V30 1798 H 162.167 4.92832 2.07414 0
M  V30 1799 H 162.51 3.28526 2.55688 0
M  V30 1800 H 163.043 3.86078 0.958562 0
M  V30 1801 H 159.782 6.54411 -0.377616 0
M  V30 1802 H 159.302 5.87681 1.19962 0
M  V30 1803 H 160.981 6.40363 0.92437 0
M  V30 1804 N 161.113 -0.173488 1.56642 0
M  V30 1805 C 162.524 -0.736155 1.71574 0
M  V30 1806 C 162.875 -1.82888 0.710389 0
M  V30 1807 O 162 -2.16017 -0.1287 0
M  V30 1808 C 162.595 -1.34211 3.11083 0
M  V30 1809 C 161.154 -1.85162 3.27707 0
M  V30 1810 C 160.301 -0.729765 2.67525 0
M  V30 1811 H 163.252 0.0518786 1.58615 0
M  V30 1812 H 163.273 -2.21178 3.09613 0
M  V30 1813 H 162.785 -0.546579 3.84232 0
M  V30 1814 H 160.886 -2.67366 2.59512 0
M  V30 1815 H 160.999 -1.99855 4.35425 0
M  V30 1816 H 159.363 -1.14965 2.27278 0
M  V30 1817 H 160.146 0.0538806 3.43258 0
M  V30 1818 N 162.591 -1.51276 -0.441967 0
M  V30 1819 C 163.837 -1.63958 -1.19355 0
M  V30 1820 C 164.17 -0.352543 -1.90973 0
M  V30 1821 O 163.445 0.647627 -1.83401 0
M  V30 1822 C 163.728 -2.83979 -2.21422 0
M  V30 1823 C 163.581 -4.22646 -1.53918 0
M  V30 1824 C 164.9 -2.99521 -3.22451 0
M  V30 1825 H 162.019 -0.596709 -0.432559 0
M  V30 1826 H 164.661 -1.83748 -0.483398 0
M  V30 1827 H 162.811 -2.67237 -2.81987 0
M  V30 1828 H 164.483 -4.51045 -0.967256 0
M  V30 1829 H 162.726 -4.25558 -0.841615 0
M  V30 1830 H 163.397 -5.02609 -2.28229 0
M  V30 1831 H 165.873 -3.14944 -2.71937 0
M  V30 1832 H 164.749 -3.85072 -3.91166 0
M  V30 1833 H 165.01 -2.11391 -3.88287 0
M  V30 1834 N 164.069 0.697108 -1.41344 0
M  V30 1835 C 165.316 1.45714 -1.40619 0
M  V30 1836 C 165.644 1.94494 -0.0147907 0
M  V30 1837 O 164.899 1.69794 0.973066 0
M  V30 1838 C 165.198 2.68553 -2.35826 0
M  V30 1839 C 164.864 2.38438 -3.82698 0
M  V30 1840 C 163.526 2.29936 -4.22709 0
M  V30 1841 C 165.878 2.13567 -4.75435 0
M  V30 1842 C 163.206 1.94656 -5.53467 0
M  V30 1843 C 165.558 1.79797 -6.06511 0
M  V30 1844 C 164.222 1.69789 -6.45545 0
M  V30 1845 H 163.492 0.533206 -0.51456 0
M  V30 1846 H 166.139 0.796901 -1.74131 0
M  V30 1847 H 164.444 3.39503 -1.95563 0
M  V30 1848 H 166.141 3.2669 -2.32539 0
M  V30 1849 H 162.731 2.4595 -3.51008 0
M  V30 1850 H 166.915 2.19082 -4.45328 0
M  V30 1851 H 162.171 1.8546 -5.82593 0
M  V30 1852 H 166.345 1.59572 -6.77872 0
M  V30 1853 H 163.972 1.4222 -7.46778 0
M  V30 1854 N 165.547 1.27147 0.931209 0
M  V30 1855 C 166.795 1.13055 1.6752 0
M  V30 1856 C 167.116 -0.324791 1.92276 0
M  V30 1857 O 166.386 -1.22775 1.52654 0
M  V30 1858 H 164.966 0.415391 0.620854 0
M  V30 1859 H 167.628 1.59623 1.11833 0
M  V30 1860 H 166.724 1.65694 2.64485 0
M  V30 1861 N 167.025 -1.13721 1.09112 0
M  V30 1862 C 167.988 -2.17222 0.731241 0
M  V30 1863 C 168.988 -1.59035 -0.237566 0
M  V30 1864 O 170.178 -1.74192 -0.0161704 0
M  V30 1865 C 167.31 -3.40804 0.0808443 0
M  V30 1866 H 168.503 -2.50573 1.64783 0
M  V30 1867 H 166.056 -1.28493 0.889897 0
M  V30 1868 H 166.791 -3.1304 -0.847127 0
M  V30 1869 H 166.576 -3.84306 0.777896 0
M  V30 1870 H 168.066 -4.1731 -0.155657 0
M  V30 1871 N 168.503 -0.877838 -1.30888 0
M  V30 1872 C 169.749 -0.493426 -1.96706 0
M  V30 1873 C 170.082 0.953504 -1.6918 0
M  V30 1874 O 169.357 1.67266 -0.992594 0
M  V30 1875 C 169.64 -0.760429 -3.51979 0
M  V30 1876 C 169.493 -2.25747 -3.89048 0
M  V30 1877 C 170.812 -0.232148 -4.39487 0
M  V30 1878 H 167.931 -0.180746 -0.714493 0
M  V30 1879 H 170.573 -1.10052 -1.54882 0
M  V30 1880 H 168.723 -0.243715 -3.87735 0
M  V30 1881 H 170.395 -2.84204 -3.63354 0
M  V30 1882 H 168.638 -2.72694 -3.37373 0
M  V30 1883 H 169.309 -2.39491 -4.97341 0
M  V30 1884 H 171.785 -0.674314 -4.106 0
M  V30 1885 H 170.661 -0.448355 -5.47066 0
M  V30 1886 H 170.922 0.866297 -4.33529 0
M  V30 1887 N 169.982 1.44106 -0.638065 0
M  V30 1888 C 171.228 2.02277 -0.145546 0
M  V30 1889 C 171.561 1.50125 1.23191 0
M  V30 1890 O 170.836 0.688133 1.8192 0
M  V30 1891 C 171.119 3.59829 -0.139791 0
M  V30 1892 C 170.972 4.22247 -1.55008 0
M  V30 1893 C 172.291 4.36873 0.531966 0
M  V30 1894 H 169.41 0.734992 -0.0543632 0
M  V30 1895 H 172.052 1.71592 -0.815863 0
M  V30 1896 H 170.202 3.86102 0.431007 0
M  V30 1897 H 171.874 4.07057 -2.1703 0
M  V30 1898 H 170.117 3.79476 -2.10191 0
M  V30 1899 H 170.788 5.31284 -1.49804 0
M  V30 1900 H 173.264 4.16074 0.0464781 0
M  V30 1901 H 172.14 5.4657 0.505206 0
M  V30 1902 H 172.401 4.11995 1.60352 0
M  V30 1903 N 171.46 0.379036 1.52974 0
M  V30 1904 C 172.688 -0.20679 2.05864 0
M  V30 1905 C 173.103 -1.41356 1.25155 0
M  V30 1906 O 172.46 -1.8009 0.295588 0
M  V30 1907 C 172.511 -0.587045 3.56702 0
M  V30 1908 O 172.232 0.571776 4.34353 0
M  V30 1909 C 173.733 -1.22983 4.25899 0
M  V30 1910 H 170.953 -0.0336123 0.670158 0
M  V30 1911 H 173.497 0.541298 1.97206 0
M  V30 1912 H 171.652 -1.28504 3.65466 0
M  V30 1913 H 172.066 0.261544 5.23847 0
M  V30 1914 H 173.54 -1.44635 5.32715 0
M  V30 1915 H 174.017 -2.19416 3.80465 0
M  V30 1916 H 174.623 -0.572892 4.21424 0
M  V30 1917 N 172.938 -1.57226 0.108567 0
M  V30 1918 C 173.901 -2.13602 -0.831082 0
M  V30 1919 C 174.901 -1.06841 -1.20173 0
M  V30 1920 O 176.091 -1.32666 -1.12895 0
M  V30 1921 C 173.223 -2.66769 -2.12243 0
M  V30 1922 H 174.416 -2.97951 -0.341317 0
M  V30 1923 H 171.969 -1.55667 -0.14057 0
M  V30 1924 H 172.704 -1.85977 -2.65675 0
M  V30 1925 H 172.489 -3.44839 -1.86625 0
M  V30 1926 H 173.979 -3.10332 -2.79435 0
M  V30 1927 N 174.416 0.165178 -1.56732 0
M  V30 1928 C 175.366 1.20917 -1.93295 0
M  V30 1929 C 176.35 1.39488 -0.801985 0
M  V30 1930 O 177.542 1.41356 -1.06525 0
M  V30 1931 C 174.671 2.54718 -2.3016 0
M  V30 1932 C 173.757 2.39815 -3.49785 0
M  V30 1933 N 174.148 1.94637 -4.66851 0
M  V30 1934 C 172.446 2.70623 -3.54513 0
M  V30 1935 C 173.147 1.92344 -5.4898 0
M  V30 1936 N 172.123 2.34978 -4.9019 0
M  V30 1937 H 175.925 0.851675 -2.81289 0
M  V30 1938 H 173.439 0.373399 -1.58049 0
M  V30 1939 H 175.436 3.30165 -2.54552 0
M  V30 1940 H 174.096 2.91265 -1.43508 0
M  V30 1941 H 175.107 1.6488 -4.90953 0
M  V30 1942 H 171.784 3.11167 -2.78354 0
M  V30 1943 H 173.174 1.5906 -6.52801 0
M  V30 1944 N 175.894 1.51508 0.433938 0
M  V30 1945 C 177.14 1.64588 1.18484 0
M  V30 1946 C 177.473 0.362666 1.90784 0
M  V30 1947 O 176.748 -0.637892 1.83742 0
M  V30 1948 C 177.031 2.85149 2.19913 0
M  V30 1949 C 176.884 4.23456 1.51674 0
M  V30 1950 C 178.203 3.01227 3.20858 0
M  V30 1951 H 175.322 0.598994 0.429389 0
M  V30 1952 H 177.964 1.84002 0.473647 0
M  V30 1953 H 176.114 2.68729 2.80566 0
M  V30 1954 H 177.786 4.51552 0.943322 0
M  V30 1955 H 176.029 4.25998 0.819035 0
M  V30 1956 H 176.7 5.03812 2.2556 0
M  V30 1957 H 179.176 3.16382 2.70263 0
M  V30 1958 H 178.052 3.87141 3.89118 0
M  V30 1959 H 178.313 2.13447 3.8716 0
M  V30 1960 N 177.372 -0.689602 1.41712 0
M  V30 1961 C 178.319 -1.80345 1.44029 0
M  V30 1962 C 179.289 -1.63478 0.293948 0
M  V30 1963 O 180.474 -1.84244 0.495869 0
M  V30 1964 C 177.614 -3.18272 1.33405 0
M  V30 1965 C 176.727 -3.46529 2.57956 0
M  V30 1966 C 175.862 -4.74103 2.39582 0
M  V30 1967 C 174.901 -4.95347 3.5958 0
M  V30 1968 N 174.038 -6.14151 3.40239 0
M  V30 1969 H 178.878 -1.77698 2.39222 0
M  V30 1970 H 176.415 -0.867688 1.18784 0
M  V30 1971 H 178.373 -3.97956 1.25246 0
M  V30 1972 H 177.003 -3.2008 0.418164 0
M  V30 1973 H 176.055 -2.61207 2.76542 0
M  V30 1974 H 177.367 -3.58126 3.47199 0
M  V30 1975 H 176.521 -5.61853 2.28924 0
M  V30 1976 H 175.26 -4.64763 1.47805 0
M  V30 1977 H 174.265 -4.06044 3.70686 0
M  V30 1978 H 175.49 -5.06542 4.52318 0
M  V30 1979 H 173.436 -6.06013 2.51167 0
M  V30 1980 H 173.353 -6.26543 4.23061 0
M  V30 1981 H 174.621 -7.04619 3.33365 0
M  V30 1982 N 178.85 -1.27639 -0.924453 0
M  V30 1983 C 180.127 -1.04887 -1.651 0
M  V30 1984 C 180.507 0.415327 -2.06974 0
M  V30 1985 O 179.855 1.39923 -1.80648 0
M  V30 1986 C 180.065 -2.01348 -2.85061 0
M  V30 1987 C 181.413 -2.30899 -3.56329 0
M  V30 1988 O 182.437 -1.99348 -2.95193 0
M  V30 1989 O 181.296 -2.84699 -4.66485 0
M  V30 1990 H 178.39 -0.400083 -0.723784 0
M  V30 1991 H 180.936 -1.38916 -0.974703 0
M  V30 1992 H 179.708 -3.0008 -2.51133 0
M  V30 1993 H 179.331 -1.679 -3.6041 0
M  V30 1994 N 180.328 1.1314 -1.09713 0
M  V30 1995 C 181.576 1.84119 -0.833338 0
M  V30 1996 C 181.897 1.84097 0.642904 0
M  V30 1997 O 181.167 1.29881 1.46655 0
M  V30 1998 H 179.747 0.681766 -0.305293 0
M  V30 1999 H 182.409 1.37038 -1.38588 0
M  V30 2000 H 181.505 2.88543 -1.18951 0
M  V30 2001 N 181.806 0.884767 1.30421 0
M  V30 2002 C 183.034 0.518044 2.0031 0
M  V30 2003 C 183.449 -0.893408 1.66324 0
M  V30 2004 O 182.806 -1.5875 0.900262 0
M  V30 2005 C 182.857 0.682997 3.54989 0
M  V30 2006 O 182.578 2.03888 3.87764 0
M  V30 2007 C 184.079 0.31924 4.42149 0
M  V30 2008 H 181.299 0.200265 0.640418 0
M  V30 2009 H 183.843 1.19001 1.6631 0
M  V30 2010 H 181.998 0.0584052 3.87356 0
M  V30 2011 H 182.412 2.05735 4.82466 0
M  V30 2012 H 183.886 0.485555 5.4986 0
M  V30 2013 H 184.363 -0.742717 4.32875 0
M  V30 2014 H 184.969 0.920147 4.15227 0
M  V30 2015 N 183.284 -1.43765 0.645699 0
M  V30 2016 C 184.214 -2.33471 -0.0370477 0
M  V30 2017 C 185.195 -1.49042 -0.819779 0
M  V30 2018 O 186.38 -1.77726 -0.782758 0
M  V30 2019 C 183.51 -3.32311 -1.0093 0
M  V30 2020 C 182.464 -4.2667 -0.337201 0
M  V30 2021 C 181.79 -5.1549 -1.42037 0
M  V30 2022 C 183.09 -5.16657 0.765706 0
M  V30 2023 H 184.784 -2.90809 0.712069 0
M  V30 2024 H 182.33 -1.39834 0.343876 0
M  V30 2025 H 184.283 -3.9396 -1.49578 0
M  V30 2026 H 183.007 -2.73213 -1.78948 0
M  V30 2027 H 181.666 -3.66374 0.128771 0
M  V30 2028 H 181.314 -4.52735 -2.1918 0
M  V30 2029 H 181.014 -5.79438 -0.975966 0
M  V30 2030 H 182.538 -5.80012 -1.90838 0
M  V30 2031 H 183.952 -5.72158 0.361702 0
M  V30 2032 H 182.349 -5.89286 1.13413 0
M  V30 2033 H 183.419 -4.56796 1.62683 0
M  V30 2034 N 184.763 -0.387143 -1.52771 0
M  V30 2035 C 185.991 0.195869 -2.05971 0
M  V30 2036 C 186.406 1.40691 -1.25903 0
M  V30 2037 O 185.763 1.79931 -0.305134 0
M  V30 2038 C 185.814 0.56812 -3.57008 0
M  V30 2039 O 185.535 -0.594803 -4.34043 0
M  V30 2040 C 187.036 1.20723 -4.26545 0
M  V30 2041 H 184.256 0.0300578 -0.670326 0
M  V30 2042 H 186.8 -0.551749 -1.96916 0
M  V30 2043 H 184.955 1.26564 -3.66143 0
M  V30 2044 H 185.369 -0.289322 -5.23701 0
M  V30 2045 H 186.843 1.41807 -5.33474 0
M  V30 2046 H 187.32 2.17395 -3.81623 0
M  V30 2047 H 187.926 0.550535 -4.21722 0
M  V30 2048 N 186.241 1.57166 -0.116904 0
M  V30 2049 C 187.204 2.14039 0.819742 0
M  V30 2050 C 188.204 1.07477 1.19605 0
M  V30 2051 O 189.394 1.33263 1.1219 0
M  V30 2052 C 186.526 2.67891 2.10826 0
M  V30 2053 H 187.719 2.98128 0.325511 0
M  V30 2054 H 185.272 1.55739 0.132312 0
M  V30 2055 H 186.007 1.87384 2.64685 0
M  V30 2056 H 185.792 3.45823 1.84793 0
M  V30 2057 H 187.282 3.11809 2.77785 0
M  V30 2058 N 187.719 -0.156864 1.56817 0
M  V30 2059 C 188.649 -1.19589 2.00551 0
M  V30 2060 C 189.63 -1.4536 0.883426 0
M  V30 2061 O 190.815 -1.56449 1.15054 0
M  V30 2062 C 187.945 -2.53143 2.37773 0
M  V30 2063 C 186.899 -2.41913 3.53075 0
M  V30 2064 C 186.225 -3.80088 3.76081 0
M  V30 2065 C 187.525 -1.91157 4.86062 0
M  V30 2066 H 189.219 -0.832293 2.87599 0
M  V30 2067 H 186.765 -0.398918 1.38364 0
M  V30 2068 H 188.718 -3.26047 2.66967 0
M  V30 2069 H 187.442 -2.91319 1.4765 0
M  V30 2070 H 186.101 -1.71462 3.24031 0
M  V30 2071 H 185.749 -4.15683 2.83225 0
M  V30 2072 H 185.449 -3.73439 4.53671 0
M  V30 2073 H 186.973 -4.54556 4.0769 0
M  V30 2074 H 188.387 -2.53846 5.14038 0
M  V30 2075 H 186.784 -1.95422 5.67389 0
M  V30 2076 H 187.854 -0.866673 4.77092 0
M  V30 2077 N 189.197 -1.51736 -0.425897 0
M  V30 2078 C 190.422 -1.69082 -1.20108 0
M  V30 2079 C 190.847 -0.392398 -1.83962 0
M  V30 2080 O 190.205 0.64858 -1.69302 0
M  V30 2081 C 190.253 -2.81604 -2.25237 0
M  V30 2082 O 189.357 -2.46004 -3.30992 0
M  V30 2083 H 188.698 -0.563408 -0.35138 0
M  V30 2084 H 191.228 -1.98358 -0.501512 0
M  V30 2085 H 191.238 -3.06025 -2.69838 0
M  V30 2086 H 189.913 -3.75817 -1.78142 0
M  V30 2087 H 188.49 -2.32195 -2.91787 0
M  V30 2088 N 190.675 0.682077 -1.42076 0
M  V30 2089 C 191.923 1.4393 -1.41876 0
M  V30 2090 C 192.244 1.94971 -0.0335599 0
M  V30 2091 O 191.514 1.72591 0.926773 0
M  V30 2092 H 190.094 0.534085 -0.522267 0
M  V30 2093 H 192.756 0.806427 -1.77434 0
M  V30 2094 H 191.852 2.29588 -2.11414 0
M  V30 2095 N 192.153 1.28127 0.917671 0
M  V30 2096 C 193.381 1.17892 1.70026 0
M  V30 2097 C 193.796 -0.262958 1.8696 0
M  V30 2098 O 193.153 -1.17811 1.3938 0
M  V30 2099 C 193.204 1.86872 3.09453 0
M  V30 2100 O 192.925 3.25428 2.93306 0
M  V30 2101 C 194.426 1.8289 4.03815 0
M  V30 2102 H 191.646 0.40942 0.531617 0
M  V30 2103 H 194.19 1.69181 1.14883 0
M  V30 2104 H 192.345 1.39464 3.61426 0
M  V30 2105 H 192.759 3.59918 3.81523 0
M  V30 2106 H 194.233 2.35751 4.99125 0
M  V30 2107 H 194.71 0.800412 4.31845 0
M  V30 2108 H 195.316 2.29959 3.57769 0
M  V30 2109 N 193.631 -1.12557 1.10312 0
M  V30 2110 C 194.561 -2.20341 0.772798 0
M  V30 2111 C 195.542 -1.68198 -0.25365 0
M  V30 2112 O 196.727 -1.93831 -0.119699 0
M  V30 2113 C 193.857 -3.46709 0.202443 0
M  V30 2114 C 192.811 -4.11996 1.15943 0
M  V30 2115 C 192.137 -5.328 0.450345 0
M  V30 2116 C 193.437 -4.5828 2.50552 0
M  V30 2117 H 195.131 -2.48229 1.674 0
M  V30 2118 H 192.677 -1.19308 0.806326 0
M  V30 2119 H 194.63 -4.2138 -0.0407752 0
M  V30 2120 H 193.354 -3.18245 -0.734001 0
M  V30 2121 H 192.013 -3.39305 1.38808 0
M  V30 2122 H 191.661 -5.00602 -0.490531 0
M  V30 2123 H 191.361 -5.7743 1.08851 0
M  V30 2124 H 192.885 -6.10219 0.215642 0
M  V30 2125 H 194.299 -5.2433 2.31843 0
M  V30 2126 H 192.696 -5.13683 3.10242 0
M  V30 2127 H 193.766 -3.72329 3.10643 0
M  V30 2128 N 195.109 -0.891671 -1.2995 0
M  V30 2129 C 196.358 -0.509521 -1.95158 0
M  V30 2130 C 196.671 0.947388 -1.71125 0
M  V30 2131 O 197.877 1.43669 -2.30372 0
M  V30 2132 C 196.333 -0.860315 -3.49466 0
M  V30 2133 C 195.941 -2.33545 -3.8231 0
M  V30 2134 C 197.685 -0.547687 -4.20952 0
M  V30 2135 C 195.592 -2.62752 -5.29826 0
M  V30 2136 H 194.522 -0.18682 -0.730489 0
M  V30 2137 H 197.173 -1.08756 -1.47798 0
M  V30 2138 H 195.555 -0.211285 -3.95436 0
M  V30 2139 H 196.729 -3.02936 -3.47227 0
M  V30 2140 H 195.044 -2.61629 -3.23944 0
M  V30 2141 H 197.641 -0.742854 -5.29515 0
M  V30 2142 H 197.984 0.51332 -4.13123 0
M  V30 2143 H 198.517 -1.1542 -3.80688 0
M  V30 2144 H 195.256 -3.6762 -5.42712 0
M  V30 2145 H 194.776 -1.97977 -5.66185 0
M  V30 2146 H 196.455 -2.48601 -5.97333 0
M  V30 2147 N 196.587 1.43421 -0.653314 0
M  V30 2148 C 197.998 1.85065 -0.246537 0
M  V30 2149 C 198.349 1.54688 1.2069 0
M  V30 2150 O 197.474 0.995896 1.92122 0
M  V30 2151 C 198.069 3.35922 -0.440666 0
M  V30 2152 C 196.628 3.76297 -0.0882064 0
M  V30 2153 C 195.775 2.67147 -0.743484 0
M  V30 2154 H 198.726 1.33572 -0.856979 0
M  V30 2155 H 198.747 3.79204 0.313798 0
M  V30 2156 H 198.259 3.58 -1.49858 0
M  V30 2157 H 196.36 3.5983 0.96711 0
M  V30 2158 H 196.473 4.76338 -0.513738 0
M  V30 2159 H 194.837 2.54086 -0.176712 0
M  V30 2160 H 195.62 2.92053 -1.80443 0
M  V30 2161 N 198.065 0.39524 1.52563 0
M  V30 2162 C 199.013 -0.451859 2.28169 0
M  V30 2163 C 200.007 -1.05792 1.32304 0
M  V30 2164 O 201.213 -0.997718 1.49818 0
M  V30 2165 H 197.588 -0.164481 0.733792 0
M  V30 2166 H 199.559 0.207199 2.9768 0
M  V30 2167 C 198.308 -1.56385 3.10546 0
M  V30 2168 H 197.631 -1.10682 3.84174 0
M  V30 2169 H 199.071 -2.13067 3.66577 0
M  V30 2170 C 197.53 -2.52328 2.23231 0
M  V30 2171 O 198.06 -3.5588 1.86312 0
M  V30 2172 N 196.266 -2.22209 1.87274 0
M  V30 2173 H 195.813 -1.38033 2.17496 0
M  V30 2174 H 195.771 -2.86652 1.29143 0
M  V30 2175 N 199.544 -1.57102 0.125237 0
M  V30 2176 C 200.474 -2.18659 -0.819174 0
M  V30 2177 C 201.455 -1.12843 -1.27281 0
M  V30 2178 O 202.64 -1.41104 -1.33429 0
M  V30 2179 C 199.77 -2.79096 -2.06695 0
M  V30 2180 C 198.724 -3.90548 -1.75088 0
M  V30 2181 C 198.05 -4.37821 -3.06948 0
M  V30 2182 C 199.35 -5.12356 -1.01435 0
M  V30 2183 H 201.044 -2.9783 -0.306202 0
M  V30 2184 H 198.59 -1.4326 -0.145839 0
M  V30 2185 H 200.543 -3.2082 -2.73226 0
M  V30 2186 H 199.267 -1.97223 -2.60328 0
M  V30 2187 H 197.926 -3.49409 -1.10944 0
M  V30 2188 H 197.574 -3.52799 -3.58527 0
M  V30 2189 H 197.274 -5.12982 -2.86571 0
M  V30 2190 H 198.798 -4.822 -3.74587 0
M  V30 2191 H 200.212 -5.5106 -1.58132 0
M  V30 2192 H 198.609 -5.9314 -0.911319 0
M  V30 2193 H 199.679 -4.849 -0.00218681 0
M  V30 2194 N 201.022 0.148545 -1.56898 0
M  V30 2195 C 202.299 0.890019 -1.74178 0
M  V30 2196 C 202.679 1.99407 -0.692839 0
M  V30 2197 O 202.027 2.26671 0.288505 0
M  V30 2198 C 202.237 1.43389 -3.18183 0
M  V30 2199 C 203.585 1.89791 -3.79822 0
M  V30 2200 O 204.609 1.53134 -3.21603 0
M  V30 2201 O 203.468 2.57387 -4.82093 0
M  V30 2202 H 200.562 0.420496 -0.712118 0
M  V30 2203 H 203.108 0.134591 -1.69165 0
M  V30 2204 H 201.88 0.640383 -3.86024 0
M  V30 2205 H 201.503 2.25287 -3.27615 0
M  V30 2206 N 202.5 1.5196 0.417844 0
M  V30 2207 C 203.728 1.69426 1.18753 0
M  V30 2208 C 204.143 0.399955 1.84515 0
M  V30 2209 O 203.5 -0.623288 1.71527 0
M  V30 2210 C 203.551 2.82375 2.25714 0
M  V30 2211 O 203.272 4.06793 1.62638 0
M  V30 2212 C 204.773 3.11277 3.15628 0
M  V30 2213 H 201.993 0.568031 0.357186 0
M  V30 2214 H 204.537 1.98475 0.49273 0
M  V30 2215 H 202.692 2.5587 2.90877 0
M  V30 2216 H 203.106 4.69667 2.3348 0
M  V30 2217 H 204.58 3.93843 3.86771 0
M  V30 2218 H 205.057 2.24473 3.77503 0
M  V30 2219 H 205.663 3.39515 2.56144 0
M  V30 2220 N 203.978 -0.674533 1.42435 0
M  V30 2221 C 204.925 -1.78807 1.45934 0
M  V30 2222 C 205.895 -1.63157 0.311271 0
M  V30 2223 O 207.08 -1.83707 0.515383 0
M  V30 2224 C 204.22 -3.16839 1.36773 0
M  V30 2225 C 203.333 -3.43774 2.61617 0
M  V30 2226 C 202.468 -4.71536 2.44597 0
M  V30 2227 C 201.507 -4.91505 3.64814 0
M  V30 2228 N 200.644 -6.10508 3.46734 0
M  V30 2229 H 205.484 -1.75151 2.41093 0
M  V30 2230 H 203.021 -0.85504 1.19697 0
M  V30 2231 H 204.979 -3.96606 1.29459 0
M  V30 2232 H 203.609 -3.19619 0.452089 0
M  V30 2233 H 202.661 -2.58259 2.79297 0
M  V30 2234 H 203.973 -3.54423 3.50978 0
M  V30 2235 H 203.127 -5.59393 2.3487 0
M  V30 2236 H 201.866 -4.6317 1.52726 0
M  V30 2237 H 200.871 -4.0209 3.74972 0
M  V30 2238 H 202.096 -5.01716 4.57665 0
M  V30 2239 H 200.042 -6.03315 2.5758 0
M  V30 2240 H 199.959 -6.2202 4.29682 0
M  V30 2241 H 201.227 -7.01044 3.40819 0
M  V30 2242 N 205.456 -1.28612 -0.910864 0
M  V30 2243 C 206.704 -1.15705 -1.65701 0
M  V30 2244 C 207.025 0.29416 -1.92769 0
M  V30 2245 O 206.295 1.20331 -1.54588 0
M  V30 2246 H 204.875 -0.425216 -0.614167 0
M  V30 2247 H 207.537 -1.61381 -1.0928 0
M  V30 2248 H 206.633 -1.6988 -2.61815 0
M  V30 2249 N 206.934 1.1197 -1.10907 0
M  V30 2250 C 208.159 1.87942 -0.877064 0
M  V30 2251 C 208.584 1.79341 0.567314 0
M  V30 2252 O 207.942 1.15184 1.40009 0
M  V30 2253 C 207.99 3.34926 -1.33629 0
M  V30 2254 O 207.094 4.09303 -0.504447 0
M  V30 2255 H 206.435 0.583785 -0.316371 0
M  V30 2256 H 208.965 1.4157 -1.47712 0
M  V30 2257 H 208.975 3.8577 -1.32837 0
M  V30 2258 H 207.65 3.40504 -2.3881 0
M  V30 2259 H 206.227 3.68393 -0.577993 0
M  V30 2260 N 208.412 0.89855 1.29475 0
M  V30 2261 C 209.342 0.39201 2.30186 0
M  V30 2262 C 210.323 -0.532359 1.61555 0
M  V30 2263 O 211.508 -0.443331 1.89072 0
M  V30 2264 C 208.638 -0.382353 3.45189 0
M  V30 2265 C 207.592 0.451483 4.25612 0
M  V30 2266 C 206.918 -0.450307 5.328 0
M  V30 2267 C 208.218 1.70079 4.93832 0
M  V30 2268 H 209.912 1.23362 2.72804 0
M  V30 2269 H 207.458 0.594638 1.31149 0
M  V30 2270 H 209.411 -0.747451 4.14718 0
M  V30 2271 H 208.135 -1.25774 3.01411 0
M  V30 2272 H 206.794 0.798897 3.57789 0
M  V30 2273 H 206.442 -1.32379 4.85268 0
M  V30 2274 H 206.142 0.103902 5.87508 0
M  V30 2275 H 207.666 -0.811623 6.05182 0
M  V30 2276 H 209.08 1.40549 5.55805 0
M  V30 2277 H 207.477 2.19623 5.58467 0
M  V30 2278 H 208.547 2.43744 4.19186 0
M  V30 2279 N 209.89 -1.43072 0.660911 0
M  V30 2280 C 210.837 -2.30785 -0.0259884 0
M  V30 2281 C 211.807 -1.45184 -0.806888 0
M  V30 2282 O 212.992 -1.74041 -0.781943 0
M  V30 2283 C 210.132 -3.30861 -0.981067 0
M  V30 2284 C 209.245 -4.31558 -0.195458 0
M  V30 2285 C 208.38 -5.18712 -1.14503 0
M  V30 2286 C 207.419 -6.11097 -0.350299 0
M  V30 2287 N 206.556 -6.90849 -1.25186 0
M  V30 2288 H 211.396 -2.88975 0.727846 0
M  V30 2289 H 208.933 -1.42353 0.370682 0
M  V30 2290 H 210.891 -3.87399 -1.54849 0
M  V30 2291 H 209.521 -2.74304 -1.70169 0
M  V30 2292 H 208.573 -3.77252 0.488374 0
M  V30 2293 H 209.885 -4.9701 0.422176 0
M  V30 2294 H 209.039 -5.79914 -1.78284 0
M  V30 2295 H 207.778 -4.53404 -1.79656 0
M  V30 2296 H 206.783 -5.48976 0.300808 0
M  V30 2297 H 208.008 -6.7845 0.296941 0
M  V30 2298 H 205.954 -6.28182 -1.89005 0
M  V30 2299 H 205.871 -7.52854 -0.688971 0
M  V30 2300 H 207.139 -7.5655 -1.87757 0
M  V30 2301 N 211.368 -0.403325 -1.52352 0
M  V30 2302 C 212.593 0.176499 -2.06648 0
M  V30 2303 C 213.018 1.38577 -1.27193 0
M  V30 2304 O 212.376 1.7879 -0.300637 0
M  V30 2305 C 212.424 0.511061 -3.5696 0
M  V30 2306 O 211.528 1.60294 -3.79973 0
M  V30 2307 H 210.869 0.0167337 -0.663789 0
M  V30 2308 H 213.399 -0.574848 -1.96359 0
M  V30 2309 H 213.409 0.771362 -4.00642 0
M  V30 2310 H 212.084 -0.37296 -4.14224 0
M  V30 2311 H 210.661 1.33526 -3.48174 0
M  V30 2312 N 212.846 1.57033 -0.133567 0
M  V30 2313 C 214.094 1.953 0.519848 0
M  V30 2314 C 214.415 1.01866 1.66278 0
M  V30 2315 O 213.685 0.0776513 1.95746 0
M  V30 2316 H 212.265 0.721091 0.195032 0
M  V30 2317 H 214.927 1.93809 -0.205921 0
M  V30 2318 H 214.023 2.98695 0.904854 0
M  V30 2319 N 214.325 -0.140222 1.56975 0
M  V30 2320 C 215.272 -1.17292 1.98774 0
M  V30 2321 C 216.242 -1.4232 0.856408 0
M  V30 2322 O 217.427 -1.54541 1.119 0
M  V30 2323 C 214.567 -2.49973 2.37923 0
M  V30 2324 C 213.68 -2.32062 3.64378 0
M  V30 2325 C 212.815 -3.57825 3.926 0
M  V30 2326 C 211.854 -3.3498 5.12303 0
M  V30 2327 N 210.991 -4.52891 5.36502 0
M  V30 2328 H 215.831 -0.809472 2.86795 0
M  V30 2329 H 213.368 -0.388237 1.41884 0
M  V30 2330 H 215.326 -3.27346 2.58652 0
M  V30 2331 H 213.956 -2.84252 1.52972 0
M  V30 2332 H 213.008 -1.45711 3.51387 0
M  V30 2333 H 214.32 -2.11145 4.51906 0
M  V30 2334 H 213.474 -4.43624 4.13863 0
M  V30 2335 H 212.213 -3.81753 3.03506 0
M  V30 2336 H 211.218 -2.4757 4.90906 0
M  V30 2337 H 212.443 -3.12444 6.02956 0
M  V30 2338 H 210.389 -4.76979 4.50363 0
M  V30 2339 H 210.306 -4.35001 6.18312 0
M  V30 2340 H 211.574 -5.39884 5.62268 0
M  V30 2341 N 215.803 -1.52179 -0.40978 0
M  V30 2342 C 216.75 -1.75475 -1.49924 0
M  V30 2343 C 217.72 -0.597175 -1.54994 0
M  V30 2344 O 218.905 -0.834655 -1.71575 0
M  V30 2345 C 216.045 -1.9107 -2.87378 0
M  V30 2346 C 215.158 -3.18717 -2.91622 0
M  V30 2347 C 214.293 -3.24747 -4.20372 0
M  V30 2348 C 213.332 -4.46598 -4.18588 0
M  V30 2349 N 212.469 -4.50025 -5.38908 0
M  V30 2350 H 217.309 -2.68458 -1.29361 0
M  V30 2351 H 214.846 -1.33024 -0.627934 0
M  V30 2352 H 216.804 -1.98096 -3.6717 0
M  V30 2353 H 215.434 -1.01469 -3.06437 0
M  V30 2354 H 214.486 -3.20866 -2.04326 0
M  V30 2355 H 215.798 -4.08544 -2.86169 0
M  V30 2356 H 214.952 -3.30841 -5.08556 0
M  V30 2357 H 213.691 -2.32857 -4.28519 0
M  V30 2358 H 212.696 -4.40652 -3.28794 0
M  V30 2359 H 213.921 -5.39783 -4.12081 0
M  V30 2360 H 211.867 -3.61017 -5.47725 0
M  V30 2361 H 211.784 -5.33697 -5.35447 0
M  V30 2362 H 213.052 -4.60347 -6.29048 0
M  V30 2363 N 217.281 0.66697 -1.42791 0
M  V30 2364 C 218.211 1.79218 -1.49677 0
M  V30 2365 C 219.192 1.66405 -0.352623 0
M  V30 2366 O 220.377 1.85708 -0.567993 0
M  V30 2367 C 217.507 3.17565 -1.40605 0
M  V30 2368 C 216.461 3.45124 -2.53127 0
M  V30 2369 C 215.787 4.83127 -2.29112 0
M  V30 2370 C 217.087 3.41236 -3.95418 0
M  V30 2371 H 218.781 1.73713 -2.43853 0
M  V30 2372 H 216.327 0.83432 -1.17367 0
M  V30 2373 H 218.28 3.96022 -1.44029 0
M  V30 2374 H 217.004 3.23767 -0.429271 0
M  V30 2375 H 215.663 2.69031 -2.49034 0
M  V30 2376 H 215.311 4.85988 -1.29709 0
M  V30 2377 H 215.011 5.02528 -3.04531 0
M  V30 2378 H 216.535 5.63859 -2.34297 0
M  V30 2379 H 217.949 4.09651 -4.01073 0
M  V30 2380 H 216.346 3.72173 -4.70752 0
M  V30 2381 H 217.416 2.39665 -4.21532 0
M  V30 2382 N 218.759 1.29093 0.90403 0
M  V30 2383 C 219.984 1.19809 1.69294 0
M  V30 2384 C 220.409 -0.238481 1.86582 0
M  V30 2385 O 219.767 -1.1723 1.383 0
M  V30 2386 C 219.815 1.91202 3.05736 0
M  V30 2387 O 218.919 1.22611 3.93752 0
M  V30 2388 H 218.26 0.415385 0.518027 0
M  V30 2389 H 220.79 1.70586 1.12967 0
M  V30 2390 H 220.8 1.99487 3.55906 0
M  V30 2391 H 219.475 2.95692 2.92471 0
M  V30 2392 H 218.052 1.22554 3.52186 0
M  V30 2393 N 220.237 -1.11381 1.11499 0
M  V30 2394 C 221.147 -2.21019 0.786628 0
M  V30 2395 C 222.163 -1.72597 -0.220507 0
M  V30 2396 O 223.339 -2.01321 -0.0565251 0
M  V30 2397 C 220.404 -3.459 0.235333 0
M  V30 2398 C 219.465 -4.09107 1.30115 0
M  V30 2399 C 218.698 -5.28027 0.776068 0
M  V30 2400 O 218.921 -5.6904 -0.393661 0
M  V30 2401 O 217.855 -5.81835 1.54114 0
M  V30 2402 H 221.681 -2.51521 1.70209 0
M  V30 2403 H 219.266 -1.19928 0.890928 0
M  V30 2404 H 221.148 -4.21346 -0.067715 0
M  V30 2405 H 219.823 -3.17049 -0.652828 0
M  V30 2406 H 218.73 -3.35391 1.65722 0
M  V30 2407 H 220.063 -4.42139 2.16273 0
M  V30 2408 N 221.715 -0.905404 -1.28997 0
M  V30 2409 C 222.662 -0.385892 -2.27551 0
M  V30 2410 C 223.632 0.535113 -1.57244 0
M  V30 2411 O 224.817 0.459119 -1.85194 0
M  V30 2412 C 221.957 0.375461 -3.43051 0
M  V30 2413 C 221.07 -0.577092 -4.28128 0
M  V30 2414 C 220.205 0.201879 -5.30816 0
M  V30 2415 C 219.244 -0.744829 -6.07551 0
M  V30 2416 N 218.381 9.42587e-05 -7.021 0
M  V30 2417 H 223.221 -1.23139 -2.71368 0
M  V30 2418 H 220.758 -0.618542 -1.33463 0
M  V30 2419 H 222.716 0.832992 -4.088 0
M  V30 2420 H 221.346 1.18537 -3.00248 0
M  V30 2421 H 220.398 -1.15315 -3.62501 0
M  V30 2422 H 221.71 -1.30152 -4.8152 0
M  V30 2423 H 220.864 0.720351 -6.02408 0
M  V30 2424 H 219.603 0.959413 -4.7817 0
M  V30 2425 H 218.608 -1.27475 -5.34818 0
M  V30 2426 H 219.833 -1.50178 -6.62286 0
M  V30 2427 H 217.779 0.739791 -6.51815 0
M  V30 2428 H 217.696 -0.664321 -7.53076 0
M  V30 2429 H 218.964 0.498644 -7.77903 0
M  V30 2430 N 223.193 1.4272 -0.668489 0
M  V30 2431 C 224.125 2.2914 0.052613 0
M  V30 2432 C 225.138 1.43339 0.771857 0
M  V30 2433 O 226.327 1.67123 0.627067 0
M  V30 2434 C 223.427 3.20618 1.09804 0
M  V30 2435 C 222.6 4.35039 0.45389 0
M  V30 2436 C 221.659 5.07282 1.39825 0
M  V30 2437 O 220.685 5.62024 0.900978 0
M  V30 2438 N 221.887 5.12206 2.73176 0
M  V30 2439 H 224.652 2.91668 -0.689209 0
M  V30 2440 H 222.213 1.53577 -0.512422 0
M  V30 2441 H 224.205 3.65815 1.73094 0
M  V30 2442 H 222.775 2.59585 1.74167 0
M  V30 2443 H 221.995 3.92567 -0.358396 0
M  V30 2444 H 223.283 5.088 0.00486972 0
M  V30 2445 H 222.681 4.6913 3.16122 0
M  V30 2446 H 221.238 5.61069 3.31729 0
M  V30 2447 N 224.671 0.411399 1.52136 0
M  V30 2448 C 225.634 -0.401089 2.25663 0
M  V30 2449 C 226.634 -0.971732 1.28117 0
M  V30 2450 O 227.824 -0.850254 1.52041 0
M  V30 2451 C 224.956 -1.56483 3.02863 0
M  V30 2452 H 226.149 0.24295 2.98914 0
M  V30 2453 H 223.702 0.163968 1.55438 0
M  V30 2454 H 224.437 -2.24567 2.33967 0
M  V30 2455 H 224.222 -1.16211 3.74483 0
M  V30 2456 H 225.712 -2.13951 3.58629 0
M  V30 2457 N 226.149 -1.5696 0.141893 0
M  V30 2458 C 227.565 -1.58151 -0.21456 0
M  V30 2459 C 227.765 -1.1559 -1.65049 0
M  V30 2460 O 226.821 -0.853832 -2.37626 0
M  V30 2461 C 228.134 -3.00674 0.0395576 0
M  V30 2462 C 229.682 -3.1299 -0.0245529 0
M  V30 2463 C 230.157 -4.57554 0.202167 0
M  V30 2464 N 231.648 -4.62961 0.148919 0
M  V30 2465 C 232.383 -5.7262 0.298924 0
M  V30 2466 N 231.879 -6.90947 0.50637 0
M  V30 2467 N 233.672 -5.61601 0.236886 0
M  V30 2468 H 225.823 -1.8292 1.07953 0
M  V30 2469 H 228.086 -0.846425 0.42693 0
M  V30 2470 H 227.792 -3.36183 1.03315 0
M  V30 2471 H 227.666 -3.70981 -0.682143 0
M  V30 2472 H 230.053 -2.77326 -1.00869 0
M  V30 2473 H 230.134 -2.4518 0.729396 0
M  V30 2474 H 229.778 -4.93922 1.18338 0
M  V30 2475 H 229.708 -5.23484 -0.572044 0
M  V30 2476 H 232.199 -3.77899 -0.00697015 0
M  V30 2477 H 232.512 -7.7038 0.611076 0
M  V30 2478 H 230.857 -6.92878 0.542628 0
M  V30 2479 H 234.048 -4.68039 0.0756209 0
M  V30 2480 H 234.221 -6.47015 0.357227 0
M  V30 2481 N 227.627 0.131896 -1.57047 0
M  V30 2482 C 228.904 0.871495 -1.75112 0
M  V30 2483 C 229.284 1.9866 -0.713949 0
M  V30 2484 O 228.632 2.26965 0.264447 0
M  V30 2485 C 228.842 1.40007 -3.19686 0
M  V30 2486 C 230.19 1.85752 -3.81813 0
M  V30 2487 O 231.214 1.49715 -3.23209 0
M  V30 2488 O 230.073 2.5226 -4.84796 0
M  V30 2489 H 227.167 0.412919 -0.716538 0
M  V30 2490 H 229.713 0.116641 -1.69299 0
M  V30 2491 H 228.485 0.599404 -3.86682 0
M  V30 2492 H 228.108 2.218 -3.29986 0
M  V30 2493 N 229.106 1.52395 0.401703 0
M  V30 2494 C 230.355 1.66044 1.14509 0
M  V30 2495 C 230.668 0.400216 1.91462 0
M  V30 2496 O 231.874 0.416632 2.68284 0
M  V30 2497 C 230.33 2.93388 2.0845 0
M  V30 2498 C 229.938 4.26545 1.36978 0
M  V30 2499 C 231.682 3.16402 2.83001 0
M  V30 2500 C 229.589 5.45007 2.29611 0
M  V30 2501 H 228.519 0.618562 0.431158 0
M  V30 2502 H 231.17 1.78886 0.40892 0
M  V30 2503 H 229.552 2.74263 2.8565 0
M  V30 2504 H 230.726 4.56179 0.650916 0
M  V30 2505 H 229.041 4.09692 0.74438 0
M  V30 2506 H 231.638 4.02085 3.52465 0
M  V30 2507 H 231.981 2.30943 3.46368 0
M  V30 2508 H 232.514 3.36034 2.12898 0
M  V30 2509 H 229.253 6.32835 1.70879 0
M  V30 2510 H 228.773 5.19702 2.9945 0
M  V30 2511 H 230.452 5.7838 2.89974 0
M  V30 2512 N 230.584 -0.659388 1.43143 0
M  V30 2513 C 231.547 -1.75432 1.47501 0
M  V30 2514 C 232.547 -1.56707 0.360512 0
M  V30 2515 O 233.737 -1.62717 0.622002 0
M  V30 2516 C 230.869 -3.14239 1.32162 0
M  V30 2517 H 232.062 -1.7295 2.45006 0
M  V30 2518 H 229.615 -0.870469 1.29817 0
M  V30 2519 H 230.35 -3.22336 0.356401 0
M  V30 2520 H 230.135 -3.29235 2.12948 0
M  V30 2521 H 231.625 -3.94094 1.3813 0
M  V30 2522 N 232.062 -1.29571 -0.897171 0
M  V30 2523 C 232.972 -1.16808 -2.03453 0
M  V30 2524 C 233.988 -0.0907471 -1.73763 0
M  V30 2525 O 235.164 -0.303312 -1.99103 0
M  V30 2526 C 232.229 -0.848264 -3.36163 0
M  V30 2527 C 231.29 -2.0097 -3.79354 0
M  V30 2528 C 230.523 -1.70505 -5.05731 0
M  V30 2529 O 230.746 -0.62718 -5.66941 0
M  V30 2530 O 229.68 -2.5538 -5.45036 0
M  V30 2531 H 233.506 -2.12325 -2.17144 0
M  V30 2532 H 231.091 -1.09047 -1.02123 0
M  V30 2533 H 232.973 -0.684581 -4.15802 0
M  V30 2534 H 231.648 0.0771071 -3.23608 0
M  V30 2535 H 230.555 -2.22863 -3.00471 0
M  V30 2536 H 231.888 -2.91636 -3.96496 0
M  V30 2537 N 233.54 1.10788 -1.12088 0
M  V30 2538 C 234.487 2.17025 -0.785407 0
M  V30 2539 C 235.457 1.64265 0.246191 0
M  V30 2540 O 236.642 1.90412 0.121584 0
M  V30 2541 C 233.782 3.44249 -0.242177 0
M  V30 2542 C 232.895 4.1098 -1.33115 0
M  V30 2543 C 232.03 5.25911 -0.747741 0
M  V30 2544 C 231.069 5.84538 -1.81609 0
M  V30 2545 N 230.206 6.90853 -1.25167 0
M  V30 2546 H 235.046 2.45066 -1.69548 0
M  V30 2547 H 232.583 1.20297 -0.846582 0
M  V30 2548 H 234.541 4.17101 0.0908026 0
M  V30 2549 H 233.171 3.16571 0.631072 0
M  V30 2550 H 232.223 3.36133 -1.78097 0
M  V30 2551 H 233.535 4.50601 -2.13917 0
M  V30 2552 H 232.689 6.056 -0.365216 0
M  V30 2553 H 231.428 4.87614 0.0915188 0
M  V30 2554 H 230.433 5.03522 -2.20785 0
M  V30 2555 H 231.658 6.249 -2.6585 0
M  V30 2556 H 229.604 6.54562 -0.434174 0
M  V30 2557 H 229.521 7.29166 -1.99633 0
M  V30 2558 H 230.789 7.7433 -0.896259 0
M  V30 2559 N 235.018 0.912232 1.28515 0
M  V30 2560 C 236.295 0.463597 1.90027 0
M  V30 2561 C 236.675 -1.05753 1.82701 0
M  V30 2562 O 236.023 -1.90492 1.26194 0
M  V30 2563 C 236.233 0.992253 3.34597 0
M  V30 2564 C 237.581 1.04344 4.11579 0
M  V30 2565 O 238.605 0.94079 3.43551 0
M  V30 2566 O 237.464 1.1995 5.33174 0
M  V30 2567 H 234.558 0.146666 0.813891 0
M  V30 2568 H 237.104 1.00292 1.36893 0
M  V30 2569 H 235.876 2.03623 3.34146 0
M  V30 2570 H 235.499 0.433672 3.95228 0
M  V30 2571 N 236.496 -1.42363 0.676048 0
M  V30 2572 C 237.426 -2.33497 0.0124832 0
M  V30 2573 C 238.407 -1.50748 -0.787981 0
M  V30 2574 O 239.592 -1.79346 -0.744884 0
M  V30 2575 C 236.722 -3.34377 -0.938582 0
M  V30 2576 C 235.676 -4.27289 -0.246622 0
M  V30 2577 C 235.002 -5.18386 -1.31071 0
M  V30 2578 C 236.302 -5.14916 0.875125 0
M  V30 2579 H 237.996 -2.89233 0.773593 0
M  V30 2580 H 235.542 -1.39073 0.37346 0
M  V30 2581 H 237.495 -3.97044 -1.41188 0
M  V30 2582 H 236.219 -2.76947 -1.73113 0
M  V30 2583 H 234.878 -3.66018 0.206456 0
M  V30 2584 H 234.526 -4.57282 -2.09528 0
M  V30 2585 H 234.226 -5.81378 -0.852839 0
M  V30 2586 H 235.75 -5.83929 -1.78492 0
M  V30 2587 H 237.164 -5.71262 0.482983 0
M  V30 2588 H 235.561 -5.86747 1.25887 0
M  V30 2589 H 236.631 -4.53242 1.72335 0
M  V30 2590 N 237.974 -0.419461 -1.51915 0
M  V30 2591 C 239.22 0.153166 -2.02221 0
M  V30 2592 C 239.553 1.43907 -1.30401 0
M  V30 2593 O 238.828 1.90055 -0.413438 0
M  V30 2594 C 239.111 0.390291 -3.57979 0
M  V30 2595 C 238.964 -0.913014 -4.40436 0
M  V30 2596 C 240.283 1.16794 -4.2432 0
M  V30 2597 H 237.402 0.0541924 -0.735005 0
M  V30 2598 H 240.044 -0.554955 -1.81715 0
M  V30 2599 H 238.194 0.993491 -3.75582 0
M  V30 2600 H 239.866 -1.54882 -4.34522 0
M  V30 2601 H 238.109 -1.52168 -4.06236 0
M  V30 2602 H 238.78 -0.701361 -5.47526 0
M  V30 2603 H 241.256 0.657161 -4.10878 0
M  V30 2604 H 240.132 1.3026 -5.3322 0
M  V30 2605 H 240.393 2.19132 -3.83971 0
M  V30 2606 N 239.452 1.56882 -0.150215 0
M  V30 2607 C 240.415 2.1573 0.774157 0
M  V30 2608 C 241.415 1.0999 1.17298 0
M  V30 2609 O 242.605 1.35613 1.09338 0
M  V30 2610 C 239.737 2.72302 2.05096 0
M  V30 2611 H 240.93 2.98752 0.262201 0
M  V30 2612 H 238.483 1.55985 0.099248 0
M  V30 2613 H 239.218 1.92956 2.6065 0
M  V30 2614 H 239.003 3.49665 1.77416 0
M  V30 2615 H 240.493 3.17632 2.71109 0
M  V30 2616 N 240.93 -0.123565 1.57115 0
M  V30 2617 C 241.878 -1.17082 2.00984 0
M  V30 2618 C 242.872 -1.43136 0.906009 0
M  V30 2619 O 244.078 -1.43152 1.09121 0
M  V30 2620 H 240.453 -0.394653 0.64012 0
M  V30 2621 H 242.424 -0.774292 2.88179 0
M  V30 2622 C 241.173 -2.49057 2.42623 0
M  V30 2623 H 240.496 -2.29846 3.27125 0
M  V30 2624 H 241.936 -3.20906 2.7712 0
M  V30 2625 C 240.395 -3.11305 1.28805 0
M  V30 2626 O 240.925 -3.97171 0.60153 0
M  V30 2627 N 239.131 -2.71111 1.04628 0
M  V30 2628 H 238.678 -2.01382 1.60634 0
M  V30 2629 H 238.636 -3.1309 0.286685 0
M  V30 2630 N 242.408 -1.52605 -0.393616 0
M  V30 2631 C 243.654 -1.67672 -1.14079 0
M  V30 2632 C 243.987 -0.413121 -1.89755 0
M  V30 2633 O 243.262 0.588952 -1.85369 0
M  V30 2634 C 243.545 -2.9088 -2.12276 0
M  V30 2635 C 243.398 -4.27329 -1.40394 0
M  V30 2636 C 244.717 -3.09628 -3.12759 0
M  V30 2637 H 241.836 -0.610168 -0.413356 0
M  V30 2638 H 244.478 -1.85193 -0.424696 0
M  V30 2639 H 242.628 -2.76073 -2.73342 0
M  V30 2640 H 244.3 -4.53894 -0.82327 0
M  V30 2641 H 242.543 -4.2802 -0.705801 0
M  V30 2642 H 243.214 -5.09615 -2.12123 0
M  V30 2643 H 245.69 -3.23436 -2.61779 0
M  V30 2644 H 244.566 -3.97322 -3.78717 0
M  V30 2645 H 244.827 -2.23637 -3.81365 0
M  V30 2646 N 243.887 0.651787 -1.4349 0
M  V30 2647 C 245.115 1.43937 -1.48626 0
M  V30 2648 C 245.53 1.8851 -0.104587 0
M  V30 2649 O 244.887 1.5958 0.885464 0
M  V30 2650 C 244.938 2.6734 -2.43334 0
M  V30 2651 O 244.659 2.24631 -3.76128 0
M  V30 2652 C 246.16 3.60683 -2.57726 0
M  V30 2653 H 243.38 0.44213 -0.504739 0
M  V30 2654 H 245.924 0.798944 -1.88248 0
M  V30 2655 H 244.079 3.2752 -2.06904 0
M  V30 2656 H 244.493 3.04485 -4.2707 0
M  V30 2657 H 245.967 4.43933 -3.28067 0
M  V30 2658 H 246.444 4.08126 -1.62265 0
M  V30 2659 H 247.05 3.06384 -2.94973 0
M  V30 2660 N 245.365 1.30045 0.890287 0
M  V30 2661 C 246.312 1.15976 1.99545 0
M  V30 2662 C 247.282 0.0506202 1.66023 0
M  V30 2663 O 248.467 0.219847 1.89529 0
M  V30 2664 C 245.607 0.852054 3.34416 0
M  V30 2665 C 244.72 2.04255 3.80662 0
M  V30 2666 C 243.855 1.6734 5.04154 0
M  V30 2667 C 242.894 2.82916 5.42794 0
M  V30 2668 N 242.031 2.46333 6.57468 0
M  V30 2669 H 246.871 2.10524 2.10911 0
M  V30 2670 H 244.408 1.04749 1.03276 0
M  V30 2671 H 246.366 0.654296 4.12037 0
M  V30 2672 H 244.996 -0.0565502 3.2275 0
M  V30 2673 H 244.048 2.35172 2.98995 0
M  V30 2674 H 245.36 2.90826 4.05242 0
M  V30 2675 H 244.514 1.43908 5.89386 0
M  V30 2676 H 243.253 0.779308 4.81433 0
M  V30 2677 H 242.258 3.0702 4.56091 0
M  V30 2678 H 243.483 3.73004 5.6749 0
M  V30 2679 H 241.429 1.59423 6.36334 0
M  V30 2680 H 241.346 3.26436 6.81891 0
M  V30 2681 H 242.614 2.26244 7.45945 0
M  V30 2682 N 246.843 -1.10192 1.12674 0
M  V30 2683 C 247.753 -2.20172 0.810026 0
M  V30 2684 C 248.769 -1.72821 -0.202188 0
M  V30 2685 O 249.945 -2.01369 -0.0351691 0
M  V30 2686 C 247.01 -3.45631 0.272007 0
M  V30 2687 C 246.071 -4.07704 1.34447 0
M  V30 2688 C 245.304 -5.27175 0.832029 0
M  V30 2689 O 245.527 -5.69425 -0.333284 0
M  V30 2690 O 244.461 -5.80168 1.60277 0
M  V30 2691 H 248.287 -2.49701 1.72867 0
M  V30 2692 H 245.872 -1.18977 0.903597 0
M  V30 2693 H 247.754 -4.21394 -0.0230219 0
M  V30 2694 H 246.429 -3.17723 -0.619164 0
M  V30 2695 H 245.336 -3.33614 1.6927 0
M  V30 2696 H 246.669 -4.3982 2.2095 0
M  V30 2697 N 248.321 -0.919034 -1.28029 0
M  V30 2698 C 249.567 -0.555757 -1.95036 0
M  V30 2699 C 249.9 0.899198 -1.72128 0
M  V30 2700 O 249.175 1.64023 -1.04531 0
M  V30 2701 C 249.458 -0.872024 -3.49382 0
M  V30 2702 C 249.311 -2.3801 -3.81669 0
M  V30 2703 C 250.63 -0.37185 -4.38526 0
M  V30 2704 H 247.749 -0.203386 -0.708381 0
M  V30 2705 H 250.391 -1.14924 -1.51303 0
M  V30 2706 H 248.541 -0.366946 -3.86763 0
M  V30 2707 H 250.213 -2.9562 -3.54128 0
M  V30 2708 H 248.456 -2.83289 -3.28526 0
M  V30 2709 H 249.127 -2.55192 -4.8947 0
M  V30 2710 H 251.603 -0.804602 -4.08247 0
M  V30 2711 H 250.479 -0.622173 -5.45362 0
M  V30 2712 H 250.74 0.727934 -4.36066 0
M  V30 2713 N 249.799 1.42003 -0.683588 0
M  V30 2714 C 251.21 1.84501 -0.285736 0
M  V30 2715 C 251.561 1.57213 1.17382 0
M  V30 2716 O 250.686 1.03642 1.89966 0
M  V30 2717 C 251.281 3.34912 -0.511821 0
M  V30 2718 C 249.84 3.76025 -0.168005 0
M  V30 2719 C 248.987 2.6551 -0.799983 0
M  V30 2720 H 251.938 1.31724 -0.885119 0
M  V30 2721 H 251.959 3.79784 0.233292 0
M  V30 2722 H 251.471 3.54741 -1.57418 0
M  V30 2723 H 249.572 3.61801 0.890567 0
M  V30 2724 H 249.685 4.75141 -0.614661 0
M  V30 2725 H 248.049 2.53654 -0.230568 0
M  V30 2726 H 248.832 2.8816 -1.86597 0
M  V30 2727 N 251.277 0.427512 1.51691 0
M  V30 2728 C 252.187 -0.39527 2.31246 0
M  V30 2729 C 253.203 -1.03674 1.39742 0
M  V30 2730 O 254.379 -1.03425 1.72816 0
M  V30 2731 C 251.444 -1.48706 3.13189 0
M  V30 2732 C 250.505 -0.866743 4.20459 0
M  V30 2733 C 249.738 -1.90651 4.98486 0
M  V30 2734 O 249.961 -3.12733 4.77026 0
M  V30 2735 O 248.895 -1.5025 5.82845 0
M  V30 2736 H 252.721 0.253918 3.02637 0
M  V30 2737 H 250.306 0.190274 1.48183 0
M  V30 2738 H 252.188 -2.12047 3.64162 0
M  V30 2739 H 250.863 -2.12051 2.44573 0
M  V30 2740 H 249.77 -0.195544 3.73589 0
M  V30 2741 H 251.103 -0.276934 4.9142 0
M  V30 2742 N 252.755 -1.56801 0.158532 0
M  V30 2743 C 253.985 -2.00568 -0.495583 0
M  V30 2744 C 254.393 -1.03774 -1.58201 0
M  V30 2745 O 253.736 -0.0285797 -1.83678 0
M  V30 2746 C 253.798 -3.40768 -1.14532 0
M  V30 2747 C 253.462 -4.56553 -0.202101 0
M  V30 2748 C 254.459 -5.16714 0.574675 0
M  V30 2749 C 252.144 -5.02197 -0.101648 0
M  V30 2750 C 254.138 -6.20939 1.43924 0
M  V30 2751 C 251.825 -6.06274 0.766508 0
M  V30 2752 C 252.823 -6.65515 1.53555 0
M  V30 2753 O 252.511 -7.67575 2.38922 0
M  V30 2754 H 252.243 -0.662893 -0.13247 0
M  V30 2755 H 254.797 -2.03829 0.253559 0
M  V30 2756 H 253.027 -3.34381 -1.94233 0
M  V30 2757 H 254.716 -3.6857 -1.70033 0
M  V30 2758 H 255.482 -4.82341 0.507167 0
M  V30 2759 H 251.361 -4.55807 -0.689994 0
M  V30 2760 H 254.905 -6.67107 2.03996 0
M  V30 2761 H 250.802 -6.40073 0.835266 0
M  V30 2762 H 251.57 -7.84844 2.32296 0
M  V30 2763 N 254.233 0.115231 -1.57178 0
M  V30 2764 C 255.143 1.15994 -2.03918 0
M  V30 2765 C 256.159 1.45103 -0.960268 0
M  V30 2766 O 257.335 1.56144 -1.27204 0
M  V30 2767 C 254.4 2.46568 -2.43732 0
M  V30 2768 C 253.461 2.24822 -3.65723 0
M  V30 2769 C 252.694 3.4917 -4.03629 0
M  V30 2770 O 252.917 4.56623 -3.41835 0
M  V30 2771 O 251.851 3.39949 -4.96708 0
M  V30 2772 H 255.677 0.793019 -2.93164 0
M  V30 2773 H 253.262 0.3263 -1.45793 0
M  V30 2774 H 255.144 3.23492 -2.70057 0
M  V30 2775 H 253.819 2.82726 -1.57631 0
M  V30 2776 H 252.726 1.45744 -3.44542 0
M  V30 2777 H 254.059 1.93566 -4.52541 0
M  V30 2778 N 255.711 1.52812 0.385517 0
M  V30 2779 C 256.643 1.74096 1.49074 0
M  V30 2780 C 257.656 0.621462 1.50472 0
M  V30 2781 O 258.845 0.897245 1.54311 0
M  V30 2782 C 255.945 1.78774 2.87911 0
M  V30 2783 C 255.118 3.08134 3.10439 0
M  V30 2784 C 254.177 3.04313 4.29278 0
M  V30 2785 O 253.203 3.78168 4.25415 0
M  V30 2786 N 254.405 2.23741 5.35649 0
M  V30 2787 H 257.17 2.69455 1.31202 0
M  V30 2788 H 254.731 1.51343 0.575065 0
M  V30 2789 H 256.723 1.73721 3.65518 0
M  V30 2790 H 255.293 0.907869 2.99126 0
M  V30 2791 H 254.513 3.26649 2.20667 0
M  V30 2792 H 255.801 3.93662 3.22347 0
M  V30 2793 H 255.199 1.63211 5.41645 0
M  V30 2794 H 253.756 2.24524 6.11909 0
M  V30 2795 N 257.189 -0.644168 1.43834 0
M  V30 2796 C 258.437 -1.40117 1.45642 0
M  V30 2797 C 258.758 -1.94814 0.0852413 0
M  V30 2798 O 258.028 -1.74988 -0.880688 0
M  V30 2799 H 256.608 -0.52005 0.536243 0
M  V30 2800 H 259.27 -0.7591 1.7951 0
M  V30 2801 H 258.366 -2.23902 2.17427 0
M  V30 2802 N 258.668 -1.30515 -0.883378 0
M  V30 2803 C 259.615 -1.17032 -1.98927 0
M  V30 2804 C 260.585 -0.0594241 -1.65994 0
M  V30 2805 O 261.77 -0.229895 -1.8941 0
M  V30 2806 C 258.91 -0.869777 -3.33959 0
M  V30 2807 C 258.023 -2.06271 -3.79574 0
M  V30 2808 C 257.158 -1.70011 -5.03259 0
M  V30 2809 C 256.197 -2.8579 -5.41286 0
M  V30 2810 N 255.334 -2.49816 -6.56153 0
M  V30 2811 H 260.174 -2.1164 -2.09792 0
M  V30 2812 H 257.711 -1.05296 -1.02719 0
M  V30 2813 H 259.669 -0.676138 -4.11685 0
M  V30 2814 H 258.299 0.0394332 -3.22776 0
M  V30 2815 H 257.351 -2.36755 -2.97744 0
M  V30 2816 H 258.663 -2.92971 -4.03694 0
M  V30 2817 H 257.817 -1.47032 -5.88614 0
M  V30 2818 H 256.556 -0.804829 -4.81013 0
M  V30 2819 H 255.561 -3.09434 -4.54456 0
M  V30 2820 H 256.786 -3.76008 -5.65504 0
M  V30 2821 H 254.732 -1.62795 -6.35479 0
M  V30 2822 H 254.649 -3.30048 -6.8015 0
M  V30 2823 H 255.917 -2.30197 -7.44735 0
M  V30 2824 N 260.146 1.09593 -1.13257 0
M  V30 2825 C 261.423 1.78293 -0.804432 0
M  V30 2826 C 261.803 1.99004 0.70431 0
M  V30 2827 O 261.151 1.59007 1.641 0
M  V30 2828 C 261.361 3.10707 -1.5894 0
M  V30 2829 C 262.709 3.85443 -1.78099 0
M  V30 2830 O 263.733 3.20454 -1.55525 0
M  V30 2831 O 262.592 5.02108 -2.15753 0
M  V30 2832 H 259.686 0.773156 -0.293528 0
M  V30 2833 H 262.232 1.16164 -1.23709 0
M  V30 2834 H 261.004 2.91106 -2.61482 0
M  V30 2835 H 260.627 3.80558 -1.15157 0
M  V30 2836 N 261.624 0.925811 1.2754 0
M  V30 2837 C 262.852 0.581509 1.9856 0
M  V30 2838 C 263.267 -0.840041 1.69082 0
M  V30 2839 O 262.624 -1.55805 0.950312 0
M  V30 2840 C 262.675 0.795589 3.52637 0
M  V30 2841 O 262.396 2.16121 3.81082 0
M  V30 2842 C 263.897 0.459744 4.4091 0
M  V30 2843 H 261.117 0.220538 0.633722 0
M  V30 2844 H 263.661 1.24232 1.6244 0
M  V30 2845 H 261.816 0.18161 3.86974 0
M  V30 2846 H 262.23 2.2098 4.75676 0
M  V30 2847 H 263.704 0.660244 5.48037 0
M  V30 2848 H 264.181 -0.604625 4.35018 0
M  V30 2849 H 264.787 1.05178 4.12089 0
M  V30 2850 N 263.102 -1.41638 0.69111 0
M  V30 2851 C 264.012 -2.34588 0.0233487 0
M  V30 2852 C 265.028 -1.55987 -0.770984 0
M  V30 2853 O 266.204 -1.88486 -0.709569 0
M  V30 2854 C 263.269 -3.34684 -0.904851 0
M  V30 2855 C 262.33 -4.29176 -0.103225 0
M  V30 2856 C 261.563 -5.2449 -0.987216 0
M  V30 2857 O 261.786 -5.2514 -2.22674 0
M  V30 2858 O 260.72 -6.00295 -0.439281 0
M  V30 2859 H 264.546 -2.93261 0.789416 0
M  V30 2860 H 262.131 -1.42417 0.45142 0
M  V30 2861 H 264.013 -3.96133 -1.43724 0
M  V30 2862 H 262.688 -2.78461 -1.65049 0
M  V30 2863 H 261.595 -3.71089 0.473655 0
M  V30 2864 H 262.928 -4.88484 0.60365 0
M  V30 2865 N 264.58 -0.43555 -1.51462 0
M  V30 2866 C 265.827 0.131514 -2.02072 0
M  V30 2867 C 266.155 1.42868 -1.31981 0
M  V30 2868 O 265.41 1.91076 -0.422883 0
M  V30 2869 C 265.709 0.39942 -3.55161 0
M  V30 2870 C 265.375 -0.81172 -4.43533 0
M  V30 2871 C 264.037 -1.14387 -4.67407 0
M  V30 2872 C 266.389 -1.61976 -4.95392 0
M  V30 2873 C 263.717 -2.28477 -5.40384 0
M  V30 2874 C 266.069 -2.75164 -5.6962 0
M  V30 2875 C 264.733 -3.08835 -5.91758 0
M  V30 2876 H 264.003 0.0481244 -0.739436 0
M  V30 2877 H 266.65 -0.58238 -1.8243 0
M  V30 2878 H 264.955 1.19519 -3.73125 0
M  V30 2879 H 266.652 0.85157 -3.91854 0
M  V30 2880 H 263.242 -0.542898 -4.25148 0
M  V30 2881 H 267.426 -1.37637 -4.76833 0
M  V30 2882 H 262.682 -2.5488 -5.55739 0
M  V30 2883 H 266.856 -3.38147 -6.08793 0
M  V30 2884 H 264.483 -3.97353 -6.48086 0
M  V30 2885 N 266.058 1.56714 -0.166846 0
M  V30 2886 C 267.304 1.97039 0.479962 0
M  V30 2887 C 267.637 1.05264 1.63197 0
M  V30 2888 O 266.912 0.0988833 1.94248 0
M  V30 2889 C 267.195 3.46867 0.967212 0
M  V30 2890 C 267.048 4.49421 -0.18466 0
M  V30 2891 C 268.367 3.9968 1.84238 0
M  V30 2892 H 265.486 0.71641 0.172992 0
M  V30 2893 H 268.128 1.8832 -0.252079 0
M  V30 2894 H 266.278 3.54428 1.59101 0
M  V30 2895 H 267.95 4.53924 -0.821621 0
M  V30 2896 H 266.193 4.25573 -0.840837 0
M  V30 2897 H 266.864 5.51644 0.198317 0
M  V30 2898 H 269.34 3.94723 1.31655 0
M  V30 2899 H 268.216 5.04941 2.15234 0
M  V30 2900 H 268.477 3.43226 2.78654 0
M  V30 2901 N 267.536 -0.106894 1.57237 0
M  V30 2902 C 268.782 -0.81373 1.85759 0
M  V30 2903 C 269.115 -1.78952 0.754315 0
M  V30 2904 O 268.39 -1.93029 -0.23879 0
M  V30 2905 C 268.673 -1.55293 3.24894 0
M  V30 2906 C 268.526 -0.595929 4.45835 0
M  V30 2907 C 269.845 -2.5063 3.61763 0
M  V30 2908 H 266.964 -0.294369 0.67566 0
M  V30 2909 H 269.606 -0.0776472 1.89841 0
M  V30 2910 H 267.756 -2.1804 3.21544 0
M  V30 2911 H 269.428 0.0236262 4.61294 0
M  V30 2912 H 267.671 0.0916191 4.33703 0
M  V30 2913 H 268.342 -1.15004 5.39887 0
M  V30 2914 H 270.818 -1.97982 3.65981 0
M  V30 2915 H 269.694 -2.99376 4.60071 0
M  V30 2916 H 269.955 -3.3385 2.89821 0
M  V30 2917 N 269.014 -1.53014 -0.377408 0
M  V30 2918 C 270.244 -1.72265 -1.14054 0
M  V30 2919 C 270.652 -0.44601 -1.83868 0
M  V30 2920 O 269.995 0.590095 -1.73964 0
M  V30 2921 C 270.057 -2.82492 -2.22348 0
M  V30 2922 C 269.721 -4.23233 -1.72402 0
M  V30 2923 C 270.718 -5.05992 -1.19448 0
M  V30 2924 C 268.403 -4.696 -1.78273 0
M  V30 2925 C 270.397 -6.33203 -0.730268 0
M  V30 2926 C 268.084 -5.96792 -1.31464 0
M  V30 2927 C 269.082 -6.78424 -0.789297 0
M  V30 2928 O 268.77 -8.0323 -0.328077 0
M  V30 2929 H 268.502 -0.579873 -0.347453 0
M  V30 2930 H 271.056 -2.00502 -0.445882 0
M  V30 2931 H 269.286 -2.49702 -2.95272 0
M  V30 2932 H 270.975 -2.90034 -2.83963 0
M  V30 2933 H 271.741 -4.71349 -1.14259 0
M  V30 2934 H 267.62 -4.06142 -2.18106 0
M  V30 2935 H 271.164 -6.96868 -0.319542 0
M  V30 2936 H 267.061 -6.30937 -1.36342 0
M  V30 2937 H 267.829 -8.1727 -0.448493 0
M  V30 2938 N 270.492 0.636531 -1.44174 0
M  V30 2939 C 271.738 1.39826 -1.4689 0
M  V30 2940 C 272.071 1.93947 -0.0990585 0
M  V30 2941 O 271.346 1.73325 0.882544 0
M  V30 2942 C 271.629 2.56751 -2.5249 0
M  V30 2943 C 271.482 2.08014 -3.98811 0
M  V30 2944 C 272.801 3.58946 -2.54649 0
M  V30 2945 H 269.92 0.507075 -0.53483 0
M  V30 2946 H 272.562 0.720188 -1.75822 0
M  V30 2947 H 270.712 3.14597 -2.2795 0
M  V30 2948 H 272.384 1.5504 -4.34466 0
M  V30 2949 H 270.627 1.39242 -4.10846 0
M  V30 2950 H 271.298 2.92169 -4.68339 0
M  V30 2951 H 273.774 3.1089 -2.76563 0
M  V30 2952 H 272.65 4.38286 -3.3045 0
M  V30 2953 H 272.911 4.12655 -1.58646 0
M  V30 2954 N 271.97 1.30982 0.876444 0
M  V30 2955 C 272.918 1.18006 2.00443 0
M  V30 2956 C 273.912 0.0898871 1.69161 0
M  V30 2957 O 275.118 0.251333 1.78237 0
M  V30 2958 H 271.493 0.365196 0.65737 0
M  V30 2959 H 273.464 2.13453 2.0852 0
M  V30 2960 C 272.213 0.897521 3.35916 0
M  V30 2961 H 271.536 1.7285 3.60504 0
M  V30 2962 H 272.976 0.846874 4.15456 0
M  V30 2963 C 271.435 -0.399674 3.34521 0
M  V30 2964 O 271.965 -1.41852 3.7582 0
M  V30 2965 N 270.171 -0.413893 2.87637 0
M  V30 2966 H 269.718 0.41571 2.54224 0
M  V30 2967 H 269.676 -1.28175 2.87086 0
M  V30 2968 N 273.449 -1.08991 1.13837 0
M  V30 2969 C 274.697 -1.80899 0.901098 0
M  V30 2970 C 275.018 -1.86356 -0.574134 0
M  V30 2971 O 274.288 -1.35235 -1.41733 0
M  V30 2972 H 272.868 -0.669966 0.330386 0
M  V30 2973 H 275.53 -1.318 1.43578 0
M  V30 2974 H 274.626 -2.83929 1.29578 0
M  V30 2975 N 274.927 -0.932562 -1.27047 0
M  V30 2976 C 276.204 -0.49377 -1.89265 0
M  V30 2977 C 276.584 1.02833 -1.8436 0
M  V30 2978 O 275.932 1.88461 -1.29209 0
M  V30 2979 C 276.142 -1.04536 -3.32976 0
M  V30 2980 C 277.49 -1.10879 -4.09867 0
M  V30 2981 O 278.514 -0.995327 -3.42011 0
M  V30 2982 O 277.373 -1.28417 -5.31198 0
M  V30 2983 H 274.467 -0.159596 -0.811454 0
M  V30 2984 H 277.013 -1.02457 -1.3528 0
M  V30 2985 H 275.785 -2.08913 -3.30864 0
M  V30 2986 H 275.408 -0.496494 -3.94488 0
M  V30 2987 N 276.405 1.4127 -0.698611 0
M  V30 2988 C 277.315 2.34573 -0.0357891 0
M  V30 2989 C 278.331 1.56393 0.762701 0
M  V30 2990 O 279.507 1.8886 0.699564 0
M  V30 2991 C 276.572 3.35159 0.887089 0
M  V30 2992 C 275.633 4.29225 0.0804634 0
M  V30 2993 C 274.866 5.25006 0.959387 0
M  V30 2994 O 275.089 5.26314 2.19886 0
M  V30 2995 O 274.023 6.00519 0.407439 0
M  V30 2996 H 277.849 2.92838 -0.804957 0
M  V30 2997 H 275.434 1.42175 -0.458966 0
M  V30 2998 H 277.316 3.9689 1.41621 0
M  V30 2999 H 275.991 2.79333 1.6357 0
M  V30 3000 H 274.898 3.70833 -0.493328 0
M  V30 3001 H 276.231 4.88157 -0.629547 0
M  V30 3002 N 277.883 0.443576 1.51229 0
M  V30 3003 C 278.846 -0.353132 2.26463 0
M  V30 3004 C 279.846 -0.944338 1.3015 0
M  V30 3005 O 281.036 -0.817813 1.5381 0
M  V30 3006 C 278.168 -1.50023 3.06114 0
M  V30 3007 H 279.361 0.3063 2.98332 0
M  V30 3008 H 276.914 0.196902 1.55055 0
M  V30 3009 H 277.649 -2.19553 2.38677 0
M  V30 3010 H 277.434 -1.08241 3.76864 0
M  V30 3011 H 278.924 -2.06296 3.63087 0
M  V30 3012 N 279.361 -1.56624 0.175154 0
M  V30 3013 C 280.586 -2.01813 -0.478137 0
M  V30 3014 C 281.011 -1.05457 -1.55757 0
M  V30 3015 O 280.369 -0.0347439 -1.81267 0
M  V30 3016 C 280.417 -3.45581 -1.02987 0
M  V30 3017 O 279.521 -3.52305 -2.14371 0
M  V30 3018 H 278.862 -0.65413 -0.114059 0
M  V30 3019 H 281.392 -2.02673 0.280173 0
M  V30 3020 H 281.402 -3.84965 -1.35151 0
M  V30 3021 H 280.077 -4.1521 -0.239556 0
M  V30 3022 H 278.654 -3.24783 -1.83222 0
M  V30 3023 N 280.839 0.0985539 -1.57292 0
M  V30 3024 C 281.769 1.12064 -2.04851 0
M  V30 3025 C 282.75 1.41981 -0.936767 0
M  V30 3026 O 283.935 1.52071 -1.20781 0
M  V30 3027 C 281.065 2.44144 -2.47004 0
M  V30 3028 C 280.019 2.28643 -3.6181 0
M  V30 3029 C 279.345 3.65869 -3.89929 0
M  V30 3030 C 280.645 1.72986 -4.92822 0
M  V30 3031 H 282.339 0.724979 -2.9049 0
M  V30 3032 H 279.885 0.34729 -1.39749 0
M  V30 3033 H 281.838 3.15914 -2.78884 0
M  V30 3034 H 280.562 2.85639 -1.5836 0
M  V30 3035 H 279.221 1.59318 -3.30172 0
M  V30 3036 H 278.869 4.04885 -2.98458 0
M  V30 3037 H 278.569 3.56344 -4.67218 0
M  V30 3038 H 280.093 4.39112 -4.2428 0
M  V30 3039 H 281.507 2.34593 -5.23105 0
M  V30 3040 H 279.904 1.74229 -5.74251 0
M  V30 3041 H 280.974 0.689007 -4.7998 0
M  V30 3042 N 282.317 1.53212 0.369288 0
M  V30 3043 C 283.28 1.7872 1.43498 0
M  V30 3044 C 284.28 0.657554 1.46741 0
M  V30 3045 O 285.47 0.925736 1.47566 0
M  V30 3046 C 282.602 1.90591 2.82645 0
M  V30 3047 H 283.795 2.73894 1.22156 0
M  V30 3048 H 281.348 1.44233 0.602203 0
M  V30 3049 H 282.083 0.974709 3.09306 0
M  V30 3050 H 281.868 2.72751 2.8169 0
M  V30 3051 H 283.358 2.11931 3.59826 0
M  V30 3052 N 283.795 -0.628877 1.44509 0
M  V30 3053 C 285.025 -1.41349 1.50678 0
M  V30 3054 C 285.433 -1.88745 0.131075 0
M  V30 3055 O 284.776 -1.61592 -0.87371 0
M  V30 3056 C 284.838 -2.66608 2.41165 0
M  V30 3057 C 284.502 -2.40993 3.88293 0
M  V30 3058 C 285.499 -2.0268 4.78766 0
M  V30 3059 C 283.184 -2.54563 4.33016 0
M  V30 3060 C 285.178 -1.78269 6.11963 0
M  V30 3061 C 282.865 -2.29766 5.6626 0
M  V30 3062 C 283.863 -1.91678 6.55552 0
M  V30 3063 O 283.551 -1.67158 7.86329 0
M  V30 3064 H 283.283 -0.439851 0.51333 0
M  V30 3065 H 285.837 -0.776084 1.90174 0
M  V30 3066 H 284.067 -3.32994 1.96601 0
M  V30 3067 H 285.756 -3.28615 2.38259 0
M  V30 3068 H 286.522 -1.91751 4.45485 0
M  V30 3069 H 282.401 -2.83179 3.63773 0
M  V30 3070 H 285.945 -1.48465 6.81619 0
M  V30 3071 H 281.842 -2.40306 5.99102 0
M  V30 3072 H 282.61 -1.81386 7.98149 0
M  V30 3073 N 285.273 -1.31445 -0.869486 0
M  V30 3074 C 286.519 -1.21337 -1.62496 0
M  V30 3075 C 286.852 0.227872 -1.92858 0
M  V30 3076 O 286.127 1.16094 -1.56053 0
M  V30 3077 C 286.41 -2.05814 -2.95487 0
M  V30 3078 C 286.263 -3.5824 -2.72 0
M  V30 3079 C 287.582 -1.9079 -3.96594 0
M  V30 3080 H 284.701 -0.442135 -0.589649 0
M  V30 3081 H 287.343 -1.6124 -1.00507 0
M  V30 3082 H 285.493 -1.71913 -3.48394 0
M  V30 3083 H 287.165 -4.0228 -2.25762 0
M  V30 3084 H 285.408 -3.81647 -2.06224 0
M  V30 3085 H 286.079 -4.12657 -3.66631 0
M  V30 3086 H 288.555 -2.20459 -3.52898 0
M  V30 3087 H 287.431 -2.52199 -4.87531 0
M  V30 3088 H 287.692 -0.871341 -4.33428 0
M  V30 3089 N 286.751 1.08385 -1.14413 0
M  V30 3090 C 287.997 1.81044 -0.913834 0
M  V30 3091 C 288.33 1.86004 0.558209 0
M  V30 3092 O 287.605 1.33606 1.4135 0
M  V30 3093 C 287.888 3.26648 -1.51569 0
M  V30 3094 C 287.741 3.29895 -3.0576 0
M  V30 3095 C 289.06 4.23629 -1.19273 0
M  V30 3096 H 286.179 0.65727 -0.333414 0
M  V30 3097 H 288.821 1.26896 -1.41412 0
M  V30 3098 H 286.971 3.72889 -1.09023 0
M  V30 3099 H 288.643 2.91977 -3.57137 0
M  V30 3100 H 286.886 2.69163 -3.40197 0
M  V30 3101 H 287.557 4.32516 -3.42977 0
M  V30 3102 H 290.033 3.85727 -1.56057 0
M  V30 3103 H 288.909 5.23822 -1.64017 0
M  V30 3104 H 289.17 4.41968 -0.108068 0
M  V30 3105 N 288.23 0.939286 1.26551 0
M  V30 3106 C 289.178 0.43815 2.28436 0
M  V30 3107 C 290.172 -0.483587 1.62351 0
M  V30 3108 O 291.378 -0.362009 1.76322 0
M  V30 3109 H 287.753 0.123149 0.741848 0
M  V30 3110 H 289.724 1.31002 2.68106 0
M  V30 3111 C 288.473 -0.283052 3.46546 0
M  V30 3112 H 287.796 0.417043 3.97619 0
M  V30 3113 H 289.236 -0.597948 4.19763 0
M  V30 3114 C 287.695 -1.50018 3.01656 0
M  V30 3115 O 288.225 -2.59855 3.0633 0
M  V30 3116 N 286.431 -1.35608 2.57019 0
M  V30 3117 H 285.978 -0.46244 2.53415 0
M  V30 3118 H 285.936 -2.17165 2.27347 0
M  V30 3119 N 289.708 -1.40897 0.706093 0
M  V30 3120 C 290.638 -2.33418 0.0620085 0
M  V30 3121 C 291.619 -1.52385 -0.755827 0
M  V30 3122 O 292.804 -1.80886 -0.706674 0
M  V30 3123 C 289.934 -3.36293 -0.867445 0
M  V30 3124 C 288.888 -4.27716 -0.155932 0
M  V30 3125 C 288.214 -5.2105 -1.20046 0
M  V30 3126 C 289.514 -5.12944 0.984149 0
M  V30 3127 H 291.208 -2.87527 0.83477 0
M  V30 3128 H 288.754 -1.38249 0.402875 0
M  V30 3129 H 290.707 -3.99949 -1.32735 0
M  V30 3130 H 289.431 -2.80556 -1.67199 0
M  V30 3131 H 288.09 -3.65498 0.284047 0
M  V30 3132 H 287.738 -4.61624 -1.99781 0
M  V30 3133 H 287.438 -5.83056 -0.729328 0
M  V30 3134 H 288.962 -5.87584 -1.66066 0
M  V30 3135 H 290.376 -5.70109 0.604048 0
M  V30 3136 H 288.773 -5.83945 1.38304 0
M  V30 3137 H 289.843 -4.49485 1.81911 0
M  V30 3138 N 291.186 -0.45159 -1.50991 0
M  V30 3139 C 292.134 0.366864 -2.29689 0
M  V30 3140 C 293.128 1.00809 -1.36139 0
M  V30 3141 O 294.334 0.941427 -1.53418 0
M  V30 3142 H 290.709 0.137133 -0.739391 0
M  V30 3143 H 292.68 -0.317538 -2.96706 0
M  V30 3144 C 291.429 1.44751 -3.16137 0
M  V30 3145 H 290.752 0.963473 -3.88017 0
M  V30 3146 H 292.192 1.99315 -3.74232 0
M  V30 3147 C 290.651 2.43869 -2.32442 0
M  V30 3148 O 291.181 3.4872 -1.99392 0
M  V30 3149 N 289.387 2.15105 -1.95392 0
M  V30 3150 H 288.934 1.29866 -2.22469 0
M  V30 3151 H 288.892 2.81661 -1.39693 0
M  V30 3152 N 292.664 1.56529 -0.183458 0
M  V30 3153 C 293.911 1.97244 0.458357 0
M  V30 3154 C 294.239 1.06992 1.62428 0
M  V30 3155 O 293.494 0.106542 1.9541 0
M  V30 3156 C 293.793 3.43939 0.971637 0
M  V30 3157 C 293.459 4.5083 -0.0796784 0
M  V30 3158 C 292.121 4.79786 -0.368584 0
M  V30 3159 C 294.473 5.15138 -0.792638 0
M  V30 3160 C 291.801 5.70345 -1.37563 0
M  V30 3161 C 294.153 6.06784 -1.78875 0
M  V30 3162 C 292.817 6.34102 -2.08497 0
M  V30 3163 H 292.087 0.721768 0.167725 0
M  V30 3164 H 294.734 1.89472 -0.277976 0
M  V30 3165 H 293.039 3.48724 1.78602 0
M  V30 3166 H 294.736 3.72791 1.47744 0
M  V30 3167 H 291.326 4.28317 0.155668 0
M  V30 3168 H 295.51 4.92868 -0.582659 0
M  V30 3169 H 290.766 5.89789 -1.61118 0
M  V30 3170 H 294.94 6.55677 -2.3465 0
M  V30 3171 H 292.567 7.04074 -2.86678 0
M  V30 3172 N 294.142 -0.090211 1.57342 0
M  V30 3173 C 295.072 -1.10976 2.05443 0
M  V30 3174 C 296.053 -1.41482 0.944284 0
M  V30 3175 O 297.238 -1.51428 1.21586 0
M  V30 3176 C 294.368 -2.42831 2.48295 0
M  V30 3177 C 293.322 -2.26721 3.63018 0
M  V30 3178 C 292.648 -3.63796 3.91863 0
M  V30 3179 C 293.948 -1.7037 4.93732 0
M  V30 3180 H 295.642 -0.709564 2.9087 0
M  V30 3181 H 293.188 -0.339874 1.39932 0
M  V30 3182 H 295.141 -3.14431 2.80555 0
M  V30 3183 H 293.865 -2.84795 1.59873 0
M  V30 3184 H 292.524 -1.57565 3.31012 0
M  V30 3185 H 292.172 -4.03297 3.00601 0
M  V30 3186 H 291.872 -3.53861 4.69101 0
M  V30 3187 H 293.396 -4.36855 4.26603 0
M  V30 3188 H 294.81 -2.31816 5.24342 0
M  V30 3189 H 293.207 -1.71181 5.75167 0
M  V30 3190 H 294.277 -0.663542 4.80339 0
M  V30 3191 N 295.62 -1.53406 -0.361157 0
M  V30 3192 C 296.848 -1.73717 -1.12383 0
M  V30 3193 C 297.263 -0.468161 -1.82904 0
M  V30 3194 O 296.62 0.559198 -1.73722 0
M  V30 3195 C 296.671 -2.90558 -2.15078 0
M  V30 3196 O 296.392 -4.12549 -1.47428 0
M  V30 3197 C 297.893 -3.22777 -3.03858 0
M  V30 3198 H 295.113 -0.580896 -0.335858 0
M  V30 3199 H 297.657 -2.00167 -0.418728 0
M  V30 3200 H 295.812 -2.66489 -2.8118 0
M  V30 3201 H 296.226 -4.78009 -2.15887 0
M  V30 3202 H 297.7 -4.07927 -3.71887 0
M  V30 3203 H 298.177 -2.38329 -3.68912 0
M  V30 3204 H 298.783 -3.48787 -2.43367 0
M  V30 3205 N 297.098 0.621204 -1.44841 0
M  V30 3206 C 298.509 1.20298 -1.42777 0
M  V30 3207 C 298.86 1.95639 -0.148259 0
M  V30 3208 O 297.985 2.02955 0.750892 0
M  V30 3209 C 298.58 2.1882 -2.58657 0
M  V30 3210 C 297.139 2.72403 -2.59756 0
M  V30 3211 C 296.286 1.4757 -2.34773 0
M  V30 3212 H 299.237 0.411297 -1.53278 0
M  V30 3213 H 299.258 3.01607 -2.31977 0
M  V30 3214 H 298.77 1.63957 -3.51766 0
M  V30 3215 H 296.871 3.31242 -1.70615 0
M  V30 3216 H 296.984 3.17765 -3.58556 0
M  V30 3217 H 295.348 1.76051 -1.8406 0
M  V30 3218 H 296.131 0.945954 -3.3001 0
M  V30 3219 N 298.576 1.31904 0.862503 0
M  V30 3220 C 299.486 1.22161 2.00285 0
M  V30 3221 C 300.502 0.136785 1.73462 0
M  V30 3222 O 301.678 0.355994 1.98229 0
M  V30 3223 C 298.743 0.937093 3.33796 0
M  V30 3224 C 297.804 2.10957 3.73893 0
M  V30 3225 C 297.037 1.83853 5.01033 0
M  V30 3226 O 297.26 0.777274 5.65079 0
M  V30 3227 O 296.194 2.69741 5.38074 0
M  V30 3228 H 300.02 2.18008 2.11439 0
M  V30 3229 H 297.605 1.11716 0.991957 0
M  V30 3230 H 299.487 0.794583 4.13841 0
M  V30 3231 H 298.162 0.00871894 3.23699 0
M  V30 3232 H 297.069 2.30752 2.94456 0
M  V30 3233 H 298.402 3.02046 3.88625 0
M  V30 3234 N 300.054 -1.07777 1.14986 0
M  V30 3235 C 301.465 -1.61766 0.932127 0
M  V30 3236 C 301.816 -1.88974 -0.527581 0
M  V30 3237 O 300.941 -1.65198 -1.39781 0
M  V30 3238 C 301.536 -2.93891 1.68563 0
M  V30 3239 C 300.095 -3.44639 1.5133 0
M  V30 3240 C 299.242 -2.18767 1.704 0
M  V30 3241 H 302.193 -0.909201 1.30074 0
M  V30 3242 H 302.214 -3.62623 1.15259 0
M  V30 3243 H 301.726 -2.74057 2.74799 0
M  V30 3244 H 299.827 -3.69564 0.474702 0
M  V30 3245 H 299.94 -4.20966 2.28746 0
M  V30 3246 H 298.304 -2.28253 1.13016 0
M  V30 3247 H 299.087 -2.01433 2.77992 0
M  V30 3248 N 301.532 -0.945985 -1.26051 0
M  V30 3249 C 302.78 -0.594941 -1.93145 0
M  V30 3250 C 303.101 0.86953 -1.7454 0
M  V30 3251 O 302.371 1.61838 -1.10387 0
M  V30 3252 H 300.951 -0.217044 -0.714773 0
M  V30 3253 H 303.613 -1.20235 -1.53393 0
M  V30 3254 H 302.709 -0.816835 -3.01221 0
M  V30 3255 N 303.011 1.40521 -0.713556 0
M  V30 3256 C 303.959 2.32549 -0.0485227 0
M  V30 3257 C 304.953 1.51931 0.74922 0
M  V30 3258 O 306.159 1.67745 0.652816 0
M  V30 3259 H 302.534 0.751994 0.00311138 0
M  V30 3260 H 304.505 2.86291 -0.841443 0
M  V30 3261 C 303.254 3.36879 0.860687 0
M  V30 3262 H 302.577 3.98978 0.256246 0
M  V30 3263 H 304.017 4.03772 1.294 0
M  V30 3264 C 302.476 2.72197 1.9852 0
M  V30 3265 O 303.006 2.5837 3.07584 0
M  V30 3266 N 301.212 2.30612 1.76823 0
M  V30 3267 H 300.759 2.42059 0.881217 0
M  V30 3268 H 300.717 1.87672 2.52243 0
M  V30 3269 N 304.489 0.459591 1.5075 0
M  V30 3270 C 305.735 -0.091664 2.03193 0
M  V30 3271 C 306.09 -1.38432 1.3362 0
M  V30 3272 O 305.383 -1.86257 0.449322 0
M  V30 3273 C 305.577 -0.342866 3.55752 0
M  V30 3274 C 305.406 0.923888 4.40107 0
M  V30 3275 C 304.176 1.46388 4.83631 0
M  V30 3276 C 306.374 1.81617 4.81165 0
M  V30 3277 N 304.356 2.68086 5.52271 0
M  V30 3278 C 305.727 2.87907 5.49099 0
M  V30 3279 C 307.782 1.82793 4.63132 0
M  V30 3280 C 306.485 3.95347 6.0091 0
M  V30 3281 C 308.511 2.89182 5.15876 0
M  V30 3282 C 307.873 3.94191 5.83774 0
M  V30 3283 H 303.972 0.00619247 0.781975 0
M  V30 3284 H 306.556 0.625233 1.84388 0
M  V30 3285 H 304.727 -1.0288 3.74527 0
M  V30 3286 H 306.459 -0.887445 3.9485 0
M  V30 3287 H 303.214 1.01466 4.62603 0
M  V30 3288 H 303.638 3.29857 5.91205 0
M  V30 3289 H 308.28 1.0293 4.1008 0
M  V30 3290 H 305.998 4.76035 6.53006 0
M  V30 3291 H 309.584 2.91061 5.0376 0
M  V30 3292 H 308.464 4.75161 6.23853 0
M  V30 3293 N 305.967 -1.56429 0.191757 0
M  V30 3294 C 306.897 -2.21937 -0.725696 0
M  V30 3295 C 307.878 -1.1814 -1.2238 0
M  V30 3296 O 309.063 -1.46636 -1.27325 0
M  V30 3297 C 306.193 -2.87611 -1.94672 0
M  V30 3298 C 305.147 -3.97623 -1.58366 0
M  V30 3299 C 304.473 -4.50446 -2.88102 0
M  V30 3300 C 305.773 -5.16197 -0.796133 0
M  V30 3301 H 307.467 -2.98861 -0.179606 0
M  V30 3302 H 305.013 -1.43749 -0.0849464 0
M  V30 3303 H 306.966 -3.3212 -2.59373 0
M  V30 3304 H 305.69 -2.08087 -2.51728 0
M  V30 3305 H 304.349 -3.53801 -0.960247 0
M  V30 3306 H 303.997 -3.67688 -3.43241 0
M  V30 3307 H 303.697 -5.24675 -2.64556 0
M  V30 3308 H 305.221 -4.97654 -3.53798 0
M  V30 3309 H 306.635 -5.57271 -1.34618 0
M  V30 3310 H 305.032 -5.96471 -0.658928 0
M  V30 3311 H 306.102 -4.84473 0.203478 0
M  V30 3312 N 307.445 0.0818655 -1.57387 0
M  V30 3313 C 308.675 0.794954 -1.90694 0
M  V30 3314 C 309.083 1.72147 -0.784982 0
M  V30 3315 O 308.426 1.81974 0.251196 0
M  V30 3316 C 308.488 1.65042 -3.19376 0
M  V30 3317 C 308.152 0.894337 -4.48164 0
M  V30 3318 C 309.149 0.21813 -5.19442 0
M  V30 3319 C 306.834 0.864495 -4.94805 0
M  V30 3320 C 308.828 -0.477802 -6.35607 0
M  V30 3321 C 306.515 0.164785 -6.10878 0
M  V30 3322 C 307.513 -0.505173 -6.81129 0
M  V30 3323 O 307.201 -1.19363 -7.94989 0
M  V30 3324 H 306.933 0.231779 -0.635023 0
M  V30 3325 H 309.487 0.059493 -2.05314 0
M  V30 3326 H 307.717 2.42844 -3.00938 0
M  V30 3327 H 309.406 2.24127 -3.38411 0
M  V30 3328 H 310.172 0.232558 -4.84442 0
M  V30 3329 H 306.051 1.37542 -4.40004 0
M  V30 3330 H 309.595 -1.00129 -6.90377 0
M  V30 3331 H 305.492 0.148249 -6.4533 0
M  V30 3332 H 306.26 -1.10188 -8.11049 0
M  V30 3333 N 308.923 1.53595 0.353017 0
M  V30 3334 C 310.172 1.69603 1.09168 0
M  V30 3335 C 310.485 0.460925 1.90092 0
M  V30 3336 O 311.691 0.501774 2.66823 0
M  V30 3337 C 310.147 2.99872 1.9901 0
M  V30 3338 C 309.755 4.30687 1.23339 0
M  V30 3339 C 311.499 3.25246 2.72792 0
M  V30 3340 C 309.406 5.52036 2.12156 0
M  V30 3341 H 308.336 0.631966 0.411261 0
M  V30 3342 H 310.987 1.80096 0.351802 0
M  V30 3343 H 309.369 2.83212 2.7678 0
M  V30 3344 H 310.543 4.58019 0.505456 0
M  V30 3345 H 308.858 4.11853 0.613663 0
M  V30 3346 H 311.455 4.13095 3.39495 0
M  V30 3347 H 311.798 2.41846 3.38846 0
M  V30 3348 H 312.331 3.42638 2.021 0
M  V30 3349 H 309.07 6.37951 1.50659 0
M  V30 3350 H 308.59 5.28966 2.82764 0
M  V30 3351 H 310.269 5.87313 2.71427 0
M  V30 3352 N 310.401 -0.613514 1.45168 0
M  V30 3353 C 311.65 -1.36874 1.4815 0
M  V30 3354 C 311.963 -1.952 0.124982 0
M  V30 3355 O 313.169 -2.71481 0.0324176 0
M  V30 3356 C 311.625 -2.47905 2.60904 0
M  V30 3357 C 311.233 -1.96016 4.02842 0
M  V30 3358 C 312.977 -3.24965 2.73126 0
M  V30 3359 C 310.884 -3.04494 5.06988 0
M  V30 3360 H 309.814 -0.514428 0.551253 0
M  V30 3361 H 312.465 -0.658182 1.7129 0
M  V30 3362 H 310.847 -3.21618 2.31037 0
M  V30 3363 H 312.021 -1.29051 4.4236 0
M  V30 3364 H 310.336 -1.31719 3.95018 0
M  V30 3365 H 312.933 -4.05865 3.48106 0
M  V30 3366 H 313.276 -3.75588 1.79553 0
M  V30 3367 H 313.809 -2.5835 3.0249 0
M  V30 3368 H 310.548 -2.58795 6.0225 0
M  V30 3369 H 310.068 -3.70044 4.72046 0
M  V30 3370 H 311.747 -3.68976 5.31475 0
M  V30 3371 N 311.879 -1.3236 -0.855495 0
M  V30 3372 C 313.156 -1.13491 -1.59309 0
M  V30 3373 C 313.536 0.30503 -2.08885 0
M  V30 3374 O 312.884 1.30151 -1.87811 0
M  V30 3375 C 313.094 -2.16176 -2.73987 0
M  V30 3376 C 314.442 -2.49463 -3.43589 0
M  V30 3377 O 315.466 -2.14715 -2.84211 0
M  V30 3378 O 314.325 -3.09027 -4.50738 0
M  V30 3379 H 311.419 -0.437887 -0.701559 0
M  V30 3380 H 313.965 -1.43887 -0.899696 0
M  V30 3381 H 312.737 -3.1297 -2.34873 0
M  V30 3382 H 312.36 -1.86769 -3.51003 0
M  V30 3383 N 313.357 1.07166 -1.15556 0
M  V30 3384 C 314.32 2.12589 -0.856644 0
M  V30 3385 C 315.32 1.6015 0.14444 0
M  V30 3386 O 316.51 1.7399 -0.0854163 0
M  V30 3387 C 313.642 3.39753 -0.279405 0
M  V30 3388 H 314.835 2.40539 -1.79112 0
M  V30 3389 H 312.388 1.23086 -0.963298 0
M  V30 3390 H 313.123 3.17447 0.663174 0
M  V30 3391 H 312.908 3.79117 -1.00063 0
M  V30 3392 H 314.398 4.17507 -0.0879113 0
M  V30 3393 N 314.835 0.952656 1.25548 0
M  V30 3394 C 316.081 0.607272 1.93494 0
M  V30 3395 C 316.414 -0.853245 1.74452 0
M  V30 3396 O 315.689 -1.61194 1.08843 0
M  V30 3397 C 315.972 0.96435 3.46947 0
M  V30 3398 C 315.825 2.48045 3.75225 0
M  V30 3399 C 317.144 0.487987 4.37386 0
M  V30 3400 H 314.263 0.222096 0.702739 0
M  V30 3401 H 316.905 1.18895 1.48203 0
M  V30 3402 H 315.055 0.469361 3.85654 0
M  V30 3403 H 316.727 3.04905 3.46166 0
M  V30 3404 H 314.97 2.919 3.209 0
M  V30 3405 H 315.641 2.6808 4.82532 0
M  V30 3406 H 318.117 0.912558 4.0597 0
M  V30 3407 H 316.993 0.766547 5.43521 0
M  V30 3408 H 317.254 -0.612063 4.37843 0
M  V30 3409 N 316.313 -1.40141 0.720998 0
M  V30 3410 C 317.59 -1.94677 0.189757 0
M  V30 3411 C 317.97 -1.65879 -1.30566 0
M  V30 3412 O 317.318 -0.979391 -2.06447 0
M  V30 3413 C 317.528 -3.45279 0.508304 0
M  V30 3414 C 318.876 -4.22209 0.449934 0
M  V30 3415 O 319.9 -3.53413 0.444677 0
M  V30 3416 O 318.759 -5.44788 0.432189 0
M  V30 3417 H 315.853 -0.826459 0.0299026 0
M  V30 3418 H 318.399 -1.49719 0.7989 0
M  V30 3419 H 317.171 -3.59619 1.54239 0
M  V30 3420 H 316.794 -3.97386 -0.130525 0
M  V30 3421 N 317.792 -0.46758 -1.50504 0
M  V30 3422 C 319.04 0.0884469 -2.01906 0
M  V30 3423 C 319.361 1.40532 -1.35188 0
M  V30 3424 O 318.631 1.89515 -0.496079 0
M  V30 3425 H 317.211 0.0356765 -0.746148 0
M  V30 3426 H 319.873 -0.6172 -1.84869 0
M  V30 3427 H 318.969 0.2425 -3.11156 0
M  V30 3428 N 319.27 1.56325 -0.20005 0
M  V30 3429 C 320.217 2.1932 0.718833 0
M  V30 3430 C 321.187 1.14198 1.20615 0
M  V30 3431 O 322.372 1.42469 1.26914 0
M  V30 3432 C 319.512 2.86041 1.93066 0
M  V30 3433 C 318.625 4.05702 1.48425 0
M  V30 3434 C 317.76 4.60266 2.65196 0
M  V30 3435 C 316.799 5.72273 2.17185 0
M  V30 3436 N 315.936 6.21221 3.27152 0
M  V30 3437 H 320.776 2.97486 0.17489 0
M  V30 3438 H 318.313 1.46911 0.0745794 0
M  V30 3439 H 320.271 3.22897 2.64184 0
M  V30 3440 H 318.901 2.1043 2.44783 0
M  V30 3441 H 317.953 3.74475 0.668755 0
M  V30 3442 H 319.265 4.86699 1.09204 0
M  V30 3443 H 318.419 4.99453 3.4443 0
M  V30 3444 H 317.158 3.78386 3.07693 0
M  V30 3445 H 316.163 5.3261 1.36407 0
M  V30 3446 H 317.388 6.55974 1.75713 0
M  V30 3447 H 315.334 5.42263 3.69171 0
M  V30 3448 H 315.251 6.97284 2.92116 0
M  V30 3449 H 316.519 6.65063 4.06585 0
M  V30 3450 N 320.748 -0.0735177 1.57428 0
M  V30 3451 C 321.997 -0.771809 1.86349 0
M  V30 3452 C 322.31 -1.78828 0.792452 0
M  V30 3453 O 323.516 -2.53602 0.96945 0
M  V30 3454 C 321.972 -1.42358 3.30548 0
M  V30 3455 C 321.58 -0.445761 4.45777 0
M  V30 3456 C 323.324 -2.10434 3.6867 0
M  V30 3457 C 321.231 -1.10335 5.81016 0
M  V30 3458 H 320.161 -0.291999 0.695164 0
M  V30 3459 H 322.812 -0.0250749 1.83483 0
M  V30 3460 H 321.194 -2.21852 3.28021 0
M  V30 3461 H 322.368 0.319239 4.59693 0
M  V30 3462 H 320.683 0.130457 4.16196 0
M  V30 3463 H 323.28 -2.60405 4.67004 0
M  V30 3464 H 323.623 -2.90298 2.98383 0
M  V30 3465 H 324.156 -1.37773 3.7318 0
M  V30 3466 H 320.895 -0.345061 6.54591 0
M  V30 3467 H 320.415 -1.83925 5.70904 0
M  V30 3468 H 322.094 -1.62367 6.26295 0
M  V30 3469 N 322.226 -1.5378 -0.344866 0
M  V30 3470 C 323.156 -1.84662 -1.42906 0
M  V30 3471 C 324.137 -0.701648 -1.54955 0
M  V30 3472 O 325.322 -0.953438 -1.69184 0
M  V30 3473 C 322.452 -2.05503 -2.79974 0
M  V30 3474 C 321.406 -3.21318 -2.82734 0
M  V30 3475 C 320.732 -3.2749 -4.22675 0
M  V30 3476 C 322.032 -4.59456 -2.48389 0
M  V30 3477 H 323.726 -2.75461 -1.17311 0
M  V30 3478 H 321.272 -1.32542 -0.562896 0
M  V30 3479 H 323.225 -2.25691 -3.55867 0
M  V30 3480 H 321.949 -1.11434 -3.07002 0
M  V30 3481 H 320.608 -3.00984 -2.09294 0
M  V30 3482 H 320.256 -2.31019 -4.4681 0
M  V30 3483 H 319.956 -4.05316 -4.25433 0
M  V30 3484 H 321.48 -3.49887 -5.00412 0
M  V30 3485 H 322.894 -4.79667 -3.13995 0
M  V30 3486 H 321.291 -5.39675 -2.62432 0
M  V30 3487 H 322.361 -4.63155 -1.4358 0
M  V30 3488 N 323.704 0.605807 -1.45491 0
M  V30 3489 C 324.652 1.73754 -1.54636 0
M  V30 3490 C 325.646 1.64207 -0.416219 0
M  V30 3491 O 326.852 1.69979 -0.592199 0
M  V30 3492 H 323.227 0.574073 -0.485741 0
M  V30 3493 H 325.198 1.63169 -2.49837 0
M  V30 3494 C 323.947 3.12135 -1.53189 0
M  V30 3495 H 323.27 3.20141 -2.39478 0
M  V30 3496 H 324.71 3.91147 -1.63645 0
M  V30 3497 C 323.169 3.35921 -0.256616 0
M  V30 3498 O 323.699 3.96194 0.662798 0
M  V30 3499 N 321.905 2.90204 -0.151751 0
M  V30 3500 H 321.452 2.41336 -0.90081 0
M  V30 3501 H 321.41 3.06492 0.700699 0
M  V30 3502 N 325.182 1.32811 0.848464 0
M  V30 3503 C 326.129 1.22265 1.95755 0
M  V30 3504 C 327.099 0.103413 1.65778 0
M  V30 3505 O 328.284 0.280033 1.88734 0
M  V30 3506 C 325.424 0.958014 3.31536 0
M  V30 3507 C 324.537 2.16262 3.73971 0
M  V30 3508 C 323.672 1.83295 4.98575 0
M  V30 3509 C 322.711 3.00041 5.33518 0
M  V30 3510 N 321.848 2.67125 6.49299 0
M  V30 3511 H 326.688 2.17128 2.04107 0
M  V30 3512 H 324.225 1.07982 0.998913 0
M  V30 3513 H 326.183 0.785052 4.09747 0
M  V30 3514 H 324.813 0.046159 3.22767 0
M  V30 3515 H 323.865 2.44565 2.91362 0
M  V30 3516 H 325.177 3.03572 3.95785 0
M  V30 3517 H 324.331 1.62586 5.84509 0
M  V30 3518 H 323.07 0.932078 4.7871 0
M  V30 3519 H 322.075 3.21374 4.46093 0
M  V30 3520 H 323.3 3.90869 5.55336 0
M  V30 3521 H 321.246 1.79586 6.3094 0
M  V30 3522 H 321.163 3.47965 6.71161 0
M  V30 3523 H 322.431 2.49861 7.3837 0
M  V30 3524 N 326.66 -1.06551 1.16123 0
M  V30 3525 C 327.907 -1.79302 0.941126 0
M  V30 3526 C 328.235 -1.87105 -0.531235 0
M  V30 3527 O 327.49 -1.35692 -1.41018 0
M  V30 3528 C 327.789 -3.23911 1.51052 0
M  V30 3529 C 327.455 -3.36193 3.00475 0
M  V30 3530 C 326.117 -3.39252 3.41265 0
M  V30 3531 C 328.469 -3.38326 3.96465 0
M  V30 3532 C 325.797 -3.42057 4.76669 0
M  V30 3533 C 328.149 -3.4267 5.31752 0
M  V30 3534 C 326.813 -3.4401 5.72026 0
M  V30 3535 H 326.083 -0.656111 0.344382 0
M  V30 3536 H 328.73 -1.25325 1.44796 0
M  V30 3537 H 327.035 -3.80723 0.925063 0
M  V30 3538 H 328.732 -3.78793 1.31593 0
M  V30 3539 H 325.322 -3.34516 2.6795 0
M  V30 3540 H 329.506 -3.35176 3.6602 0
M  V30 3541 H 324.762 -3.41398 5.07206 0
M  V30 3542 H 328.936 -3.43268 6.05921 0
M  V30 3543 H 326.563 -3.45937 6.76928 0
M  V30 3544 N 328.138 -0.959301 -1.25041 0
M  V30 3545 C 329.086 -0.474437 -2.2771 0
M  V30 3546 C 330.08 0.457697 -1.631 0
M  V30 3547 O 331.286 0.333912 -1.76876 0
M  V30 3548 H 327.661 -0.134936 -0.739795 0
M  V30 3549 H 329.632 -1.35251 -2.65988 0
M  V30 3550 C 328.381 0.227884 -3.46952 0
M  V30 3551 H 327.704 -0.480248 -3.96905 0
M  V30 3552 H 329.144 0.531091 -4.20661 0
M  V30 3553 C 327.603 1.452 -3.04004 0
M  V30 3554 O 328.133 2.54949 -3.10426 0
M  V30 3555 N 326.339 1.31502 -2.59144 0
M  V30 3556 H 325.886 0.422065 -2.54119 0
M  V30 3557 H 325.844 2.13521 -2.30773 0
M  V30 3558 N 329.616 1.39756 -0.72842 0
M  V30 3559 C 330.548 2.29157 -0.0446202 0
M  V30 3560 C 331.561 1.46484 0.710367 0
M  V30 3561 O 332.75 1.69632 0.55562 0
M  V30 3562 C 329.85 3.24987 0.961071 0
M  V30 3563 C 329.023 4.36572 0.268967 0
M  V30 3564 C 328.082 5.12756 1.18184 0
M  V30 3565 O 327.108 5.6534 0.661794 0
M  V30 3566 N 328.31 5.23331 2.51206 0
M  V30 3567 H 331.075 2.88482 -0.812295 0
M  V30 3568 H 328.636 1.51265 -0.577098 0
M  V30 3569 H 330.628 3.72827 1.57423 0
M  V30 3570 H 329.198 2.66739 1.63 0
M  V30 3571 H 328.418 3.90694 -0.524574 0
M  V30 3572 H 329.706 5.08363 -0.210934 0
M  V30 3573 H 329.104 4.82116 2.9594 0
M  V30 3574 H 327.661 5.74634 3.07634 0
M  V30 3575 N 331.094 0.475555 1.50254 0
M  V30 3576 C 332.024 -0.30611 2.31485 0
M  V30 3577 C 333.005 -0.986228 1.38591 0
M  V30 3578 O 334.19 -0.982541 1.67511 0
M  V30 3579 C 331.32 -1.38588 3.1845 0
M  V30 3580 C 330.274 -0.827115 4.19932 0
M  V30 3581 C 329.6 -2.00551 4.95665 0
M  V30 3582 C 330.9 0.16463 5.2204 0
M  V30 3583 H 332.594 0.371866 2.97082 0
M  V30 3584 H 330.14 0.180282 1.42867 0
M  V30 3585 H 332.093 -1.94023 3.74076 0
M  V30 3586 H 330.817 -2.09269 2.50747 0
M  V30 3587 H 329.476 -0.294702 3.65414 0
M  V30 3588 H 329.124 -2.6994 4.2443 0
M  V30 3589 H 328.824 -1.63784 5.64313 0
M  V30 3590 H 330.348 -2.56468 5.54127 0
M  V30 3591 H 331.762 -0.300699 5.72511 0
M  V30 3592 H 330.159 0.446813 5.98434 0
M  V30 3593 H 331.229 1.08905 4.72512 0
M  V30 3594 N 332.573 -1.56217 0.208337 0
M  V30 3595 C 333.85 -1.89739 -0.475234 0
M  V30 3596 C 334.23 -1.1238 -1.78701 0
M  V30 3597 O 333.578 -0.228979 -2.2735 0
M  V30 3598 C 333.788 -3.42289 -0.681101 0
M  V30 3599 C 335.136 -4.12789 -0.994507 0
M  V30 3600 O 336.16 -3.47814 -0.768357 0
M  V30 3601 O 335.019 -5.27649 -1.42299 0
M  V30 3602 H 332.113 -0.788478 -0.249461 0
M  V30 3603 H 334.659 -1.67855 0.249538 0
M  V30 3604 H 333.431 -3.90534 0.244722 0
M  V30 3605 H 333.054 -3.69909 -1.45785 0
M  V30 3606 N 334.051 0.0651679 -1.57465 0
M  V30 3607 C 335.014 1.06117 -2.03155 0
M  V30 3608 C 336.014 1.31204 -0.929632 0
M  V30 3609 O 337.204 1.26813 -1.19432 0
M  V30 3610 C 334.336 2.4032 -2.41783 0
M  V30 3611 H 335.529 0.667231 -2.92383 0
M  V30 3612 H 333.082 0.311075 -1.53173 0
M  V30 3613 H 333.817 2.84532 -1.55601 0
M  V30 3614 H 333.602 2.23451 -3.22199 0
M  V30 3615 H 335.092 3.11898 -2.77685 0
M  V30 3616 N 335.529 1.53961 0.336706 0
M  V30 3617 C 336.492 1.81724 1.39675 0
M  V30 3618 C 337.492 0.688532 1.45313 0
M  V30 3619 O 338.682 0.956829 1.45569 0
M  V30 3620 C 335.814 1.96543 2.78538 0
M  V30 3621 H 337.007 2.76424 1.16318 0
M  V30 3622 H 334.56 1.45478 0.571474 0
M  V30 3623 H 335.295 1.0401 3.07168 0
M  V30 3624 H 335.08 2.78665 2.75841 0
M  V30 3625 H 336.57 2.19516 3.5525 0
M  V30 3626 N 337.007 -0.598083 1.45811 0
M  V30 3627 C 337.954 -1.7082 1.55207 0
M  V30 3628 C 338.924 -1.61278 0.39732 0
M  V30 3629 O 340.109 -1.80717 0.612038 0
M  V30 3630 C 337.249 -3.09144 1.53376 0
M  V30 3631 C 336.362 -3.29423 2.79472 0
M  V30 3632 C 335.497 -4.57907 2.69248 0
M  V30 3633 C 334.536 -4.71476 3.90354 0
M  V30 3634 N 333.673 -5.9127 3.78608 0
M  V30 3635 H 338.513 -1.62125 2.50039 0
M  V30 3636 H 336.05 -0.790389 1.24062 0
M  V30 3637 H 338.008 -3.89186 1.50301 0
M  V30 3638 H 336.638 -3.16773 0.620876 0
M  V30 3639 H 335.69 -2.43091 2.92594 0
M  V30 3640 H 337.002 -3.3532 3.69272 0
M  V30 3641 H 336.156 -5.46157 2.64192 0
M  V30 3642 H 334.895 -4.54423 1.77063 0
M  V30 3643 H 333.9 -3.81648 3.95759 0
M  V30 3644 H 335.125 -4.76751 4.83617 0
M  V30 3645 H 333.071 -5.88813 2.89199 0
M  V30 3646 H 332.988 -5.98369 4.6205 0
M  V30 3647 H 334.256 -6.81992 3.77501 0
M  V30 3648 N 338.485 -1.33259 -0.841409 0
M  V30 3649 C 339.896 -1.22066 -1.41269 0
M  V30 3650 C 340.247 0.161479 -1.95534 0
M  V30 3651 O 339.372 1.06094 -1.88608 0
M  V30 3652 C 339.967 -2.20996 -2.568 0
M  V30 3653 C 338.526 -2.13649 -3.09888 0
M  V30 3654 C 337.673 -2.08623 -1.82679 0
M  V30 3655 H 340.624 -1.44895 -0.647395 0
M  V30 3656 H 340.645 -1.81621 -3.34356 0
M  V30 3657 H 340.157 -3.2158 -2.17274 0
M  V30 3658 H 338.258 -1.16359 -3.53965 0
M  V30 3659 H 338.371 -3.04079 -3.70234 0
M  V30 3660 H 336.735 -1.54061 -2.02824 0
M  V30 3661 H 337.518 -3.1101 -1.45353 0
M  V30 3662 N 339.963 1.05934 -1.16686 0
M  V30 3663 C 341.211 1.78447 -0.948744 0
M  V30 3664 C 341.532 1.87813 0.524523 0
M  V30 3665 O 340.802 1.38945 1.38098 0
M  V30 3666 H 339.382 0.660971 -0.348033 0
M  V30 3667 H 342.044 1.27947 -1.47022 0
M  V30 3668 H 341.14 2.80394 -1.37061 0
M  V30 3669 N 341.441 0.965919 1.2453 0
M  V30 3670 C 342.718 0.543777 1.87889 0
M  V30 3671 C 343.098 -0.97909 1.87021 0
M  V30 3672 O 342.446 -1.84969 1.3416 0
M  V30 3673 C 342.656 1.13327 3.30088 0
M  V30 3674 C 344.004 1.21707 4.06783 0
M  V30 3675 O 345.028 1.08566 3.39252 0
M  V30 3676 O 343.887 1.42456 5.27606 0
M  V30 3677 H 340.981 0.181054 0.806938 0
M  V30 3678 H 343.527 1.06007 1.32516 0
M  V30 3679 H 342.299 2.17612 3.25209 0
M  V30 3680 H 341.922 0.600911 3.93033 0
M  V30 3681 N 342.919 -1.39368 0.735821 0
M  V30 3682 C 344.165 -2.00794 0.284544 0
M  V30 3683 C 344.498 -1.58255 -1.12557 0
M  V30 3684 O 343.773 -0.811819 -1.76748 0
M  V30 3685 C 344.056 -3.58011 0.387337 0
M  V30 3686 C 343.909 -4.10566 1.83728 0
M  V30 3687 C 345.228 -4.395 -0.22975 0
M  V30 3688 H 342.347 -0.729501 0.104866 0
M  V30 3689 H 344.989 -1.65564 0.93213 0
M  V30 3690 H 343.139 -3.88154 -0.164006 0
M  V30 3691 H 344.811 -3.91139 2.44556 0
M  V30 3692 H 343.054 -3.64095 2.35833 0
M  V30 3693 H 343.725 -5.19702 1.86047 0
M  V30 3694 H 346.201 -4.15406 0.240257 0
M  V30 3695 H 345.077 -5.48752 -0.127485 0
M  V30 3696 H 345.338 -4.22062 -1.3159 0
M  V30 3697 N 344.397 -0.483516 -1.5 0
M  V30 3698 C 345.344 0.304164 -2.28787 0
M  V30 3699 C 346.314 0.976114 -1.34392 0
M  V30 3700 O 347.499 0.986156 -1.63339 0
M  V30 3701 C 344.639 1.37298 -3.16612 0
M  V30 3702 C 343.752 0.714561 -4.26049 0
M  V30 3703 C 342.887 1.76232 -5.01114 0
M  V30 3704 C 341.926 1.08483 -6.0241 0
M  V30 3705 N 341.063 2.076 -6.70706 0
M  V30 3706 H 345.903 -0.373981 -2.95644 0
M  V30 3707 H 343.44 -0.196275 -1.45785 0
M  V30 3708 H 345.398 2.00445 -3.65893 0
M  V30 3709 H 344.028 2.02012 -2.51776 0
M  V30 3710 H 343.08 -0.0297798 -3.80388 0
M  V30 3711 H 344.392 0.180383 -4.98474 0
M  V30 3712 H 343.546 2.46929 -5.54176 0
M  V30 3713 H 342.285 2.33033 -4.28424 0
M  V30 3714 H 341.29 0.363545 -5.48597 0
M  V30 3715 H 342.515 0.523551 -6.77079 0
M  V30 3716 H 340.461 2.63394 -6.00799 0
M  V30 3717 H 340.378 1.59201 -7.39047 0
M  V30 3718 H 341.646 2.77639 -7.2838 0
M  V30 3719 N 345.875 1.56104 -0.216619 0
M  V30 3720 C 347.1 2.0301 0.424462 0
M  V30 3721 C 347.525 1.0955 1.52907 0
M  V30 3722 O 346.883 0.0827914 1.81111 0
M  V30 3723 C 346.931 3.4819 0.937883 0
M  V30 3724 O 346.035 3.57865 2.04955 0
M  V30 3725 H 345.376 0.656925 0.0966755 0
M  V30 3726 H 347.906 2.01859 -0.33381 0
M  V30 3727 H 347.916 3.88413 1.24897 0
M  V30 3728 H 346.591 4.15699 0.129387 0
M  V30 3729 H 345.168 3.29527 1.74546 0
M  V30 3730 N 347.353 -0.0568162 1.57498 0
M  V30 3731 C 348.602 -0.752001 1.87157 0
M  V30 3732 C 348.915 -1.77978 0.811375 0
M  V30 3733 O 350.121 -2.52559 0.996293 0
M  V30 3734 C 348.577 -1.38844 3.3204 0
M  V30 3735 C 348.185 -0.398456 4.46225 0
M  V30 3736 C 349.929 -2.06512 3.70882 0
M  V30 3737 C 347.836 -1.04166 5.82154 0
M  V30 3738 H 346.766 -0.28461 0.698222 0
M  V30 3739 H 349.417 -0.00561272 1.83499 0
M  V30 3740 H 347.799 -2.1836 3.30356 0
M  V30 3741 H 348.973 0.367977 4.59328 0
M  V30 3742 H 347.288 0.174592 4.16034 0
M  V30 3743 H 349.885 -2.55437 4.6974 0
M  V30 3744 H 350.228 -2.87117 3.01445 0
M  V30 3745 H 350.761 -1.33808 3.7462 0
M  V30 3746 H 347.5 -0.275614 6.5492 0
M  V30 3747 H 347.02 -1.7786 5.72823 0
M  V30 3748 H 348.699 -1.55715 6.27982 0
M  V30 3749 N 348.832 -1.54138 -0.328536 0
M  V30 3750 C 350.06 -1.76062 -1.08673 0
M  V30 3751 C 350.475 -0.506852 -1.81869 0
M  V30 3752 O 349.832 0.522223 -1.74869 0
M  V30 3753 C 349.883 -2.95054 -2.08866 0
M  V30 3754 O 349.604 -4.15583 -1.38644 0
M  V30 3755 C 351.105 -3.2915 -2.96943 0
M  V30 3756 H 348.325 -0.587889 -0.323461 0
M  V30 3757 H 350.869 -2.0101 -0.376175 0
M  V30 3758 H 349.024 -2.72394 -2.75464 0
M  V30 3759 H 349.438 -4.82481 -2.05699 0
M  V30 3760 H 350.912 -4.15723 -3.63151 0
M  V30 3761 H 351.389 -2.461 -3.63774 0
M  V30 3762 H 351.995 -3.53871 -2.35914 0
M  V30 3763 N 350.31 0.590341 -1.46126 0
M  V30 3764 C 351.558 1.34616 -1.50742 0
M  V30 3765 C 351.879 1.94363 -0.157486 0
M  V30 3766 O 351.149 1.78136 0.815136 0
M  V30 3767 H 349.729 0.499789 -0.555175 0
M  V30 3768 H 352.391 0.691953 -1.82203 0
M  V30 3769 H 351.487 2.15678 -2.25587 0
M  V30 3770 N 351.788 1.33704 0.83433 0
M  V30 3771 C 353.016 1.28467 1.62185 0
M  V30 3772 C 353.431 -0.143526 1.88254 0
M  V30 3773 O 352.788 -1.08709 1.4659 0
M  V30 3774 C 352.839 2.06174 2.96942 0
M  V30 3775 O 352.56 3.43422 2.72016 0
M  V30 3776 C 354.061 2.08201 3.91366 0
M  V30 3777 H 351.281 0.4424 0.504503 0
M  V30 3778 H 353.825 1.76145 1.03891 0
M  V30 3779 H 351.98 1.62167 3.51825 0
M  V30 3780 H 352.394 3.83453 3.57861 0
M  V30 3781 H 353.868 2.67017 4.83121 0
M  V30 3782 H 354.345 1.07343 4.2588 0
M  V30 3783 H 354.951 2.52246 3.42421 0
M  V30 3784 N 353.266 -1.05314 1.17247 0
M  V30 3785 C 354.491 -1.82509 0.985148 0
M  V30 3786 C 354.916 -1.82343 -0.461788 0
M  V30 3787 O 354.274 -1.23151 -1.33055 0
M  V30 3788 C 354.322 -3.26566 1.52929 0
M  V30 3789 O 353.426 -4.05666 0.742225 0
M  V30 3790 H 352.767 -0.564347 0.349869 0
M  V30 3791 H 355.297 -1.32718 1.55715 0
M  V30 3792 H 355.307 -3.77369 1.55103 0
M  V30 3793 H 353.982 -3.26001 2.58256 0
M  V30 3794 H 352.559 -3.64397 0.791794 0
M  V30 3795 N 354.744 -0.972509 -1.24016 0
M  V30 3796 C 355.972 -0.654803 -1.96265 0
M  V30 3797 C 356.387 0.776708 -1.72083 0
M  V30 3798 O 355.744 1.52171 -1.00748 0
M  V30 3799 C 355.795 -0.92592 -3.49441 0
M  V30 3800 O 355.516 -2.30116 -3.72798 0
M  V30 3801 C 357.017 -0.623068 -4.38899 0
M  V30 3802 H 354.237 -0.243907 -0.6251 0
M  V30 3803 H 356.781 -1.30175 -1.57717 0
M  V30 3804 H 354.936 -0.325108 -3.86033 0
M  V30 3805 H 355.35 -2.38483 -4.67147 0
M  V30 3806 H 356.824 -0.863189 -5.45209 0
M  V30 3807 H 357.301 0.442754 -4.36963 0
M  V30 3808 H 357.907 -1.204 -4.07902 0
M  V30 3809 N 356.222 1.38976 -0.743202 0
M  V30 3810 C 357.468 2.0064 -0.295189 0
M  V30 3811 C 357.801 1.5885 1.11716 0
M  V30 3812 O 357.076 0.821181 1.76315 0
M  V30 3813 C 357.359 3.578 -0.406318 0
M  V30 3814 C 357.212 4.09586 -1.85903 0
M  V30 3815 C 358.531 4.39616 0.206439 0
M  V30 3816 H 355.65 0.728935 -0.108733 0
M  V30 3817 H 358.292 1.65067 -0.940897 0
M  V30 3818 H 356.442 3.88235 0.143419 0
M  V30 3819 H 358.114 3.89837 -2.46627 0
M  V30 3820 H 356.357 3.6284 -2.3776 0
M  V30 3821 H 357.028 5.18708 -1.888 0
M  V30 3822 H 359.504 4.15273 -0.262283 0
M  V30 3823 H 358.38 5.48812 0.0983819 0
M  V30 3824 H 358.641 4.22754 1.2935 0
M  V30 3825 N 357.7 0.491464 1.49741 0
M  V30 3826 C 358.948 -0.0563141 2.02022 0
M  V30 3827 C 359.269 -1.38363 1.37407 0
M  V30 3828 O 358.539 -1.88702 0.526166 0
M  V30 3829 H 357.119 -0.0238014 0.746621 0
M  V30 3830 H 359.781 0.646533 1.83864 0
M  V30 3831 H 358.877 -0.192967 3.11503 0
M  V30 3832 N 359.178 -1.55987 0.224894 0
M  V30 3833 C 360.424 -1.98684 -0.406502 0
M  V30 3834 C 360.757 -1.11248 -1.59177 0
M  V30 3835 O 360.032 -0.170909 -1.93748 0
M  V30 3836 C 360.315 -3.50218 -0.837808 0
M  V30 3837 C 360.168 -4.48426 0.351332 0
M  V30 3838 C 361.487 -4.06243 -1.69278 0
M  V30 3839 H 358.606 -0.722337 -0.146283 0
M  V30 3840 H 361.248 -1.87255 0.321799 0
M  V30 3841 H 359.398 -3.60089 -1.45837 0
M  V30 3842 H 361.07 -4.50562 0.989526 0
M  V30 3843 H 359.313 -4.22159 0.998207 0
M  V30 3844 H 359.984 -5.52 0.00655905 0
M  V30 3845 H 362.46 -3.99337 -1.16914 0
M  V30 3846 H 361.336 -5.12581 -1.96346 0
M  V30 3847 H 361.597 -3.53332 -2.65723 0
M  V30 3848 N 360.656 0.0484629 -1.57525 0
M  V30 3849 C 361.904 0.741657 -1.88 0
M  V30 3850 C 362.225 1.76918 -0.820054 0
M  V30 3851 O 361.495 1.95335 0.148661 0
M  V30 3852 H 360.075 0.276908 -0.69378 0
M  V30 3853 H 362.737 0.019013 -1.94891 0
M  V30 3854 H 361.833 1.24336 -2.86264 0
M  V30 3855 N 362.134 1.5431 0.320358 0
M  V30 3856 C 363.55 1.45091 0.664889 0
M  V30 3857 C 363.75 0.626382 1.91517 0
M  V30 3858 O 362.806 0.126443 2.52183 0
M  V30 3859 C 364.119 2.88848 0.83591 0
M  V30 3860 C 365.667 2.9877 0.933046 0
M  V30 3861 C 366.142 4.43683 1.13621 0
M  V30 3862 N 367.633 4.47309 1.20287 0
M  V30 3863 C 368.368 5.56595 1.37801 0
M  V30 3864 N 367.864 6.75844 1.52338 0
M  V30 3865 N 369.657 5.44248 1.40535 0
M  V30 3866 H 361.808 2.06398 -0.501374 0
M  V30 3867 H 364.071 0.933963 -0.162534 0
M  V30 3868 H 363.777 3.51698 -0.0116092 0
M  V30 3869 H 363.651 3.35148 1.73078 0
M  V30 3870 H 366.038 2.36045 1.77107 0
M  V30 3871 H 366.119 2.55796 0.0145782 0
M  V30 3872 H 365.763 5.06995 0.303032 0
M  V30 3873 H 365.693 4.84269 2.0686 0
M  V30 3874 H 368.184 3.61388 1.10485 0
M  V30 3875 H 368.497 7.54892 1.65403 0
M  V30 3876 H 366.842 6.78746 1.4943 0
M  V30 3877 H 370.033 4.50038 1.28777 0
M  V30 3878 H 370.206 6.29473 1.53842 0
M  V30 3879 N 363.613 -0.582584 1.46437 0
M  V30 3880 C 364.861 -1.33814 1.51453 0
M  V30 3881 C 365.182 -1.94277 0.167792 0
M  V30 3882 O 364.452 -1.78566 -0.805677 0
M  V30 3883 H 363.032 -0.496838 0.557818 0
M  V30 3884 H 365.694 -0.682281 1.82568 0
M  V30 3885 H 364.79 -2.14479 2.26728 0
M  V30 3886 N 365.091 -1.34144 -0.827227 0
M  V30 3887 C 366.337 -1.26446 -1.58554 0
M  V30 3888 C 366.67 0.1664 -1.93486 0
M  V30 3889 O 365.945 1.1107 -1.59667 0
M  V30 3890 C 366.228 -2.15111 -2.8879 0
M  V30 3891 C 366.081 -3.66712 -2.60465 0
M  V30 3892 C 367.4 -2.03311 -3.90324 0
M  V30 3893 H 364.519 -0.46067 -0.575284 0
M  V30 3894 H 367.161 -1.64356 -0.953269 0
M  V30 3895 H 365.311 -1.8291 -3.42748 0
M  V30 3896 H 366.983 -4.09259 -2.1285 0
M  V30 3897 H 365.226 -3.88014 -1.93978 0
M  V30 3898 H 365.897 -4.24112 -3.53317 0
M  V30 3899 H 368.373 -2.31574 -3.45706 0
M  V30 3900 H 367.249 -2.67582 -4.79261 0
M  V30 3901 H 367.51 -1.00879 -4.30437 0
M  V30 3902 N 366.569 1.04691 -1.17803 0
M  V30 3903 C 367.499 2.14494 -0.92275 0
M  V30 3904 C 368.48 1.69546 0.137179 0
M  V30 3905 O 369.665 1.94195 -0.0141108 0
M  V30 3906 C 366.795 3.44491 -0.440803 0
M  V30 3907 C 365.749 4.03031 -1.4405 0
M  V30 3908 C 365.075 5.28432 -0.81631 0
M  V30 3909 C 366.375 4.39932 -2.81527 0
M  V30 3910 H 368.069 2.36107 -1.84103 0
M  V30 3911 H 365.615 1.1347 -0.886599 0
M  V30 3912 H 367.568 4.2066 -0.249602 0
M  V30 3913 H 366.292 3.22546 0.513025 0
M  V30 3914 H 364.951 3.28937 -1.61853 0
M  V30 3915 H 364.599 5.02792 0.144511 0
M  V30 3916 H 364.299 5.68559 -1.48371 0
M  V30 3917 H 365.823 6.07284 -0.635496 0
M  V30 3918 H 367.237 5.07113 -2.67412 0
M  V30 3919 H 365.634 4.9109 -3.44892 0
M  V30 3920 H 366.704 3.50045 -3.35554 0
M  V30 3921 N 368.047 0.979072 1.23499 0
M  V30 3922 C 369.295 0.645941 1.91499 0
M  V30 3923 C 369.616 -0.822948 1.76784 0
M  V30 3924 O 368.886 -1.58854 1.14639 0
M  V30 3925 H 367.466 0.235919 0.708767 0
M  V30 3926 H 370.128 1.2426 1.50152 0
M  V30 3927 H 369.224 0.896411 2.9895 0
M  V30 3928 N 369.525 -1.3858 0.750561 0
M  V30 3929 C 370.802 -1.94231 0.231009 0
M  V30 3930 C 371.182 -1.68611 -1.27018 0
M  V30 3931 O 370.53 -1.02296 -2.04323 0
M  V30 3932 C 370.74 -3.44123 0.581428 0
M  V30 3933 C 372.088 -4.2116 0.539389 0
M  V30 3934 O 373.112 -3.52391 0.519541 0
M  V30 3935 O 371.971 -5.43749 0.54765 0
M  V30 3936 H 369.065 -0.825639 0.0474263 0
M  V30 3937 H 371.611 -1.4799 0.830478 0
M  V30 3938 H 370.383 -3.56267 1.61833 0
M  V30 3939 H 370.006 -3.97573 -0.0462047 0
M  V30 3940 N 371.003 -0.499398 -1.49478 0
M  V30 3941 C 371.935 0.316575 -2.27003 0
M  V30 3942 C 372.948 0.932047 -1.33479 0
M  V30 3943 O 374.137 0.815658 -1.58774 0
M  V30 3944 C 371.237 1.46055 -3.05812 0
M  V30 3945 C 370.41 0.952679 -4.26899 0
M  V30 3946 C 369.469 1.97407 -4.87767 0
M  V30 3947 O 368.495 1.54326 -5.4788 0
M  V30 3948 N 369.697 3.30436 -4.77276 0
M  V30 3949 H 372.462 -0.348168 -2.97671 0
M  V30 3950 H 370.023 -0.33185 -1.58463 0
M  V30 3951 H 372.015 2.14135 -3.43407 0
M  V30 3952 H 370.585 2.02948 -2.37762 0
M  V30 3953 H 369.805 0.0968248 -3.94081 0
M  V30 3954 H 371.093 0.59174 -5.05347 0
M  V30 3955 H 370.491 3.68126 -4.29534 0
M  V30 3956 H 369.048 3.94235 -5.19059 0
M  V30 3957 N 372.481 1.55866 -0.233164 0
M  V30 3958 C 373.428 2.20796 0.67215 0
M  V30 3959 C 374.398 1.16731 1.18166 0
M  V30 3960 O 375.583 1.45129 1.23864 0
M  V30 3961 C 372.723 2.90072 1.86955 0
M  V30 3962 C 371.836 4.08759 1.39786 0
M  V30 3963 C 370.971 4.65787 2.55374 0
M  V30 3964 C 370.01 5.76752 2.04998 0
M  V30 3965 N 369.147 6.28021 3.13901 0
M  V30 3966 H 373.987 2.9779 0.111749 0
M  V30 3967 H 371.524 1.47036 0.0434007 0
M  V30 3968 H 373.482 3.28428 2.57276 0
M  V30 3969 H 372.112 2.15575 2.40265 0
M  V30 3970 H 371.164 3.7581 0.589173 0
M  V30 3971 H 372.476 4.88906 0.98856 0
M  V30 3972 H 371.63 5.06646 3.33758 0
M  V30 3973 H 370.369 3.84828 2.99598 0
M  V30 3974 H 369.374 5.35383 1.25079 0
M  V30 3975 H 370.599 6.59553 1.61759 0
M  V30 3976 H 368.545 5.49971 3.57586 0
M  V30 3977 H 368.462 7.03323 2.7726 0
M  V30 3978 H 369.73 6.73538 3.92386 0
M  V30 3979 N 373.959 -0.0401083 1.57549 0
M  V30 3980 C 374.907 -1.06264 2.06908 0
M  V30 3981 C 375.901 -1.38132 0.980608 0
M  V30 3982 O 377.107 -1.37167 1.16556 0
M  V30 3983 H 373.482 -0.360166 0.660139 0
M  V30 3984 H 375.453 -0.620445 2.91878 0
M  V30 3985 C 374.202 -2.35846 2.55483 0
M  V30 3986 H 373.525 -2.12183 3.38849 0
M  V30 3987 H 374.965 -3.05765 2.93741 0
M  V30 3988 C 373.424 -3.0404 1.45126 0
M  V30 3989 O 373.954 -3.93424 0.811216 0
M  V30 3990 N 372.16 -2.65184 1.18852 0
M  V30 3991 H 371.707 -1.92584 1.71083 0
M  V30 3992 H 371.665 -3.1113 0.452244 0
M  V30 3993 N 375.437 -1.54477 -0.31217 0
M  V30 3994 C 376.686 -1.72438 -1.04633 0
M  V30 3995 C 376.999 -0.511163 -1.88803 0
M  V30 3996 O 378.205 -0.572341 -2.65399 0
M  V30 3997 C 376.661 -3.05043 -1.9099 0
M  V30 3998 C 376.269 -4.33806 -1.11877 0
M  V30 3999 C 378.013 -3.32364 -2.64073 0
M  V30 4000 C 375.92 -5.57467 -1.97445 0
M  V30 4001 H 374.85 -0.642647 -0.394361 0
M  V30 4002 H 377.501 -1.80966 -0.303929 0
M  V30 4003 H 375.883 -2.90451 -2.69173 0
M  V30 4004 H 377.057 -4.59199 -0.383843 0
M  V30 4005 H 375.372 -4.13336 -0.504252 0
M  V30 4006 H 377.969 -4.21951 -3.28423 0
M  V30 4007 H 378.312 -2.50745 -3.32314 0
M  V30 4008 H 378.845 -3.47875 -1.92944 0
M  V30 4009 H 375.584 -6.41722 -1.33692 0
M  V30 4010 H 375.104 -5.36277 -2.6864 0
M  V30 4011 H 376.783 -5.94303 -2.5576 0
M  V30 4012 N 376.915 0.57481 -1.46744 0
M  V30 4013 C 377.863 1.70435 -1.58286 0
M  V30 4014 C 378.857 1.63287 -0.450956 0
M  V30 4015 O 380.063 1.68685 -0.628121 0
M  V30 4016 H 376.438 0.56364 -0.497809 0
M  V30 4017 H 378.409 1.57833 -2.53242 0
M  V30 4018 C 377.158 3.08815 -1.59776 0
M  V30 4019 H 376.481 3.1499 -2.46214 0
M  V30 4020 H 377.921 3.87588 -1.71905 0
M  V30 4021 C 376.38 3.35301 -0.327812 0
M  V30 4022 O 376.91 3.97511 0.57861 0
M  V30 4023 N 375.116 2.89816 -0.213274 0
M  V30 4024 H 374.663 2.39371 -0.951798 0
M  V30 4025 H 374.621 3.0791 0.63553 0
M  V30 4026 N 378.394 1.34581 0.820102 0
M  V30 4027 C 379.622 1.3018 1.60813 0
M  V30 4028 C 380.037 -0.123551 1.88395 0
M  V30 4029 O 379.394 -1.07148 1.47735 0
M  V30 4030 C 379.445 2.09312 2.94739 0
M  V30 4031 O 379.166 3.46288 2.68358 0
M  V30 4032 C 380.667 2.1234 3.89136 0
M  V30 4033 H 377.887 0.447726 0.499782 0
M  V30 4034 H 380.431 1.77237 1.02017 0
M  V30 4035 H 378.586 1.65889 3.50085 0
M  V30 4036 H 379 3.87227 3.53774 0
M  V30 4037 H 380.474 2.72126 4.80262 0
M  V30 4038 H 380.951 1.11854 4.24718 0
M  V30 4039 H 381.557 2.55864 3.39726 0
M  V30 4040 N 379.872 -1.04064 1.18357 0
M  V30 4041 C 381.1 -1.80916 1.00384 0
M  V30 4042 C 381.515 -1.83414 -0.447738 0
M  V30 4043 O 380.872 -1.26962 -1.31099 0
M  V30 4044 C 380.923 -3.26516 1.55144 0
M  V30 4045 O 380.644 -3.2424 2.94618 0
M  V30 4046 C 382.145 -4.20013 1.41789 0
M  V30 4047 H 379.365 -0.569728 0.354474 0
M  V30 4048 H 381.909 -1.31151 1.56906 0
M  V30 4049 H 380.064 -3.73512 1.02798 0
M  V30 4050 H 380.478 -4.15452 3.20156 0
M  V30 4051 H 381.952 -5.20111 1.84901 0
M  V30 4052 H 382.429 -4.37667 0.36661 0
M  V30 4053 H 383.035 -3.78881 1.93207 0
M  V30 4054 N 381.35 -0.985608 -1.22978 0
M  V30 4055 C 382.58 -0.674603 -1.95276 0
M  V30 4056 C 382.988 0.763483 -1.73111 0
M  V30 4057 O 382.331 1.52601 -1.02268 0
M  V30 4058 C 382.393 -0.891597 -3.48268 0
M  V30 4059 C 382.057 -2.31275 -3.94158 0
M  V30 4060 C 383.054 -3.29179 -4.02415 0
M  V30 4061 C 380.739 -2.64524 -4.27004 0
M  V30 4062 C 382.733 -4.58407 -4.42879 0
M  V30 4063 C 380.42 -3.93974 -4.67149 0
M  V30 4064 C 381.418 -4.90727 -4.75053 0
M  V30 4065 O 381.106 -6.17865 -5.14294 0
M  V30 4066 H 380.838 -0.249251 -0.628371 0
M  V30 4067 H 383.392 -1.32106 -1.5728 0
M  V30 4068 H 381.622 -0.187962 -3.86243 0
M  V30 4069 H 383.311 -0.576957 -4.01779 0
M  V30 4070 H 384.077 -3.04823 -3.77237 0
M  V30 4071 H 379.956 -1.89923 -4.2006 0
M  V30 4072 H 383.5 -5.33926 -4.48964 0
M  V30 4073 H 379.397 -4.18122 -4.91777 0
M  V30 4074 H 380.165 -6.21694 -5.32389 0
M  V30 4075 N 382.828 1.3818 -0.7579 0
M  V30 4076 C 384.053 2.04827 -0.325679 0
M  V30 4077 C 384.478 1.56788 1.03919 0
M  V30 4078 O 383.836 0.721811 1.66312 0
M  V30 4079 C 383.884 3.58774 -0.362447 0
M  V30 4080 O 382.988 4.07372 0.642033 0
M  V30 4081 H 382.329 0.64833 -0.143402 0
M  V30 4082 H 384.859 1.7677 -1.03023 0
M  V30 4083 H 384.869 4.07434 -0.214844 0
M  V30 4084 H 383.544 3.93096 -1.35824 0
M  V30 4085 H 382.121 3.70068 0.458688 0
M  V30 4086 N 384.306 0.507319 1.49211 0
M  V30 4087 C 385.534 -0.0315749 2.06876 0
M  V30 4088 C 385.949 -1.30241 1.36685 0
M  V30 4089 O 385.306 -1.76937 0.447152 0
M  V30 4090 C 385.357 -0.282627 3.60393 0
M  V30 4091 O 385.078 0.937835 4.27944 0
M  V30 4092 C 386.579 -0.864453 4.3479 0
M  V30 4093 H 383.799 0.0233048 0.670595 0
M  V30 4094 H 386.343 0.706484 1.91909 0
M  V30 4095 H 384.498 -0.97068 3.75042 0
M  V30 4096 H 384.912 0.704567 5.19746 0
M  V30 4097 H 386.386 -0.989664 5.43056 0
M  V30 4098 H 386.863 -1.86382 3.97692 0
M  V30 4099 H 387.469 -0.213672 4.24763 0
M  V30 4100 N 385.784 -1.5574 0.241426 0
M  V30 4101 C 387.014 -2.02913 -0.38857 0
M  V30 4102 C 387.422 -1.12014 -1.52478 0
M  V30 4103 O 386.765 -0.125903 -1.83268 0
M  V30 4104 C 386.827 -3.4636 -0.963075 0
M  V30 4105 C 386.491 -4.56982 0.0401916 0
M  V30 4106 C 387.488 -5.12941 0.847766 0
M  V30 4107 C 385.173 -5.0203 0.164699 0
M  V30 4108 C 387.167 -6.12437 1.76636 0
M  V30 4109 C 384.854 -6.01358 1.0868 0
M  V30 4110 C 385.852 -6.5644 1.88616 0
M  V30 4111 O 385.54 -7.53831 2.79273 0
M  V30 4112 H 385.272 -0.668983 -0.0971452 0
M  V30 4113 H 387.826 -2.02198 0.361248 0
M  V30 4114 H 386.056 -3.44206 -1.76235 0
M  V30 4115 H 387.745 -3.77065 -1.50257 0
M  V30 4116 H 388.511 -4.78974 0.762133 0
M  V30 4117 H 384.39 -4.58824 -0.447411 0
M  V30 4118 H 387.934 -6.55355 2.39071 0
M  V30 4119 H 383.831 -6.34746 1.17338 0
M  V30 4120 H 384.599 -7.71428 2.73572 0
M  V30 4121 N 387.262 0.0317525 -1.57568 0
M  V30 4122 C 388.492 0.733884 -1.93126 0
M  V30 4123 C 388.9 1.69563 -0.839352 0
M  V30 4124 O 388.243 1.82681 0.193175 0
M  V30 4125 C 388.305 1.54798 -3.24465 0
M  V30 4126 C 387.969 0.751304 -4.50782 0
M  V30 4127 C 388.966 0.0527632 -5.19873 0
M  V30 4128 C 386.651 0.706639 -4.97305 0
M  V30 4129 C 388.645 -0.679774 -6.33765 0
M  V30 4130 C 386.332 -0.0296449 -6.11093 0
M  V30 4131 C 387.33 -0.721614 -6.79177 0
M  V30 4132 O 387.018 -1.44595 -7.90789 0
M  V30 4133 H 386.75 0.211459 -0.642076 0
M  V30 4134 H 389.304 -0.00585615 -2.05399 0
M  V30 4135 H 387.534 2.33147 -3.08512 0
M  V30 4136 H 389.223 2.13247 -3.4537 0
M  V30 4137 H 389.989 0.0783188 -4.84937 0
M  V30 4138 H 385.868 1.23474 -4.44157 0
M  V30 4139 H 389.412 -1.22042 -6.86842 0
M  V30 4140 H 385.309 -0.0571331 -6.45475 0
M  V30 4141 H 386.077 -1.35935 -8.07133 0
M  V30 4142 N 388.74 1.54641 0.303973 0
M  V30 4143 C 389.97 1.77511 1.05705 0
M  V30 4144 C 390.378 0.533228 1.81531 0
M  V30 4145 O 389.721 -0.506423 1.76582 0
M  V30 4146 C 389.783 2.92779 2.08617 0
M  V30 4147 C 389.447 4.30977 1.52013 0
M  V30 4148 C 390.444 5.11115 0.9517 0
M  V30 4149 C 388.129 4.77571 1.55665 0
M  V30 4150 C 390.123 6.35966 0.427327 0
M  V30 4151 C 387.81 6.02384 1.02841 0
M  V30 4152 C 388.808 6.81417 0.464713 0
M  V30 4153 O 388.496 8.03881 -0.0555283 0
M  V30 4154 H 388.228 0.59579 0.319391 0
M  V30 4155 H 390.782 2.02401 0.349712 0
M  V30 4156 H 389.012 2.63506 2.83022 0
M  V30 4157 H 390.701 3.03252 2.69802 0
M  V30 4158 H 391.467 4.76264 0.916407 0
M  V30 4159 H 387.346 4.16085 1.9848 0
M  V30 4160 H 390.89 6.97599 -0.0133062 0
M  V30 4161 H 386.787 6.36723 1.06084 0
M  V30 4162 H 387.555 8.18479 0.0580522 0
M  V30 4163 N 390.218 -0.567019 1.47046 0
M  V30 4164 C 391.148 -1.68482 1.61667 0
M  V30 4165 C 392.129 -1.6358 0.466418 0
M  V30 4166 O 393.314 -1.81354 0.694574 0
M  V30 4167 C 390.444 -3.07124 1.62148 0
M  V30 4168 C 389.398 -3.26867 2.76301 0
M  V30 4169 C 388.724 -4.66196 2.61849 0
M  V30 4170 C 390.024 -3.13186 4.17986 0
M  V30 4171 H 391.718 -1.56502 2.5524 0
M  V30 4172 H 389.264 -0.751486 1.22836 0
M  V30 4173 H 391.217 -3.8516 1.70968 0
M  V30 4174 H 389.941 -3.2004 0.651287 0
M  V30 4175 H 388.6 -2.51237 2.66975 0
M  V30 4176 H 388.248 -4.75898 1.62879 0
M  V30 4177 H 387.948 -4.80356 3.38425 0
M  V30 4178 H 389.472 -5.46379 2.72584 0
M  V30 4179 H 390.886 -3.81049 4.2834 0
M  V30 4180 H 389.283 -3.3886 4.95272 0
M  V30 4181 H 390.353 -2.10057 4.3704 0
M  V30 4182 N 391.696 -1.35014 -0.812953 0
M  V30 4183 C 392.628 -1.23262 -1.93233 0
M  V30 4184 C 393.641 -0.157371 -1.62038 0
M  V30 4185 O 394.83 -0.410096 -1.73725 0
M  V30 4186 C 391.93 -0.87392 -3.27438 0
M  V30 4187 C 391.103 -2.04622 -3.86586 0
M  V30 4188 C 390.162 -1.66432 -4.99186 0
M  V30 4189 O 389.188 -2.38222 -5.16951 0
M  V30 4190 N 390.39 -0.584248 -5.77552 0
M  V30 4191 H 393.155 -2.19699 -2.03844 0
M  V30 4192 H 390.716 -1.281 -0.99005 0
M  V30 4193 H 392.708 -0.600039 -4.00227 0
M  V30 4194 H 391.278 0.00057392 -3.126 0
M  V30 4195 H 390.498 -2.48427 -3.06068 0
M  V30 4196 H 391.786 -2.82999 -4.22835 0
M  V30 4197 H 391.184 0.0123526 -5.65699 0
M  V30 4198 H 389.741 -0.37013 -6.50748 0
M  V30 4199 N 393.175 1.03435 -1.18907 0
M  V30 4200 C 394.452 1.73778 -0.89781 0
M  V30 4201 C 394.832 2.02458 0.597832 0
M  V30 4202 O 394.18 1.67482 1.55441 0
M  V30 4203 C 394.39 3.01845 -1.75187 0
M  V30 4204 C 395.738 3.7546 -1.9828 0
M  V30 4205 O 396.762 3.11759 -1.72293 0
M  V30 4206 O 395.621 4.89966 -2.42065 0
M  V30 4207 H 392.715 0.75651 -0.334098 0
M  V30 4208 H 395.261 1.09444 -1.29693 0
M  V30 4209 H 394.033 2.76836 -2.76545 0
M  V30 4210 H 393.656 3.73919 -1.35167 0
M  V30 4211 N 394.653 0.992116 1.22453 0
M  V30 4212 C 395.601 0.534644 2.26372 0
M  V30 4213 C 396.595 -0.414293 1.64256 0
M  V30 4214 O 397.801 -0.286899 1.77699 0
M  V30 4215 H 394.176 0.154502 0.735957 0
M  V30 4216 H 396.147 1.42256 2.62309 0
M  V30 4217 C 394.896 -0.135815 3.47435 0
M  V30 4218 H 394.219 0.585311 3.95492 0
M  V30 4219 H 395.659 -0.419374 4.21921 0
M  V30 4220 C 394.118 -1.37089 3.07747 0
M  V30 4221 O 394.648 -2.46629 3.17076 0
M  V30 4222 N 392.854 -1.24585 2.62539 0
M  V30 4223 H 392.401 -0.354542 2.55149 0
M  V30 4224 H 392.359 -2.07327 2.36353 0
M  V30 4225 N 396.131 -1.37776 0.765217 0
M  V30 4226 C 397.359 -2.04124 0.337767 0
M  V30 4227 C 397.774 -1.57715 -1.03785 0
M  V30 4228 O 397.131 -0.755447 -1.6613 0
M  V30 4229 C 397.182 -3.59658 0.364442 0
M  V30 4230 O 396.903 -4.04367 1.68579 0
M  V30 4231 C 398.404 -4.43236 -0.0754221 0
M  V30 4232 H 395.624 -0.655696 0.142491 0
M  V30 4233 H 398.168 -1.76238 1.03732 0
M  V30 4234 H 396.323 -3.86339 -0.286471 0
M  V30 4235 H 396.737 -4.98857 1.61993 0
M  V30 4236 H 398.211 -5.52 -0.00560067 0
M  V30 4237 H 398.688 -4.2455 -1.12491 0
M  V30 4238 H 399.294 -4.21767 0.547055 0
M  V30 4239 N 397.609 -0.515225 -1.4894 0
M  V30 4240 C 399.025 -0.172099 -1.58669 0
M  V30 4241 C 399.225 1.32405 -1.51892 0
M  V30 4242 O 398.281 2.10116 -1.40027 0
M  V30 4243 C 399.594 -0.761533 -2.90897 0
M  V30 4244 C 401.142 -0.728926 -3.04394 0
M  V30 4245 C 401.617 -1.29667 -4.39261 0
M  V30 4246 N 403.108 -1.25799 -4.4579 0
M  V30 4247 C 403.843 -1.66733 -5.48623 0
M  V30 4248 N 403.339 -2.15327 -6.58488 0
M  V30 4249 N 405.132 -1.58061 -5.39419 0
M  V30 4250 H 397.283 -1.48778 -1.51588 0
M  V30 4251 H 399.546 -0.617968 -0.718901 0
M  V30 4252 H 399.252 -1.81136 -3.01468 0
M  V30 4253 H 399.126 -0.230106 -3.76497 0
M  V30 4254 H 401.513 0.312098 -2.93445 0
M  V30 4255 H 401.594 -1.29766 -2.20442 0
M  V30 4256 H 401.238 -2.33655 -4.50963 0
M  V30 4257 H 401.168 -0.703752 -5.21876 0
M  V30 4258 H 403.659 -0.902102 -3.66975 0
M  V30 4259 H 403.972 -2.44594 -7.33071 0
M  V30 4260 H 402.317 -2.19311 -6.59491 0
M  V30 4261 H 405.508 -1.19906 -4.52482 0
M  V30 4262 H 405.681 -1.90284 -6.19432 0
M  V30 4263 N 399.087 1.5561 -0.249682 0
M  V30 4264 C 400.335 1.98618 0.373548 0
M  V30 4265 C 400.656 1.13919 1.58264 0
M  V30 4266 O 399.926 0.222637 1.94631 0
M  V30 4267 H 398.506 0.733571 0.141006 0
M  V30 4268 H 401.168 1.91748 -0.349117 0
M  V30 4269 H 400.264 3.04584 0.680796 0
M  V30 4270 N 400.565 -0.0233959 1.57583 0
M  V30 4271 C 401.513 -1.04063 2.08023 0
M  V30 4272 C 402.507 -1.37084 0.995204 0
M  V30 4273 O 403.713 -1.35923 1.18004 0
M  V30 4274 H 400.088 -0.353144 0.663922 0
M  V30 4275 H 402.059 -0.589453 2.9252 0
M  V30 4276 C 400.808 -2.33123 2.57971 0
M  V30 4277 H 400.131 -2.08577 3.4108 0
M  V30 4278 H 401.571 -3.02632 2.96967 0
M  V30 4279 C 400.03 -3.02483 1.48342 0
M  V30 4280 O 400.56 -3.92541 0.852898 0
M  V30 4281 N 398.766 -2.63909 1.21658 0
M  V30 4282 H 398.313 -1.90758 1.73116 0
M  V30 4283 H 398.271 -3.10633 0.485218 0
M  V30 4284 N 402.043 -1.548 -0.295768 0
M  V30 4285 C 403.291 -1.73985 -1.02828 0
M  V30 4286 C 403.612 -0.531406 -1.87619 0
M  V30 4287 O 402.882 0.454221 -1.90561 0
M  V30 4288 H 401.462 -0.641556 -0.382642 0
M  V30 4289 H 404.124 -1.92163 -0.325489 0
M  V30 4290 H 403.22 -2.63129 -1.67838 0
M  V30 4291 N 403.521 0.559213 -1.47345 0
M  V30 4292 C 404.77 1.31281 -1.53128 0
M  V30 4293 C 405.083 1.94602 -0.197344 0
M  V30 4294 O 406.289 2.71173 -0.133154 0
M  V30 4295 C 404.745 2.38051 -2.69925 0
M  V30 4296 C 404.353 1.8093 -4.0984 0
M  V30 4297 C 406.097 3.14604 -2.84999 0
M  V30 4298 C 404.004 2.85468 -5.1794 0
M  V30 4299 H 402.934 0.493614 -0.569966 0
M  V30 4300 H 405.585 0.594155 -1.73615 0
M  V30 4301 H 403.967 3.12822 -2.42814 0
M  V30 4302 H 405.141 1.12544 -4.46845 0
M  V30 4303 H 403.456 1.16967 -3.99634 0
M  V30 4304 H 406.053 3.92666 -3.62929 0
M  V30 4305 H 406.396 3.68665 -1.93369 0
M  V30 4306 H 406.929 2.46945 -3.1187 0
M  V30 4307 H 403.668 2.36264 -6.1144 0
M  V30 4308 H 403.188 3.52269 -4.85455 0
M  V30 4309 H 404.867 3.48996 -5.44803 0
M  V30 4310 N 404.999 1.35443 0.805782 0
M  V30 4311 C 406.246 1.28761 1.56291 0
M  V30 4312 C 406.574 -0.137747 1.94012 0
M  V30 4313 O 405.829 -1.1032 1.61642 0
M  V30 4314 C 406.128 2.14045 2.86216 0
M  V30 4315 C 405.794 3.62826 2.67709 0
M  V30 4316 C 404.456 4.0338 2.6237 0
M  V30 4317 C 406.808 4.57227 2.50186 0
M  V30 4318 C 404.136 5.36501 2.37451 0
M  V30 4319 C 406.488 5.90547 2.26797 0
M  V30 4320 C 405.152 6.30245 2.1988 0
M  V30 4321 H 404.422 0.471171 0.571908 0
M  V30 4322 H 407.069 1.67347 0.930974 0
M  V30 4323 H 405.374 1.68342 3.53791 0
M  V30 4324 H 407.071 2.0621 3.43917 0
M  V30 4325 H 403.661 3.30644 2.72713 0
M  V30 4326 H 407.845 4.2678 2.53323 0
M  V30 4327 H 403.101 5.66259 2.30567 0
M  V30 4328 H 407.275 6.63274 2.12228 0
M  V30 4329 H 404.902 7.33328 2.00333 0
M  V30 4330 N 406.477 -1.02803 1.19454 0
M  V30 4331 C 407.705 -1.79841 1.02297 0
M  V30 4332 C 408.12 -1.83879 -0.428259 0
M  V30 4333 O 407.477 -1.28345 -1.29745 0
M  V30 4334 C 407.528 -3.24852 1.58598 0
M  V30 4335 O 407.249 -3.21097 2.98041 0
M  V30 4336 C 408.75 -4.18485 1.46236 0
M  V30 4337 H 405.97 -0.565936 0.360496 0
M  V30 4338 H 408.514 -1.2948 1.58288 0
M  V30 4339 H 406.669 -3.72401 1.06753 0
M  V30 4340 H 407.083 -4.12033 3.24545 0
M  V30 4341 H 408.557 -5.18121 1.90407 0
M  V30 4342 H 409.034 -4.37254 0.41301 0
M  V30 4343 H 409.64 -3.76811 1.97215 0
M  V30 4344 N 407.956 -0.998596 -1.21925 0
M  V30 4345 C 409.186 -0.695276 -1.94549 0
M  V30 4346 C 409.594 0.745079 -1.73911 0
M  V30 4347 O 408.937 1.51507 -1.03881 0
M  V30 4348 C 408.999 -0.928485 -3.47303 0
M  V30 4349 C 408.663 -2.35443 -3.91683 0
M  V30 4350 C 409.66 -3.33428 -3.98901 0
M  V30 4351 C 407.345 -2.69038 -4.24174 0
M  V30 4352 C 409.339 -4.63079 -4.37992 0
M  V30 4353 C 407.026 -3.98906 -4.62944 0
M  V30 4354 C 408.024 -4.95738 -4.69822 0
M  V30 4355 O 407.712 -6.23285 -5.07711 0
M  V30 4356 H 407.444 -0.255902 -0.625692 0
M  V30 4357 H 409.998 -1.33767 -1.5587 0
M  V30 4358 H 408.228 -0.228917 -3.86022 0
M  V30 4359 H 409.917 -0.619539 -4.01144 0
M  V30 4360 H 410.683 -3.08807 -3.73983 0
M  V30 4361 H 406.562 -1.94367 -4.18022 0
M  V30 4362 H 410.106 -5.38658 -4.43275 0
M  V30 4363 H 406.003 -4.23314 -4.87314 0
M  V30 4364 H 406.771 -6.27306 -5.25766 0
M  V30 4365 N 409.434 1.37368 -0.772513 0
M  V30 4366 C 410.711 1.93839 -0.26188 0
M  V30 4367 C 411.091 1.7061 1.24319 0
M  V30 4368 O 410.439 1.05534 2.02669 0
M  V30 4369 C 410.649 3.43154 -0.636102 0
M  V30 4370 C 411.997 4.20249 -0.606324 0
M  V30 4371 O 413.021 3.5152 -0.575538 0
M  V30 4372 O 411.88 5.42809 -0.634086 0
M  V30 4373 H 408.974 0.82478 -0.0605555 0
M  V30 4374 H 411.52 1.4665 -0.853917 0
M  V30 4375 H 410.292 3.53647 -1.6748 0
M  V30 4376 H 409.915 3.97596 -0.0170516 0
M  V30 4377 N 410.912 0.523116 1.48665 0
M  V30 4378 C 411.875 -0.232592 2.28017 0
M  V30 4379 C 412.875 -0.874021 1.34972 0
M  V30 4380 O 414.065 -0.735132 1.57929 0
M  V30 4381 C 411.197 -1.33586 3.13636 0
M  V30 4382 H 412.39 0.464008 2.96289 0
M  V30 4383 H 409.943 0.278816 1.53793 0
M  V30 4384 H 410.678 -2.06593 2.4998 0
M  V30 4385 H 410.463 -0.881125 3.82071 0
M  V30 4386 H 411.953 -1.86759 3.73511 0
M  V30 4387 N 412.39 -1.55475 0.257931 0
M  V30 4388 C 413.337 -2.21837 -0.636939 0
M  V30 4389 C 414.307 -1.18596 -1.16294 0
M  V30 4390 O 415.492 -1.47081 -1.21539 0
M  V30 4391 C 412.632 -2.9301 -1.82317 0
M  V30 4392 C 411.745 -4.10931 -1.33265 0
M  V30 4393 C 410.88 -4.69791 -2.47931 0
M  V30 4394 C 409.919 -5.7994 -1.95796 0
M  V30 4395 N 409.056 -6.32935 -3.0387 0
M  V30 4396 H 413.896 -2.9793 -0.0643591 0
M  V30 4397 H 411.433 -1.47086 -0.0200031 0
M  V30 4398 H 413.391 -3.3248 -2.52018 0
M  V30 4399 H 412.021 -2.1937 -2.36805 0
M  V30 4400 H 411.073 -3.76699 -0.52931 0
M  V30 4401 H 412.385 -4.90417 -0.910654 0
M  V30 4402 H 411.539 -5.11892 -3.25656 0
M  V30 4403 H 410.278 -3.89545 -2.93438 0
M  V30 4404 H 409.283 -5.37305 -1.16546 0
M  V30 4405 H 410.508 -6.62043 -1.51246 0
M  V30 4406 H 408.454 -5.55591 -3.48791 0
M  V30 4407 H 408.371 -7.07645 -2.66035 0
M  V30 4408 H 409.639 -6.79695 -3.81621 0
M  V30 4409 N 413.868 0.0150385 -1.57593 0
M  V30 4410 C 415.098 0.713359 -1.93894 0
M  V30 4411 C 415.506 1.68663 -0.857289 0
M  V30 4412 O 414.849 1.82876 0.173788 0
M  V30 4413 C 414.911 1.51348 -3.26089 0
M  V30 4414 C 414.575 0.703451 -4.51554 0
M  V30 4415 C 415.572 -0.00237924 -5.199 0
M  V30 4416 C 413.257 0.653854 -4.98026 0
M  V30 4417 C 415.251 -0.746955 -6.33008 0
M  V30 4418 C 412.938 -0.0944578 -6.11027 0
M  V30 4419 C 413.936 -0.793609 -6.78374 0
M  V30 4420 O 413.624 -1.52974 -7.89211 0
M  V30 4421 H 413.356 0.204637 -0.644282 0
M  V30 4422 H 415.91 -0.0276411 -2.05381 0
M  V30 4423 H 414.14 2.29862 -3.10967 0
M  V30 4424 H 415.829 2.09572 -3.47612 0
M  V30 4425 H 416.595 0.0268803 -4.84993 0
M  V30 4426 H 412.474 1.18756 -4.45441 0
M  V30 4427 H 416.018 -1.2932 -6.85509 0
M  V30 4428 H 411.915 -0.125591 -6.45378 0
M  V30 4429 H 412.683 -1.44488 -8.05646 0
M  V30 4430 N 415.346 1.54954 0.287554 0
M  V30 4431 C 416.762 1.46469 0.633964 0
M  V30 4432 C 416.962 0.666865 1.90145 0
M  V30 4433 O 416.018 0.179906 2.51858 0
M  V30 4434 C 417.331 2.90556 0.774454 0
M  V30 4435 C 418.879 3.00681 0.869462 0
M  V30 4436 C 419.354 4.45993 1.04184 0
M  V30 4437 N 420.845 4.4976 1.10772 0
M  V30 4438 C 421.58 5.59393 1.25964 0
M  V30 4439 N 421.076 6.78923 1.37968 0
M  V30 4440 N 422.869 5.47107 1.28959 0
M  V30 4441 H 415.02 2.05288 -0.545041 0
M  V30 4442 H 417.283 0.930305 -0.182308 0
M  V30 4443 H 416.989 3.51594 -0.086207 0
M  V30 4444 H 416.863 3.38743 1.6593 0
M  V30 4445 H 419.25 2.39749 1.7206 0
M  V30 4446 H 419.331 2.55769 -0.0396831 0
M  V30 4447 H 418.975 5.07524 0.195422 0
M  V30 4448 H 418.905 4.88548 1.96542 0
M  V30 4449 H 421.396 3.63651 1.02794 0
M  V30 4450 H 421.709 7.58231 1.49353 0
M  V30 4451 H 420.054 6.81763 1.34999 0
M  V30 4452 H 423.245 4.52668 1.19202 0
M  V30 4453 H 423.418 6.32595 1.40455 0
M  V30 4454 N 416.824 -0.551391 1.4764 0
M  V30 4455 C 418.052 -1.33357 1.58189 0
M  V30 4456 C 418.467 -1.87342 0.234199 0
M  V30 4457 O 417.824 -1.65301 -0.77343 0
M  V30 4458 C 417.875 -2.49942 2.61173 0
M  V30 4459 O 417.596 -1.98187 3.90709 0
M  V30 4460 C 419.097 -3.42072 2.8196 0
M  V30 4461 H 416.317 -0.40631 0.533998 0
M  V30 4462 H 418.861 -0.667367 1.93304 0
M  V30 4463 H 417.016 -3.12489 2.28975 0
M  V30 4464 H 417.43 -2.74342 4.47031 0
M  V30 4465 H 418.904 -4.20278 3.57869 0
M  V30 4466 H 419.381 -3.95978 1.89995 0
M  V30 4467 H 419.987 -2.85336 3.15378 0
M  V30 4468 N 418.302 -1.35869 -0.798587 0
M  V30 4469 C 419.53 -1.32722 -1.58722 0
M  V30 4470 C 419.945 0.0935631 -1.88568 0
M  V30 4471 O 419.302 1.04784 -1.49421 0
M  V30 4472 C 419.353 -2.13974 -2.91371 0
M  V30 4473 O 419.074 -3.50514 -2.62815 0
M  V30 4474 C 420.575 -2.18504 -3.85708 0
M  V30 4475 H 417.795 -0.45562 -0.492596 0
M  V30 4476 H 420.339 -1.78837 -0.991843 0
M  V30 4477 H 418.494 -1.71438 -3.47402 0
M  V30 4478 H 418.908 -3.92806 -3.47568 0
M  V30 4479 H 420.382 -2.79732 -4.75872 0
M  V30 4480 H 420.859 -1.18597 -4.22885 0
M  V30 4481 H 421.465 -2.61236 -3.35612 0
M  V30 4482 N 419.78 1.02168 -1.19998 0
M  V30 4483 C 420.71 2.12488 -0.96804 0
M  V30 4484 C 421.691 1.69799 0.101185 0
M  V30 4485 O 422.876 1.94121 -0.0552993 0
M  V30 4486 C 420.006 3.43479 -0.513776 0
M  V30 4487 C 418.96 3.99884 -1.52566 0
M  V30 4488 C 418.286 5.26582 -0.928214 0
M  V30 4489 C 419.586 4.33861 -2.90795 0
M  V30 4490 H 421.28 2.32149 -1.89069 0
M  V30 4491 H 418.826 1.11564 -0.910468 0
M  V30 4492 H 420.779 4.20036 -0.338774 0
M  V30 4493 H 419.503 3.23561 0.444493 0
M  V30 4494 H 418.162 3.25429 -1.68794 0
M  V30 4495 H 417.81 5.02986 0.0378289 0
M  V30 4496 H 417.51 5.65284 -1.60397 0
M  V30 4497 H 419.034 6.05799 -0.764167 0
M  V30 4498 H 420.448 5.01327 -2.78109 0
M  V30 4499 H 418.845 4.83664 -3.55231 0
M  V30 4500 H 419.915 3.42848 -3.42904 0
M  V30 4501 N 421.258 1.00505 1.21394 0
M  V30 4502 C 422.669 0.721082 1.72213 0
M  V30 4503 C 423.02 -0.761263 1.80829 0
M  V30 4504 O 422.145 -1.59464 1.46288 0
M  V30 4505 C 422.74 1.30228 3.12772 0
M  V30 4506 C 421.299 1.06743 3.60947 0
M  V30 4507 C 420.446 1.41507 2.38477 0
M  V30 4508 H 423.397 1.17594 1.06571 0
M  V30 4509 H 423.418 0.686955 3.74247 0
M  V30 4510 H 422.93 2.38115 3.06468 0
M  V30 4511 H 421.031 0.00572162 3.726 0
M  V30 4512 H 421.144 1.73936 4.46411 0
M  V30 4513 H 419.508 0.833852 2.40664 0
M  V30 4514 H 420.291 2.50424 2.34824 0
M  V30 4515 N 422.737 -1.36956 0.779787 0
M  V30 4516 C 423.985 -1.99097 0.347079 0
M  V30 4517 C 424.306 -1.62206 -1.08232 0
M  V30 4518 O 423.576 -0.891373 -1.74446 0
M  V30 4519 H 422.156 -0.736409 0.125342 0
M  V30 4520 H 424.818 -1.67308 0.999696 0
M  V30 4521 H 423.914 -3.09107 0.431162 0
M  V30 4522 N 424.215 -0.530993 -1.48385 0
M  V30 4523 C 425.44 0.000729535 -2.074 0
M  V30 4524 C 425.865 1.27298 -1.3848 0
M  V30 4525 O 425.223 1.75599 -0.451081 0
M  V30 4526 C 425.271 0.206697 -3.60007 0
M  V30 4527 O 424.375 1.27514 -3.92191 0
M  V30 4528 H 423.716 -0.039583 -0.662819 0
M  V30 4529 H 426.246 -0.739194 -1.9078 0
M  V30 4530 H 426.256 0.42904 -4.05738 0
M  V30 4531 H 424.931 -0.722675 -4.09573 0
M  V30 4532 H 423.508 1.03537 -3.58238 0
M  V30 4533 N 425.693 1.55336 -0.266172 0
M  V30 4534 C 426.623 2.25146 0.618981 0
M  V30 4535 C 427.604 1.23845 1.16604 0
M  V30 4536 O 428.789 1.52544 1.20183 0
M  V30 4537 C 425.919 2.96572 1.80728 0
M  V30 4538 C 424.873 4.04726 1.39215 0
M  V30 4539 C 424.199 4.63678 2.66283 0
M  V30 4540 C 425.499 5.19407 0.548942 0
M  V30 4541 H 427.193 2.99377 0.0368116 0
M  V30 4542 H 424.739 1.43991 0.0162651 0
M  V30 4543 H 426.692 3.44116 2.43232 0
M  V30 4544 H 425.416 2.19861 2.41514 0
M  V30 4545 H 424.075 3.57979 0.790351 0
M  V30 4546 H 423.723 3.83646 3.25308 0
M  V30 4547 H 423.423 5.367 2.39222 0
M  V30 4548 H 424.947 5.13967 3.29651 0
M  V30 4549 H 426.361 5.63059 1.07876 0
M  V30 4550 H 424.758 5.98936 0.373593 0
M  V30 4551 H 425.828 4.8295 -0.434394 0
M  V30 4552 N 427.171 -0.0066808 1.57599 0
M  V30 4553 C 428.417 -0.68835 1.91398 0
M  V30 4554 C 428.772 -1.7175 0.86716 0
M  V30 4555 O 428.065 -1.91215 -0.121475 0
M  V30 4556 C 428.259 -1.37939 3.29708 0
M  V30 4557 C 428.088 -0.418689 4.47747 0
M  V30 4558 C 426.858 -0.031526 5.0529 0
M  V30 4559 C 429.056 0.312301 5.13351 0
M  V30 4560 N 427.038 0.928088 6.06844 0
M  V30 4561 C 428.409 1.12682 6.09674 0
M  V30 4562 C 430.464 0.376853 4.96472 0
M  V30 4563 C 429.167 2 6.90936 0
M  V30 4564 C 431.193 1.23723 5.78314 0
M  V30 4565 C 430.555 2.03962 6.74225 0
M  V30 4566 H 426.654 -0.225292 0.748844 0
M  V30 4567 H 429.238 0.0520973 1.9463 0
M  V30 4568 H 427.409 -2.09017 3.27363 0
M  V30 4569 H 429.141 -2.01522 3.50957 0
M  V30 4570 H 425.896 -0.398485 4.71921 0
M  V30 4571 H 426.32 1.40307 6.62301 0
M  V30 4572 H 430.962 -0.22921 4.22178 0
M  V30 4573 H 428.68 2.61676 7.64559 0
M  V30 4574 H 432.266 1.291 5.67296 0
M  V30 4575 H 431.146 2.69461 7.36451 0
M  V30 4576 N 428.649 -1.55105 -0.279332 0
M  V30 4577 C 429.612 -1.86783 -1.32834 0
M  V30 4578 C 430.612 -0.74199 -1.42657 0
M  V30 4579 O 431.802 -1.0102 -1.41918 0
M  V30 4580 C 428.934 -2.06746 -2.71052 0
M  V30 4581 H 430.127 -2.8055 -1.05979 0
M  V30 4582 H 427.68 -1.47499 -0.517087 0
M  V30 4583 H 428.415 -1.15339 -3.03097 0
M  V30 4584 H 428.2 -2.88711 -2.65309 0
M  V30 4585 H 429.69 -2.32549 -3.46858 0
M  V30 4586 N 430.127 0.543554 -1.4793 0
M  V30 4587 C 431.404 1.30458 -1.4574 0
M  V30 4588 C 431.784 2.1048 -0.161692 0
M  V30 4589 O 431.132 2.11831 0.856734 0
M  V30 4590 C 431.342 2.19754 -2.71126 0
M  V30 4591 C 432.69 2.80334 -3.18901 0
M  V30 4592 O 433.714 2.30049 -2.71948 0
M  V30 4593 O 432.573 3.71766 -4.00565 0
M  V30 4594 H 429.667 0.588117 -0.581418 0
M  V30 4595 H 432.213 0.561328 -1.60147 0
M  V30 4596 H 430.985 1.60316 -3.56952 0
M  V30 4597 H 430.608 3.01351 -2.59371 0
M  V30 4598 N 431.605 1.3629 0.791371 0
M  V30 4599 C 432.568 1.30309 1.88553 0
M  V30 4600 C 433.568 0.211204 1.59407 0
M  V30 4601 O 434.758 0.465865 1.67855 0
M  V30 4602 C 431.89 1.01956 3.25297 0
M  V30 4603 H 433.083 2.27614 1.95273 0
M  V30 4604 H 430.636 1.21035 0.988953 0
M  V30 4605 H 431.371 0.050998 3.2426 0
M  V30 4606 H 431.156 1.80968 3.4784 0
M  V30 4607 H 432.646 1.0037 4.05359 0
M  V30 4608 N 433.083 -1.0153 1.20538 0
M  V30 4609 C 434.36 -1.72327 0.925343 0
M  V30 4610 C 434.74 -2.03383 -0.565547 0
M  V30 4611 O 434.088 -1.69934 -1.52757 0
M  V30 4612 C 434.298 -2.9902 1.79967 0
M  V30 4613 C 435.646 -3.72258 2.04228 0
M  V30 4614 O 436.67 -3.08979 1.77231 0
M  V30 4615 O 435.529 -4.86053 2.4983 0
M  V30 4616 H 432.623 -0.751099 0.346092 0
M  V30 4617 H 435.169 -1.07366 1.31417 0
M  V30 4618 H 433.941 -2.72402 2.80915 0
M  V30 4619 H 433.564 -3.71721 1.41099 0
M  V30 4620 N 434.561 -1.01147 -1.20859 0
M  V30 4621 C 435.509 -0.57059 -2.25493 0
M  V30 4622 C 436.503 0.388109 -1.64894 0
M  V30 4623 O 437.709 0.258592 -1.78133 0
M  V30 4624 H 434.084 -0.166191 -0.733406 0
M  V30 4625 H 436.055 -1.46411 -2.60012 0
M  V30 4626 C 434.804 0.0805241 -3.47607 0
M  V30 4627 H 434.127 -0.648156 -3.94511 0
M  V30 4628 H 435.567 0.352197 -4.22535 0
M  V30 4629 C 434.026 1.32175 -3.09889 0
M  V30 4630 O 434.556 2.41553 -3.20959 0
M  V30 4631 N 432.762 1.20392 -2.64488 0
M  V30 4632 H 432.309 0.313905 -2.5568 0
M  V30 4633 H 432.267 2.03541 -2.39621 0
M  V30 4634 N 436.039 1.36541 -0.78704 0
M  V30 4635 C 436.971 2.28761 -0.141773 0
M  V30 4636 C 437.984 1.49365 0.647599 0
M  V30 4637 O 439.173 1.71836 0.483173 0
M  V30 4638 C 436.273 3.28771 0.822368 0
M  V30 4639 C 435.446 4.3732 0.0835594 0
M  V30 4640 C 434.505 5.17307 0.963296 0
M  V30 4641 O 433.531 5.67638 0.421419 0
M  V30 4642 N 434.733 5.33515 2.28784 0
M  V30 4643 H 437.498 2.84777 -0.933919 0
M  V30 4644 H 435.059 1.48682 -0.640735 0
M  V30 4645 H 437.051 3.79169 1.41468 0
M  V30 4646 H 435.621 2.73412 1.5154 0
M  V30 4647 H 434.841 3.88118 -0.689809 0
M  V30 4648 H 436.129 5.0701 -0.426358 0
M  V30 4649 H 435.527 4.94234 2.75226 0
M  V30 4650 H 434.084 5.87165 2.82985 0
M  V30 4651 N 437.518 0.538854 1.48102 0
M  V30 4652 C 438.765 0.0080018 2.02498 0
M  V30 4653 C 439.093 -1.33437 1.41509 0
M  V30 4654 O 438.348 -1.87709 0.553507 0
M  V30 4655 C 438.647 -0.153808 3.57069 0
M  V30 4656 C 438.313 1.11533 4.36888 0
M  V30 4657 C 436.975 1.46314 4.58417 0
M  V30 4658 C 439.327 1.95718 4.83057 0
M  V30 4659 C 436.655 2.6516 5.23361 0
M  V30 4660 C 439.007 3.13751 5.49312 0
M  V30 4661 C 437.671 3.48866 5.69077 0
M  V30 4662 H 436.941 0.00292807 0.740994 0
M  V30 4663 H 439.588 0.706668 1.77984 0
M  V30 4664 H 437.893 -0.935309 3.80472 0
M  V30 4665 H 439.59 -0.579607 3.96789 0
M  V30 4666 H 436.18 0.834484 4.20398 0
M  V30 4667 H 440.364 1.70158 4.66219 0
M  V30 4668 H 435.62 2.92558 5.36861 0
M  V30 4669 H 439.794 3.79282 5.84053 0
M  V30 4670 H 437.421 4.41054 6.19173 0
M  V30 4671 N 438.996 -1.55193 0.274407 0
M  V30 4672 C 440.243 -1.99581 -0.342579 0
M  V30 4673 C 440.571 -1.1628 -1.55914 0
M  V30 4674 O 439.826 -0.22029 -1.94456 0
M  V30 4675 C 440.125 -3.49019 -0.769458 0
M  V30 4676 C 439.791 -4.49598 0.342389 0
M  V30 4677 C 438.453 -4.76821 0.647686 0
M  V30 4678 C 440.805 -5.0964 1.09163 0
M  V30 4679 C 438.133 -5.61354 1.70581 0
M  V30 4680 C 440.485 -5.95323 2.13948 0
M  V30 4681 C 439.149 -6.20867 2.45113 0
M  V30 4682 H 438.419 -0.730319 -0.125358 0
M  V30 4683 H 441.066 -1.87529 0.387971 0
M  V30 4684 H 439.371 -3.58544 -1.57967 0
M  V30 4685 H 441.068 -3.8077 -1.25757 0
M  V30 4686 H 437.658 -4.28496 0.094318 0
M  V30 4687 H 441.842 -4.88632 0.869024 0
M  V30 4688 H 437.098 -5.79392 1.9523 0
M  V30 4689 H 441.272 -6.40881 2.72478 0
M  V30 4690 H 438.899 -6.86162 3.27239 0
M  V30 4691 N 440.474 -0.00167713 -1.576 0
M  V30 4692 C 441.437 0.974046 -2.07473 0
M  V30 4693 C 442.437 1.27143 -0.984444 0
M  V30 4694 O 443.627 1.21633 -1.24703 0
M  V30 4695 C 440.759 2.29849 -2.51759 0
M  V30 4696 H 441.952 0.54262 -2.9495 0
M  V30 4697 H 439.505 0.245829 -1.54355 0
M  V30 4698 H 440.24 2.77677 -1.67529 0
M  V30 4699 H 440.025 2.09584 -3.31386 0
M  V30 4700 H 441.515 2.9984 -2.90664 0
M  V30 4701 N 441.952 1.55251 0.271103 0
M  V30 4702 C 443.177 1.80306 1.02491 0
M  V30 4703 C 443.602 0.575457 1.79081 0
M  V30 4704 O 442.96 -0.474987 1.74967 0
M  V30 4705 C 443.008 3.02832 1.95768 0
M  V30 4706 O 442.112 2.78051 3.04568 0
M  V30 4707 H 441.453 0.595896 0.292923 0
M  V30 4708 H 443.983 2.02397 0.299436 0
M  V30 4709 H 443.993 3.31616 2.37686 0
M  V30 4710 H 442.668 3.9183 1.39434 0
M  V30 4711 H 441.245 2.60369 2.66951 0
M  V30 4712 N 443.43 -0.535701 1.48216 0
M  V30 4713 C 444.66 -1.3148 1.59363 0
M  V30 4714 C 445.068 -1.8753 0.250844 0
M  V30 4715 O 444.411 -1.66821 -0.769174 0
M  V30 4716 C 444.473 -2.50731 2.57632 0
M  V30 4717 C 444.137 -2.15811 4.02833 0
M  V30 4718 C 445.134 -1.71822 4.90686 0
M  V30 4719 C 442.819 -2.26509 4.48329 0
M  V30 4720 C 444.813 -1.3899 6.22062 0
M  V30 4721 C 442.5 -1.93289 5.79726 0
M  V30 4722 C 443.498 -1.49599 6.66415 0
M  V30 4723 O 443.186 -1.16812 7.95368 0
M  V30 4724 H 442.918 -0.406315 0.540263 0
M  V30 4725 H 445.472 -0.653569 1.94725 0
M  V30 4726 H 443.702 -3.19817 2.1738 0
M  V30 4727 H 445.391 -3.12797 2.58675 0
M  V30 4728 H 446.157 -1.63031 4.56778 0
M  V30 4729 H 442.036 -2.59471 3.81045 0
M  V30 4730 H 445.58 -1.04816 6.89681 0
M  V30 4731 H 441.477 -2.01718 6.13172 0
M  V30 4732 H 442.245 -1.30259 8.08069 0
M  V30 4733 N 444.908 -1.36708 -0.784132 0
M  V30 4734 C 446.185 -1.21776 -1.53069 0
M  V30 4735 C 446.565 0.193876 -2.10208 0
M  V30 4736 O 445.913 1.20012 -1.94446 0
M  V30 4737 C 446.123 -2.30395 -2.62143 0
M  V30 4738 C 447.471 -2.67325 -3.29882 0
M  V30 4739 O 448.495 -2.29478 -2.7243 0
M  V30 4740 O 447.354 -3.32485 -4.33724 0
M  V30 4741 H 444.448 -0.474459 -0.677361 0
M  V30 4742 H 446.994 -1.48454 -0.82216 0
M  V30 4743 H 445.766 -3.2498 -2.17953 0
M  V30 4744 H 445.389 -2.05112 -3.40609 0
M  V30 4745 N 446.386 1.0089 -1.21074 0
M  V30 4746 C 447.349 2.0775 -0.968129 0
M  V30 4747 C 448.349 1.6069 0.0593445 0
M  V30 4748 O 449.539 1.73293 -0.177525 0
M  V30 4749 C 446.671 3.37794 -0.459108 0
M  V30 4750 H 447.864 2.30707 -1.9161 0
M  V30 4751 H 445.417 1.17807 -1.02719 0
M  V30 4752 H 446.152 3.20516 0.49397 0
M  V30 4753 H 445.937 3.7328 -1.20019 0
M  V30 4754 H 447.427 4.16454 -0.309099 0
M  V30 4755 N 447.864 1.01787 1.20321 0
M  V30 4756 C 449.275 0.739307 1.71438 0
M  V30 4757 C 449.626 -0.742041 1.81627 0
M  V30 4758 O 448.751 -1.57903 1.47971 0
M  V30 4759 C 449.346 1.33538 3.11373 0
M  V30 4760 C 447.905 1.10566 3.59795 0
M  V30 4761 C 447.052 1.44028 2.36962 0
M  V30 4762 H 450.003 1.18718 1.05317 0
M  V30 4763 H 450.024 0.726611 3.73498 0
M  V30 4764 H 449.536 2.41352 3.03926 0
M  V30 4765 H 447.637 0.0452405 3.72573 0
M  V30 4766 H 447.75 1.78661 4.44542 0
M  V30 4767 H 446.114 0.85933 2.39766 0
M  V30 4768 H 446.897 2.52901 2.32155 0
M  V30 4769 N 449.342 -1.36122 0.79427 0
M  V30 4770 C 450.305 -2.28309 0.201889 0
M  V30 4771 C 451.305 -1.49041 -0.603603 0
M  V30 4772 O 452.495 -1.68964 -0.423888 0
M  V30 4773 C 449.627 -3.3321 -0.719978 0
M  V30 4774 H 450.82 -2.82208 1.01481 0
M  V30 4775 H 448.373 -1.45768 0.564037 0
M  V30 4776 H 449.108 -2.84475 -1.55706 0
M  V30 4777 H 448.893 -3.91835 -0.144266 0
M  V30 4778 H 450.383 -4.02044 -1.12916 0
M  V30 4779 N 450.82 -0.546701 -1.47814 0
M  V30 4780 C 452.066 -0.0187684 -2.02791 0
M  V30 4781 C 452.399 1.32338 -1.42128 0
M  V30 4782 O 451.674 1.85867 -0.573023 0
M  V30 4783 C 451.957 0.0854985 -3.59998 0
M  V30 4784 C 451.81 -1.283 -4.31114 0
M  V30 4785 C 453.129 0.80412 -4.32691 0
M  V30 4786 H 450.248 -0.0082946 -0.736953 0
M  V30 4787 H 452.89 -0.706962 -1.76358 0
M  V30 4788 H 451.04 0.671609 -3.82651 0
M  V30 4789 H 452.712 -1.91151 -4.19832 0
M  V30 4790 H 450.955 -1.86049 -3.91878 0
M  V30 4791 H 451.626 -1.16287 -5.39612 0
M  V30 4792 H 454.102 0.306576 -4.14969 0
M  V30 4793 H 452.978 0.846011 -5.42341 0
M  V30 4794 H 453.239 1.85802 -4.01161 0
M  V30 4795 N 452.299 1.55045 -0.282633 0
M  V30 4796 C 453.576 1.9179 0.384166 0
M  V30 4797 C 453.956 1.20778 1.73136 0
M  V30 4798 O 453.304 0.33719 2.25998 0
M  V30 4799 C 453.514 3.45149 0.517014 0
M  V30 4800 C 454.862 4.17064 0.796427 0
M  V30 4801 O 455.886 3.51084 0.601535 0
M  V30 4802 O 454.745 5.33837 1.16962 0
M  V30 4803 H 451.839 0.799483 0.211558 0
M  V30 4804 H 454.385 1.66474 -0.32934 0
M  V30 4805 H 453.157 3.88922 -0.430772 0
M  V30 4806 H 452.78 3.76443 1.2797 0
M  V30 4807 N 453.777 0.010035 1.57597 0
M  V30 4808 C 454.74 -0.963029 2.07986 0
M  V30 4809 C 455.74 -1.26619 0.991173 0
M  V30 4810 O 456.93 -1.2097 1.25347 0
M  V30 4811 C 454.062 -2.2851 2.52974 0
M  V30 4812 H 455.255 -0.526971 2.95234 0
M  V30 4813 H 452.808 -0.237639 1.54483 0
M  V30 4814 H 453.543 -2.76784 1.69 0
M  V30 4815 H 453.328 -2.07824 3.32493 0
M  V30 4816 H 454.818 -2.98294 2.9225 0
M  V30 4817 N 455.255 -1.55392 -0.262866 0
M  V30 4818 C 456.205 -1.85355 -1.32768 0
M  V30 4819 C 457.189 -0.713188 -1.44231 0
M  V30 4820 O 458.381 -0.974765 -1.47741 0
M  V30 4821 C 455.51 -2.13781 -2.68612 0
M  V30 4822 C 454.596 -3.34104 -2.61219 0
M  V30 4823 N 454.987 -4.53766 -2.2345 0
M  V30 4824 C 453.285 -3.36895 -2.92263 0
M  V30 4825 C 453.986 -5.35877 -2.26298 0
M  V30 4826 N 452.962 -4.74536 -2.65172 0
M  V30 4827 H 456.764 -2.75413 -1.02591 0
M  V30 4828 H 454.278 -1.55405 -0.471503 0
M  V30 4829 H 456.275 -2.33407 -3.45437 0
M  V30 4830 H 454.935 -1.25013 -2.99669 0
M  V30 4831 H 455.946 -4.79682 -1.95258 0
M  V30 4832 H 452.623 -2.58351 -3.27965 0
M  V30 4833 H 454.013 -6.41577 -1.99572 0
M  V30 4834 N 456.733 0.527833 -1.48498 0
M  V30 4835 C 457.963 1.30633 -1.60058 0
M  V30 4836 C 458.371 1.87394 -0.260786 0
M  V30 4837 O 457.714 1.67227 0.760317 0
M  V30 4838 C 457.776 2.49361 -2.58958 0
M  V30 4839 C 457.44 2.13671 -4.03972 0
M  V30 4840 C 458.437 1.69217 -4.91591 0
M  V30 4841 C 456.122 2.24129 -4.49524 0
M  V30 4842 C 458.116 1.35689 -6.2279 0
M  V30 4843 C 455.803 1.90212 -5.80743 0
M  V30 4844 C 456.801 1.46063 -6.67199 0
M  V30 4845 O 456.489 1.12593 -7.95976 0
M  V30 4846 H 456.221 0.403444 -0.54241 0
M  V30 4847 H 458.775 0.643233 -1.95068 0
M  V30 4848 H 457.005 3.18659 -2.19073 0
M  V30 4849 H 458.694 3.11421 -2.6033 0
M  V30 4850 H 459.46 1.60607 -4.57636 0
M  V30 4851 H 455.339 2.57447 -3.82416 0
M  V30 4852 H 458.883 1.01157 -6.90227 0
M  V30 4853 H 454.78 1.98464 -6.14233 0
M  V30 4854 H 455.548 1.25972 -8.08748 0
M  V30 4855 N 458.211 1.37122 0.776871 0
M  V30 4856 C 459.441 1.35034 1.56363 0
M  V30 4857 C 459.849 -0.0674681 1.8908 0
M  V30 4858 O 459.192 -1.03826 1.51545 0
M  V30 4859 C 459.254 2.11894 2.90415 0
M  V30 4860 C 458.918 3.60897 2.80362 0
M  V30 4861 C 459.915 4.54887 2.51742 0
M  V30 4862 C 457.6 4.03951 2.98545 0
M  V30 4863 C 459.594 5.89909 2.41426 0
M  V30 4864 C 457.281 5.3906 2.87849 0
M  V30 4865 C 458.279 6.31852 2.5933 0
M  V30 4866 O 457.967 7.64479 2.48651 0
M  V30 4867 H 457.699 0.464402 0.49123 0
M  V30 4868 H 460.253 1.80992 0.971127 0
M  V30 4869 H 458.483 1.60618 3.51765 0
M  V30 4870 H 460.172 2.02505 3.51776 0
M  V30 4871 H 460.938 4.22934 2.37385 0
M  V30 4872 H 456.817 3.3209 3.19746 0
M  V30 4873 H 460.361 6.62304 2.19086 0
M  V30 4874 H 456.258 5.70617 3.01773 0
M  V30 4875 H 457.026 7.74742 2.64039 0
M  V30 4876 N 459.689 -1.00246 1.21608 0
M  V30 4877 C 460.652 -2.07233 0.979133 0
M  V30 4878 C 461.652 -1.6072 -0.0508219 0
M  V30 4879 O 462.842 -1.73196 0.186712 0
M  V30 4880 C 459.974 -3.37546 0.477016 0
M  V30 4881 H 461.167 -2.29687 1.92831 0
M  V30 4882 H 458.72 -1.17261 1.03342 0
M  V30 4883 H 459.455 -3.20773 -0.476966 0
M  V30 4884 H 459.24 -3.72638 1.21997 0
M  V30 4885 H 460.73 -4.16285 0.331181 0
M  V30 4886 N 461.167 -1.02423 -1.1978 0
M  V30 4887 C 462.415 -0.716569 -1.8897 0
M  V30 4888 C 462.736 0.756769 -1.79716 0
M  V30 4889 O 462.006 1.5449 -1.20456 0
M  V30 4890 H 460.586 -0.262062 -0.699523 0
M  V30 4891 H 463.248 -1.29747 -1.45436 0
M  V30 4892 H 462.344 -1.00675 -2.95417 0
M  V30 4893 N 462.645 1.35699 -0.801477 0
M  V30 4894 C 463.891 1.99208 -0.380022 0
M  V30 4895 C 464.224 1.63445 1.04878 0
M  V30 4896 O 463.499 0.895223 1.72673 0
M  V30 4897 C 463.782 3.55755 -0.557708 0
M  V30 4898 C 463.635 4.01332 -2.03107 0
M  V30 4899 C 464.954 4.40096 0.0197968 0
M  V30 4900 H 462.073 0.723667 -0.139552 0
M  V30 4901 H 464.715 1.60928 -1.01006 0
M  V30 4902 H 462.865 3.88494 -0.0213741 0
M  V30 4903 H 464.537 3.79026 -2.62939 0
M  V30 4904 H 462.78 3.52429 -2.52936 0
M  V30 4905 H 463.451 5.10234 -2.1063 0
M  V30 4906 H 465.927 4.13786 -0.438179 0
M  V30 4907 H 464.803 5.48735 -0.134477 0
M  V30 4908 H 465.064 4.2786 1.11303 0
M  V30 4909 N 464.123 0.554532 1.47522 0
M  V30 4910 C 465.351 0.034257 2.06872 0
M  V30 4911 C 465.766 -1.25826 1.40759 0
M  V30 4912 O 465.123 -1.75425 0.503217 0
M  V30 4913 C 465.174 -0.167827 3.6111 0
M  V30 4914 O 464.895 1.07351 4.24744 0
M  V30 4915 C 466.396 -0.72569 4.3732 0
M  V30 4916 H 463.616 0.0446275 0.669514 0
M  V30 4917 H 466.16 0.767181 1.89564 0
M  V30 4918 H 464.315 -0.850872 3.7794 0
M  V30 4919 H 464.729 0.869563 5.17242 0
M  V30 4920 H 466.203 -0.816394 5.45929 0
M  V30 4921 H 466.68 -1.73635 4.0342 0
M  V30 4922 H 467.286 -0.0784292 4.25228 0
M  V30 4923 N 465.601 -1.54893 0.290851 0
M  V30 4924 C 466.831 -2.04047 -0.323818 0
M  V30 4925 C 467.239 -1.16809 -1.48837 0
M  V30 4926 O 466.582 -0.184145 -1.82775 0
M  V30 4927 C 466.644 -3.49248 -0.852395 0
M  V30 4928 C 466.308 -4.56623 0.185557 0
M  V30 4929 C 467.305 -5.09985 1.01053 0
M  V30 4930 C 464.99 -5.01252 0.324332 0
M  V30 4931 C 466.984 -6.06507 1.96031 0
M  V30 4932 C 464.671 -5.97596 1.27757 0
M  V30 4933 C 465.669 -6.50107 2.09405 0
M  V30 4934 O 465.357 -7.44565 3.03114 0
M  V30 4935 H 465.089 -0.671735 -0.0758129 0
M  V30 4936 H 467.643 -2.00947 0.425393 0
M  V30 4937 H 465.873 -3.49639 -1.65195 0
M  V30 4938 H 467.562 -3.81654 -1.38185 0
M  V30 4939 H 468.328 -4.76307 0.914129 0
M  V30 4940 H 464.207 -4.60015 -0.301213 0
M  V30 4941 H 467.751 -6.47418 2.598 0
M  V30 4942 H 463.648 -6.30691 1.37473 0
M  V30 4943 H 464.416 -7.62334 2.97976 0
M  V30 4944 N 467.08 -0.0183926 -1.57589 0
M  V30 4945 C 468.357 0.700621 -1.82622 0
M  V30 4946 C 468.737 1.90951 -0.90005 0
M  V30 4947 O 468.085 2.28452 0.0469145 0
M  V30 4948 C 468.295 1.08899 -3.31575 0
M  V30 4949 C 469.643 1.48514 -3.9778 0
M  V30 4950 O 470.667 1.18227 -3.36007 0
M  V30 4951 O 469.526 2.04903 -5.06633 0
M  V30 4952 H 466.62 0.342743 -0.752633 0
M  V30 4953 H 469.166 -0.0452548 -1.6964 0
M  V30 4954 H 467.938 0.228113 -3.90635 0
M  V30 4955 H 467.561 1.89338 -3.49624 0
M  V30 4956 N 468.558 1.5553 0.254621 0
M  V30 4957 C 469.788 1.80784 1.00004 0
M  V30 4958 C 470.196 0.59071 1.79742 0
M  V30 4959 O 469.539 -0.449988 1.78103 0
M  V30 4960 C 469.601 2.99268 1.99196 0
M  V30 4961 C 469.265 4.35595 1.38224 0
M  V30 4962 C 470.262 5.13884 0.788611 0
M  V30 4963 C 467.947 4.82281 1.40393 0
M  V30 4964 C 469.941 6.37004 0.224783 0
M  V30 4965 C 467.628 6.05351 0.836243 0
M  V30 4966 C 468.626 6.82551 0.24769 0
M  V30 4967 O 468.314 8.03297 -0.311249 0
M  V30 4968 H 468.046 0.60565 0.300274 0
M  V30 4969 H 470.6 2.03411 0.285143 0
M  V30 4970 H 468.83 2.72377 2.74496 0
M  V30 4971 H 470.519 3.11682 2.60018 0
M  V30 4972 H 471.285 4.78938 0.764423 0
M  V30 4973 H 467.164 4.22189 1.85142 0
M  V30 4974 H 470.708 6.97203 -0.235235 0
M  V30 4975 H 466.605 6.39776 0.857733 0
M  V30 4976 H 467.373 8.1825 -0.20237 0
M  V30 4977 N 470.036 -0.519951 1.48776 0
M  V30 4978 C 471.266 -1.29783 1.60748 0
M  V30 4979 C 471.674 -1.87253 0.27072 0
M  V30 4980 O 471.017 -1.67628 -0.751438 0
M  V30 4981 C 471.079 -2.47984 2.60277 0
M  V30 4982 C 470.743 -2.11526 4.051 0
M  V30 4983 C 471.74 -1.66608 4.92481 0
M  V30 4984 C 469.425 -2.21742 4.50706 0
M  V30 4985 C 471.419 -1.32384 6.23501 0
M  V30 4986 C 469.106 -1.87129 5.81744 0
M  V30 4987 C 470.104 -1.42523 6.67964 0
M  V30 4988 O 469.792 -1.0837 7.96562 0
M  V30 4989 H 469.524 -0.400562 0.544542 0
M  V30 4990 H 472.078 -0.632879 1.95407 0
M  V30 4991 H 470.308 -3.17493 2.2076 0
M  V30 4992 H 471.997 -3.10036 2.61978 0
M  V30 4993 H 472.763 -1.58178 4.58481 0
M  V30 4994 H 468.642 -2.55415 3.83776 0
M  V30 4995 H 472.186 -0.974949 6.90754 0
M  V30 4996 H 468.083 -1.95204 6.15277 0
M  V30 4997 H 468.851 -1.21681 8.09405 0
M  V30 4998 N 471.514 -1.37532 -0.769588 0
M  V30 4999 C 472.461 -1.3347 -1.88293 0
M  V30 5000 C 473.431 -0.199891 -1.64893 0
M  V30 5001 O 474.616 -0.389594 -1.8678 0
M  V30 5002 C 471.756 -1.14968 -3.25387 0
M  V30 5003 C 470.869 -2.37698 -3.60727 0
M  V30 5004 C 470.004 -2.12051 -4.8704 0
M  V30 5005 C 469.043 -3.30636 -5.15117 0
M  V30 5006 N 468.18 -3.04527 -6.3262 0
M  V30 5007 H 473.02 -2.28658 -1.911 0
M  V30 5008 H 470.557 -1.13622 -0.934257 0
M  V30 5009 H 472.515 -1.02261 -4.04473 0
M  V30 5010 H 471.145 -0.234263 -3.21949 0
M  V30 5011 H 470.197 -2.61137 -2.76608 0
M  V30 5012 H 471.509 -3.26131 -3.77413 0
M  V30 5013 H 470.663 -1.96388 -5.74035 0
M  V30 5014 H 469.402 -1.20959 -4.72462 0
M  V30 5015 H 468.407 -3.46836 -4.26597 0
M  V30 5016 H 469.632 -4.22582 -5.31603 0
M  V30 5017 H 467.578 -2.16067 -6.19396 0
M  V30 5018 H 467.495 -3.86503 -6.49732 0
M  V30 5019 H 468.763 -2.92485 -7.22546 0
M  V30 5020 N 472.992 0.995999 -1.22138 0
M  V30 5021 C 473.94 2.10673 -0.985876 0
M  V30 5022 C 474.934 1.69255 0.0699553 0
M  V30 5023 O 476.14 1.79812 -0.0822176 0
M  V30 5024 H 472.515 0.688865 -0.30161 0
M  V30 5025 H 474.486 2.27711 -1.92848 0
M  V30 5026 C 473.235 3.42881 -0.576909 0
M  V30 5027 H 472.558 3.75191 -1.38101 0
M  V30 5028 H 473.998 4.21589 -0.451518 0
M  V30 5029 C 472.457 3.29265 0.713196 0
M  V30 5030 O 472.987 3.60777 1.76643 0
M  V30 5031 N 471.193 2.82456 0.683162 0
M  V30 5032 H 470.74 2.5701 -0.174242 0
M  V30 5033 H 470.698 2.73727 1.54663 0
M  V30 5034 N 474.47 1.03057 1.19235 0
M  V30 5035 C 475.716 0.729098 1.89241 0
M  V30 5036 C 476.049 -0.740573 1.79525 0
M  V30 5037 O 475.324 -1.53946 1.18874 0
M  V30 5038 C 475.607 1.18304 3.40112 0
M  V30 5039 C 475.46 2.71406 3.5869 0
M  V30 5040 C 476.779 0.765161 4.33397 0
M  V30 5041 H 473.898 0.266338 0.687192 0
M  V30 5042 H 476.54 1.28079 1.40341 0
M  V30 5043 H 474.69 0.713672 3.81889 0
M  V30 5044 H 476.362 3.26303 3.26074 0
M  V30 5045 H 474.605 3.11717 3.01687 0
M  V30 5046 H 475.276 2.98225 4.64506 0
M  V30 5047 H 477.752 1.16889 3.99345 0
M  V30 5048 H 476.628 1.11065 5.37546 0
M  V30 5049 H 476.889 -0.332372 4.40849 0
M  V30 5050 N 475.948 -1.35272 0.808662 0
M  V30 5051 C 476.898 -2.27181 0.193124 0
M  V30 5052 C 477.882 -1.47871 -0.634265 0
M  V30 5053 O 479.074 -1.70048 -0.491182 0
M  V30 5054 C 476.203 -3.36979 -0.655751 0
M  V30 5055 C 475.289 -4.23712 0.181481 0
M  V30 5056 N 475.68 -4.90225 1.24551 0
M  V30 5057 C 473.978 -4.45985 -0.0365493 0
M  V30 5058 C 474.679 -5.54537 1.75682 0
M  V30 5059 N 473.655 -5.33107 1.06294 0
M  V30 5060 H 477.457 -2.76101 1.00724 0
M  V30 5061 H 474.971 -1.48823 0.650029 0
M  V30 5062 H 476.968 -4.01774 -1.11279 0
M  V30 5063 H 475.628 -2.89611 -1.46819 0
M  V30 5064 H 476.639 -4.91641 1.62818 0
M  V30 5065 H 473.316 -4.09409 -0.817964 0
M  V30 5066 H 474.706 -6.17597 2.64621 0
M  V30 5067 N 477.426 -0.562348 -1.47226 0
M  V30 5068 C 478.374 0.195476 -2.31777 0
M  V30 5069 C 479.368 0.90433 -1.43242 0
M  V30 5070 O 480.574 0.825031 -1.59979 0
M  V30 5071 H 476.949 0.0819095 -0.747526 0
M  V30 5072 H 478.92 -0.536753 -2.93533 0
M  V30 5073 C 477.669 1.20902 -3.26003 0
M  V30 5074 H 476.992 0.672997 -3.94095 0
M  V30 5075 H 478.432 1.71006 -3.87986 0
M  V30 5076 C 476.891 2.25955 -2.49891 0
M  V30 5077 O 477.421 3.32969 -2.2471 0
M  V30 5078 N 475.627 2.00019 -2.1081 0
M  V30 5079 H 475.174 1.13006 -2.31489 0
M  V30 5080 H 475.132 2.70523 -1.60201 0
M  V30 5081 N 478.904 1.54736 -0.299062 0
M  V30 5082 C 480.32 1.59507 0.0543849 0
M  V30 5083 C 480.52 1.31606 1.52585 0
M  V30 5084 O 479.576 1.08853 2.27832 0
M  V30 5085 C 480.889 2.98751 -0.34181 0
M  V30 5086 C 482.437 3.1165 -0.290414 0
M  V30 5087 C 482.912 4.53199 -0.661402 0
M  V30 5088 N 484.403 4.59114 -0.613863 0
M  V30 5089 C 485.138 5.66709 -0.873417 0
M  V30 5090 N 484.634 6.82349 -1.19884 0
M  V30 5091 N 486.427 5.56369 -0.800608 0
M  V30 5092 H 478.578 1.71133 -1.25806 0
M  V30 5093 H 480.841 0.799186 -0.509908 0
M  V30 5094 H 480.547 3.24085 -1.36608 0
M  V30 5095 H 480.421 3.75961 0.305508 0
M  V30 5096 H 482.808 2.86066 0.724605 0
M  V30 5097 H 482.889 2.366 -0.972327 0
M  V30 5098 H 482.533 4.79513 -1.67422 0
M  V30 5099 H 482.463 5.26583 0.0425612 0
M  V30 5100 H 484.954 3.76053 -0.3732 0
M  V30 5101 H 485.267 7.60326 -1.38291 0
M  V30 5102 H 483.612 6.83906 -1.23685 0
M  V30 5103 H 486.803 4.64904 -0.546045 0
M  V30 5104 H 486.976 6.40139 -1.00626 0
M  V30 5105 N 480.382 0.0267497 1.57577 0
M  V30 5106 C 481.312 -0.954308 2.13108 0
M  V30 5107 C 482.293 -1.34088 1.04663 0
M  V30 5108 O 483.478 -1.41992 1.32484 0
M  V30 5109 C 480.608 -2.23744 2.65624 0
M  V30 5110 C 479.562 -1.99168 3.78835 0
M  V30 5111 C 478.888 -3.33726 4.17769 0
M  V30 5112 C 480.188 -1.33277 5.0501 0
M  V30 5113 H 481.882 -0.491848 2.95332 0
M  V30 5114 H 479.428 -0.23514 1.42067 0
M  V30 5115 H 481.381 -2.92754 3.03106 0
M  V30 5116 H 480.105 -2.72151 1.80558 0
M  V30 5117 H 478.764 -1.32577 3.41788 0
M  V30 5118 H 478.412 -3.79888 3.29688 0
M  V30 5119 H 478.112 -3.18089 4.94058 0
M  V30 5120 H 479.636 -4.04008 4.57832 0
M  V30 5121 H 481.05 -1.92283 5.40093 0
M  V30 5122 H 479.447 -1.28045 5.8628 0
M  V30 5123 H 480.517 -0.305411 4.83937 0
M  V30 5124 N 481.861 -1.55662 -0.24637 0
M  V30 5125 C 483.086 -1.81914 -0.996093 0
M  V30 5126 C 483.511 -0.603875 -1.78143 0
M  V30 5127 O 482.869 0.447091 -1.75701 0
M  V30 5128 C 482.917 -3.05908 -1.90925 0
M  V30 5129 O 482.021 -2.82861 -3.00105 0
M  V30 5130 H 481.362 -0.600481 -0.283406 0
M  V30 5131 H 483.892 -2.02848 -0.267199 0
M  V30 5132 H 483.902 -3.35356 -2.3238 0
M  V30 5133 H 482.577 -3.93999 -1.33183 0
M  V30 5134 H 481.154 -2.64583 -2.62775 0
M  V30 5135 N 483.339 0.512053 -1.4905 0
M  V30 5136 C 484.569 1.28928 -1.61434 0
M  V30 5137 C 484.977 1.87107 -0.280647 0
M  V30 5138 O 484.32 1.68024 0.742537 0
M  V30 5139 C 484.382 2.466 -2.61588 0
M  V30 5140 C 484.046 2.09375 -4.06216 0
M  V30 5141 C 485.043 1.63994 -4.93358 0
M  V30 5142 C 482.728 2.19348 -4.51876 0
M  V30 5143 C 484.722 1.29076 -6.24194 0
M  V30 5144 C 482.409 1.84041 -5.82728 0
M  V30 5145 C 483.407 1.38978 -6.68711 0
M  V30 5146 O 483.095 1.04144 -7.97126 0
M  V30 5147 H 482.827 0.397668 -0.546659 0
M  V30 5148 H 485.381 0.622507 -1.9574 0
M  V30 5149 H 483.611 3.16318 -2.22441 0
M  V30 5150 H 485.3 3.08642 -2.63619 0
M  V30 5151 H 486.066 1.55744 -4.59313 0
M  V30 5152 H 481.945 2.53376 -3.85125 0
M  V30 5153 H 485.489 0.938303 -6.91261 0
M  V30 5154 H 481.386 1.91938 -6.16304 0
M  V30 5155 H 482.154 1.17387 -8.10039 0
M  V30 5156 N 484.817 1.37938 0.762283 0
M  V30 5157 C 486.094 1.24196 1.51112 0
M  V30 5158 C 486.474 -0.160409 2.1049 0
M  V30 5159 O 485.822 -1.16904 1.96331 0
M  V30 5160 C 486.032 2.34537 2.58445 0
M  V30 5161 C 487.38 2.7254 3.25588 0
M  V30 5162 O 488.404 2.33783 2.68745 0
M  V30 5163 O 487.263 3.39343 4.28379 0
M  V30 5164 H 484.357 0.485175 0.669727 0
M  V30 5165 H 486.903 1.49743 0.798438 0
M  V30 5166 H 485.675 3.28406 2.12756 0
M  V30 5167 H 485.298 2.10505 3.37303 0
M  V30 5168 N 486.295 -0.989507 1.22664 0
M  V30 5169 C 487.543 -1.72612 1.05117 0
M  V30 5170 C 487.864 -1.90552 -0.414131 0
M  V30 5171 O 487.134 -1.4676 -1.29762 0
M  V30 5172 H 485.714 -0.639555 0.385977 0
M  V30 5173 H 488.376 -1.19158 1.54232 0
M  V30 5174 H 487.472 -2.71926 1.53175 0
M  V30 5175 N 487.773 -1.03688 -1.18687 0
M  V30 5176 C 488.721 -0.618292 -2.24232 0
M  V30 5177 C 489.715 0.353045 -1.6568 0
M  V30 5178 O 490.921 0.220749 -1.78641 0
M  V30 5179 H 487.296 -0.181711 -0.729716 0
M  V30 5180 H 489.267 -1.51893 -2.56848 0
M  V30 5181 C 488.016 0.00677342 -3.47699 0
M  V30 5182 H 487.339 -0.731692 -3.93047 0
M  V30 5183 H 488.779 0.262492 -4.23187 0
M  V30 5184 C 487.238 1.25572 -3.12623 0
M  V30 5185 O 487.768 2.34691 -3.26011 0
M  V30 5186 N 485.974 1.14755 -2.66982 0
M  V30 5187 H 485.521 0.259601 -2.56289 0
M  V30 5188 H 485.479 1.98412 -2.43885 0
M  V30 5189 N 489.251 1.34841 -0.815825 0
M  V30 5190 C 490.199 2.31549 -0.220888 0
M  V30 5191 C 491.193 1.5707 0.634457 0
M  V30 5192 O 492.399 1.72125 0.526589 0
M  V30 5193 H 488.774 0.750153 -0.0526782 0
M  V30 5194 H 490.745 2.7926 -1.05149 0
M  V30 5195 C 489.494 3.42335 0.608427 0
M  V30 5196 H 488.817 3.9978 -0.0404121 0
M  V30 5197 H 490.257 4.12258 0.990931 0
M  V30 5198 C 488.716 2.86173 1.77782 0
M  V30 5199 O 489.246 2.80474 2.87571 0
M  V30 5200 N 487.452 2.43093 1.59229 0
M  V30 5201 H 486.999 2.47928 0.699237 0
M  V30 5202 H 486.957 2.05866 2.37627 0
M  V30 5203 N 490.729 0.570148 1.46925 0
M  V30 5204 C 491.692 -0.159933 2.28641 0
M  V30 5205 C 492.692 -0.830638 1.37685 0
M  V30 5206 O 493.882 -0.684516 1.60187 0
M  V30 5207 C 491.014 -1.2354 3.17727 0
M  V30 5208 H 492.207 0.558035 2.94662 0
M  V30 5209 H 489.76 0.327603 1.52828 0
M  V30 5210 H 490.495 -1.98535 2.56426 0
M  V30 5211 H 490.28 -0.759125 3.84681 0
M  V30 5212 H 491.77 -1.74782 3.79264 0
M  V30 5213 N 492.207 -1.54576 0.307264 0
M  V30 5214 C 493.17 -2.22423 -0.553224 0
M  V30 5215 C 494.17 -1.21231 -1.05639 0
M  V30 5216 O 495.36 -1.45923 -0.951419 0
M  V30 5217 C 492.492 -2.91552 -1.76664 0
M  V30 5218 H 493.685 -2.99874 0.0396484 0
M  V30 5219 H 491.238 -1.56192 0.0581629 0
M  V30 5220 H 491.973 -2.18196 -2.39918 0
M  V30 5221 H 491.758 -3.65738 -1.41343 0
M  V30 5222 H 493.248 -3.43292 -2.37783 0
M  V30 5223 N 493.685 -0.035106 -1.57561 0
M  V30 5224 C 494.934 0.641604 -1.91223 0
M  V30 5225 C 495.247 1.72944 -0.913761 0
M  V30 5226 O 496.453 2.46321 -1.14185 0
M  V30 5227 C 494.909 1.19249 -3.3957 0
M  V30 5228 C 494.517 0.137616 -4.47789 0
M  V30 5229 C 496.261 1.84537 -3.82291 0
M  V30 5230 C 494.168 0.700478 -5.87237 0
M  V30 5231 H 493.098 0.243417 -0.713627 0
M  V30 5232 H 495.749 -0.101382 -1.8322 0
M  V30 5233 H 494.131 1.98728 -3.42525 0
M  V30 5234 H 495.305 -0.635153 -4.56402 0
M  V30 5235 H 493.62 -0.416855 -4.14308 0
M  V30 5236 H 496.217 2.27616 -4.83834 0
M  V30 5237 H 496.56 2.69054 -3.17672 0
M  V30 5238 H 497.093 1.11739 -3.81784 0
M  V30 5239 H 493.832 -0.106693 -6.55413 0
M  V30 5240 H 493.352 1.4416 -5.82218 0
M  V30 5241 H 495.031 1.18837 -6.35993 0
M  V30 5242 N 495.163 1.55791 0.238111 0
M  V30 5243 C 496.579 1.48411 0.587045 0
M  V30 5244 C 496.779 0.72702 1.87927 0
M  V30 5245 O 495.835 0.259942 2.51158 0
M  V30 5246 C 497.148 2.92873 0.681623 0
M  V30 5247 C 498.696 3.03295 0.773363 0
M  V30 5248 C 499.171 4.49082 0.899428 0
M  V30 5249 N 500.662 4.53056 0.964075 0
M  V30 5250 C 501.397 5.63117 1.08104 0
M  V30 5251 N 500.893 6.82969 1.16299 0
M  V30 5252 N 502.686 5.50933 1.11488 0
M  V30 5253 H 494.837 2.0345 -0.610076 0
M  V30 5254 H 497.1 0.924034 -0.211813 0
M  V30 5255 H 496.806 3.51142 -0.19802 0
M  V30 5256 H 496.68 3.43851 1.55069 0
M  V30 5257 H 499.067 2.45101 1.64346 0
M  V30 5258 H 499.148 2.55513 -0.121034 0
M  V30 5259 H 498.792 5.07889 0.0338586 0
M  V30 5260 H 498.722 4.94553 1.809 0
M  V30 5261 H 501.213 3.66737 0.91173 0
M  V30 5262 H 501.526 7.62598 1.25155 0
M  V30 5263 H 499.871 6.85712 1.13241 0
M  V30 5264 H 503.062 4.56231 1.0474 0
M  V30 5265 H 503.235 6.36743 1.20259 0
M  V30 5266 N 496.642 -0.504142 1.49319 0
M  V30 5267 C 497.867 -1.28729 1.62615 0
M  V30 5268 C 498.292 -1.85752 0.296309 0
M  V30 5269 O 497.65 -1.65704 -0.735649 0
M  V30 5270 C 497.698 -2.39561 2.69524 0
M  V30 5271 O 496.802 -3.43324 2.28478 0
M  V30 5272 H 496.143 -0.380172 0.544395 0
M  V30 5273 H 498.673 -0.603872 1.95485 0
M  V30 5274 H 498.683 -2.8537 2.91595 0
M  V30 5275 H 497.358 -1.97423 3.66056 0
M  V30 5276 H 495.935 -3.03455 2.16725 0
M  V30 5277 N 498.12 -1.38341 -0.754957 0
M  V30 5278 C 499.345 -1.37882 -1.5493 0
M  V30 5279 C 499.77 0.0296385 -1.88077 0
M  V30 5280 O 499.128 1.01133 -1.50472 0
M  V30 5281 C 499.176 -2.23996 -2.82592 0
M  V30 5282 O 498.28 -1.65612 -3.77686 0
M  V30 5283 H 497.621 -0.470384 -0.468652 0
M  V30 5284 H 500.151 -1.82084 -0.933082 0
M  V30 5285 H 500.161 -2.37806 -3.3153 0
M  V30 5286 H 498.836 -3.26365 -2.57796 0
M  V30 5287 H 497.413 -1.60936 -3.36384 0
M  V30 5288 N 499.598 0.982988 -1.23187 0
M  V30 5289 C 500.844 1.72648 -1.06398 0
M  V30 5290 C 501.177 1.90066 0.398561 0
M  V30 5291 O 500.452 1.45105 1.29518 0
M  V30 5292 C 500.735 3.12627 -1.78707 0
M  V30 5293 C 500.588 3.02795 -3.32618 0
M  V30 5294 C 501.907 4.11997 -1.54747 0
M  V30 5295 H 499.026 0.626649 -0.387918 0
M  V30 5296 H 501.668 1.14455 -1.51658 0
M  V30 5297 H 499.818 3.62308 -1.40234 0
M  V30 5298 H 501.49 2.60659 -3.80598 0
M  V30 5299 H 499.733 2.39362 -3.61785 0
M  V30 5300 H 500.404 4.01893 -3.78399 0
M  V30 5301 H 502.88 3.71114 -1.88186 0
M  V30 5302 H 501.756 5.08037 -2.07821 0
M  V30 5303 H 502.017 4.39462 -0.482249 0
M  V30 5304 N 501.076 1.04316 1.18135 0
M  V30 5305 C 502.026 0.606731 2.19779 0
M  V30 5306 C 503.01 -0.352144 1.56999 0
M  V30 5307 O 504.202 -0.170795 1.76174 0
M  V30 5308 C 501.331 -0.0262443 3.4329 0
M  V30 5309 C 500.417 0.955928 4.13186 0
M  V30 5310 N 500.808 2.12395 4.59045 0
M  V30 5311 C 499.106 0.782473 4.39082 0
M  V30 5312 C 499.807 2.74458 5.12882 0
M  V30 5313 N 498.783 2.02316 5.04548 0
M  V30 5314 H 502.585 1.49679 2.5293 0
M  V30 5315 H 500.099 0.912088 1.34368 0
M  V30 5316 H 502.096 -0.356617 4.15372 0
M  V30 5317 H 500.756 -0.911811 3.11635 0
M  V30 5318 H 501.767 2.50272 4.53414 0
M  V30 5319 H 498.444 -0.0527906 4.17467 0
M  V30 5320 H 499.834 3.73459 5.5855 0
M  V30 5321 N 502.554 -1.34406 0.822964 0
M  V30 5322 C 503.784 -2.02214 0.423424 0
M  V30 5323 C 504.192 -1.62124 -0.975322 0
M  V30 5324 O 503.535 -0.822452 -1.6426 0
M  V30 5325 C 503.597 -3.56721 0.446107 0
M  V30 5326 C 503.261 -4.20136 1.79819 0
M  V30 5327 C 504.258 -4.4065 2.75904 0
M  V30 5328 C 501.943 -4.56906 2.08669 0
M  V30 5329 C 503.937 -4.9706 3.99012 0
M  V30 5330 C 501.624 -5.13026 3.32036 0
M  V30 5331 C 502.622 -5.33047 4.27024 0
M  V30 5332 O 502.31 -5.87979 5.48211 0
M  V30 5333 H 502.042 -0.654748 0.168169 0
M  V30 5334 H 504.596 -1.72659 1.11257 0
M  V30 5335 H 502.826 -3.85537 -0.299734 0
M  V30 5336 H 504.515 -4.05845 0.0666114 0
M  V30 5337 H 505.281 -4.12607 2.54912 0
M  V30 5338 H 501.16 -4.40626 1.35535 0
M  V30 5339 H 504.704 -5.12603 4.73164 0
M  V30 5340 H 500.601 -5.40498 3.52891 0
M  V30 5341 H 501.369 -6.06413 5.49732 0
M  V30 5342 N 504.032 -0.577932 -1.46621 0
M  V30 5343 C 505.257 -0.0652536 -2.07297 0
M  V30 5344 C 505.682 1.22828 -1.4246 0
M  V30 5345 O 505.04 1.74075 -0.506718 0
M  V30 5346 C 505.088 0.0920589 -3.60482 0
M  V30 5347 O 504.192 1.14972 -3.96049 0
M  V30 5348 H 503.533 -0.06065 -0.661224 0
M  V30 5349 H 506.063 -0.799515 -1.88332 0
M  V30 5350 H 506.073 0.299741 -4.06897 0
M  V30 5351 H 504.748 -0.852612 -4.07067 0
M  V30 5352 H 503.325 0.920879 -3.61351 0
M  V30 5353 N 505.51 1.54411 -0.315457 0
M  V30 5354 C 506.442 2.21527 0.588067 0
M  V30 5355 C 507.455 1.21263 1.08624 0
M  V30 5356 O 508.644 1.47777 1.00121 0
M  V30 5357 C 505.744 2.85963 1.81875 0
M  V30 5358 C 504.917 4.12291 1.46063 0
M  V30 5359 C 503.976 4.60396 2.54799 0
M  V30 5360 O 503.002 5.25265 2.19283 0
M  V30 5361 N 504.204 4.33935 3.85591 0
M  V30 5362 H 506.969 2.99697 0.013414 0
M  V30 5363 H 504.53 1.61308 -0.138295 0
M  V30 5364 H 506.522 3.15071 2.53993 0
M  V30 5365 H 505.092 2.11548 2.30144 0
M  V30 5366 H 504.312 3.90036 0.571445 0
M  V30 5367 H 505.6 4.9452 1.19695 0
M  V30 5368 H 504.998 3.81996 4.17248 0
M  V30 5369 H 503.555 4.67718 4.53964 0
M  V30 5370 N 506.988 0.0434614 1.5754 0
M  V30 5371 C 508.236 -0.630786 1.92004 0
M  V30 5372 C 508.557 -1.71836 0.921807 0
M  V30 5373 O 507.827 -1.9587 -0.034522 0
M  V30 5374 H 506.407 -0.235988 0.708745 0
M  V30 5375 H 509.069 0.0946462 1.9467 0
M  V30 5376 H 508.165 -1.07434 2.93026 0
M  V30 5377 N 508.466 -1.55915 -0.229846 0
M  V30 5378 C 509.696 -1.82352 -0.971152 0
M  V30 5379 C 510.104 -0.619231 -1.7878 0
M  V30 5380 O 509.447 0.421597 -1.78797 0
M  V30 5381 C 509.509 -3.02399 -1.9441 0
M  V30 5382 C 509.173 -4.37739 -1.31277 0
M  V30 5383 C 510.17 -5.15074 -0.706757 0
M  V30 5384 C 507.855 -4.84454 -1.32702 0
M  V30 5385 C 509.849 -6.37281 -0.123413 0
M  V30 5386 C 507.536 -6.06605 -0.739831 0
M  V30 5387 C 508.534 -6.82858 -0.139071 0
M  V30 5388 O 508.222 -8.027 0.439007 0
M  V30 5389 H 507.954 -0.61035 -0.290601 0
M  V30 5390 H 510.508 -2.03839 -0.252746 0
M  V30 5391 H 508.738 -2.76709 -2.70128 0
M  V30 5392 H 510.427 -3.15779 -2.55026 0
M  V30 5393 H 511.193 -4.80093 -0.688131 0
M  V30 5394 H 507.072 -4.25081 -1.78402 0
M  V30 5395 H 510.616 -6.96741 0.346124 0
M  V30 5396 H 506.513 -6.4106 -0.755841 0
M  V30 5397 H 507.281 -8.17824 0.332521 0
M  V30 5398 N 509.944 0.496216 -1.49584 0
M  V30 5399 C 510.892 1.61805 -1.67098 0
M  V30 5400 C 511.886 1.60667 -0.536877 0
M  V30 5401 O 513.092 1.65118 -0.716654 0
M  V30 5402 H 509.467 0.53646 -0.526986 0
M  V30 5403 H 511.438 1.44187 -2.61252 0
M  V30 5404 C 510.187 2.99912 -1.75921 0
M  V30 5405 H 509.51 3.01496 -2.62565 0
M  V30 5406 H 510.95 3.77931 -1.92209 0
M  V30 5407 C 509.409 3.33092 -0.505088 0
M  V30 5408 O 509.939 4.00019 0.367085 0
M  V30 5409 N 508.145 2.88278 -0.366599 0
M  V30 5410 H 507.692 2.33989 -1.07735 0
M  V30 5411 H 507.65 3.10846 0.47142 0
M  V30 5412 N 511.423 1.38739 0.74761 0
M  V30 5413 C 512.371 1.36573 1.88283 0
M  V30 5414 C 513.365 0.250712 1.67534 0
M  V30 5415 O 514.571 0.420073 1.7503 0
M  V30 5416 H 510.946 0.42619 0.619569 0
M  V30 5417 H 512.917 2.32356 1.87226 0
M  V30 5418 C 511.666 1.21361 3.25832 0
M  V30 5419 H 510.989 2.06424 3.42388 0
M  V30 5420 H 512.429 1.23901 4.05493 0
M  V30 5421 C 510.888 -0.0790099 3.36807 0
M  V30 5422 O 511.418 -1.05385 3.8763 0
M  V30 5423 N 509.624 -0.13785 2.90273 0
M  V30 5424 H 509.171 0.656128 2.49104 0
M  V30 5425 H 509.129 -1.00228 2.97996 0
M  V30 5426 N 512.901 -0.976442 1.23707 0
M  V30 5427 C 513.864 -2.0511 1.02287 0
M  V30 5428 C 514.864 -1.60791 -0.0167195 0
M  V30 5429 O 516.054 -1.72761 0.223408 0
M  V30 5430 C 513.186 -3.36458 0.548507 0
M  V30 5431 H 514.379 -2.25545 1.9766 0
M  V30 5432 H 511.932 -1.15042 1.05806 0
M  V30 5433 H 512.667 -3.21713 -0.408818 0
M  V30 5434 H 512.452 -3.69967 1.29874 0
M  V30 5435 H 513.942 -4.15489 0.419406 0
M  V30 5436 N 514.379 -1.04941 -1.1758 0
M  V30 5437 C 515.626 -0.757989 -1.87779 0
M  V30 5438 C 515.954 0.714827 -1.80888 0
M  V30 5439 O 515.209 1.53824 -1.20982 0
M  V30 5440 C 515.508 -1.18062 -3.37337 0
M  V30 5441 C 515.174 -2.65521 -3.6443 0
M  V30 5442 C 513.836 -3.05804 -3.71534 0
M  V30 5443 C 516.188 -3.60822 -3.76108 0
M  V30 5444 C 513.516 -4.40256 -3.87803 0
M  V30 5445 C 515.868 -4.95005 -3.93895 0
M  V30 5446 C 514.532 -5.34945 -3.99237 0
M  V30 5447 H 513.802 -0.277368 -0.68713 0
M  V30 5448 H 516.449 -1.31603 -1.39115 0
M  V30 5449 H 514.754 -0.541525 -3.8804 0
M  V30 5450 H 516.451 -0.932368 -3.9001 0
M  V30 5451 H 513.041 -2.33324 -3.59524 0
M  V30 5452 H 517.225 -3.30841 -3.69943 0
M  V30 5453 H 512.481 -4.70707 -3.90186 0
M  V30 5454 H 516.655 -5.68746 -4.01872 0
M  V30 5455 H 514.282 -6.39135 -4.11596 0
M  V30 5456 N 515.857 1.33968 -0.830081 0
M  V30 5457 C 517.103 1.98773 -0.431394 0
M  V30 5458 C 517.458 1.64598 0.99626 0
M  V30 5459 O 516.751 0.911022 1.68555 0
M  V30 5460 C 516.945 3.52679 -0.57898 0
M  V30 5461 C 516.774 4.01807 -2.01943 0
M  V30 5462 C 515.544 4.30062 -2.65282 0
M  V30 5463 C 517.742 4.18663 -2.98707 0
M  V30 5464 N 515.724 4.65272 -4.00493 0
M  V30 5465 C 517.095 4.57133 -4.18843 0
M  V30 5466 C 519.15 4.00929 -2.95229 0
M  V30 5467 C 517.853 4.79723 -5.35965 0
M  V30 5468 C 519.879 4.2469 -4.11573 0
M  V30 5469 C 519.241 4.63454 -5.30462 0
M  V30 5470 H 515.34 0.75435 -0.206107 0
M  V30 5471 H 517.924 1.62247 -1.07629 0
M  V30 5472 H 516.095 3.88383 0.0360632 0
M  V30 5473 H 517.827 4.04412 -0.152596 0
M  V30 5474 H 514.582 4.21231 -2.16475 0
M  V30 5475 H 515.006 4.87101 -4.70172 0
M  V30 5476 H 519.648 3.70082 -2.04448 0
M  V30 5477 H 517.366 5.09434 -6.27297 0
M  V30 5478 H 520.952 4.12497 -4.10289 0
M  V30 5479 H 519.832 4.81476 -6.18992 0
M  V30 5480 N 517.335 0.585699 1.46312 0
M  V30 5481 C 518.283 -0.158577 2.32059 0
M  V30 5482 C 519.277 -0.881427 1.44662 0
M  V30 5483 O 520.483 -0.799476 1.61271 0
M  V30 5484 H 516.858 -0.0700066 0.748734 0
M  V30 5485 H 518.829 0.583383 2.92642 0
M  V30 5486 C 517.578 -1.15701 3.27885 0
M  V30 5487 H 516.901 -0.610215 3.95116 0
M  V30 5488 H 518.341 -1.64812 3.90657 0
M  V30 5489 C 516.8 -2.21951 2.53455 0
M  V30 5490 O 517.33 -3.29352 2.29978 0
M  V30 5491 N 515.536 -1.9664 2.13965 0
M  V30 5492 H 515.083 -1.09309 2.33258 0
M  V30 5493 H 515.041 -2.6794 1.64485 0
M  V30 5494 N 518.813 -1.54241 0.323641 0
M  V30 5495 C 520.061 -2.00174 -0.278359 0
M  V30 5496 C 520.382 -1.2134 -1.52648 0
M  V30 5497 O 519.652 -0.315244 -1.93347 0
M  V30 5498 H 518.232 -0.739463 -0.105845 0
M  V30 5499 H 520.894 -1.89864 0.440204 0
M  V30 5500 H 519.99 -3.07486 -0.5347 0
M  V30 5501 N 520.291 -0.0518155 -1.57515 0
M  V30 5502 C 521.516 0.634896 -1.97443 0
M  V30 5503 C 521.941 1.63546 -0.929207 0
M  V30 5504 O 521.299 1.80981 0.107484 0
M  V30 5505 C 521.347 1.29765 -3.36442 0
M  V30 5506 O 520.451 2.41333 -3.34413 0
M  V30 5507 H 519.792 0.164994 -0.643174 0
M  V30 5508 H 522.322 -0.120407 -2.04245 0
M  V30 5509 H 522.332 1.64918 -3.73184 0
M  V30 5510 H 521.007 0.564361 -4.12053 0
M  V30 5511 H 519.584 2.08122 -3.09418 0
M  V30 5512 N 521.769 1.56035 0.221574 0
M  V30 5513 C 522.701 1.889 1.29805 0
M  V30 5514 C 523.714 0.777269 1.43047 0
M  V30 5515 O 524.903 1.05557 1.43945 0
M  V30 5516 C 522.003 2.0825 2.67367 0
M  V30 5517 C 521.176 3.39267 2.76073 0
M  V30 5518 C 520.235 3.48049 3.94649 0
M  V30 5519 O 519.261 4.2108 3.82988 0
M  V30 5520 N 520.463 2.79191 5.08953 0
M  V30 5521 H 523.228 2.81831 1.01938 0
M  V30 5522 H 520.789 1.5658 0.411612 0
M  V30 5523 H 522.781 2.11441 3.45072 0
M  V30 5524 H 521.351 1.21944 2.87834 0
M  V30 5525 H 520.571 3.48175 1.84846 0
M  V30 5526 H 521.859 4.25575 2.7886 0
M  V30 5527 H 521.257 2.19635 5.21322 0
M  V30 5528 H 519.814 2.88043 5.84701 0
M  V30 5529 N 523.247 -0.488276 1.49845 0
M  V30 5530 C 524.18 -1.60651 1.62069 0
M  V30 5531 C 525.158 -1.5568 0.469308 0
M  V30 5532 O 526.342 -1.75553 0.686551 0
M  V30 5533 C 523.469 -2.99197 1.58741 0
M  V30 5534 C 522.515 -3.22385 2.79232 0
M  V30 5535 S 523.348 -3.04133 4.40753 0
M  V30 5536 C 524.504 -4.45052 4.4009 0
M  V30 5537 H 524.737 -1.50039 2.56662 0
M  V30 5538 H 522.27 -0.674371 1.38894 0
M  V30 5539 H 524.228 -3.79081 1.57506 0
M  V30 5540 H 522.889 -3.07213 0.654136 0
M  V30 5541 H 522.082 -4.23557 2.73159 0
M  V30 5542 H 521.684 -2.50245 2.77945 0
M  V30 5543 H 523.976 -5.37375 4.12594 0
M  V30 5544 H 524.919 -4.56172 5.41583 0
M  V30 5545 H 525.327 -4.26327 3.70008 0
M  V30 5546 N 524.725 -1.39134 -0.740242 0
M  V30 5547 C 525.971 -1.36273 -1.50192 0
M  V30 5548 C 526.304 0.0430136 -1.94152 0
M  V30 5549 O 525.579 1.00691 -1.66408 0
M  V30 5550 C 525.862 -2.33041 -2.74525 0
M  V30 5551 C 525.715 -3.82535 -2.36617 0
M  V30 5552 C 527.034 -2.27723 -3.76604 0
M  V30 5553 H 524.153 -0.496323 -0.544823 0
M  V30 5554 H 526.795 -1.70085 -0.846815 0
M  V30 5555 H 524.945 -2.04337 -3.30422 0
M  V30 5556 H 526.617 -4.21967 -1.86391 0
M  V30 5557 H 524.86 -3.99565 -1.68909 0
M  V30 5558 H 525.531 -4.45723 -3.2563 0
M  V30 5559 H 528.007 -2.53091 -3.30279 0
M  V30 5560 H 526.883 -2.97519 -4.61274 0
M  V30 5561 H 527.144 -1.28049 -4.2315 0
M  V30 5562 N 526.204 0.969867 -1.24223 0
M  V30 5563 C 527.434 1.74502 -1.106 0
M  V30 5564 C 527.842 1.86038 0.344483 0
M  V30 5565 O 527.185 1.3465 1.24961 0
M  V30 5566 C 527.247 3.18391 -1.66935 0
M  V30 5567 C 526.911 3.30334 -3.15798 0
M  V30 5568 C 527.908 3.15832 -4.12973 0
M  V30 5569 C 525.593 3.54644 -3.55715 0
M  V30 5570 C 527.587 3.25461 -5.48045 0
M  V30 5571 C 525.274 3.63912 -4.90929 0
M  V30 5572 C 526.272 3.49332 -5.86904 0
M  V30 5573 O 525.96 3.58251 -7.1966 0
M  V30 5574 H 525.692 0.554119 -0.387206 0
M  V30 5575 H 528.246 1.22646 -1.64764 0
M  V30 5576 H 526.476 3.71543 -1.07203 0
M  V30 5577 H 528.165 3.77707 -1.48634 0
M  V30 5578 H 528.931 2.96937 -3.83476 0
M  V30 5579 H 524.81 3.65059 -2.81519 0
M  V30 5580 H 528.354 3.13998 -6.22937 0
M  V30 5581 H 524.251 3.82319 -5.20098 0
M  V30 5582 H 525.019 3.7498 -7.27552 0
M  V30 5583 N 527.682 1.05563 1.17022 0
M  V30 5584 C 528.93 0.76642 1.87004 0
M  V30 5585 C 529.251 -0.708854 1.8166 0
M  V30 5586 O 528.521 -1.51242 1.2451 0
M  V30 5587 H 527.101 0.280516 0.692329 0
M  V30 5588 H 529.763 1.33557 1.41945 0
M  V30 5589 H 528.859 1.08472 2.92644 0
M  V30 5590 N 529.16 -1.33526 0.837174 0
M  V30 5591 C 530.437 -1.92369 0.354065 0
M  V30 5592 C 530.817 -1.76348 -1.16038 0
M  V30 5593 O 530.165 -1.15083 -1.97403 0
M  V30 5594 C 530.375 -3.39728 0.799101 0
M  V30 5595 C 531.723 -4.16877 0.806139 0
M  V30 5596 O 532.747 -3.48373 0.742597 0
M  V30 5597 O 531.606 -5.39166 0.892345 0
M  V30 5598 H 528.7 -0.820952 0.0998378 0
M  V30 5599 H 531.246 -1.42409 0.922913 0
M  V30 5600 H 530.018 -3.45254 1.84162 0
M  V30 5601 H 529.641 -3.97062 0.206731 0
M  V30 5602 N 530.638 -0.59345 -1.46 0
M  V30 5603 C 531.886 -0.082988 -2.0193 0
M  V30 5604 C 532.207 1.28569 -1.46612 0
M  V30 5605 O 531.477 1.84629 -0.654909 0
M  V30 5606 H 530.057 -0.0276882 -0.746487 0
M  V30 5607 H 532.719 -0.771657 -1.78973 0
M  V30 5608 H 531.815 -0.022079 -3.12092 0
M  V30 5609 N 532.116 1.54067 -0.331816 0
M  V30 5610 C 533.393 1.92915 0.322955 0
M  V30 5611 C 533.773 1.26225 1.69205 0
M  V30 5612 O 533.121 0.408919 2.24811 0
M  V30 5613 C 533.331 3.46619 0.406946 0
M  V30 5614 C 534.679 4.19386 0.663339 0
M  V30 5615 O 535.703 3.5282 0.489536 0
M  V30 5616 O 534.562 5.37288 0.999193 0
M  V30 5617 H 531.656 0.805808 0.186016 0
M  V30 5618 H 534.202 1.65342 -0.382135 0
M  V30 5619 H 532.974 3.87354 -0.554287 0
M  V30 5620 H 532.597 3.80324 1.15929 0
M  V30 5621 N 533.594 0.0601682 1.57485 0
M  V30 5622 C 534.842 -0.610386 1.92662 0
M  V30 5623 C 535.163 -1.70849 0.939981 0
M  V30 5624 O 534.433 -1.95895 -0.0137455 0
M  V30 5625 H 533.013 -0.228457 0.711208 0
M  V30 5626 H 535.675 0.115288 1.94559 0
M  V30 5627 H 534.771 -1.0432 2.94149 0
M  V30 5628 N 535.072 -1.5615 -0.213296 0
M  V30 5629 C 536.004 -1.89586 -1.28802 0
M  V30 5630 C 537.017 -0.784844 -1.42633 0
M  V30 5631 O 538.206 -1.06319 -1.43383 0
M  V30 5632 C 535.306 -2.09665 -2.66259 0
M  V30 5633 C 534.479 -3.40726 -2.7427 0
M  V30 5634 C 533.538 -3.50137 -3.92798 0
M  V30 5635 O 532.564 -4.23105 -3.8075 0
M  V30 5636 N 533.766 -2.81886 -5.07465 0
M  V30 5637 H 536.531 -2.82368 -1.00442 0
M  V30 5638 H 534.092 -1.56796 -0.403302 0
M  V30 5639 H 536.084 -2.13268 -3.43946 0
M  V30 5640 H 534.654 -1.23469 -2.87183 0
M  V30 5641 H 533.874 -3.4915 -1.82997 0
M  V30 5642 H 535.162 -4.27048 -2.76599 0
M  V30 5643 H 534.56 -2.22397 -5.2015 0
M  V30 5644 H 533.117 -2.91139 -5.83165 0
M  V30 5645 N 536.55 0.480323 -1.50102 0
M  V30 5646 C 537.778 1.25657 -1.64371 0
M  V30 5647 C 538.193 1.86011 -0.323316 0
M  V30 5648 O 537.55 1.68803 0.693682 0
M  V30 5649 C 537.601 2.37197 -2.728 0
M  V30 5650 O 537.322 1.7932 -3.9972 0
M  V30 5651 C 538.823 3.2823 -2.9796 0
M  V30 5652 H 536.043 0.380369 -0.552775 0
M  V30 5653 H 538.587 0.574379 -1.96268 0
M  V30 5654 H 536.742 3.01208 -2.43623 0
M  V30 5655 H 537.156 2.52701 -4.59611 0
M  V30 5656 H 538.63 4.02725 -3.77513 0
M  V30 5657 H 539.107 3.86462 -2.08671 0
M  V30 5658 H 539.713 2.69964 -3.28633 0
M  V30 5659 N 538.028 1.39524 0.732853 0
M  V30 5660 C 539.275 1.36865 1.49246 0
M  V30 5661 C 539.603 -0.0347118 1.94469 0
M  V30 5662 O 538.858 -1.01596 1.67262 0
M  V30 5663 C 539.157 2.28916 2.74468 0
M  V30 5664 C 538.823 3.76506 2.481 0
M  V30 5665 C 537.485 4.16721 2.40619 0
M  V30 5666 C 539.837 4.69846 2.25598 0
M  V30 5667 C 537.165 5.48334 2.08679 0
M  V30 5668 C 539.517 6.01739 1.95174 0
M  V30 5669 C 538.181 6.41015 1.86163 0
M  V30 5670 H 537.451 0.500824 0.546129 0
M  V30 5671 H 540.098 1.72047 0.840958 0
M  V30 5672 H 538.403 1.86859 3.4437 0
M  V30 5673 H 540.1 2.2415 3.32502 0
M  V30 5674 H 536.69 3.44635 2.54803 0
M  V30 5675 H 540.874 4.39608 2.30344 0
M  V30 5676 H 536.13 5.77685 2.00226 0
M  V30 5677 H 540.304 6.73591 1.76771 0
M  V30 5678 H 537.931 7.42917 1.61179 0
M  V30 5679 N 539.506 -0.963266 1.24736 0
M  V30 5680 C 540.755 -1.70115 1.08369 0
M  V30 5681 C 541.068 -1.91939 -0.376688 0
M  V30 5682 O 542.274 -2.6334 -0.660624 0
M  V30 5683 C 540.73 -3.06218 1.89099 0
M  V30 5684 C 540.338 -2.92221 3.39574 0
M  V30 5685 C 542.082 -3.83848 1.81275 0
M  V30 5686 C 539.989 -4.23662 4.12631 0
M  V30 5687 H 538.919 -0.637944 0.401924 0
M  V30 5688 H 541.57 -1.07304 1.48856 0
M  V30 5689 H 539.952 -3.69884 1.41429 0
M  V30 5690 H 541.126 -2.37541 3.94856 0
M  V30 5691 H 539.441 -2.28054 3.48397 0
M  V30 5692 H 542.038 -4.81188 2.33158 0
M  V30 5693 H 542.381 -4.08949 0.778895 0
M  V30 5694 H 542.914 -3.26918 2.26649 0
M  V30 5695 H 539.653 -4.03753 5.16395 0
M  V30 5696 H 539.173 -4.78141 3.62135 0
M  V30 5697 H 540.852 -4.92256 4.19873 0
M  V30 5698 N 540.985 -1.06182 -1.16461 0
M  V30 5699 C 542.396 -0.802426 -1.68576 0
M  V30 5700 C 542.747 0.67412 -1.84255 0
M  V30 5701 O 541.872 1.52303 -1.5373 0
M  V30 5702 C 542.467 -1.45002 -3.06202 0
M  V30 5703 C 541.026 -1.23843 -3.55443 0
M  V30 5704 C 540.173 -1.52724 -2.31454 0
M  V30 5705 H 543.124 -1.22545 -1.00839 0
M  V30 5706 H 543.145 -0.864731 -3.70544 0
M  V30 5707 H 542.657 -2.52466 -2.94759 0
M  V30 5708 H 540.758 -0.183487 -3.72148 0
M  V30 5709 H 540.871 -1.95036 -4.37604 0
M  V30 5710 H 539.235 -0.947726 -2.36411 0
M  V30 5711 H 540.018 -2.61343 -2.22609 0
M  V30 5712 N 542.463 1.3308 -0.844243 0
M  V30 5713 C 543.393 2.3161 -0.296493 0
M  V30 5714 C 544.374 1.59215 0.598707 0
M  V30 5715 O 545.559 1.87077 0.521134 0
M  V30 5716 C 542.689 3.43313 0.524762 0
M  V30 5717 C 541.643 4.27115 -0.275106 0
M  V30 5718 C 540.969 5.30483 0.670236 0
M  V30 5719 C 542.269 5.00443 -1.49514 0
M  V30 5720 H 543.963 2.77672 -1.11976 0
M  V30 5721 H 541.509 1.33496 -0.539899 0
M  V30 5722 H 543.462 4.11273 0.918298 0
M  V30 5723 H 542.186 2.95952 1.3813 0
M  V30 5724 H 540.845 3.60787 -0.650267 0
M  V30 5725 H 540.493 4.79379 1.52332 0
M  V30 5726 H 540.193 5.87435 0.139123 0
M  V30 5727 H 541.717 6.01308 1.06117 0
M  V30 5728 H 543.131 5.61141 -1.17447 0
M  V30 5729 H 541.528 5.67071 -1.96343 0
M  V30 5730 H 542.598 4.28906 -2.26202 0
M  V30 5731 N 543.941 0.601185 1.45683 0
M  V30 5732 C 545.166 0.0982245 2.07167 0
M  V30 5733 C 545.591 -1.20546 1.44396 0
M  V30 5734 O 544.949 -1.73247 0.534347 0
M  V30 5735 C 544.997 -0.0346976 3.60583 0
M  V30 5736 O 544.101 -1.08657 3.97828 0
M  V30 5737 H 543.442 0.0711618 0.660176 0
M  V30 5738 H 545.972 0.829376 1.87036 0
M  V30 5739 H 545.982 -0.234969 4.07323 0
M  V30 5740 H 544.657 0.917265 4.05659 0
M  V30 5741 H 543.234 -0.863275 3.6277 0
M  V30 5742 N 545.419 -1.53889 0.339982 0
M  V30 5743 C 546.667 -2.00458 -0.257112 0
M  V30 5744 C 546.988 -1.22953 -1.51353 0
M  V30 5745 O 546.258 -0.335734 -1.93002 0
M  V30 5746 H 544.838 -0.740544 -0.0979965 0
M  V30 5747 H 547.5 -1.89386 0.460317 0
M  V30 5748 H 546.596 -3.08035 -0.502057 0
M  V30 5749 N 546.897 -0.0685191 -1.57451 0
M  V30 5750 C 548.145 0.60016 -1.92983 0
M  V30 5751 C 548.466 1.70348 -0.949028 0
M  V30 5752 O 547.736 1.959 0.00335647 0
M  V30 5753 H 546.316 0.224682 -0.712409 0
M  V30 5754 H 548.978 -0.125605 -1.94495 0
M  V30 5755 H 548.074 1.02759 -2.94698 0
M  V30 5756 N 548.375 1.56261 0.205012 0
M  V30 5757 C 549.624 1.79236 0.925058 0
M  V30 5758 C 549.937 0.640011 1.84833 0
M  V30 5759 O 551.143 0.753809 2.60826 0
M  V30 5760 C 549.599 3.17475 1.69522 0
M  V30 5761 C 549.207 4.40482 0.817269 0
M  V30 5762 C 550.951 3.49766 2.4055 0
M  V30 5763 C 548.858 5.69744 1.58573 0
M  V30 5764 H 547.788 0.668287 0.349153 0
M  V30 5765 H 550.439 1.82629 0.178544 0
M  V30 5766 H 548.821 3.08304 2.48526 0
M  V30 5767 H 549.995 4.60752 0.0665988 0
M  V30 5768 H 548.31 4.15827 0.218316 0
M  V30 5769 H 550.907 4.43573 2.98575 0
M  V30 5770 H 551.25 2.73041 3.14252 0
M  V30 5771 H 551.783 3.60341 1.68522 0
M  V30 5772 H 548.522 6.49407 0.891679 0
M  V30 5773 H 548.042 5.53509 2.31059 0
M  V30 5774 H 549.721 6.1051 2.14212 0
M  V30 5775 N 549.853 -0.472356 1.50355 0
M  V30 5776 C 551.13 -1.23356 1.51798 0
M  V30 5777 C 551.51 -2.09469 0.26193 0
M  V30 5778 O 550.858 -2.15677 -0.754691 0
M  V30 5779 C 551.068 -2.06568 2.81302 0
M  V30 5780 C 552.416 -2.648 3.31913 0
M  V30 5781 O 553.44 -2.16812 2.82614 0
M  V30 5782 O 552.299 -3.52231 4.17846 0
M  V30 5783 H 549.393 -0.559707 0.608816 0
M  V30 5784 H 551.939 -0.48428 1.62643 0
M  V30 5785 H 550.711 -1.43103 3.64194 0
M  V30 5786 H 550.334 -2.88633 2.73454 0
M  V30 5787 N 551.331 -1.39911 -0.725443 0
M  V30 5788 C 552.577 -1.37858 -1.48738 0
M  V30 5789 C 552.91 0.0224187 -1.94187 0
M  V30 5790 O 552.185 0.989204 -1.67466 0
M  V30 5791 C 552.468 -2.3594 -2.72038 0
M  V30 5792 C 552.321 -3.85023 -2.32546 0
M  V30 5793 C 553.64 -2.31704 -3.74167 0
M  V30 5794 H 550.759 -0.502074 -0.539528 0
M  V30 5795 H 553.401 -1.70974 -0.828728 0
M  V30 5796 H 551.551 -2.0783 -3.28236 0
M  V30 5797 H 553.223 -4.2392 -1.81905 0
M  V30 5798 H 551.466 -4.01334 -1.64661 0
M  V30 5799 H 552.137 -4.49152 -3.20884 0
M  V30 5800 H 554.613 -2.5658 -3.27576 0
M  V30 5801 H 553.489 -3.02395 -4.58092 0
M  V30 5802 H 553.75 -1.3253 -4.21768 0
M  V30 5803 N 552.809 0.956637 -1.25245 0
M  V30 5804 C 554.055 1.70352 -1.10036 0
M  V30 5805 C 554.388 1.90869 0.358156 0
M  V30 5806 O 553.663 1.47819 1.26411 0
M  V30 5807 C 553.946 3.08766 -1.85298 0
M  V30 5808 C 553.799 2.95672 -3.38966 0
M  V30 5809 C 555.118 4.08622 -1.63451 0
M  V30 5810 H 552.237 0.618279 -0.401123 0
M  V30 5811 H 554.879 1.11212 -1.54051 0
M  V30 5812 H 553.029 3.59252 -1.47887 0
M  V30 5813 H 554.701 2.52527 -3.86041 0
M  V30 5814 H 552.944 2.31634 -3.6678 0
M  V30 5815 H 553.615 3.93776 -3.86839 0
M  V30 5816 H 556.091 3.67038 -1.96015 0
M  V30 5817 H 554.967 5.03514 -2.18551 0
M  V30 5818 H 555.228 4.3834 -0.575357 0
M  V30 5819 N 554.287 1.06798 1.15896 0
M  V30 5820 C 555.25 0.687328 2.18651 0
M  V30 5821 C 556.25 -0.269559 1.58524 0
M  V30 5822 O 557.44 -0.0512627 1.74125 0
M  V30 5823 C 554.572 0.0121642 3.40898 0
M  V30 5824 H 555.765 1.59701 2.53842 0
M  V30 5825 H 553.318 0.863828 1.3026 0
M  V30 5826 H 554.053 -0.910025 3.1127 0
M  V30 5827 H 553.838 0.700309 3.85795 0
M  V30 5828 H 555.328 -0.239703 4.16911 0
M  V30 5829 N 555.766 -1.3263 0.851289 0
M  V30 5830 C 556.716 -2.26451 0.265302 0
M  V30 5831 C 557.7 -1.49814 -0.586899 0
M  V30 5832 O 558.892 -1.71525 -0.436834 0
M  V30 5833 C 556.021 -3.38895 -0.548212 0
M  V30 5834 C 555.107 -4.2292 0.316189 0
M  V30 5835 N 555.498 -4.86014 1.40084 0
M  V30 5836 C 553.796 -4.45876 0.105356 0
M  V30 5837 C 554.497 -5.48667 1.93235 0
M  V30 5838 N 553.473 -5.29455 1.232 0
M  V30 5839 H 557.275 -2.72757 1.09457 0
M  V30 5840 H 554.789 -1.4668 0.697047 0
M  V30 5841 H 556.786 -4.05111 -0.984402 0
M  V30 5842 H 555.446 -2.94135 -1.37531 0
M  V30 5843 H 556.457 -4.86212 1.78377 0
M  V30 5844 H 553.134 -4.11804 -0.687299 0
M  V30 5845 H 554.524 -6.08865 2.84135 0
M  V30 5846 N 557.244 -0.608902 -1.45362 0
M  V30 5847 C 558.154 0.110969 -2.34337 0
M  V30 5848 C 559.17 0.859007 -1.51318 0
M  V30 5849 O 560.346 0.816296 -1.84116 0
M  V30 5850 C 557.411 1.09494 -3.28956 0
M  V30 5851 C 556.472 0.348718 -4.27881 0
M  V30 5852 C 555.705 1.28582 -5.17979 0
M  V30 5853 O 555.928 2.52369 -5.11533 0
M  V30 5854 O 554.862 0.782172 -5.96796 0
M  V30 5855 H 558.688 -0.620258 -2.97299 0
M  V30 5856 H 556.273 -0.36916 -1.44767 0
M  V30 5857 H 558.155 1.66163 -3.87257 0
M  V30 5858 H 556.83 1.80717 -2.68557 0
M  V30 5859 H 555.737 -0.260465 -3.73192 0
M  V30 5860 H 557.07 -0.323049 -4.91139 0
M  V30 5861 N 558.722 1.53707 -0.348139 0
M  V30 5862 C 559.652 2.28111 0.498766 0
M  V30 5863 C 560.633 1.29851 1.09876 0
M  V30 5864 O 561.818 1.587 1.11928 0
M  V30 5865 C 558.948 3.05735 1.64753 0
M  V30 5866 C 557.902 4.11537 1.17565 0
M  V30 5867 C 557.228 4.77142 2.4133 0
M  V30 5868 C 558.528 5.21587 0.272844 0
M  V30 5869 H 560.222 2.99152 -0.121934 0
M  V30 5870 H 557.768 1.43875 -0.0600842 0
M  V30 5871 H 559.721 3.56526 2.24649 0
M  V30 5872 H 558.445 2.32354 2.2952 0
M  V30 5873 H 557.104 3.61665 0.599483 0
M  V30 5874 H 556.752 4.0035 3.04514 0
M  V30 5875 H 556.452 5.48626 2.10436 0
M  V30 5876 H 557.976 5.30719 3.01943 0
M  V30 5877 H 559.39 5.67986 0.778779 0
M  V30 5878 H 557.787 6.00074 0.0555849 0
M  V30 5879 H 558.857 4.79969 -0.689785 0
M  V30 5880 N 560.2 0.0768682 1.57412 0
M  V30 5881 C 561.428 -0.59997 1.9801 0
M  V30 5882 C 561.843 -1.62842 0.955408 0
M  V30 5883 O 561.2 -1.8241 -0.057314 0
M  V30 5884 C 561.251 -1.26401 3.38681 0
M  V30 5885 O 560.972 -0.276723 4.37225 0
M  V30 5886 C 562.473 -2.0282 3.94182 0
M  V30 5887 H 559.693 -0.162239 0.651091 0
M  V30 5888 H 562.237 0.150771 2.03943 0
M  V30 5889 H 560.392 -1.96581 3.33819 0
M  V30 5890 H 560.806 -0.753744 5.19056 0
M  V30 5891 H 562.28 -2.44667 4.94815 0
M  V30 5892 H 562.757 -2.88678 3.31001 0
M  V30 5893 H 563.363 -1.37496 4.02461 0
M  V30 5894 N 561.678 -1.56367 -0.196722 0
M  V30 5895 C 562.628 -1.9082 -1.24787 0
M  V30 5896 C 563.612 -0.773719 -1.41076 0
M  V30 5897 O 564.804 -1.03655 -1.43474 0
M  V30 5898 C 561.933 -2.24982 -2.59303 0
M  V30 5899 C 561.019 -3.44882 -2.46814 0
M  V30 5900 N 561.41 -4.62835 -2.04003 0
M  V30 5901 C 559.708 -3.48988 -2.77711 0
M  V30 5902 C 560.409 -5.44993 -2.03366 0
M  V30 5903 N 559.385 -4.85356 -2.44807 0
M  V30 5904 H 563.187 -2.79516 -0.908175 0
M  V30 5905 H 560.701 -1.57265 -0.405166 0
M  V30 5906 H 562.698 -2.47848 -3.35227 0
M  V30 5907 H 561.358 -1.37611 -2.94098 0
M  V30 5908 H 562.369 -4.87532 -1.74738 0
M  V30 5909 H 559.046 -2.72029 -3.16712 0
M  V30 5910 H 560.436 -6.49464 -1.72181 0
M  V30 5911 N 563.156 0.464375 -1.50603 0
M  V30 5912 C 564.119 1.54393 -1.69397 0
M  V30 5913 C 565.119 1.50566 -0.564504 0
M  V30 5914 O 566.309 1.53066 -0.831645 0
M  V30 5915 C 563.441 2.9401 -1.72543 0
M  V30 5916 H 564.634 1.39044 -2.65719 0
M  V30 5917 H 562.187 0.69122 -1.40185 0
M  V30 5918 H 562.922 3.14795 -0.77938 0
M  V30 5919 H 562.707 2.98195 -2.54602 0
M  V30 5920 H 564.197 3.72375 -1.89015 0
M  V30 5921 N 564.634 1.40294 0.718013 0
M  V30 5922 C 565.88 1.38645 1.48005 0
M  V30 5923 C 566.213 -0.0121202 1.94196 0
M  V30 5924 O 565.488 -0.980309 1.67989 0
M  V30 5925 C 565.771 2.37379 2.70782 0
M  V30 5926 C 565.624 3.8625 2.30501 0
M  V30 5927 C 566.943 2.33685 3.72933 0
M  V30 5928 H 564.062 0.504928 0.536858 0
M  V30 5929 H 566.704 1.71411 0.819649 0
M  V30 5930 H 564.854 2.09568 3.27129 0
M  V30 5931 H 566.526 4.24879 1.79655 0
M  V30 5932 H 564.769 4.02202 1.6253 0
M  V30 5933 H 565.44 4.50847 3.18498 0
M  V30 5934 H 567.916 2.58314 3.2621 0
M  V30 5935 H 566.792 3.0482 4.56482 0
M  V30 5936 H 567.053 1.34765 4.21059 0
M  V30 5937 N 566.112 -0.949982 1.2575 0
M  V30 5938 C 567.34 -1.72972 1.13527 0
M  V30 5939 C 567.755 -1.8623 -0.310453 0
M  V30 5940 O 567.112 -1.36336 -1.2132 0
M  V30 5941 C 567.163 -3.14108 1.78936 0
M  V30 5942 O 566.884 -3.01493 3.17858 0
M  V30 5943 C 568.385 -4.08338 1.72554 0
M  V30 5944 H 565.605 -0.541864 0.395758 0
M  V30 5945 H 568.149 -1.19151 1.66202 0
M  V30 5946 H 566.304 -3.64858 1.30221 0
M  V30 5947 H 566.718 -3.90559 3.50092 0
M  V30 5948 H 568.192 -5.04963 2.22973 0
M  V30 5949 H 568.669 -4.33742 0.690251 0
M  V30 5950 H 569.275 -3.63506 2.2078 0
M  V30 5951 N 567.59 -1.07411 -1.15328 0
M  V30 5952 C 568.867 -0.710732 -1.82231 0
M  V30 5953 C 569.247 0.806732 -1.95077 0
M  V30 5954 O 568.595 1.72139 -1.50268 0
M  V30 5955 C 568.805 -1.42586 -3.18544 0
M  V30 5956 C 570.153 -1.57836 -3.94174 0
M  V30 5957 O 571.177 -1.38669 -3.281 0
M  V30 5958 O 570.036 -1.8938 -5.12638 0
M  V30 5959 H 567.13 -0.25297 -0.78736 0
M  V30 5960 H 569.676 -1.17508 -1.22434 0
M  V30 5961 H 568.448 -2.46008 -3.04296 0
M  V30 5962 H 568.071 -0.952332 -3.86026 0
M  V30 5963 N 569.068 1.32177 -0.85831 0
M  V30 5964 C 570.298 2.01021 -0.476889 0
M  V30 5965 C 570.706 1.64653 0.931995 0
M  V30 5966 O 570.049 0.865713 1.62022 0
M  V30 5967 C 570.111 3.55413 -0.540528 0
M  V30 5968 C 569.775 4.1522 -1.90895 0
M  V30 5969 C 570.772 4.3318 -2.87491 0
M  V30 5970 C 568.457 4.51212 -2.20709 0
M  V30 5971 C 570.451 4.86306 -4.1205 0
M  V30 5972 C 568.138 5.04042 -3.45521 0
M  V30 5973 C 569.136 5.21538 -4.41007 0
M  V30 5974 O 568.824 5.73238 -5.63608 0
M  V30 5975 H 568.556 0.650059 -0.18547 0
M  V30 5976 H 571.11 1.69648 -1.15796 0
M  V30 5977 H 569.34 3.86196 0.19741 0
M  V30 5978 H 571.029 4.05526 -0.174191 0
M  V30 5979 H 571.795 4.05704 -2.65762 0
M  V30 5980 H 567.674 4.36878 -1.4717 0
M  V30 5981 H 571.218 4.99877 -4.86589 0
M  V30 5982 H 567.115 5.30952 -3.67098 0
M  V30 5983 H 567.883 5.91625 -5.65617 0
M  V30 5984 N 570.547 0.616602 1.45037 0
M  V30 5985 C 571.775 0.121968 2.0654 0
M  V30 5986 C 572.19 -1.19743 1.45969 0
M  V30 5987 O 571.547 -1.73133 0.577168 0
M  V30 5988 C 571.598 -0.0145171 3.61497 0
M  V30 5989 O 571.319 1.25269 4.19809 0
M  V30 5990 C 572.82 -0.539555 4.40004 0
M  V30 5991 H 570.04 0.0729837 0.667019 0
M  V30 5992 H 572.584 0.846891 1.8614 0
M  V30 5993 H 570.739 -0.689809 3.81209 0
M  V30 5994 H 571.153 1.08816 5.13088 0
M  V30 5995 H 572.627 -0.584112 5.48901 0
M  V30 5996 H 573.104 -1.56368 4.10421 0
M  V30 5997 H 573.71 0.101995 4.25178 0
M  V30 5998 N 572.025 -1.5352 0.356285 0
M  V30 5999 C 572.988 -2.24071 -0.482182 0
M  V30 6000 C 573.988 -1.24531 -1.01729 0
M  V30 6001 O 575.178 -1.48876 -0.904513 0
M  V30 6002 C 572.31 -2.97025 -1.67299 0
M  V30 6003 H 573.503 -2.99596 0.135031 0
M  V30 6004 H 571.056 -1.55928 0.107825 0
M  V30 6005 H 571.791 -2.25719 -2.32855 0
M  V30 6006 H 571.576 -3.7005 -1.29636 0
M  V30 6007 H 573.066 -3.50683 -2.26741 0
M  V30 6008 N 573.503 -0.0852151 -1.57369 0
M  V30 6009 C 574.751 0.579658 -1.93609 0
M  V30 6010 C 575.072 1.69332 -0.967043 0
M  V30 6011 O 574.342 1.95892 -0.0174215 0
M  V30 6012 H 572.922 0.217113 -0.714752 0
M  V30 6013 H 575.584 -0.146226 -1.94351 0
M  V30 6014 H 574.68 0.996276 -2.95771 0
M  V30 6015 N 574.981 1.5647 0.188427 0
M  V30 6016 C 575.911 1.98101 1.23606 0
M  V30 6017 C 576.892 0.853961 1.47111 0
M  V30 6018 O 578.077 1.11879 1.58735 0
M  V30 6019 C 575.207 2.32624 2.57882 0
M  V30 6020 C 574.161 3.48129 2.48978 0
M  V30 6021 C 573.487 3.68347 3.87588 0
M  V30 6022 C 574.787 4.82112 2.00911 0
M  V30 6023 H 576.481 2.85864 0.890068 0
M  V30 6024 H 574.027 1.37532 0.426714 0
M  V30 6025 H 575.98 2.60343 3.3136 0
M  V30 6026 H 574.704 1.41751 2.94235 0
M  V30 6027 H 573.363 3.20511 1.77956 0
M  V30 6028 H 573.011 2.74793 4.21305 0
M  V30 6029 H 572.711 4.46055 3.82503 0
M  V30 6030 H 574.235 3.98449 4.62678 0
M  V30 6031 H 575.649 5.08819 2.64151 0
M  V30 6032 H 574.046 5.63337 2.06814 0
M  V30 6033 H 575.116 4.75249 0.96262 0
M  V30 6034 N 576.459 -0.456382 1.50847 0
M  V30 6035 C 577.708 -1.2042 1.61808 0
M  V30 6036 C 578.021 -1.9278 0.330932 0
M  V30 6037 O 579.227 -2.69612 0.319643 0
M  V30 6038 C 577.683 -2.18891 2.85683 0
M  V30 6039 C 577.291 -1.52267 4.2133 0
M  V30 6040 C 579.035 -2.94224 3.05994 0
M  V30 6041 C 576.942 -2.4911 5.36375 0
M  V30 6042 H 575.872 -0.453177 0.602616 0
M  V30 6043 H 578.523 -0.473144 1.77295 0
M  V30 6044 H 576.905 -2.95351 2.63787 0
M  V30 6045 H 578.079 -0.814949 4.53536 0
M  V30 6046 H 576.394 -0.891594 4.06743 0
M  V30 6047 H 578.991 -3.66732 3.89117 0
M  V30 6048 H 579.334 -3.54469 2.18306 0
M  V30 6049 H 579.867 -2.24874 3.28141 0
M  V30 6050 H 576.606 -1.93582 6.26264 0
M  V30 6051 H 576.126 -3.17991 5.08569 0
M  V30 6052 H 577.805 -3.10637 5.67551 0
M  V30 6053 N 577.937 -1.40673 -0.710563 0
M  V30 6054 C 579.167 -1.4234 -1.49742 0
M  V30 6055 C 579.575 -0.022821 -1.89186 0
M  V30 6056 O 578.918 0.964773 -1.56326 0
M  V30 6057 C 578.98 -2.25509 -2.79975 0
M  V30 6058 C 578.644 -3.73862 -2.62824 0
M  V30 6059 C 579.641 -4.66379 -2.29752 0
M  V30 6060 C 577.326 -4.17735 -2.78932 0
M  V30 6061 C 579.32 -6.00756 -2.13006 0
M  V30 6062 C 577.007 -5.5218 -2.61802 0
M  V30 6063 C 578.005 -6.43505 -2.28888 0
M  V30 6064 O 577.693 -7.75472 -2.11894 0
M  V30 6065 H 577.425 -0.487311 -0.468513 0
M  V30 6066 H 579.979 -1.8542 -0.883668 0
M  V30 6067 H 578.209 -1.77218 -3.43701 0
M  V30 6068 H 579.898 -2.19058 -3.41714 0
M  V30 6069 H 580.664 -4.33778 -2.16936 0
M  V30 6070 H 576.543 -3.46967 -3.03537 0
M  V30 6071 H 580.087 -6.72003 -1.87237 0
M  V30 6072 H 575.984 -5.84365 -2.74204 0
M  V30 6073 H 576.752 -7.86458 -2.26775 0
M  V30 6074 N 579.415 0.9433 -1.26252 0
M  V30 6075 C 580.347 2.04542 -1.03417 0
M  V30 6076 C 581.36 1.62799 0.0046911 0
M  V30 6077 O 582.549 1.76944 -0.235146 0
M  V30 6078 C 579.649 3.34511 -0.543671 0
M  V30 6079 C 578.822 4.05033 -1.65128 0
M  V30 6080 C 577.881 5.13273 -1.1592 0
M  V30 6081 O 576.907 5.38095 -1.85586 0
M  V30 6082 N 578.109 5.805 -0.00649279 0
M  V30 6083 H 580.874 2.24699 -1.98319 0
M  V30 6084 H 578.435 1.11264 -1.1761 0
M  V30 6085 H 580.427 4.04212 -0.198703 0
M  V30 6086 H 578.997 3.11042 0.311711 0
M  V30 6087 H 578.217 3.29275 -2.16729 0
M  V30 6088 H 579.505 4.48903 -2.39508 0
M  V30 6089 H 578.903 5.62767 0.575347 0
M  V30 6090 H 577.46 6.51201 0.279416 0
M  V30 6091 N 580.893 1.08022 1.14757 0
M  V30 6092 C 581.841 0.701088 2.21783 0
M  V30 6093 C 582.835 -0.291311 1.66876 0
M  V30 6094 O 584.041 -0.154296 1.79337 0
M  V30 6095 H 580.416 0.208668 0.722469 0
M  V30 6096 H 582.387 1.61321 2.51034 0
M  V30 6097 C 581.136 0.122278 3.47485 0
M  V30 6098 H 580.459 0.877065 3.90061 0
M  V30 6099 H 581.899 -0.105248 4.23869 0
M  V30 6100 C 580.358 -1.13883 3.17068 0
M  V30 6101 O 580.888 -2.22429 3.34497 0
M  V30 6102 N 579.094 -1.04767 2.71058 0
M  V30 6103 H 578.641 -0.164302 2.57075 0
M  V30 6104 H 578.599 -1.89224 2.51081 0
M  V30 6105 N 582.371 -1.3172 0.865308 0
M  V30 6106 C 583.281 -2.32394 0.320935 0
M  V30 6107 C 584.297 -1.64511 -0.566746 0
M  V30 6108 O 585.473 -1.95969 -0.464575 0
M  V30 6109 C 582.538 -3.43462 -0.472701 0
M  V30 6110 C 581.599 -4.27015 0.442385 0
M  V30 6111 C 580.832 -5.32779 -0.313469 0
M  V30 6112 O 581.055 -5.49158 -1.54214 0
M  V30 6113 O 579.989 -6.01015 0.326257 0
M  V30 6114 H 583.815 -2.80868 1.15528 0
M  V30 6115 H 581.4 -1.35535 0.628545 0
M  V30 6116 H 583.282 -4.11172 -0.922781 0
M  V30 6117 H 581.957 -2.97159 -1.28367 0
M  V30 6118 H 580.864 -3.62075 0.940866 0
M  V30 6119 H 582.197 -4.76871 1.21882 0
M  V30 6120 N 583.85 -0.624285 -1.44708 0
M  V30 6121 C 585.075 -0.131171 -2.06985 0
M  V30 6122 C 585.5 1.18234 -1.46295 0
M  V30 6123 O 584.858 1.72375 -0.561842 0
M  V30 6124 C 584.906 -0.0226724 -3.60593 0
M  V30 6125 O 584.01 1.02314 -3.99507 0
M  V30 6126 H 583.351 -0.0816556 -0.65896 0
M  V30 6127 H 585.88 -0.859027 -1.85693 0
M  V30 6128 H 585.891 0.170138 -4.07645 0
M  V30 6129 H 584.566 -0.981685 -4.04148 0
M  V30 6130 H 583.143 0.805452 -3.64097 0
M  V30 6131 N 585.328 1.53329 -0.364422 0
M  V30 6132 C 586.576 2.00842 0.225189 0
M  V30 6133 C 586.897 1.25345 1.49378 0
M  V30 6134 O 586.167 0.366396 1.92443 0
M  V30 6135 H 584.747 0.742009 0.0862027 0
M  V30 6136 H 587.409 1.8863 -0.490389 0
M  V30 6137 H 586.505 3.08795 0.452987 0
M  V30 6138 N 586.806 0.0935595 1.57322 0
M  V30 6139 C 587.769 -0.851426 2.12799 0
M  V30 6140 C 588.769 -1.21187 1.0569 0
M  V30 6141 O 589.959 -1.14156 1.31583 0
M  V30 6142 C 587.091 -2.14779 2.64731 0
M  V30 6143 H 588.284 -0.369733 2.97612 0
M  V30 6144 H 585.837 -0.155417 1.55525 0
M  V30 6145 H 586.572 -2.67437 1.83434 0
M  V30 6146 H 586.357 -1.89907 3.43042 0
M  V30 6147 H 587.847 -2.82383 3.07651 0
M  V30 6148 N 588.284 -1.56567 -0.180126 0
M  V30 6149 C 589.533 -1.80685 -0.896426 0
M  V30 6150 C 589.846 -0.669335 -1.83791 0
M  V30 6151 O 591.052 -0.795209 -2.59593 0
M  V30 6152 C 589.508 -3.20132 -1.6445 0
M  V30 6153 C 589.116 -4.41727 -0.747088 0
M  V30 6154 C 590.86 -3.53549 -2.34955 0
M  V30 6155 C 588.767 -5.72195 -1.49489 0
M  V30 6156 H 587.697 -0.673758 -0.338477 0
M  V30 6157 H 590.348 -1.8289 -0.149467 0
M  V30 6158 H 588.73 -3.12218 -2.43589 0
M  V30 6159 H 589.904 -4.608 0.00671129 0
M  V30 6160 H 588.219 -4.16122 -0.152134 0
M  V30 6161 H 590.816 -4.48267 -2.91481 0
M  V30 6162 H 591.159 -2.78006 -3.09868 0
M  V30 6163 H 591.692 -3.62976 -1.62768 0
M  V30 6164 H 588.431 -6.50743 -0.788251 0
M  V30 6165 H 587.951 -5.57115 -2.22224 0
M  V30 6166 H 589.63 -6.1384 -2.04472 0
M  V30 6167 N 589.762 0.448376 -1.51087 0
M  V30 6168 C 590.71 1.56407 -1.72161 0
M  V30 6169 C 591.704 1.58878 -0.587721 0
M  V30 6170 O 592.91 1.62755 -0.768822 0
M  V30 6171 H 589.285 0.519423 -0.543786 0
M  V30 6172 H 591.256 1.35803 -2.65707 0
M  V30 6173 C 590.005 2.94163 -1.85373 0
M  V30 6174 H 589.328 2.9299 -2.72024 0
M  V30 6175 H 590.768 3.71625 -2.04135 0
M  V30 6176 C 589.227 3.31317 -0.610803 0
M  V30 6177 O 589.757 4.00985 0.239636 0
M  V30 6178 N 587.963 2.86966 -0.458127 0
M  V30 6179 H 587.51 2.30443 -1.15124 0
M  V30 6180 H 587.468 3.12188 0.372289 0
M  V30 6181 N 591.24 1.41047 0.703093 0
M  V30 6182 C 592.15 1.44645 1.84703 0
M  V30 6183 C 593.166 0.337778 1.7069 0
M  V30 6184 O 594.342 0.584327 1.92737 0
M  V30 6185 C 591.407 1.31928 3.20618 0
M  V30 6186 C 590.468 2.53047 3.46794 0
M  V30 6187 C 589.701 2.40927 4.76224 0
M  V30 6188 O 589.924 1.42978 5.5219 0
M  V30 6189 O 588.858 3.30543 5.03016 0
M  V30 6190 H 592.684 2.41139 1.84624 0
M  V30 6191 H 590.269 1.22504 0.855167 0
M  V30 6192 H 592.151 1.27092 4.01778 0
M  V30 6193 H 590.826 0.385469 3.21397 0
M  V30 6194 H 589.733 2.6346 2.65593 0
M  V30 6195 H 591.066 3.45231 3.50822 0
M  V30 6196 N 592.718 -0.936591 1.26751 0
M  V30 6197 C 593.681 -2.01752 1.08761 0
M  V30 6198 C 594.681 -1.60763 0.0344435 0
M  V30 6199 O 595.871 -1.71963 0.278258 0
M  V30 6200 C 593.003 -3.34543 0.655271 0
M  V30 6201 H 594.196 -2.19143 2.04735 0
M  V30 6202 H 591.749 -1.11618 1.09413 0
M  V30 6203 H 592.484 -3.22851 -0.30626 0
M  V30 6204 H 592.269 -3.65647 1.41578 0
M  V30 6205 H 593.759 -4.13944 0.551378 0
M  V30 6206 N 594.196 -1.08629 -1.14182 0
M  V30 6207 C 595.445 -0.812271 -1.84621 0
M  V30 6208 C 595.758 0.664313 -1.83973 0
M  V30 6209 O 596.964 1.05357 -2.50224 0
M  V30 6210 C 595.42 -1.4031 -3.31423 0
M  V30 6211 C 595.028 -2.91164 -3.40481 0
M  V30 6212 C 596.772 -1.20767 -4.06959 0
M  V30 6213 C 594.679 -3.43373 -4.81507 0
M  V30 6214 H 593.609 -0.30019 -0.691666 0
M  V30 6215 H 596.26 -1.30798 -1.28701 0
M  V30 6216 H 594.642 -0.835096 -3.87094 0
M  V30 6217 H 595.816 -3.5412 -2.94848 0
M  V30 6218 H 594.131 -3.09646 -2.78403 0
M  V30 6219 H 596.728 -1.57237 -5.11058 0
M  V30 6220 H 597.071 -0.147664 -4.16038 0
M  V30 6221 H 597.604 -1.74274 -3.57594 0
M  V30 6222 H 594.343 -4.48958 -4.77616 0
M  V30 6223 H 593.863 -2.85176 -5.27669 0
M  V30 6224 H 595.542 -3.40095 -5.50404 0
M  V30 6225 N 595.674 1.31259 -0.872281 0
M  V30 6226 C 596.899 2.0133 -0.498099 0
M  V30 6227 C 597.324 1.65031 0.902568 0
M  V30 6228 O 596.682 0.860164 1.59596 0
M  V30 6229 C 596.73 3.54411 -0.665205 0
M  V30 6230 O 595.834 4.11347 0.294473 0
M  V30 6231 H 595.175 0.633844 -0.197832 0
M  V30 6232 H 597.705 1.67402 -1.17633 0
M  V30 6233 H 597.715 4.04147 -0.559373 0
M  V30 6234 H 596.39 3.80171 -1.68651 0
M  V30 6235 H 594.967 3.72624 0.143403 0
M  V30 6236 N 597.152 0.631951 1.44375 0
M  V30 6237 C 598.429 0.067646 1.95483 0
M  V30 6238 C 598.809 -1.40683 1.57389 0
M  V30 6239 O 598.157 -2.12167 0.848375 0
M  V30 6240 C 598.367 0.291392 3.47781 0
M  V30 6241 C 599.715 0.185028 4.24197 0
M  V30 6242 O 600.739 0.222803 3.55503 0
M  V30 6243 O 599.598 0.0906642 5.46425 0
M  V30 6244 H 596.692 -0.0218379 0.826712 0
M  V30 6245 H 599.238 0.703711 1.54421 0
M  V30 6246 H 598.01 1.31449 3.68561 0
M  V30 6247 H 597.633 -0.378772 3.95792 0
M  V30 6248 N 598.631 -1.53133 0.372548 0
M  V30 6249 C 599.88 -2.00539 -0.216115 0
M  V30 6250 C 600.193 -1.26374 -1.49295 0
M  V30 6251 O 601.399 -1.64404 -2.16064 0
M  V30 6252 C 599.855 -3.57253 -0.435678 0
M  V30 6253 C 599.463 -4.40302 0.82693 0
M  V30 6254 C 601.207 -4.12995 -0.981618 0
M  V30 6255 C 599.114 -5.88583 0.576567 0
M  V30 6256 H 598.044 -0.749246 -0.084536 0
M  V30 6257 H 600.695 -1.76771 0.492364 0
M  V30 6258 H 599.077 -3.77202 -1.20559 0
M  V30 6259 H 600.251 -4.32124 1.60017 0
M  V30 6260 H 598.566 -3.95699 1.29659 0
M  V30 6261 H 601.163 -5.21418 -1.18436 0
M  V30 6262 H 601.506 -3.68027 -1.94581 0
M  V30 6263 H 602.039 -3.96871 -0.271696 0
M  V30 6264 H 598.778 -6.37841 1.51128 0
M  V30 6265 H 598.298 -5.99592 -0.158047 0
M  V30 6266 H 599.977 -6.46676 0.204722 0
M  V30 6267 N 600.109 -0.101901 -1.5727 0
M  V30 6268 C 601.356 0.560197 -1.94597 0
M  V30 6269 C 601.684 1.67767 -0.984101 0
M  V30 6270 O 600.939 1.95699 -0.00489193 0
M  V30 6271 C 601.238 1.14898 -3.38427 0
M  V30 6272 C 600.904 0.154613 -4.50635 0
M  V30 6273 C 599.566 -0.118861 -4.81053 0
M  V30 6274 C 601.918 -0.523979 -5.18559 0
M  V30 6275 C 599.246 -1.0775 -5.76721 0
M  V30 6276 C 601.598 -1.47114 -6.15256 0
M  V30 6277 C 600.262 -1.75278 -6.44076 0
M  V30 6278 H 599.532 0.204991 -0.712081 0
M  V30 6279 H 602.179 -0.17918 -1.9066 0
M  V30 6280 H 600.484 1.96476 -3.38976 0
M  V30 6281 H 602.181 1.66909 -3.64613 0
M  V30 6282 H 598.771 0.377948 -4.2693 0
M  V30 6283 H 602.955 -0.325851 -4.95229 0
M  V30 6284 H 598.211 -1.30263 -5.97362 0
M  V30 6285 H 602.385 -2.00274 -6.66981 0
M  V30 6286 H 600.012 -2.49717 -7.18015 0
M  V30 6287 N 601.587 1.56661 0.17182 0
M  V30 6288 C 602.835 1.81606 0.886774 0
M  V30 6289 C 603.156 0.678818 1.82803 0
M  V30 6290 O 602.426 -0.301354 1.93568 0
M  V30 6291 H 601.006 0.669934 0.330451 0
M  V30 6292 H 603.668 1.94142 0.171757 0
M  V30 6293 H 602.764 2.75634 1.46398 0
M  V30 6294 N 603.065 -0.440357 1.51323 0
M  V30 6295 C 604.293 -1.21255 1.67645 0
M  V30 6296 C 604.708 -1.85088 0.37252 0
M  V30 6297 O 604.065 -1.70582 -0.648683 0
M  V30 6298 C 604.116 -2.29881 2.78993 0
M  V30 6299 O 603.837 -1.68659 4.04334 0
M  V30 6300 C 605.338 -3.20214 3.06558 0
M  V30 6301 H 602.558 -0.36558 0.562666 0
M  V30 6302 H 605.102 -0.52214 1.97722 0
M  V30 6303 H 603.257 -2.94643 2.51524 0
M  V30 6304 H 603.671 -2.40426 4.6615 0
M  V30 6305 H 605.145 -3.92575 3.88058 0
M  V30 6306 H 605.622 -3.80794 2.18844 0
M  V30 6307 H 606.228 -2.61156 3.35675 0
M  V30 6308 N 604.543 -1.41418 -0.695603 0
M  V30 6309 C 605.473 -1.46035 -1.82197 0
M  V30 6310 C 606.454 -0.319025 -1.67082 0
M  V30 6311 O 607.639 -0.530462 -1.86815 0
M  V30 6312 C 604.769 -1.34179 -3.20333 0
M  V30 6313 C 603.723 -2.46123 -3.50154 0
M  V30 6314 C 603.049 -2.19332 -4.87645 0
M  V30 6315 C 604.349 -3.88463 -3.49133 0
M  V30 6316 H 606.043 -2.40303 -1.78591 0
M  V30 6317 H 603.589 -1.15663 -0.857797 0
M  V30 6318 H 605.542 -1.36021 -3.98844 0
M  V30 6319 H 604.266 -0.363952 -3.24566 0
M  V30 6320 H 602.925 -2.43563 -2.73994 0
M  V30 6321 H 602.573 -1.19891 -4.88503 0
M  V30 6322 H 602.273 -2.94344 -5.08562 0
M  V30 6323 H 603.797 -2.22889 -5.68465 0
M  V30 6324 H 605.211 -3.92738 -4.17648 0
M  V30 6325 H 603.608 -4.63158 -3.81582 0
M  V30 6326 H 604.678 -4.16617 -2.48109 0
M  V30 6327 N 606.021 0.929856 -1.27246 0
M  V30 6328 C 607.267 1.6798 -1.13625 0
M  V30 6329 C 607.6 1.91586 0.317589 0
M  V30 6330 O 606.875 1.50467 1.23247 0
M  V30 6331 C 607.158 3.04766 -1.91806 0
M  V30 6332 C 607.011 2.88415 -3.45162 0
M  V30 6333 C 608.33 4.05063 -1.72082 0
M  V30 6334 H 605.449 0.609632 -0.414147 0
M  V30 6335 H 608.091 1.0792 -1.56376 0
M  V30 6336 H 606.241 3.56034 -1.55474 0
M  V30 6337 H 607.913 2.44282 -3.91311 0
M  V30 6338 H 606.156 2.23802 -3.71611 0
M  V30 6339 H 606.827 3.85482 -3.95105 0
M  V30 6340 H 609.303 3.62798 -2.03757 0
M  V30 6341 H 608.179 4.98765 -2.29182 0
M  V30 6342 H 608.44 4.37021 -0.668206 0
M  V30 6343 N 607.499 1.09233 1.13605 0
M  V30 6344 C 608.409 0.741939 2.22559 0
M  V30 6345 C 609.425 -0.255236 1.72118 0
M  V30 6346 O 610.601 -0.0970747 2.01166 0
M  V30 6347 C 607.666 0.165595 3.46304 0
M  V30 6348 C 606.727 1.21846 4.11645 0
M  V30 6349 C 605.96 0.669526 5.29484 0
M  V30 6350 O 606.183 -0.508228 5.68131 0
M  V30 6351 O 605.117 1.42361 5.84822 0
M  V30 6352 H 608.943 1.65107 2.54899 0
M  V30 6353 H 606.528 0.866584 1.21699 0
M  V30 6354 H 608.41 -0.152592 4.21124 0
M  V30 6355 H 607.085 -0.716573 3.15669 0
M  V30 6356 H 605.992 1.58931 3.38662 0
M  V30 6357 H 607.325 2.07321 4.46407 0
M  V30 6358 N 608.977 -1.30795 0.87923 0
M  V30 6359 C 610.224 -1.96362 0.494786 0
M  V30 6360 C 610.552 -1.69448 -0.954868 0
M  V30 6361 O 609.807 -0.988711 -1.68888 0
M  V30 6362 C 610.106 -3.50287 0.709476 0
M  V30 6363 C 609.772 -3.9724 2.13333 0
M  V30 6364 C 608.434 -4.09772 2.52271 0
M  V30 6365 C 610.786 -4.21807 3.06151 0
M  V30 6366 C 608.114 -4.44227 3.83248 0
M  V30 6367 C 610.466 -4.5773 4.36654 0
M  V30 6368 C 609.13 -4.68469 4.75492 0
M  V30 6369 H 608.4 -0.71854 0.181055 0
M  V30 6370 H 611.047 -1.55764 1.11399 0
M  V30 6371 H 609.352 -3.91799 0.0072 0
M  V30 6372 H 611.049 -3.99082 0.391703 0
M  V30 6373 H 607.639 -3.87988 1.82107 0
M  V30 6374 H 611.823 -4.11611 2.77291 0
M  V30 6375 H 607.079 -4.50741 4.13089 0
M  V30 6376 H 611.253 -4.7569 5.08617 0
M  V30 6377 H 608.88 -4.94923 5.77022 0
M  V30 6378 N 610.455 -0.639598 -1.44038 0
M  V30 6379 C 611.685 -0.154586 -2.06021 0
M  V30 6380 C 612.093 1.17951 -1.47933 0
M  V30 6381 O 611.436 1.73627 -0.59994 0
M  V30 6382 C 611.498 0.0255459 -3.59491 0
M  V30 6383 C 611.162 -1.2317 -4.40089 0
M  V30 6384 C 612.159 -2.15735 -4.73027 0
M  V30 6385 C 609.844 -1.46949 -4.80324 0
M  V30 6386 C 611.838 -3.30382 -5.45093 0
M  V30 6387 C 609.525 -2.61891 -5.52138 0
M  V30 6388 C 610.523 -3.53433 -5.84443 0
M  V30 6389 O 610.211 -4.6637 -6.54793 0
M  V30 6390 H 609.943 -0.0808543 -0.671147 0
M  V30 6391 H 612.497 -0.876541 -1.85758 0
M  V30 6392 H 610.727 0.802733 -3.78276 0
M  V30 6393 H 612.416 0.466184 -4.03214 0
M  V30 6394 H 613.182 -1.98602 -4.42473 0
M  V30 6395 H 609.061 -0.765815 -4.54595 0
M  V30 6396 H 612.605 -4.01856 -5.70226 0
M  V30 6397 H 608.502 -2.78964 -5.82108 0
M  V30 6398 H 609.27 -4.6546 -6.73267 0
M  V30 6399 N 611.933 1.52934 -0.380664 0
M  V30 6400 C 612.896 2.24809 0.446473 0
M  V30 6401 C 613.896 1.26133 0.997347 0
M  V30 6402 O 615.086 1.50297 0.880714 0
M  V30 6403 C 612.218 2.99649 1.62553 0
M  V30 6404 H 613.411 2.99343 -0.182677 0
M  V30 6405 H 610.964 1.55736 -0.132618 0
M  V30 6406 H 611.699 2.29395 2.29235 0
M  V30 6407 H 611.484 3.72066 1.23732 0
M  V30 6408 H 612.974 3.54246 2.21133 0
M  V30 6409 N 613.412 0.11024 1.57214 0
M  V30 6410 C 614.36 -0.860586 2.16094 0
M  V30 6411 C 615.354 -1.28156 1.1078 0
M  V30 6412 O 616.56 -1.25433 1.29099 0
M  V30 6413 H 612.935 -0.295606 0.691463 0
M  V30 6414 H 614.906 -0.33942 2.96463 0
M  V30 6415 C 613.655 -2.10421 2.768 0
M  V30 6416 H 612.978 -1.7892 3.5753 0
M  V30 6417 H 614.418 -2.76375 3.21547 0
M  V30 6418 C 612.877 -2.88823 1.73444 0
M  V30 6419 O 613.407 -3.839 1.18251 0
M  V30 6420 N 611.613 -2.52649 1.43586 0
M  V30 6421 H 611.16 -1.754 1.8866 0
M  V30 6422 H 611.118 -3.05403 0.746735 0
M  V30 6423 N 614.89 -1.56749 -0.16351 0
M  V30 6424 C 615.837 -1.97011 -1.2023 0
M  V30 6425 C 616.807 -0.835186 -1.43575 0
M  V30 6426 O 617.992 -1.09594 -1.56185 0
M  V30 6427 C 615.132 -2.34186 -2.53478 0
M  V30 6428 C 614.245 -3.60893 -2.37446 0
M  V30 6429 C 613.38 -3.87245 -3.63614 0
M  V30 6430 C 612.419 -5.07274 -3.42548 0
M  V30 6431 N 611.556 -5.29719 -4.60806 0
M  V30 6432 H 616.396 -2.85562 -0.851958 0
M  V30 6433 H 613.933 -1.41292 -0.409257 0
M  V30 6434 H 615.891 -2.53764 -3.31149 0
M  V30 6435 H 614.521 -1.48736 -2.86492 0
M  V30 6436 H 613.573 -3.49185 -1.50911 0
M  V30 6437 H 614.885 -4.48722 -2.1783 0
M  V30 6438 H 614.039 -4.07232 -4.49719 0
M  V30 6439 H 612.778 -2.97806 -3.86216 0
M  V30 6440 H 611.783 -4.87177 -2.5483 0
M  V30 6441 H 613.008 -5.98251 -3.2136 0
M  V30 6442 H 610.954 -4.43233 -4.83612 0
M  V30 6443 H 610.871 -6.11786 -4.44132 0
M  V30 6444 H 612.139 -5.54192 -5.48171 0
M  V30 6445 N 616.368 0.432326 -1.51554 0
M  V30 6446 C 617.316 1.54572 -1.73811 0
M  V30 6447 C 618.31 1.58246 -0.604539 0
M  V30 6448 O 619.516 1.6193 -0.786041 0
M  V30 6449 H 615.891 0.513626 -0.549265 0
M  V30 6450 H 617.862 1.32977 -2.67132 0
M  V30 6451 C 616.611 2.92181 -1.88483 0
M  V30 6452 H 615.934 2.90088 -2.75116 0
M  V30 6453 H 617.374 3.69439 -2.08065 0
M  V30 6454 C 615.833 3.3065 -0.645909 0
M  V30 6455 O 616.363 4.01216 0.197093 0
M  V30 6456 N 614.569 2.86464 -0.488538 0
M  V30 6457 H 614.116 2.29209 -1.17562 0
M  V30 6458 H 614.074 3.12565 0.339156 0
M  V30 6459 N 617.846 1.41785 0.688094 0
M  V30 6460 C 619.257 1.3701 1.26828 0
M  V30 6461 C 619.608 0.056835 1.96118 0
M  V30 6462 O 618.733 -0.84475 1.99231 0
M  V30 6463 C 619.328 2.48168 2.30648 0
M  V30 6464 C 617.887 2.46766 2.84224 0
M  V30 6465 C 617.034 2.27633 1.58361 0
M  V30 6466 H 619.985 1.51192 0.482351 0
M  V30 6467 H 620.006 2.17655 3.121 0
M  V30 6468 H 619.518 3.43735 1.80188 0
M  V30 6469 H 617.619 1.54978 3.3884 0
M  V30 6470 H 617.732 3.43342 3.34145 0
M  V30 6471 H 616.096 1.75648 1.84445 0
M  V30 6472 H 616.879 3.25238 1.09887 0
M  V30 6473 N 619.324 -0.923095 1.27737 0
M  V30 6474 C 620.601 -1.64989 1.05062 0
M  V30 6475 C 620.981 -2.07018 -0.413124 0
M  V30 6476 O 620.329 -1.80797 -1.39731 0
M  V30 6477 C 620.539 -2.84847 2.01652 0
M  V30 6478 C 621.887 -3.56083 2.31279 0
M  V30 6479 O 622.911 -2.94981 1.99662 0
M  V30 6480 O 621.77 -4.66182 2.85196 0
M  V30 6481 H 618.864 -0.723357 0.400853 0
M  V30 6482 H 621.41 -0.973224 1.3902 0
M  V30 6483 H 620.182 -2.50814 3.00347 0
M  V30 6484 H 619.805 -3.60231 1.68284 0
M  V30 6485 N 620.802 -1.09834 -1.13024 0
M  V30 6486 C 622.048 -0.848072 -1.84876 0
M  V30 6487 C 622.403 0.619663 -1.82148 0
M  V30 6488 O 621.696 1.45067 -1.25164 0
M  V30 6489 C 621.89 -1.32263 -3.32026 0
M  V30 6490 C 621.719 -2.83497 -3.49084 0
M  V30 6491 C 620.489 -3.51425 -3.63082 0
M  V30 6492 C 622.687 -3.81623 -3.44773 0
M  V30 6493 N 620.669 -4.91042 -3.68443 0
M  V30 6494 C 622.04 -5.07217 -3.56555 0
M  V30 6495 C 624.095 -3.74419 -3.282 0
M  V30 6496 C 622.798 -6.26457 -3.53474 0
M  V30 6497 C 624.824 -4.93151 -3.26429 0
M  V30 6498 C 624.186 -6.1759 -3.38765 0
M  V30 6499 H 620.285 -0.363249 -0.692513 0
M  V30 6500 H 622.869 -1.39952 -1.35357 0
M  V30 6501 H 621.04 -0.79858 -3.80102 0
M  V30 6502 H 622.772 -1.01725 -3.91707 0
M  V30 6503 H 619.527 -3.0186 -3.64935 0
M  V30 6504 H 619.951 -5.63782 -3.74805 0
M  V30 6505 H 624.593 -2.79132 -3.17561 0
M  V30 6506 H 622.311 -7.22039 -3.62884 0
M  V30 6507 H 625.897 -4.8928 -3.14796 0
M  V30 6508 H 624.777 -7.07925 -3.37361 0
M  V30 6509 N 622.28 1.30327 -0.886154 0
M  V30 6510 C 623.19 2.31854 -0.357866 0
M  V30 6511 C 624.206 1.65392 0.540502 0
M  V30 6512 O 625.382 1.96683 0.433339 0
M  V30 6513 C 622.447 3.44171 0.417999 0
M  V30 6514 C 621.508 4.26257 -0.510263 0
M  V30 6515 C 620.741 5.3321 0.228669 0
M  V30 6516 O 620.964 5.51542 1.45458 0
M  V30 6517 O 619.898 6.0042 -0.421832 0
M  V30 6518 H 623.724 2.78995 -1.19982 0
M  V30 6519 H 621.309 1.34518 -0.650028 0
M  V30 6520 H 623.191 4.12588 0.857251 0
M  V30 6521 H 621.866 2.99164 1.23623 0
M  V30 6522 H 620.773 3.60533 -0.99835 0
M  V30 6523 H 622.106 4.74871 -1.29454 0
M  V30 6524 N 623.758 0.647228 1.43697 0
M  V30 6525 C 625.007 0.155552 2.01099 0
M  V30 6526 C 625.32 -1.23569 1.51624 0
M  V30 6527 O 626.526 -1.82226 2.01261 0
M  V30 6528 C 624.982 0.227296 3.59182 0
M  V30 6529 C 624.59 1.62086 4.17651 0
M  V30 6530 C 626.334 -0.207085 4.23995 0
M  V30 6531 C 624.241 1.64685 5.68008 0
M  V30 6532 H 623.171 0.0543895 0.752036 0
M  V30 6533 H 625.822 0.808386 1.64734 0
M  V30 6534 H 624.204 -0.492937 3.9292 0
M  V30 6535 H 625.378 2.36597 3.95422 0
M  V30 6536 H 623.693 2.0007 3.65186 0
M  V30 6537 H 626.29 -0.207426 5.34298 0
M  V30 6538 H 626.633 -1.23742 3.97484 0
M  V30 6539 H 627.166 0.461193 3.95118 0
M  V30 6540 H 623.905 2.65608 5.99277 0
M  V30 6541 H 623.425 0.944914 5.9231 0
M  V30 6542 H 625.104 1.38792 6.31938 0
M  V30 6543 N 625.236 -1.5273 0.388769 0
M  V30 6544 C 626.484 -2.01174 -0.193208 0
M  V30 6545 C 626.805 -1.27705 -1.47365 0
M  V30 6546 O 626.075 -0.396966 -1.91836 0
M  V30 6547 H 624.655 -0.743287 -0.0743871 0
M  V30 6548 H 627.317 -1.87826 0.520336 0
M  V30 6549 H 626.413 -3.09477 -0.403803 0
M  V30 6550 N 626.714 -0.118576 -1.57153 0
M  V30 6551 C 627.624 0.845484 -2.18835 0
M  V30 6552 C 628.64 1.29299 -1.16438 0
M  V30 6553 O 629.816 1.35607 -1.48905 0
M  V30 6554 C 626.881 2.07795 -2.77529 0
M  V30 6555 C 625.942 1.6824 -3.9496 0
M  V30 6556 C 625.175 2.85612 -4.50845 0
M  V30 6557 O 625.398 4.01025 -4.05629 0
M  V30 6558 O 624.332 2.62721 -5.41536 0
M  V30 6559 H 628.158 0.350568 -3.0167 0
M  V30 6560 H 625.743 0.107013 -1.49016 0
M  V30 6561 H 627.625 2.79978 -3.14945 0
M  V30 6562 H 626.3 2.56294 -1.97725 0
M  V30 6563 H 625.207 0.931663 -3.62313 0
M  V30 6564 H 626.54 1.24484 -4.76198 0
M  V30 6565 N 628.193 1.56834 0.155195 0
M  V30 6566 C 629.47 1.73799 0.897395 0
M  V30 6567 C 629.85 0.684379 1.99698 0
M  V30 6568 O 629.198 -0.298111 2.26547 0
M  V30 6569 C 629.408 3.17572 1.44737 0
M  V30 6570 C 630.756 3.79014 1.91399 0
M  V30 6571 O 631.78 3.20951 1.54496 0
M  V30 6572 O 630.639 4.80998 2.59429 0
M  V30 6573 H 627.733 0.710329 0.423511 0
M  V30 6574 H 630.279 1.69107 0.141761 0
M  V30 6575 H 629.051 3.85749 0.656741 0
M  V30 6576 H 628.674 3.26657 2.26674 0
M  V30 6577 N 629.671 -0.424282 1.51781 0
M  V30 6578 C 630.917 -1.17434 1.6534 0
M  V30 6579 C 631.25 -1.90549 0.374806 0
M  V30 6580 O 630.525 -1.84145 -0.626179 0
M  V30 6581 C 630.808 -2.18093 2.86544 0
M  V30 6582 C 630.661 -1.48975 4.24413 0
M  V30 6583 C 631.98 -3.18934 3.03264 0
M  V30 6584 H 629.099 -0.425566 0.601716 0
M  V30 6585 H 631.741 -0.461921 1.84299 0
M  V30 6586 H 629.891 -2.78849 2.7051 0
M  V30 6587 H 631.563 -0.914551 4.52143 0
M  V30 6588 H 629.806 -0.791893 4.26511 0
M  V30 6589 H 630.477 -2.22347 5.05238 0
M  V30 6590 H 632.953 -2.68243 3.18096 0
M  V30 6591 H 631.829 -3.86645 3.89611 0
M  V30 6592 H 632.09 -3.85793 2.15908 0
M  V30 6593 N 631.149 -1.42148 -0.680565 0
M  V30 6594 C 632.379 -1.45485 -1.46689 0
M  V30 6595 C 632.787 -0.0629451 -1.89095 0
M  V30 6596 O 632.13 0.931397 -1.58337 0
M  V30 6597 C 632.192 -2.31397 -2.75129 0
M  V30 6598 C 631.856 -3.79353 -2.54834 0
M  V30 6599 C 632.853 -4.71148 -2.19808 0
M  V30 6600 C 630.538 -4.23557 -2.70008 0
M  V30 6601 C 632.532 -6.05139 -2.00215 0
M  V30 6602 C 630.219 -5.57609 -2.50031 0
M  V30 6603 C 631.217 -6.48216 -2.15187 0
M  V30 6604 O 630.905 -7.79792 -1.95397 0
M  V30 6605 H 630.637 -0.497139 -0.458071 0
M  V30 6606 H 633.191 -1.87252 -0.844139 0
M  V30 6607 H 631.421 -1.84468 -3.39865 0
M  V30 6608 H 633.11 -2.26257 -3.36991 0
M  V30 6609 H 633.876 -4.38282 -2.07686 0
M  V30 6610 H 629.755 -3.53327 -2.96109 0
M  V30 6611 H 633.299 -6.75823 -1.72941 0
M  V30 6612 H 629.196 -5.9005 -2.61748 0
M  V30 6613 H 629.964 -7.91091 -2.10042 0
M  V30 6614 N 632.627 0.916307 -1.28225 0
M  V30 6615 C 633.855 1.69901 -1.18073 0
M  V30 6616 C 634.27 1.86988 0.260968 0
M  V30 6617 O 633.627 1.39505 1.17663 0
M  V30 6618 C 633.678 3.09254 -1.87201 0
M  V30 6619 O 633.399 2.92959 -3.2574 0
M  V30 6620 C 634.9 4.0362 -1.83319 0
M  V30 6621 H 632.12 0.531181 -0.409985 0
M  V30 6622 H 634.664 1.14703 -1.69303 0
M  V30 6623 H 632.819 3.61277 -1.39848 0
M  V30 6624 H 633.233 3.81139 -3.60324 0
M  V30 6625 H 634.707 4.98873 -2.36282 0
M  V30 6626 H 635.184 4.3176 -0.805007 0
M  V30 6627 H 635.79 3.57524 -2.3034 0
M  V30 6628 N 634.105 1.10431 1.1244 0
M  V30 6629 C 635.516 0.864439 1.65482 0
M  V30 6630 C 635.867 -0.60527 1.8663 0
M  V30 6631 O 634.992 -1.46492 1.59276 0
M  V30 6632 C 635.587 1.56267 3.0061 0
M  V30 6633 C 634.146 1.3695 3.50602 0
M  V30 6634 C 633.293 1.61209 2.25626 0
M  V30 6635 H 636.244 1.26203 0.962209 0
M  V30 6636 H 636.265 1.00166 3.67079 0
M  V30 6637 H 635.777 2.63231 2.85186 0
M  V30 6638 H 633.878 0.321481 3.71211 0
M  V30 6639 H 633.991 2.11143 4.30064 0
M  V30 6640 H 632.355 1.03482 2.32731 0
M  V30 6641 H 633.138 2.69425 2.12756 0
M  V30 6642 N 635.583 -1.29855 0.893053 0
M  V30 6643 C 636.831 -1.9544 0.514566 0
M  V30 6644 C 637.152 -1.70795 -0.940959 0
M  V30 6645 O 636.422 -1.03601 -1.66264 0
M  V30 6646 H 635.002 -0.723137 0.187302 0
M  V30 6647 H 637.664 -1.58234 1.13789 0
M  V30 6648 H 636.76 -3.04341 0.691581 0
M  V30 6649 N 637.061 -0.65484 -1.43351 0
M  V30 6650 C 638.31 -0.166215 -2.01014 0
M  V30 6651 C 638.623 1.22764 -1.52278 0
M  V30 6652 O 639.829 1.81156 -2.02224 0
M  V30 6653 C 638.285 -0.246341 -3.59056 0
M  V30 6654 C 637.893 -1.64299 -4.16785 0
M  V30 6655 C 639.637 0.184597 -4.24098 0
M  V30 6656 C 637.544 -1.67695 -5.67126 0
M  V30 6657 H 636.474 -0.0583769 -0.751737 0
M  V30 6658 H 639.125 -0.817111 -1.64303 0
M  V30 6659 H 637.507 0.472092 -3.93176 0
M  V30 6660 H 638.681 -2.3869 -3.94162 0
M  V30 6661 H 636.996 -2.02004 -3.6412 0
M  V30 6662 H 639.593 0.179088 -5.344 0
M  V30 6663 H 639.936 1.21632 -3.98135 0
M  V30 6664 H 640.469 -0.482141 -3.94867 0
M  V30 6665 H 637.208 -2.68783 -5.9786 0
M  V30 6666 H 636.728 -0.976313 -5.91801 0
M  V30 6667 H 638.407 -1.42142 -6.31193 0
M  V30 6668 N 638.539 1.52521 -0.396863 0
M  V30 6669 C 639.764 2.06571 0.185258 0
M  V30 6670 C 640.189 1.26605 1.39115 0
M  V30 6671 O 639.547 0.293055 1.78916 0
M  V30 6672 C 639.595 3.5674 0.526189 0
M  V30 6673 O 638.699 3.7929 1.61903 0
M  V30 6674 H 638.04 0.663712 0.0195474 0
M  V30 6675 H 640.57 1.966 -0.566519 0
M  V30 6676 H 640.58 4.00311 0.788338 0
M  V30 6677 H 639.255 4.14379 -0.355397 0
M  V30 6678 H 637.832 3.47605 1.35 0
M  V30 6679 N 640.017 0.126909 1.57088 0
M  V30 6680 C 641.265 -0.528123 1.95078 0
M  V30 6681 C 641.586 -1.66708 1.0116 0
M  V30 6682 O 640.856 -1.95777 0.0693527 0
M  V30 6683 H 639.436 -0.198087 0.720257 0
M  V30 6684 H 642.098 0.197703 1.93895 0
M  V30 6685 H 641.194 -0.917507 2.98309 0
M  V30 6686 N 641.495 -1.56914 -0.146875 0
M  V30 6687 C 642.772 -1.74273 -0.888165 0
M  V30 6688 C 643.152 -0.69496 -1.99333 0
M  V30 6689 O 642.5 0.286093 -2.26702 0
M  V30 6690 C 642.71 -3.18336 -1.43051 0
M  V30 6691 C 644.058 -3.80024 -1.89387 0
M  V30 6692 O 645.082 -3.21765 -1.52792 0
M  V30 6693 O 643.941 -4.82367 -2.56874 0
M  V30 6694 H 641.035 -0.712565 -0.419738 0
M  V30 6695 H 643.581 -1.6918 -0.132791 0
M  V30 6696 H 642.353 -3.86092 -0.636274 0
M  V30 6697 H 641.976 -3.27854 -2.24938 0
M  V30 6698 N 642.974 0.416227 -1.52004 0
M  V30 6699 C 644.199 1.19029 -1.69843 0
M  V30 6700 C 644.624 1.83708 -0.404103 0
M  V30 6701 O 643.982 1.69711 0.637787 0
M  V30 6702 C 644.03 2.23439 -2.83032 0
M  V30 6703 O 643.134 3.29419 -2.48106 0
M  V30 6704 H 642.475 0.347785 -0.565634 0
M  V30 6705 H 645.005 0.488871 -1.98674 0
M  V30 6706 H 645.015 2.67884 -3.07737 0
M  V30 6707 H 643.69 1.75745 -3.76944 0
M  V30 6708 H 642.267 2.90303 -2.34048 0
M  V30 6709 N 644.452 1.42507 0.673017 0
M  V30 6710 C 645.382 1.48916 1.79851 0
M  V30 6711 C 646.363 0.345566 1.66553 0
M  V30 6712 O 647.548 0.560116 1.85947 0
M  V30 6713 C 644.678 1.39258 3.18158 0
M  V30 6714 C 643.632 2.51662 3.46194 0
M  V30 6715 C 642.958 2.27062 4.84094 0
M  V30 6716 C 644.258 3.93968 3.42909 0
M  V30 6717 H 645.952 2.43114 1.74745 0
M  V30 6718 H 643.498 1.17013 0.839288 0
M  V30 6719 H 645.451 1.42349 3.96629 0
M  V30 6720 H 644.175 0.415542 3.23946 0
M  V30 6721 H 642.834 2.47891 2.70084 0
M  V30 6722 H 642.482 1.27648 4.86534 0
M  V30 6723 H 642.182 3.02398 5.03815 0
M  V30 6724 H 643.706 2.31905 5.64847 0
M  V30 6725 H 645.12 3.99332 4.11347 0
M  V30 6726 H 643.517 4.6917 3.74165 0
M  V30 6727 H 644.587 4.20512 2.41449 0
M  V30 6728 N 645.93 -0.909495 1.28709 0
M  V30 6729 C 647.346 -1.18862 1.06508 0
M  V30 6730 C 647.546 -2.00604 -0.189864 0
M  V30 6731 O 646.602 -2.36281 -0.890355 0
M  V30 6732 C 647.915 -1.91908 2.31499 0
M  V30 6733 C 649.463 -2.04773 2.36721 0
M  V30 6734 C 649.938 -2.81228 3.6149 0
M  V30 6735 N 651.429 -2.88787 3.62155 0
M  V30 6736 C 652.164 -3.48455 4.55375 0
M  V30 6737 N 651.66 -4.09369 5.58918 0
M  V30 6738 N 653.453 -3.46035 4.42963 0
M  V30 6739 H 645.604 -0.363867 2.0926 0
M  V30 6740 H 647.867 -0.223649 0.921241 0
M  V30 6741 H 647.573 -1.39275 3.22948 0
M  V30 6742 H 647.447 -2.92436 2.38245 0
M  V30 6743 H 649.834 -2.56585 1.45767 0
M  V30 6744 H 649.915 -1.03408 2.33967 0
M  V30 6745 H 649.559 -2.30094 4.5279 0
M  V30 6746 H 649.489 -3.82917 3.61499 0
M  V30 6747 H 651.98 -2.45514 2.87283 0
M  V30 6748 H 652.293 -4.52891 6.26187 0
M  V30 6749 H 650.638 -4.0786 5.62739 0
M  V30 6750 H 653.829 -2.9766 3.6127 0
M  V30 6751 H 654.002 -3.92244 5.15799 0
M  V30 6752 N 647.408 -1.11026 -1.11852 0
M  V30 6753 C 648.633 -0.879064 -1.87849 0
M  V30 6754 C 649.058 0.565406 -1.79401 0
M  V30 6755 O 648.416 1.39886 -1.15333 0
M  V30 6756 C 648.464 -1.33985 -3.34784 0
M  V30 6757 O 647.568 -0.508803 -4.09249 0
M  V30 6758 H 646.909 -0.316992 -0.583448 0
M  V30 6759 H 649.439 -1.47863 -1.41413 0
M  V30 6760 H 649.449 -1.33248 -3.85628 0
M  V30 6761 H 648.124 -2.39172 -3.40249 0
M  V30 6762 H 646.701 -0.581913 -3.68332 0
M  V30 6763 N 648.886 1.2938 -0.899927 0
M  V30 6764 C 649.819 2.25911 -0.322386 0
M  V30 6765 C 650.797 1.52447 0.565567 0
M  V30 6766 O 651.981 1.81404 0.512324 0
M  V30 6767 C 649.108 3.3436 0.540455 0
M  V30 6768 C 648.154 4.25579 -0.280211 0
M  V30 6769 S 648.987 5.08526 -1.67814 0
M  V30 6770 C 650.143 6.20476 -0.822224 0
M  V30 6771 H 650.376 2.7455 -1.1406 0
M  V30 6772 H 647.909 1.37606 -0.700285 0
M  V30 6773 H 649.867 3.97303 1.0325 0
M  V30 6774 H 648.528 2.84416 1.33291 0
M  V30 6775 H 647.721 5.02574 0.378915 0
M  V30 6776 H 647.323 3.67287 -0.705405 0
M  V30 6777 H 649.615 6.77485 -0.0457138 0
M  V30 6778 H 650.558 6.90606 -1.56426 0
M  V30 6779 H 650.966 5.63243 -0.37651 0
M  V30 6780 N 650.364 0.662433 1.43002 0
M  V30 6781 C 651.589 0.186003 2.06564 0
M  V30 6782 C 652.014 -1.14314 1.49379 0
M  V30 6783 O 651.372 -1.70824 0.607346 0
M  V30 6784 C 651.42 0.118269 3.60406 0
M  V30 6785 O 650.524 -0.916859 4.02079 0
M  V30 6786 H 649.865 0.0990981 0.656563 0
M  V30 6787 H 652.395 0.907958 1.8335 0
M  V30 6788 H 652.405 -0.0619981 4.07953 0
M  V30 6789 H 651.08 1.08849 4.01403 0
M  V30 6790 H 649.657 -0.708635 3.66105 0
M  V30 6791 N 651.842 -1.52309 0.404946 0
M  V30 6792 C 653.119 -1.94237 -0.230544 0
M  V30 6793 C 653.499 -1.34154 -1.6299 0
M  V30 6794 O 652.847 -0.515713 -2.22604 0
M  V30 6795 C 653.057 -3.48166 -0.241106 0
M  V30 6796 C 654.405 -4.22074 -0.462488 0
M  V30 6797 O 655.429 -3.54754 -0.320644 0
M  V30 6798 O 654.288 -5.41443 -0.741708 0
M  V30 6799 H 651.382 -0.813766 -0.147358 0
M  V30 6800 H 653.928 -1.6333 0.460587 0
M  V30 6801 H 652.7 -3.84269 0.738467 0
M  V30 6802 H 652.323 -3.85422 -0.97651 0
M  V30 6803 N 653.32 -0.135238 -1.57019 0
M  V30 6804 C 654.731 0.387521 -1.82634 0
M  V30 6805 C 655.082 1.65528 -1.05332 0
M  V30 6806 O 654.207 2.14381 -0.294926 0
M  V30 6807 C 654.802 0.709852 -3.3128 0
M  V30 6808 C 653.361 1.17718 -3.57518 0
M  V30 6809 C 652.508 0.194183 -2.76619 0
M  V30 6810 H 655.459 -0.360126 -1.5456 0
M  V30 6811 H 655.48 1.5657 -3.46794 0
M  V30 6812 H 654.992 -0.213024 -3.87515 0
M  V30 6813 H 653.093 2.1164 -3.06658 0
M  V30 6814 H 653.206 1.11128 -4.66034 0
M  V30 6815 H 651.57 0.684478 -2.4533 0
M  V30 6816 H 652.353 -0.722076 -3.3562 0
M  V30 6817 N 654.798 1.5699 0.138552 0
M  V30 6818 C 655.761 1.97984 1.15478 0
M  V30 6819 C 656.761 0.867416 1.35398 0
M  V30 6820 O 657.951 1.13387 1.32246 0
M  V30 6821 C 655.083 2.3031 2.51337 0
M  V30 6822 H 656.276 2.88953 0.802896 0
M  V30 6823 H 653.829 1.51555 0.382189 0
M  V30 6824 H 654.564 1.42159 2.91481 0
M  V30 6825 H 654.349 3.11425 2.38237 0
M  V30 6826 H 655.839 2.62834 3.24512 0
M  V30 6827 N 656.276 -0.40816 1.52223 0
M  V30 6828 C 657.223 -1.49737 1.75635 0
M  V30 6829 C 658.193 -1.5493 0.598824 0
M  V30 6830 O 659.378 -1.71487 0.83648 0
M  V30 6831 C 656.518 -2.87174 1.91376 0
M  V30 6832 C 655.631 -2.91283 3.19027 0
M  V30 6833 C 654.766 -4.20026 3.25195 0
M  V30 6834 C 653.805 -4.18113 4.47044 0
M  V30 6835 N 652.942 -5.38429 4.50598 0
M  V30 6836 H 657.782 -1.29075 2.68596 0
M  V30 6837 H 655.319 -0.626518 1.33091 0
M  V30 6838 H 657.277 -3.66959 1.98486 0
M  V30 6839 H 655.907 -3.06329 1.01795 0
M  V30 6840 H 654.959 -2.03984 3.21084 0
M  V30 6841 H 656.271 -2.85734 4.08849 0
M  V30 6842 H 655.425 -5.08204 3.31382 0
M  V30 6843 H 654.164 -4.28271 2.33313 0
M  V30 6844 H 653.169 -3.28325 4.41002 0
M  V30 6845 H 654.394 -4.11507 5.40221 0
M  V30 6846 H 652.34 -5.4734 3.616 0
M  V30 6847 H 652.257 -5.34879 5.34266 0
M  V30 6848 H 653.525 -6.28557 4.61016 0
M  V30 6849 N 657.755 -1.42862 -0.66545 0
M  V30 6850 C 658.985 -1.47032 -1.45138 0
M  V30 6851 C 659.393 -0.0829977 -1.89018 0
M  V30 6852 O 658.736 0.914551 -1.59316 0
M  V30 6853 C 658.798 -2.34302 -2.72659 0
M  V30 6854 C 658.462 -3.82034 -2.50796 0
M  V30 6855 C 659.459 -4.73453 -2.14799 0
M  V30 6856 C 657.144 -4.26397 -2.655 0
M  V30 6857 C 659.138 -6.07228 -1.93785 0
M  V30 6858 C 656.825 -5.6023 -2.44103 0
M  V30 6859 C 657.823 -6.50462 -2.08299 0
M  V30 6860 O 657.511 -7.8182 -1.87116 0
M  V30 6861 H 657.243 -0.501969 -0.452772 0
M  V30 6862 H 659.797 -1.88137 -0.82423 0
M  V30 6863 H 658.027 -1.88063 -3.37889 0
M  V30 6864 H 659.716 -2.29818 -3.34572 0
M  V30 6865 H 660.482 -4.4046 -2.03026 0
M  V30 6866 H 656.361 -3.56448 -2.92345 0
M  V30 6867 H 659.905 -6.7762 -1.65763 0
M  V30 6868 H 655.802 -5.92793 -2.55475 0
M  V30 6869 H 656.57 -7.93274 -2.01639 0
M  V30 6870 N 659.233 0.902656 -1.29189 0
M  V30 6871 C 660.481 1.6496 -1.16758 0
M  V30 6872 C 660.802 1.92952 0.28188 0
M  V30 6873 O 660.072 1.55351 1.19344 0
M  V30 6874 H 658.652 0.611447 -0.429118 0
M  V30 6875 H 661.314 1.0825 -1.62074 0
M  V30 6876 H 660.41 2.60728 -1.71544 0
M  V30 6877 N 660.711 1.11618 1.11262 0
M  V30 6878 C 661.988 0.777876 1.79467 0
M  V30 6879 C 662.368 -0.733774 1.97937 0
M  V30 6880 O 661.716 -1.66443 1.56554 0
M  V30 6881 C 661.926 1.5431 3.13032 0
M  V30 6882 C 663.274 1.72357 3.88044 0
M  V30 6883 O 664.298 1.5075 3.22727 0
M  V30 6884 O 663.157 2.08276 5.05256 0
M  V30 6885 H 660.251 0.282018 0.777428 0
M  V30 6886 H 662.797 1.21971 1.17988 0
M  V30 6887 H 661.569 2.57132 2.94956 0
M  V30 6888 H 661.192 1.09495 3.82226 0
M  V30 6889 N 662.189 -1.289 0.906776 0
M  V30 6890 C 663.6 -1.77336 0.58384 0
M  V30 6891 C 663.951 -1.74304 -0.900697 0
M  V30 6892 O 663.076 -1.33335 -1.70443 0
M  V30 6893 C 663.671 -3.22019 1.05304 0
M  V30 6894 C 662.23 -3.68205 0.781148 0
M  V30 6895 C 661.377 -2.48837 1.22373 0
M  V30 6896 H 664.328 -1.15462 1.08877 0
M  V30 6897 H 664.349 -3.78481 0.391414 0
M  V30 6898 H 663.861 -3.24194 2.13353 0
M  V30 6899 H 661.962 -3.71497 -0.28643 0
M  V30 6900 H 662.075 -4.58675 1.384 0
M  V30 6901 H 660.439 -2.46461 0.642594 0
M  V30 6902 H 661.222 -2.53736 2.31242 0
M  V30 6903 N 663.667 -0.670007 -1.42649 0
M  V30 6904 C 664.944 -0.119451 -1.95235 0
M  V30 6905 C 665.324 1.36461 -1.61064 0
M  V30 6906 O 664.672 2.09843 -0.904329 0
M  V30 6907 C 664.882 -0.383498 -3.46887 0
M  V30 6908 C 666.23 -0.297431 -4.23557 0
M  V30 6909 O 667.254 -0.31698 -3.54787 0
M  V30 6910 O 666.113 -0.235507 -5.45992 0
M  V30 6911 H 663.207 -8.85474e-05 -0.827 0
M  V30 6912 H 665.753 -0.744406 -1.52501 0
M  V30 6913 H 664.525 -1.41174 -3.64946 0
M  V30 6914 H 664.148 0.273702 -3.96657 0
M  V30 6915 N 665.145 1.52092 -0.413018 0
M  V30 6916 C 666.095 2.23947 0.427993 0
M  V30 6917 C 667.079 1.25229 1.01027 0
M  V30 6918 O 668.271 1.50448 0.932444 0
M  V30 6919 C 665.4 3.0672 1.542 0
M  V30 6920 C 664.486 4.12851 0.970307 0
M  V30 6921 N 664.877 5.05644 0.125611 0
M  V30 6922 C 663.175 4.28404 1.24042 0
M  V30 6923 C 663.876 5.8138 -0.192876 0
M  V30 6924 N 662.852 5.41996 0.417273 0
M  V30 6925 H 666.654 2.93048 -0.223628 0
M  V30 6926 H 664.168 1.60852 -0.223664 0
M  V30 6927 H 666.165 3.56754 2.15714 0
M  V30 6928 H 664.825 2.39159 2.19621 0
M  V30 6929 H 665.836 5.17348 -0.238995 0
M  V30 6930 H 662.513 3.72071 1.89391 0
M  V30 6931 H 663.903 6.66129 -0.878762 0
M  V30 6932 N 666.623 0.143563 1.56945 0
M  V30 6933 C 667.853 -0.514699 2.00086 0
M  V30 6934 C 668.261 -1.59184 1.0226 0
M  V30 6935 O 667.604 -1.83697 0.0110514 0
M  V30 6936 C 667.666 -1.17778 3.39659 0
M  V30 6937 C 667.33 -0.245657 4.56339 0
M  V30 6938 C 668.327 0.525343 5.17239 0
M  V30 6939 C 666.012 -0.149564 5.02077 0
M  V30 6940 C 668.006 1.37992 6.22284 0
M  V30 6941 C 665.693 0.708621 6.06978 0
M  V30 6942 C 666.691 1.47197 6.6695 0
M  V30 6943 O 666.379 2.31586 7.6982 0
M  V30 6944 H 666.111 -0.138789 0.661599 0
M  V30 6945 H 668.665 0.234098 2.04062 0
M  V30 6946 H 666.895 -1.97415 3.32512 0
M  V30 6947 H 668.584 -1.73542 3.6693 0
M  V30 6948 H 669.35 0.461118 4.82803 0
M  V30 6949 H 665.229 -0.733457 4.55128 0
M  V30 6950 H 668.773 1.97621 6.69023 0
M  V30 6951 H 664.67 0.77415 6.40841 0
M  V30 6952 H 665.438 2.24796 7.87025 0
M  V30 6953 N 668.101 -1.57061 -0.130224 0
M  V30 6954 C 669.326 -1.88802 -0.858409 0
M  V30 6955 C 669.751 -0.734353 -1.73173 0
M  V30 6956 O 669.109 0.315529 -1.78533 0
M  V30 6957 C 669.157 -3.19228 -1.67708 0
M  V30 6958 O 668.261 -3.04343 -2.78297 0
M  V30 6959 H 667.602 -0.619849 -0.238083 0
M  V30 6960 H 670.132 -2.04271 -0.115995 0
M  V30 6961 H 670.142 -3.51669 -2.06864 0
M  V30 6962 H 668.817 -4.02793 -1.0359 0
M  V30 6963 H 667.394 -2.83346 -2.42425 0
M  V30 6964 N 669.579 0.400081 -1.52437 0
M  V30 6965 C 670.526 1.48803 -1.76426 0
M  V30 6966 C 671.496 1.5461 -0.607032 0
M  V30 6967 O 672.681 1.71041 -0.845563 0
M  V30 6968 C 669.821 2.86156 -1.92896 0
M  V30 6969 C 668.934 2.89587 -3.20567 0
M  V30 6970 C 668.069 4.18296 -3.27417 0
M  V30 6971 C 667.108 4.15736 -4.49255 0
M  V30 6972 N 666.245 5.36032 -4.53447 0
M  V30 6973 H 671.085 1.27649 -2.69276 0
M  V30 6974 H 668.622 0.619451 -1.33421 0
M  V30 6975 H 670.58 3.65901 -2.00429 0
M  V30 6976 H 669.21 3.05785 -1.03418 0
M  V30 6977 H 668.262 2.02278 -3.22161 0
M  V30 6978 H 669.574 2.83562 -4.10358 0
M  V30 6979 H 668.728 5.06439 -3.34072 0
M  V30 6980 H 667.467 4.27028 -2.35581 0
M  V30 6981 H 666.472 3.25982 -4.42737 0
M  V30 6982 H 667.697 4.08636 -5.42396 0
M  V30 6983 H 665.643 5.45415 -3.64498 0
M  V30 6984 H 665.56 5.32038 -5.37096 0
M  V30 6985 H 666.828 6.26104 -4.64343 0
M  V30 6986 N 671.057 1.43213 0.657864 0
M  V30 6987 C 672.473 1.26511 0.972992 0
M  V30 6988 C 672.673 0.181477 2.00681 0
M  V30 6989 O 671.729 -0.441649 2.48608 0
M  V30 6990 C 673.042 2.62784 1.46168 0
M  V30 6991 C 674.59 2.70278 1.57857 0
M  V30 6992 C 675.065 4.06958 2.10117 0
M  V30 6993 N 676.556 4.08999 2.17426 0
M  V30 6994 C 677.291 5.11585 2.58975 0
M  V30 6995 N 676.787 6.24548 2.99853 0
M  V30 6996 N 678.58 4.9894 2.58873 0
M  V30 6997 H 670.731 2.12384 -0.0263129 0
M  V30 6998 H 672.994 0.946638 0.0507992 0
M  V30 6999 H 672.7 3.43022 0.776474 0
M  V30 7000 H 672.574 2.87863 2.43751 0
M  V30 7001 H 674.961 1.90376 2.25479 0
M  V30 7002 H 675.042 2.4897 0.587179 0
M  V30 7003 H 674.686 4.87325 1.43098 0
M  V30 7004 H 674.616 4.25628 3.10078 0
M  V30 7005 H 677.107 3.27457 1.88627 0
M  V30 7006 H 677.42 6.98661 3.30292 0
M  V30 7007 H 675.765 6.28027 2.97669 0
M  V30 7008 H 678.956 4.09757 2.26311 0
M  V30 7009 H 679.129 5.79019 2.90932 0
M  V30 7010 N 672.536 -0.895792 1.29666 0
M  V30 7011 C 673.766 -1.67757 1.20586 0
M  V30 7012 C 674.174 -1.87729 -0.235432 0
M  V30 7013 O 673.517 -1.41706 -1.16898 0
M  V30 7014 C 673.579 -3.08117 1.85215 0
M  V30 7015 C 673.243 -3.1136 3.3452 0
M  V30 7016 C 674.24 -2.91217 4.30684 0
M  V30 7017 C 671.925 -3.33302 3.75786 0
M  V30 7018 C 673.919 -2.92955 5.66089 0
M  V30 7019 C 671.606 -3.3467 5.11311 0
M  V30 7020 C 672.604 -3.14519 6.06273 0
M  V30 7021 O 672.292 -3.15684 7.39323 0
M  V30 7022 H 672.024 -0.530601 0.418854 0
M  V30 7023 H 674.578 -1.12831 1.71634 0
M  V30 7024 H 672.808 -3.64661 1.28683 0
M  V30 7025 H 674.497 -3.68399 1.70403 0
M  V30 7026 H 675.263 -2.74074 4.00136 0
M  V30 7027 H 671.142 -3.48025 3.02324 0
M  V30 7028 H 674.686 -2.77145 6.40185 0
M  V30 7029 H 670.583 -3.51346 5.41504 0
M  V30 7030 H 671.351 -3.31924 7.48177 0
M  V30 7031 N 674.014 -1.12206 -1.10668 0
M  V30 7032 C 675.242 -0.898635 -1.86366 0
M  V30 7033 C 675.657 0.551991 -1.80551 0
M  V30 7034 O 675.014 1.38152 -1.19249 0
M  V30 7035 C 675.065 -1.36199 -3.34861 0
M  V30 7036 O 674.786 -2.75576 -3.40573 0
M  V30 7037 C 676.287 -1.17515 -4.2744 0
M  V30 7038 H 673.507 -0.321281 -0.589084 0
M  V30 7039 H 676.051 -1.49142 -1.39918 0
M  V30 7040 H 674.206 -0.81249 -3.78784 0
M  V30 7041 H 674.62 -2.95851 -4.33096 0
M  V30 7042 H 676.094 -1.54827 -5.29842 0
M  V30 7043 H 676.571 -0.115486 -4.39048 0
M  V30 7044 H 677.177 -1.71203 -3.89319 0
M  V30 7045 N 675.492 1.28418 -0.913599 0
M  V30 7046 C 676.74 1.94596 -0.545594 0
M  V30 7047 C 677.061 1.7227 0.913668 0
M  V30 7048 O 676.331 1.06233 1.64595 0
M  V30 7049 H 674.911 0.720065 -0.198783 0
M  V30 7050 H 677.573 1.56404 -1.16292 0
M  V30 7051 H 676.669 3.03202 -0.739911 0
M  V30 7052 N 676.97 0.677563 1.42291 0
M  V30 7053 C 678.198 0.209459 2.05837 0
M  V30 7054 C 678.613 -1.13444 1.50917 0
M  V30 7055 O 677.97 -1.70529 0.65008 0
M  V30 7056 C 678.021 0.138819 3.61233 0
M  V30 7057 O 677.742 1.42962 4.14118 0
M  V30 7058 C 679.243 -0.352449 4.41897 0
M  V30 7059 H 676.463 0.101209 0.663323 0
M  V30 7060 H 679.007 0.925077 1.8238 0
M  V30 7061 H 677.162 -0.527505 3.83792 0
M  V30 7062 H 677.576 1.3048 5.08011 0
M  V30 7063 H 679.05 -0.350778 5.50884 0
M  V30 7064 H 679.527 -1.3882 4.16684 0
M  V30 7065 H 680.133 0.282236 4.24362 0
M  V30 7066 N 678.448 -1.51871 0.421078 0
M  V30 7067 C 679.38 -2.25052 -0.434065 0
M  V30 7068 C 680.393 -1.28458 -1.00013 0
M  V30 7069 O 681.582 -1.54323 -0.897033 0
M  V30 7070 C 678.682 -2.97813 -1.61743 0
M  V30 7071 C 677.855 -4.21374 -1.17315 0
M  V30 7072 C 676.914 -4.76854 -2.22478 0
M  V30 7073 O 675.94 -5.39123 -1.82577 0
M  V30 7074 N 677.142 -4.59467 -3.54782 0
M  V30 7075 H 679.907 -2.99077 0.193073 0
M  V30 7076 H 677.468 -1.59972 0.249088 0
M  V30 7077 H 679.46 -3.3182 -2.31685 0
M  V30 7078 H 678.03 -2.26899 -2.15024 0
M  V30 7079 H 677.25 -3.93046 -0.3014 0
M  V30 7080 H 678.538 -5.01591 -0.853444 0
M  V30 7081 H 677.936 -4.09832 -3.89941 0
M  V30 7082 H 676.493 -4.9788 -4.20665 0
M  V30 7083 N 679.926 -0.151884 -1.56866 0
M  V30 7084 C 681.203 0.543328 -1.87902 0
M  V30 7085 C 681.583 1.82636 -1.05864 0
M  V30 7086 O 680.931 2.28028 -0.146868 0
M  V30 7087 C 681.141 0.804056 -3.39611 0
M  V30 7088 C 682.489 1.14267 -4.08935 0
M  V30 7089 O 683.513 0.893248 -3.44818 0
M  V30 7090 O 682.372 1.61229 -5.22176 0
M  V30 7091 H 679.466 0.277724 -0.778973 0
M  V30 7092 H 682.012 -0.188862 -1.68646 0
M  V30 7093 H 680.784 -0.103772 -3.91162 0
M  V30 7094 H 680.407 1.59025 -3.64413 0
M  V30 7095 N 681.404 1.57128 0.121893 0
M  V30 7096 C 682.352 2.01109 1.16868 0
M  V30 7097 C 683.346 0.907532 1.43039 0
M  V30 7098 O 684.552 1.09274 1.43036 0
M  V30 7099 H 680.927 0.640539 0.393971 0
M  V30 7100 H 682.898 2.88261 0.771224 0
M  V30 7101 C 681.647 2.42887 2.48799 0
M  V30 7102 H 680.97 3.2737 2.29498 0
M  V30 7103 H 682.41 2.77461 3.20611 0
M  V30 7104 C 680.869 1.29137 3.11168 0
M  V30 7105 O 681.399 0.605756 3.97106 0
M  V30 7106 N 679.605 1.04916 2.71 0
M  V30 7107 H 679.152 1.60848 2.01211 0
M  V30 7108 H 679.11 0.290016 3.1306 0
M  V30 7109 N 682.882 -0.391992 1.52647 0
M  V30 7110 C 684.13 -1.13507 1.67214 0
M  V30 7111 C 684.451 -1.90575 0.41304 0
M  V30 7112 O 683.721 -1.87348 -0.572498 0
M  V30 7113 H 682.301 -0.422013 0.616372 0
M  V30 7114 H 684.963 -0.44502 1.89751 0
M  V30 7115 H 684.059 -1.83964 2.52118 0
M  V30 7116 N 684.36 -1.4356 -0.65026 0
M  V30 7117 C 685.608 -1.45046 -1.40734 0
M  V30 7118 C 685.929 -0.0769822 -1.94848 0
M  V30 7119 O 685.199 0.888098 -1.74613 0
M  V30 7120 H 683.779 -0.534034 -0.522318 0
M  V30 7121 H 686.441 -1.79186 -0.766703 0
M  V30 7122 H 685.537 -2.16476 -2.24822 0
M  V30 7123 N 685.838 0.888903 -1.30139 0
M  V30 7124 C 687.084 1.6428 -1.18912 0
M  V30 7125 C 687.417 1.92499 0.256477 0
M  V30 7126 O 686.692 1.54312 1.18397 0
M  V30 7127 C 686.975 2.9851 -2.01405 0
M  V30 7128 C 686.828 2.77288 -3.54163 0
M  V30 7129 C 688.147 3.99383 -1.84882 0
M  V30 7130 H 685.266 0.596148 -0.433333 0
M  V30 7131 H 687.908 1.0289 -1.5973 0
M  V30 7132 H 686.058 3.50907 -1.66722 0
M  V30 7133 H 687.73 2.31709 -3.98884 0
M  V30 7134 H 685.973 2.11867 -3.78543 0
M  V30 7135 H 686.644 3.72717 -4.07168 0
M  V30 7136 H 689.12 3.56132 -2.15196 0
M  V30 7137 H 687.996 4.91222 -2.44934 0
M  V30 7138 H 688.257 4.34674 -0.806902 0
M  V30 7139 N 687.317 1.12792 1.10072 0
M  V30 7140 C 688.267 0.768086 2.14673 0
M  V30 7141 C 689.251 -0.234716 1.59179 0
M  V30 7142 O 690.443 -0.039643 1.76956 0
M  V30 7143 C 687.572 0.228472 3.42539 0
M  V30 7144 C 686.658 1.25979 4.04957 0
M  V30 7145 N 687.049 2.4586 4.42025 0
M  V30 7146 C 685.347 1.10602 4.32069 0
M  V30 7147 C 686.048 3.11747 4.9111 0
M  V30 7148 N 685.024 2.39185 4.88151 0
M  V30 7149 H 688.826 1.68029 2.4113 0
M  V30 7150 H 686.34 1.00925 1.27232 0
M  V30 7151 H 688.337 -0.0475216 4.16873 0
M  V30 7152 H 686.997 -0.678136 3.1754 0
M  V30 7153 H 688.008 2.83215 4.33601 0
M  V30 7154 H 684.685 0.257021 4.16708 0
M  V30 7155 H 686.075 4.13862 5.29309 0
M  V30 7156 N 688.795 -1.27931 0.920396 0
M  V30 7157 C 690.044 -1.93975 0.552867 0
M  V30 7158 C 690.357 -1.73193 -0.909035 0
M  V30 7159 O 691.563 -2.33515 -1.38502 0
M  V30 7160 C 690.019 -3.47463 0.937947 0
M  V30 7161 C 689.627 -3.77013 2.42003 0
M  V30 7162 C 691.371 -4.19628 0.64132 0
M  V30 7163 C 689.278 -5.23841 2.74489 0
M  V30 7164 H 688.208 -0.726146 0.203046 0
M  V30 7165 H 690.859 -1.45339 1.12022 0
M  V30 7166 H 689.241 -3.94867 0.299317 0
M  V30 7167 H 690.415 -3.40393 3.10595 0
M  V30 7168 H 688.73 -3.18035 2.6878 0
M  V30 7169 H 691.327 -5.27729 0.860622 0
M  V30 7170 H 691.67 -4.14164 -0.421168 0
M  V30 7171 H 692.203 -3.78022 1.23872 0
M  V30 7172 H 688.942 -5.34388 3.79618 0
M  V30 7173 H 688.462 -5.61634 2.1054 0
M  V30 7174 H 690.141 -5.91647 2.61845 0
M  V30 7175 N 690.273 -0.685099 -1.4193 0
M  V30 7176 C 691.221 -0.00165985 -2.326 0
M  V30 7177 C 692.215 0.779678 -1.50391 0
M  V30 7178 O 693.421 0.68648 -1.66395 0
M  V30 7179 H 689.796 0.0182616 -0.751778 0
M  V30 7180 H 691.767 -0.783592 -2.87928 0
M  V30 7181 C 690.516 0.928385 -3.35077 0
M  V30 7182 H 689.839 0.336578 -3.98381 0
M  V30 7183 H 691.279 1.37509 -4.01083 0
M  V30 7184 C 689.738 2.03964 -2.68142 0
M  V30 7185 O 690.268 3.12727 -2.5212 0
M  V30 7186 N 688.474 1.81433 -2.27003 0
M  V30 7187 H 688.021 0.929807 -2.40234 0
M  V30 7188 H 687.979 2.55973 -1.82552 0
M  V30 7189 N 691.751 1.51645 -0.429126 0
M  V30 7190 C 692.976 2.06917 0.141399 0
M  V30 7191 C 693.401 1.29527 1.36398 0
M  V30 7192 O 692.759 0.33094 1.78254 0
M  V30 7193 C 692.807 3.57776 0.4504 0
M  V30 7194 O 691.911 3.82639 1.53821 0
M  V30 7195 H 691.252 0.663978 0.0054647 0
M  V30 7196 H 693.782 1.95355 -0.608093 0
M  V30 7197 H 693.792 4.01894 0.703249 0
M  V30 7198 H 692.467 4.13532 -0.443213 0
M  V30 7199 H 691.044 3.5039 1.27597 0
M  V30 7200 N 693.229 0.160201 1.56784 0
M  V30 7201 C 694.477 -0.486625 1.96154 0
M  V30 7202 C 694.798 -1.64525 1.04673 0
M  V30 7203 O 694.068 -1.95586 0.110864 0
M  V30 7204 H 692.648 -0.182764 0.724297 0
M  V30 7205 H 695.31 0.238787 1.93432 0
M  V30 7206 H 694.406 -0.854025 3.00188 0
M  V30 7207 N 694.707 -1.5719 -0.113559 0
M  V30 7208 C 695.956 -1.84325 -0.818984 0
M  V30 7209 C 696.269 -0.746685 -1.80787 0
M  V30 7210 O 697.475 -0.904596 -2.55987 0
M  V30 7211 C 695.931 -3.26818 -1.50724 0
M  V30 7212 C 695.539 -4.44498 -0.559065 0
M  V30 7213 C 697.283 -3.63196 -2.19748 0
M  V30 7214 C 695.19 -5.7802 -1.25086 0
M  V30 7215 H 694.12 -0.687507 -0.309596 0
M  V30 7216 H 696.771 -1.8336 -0.0717621 0
M  V30 7217 H 695.153 -3.22269 -2.30128 0
M  V30 7218 H 696.327 -4.60356 0.202146 0
M  V30 7219 H 694.642 -4.16393 0.024495 0
M  V30 7220 H 697.239 -4.60226 -2.72206 0
M  V30 7221 H 697.582 -2.90899 -2.97798 0
M  V30 7222 H 698.115 -3.69553 -1.47226 0
M  V30 7223 H 694.854 -6.53501 -0.511539 0
M  V30 7224 H 694.374 -5.66038 -1.98395 0
M  V30 7225 H 696.053 -6.2196 -1.78253 0
M  V30 7226 N 696.185 0.383891 -1.52853 0
M  V30 7227 C 697.434 1.12563 -1.67369 0
M  V30 7228 C 697.747 1.90982 -0.422533 0
M  V30 7229 O 698.953 2.6778 -0.447914 0
M  V30 7230 C 697.409 2.05011 -2.95801 0
M  V30 7231 C 697.017 1.31991 -4.28115 0
M  V30 7232 C 698.761 2.79289 -3.19684 0
M  V30 7233 C 696.668 2.23235 -5.4765 0
M  V30 7234 H 695.598 0.42391 -0.623552 0
M  V30 7235 H 698.249 0.388016 -1.79351 0
M  V30 7236 H 696.631 2.82429 -2.77578 0
M  V30 7237 H 697.805 0.597633 -4.56908 0
M  V30 7238 H 696.12 0.696517 -4.10533 0
M  V30 7239 H 698.717 3.47749 -4.06171 0
M  V30 7240 H 699.06 3.43649 -2.3497 0
M  V30 7241 H 699.593 2.08962 -3.38496 0
M  V30 7242 H 696.332 1.63482 -6.34786 0
M  V30 7243 H 695.852 2.93364 -5.23161 0
M  V30 7244 H 697.531 2.83205 -5.81725 0
M  V30 7245 N 697.663 1.43903 0.642637 0
M  V30 7246 C 698.611 1.50164 1.77634 0
M  V30 7247 C 699.605 0.374294 1.65213 0
M  V30 7248 O 700.811 0.548748 1.71431 0
M  V30 7249 H 697.186 0.470974 0.586249 0
M  V30 7250 H 699.157 2.45603 1.69474 0
M  V30 7251 C 697.906 1.45196 3.15933 0
M  V30 7252 H 697.229 2.31253 3.26132 0
M  V30 7253 H 698.669 1.53638 3.95185 0
M  V30 7254 C 697.128 0.171043 3.36466 0
M  V30 7255 O 697.658 -0.763413 3.94379 0
M  V30 7256 N 695.864 0.077847 2.90496 0
M  V30 7257 H 695.411 0.8391 2.43551 0
M  V30 7258 H 695.369 -0.778473 3.0461 0
M  V30 7259 N 699.141 -0.881989 1.30609 0
M  V30 7260 C 700.088 -1.98803 1.17244 0
M  V30 7261 C 701.058 -1.65987 0.0611905 0
M  V30 7262 O 702.243 -1.89385 0.231911 0
M  V30 7263 C 699.383 -3.33867 0.87333 0
M  V30 7264 C 698.496 -3.79354 2.06675 0
M  V30 7265 C 697.631 -5.03078 1.70547 0
M  V30 7266 C 696.67 -5.40981 2.86366 0
M  V30 7267 N 695.807 -6.55886 2.50514 0
M  V30 7268 H 700.647 -2.09566 2.11863 0
M  V30 7269 H 698.184 -1.02607 1.05405 0
M  V30 7270 H 700.142 -4.11612 0.680519 0
M  V30 7271 H 698.772 -3.2278 -0.0359983 0
M  V30 7272 H 697.824 -2.97492 2.37071 0
M  V30 7273 H 699.136 -4.03382 2.93401 0
M  V30 7274 H 698.29 -5.88457 1.47658 0
M  V30 7275 H 697.029 -4.80927 0.809947 0
M  V30 7276 H 696.034 -4.54127 3.09917 0
M  V30 7277 H 697.259 -5.65104 3.76609 0
M  V30 7278 H 695.205 -6.35306 1.63471 0
M  V30 7279 H 695.122 -6.79799 3.30771 0
M  V30 7280 H 696.39 -7.44489 2.30989 0
M  V30 7281 N 700.619 -1.13374 -1.09472 0
M  V30 7282 C 701.582 -0.813639 -2.14272 0
M  V30 7283 C 702.582 0.176677 -1.59826 0
M  V30 7284 O 703.772 -0.0503441 -1.74127 0
M  V30 7285 C 700.904 -0.210897 -3.40247 0
M  V30 7286 H 702.097 -1.74229 -2.44099 0
M  V30 7287 H 699.65 -0.938304 -1.25002 0
M  V30 7288 H 700.385 0.726998 -3.16046 0
M  V30 7289 H 700.17 -0.924048 -3.81056 0
M  V30 7290 H 701.66 -0.00377603 -4.176 0
M  V30 7291 N 702.098 1.27442 -0.927168 0
M  V30 7292 C 703.061 2.2512 -0.430525 0
M  V30 7293 C 704.061 1.54357 0.450619 0
M  V30 7294 O 705.251 1.72371 0.251774 0
M  V30 7295 C 702.383 3.38763 0.381144 0
M  V30 7296 H 703.576 2.70569 -1.29354 0
M  V30 7297 H 701.129 1.39355 -0.707806 0
M  V30 7298 H 701.864 2.98695 1.263 0
M  V30 7299 H 701.649 3.91298 -0.250618 0
M  V30 7300 H 703.139 4.11364 0.719012 0
M  V30 7301 N 703.576 0.692616 1.41565 0
M  V30 7302 C 704.806 0.230943 2.05305 0
M  V30 7303 C 705.214 -1.12379 1.52209 0
M  V30 7304 O 704.557 -1.71281 0.663968 0
M  V30 7305 C 704.619 0.107894 3.59338 0
M  V30 7306 C 704.283 1.39419 4.35214 0
M  V30 7307 C 705.28 2.33143 4.64694 0
M  V30 7308 C 702.965 1.64674 4.74539 0
M  V30 7309 C 704.959 3.50385 5.32456 0
M  V30 7310 C 702.646 2.82202 5.42038 0
M  V30 7311 C 703.644 3.74881 5.70923 0
M  V30 7312 O 703.332 4.90351 6.37033 0
M  V30 7313 H 703.064 0.105708 0.667684 0
M  V30 7314 H 705.618 0.94488 1.82376 0
M  V30 7315 H 703.848 -0.661785 3.80995 0
M  V30 7316 H 705.537 -0.316213 4.04666 0
M  V30 7317 H 706.303 2.14887 4.34797 0
M  V30 7318 H 702.182 0.934007 4.51439 0
M  V30 7319 H 705.726 4.22743 5.54918 0
M  V30 7320 H 701.623 3.00376 5.71353 0
M  V30 7321 H 702.391 4.90128 6.55528 0
M  V30 7322 N 705.054 -1.51416 0.437162 0
M  V30 7323 C 705.984 -2.30631 -0.364922 0
M  V30 7324 C 706.965 -1.36037 -1.02118 0
M  V30 7325 O 708.15 -1.64956 -1.02485 0
M  V30 7326 C 705.28 -3.1482 -1.46648 0
M  V30 7327 C 704.234 -4.17691 -0.933717 0
M  V30 7328 C 703.56 -4.904 -2.13101 0
M  V30 7329 C 704.86 -5.2229 0.0317201 0
M  V30 7330 H 706.554 -2.97932 0.29614 0
M  V30 7331 H 704.1 -1.4328 0.143865 0
M  V30 7332 H 706.053 -3.69017 -2.03481 0
M  V30 7333 H 704.777 -2.4534 -2.15583 0
M  V30 7334 H 703.436 -3.64545 -0.387602 0
M  V30 7335 H 703.084 -4.17423 -2.80654 0
M  V30 7336 H 702.784 -5.59962 -1.78092 0
M  V30 7337 H 704.308 -5.4742 -2.70487 0
M  V30 7338 H 705.722 -5.7156 -0.446302 0
M  V30 7339 H 704.119 -5.99378 0.29437 0
M  V30 7340 H 705.189 -4.75131 0.968447 0
M  V30 7341 N 706.532 -0.168513 -1.56696 0
M  V30 7342 C 707.781 0.477233 -1.95973 0
M  V30 7343 C 708.094 1.64578 -1.05704 0
M  V30 7344 O 709.3 2.35758 -1.3465 0
M  V30 7345 C 707.756 0.900413 -3.48455 0
M  V30 7346 C 707.364 -0.242382 -4.47344 0
M  V30 7347 C 709.108 1.51474 -3.96555 0
M  V30 7348 C 707.015 0.200272 -5.91061 0
M  V30 7349 H 705.945 0.182061 -0.73169 0
M  V30 7350 H 708.596 -0.256297 -1.81701 0
M  V30 7351 H 706.978 1.68984 -3.58135 0
M  V30 7352 H 708.152 -1.01967 -4.49377 0
M  V30 7353 H 706.467 -0.766484 -4.09285 0
M  V30 7354 H 709.064 1.85792 -5.01384 0
M  V30 7355 H 709.407 2.41163 -3.39332 0
M  V30 7356 H 709.94 0.789802 -3.89881 0
M  V30 7357 H 706.679 -0.661775 -6.52151 0
M  V30 7358 H 706.199 0.942979 -5.92341 0
M  V30 7359 H 707.878 0.645088 -6.43776 0
M  V30 7360 N 708.01 1.57248 0.105221 0
M  V30 7361 C 709.235 1.90143 0.828264 0
M  V30 7362 C 709.66 0.761811 1.71983 0
M  V30 7363 O 709.018 -0.287086 1.79013 0
M  V30 7364 C 709.066 3.21856 1.62608 0
M  V30 7365 O 708.17 3.08732 2.7342 0
M  V30 7366 H 707.511 0.623558 0.228192 0
M  V30 7367 H 710.041 2.0443 0.0834826 0
M  V30 7368 H 710.051 3.54916 2.01243 0
M  V30 7369 H 708.726 4.0439 0.971687 0
M  V30 7370 H 707.303 2.87167 2.37886 0
M  V30 7371 N 709.488 -0.375779 1.53054 0
M  V30 7372 C 710.42 -1.47963 1.75042 0
M  V30 7373 C 711.433 -1.50073 0.631031 0
M  V30 7374 O 712.622 -1.53736 0.907052 0
M  V30 7375 C 709.722 -2.86767 1.80604 0
M  V30 7376 C 708.895 -3.08471 3.10104 0
M  V30 7377 C 707.954 -4.27332 3.07041 0
M  V30 7378 O 706.98 -4.22998 3.80869 0
M  V30 7379 N 708.182 -5.34214 2.27147 0
M  V30 7380 H 710.947 -1.29484 2.70285 0
M  V30 7381 H 708.508 -0.565416 1.51706 0
M  V30 7382 H 710.5 -3.64404 1.76045 0
M  V30 7383 H 709.07 -2.98542 0.926897 0
M  V30 7384 H 708.29 -2.18583 3.28048 0
M  V30 7385 H 709.578 -3.19834 3.95706 0
M  V30 7386 H 708.976 -5.40594 1.66656 0
M  V30 7387 H 707.533 -6.10467 2.28415 0
M  V30 7388 N 710.966 -1.44241 -0.634997 0
M  V30 7389 C 712.214 -1.46531 -1.39187 0
M  V30 7390 C 712.535 -0.0976441 -1.94755 0
M  V30 7391 O 711.805 0.869528 -1.75545 0
M  V30 7392 H 710.385 -0.539544 -0.516625 0
M  V30 7393 H 713.047 -1.79989 -0.747655 0
M  V30 7394 H 712.143 -2.18848 -2.22513 0
M  V30 7395 N 712.444 0.87505 -1.31075 0
M  V30 7396 C 713.692 1.62447 -1.20231 0
M  V30 7397 C 714.013 1.93506 0.240888 0
M  V30 7398 O 713.283 1.57847 1.16022 0
M  V30 7399 H 711.863 0.602207 -0.441991 0
M  V30 7400 H 714.525 1.04788 -1.64334 0
M  V30 7401 H 713.621 2.57031 -1.77036 0
M  V30 7402 N 713.922 1.13953 1.08869 0
M  V30 7403 C 715.15 0.92817 1.84912 0
M  V30 7404 C 715.565 -0.523197 1.81406 0
M  V30 7405 O 714.922 -1.36237 1.21432 0
M  V30 7406 C 714.973 1.41509 3.32652 0
M  V30 7407 O 714.694 2.80959 3.36145 0
M  V30 7408 C 716.195 1.243 4.25517 0
M  V30 7409 H 713.415 0.330612 0.583898 0
M  V30 7410 H 715.959 1.51349 1.37527 0
M  V30 7411 H 714.114 0.872648 3.77444 0
M  V30 7412 H 714.528 3.02704 4.28335 0
M  V30 7413 H 716.002 1.63237 5.27312 0
M  V30 7414 H 716.479 0.18532 4.38809 0
M  V30 7415 H 717.085 1.77375 3.86546 0
M  V30 7416 N 715.4 -1.26948 0.933913 0
M  V30 7417 C 716.35 -2.24306 0.408779 0
M  V30 7418 C 717.334 -1.53243 -0.490435 0
M  V30 7419 O 718.526 -1.73956 -0.326866 0
M  V30 7420 C 715.655 -3.41695 -0.331578 0
M  V30 7421 C 714.741 -4.20053 0.58451 0
M  V30 7422 N 715.132 -4.76122 1.70709 0
M  V30 7423 C 713.43 -4.44303 0.388703 0
M  V30 7424 C 714.131 -5.35267 2.27737 0
M  V30 7425 N 713.107 -5.20548 1.56622 0
M  V30 7426 H 716.909 -2.65244 1.26582 0
M  V30 7427 H 714.423 -1.4195 0.788919 0
M  V30 7428 H 716.42 -4.10552 -0.724774 0
M  V30 7429 H 715.08 -3.02286 -1.18547 0
M  V30 7430 H 716.091 -4.73884 2.08937 0
M  V30 7431 H 712.768 -4.15341 -0.424016 0
M  V30 7432 H 714.158 -5.89563 3.22282 0
M  V30 7433 N 716.879 -0.700114 -1.41195 0
M  V30 7434 C 718.109 -0.241828 -2.0518 0
M  V30 7435 C 718.517 1.1157 -1.52803 0
M  V30 7436 O 717.86 1.70926 -0.673042 0
M  V30 7437 C 717.922 -0.12695 -3.59276 0
M  V30 7438 C 717.586 -1.41725 -4.34469 0
M  V30 7439 C 718.583 -2.35604 -4.63451 0
M  V30 7440 C 716.268 -1.67189 -4.73659 0
M  V30 7441 C 718.262 -3.53204 -5.3059 0
M  V30 7442 C 715.949 -2.85073 -5.40534 0
M  V30 7443 C 716.947 -3.77904 -5.68927 0
M  V30 7444 O 716.635 -4.93723 -6.34424 0
M  V30 7445 H 716.367 -0.109247 -0.667114 0
M  V30 7446 H 718.921 -0.954538 -1.81873 0
M  V30 7447 H 717.151 0.641571 -3.81341 0
M  V30 7448 H 718.84 0.294748 -4.04828 0
M  V30 7449 H 719.606 -2.1719 -4.33651 0
M  V30 7450 H 715.485 -0.957935 -4.50937 0
M  V30 7451 H 719.029 -4.25679 -5.52669 0
M  V30 7452 H 714.926 -3.03402 -5.69752 0
M  V30 7453 H 715.694 -4.93597 -6.5292 0
M  V30 7454 N 718.357 1.51182 -0.445186 0
M  V30 7455 C 719.605 2.01753 0.11841 0
M  V30 7456 C 719.926 1.33087 1.42523 0
M  V30 7457 O 719.196 0.467891 1.9023 0
M  V30 7458 H 717.776 0.745536 0.0467492 0
M  V30 7459 H 720.438 1.85765 -0.589688 0
M  V30 7460 H 719.534 3.10762 0.288665 0
M  V30 7461 N 719.835 0.176821 1.56605 0
M  V30 7462 C 721.081 -0.467406 1.9734 0
M  V30 7463 C 721.414 -1.62523 1.06301 0
M  V30 7464 O 720.689 -1.94182 0.11125 0
M  V30 7465 C 720.972 -0.945106 3.47476 0
M  V30 7466 C 720.825 0.213273 4.49294 0
M  V30 7467 C 722.144 -1.8169 4.00845 0
M  V30 7468 H 719.263 -0.168426 0.717497 0
M  V30 7469 H 721.905 0.264065 1.88156 0
M  V30 7470 H 720.055 -1.56841 3.55434 0
M  V30 7471 H 721.727 0.850508 4.53392 0
M  V30 7472 H 719.97 0.867918 4.25029 0
M  V30 7473 H 720.641 -0.163187 5.51759 0
M  V30 7474 H 723.117 -1.29139 3.95553 0
M  V30 7475 H 721.993 -2.12015 5.06301 0
M  V30 7476 H 722.254 -2.76463 3.44994 0
M  V30 7477 N 721.313 -1.57302 -0.09688 0
M  V30 7478 C 722.538 -1.9058 -0.818169 0
M  V30 7479 C 722.963 -0.770921 -1.71576 0
M  V30 7480 O 722.321 0.277588 -1.79162 0
M  V30 7481 C 722.369 -3.22714 -1.60898 0
M  V30 7482 O 721.473 -3.10178 -2.71779 0
M  V30 7483 H 720.814 -0.624759 -0.224882 0
M  V30 7484 H 723.344 -2.04471 -0.07264 0
M  V30 7485 H 723.354 -3.55978 -1.99358 0
M  V30 7486 H 722.029 -4.04899 -0.950227 0
M  V30 7487 H 720.606 -2.88424 -2.3636 0
M  V30 7488 N 722.791 0.367657 -1.53252 0
M  V30 7489 C 724.037 1.11216 -1.69584 0
M  V30 7490 C 724.37 1.89026 -0.445269 0
M  V30 7491 O 723.645 1.86342 0.557404 0
M  V30 7492 C 723.928 2.07308 -2.94441 0
M  V30 7493 C 723.781 1.3312 -4.2965 0
M  V30 7494 C 725.1 3.07459 -3.14892 0
M  V30 7495 H 722.219 0.40294 -0.617096 0
M  V30 7496 H 724.861 0.393201 -1.85887 0
M  V30 7497 H 723.011 2.68617 -2.80673 0
M  V30 7498 H 724.683 0.746111 -4.55226 0
M  V30 7499 H 722.926 0.633051 -4.29156 0
M  V30 7500 H 723.597 2.03443 -5.13142 0
M  V30 7501 H 726.073 2.56252 -3.27832 0
M  V30 7502 H 724.949 3.71919 -4.03693 0
M  V30 7503 H 725.21 3.77514 -2.30077 0
M  V30 7504 N 724.269 1.44576 0.627338 0
M  V30 7505 C 725.515 1.47777 1.38888 0
M  V30 7506 C 725.848 0.111406 1.9388 0
M  V30 7507 O 725.123 -0.87149 1.73883 0
M  V30 7508 C 725.406 2.54119 2.55138 0
M  V30 7509 C 725.259 4.00128 2.0547 0
M  V30 7510 C 726.578 2.56929 3.57317 0
M  V30 7511 H 723.697 0.538048 0.50366 0
M  V30 7512 H 726.339 1.76277 0.708978 0
M  V30 7513 H 724.489 2.29948 3.13139 0
M  V30 7514 H 726.161 4.35444 1.5227 0
M  V30 7515 H 724.404 4.11724 1.36623 0
M  V30 7516 H 725.075 4.7019 2.89181 0
M  V30 7517 H 727.551 2.78536 3.09122 0
M  V30 7518 H 726.427 3.33234 4.36173 0
M  V30 7519 H 726.688 1.6127 4.11636 0
M  V30 7520 N 725.747 -0.868086 1.31537 0
M  V30 7521 C 726.995 -1.61807 1.21091 0
M  V30 7522 C 727.316 -1.93631 -0.230623 0
M  V30 7523 O 726.586 -1.5846 -1.15183 0
M  V30 7524 H 725.166 -0.599854 0.445178 0
M  V30 7525 H 727.828 -1.03915 1.64887 0
M  V30 7526 H 726.924 -2.56088 1.78396 0
M  V30 7527 N 727.225 -1.14528 -1.08264 0
M  V30 7528 C 728.474 -0.908992 -1.80056 0
M  V30 7529 C 728.787 0.565859 -1.87236 0
M  V30 7530 O 729.993 0.919454 -2.55457 0
M  V30 7531 C 728.449 -1.57681 -3.23519 0
M  V30 7532 C 728.057 -3.08803 -3.24569 0
M  V30 7533 C 729.801 -1.4217 -3.99985 0
M  V30 7534 C 727.708 -3.68414 -4.62629 0
M  V30 7535 H 726.638 -0.336432 -0.674781 0
M  V30 7536 H 729.289 -1.37437 -1.21587 0
M  V30 7537 H 727.671 -1.03911 -3.82124 0
M  V30 7538 H 728.845 -3.69252 -2.75663 0
M  V30 7539 H 727.16 -3.23968 -2.61598 0
M  V30 7540 H 729.757 -1.84106 -5.02005 0
M  V30 7541 H 730.1 -0.367989 -4.1467 0
M  V30 7542 H 730.633 -1.92984 -3.47853 0
M  V30 7543 H 727.372 -4.73644 -4.53147 0
M  V30 7544 H 726.892 -3.12746 -5.11811 0
M  V30 7545 H 728.571 -3.68793 -5.31602 0
M  V30 7546 N 728.703 1.26451 -0.940633 0
M  V30 7547 C 729.951 1.93395 -0.586748 0
M  V30 7548 C 730.272 1.7417 0.876921 0
M  V30 7549 O 729.542 1.097 1.62304 0
M  V30 7550 H 728.122 0.715687 -0.214012 0
M  V30 7551 H 730.784 1.53902 -1.19584 0
M  V30 7552 H 729.88 3.01565 -0.804059 0
M  V30 7553 N 730.181 0.707592 1.40822 0
M  V30 7554 C 731.597 0.38034 1.55002 0
M  V30 7555 C 731.797 -1.11163 1.68062 0
M  V30 7556 O 730.853 -1.89761 1.66574 0
M  V30 7557 C 732.166 1.1394 2.78277 0
M  V30 7558 C 733.714 1.12492 2.92087 0
M  V30 7559 C 734.189 1.86597 4.18265 0
M  V30 7560 N 735.68 1.83626 4.25248 0
M  V30 7561 C 736.415 2.37794 5.21768 0
M  V30 7562 N 735.911 3.00485 6.24244 0
M  V30 7563 N 737.704 2.27982 5.13791 0
M  V30 7564 H 729.855 1.67511 1.3059 0
M  V30 7565 H 732.118 0.707579 0.630901 0
M  V30 7566 H 731.824 2.19398 2.74877 0
M  V30 7567 H 731.698 0.725793 3.70151 0
M  V30 7568 H 734.085 0.0785564 2.94995 0
M  V30 7569 H 734.166 1.57768 2.01353 0
M  V30 7570 H 733.81 2.91219 4.16118 0
M  V30 7571 H 733.74 1.38746 5.07993 0
M  V30 7572 H 736.231 1.3793 3.51829 0
M  V30 7573 H 736.544 3.39355 6.94304 0
M  V30 7574 H 734.889 3.04567 6.24711 0
M  V30 7575 H 738.08 1.78669 4.3266 0
M  V30 7576 H 738.253 2.70499 5.88841 0
M  V30 7577 N 731.66 -1.50943 0.453197 0
M  V30 7578 C 732.937 -1.94872 -0.168633 0
M  V30 7579 C 733.317 -1.39272 -1.5864 0
M  V30 7580 O 732.665 -0.586272 -2.20851 0
M  V30 7581 C 732.875 -3.48757 -0.130217 0
M  V30 7582 C 734.223 -4.23331 -0.327975 0
M  V30 7583 O 735.247 -3.55594 -0.207619 0
M  V30 7584 O 734.106 -5.43529 -0.569077 0
M  V30 7585 H 731.2 -0.818042 -0.121394 0
M  V30 7586 H 733.746 -1.61782 0.512316 0
M  V30 7587 H 732.518 -3.81725 0.860346 0
M  V30 7588 H 732.141 -3.88333 -0.853397 0
M  V30 7589 N 733.138 -0.185124 -1.56509 0
M  V30 7590 C 734.085 0.739729 -2.18624 0
M  V30 7591 C 735.055 1.217 -1.13042 0
M  V30 7592 O 736.24 1.28268 -1.41251 0
M  V30 7593 C 733.38 1.95787 -2.84186 0
M  V30 7594 C 732.493 1.52289 -4.04267 0
M  V30 7595 C 731.628 2.69576 -4.57714 0
M  V30 7596 C 730.667 2.22636 -5.70175 0
M  V30 7597 N 729.804 3.33065 -6.18071 0
M  V30 7598 H 734.644 0.203269 -2.97306 0
M  V30 7599 H 732.181 0.0885946 -1.46833 0
M  V30 7600 H 734.139 2.67253 -3.20361 0
M  V30 7601 H 732.769 2.4678 -2.08085 0
M  V30 7602 H 731.821 0.704458 -3.7382 0
M  V30 7603 H 733.133 1.13843 -4.85635 0
M  V30 7604 H 732.287 3.4918 -4.96143 0
M  V30 7605 H 731.026 3.1129 -3.75433 0
M  V30 7606 H 730.031 1.41483 -5.31284 0
M  V30 7607 H 731.256 1.81964 -6.54267 0
M  V30 7608 H 729.202 3.74328 -5.38715 0
M  V30 7609 H 729.119 2.98756 -6.94464 0
M  V30 7610 H 730.387 4.12912 -6.61153 0
M  V30 7611 N 734.616 1.57351 0.0885366 0
M  V30 7612 C 735.546 2.05561 1.10757 0
M  V30 7613 C 736.527 0.945789 1.41382 0
M  V30 7614 O 737.712 1.21747 1.51299 0
M  V30 7615 C 734.842 2.48554 2.42566 0
M  V30 7616 C 733.796 3.63259 2.26334 0
M  V30 7617 C 733.122 3.9225 3.63378 0
M  V30 7618 C 734.422 4.93913 1.69844 0
M  V30 7619 H 736.116 2.90946 0.706468 0
M  V30 7620 H 733.662 1.39968 0.338385 0
M  V30 7621 H 735.615 2.8089 3.14132 0
M  V30 7622 H 734.339 1.60176 2.84625 0
M  V30 7623 H 732.998 3.31179 1.57213 0
M  V30 7624 H 732.646 3.0103 4.02976 0
M  V30 7625 H 732.346 4.69478 3.53362 0
M  V30 7626 H 733.87 4.27067 4.36401 0
M  V30 7627 H 735.284 5.24588 2.31258 0
M  V30 7628 H 733.681 5.75349 1.70569 0
M  V30 7629 H 734.751 4.80409 0.65843 0
M  V30 7630 N 736.094 -0.359525 1.53444 0
M  V30 7631 C 737.342 -1.09935 1.69584 0
M  V30 7632 C 737.663 -1.89656 0.453371 0
M  V30 7633 O 736.933 -1.8852 -0.53263 0
M  V30 7634 H 735.513 -0.408843 0.625185 0
M  V30 7635 H 738.175 -0.40467 1.90653 0
M  V30 7636 H 737.271 -1.78575 2.55964 0
M  V30 7637 N 737.572 -1.44907 -0.619662 0
M  V30 7638 C 738.519 -1.52654 -1.73105 0
M  V30 7639 C 739.489 -0.373334 -1.6185 0
M  V30 7640 O 740.674 -0.585143 -1.81606 0
M  V30 7641 C 737.814 -1.48769 -3.11387 0
M  V30 7642 C 736.927 -2.74551 -3.33535 0
M  V30 7643 C 736.062 -2.62421 -4.61854 0
M  V30 7644 C 735.101 -3.83312 -4.77219 0
M  V30 7645 N 734.238 -3.69789 -5.96826 0
M  V30 7646 H 739.078 -2.47605 -1.65819 0
M  V30 7647 H 736.615 -1.22875 -0.808719 0
M  V30 7648 H 738.573 -1.44507 -3.91374 0
M  V30 7649 H 737.203 -0.573783 -3.1766 0
M  V30 7650 H 736.255 -2.88953 -2.47408 0
M  V30 7651 H 737.567 -3.64253 -3.40765 0
M  V30 7652 H 736.721 -2.56056 -5.50019 0
M  V30 7653 H 735.46 -1.70298 -4.57001 0
M  V30 7654 H 734.465 -3.90049 -3.87481 0
M  V30 7655 H 735.69 -4.76486 -4.83878 0
M  V30 7656 H 733.636 -2.80426 -5.93041 0
M  V30 7657 H 733.553 -4.53116 -6.05163 0
M  V30 7658 H 734.821 -3.67335 -6.87521 0
M  V30 7659 N 739.05 0.861098 -1.31996 0
M  V30 7660 C 740.299 1.60965 -1.21545 0
M  V30 7661 C 740.612 1.94325 0.222972 0
M  V30 7662 O 741.818 2.67757 0.449272 0
M  V30 7663 C 740.274 2.90223 -2.12834 0
M  V30 7664 C 739.882 2.64313 -3.61722 0
M  V30 7665 C 741.626 3.68229 -2.11205 0
M  V30 7666 C 739.533 3.89532 -4.44993 0
M  V30 7667 H 738.463 0.603988 -0.451348 0
M  V30 7668 H 741.114 0.951358 -1.56912 0
M  V30 7669 H 739.496 3.57475 -1.70375 0
M  V30 7670 H 740.67 2.05413 -4.12483 0
M  V30 7671 H 738.985 1.99647 -3.65418 0
M  V30 7672 H 741.582 4.61138 -2.70658 0
M  V30 7673 H 741.925 4.01466 -1.1014 0
M  V30 7674 H 742.458 3.07873 -2.51911 0
M  V30 7675 H 739.197 3.61441 -5.46846 0
M  V30 7676 H 738.717 4.47851 -3.98985 0
M  V30 7677 H 740.396 4.57334 -4.57663 0
M  V30 7678 N 740.528 1.15101 1.07655 0
M  V30 7679 C 741.775 0.923974 1.80191 0
M  V30 7680 C 742.103 -0.549065 1.86589 0
M  V30 7681 O 741.358 -1.42307 1.3434 0
M  V30 7682 C 741.657 1.47954 3.25337 0
M  V30 7683 C 741.323 2.97253 3.39044 0
M  V30 7684 C 739.985 3.38012 3.42493 0
M  V30 7685 C 742.337 3.93219 3.42094 0
M  V30 7686 C 739.665 4.73384 3.4659 0
M  V30 7687 C 742.017 5.28458 3.47728 0
M  V30 7688 C 740.681 5.68717 3.49453 0
M  V30 7689 H 739.951 0.338106 0.659367 0
M  V30 7690 H 742.598 1.43594 1.26701 0
M  V30 7691 H 740.903 0.888691 3.81588 0
M  V30 7692 H 742.6 1.27972 3.80032 0
M  V30 7693 H 739.19 2.64746 3.37057 0
M  V30 7694 H 743.374 3.62805 3.38654 0
M  V30 7695 H 738.63 5.03925 3.46222 0
M  V30 7696 H 742.804 6.02618 3.49034 0
M  V30 7697 H 740.431 6.73596 3.5238 0
M  V30 7698 N 742.006 -1.2595 0.947325 0
M  V30 7699 C 743.236 -1.97258 0.614235 0
M  V30 7700 C 743.644 -1.70682 -0.816355 0
M  V30 7701 O 742.987 -0.97527 -1.55673 0
M  V30 7702 C 743.049 -3.50845 0.784081 0
M  V30 7703 C 742.713 -4.01084 2.19045 0
M  V30 7704 C 743.71 -4.12347 3.16648 0
M  V30 7705 C 741.395 -4.34936 2.51268 0
M  V30 7706 C 743.389 -4.56766 4.44572 0
M  V30 7707 C 741.076 -4.79043 3.79422 0
M  V30 7708 C 742.074 -4.89919 4.75887 0
M  V30 7709 O 741.762 -5.3305 6.01758 0
M  V30 7710 H 741.494 -0.635738 0.22981 0
M  V30 7711 H 744.048 -1.61268 1.27207 0
M  V30 7712 H 742.278 -3.86638 0.069101 0
M  V30 7713 H 743.967 -4.03363 0.453135 0
M  V30 7714 H 744.733 -3.86432 2.93079 0
M  V30 7715 H 740.612 -4.25702 1.76916 0
M  V30 7716 H 744.156 -4.6517 5.19868 0
M  V30 7717 H 740.053 -5.04402 4.02802 0
M  V30 7718 H 740.821 -5.51255 6.05029 0
M  V30 7719 N 743.484 -0.715051 -1.40445 0
M  V30 7720 C 744.9 -0.388555 -1.54798 0
M  V30 7721 C 745.1 1.10271 -1.68649 0
M  V30 7722 O 744.156 1.88875 -1.67578 0
M  V30 7723 C 745.469 -1.15414 -2.77669 0
M  V30 7724 C 747.017 -1.14039 -2.91486 0
M  V30 7725 C 747.492 -1.88812 -4.1727 0
M  V30 7726 N 748.983 -1.85878 -4.24268 0
M  V30 7727 C 749.718 -2.40558 -5.20499 0
M  V30 7728 N 749.214 -3.03791 -6.22642 0
M  V30 7729 N 751.007 -2.30703 -5.12574 0
M  V30 7730 H 743.158 -1.68201 -1.297 0
M  V30 7731 H 745.421 -0.710915 -0.627139 0
M  V30 7732 H 745.127 -2.20853 -2.7371 0
M  V30 7733 H 745.001 -0.745412 -3.69761 0
M  V30 7734 H 747.388 -0.0941996 -2.9495 0
M  V30 7735 H 747.469 -1.58834 -2.00513 0
M  V30 7736 H 747.113 -2.93422 -4.14568 0
M  V30 7737 H 747.043 -1.41438 -5.0725 0
M  V30 7738 H 749.534 -1.39794 -3.51093 0
M  V30 7739 H 749.847 -3.43032 -6.92495 0
M  V30 7740 H 748.192 -3.07875 -6.23087 0
M  V30 7741 H 751.383 -1.80961 -4.31707 0
M  V30 7742 H 751.556 -2.73618 -5.87398 0
M  V30 7743 N 744.962 1.50701 -0.461195 0
M  V30 7744 C 745.925 2.2686 0.326679 0
M  V30 7745 C 746.925 1.31243 0.929085 0
M  V30 7746 O 748.115 1.54754 0.799807 0
M  V30 7747 C 745.247 3.07844 1.46441 0
M  V30 7748 H 746.44 2.97954 -0.341095 0
M  V30 7749 H 743.993 1.54814 -0.214984 0
M  V30 7750 H 744.728 2.41223 2.16753 0
M  V30 7751 H 744.513 3.78101 1.03836 0
M  V30 7752 H 746.003 3.65469 2.02044 0
M  V30 7753 N 746.441 0.193421 1.56409 0
M  V30 7754 C 747.371 -0.723334 2.22014 0
M  V30 7755 C 748.352 -1.22254 1.1827 0
M  V30 7756 O 749.537 -1.27168 1.46771 0
M  V30 7757 C 746.667 -1.94366 2.87818 0
M  V30 7758 C 745.621 -1.57943 3.97791 0
M  V30 7759 C 744.947 -2.87623 4.50752 0
M  V30 7760 C 746.247 -0.790639 5.16281 0
M  V30 7761 H 747.941 -0.176426 2.9888 0
M  V30 7762 H 745.487 -0.0834166 1.43758 0
M  V30 7763 H 747.44 -2.5902 3.32396 0
M  V30 7764 H 746.164 -2.51507 2.08355 0
M  V30 7765 H 744.823 -0.956482 3.53903 0
M  V30 7766 H 744.471 -3.4285 3.68053 0
M  V30 7767 H 744.171 -2.63998 5.24956 0
M  V30 7768 H 745.695 -3.53268 4.9803 0
M  V30 7769 H 747.109 -1.34024 5.57414 0
M  V30 7770 H 745.506 -0.65258 5.96541 0
M  V30 7771 H 746.576 0.208633 4.84451 0
M  V30 7772 N 747.919 -1.57396 -0.0801906 0
M  V30 7773 C 749.147 -1.91055 -0.794075 0
M  V30 7774 C 749.562 -0.788583 -1.71542 0
M  V30 7775 O 748.919 0.238587 -1.80934 0
M  V30 7776 C 748.97 -3.24418 -1.59484 0
M  V30 7777 O 748.691 -4.323 -0.710532 0
M  V30 7778 C 750.192 -3.72037 -2.41046 0
M  V30 7779 H 747.412 -0.63171 -0.226238 0
M  V30 7780 H 749.956 -2.04431 -0.0529685 0
M  V30 7781 H 748.111 -3.12595 -2.2883 0
M  V30 7782 H 748.525 -5.08976 -1.26663 0
M  V30 7783 H 749.999 -4.68006 -2.92702 0
M  V30 7784 H 750.476 -3.00624 -3.2019 0
M  V30 7785 H 751.082 -3.86777 -1.76871 0
M  V30 7786 N 749.397 0.351382 -1.53633 0
M  V30 7787 C 750.329 1.45159 -1.77374 0
M  V30 7788 C 751.342 1.4905 -0.654826 0
M  V30 7789 O 752.531 1.52274 -0.931396 0
M  V30 7790 C 749.631 2.83858 -1.85143 0
M  V30 7791 C 748.804 3.03498 -3.14972 0
M  V30 7792 C 747.863 4.22393 -3.138 0
M  V30 7793 O 746.889 4.16885 -3.87551 0
M  V30 7794 N 748.091 5.30533 -2.35617 0
M  V30 7795 H 750.856 1.25167 -2.72311 0
M  V30 7796 H 748.417 0.54121 -1.52586 0
M  V30 7797 H 750.409 3.61557 -1.8182 0
M  V30 7798 H 748.979 2.9703 -0.974275 0
M  V30 7799 H 748.199 2.13336 -3.31484 0
M  V30 7800 H 749.487 3.13498 -4.00745 0
M  V30 7801 H 748.885 5.37875 -1.75235 0
M  V30 7802 H 747.442 6.06756 -2.38098 0
M  V30 7803 N 750.875 1.45233 0.611969 0
M  V30 7804 C 752.105 1.52318 1.39581 0
M  V30 7805 C 752.513 0.153093 1.8858 0
M  V30 7806 O 751.856 -0.854792 1.62601 0
M  V30 7807 C 751.918 2.4426 2.63775 0
M  V30 7808 C 751.582 3.91079 2.36445 0
M  V30 7809 C 752.579 4.81099 1.97079 0
M  V30 7810 C 750.264 4.35958 2.49492 0
M  V30 7811 C 752.258 6.14002 1.71115 0
M  V30 7812 C 749.945 5.68903 2.23142 0
M  V30 7813 C 750.943 6.57744 1.84015 0
M  V30 7814 O 750.631 7.88226 1.5797 0
M  V30 7815 H 750.363 0.518428 0.43383 0
M  V30 7816 H 752.917 1.91067 0.753837 0
M  V30 7817 H 751.147 2.00474 3.30677 0
M  V30 7818 H 752.836 2.42077 3.25812 0
M  V30 7819 H 753.602 4.47692 1.86539 0
M  V30 7820 H 749.481 3.67053 2.78914 0
M  V30 7821 H 753.025 6.83305 1.405 0
M  V30 7822 H 748.922 6.01866 2.33297 0
M  V30 7823 H 749.69 8.00211 1.72058 0
M  V30 7824 N 752.353 -0.854086 1.3245 0
M  V30 7825 C 753.283 -1.97827 1.24044 0
M  V30 7826 C 754.264 -1.69646 0.124166 0
M  V30 7827 O 755.449 -1.91687 0.31143 0
M  V30 7828 C 752.579 -3.33673 0.963324 0
M  V30 7829 C 751.533 -3.76207 2.04089 0
M  V30 7830 C 750.859 -5.0969 1.61618 0
M  V30 7831 C 752.159 -3.91612 3.45597 0
M  V30 7832 H 753.853 -2.05118 2.18099 0
M  V30 7833 H 751.399 -0.985489 1.04996 0
M  V30 7834 H 753.352 -4.11871 0.891061 0
M  V30 7835 H 752.076 -3.26597 -0.0128649 0
M  V30 7836 H 750.735 -3.0026 2.10332 0
M  V30 7837 H 750.383 -4.99072 0.627418 0
M  V30 7838 H 750.083 -5.3912 2.33717 0
M  V30 7839 H 751.607 -5.90381 1.55829 0
M  V30 7840 H 753.021 -4.60163 3.4194 0
M  V30 7841 H 751.418 -4.3246 4.16051 0
M  V30 7842 H 752.488 -2.9451 3.85217 0
M  V30 7843 N 753.831 -1.1567 -1.07043 0
M  V30 7844 C 755.059 -0.957471 -1.83412 0
M  V30 7845 C 755.474 0.494271 -1.82215 0
M  V30 7846 O 754.831 1.34288 -1.23584 0
M  V30 7847 C 754.882 -1.46784 -3.30359 0
M  V30 7848 O 754.603 -2.86271 -3.31633 0
M  V30 7849 C 756.104 -1.31054 -4.23485 0
M  V30 7850 H 753.324 -0.33986 -0.578564 0
M  V30 7851 H 755.868 -1.53518 -1.35102 0
M  V30 7852 H 754.023 -0.932586 -3.76007 0
M  V30 7853 H 754.437 -3.0948 -4.23465 0
M  V30 7854 H 755.911 -1.71605 -5.24648 0
M  V30 7855 H 756.388 -0.255107 -4.38458 0
M  V30 7856 H 756.994 -1.83503 -3.83676 0
M  V30 7857 N 755.309 1.25446 -0.953992 0
M  V30 7858 C 756.72 1.75047 -0.649255 0
M  V30 7859 C 757.071 1.77527 0.835385 0
M  V30 7860 O 756.196 1.39569 1.65377 0
M  V30 7861 C 756.791 3.17889 -1.17183 0
M  V30 7862 C 755.35 3.65052 -0.917267 0
M  V30 7863 C 754.497 2.44124 -1.31525 0
M  V30 7864 H 757.448 1.11342 -1.13087 0
M  V30 7865 H 757.469 3.76768 -0.531616 0
M  V30 7866 H 756.981 3.16052 -2.25239 0
M  V30 7867 H 755.082 3.72305 0.148354 0
M  V30 7868 H 755.195 4.53222 -1.55328 0
M  V30 7869 H 753.559 2.43906 -0.733624 0
M  V30 7870 H 754.342 2.44979 -2.405 0
M  V30 7871 N 756.787 0.722489 1.40064 0
M  V30 7872 C 758.015 0.274838 2.05066 0
M  V30 7873 C 758.43 -1.08586 1.54449 0
M  V30 7874 O 757.787 -1.68375 0.704003 0
M  V30 7875 C 757.838 0.253673 3.60609 0
M  V30 7876 O 757.559 1.56064 4.0936 0
M  V30 7877 C 759.06 -0.211684 4.42794 0
M  V30 7878 H 756.28 0.12226 0.659768 0
M  V30 7879 H 758.824 0.982632 1.79345 0
M  V30 7880 H 756.979 -0.405137 3.85276 0
M  V30 7881 H 757.393 1.46576 5.03603 0
M  V30 7882 H 758.867 -0.175341 5.51721 0
M  V30 7883 H 759.344 -1.25493 4.2089 0
M  V30 7884 H 759.95 0.4171 4.2325 0
M  V30 7885 N 758.265 -1.50454 0.469181 0
M  V30 7886 C 759.49 -2.0722 -0.0864892 0
M  V30 7887 C 759.915 -1.33098 -1.32916 0
M  V30 7888 O 759.273 -0.378084 -1.77314 0
M  V30 7889 C 759.321 -3.58845 -0.355384 0
M  V30 7890 O 758.425 -3.86583 -1.43622 0
M  V30 7891 H 757.766 -0.663889 0.0121414 0
M  V30 7892 H 760.296 -1.93674 0.659674 0
M  V30 7893 H 760.306 -4.03617 -0.596447 0
M  V30 7894 H 758.981 -4.12211 0.552698 0
M  V30 7895 H 757.558 -3.5365 -1.18262 0
M  V30 7896 N 759.743 -0.201713 -1.56304 0
M  V30 7897 C 760.691 0.733133 -2.20744 0
M  V30 7898 C 761.685 1.2148 -1.18064 0
M  V30 7899 O 762.891 1.17692 -1.36193 0
M  V30 7900 H 759.266 0.254789 -0.707521 0
M  V30 7901 H 761.237 0.165996 -2.97938 0
M  V30 7902 C 759.986 1.93925 -2.88597 0
M  V30 7903 H 759.309 1.5777 -3.67353 0
M  V30 7904 H 760.749 2.57158 -3.37114 0
M  V30 7905 C 759.208 2.78219 -1.89989 0
M  V30 7906 O 759.738 3.76353 -1.40432 0
M  V30 7907 N 757.944 2.43847 -1.58072 0
M  V30 7908 H 757.491 1.64103 -1.98565 0
M  V30 7909 H 757.449 3.0053 -0.923524 0
M  V30 7910 N 761.222 1.57436 0.0718424 0
M  V30 7911 C 762.469 1.87248 0.771007 0
M  V30 7912 C 762.797 0.793441 1.7758 0
M  V30 7913 O 762.052 -0.210565 1.94564 0
M  V30 7914 C 762.351 3.23723 1.51455 0
M  V30 7915 C 762.017 4.46194 0.649736 0
M  V30 7916 C 760.679 4.79438 0.411409 0
M  V30 7917 C 763.031 5.21176 0.05004 0
M  V30 7918 C 760.359 5.85077 -0.436096 0
M  V30 7919 C 762.711 6.27712 -0.784919 0
M  V30 7920 C 761.375 6.59457 -1.03312 0
M  V30 7921 H 760.645 0.685188 0.282132 0
M  V30 7922 H 763.292 1.91474 0.0317896 0
M  V30 7923 H 761.597 3.15287 2.32597 0
M  V30 7924 H 763.294 3.44023 2.06031 0
M  V30 7925 H 759.884 4.20175 0.84562 0
M  V30 7926 H 764.068 4.95806 0.221282 0
M  V30 7927 H 759.324 6.08071 -0.637136 0
M  V30 7928 H 763.498 6.84974 -1.25635 0
M  V30 7929 H 761.125 7.4114 -1.6916 0
M  V30 7930 N 762.7 -0.34323 1.53817 0
M  V30 7931 C 763.925 -1.1079 1.75329 0
M  V30 7932 C 764.35 -1.81571 0.491293 0
M  V30 7933 O 763.708 -1.72561 -0.556089 0
M  V30 7934 C 763.756 -2.09681 2.9337 0
M  V30 7935 O 762.86 -3.17207 2.63541 0
M  V30 7936 H 762.201 -0.320402 0.581583 0
M  V30 7937 H 764.731 -0.393525 2.0078 0
M  V30 7938 H 764.741 -2.52897 3.20168 0
M  V30 7939 H 763.416 -1.5756 3.84899 0
M  V30 7940 H 761.993 -2.78806 2.47632 0
M  V30 7941 N 764.178 -1.45556 -0.604258 0
M  V30 7942 C 765.11 -1.50494 -1.72871 0
M  V30 7943 C 766.123 -0.395368 -1.57926 0
M  V30 7944 O 767.312 -0.662603 -1.65746 0
M  V30 7945 C 764.412 -1.34874 -3.10906 0
M  V30 7946 C 763.585 -2.59564 -3.52058 0
M  V30 7947 C 762.644 -2.38453 -4.6907 0
M  V30 7948 O 761.67 -3.12082 -4.76018 0
M  V30 7949 N 762.872 -1.43229 -5.62553 0
M  V30 7950 H 765.637 -2.4744 -1.69097 0
M  V30 7951 H 763.198 -1.41338 -0.789636 0
M  V30 7952 H 765.19 -1.18556 -3.86945 0
M  V30 7953 H 763.76 -0.461913 -3.09168 0
M  V30 7954 H 762.98 -2.90974 -2.65946 0
M  V30 7955 H 764.268 -3.42441 -3.76313 0
M  V30 7956 H 763.666 -0.824714 -5.59656 0
M  V30 7957 H 762.223 -1.32882 -6.38111 0
M  V30 7958 N 765.656 0.84705 -1.32902 0
M  V30 7959 C 766.586 1.97166 -1.25091 0
M  V30 7960 C 767.567 1.69578 -0.133161 0
M  V30 7961 O 768.752 1.91519 -0.321591 0
M  V30 7962 C 765.882 3.33157 -0.981006 0
M  V30 7963 C 764.836 3.75119 -2.06082 0
M  V30 7964 C 764.162 5.08826 -1.64318 0
M  V30 7965 C 765.462 3.89774 -3.47669 0
M  V30 7966 H 767.156 2.03958 -2.19184 0
M  V30 7967 H 764.702 0.979907 -1.05517 0
M  V30 7968 H 766.655 4.11393 -0.912891 0
M  V30 7969 H 765.379 3.266 -0.00445559 0
M  V30 7970 H 764.038 2.9914 -2.11921 0
M  V30 7971 H 763.686 4.98732 -0.653876 0
M  V30 7972 H 763.386 5.37873 -2.36572 0
M  V30 7973 H 764.91 5.89546 -1.58958 0
M  V30 7974 H 766.324 4.58343 -3.44376 0
M  V30 7975 H 764.721 4.30248 -4.18338 0
M  V30 7976 H 765.791 2.92463 -3.86773 0
M  V30 7977 N 767.134 1.16236 1.06428 0
M  V30 7978 C 768.55 0.906983 1.31324 0
M  V30 7979 C 768.75 -0.440872 1.96618 0
M  V30 7980 O 767.806 -1.1807 2.23194 0
M  V30 7981 C 769.119 2.05501 2.19522 0
M  V30 7982 C 770.667 2.09061 2.32943 0
M  V30 7983 C 771.142 3.23214 3.24495 0
M  V30 7984 N 772.633 3.22922 3.32078 0
M  V30 7985 C 773.368 4.07889 4.03006 0
M  V30 7986 N 772.864 5.02941 4.76469 0
M  V30 7987 N 774.657 3.95881 3.99043 0
M  V30 7988 H 766.808 2.03015 0.624388 0
M  V30 7989 H 769.071 0.88576 0.337835 0
M  V30 7990 H 768.777 3.02847 1.78819 0
M  V30 7991 H 768.651 1.99538 3.201 0
M  V30 7992 H 771.038 1.12308 2.72893 0
M  V30 7993 H 771.119 2.19089 1.32037 0
M  V30 7994 H 770.763 4.20225 2.85261 0
M  V30 7995 H 770.693 3.10423 4.25377 0
M  V30 7996 H 773.184 2.54093 2.79724 0
M  V30 7997 H 773.497 5.64196 5.28112 0
M  V30 7998 H 771.842 5.06922 4.75453 0
M  V30 7999 H 775.033 3.20927 3.40769 0
M  V30 8000 H 775.206 4.62321 4.54052 0
M  V30 8001 N 768.612 -1.24939 0.960631 0
M  V30 8002 C 769.575 -2.239 0.49006 0
M  V30 8003 C 770.575 -1.55497 -0.409535 0
M  V30 8004 O 771.765 -1.72978 -0.205984 0
M  V30 8005 C 768.897 -3.39654 -0.291193 0
M  V30 8006 H 770.09 -2.67044 1.36482 0
M  V30 8007 H 767.643 -1.37429 0.744505 0
M  V30 8008 H 768.378 -3.01939 -1.18336 0
M  V30 8009 H 768.163 -3.90496 0.354276 0
M  V30 8010 H 769.653 -4.13125 -0.609693 0
M  V30 8011 N 770.09 -0.729906 -1.39679 0
M  V30 8012 C 771.053 -0.0951668 -2.29002 0
M  V30 8013 C 772.053 0.672471 -1.46063 0
M  V30 8014 O 773.243 0.502245 -1.66803 0
M  V30 8015 C 770.375 0.874631 -3.29489 0
M  V30 8016 H 771.568 -0.882062 -2.86635 0
M  V30 8017 H 769.121 -0.495424 -1.4824 0
M  V30 8018 H 769.856 1.68807 -2.76902 0
M  V30 8019 H 769.641 0.326893 -3.90735 0
M  V30 8020 H 771.131 1.31548 -3.96339 0
M  V30 8021 N 771.568 1.50203 -0.477153 0
M  V30 8022 C 772.531 2.27194 0.302599 0
M  V30 8023 C 773.531 1.32221 0.915112 0
M  V30 8024 O 774.721 1.55593 0.783348 0
M  V30 8025 C 771.853 3.0938 1.43167 0
M  V30 8026 H 773.046 2.97575 -0.372678 0
M  V30 8027 H 770.599 1.54578 -0.231392 0
M  V30 8028 H 771.334 2.43509 2.14182 0
M  V30 8029 H 771.119 3.79181 0.998197 0
M  V30 8030 H 772.609 3.67592 1.98157 0
M  V30 8031 N 773.046 0.209999 1.56195 0
M  V30 8032 C 774.292 -0.425442 1.98287 0
M  V30 8033 C 774.625 -1.60232 1.09724 0
M  V30 8034 O 773.9 -1.93902 0.152414 0
M  V30 8035 C 774.183 -0.871189 3.49403 0
M  V30 8036 C 774.036 0.308527 4.48741 0
M  V30 8037 C 775.355 -1.73146 4.04609 0
M  V30 8038 H 772.474 -0.153169 0.720908 0
M  V30 8039 H 775.116 0.303916 1.87554 0
M  V30 8040 H 773.266 -1.49266 3.58681 0
M  V30 8041 H 774.938 0.946487 4.51486 0
M  V30 8042 H 773.181 0.957878 4.23092 0
M  V30 8043 H 773.852 -0.0461143 5.51981 0
M  V30 8044 H 776.328 -1.2072 3.98203 0
M  V30 8045 H 775.204 -2.01228 5.10684 0
M  V30 8046 H 775.465 -2.69083 3.5078 0
M  V30 8047 N 774.524 -1.57472 -0.0634922 0
M  V30 8048 C 775.456 -2.00999 -1.10145 0
M  V30 8049 C 776.469 -0.917219 -1.34503 0
M  V30 8050 O 777.658 -1.19501 -1.32596 0
M  V30 8051 C 774.758 -2.34089 -2.45063 0
M  V30 8052 C 773.931 -3.65317 -2.40546 0
M  V30 8053 C 772.99 -3.85982 -3.57637 0
M  V30 8054 O 772.016 -4.5747 -3.38689 0
M  V30 8055 N 773.218 -3.28971 -4.78287 0
M  V30 8056 H 775.983 -2.90656 -0.730714 0
M  V30 8057 H 773.544 -1.59926 -0.252017 0
M  V30 8058 H 775.536 -2.4508 -3.22053 0
M  V30 8059 H 774.106 -1.50279 -2.74107 0
M  V30 8060 H 773.326 -3.65003 -1.48885 0
M  V30 8061 H 774.614 -4.51468 -2.34636 0
M  V30 8062 H 774.012 -2.70962 -4.96584 0
M  V30 8063 H 772.569 -3.45398 -5.5276 0
M  V30 8064 N 776.003 0.335068 -1.53997 0
M  V30 8065 C 777.228 1.09859 -1.75914 0
M  V30 8066 C 777.653 1.81308 -0.500915 0
M  V30 8067 O 777.011 1.72854 0.54693 0
M  V30 8068 C 777.059 2.08122 -2.94478 0
M  V30 8069 O 776.163 3.15805 -2.65219 0
M  V30 8070 H 775.504 0.317313 -0.583274 0
M  V30 8071 H 778.034 0.382872 -2.00986 0
M  V30 8072 H 778.044 2.51195 -3.21504 0
M  V30 8073 H 776.719 1.55517 -3.8573 0
M  V30 8074 H 775.296 2.77489 -2.49107 0
M  V30 8075 N 777.481 1.45874 0.596531 0
M  V30 8076 C 778.444 1.54988 1.68853 0
M  V30 8077 C 779.444 0.428302 1.54991 0
M  V30 8078 O 780.634 0.692158 1.59859 0
M  V30 8079 C 777.766 1.457 3.08195 0
M  V30 8080 H 778.959 2.52294 1.62135 0
M  V30 8081 H 776.512 1.33479 0.813206 0
M  V30 8082 H 777.247 0.496204 3.20481 0
M  V30 8083 H 777.032 2.27061 3.19665 0
M  V30 8084 H 778.522 1.55133 3.87716 0
M  V30 8085 N 778.959 -0.83999 1.33349 0
M  V30 8086 C 780.187 -1.62728 1.27778 0
M  V30 8087 C 780.602 -1.88191 -0.151505 0
M  V30 8088 O 779.959 -1.46128 -1.09329 0
M  V30 8089 C 780.01 -2.97813 2.04913 0
M  V30 8090 O 779.731 -2.73469 3.42266 0
M  V30 8091 C 781.232 -3.92245 2.0654 0
M  V30 8092 H 778.452 -0.506374 0.440257 0
M  V30 8093 H 780.996 -1.04637 1.75703 0
M  V30 8094 H 779.151 -3.52509 1.60674 0
M  V30 8095 H 779.565 -3.59483 3.81932 0
M  V30 8096 H 781.039 -4.84249 2.64966 0
M  V30 8097 H 781.516 -4.26332 1.05537 0
M  V30 8098 H 782.122 -3.43487 2.50793 0
M  V30 8099 N 780.437 -1.16799 -1.0581 0
M  V30 8100 C 781.714 -0.862616 -1.75551 0
M  V30 8101 C 782.094 0.6385 -2.01212 0
M  V30 8102 O 781.442 1.58784 -1.64317 0
M  V30 8103 C 781.652 -1.6907 -3.05314 0
M  V30 8104 C 783 -1.90675 -3.79379 0
M  V30 8105 O 784.024 -1.65976 -3.15167 0
M  V30 8106 O 782.883 -2.32145 -4.94743 0
M  V30 8107 H 779.977 -0.318789 -0.763088 0
M  V30 8108 H 782.523 -1.27461 -1.12034 0
M  V30 8109 H 781.295 -2.70912 -2.82352 0
M  V30 8110 H 780.918 -1.27606 -3.76567 0
M  V30 8111 N 781.915 1.24427 -0.967243 0
M  V30 8112 C 782.845 2.2773 -0.515899 0
M  V30 8113 C 783.826 1.64197 0.444227 0
M  V30 8114 O 785.011 1.91193 0.340451 0
M  V30 8115 C 782.141 3.46751 0.195149 0
M  V30 8116 C 781.095 4.22548 -0.680953 0
M  V30 8117 C 780.421 5.34456 0.161561 0
M  V30 8118 C 781.721 4.83914 -1.96532 0
M  V30 8119 H 783.415 2.65735 -1.37933 0
M  V30 8120 H 780.961 1.27742 -0.664681 0
M  V30 8121 H 782.914 4.18153 0.522117 0
M  V30 8122 H 781.638 3.07771 1.09292 0
M  V30 8123 H 780.297 3.52946 -0.991186 0
M  V30 8124 H 779.945 4.91716 1.05947 0
M  V30 8125 H 779.645 5.86087 -0.421418 0
M  V30 8126 H 781.169 6.08685 0.483211 0
M  V30 8127 H 782.583 5.47392 -1.70396 0
M  V30 8128 H 780.98 5.45775 -2.49499 0
M  V30 8129 H 782.05 4.05393 -2.66053 0
M  V30 8130 N 783.393 0.737304 1.3929 0
M  V30 8131 C 784.623 0.296143 2.04467 0
M  V30 8132 C 785.031 -1.0748 1.55707 0
M  V30 8133 O 784.374 -1.69082 0.718123 0
M  V30 8134 C 784.436 0.222161 3.58813 0
M  V30 8135 C 784.1 1.53195 4.30558 0
M  V30 8136 C 785.097 2.47809 4.57041 0
M  V30 8137 C 782.782 1.79688 4.6906 0
M  V30 8138 C 784.776 3.67147 5.21039 0
M  V30 8139 C 782.463 2.99304 5.32785 0
M  V30 8140 C 783.461 3.92855 5.58708 0
M  V30 8141 O 783.149 5.1037 6.2111 0
M  V30 8142 H 782.881 0.126896 0.663983 0
M  V30 8143 H 785.435 1.00242 1.79278 0
M  V30 8144 H 783.665 -0.540239 3.82908 0
M  V30 8145 H 785.354 -0.187311 4.05468 0
M  V30 8146 H 786.12 2.28611 4.2774 0
M  V30 8147 H 781.999 1.07716 4.48239 0
M  V30 8148 H 785.543 4.40183 5.41188 0
M  V30 8149 H 781.44 3.18401 5.61508 0
M  V30 8150 H 782.208 5.10735 6.39603 0
M  V30 8151 N 784.871 -1.49948 0.485112 0
M  V30 8152 C 786.119 -2.01996 -0.0648775 0
M  V30 8153 C 786.44 -1.36819 -1.38945 0
M  V30 8154 O 785.71 -0.518163 -1.88923 0
M  V30 8155 H 784.29 -0.746513 -0.0269662 0
M  V30 8156 H 786.952 -1.84136 0.638733 0
M  V30 8157 H 786.048 -3.11418 -0.20617 0
M  V30 8158 N 786.349 -0.21828 -1.56081 0
M  V30 8159 C 787.574 0.422302 -2.03055 0
M  V30 8160 C 787.999 1.5279 -1.09713 0
M  V30 8161 O 787.357 1.81102 -0.0847187 0
M  V30 8162 C 787.405 0.934177 -3.48289 0
M  V30 8163 O 786.509 2.04574 -3.58083 0
M  V30 8164 H 785.85 0.0959764 -0.657027 0
M  V30 8165 H 788.38 -0.335958 -2.01823 0
M  V30 8166 H 788.39 1.24484 -3.88546 0
M  V30 8167 H 787.065 0.124963 -4.15712 0
M  V30 8168 H 785.642 1.74196 -3.29712 0
M  V30 8169 N 787.827 1.57504 0.0551401 0
M  V30 8170 C 789.055 1.92294 0.76358 0
M  V30 8171 C 789.47 0.815774 1.70266 0
M  V30 8172 O 788.827 -0.209772 1.8129 0
M  V30 8173 C 788.878 3.26914 1.54302 0
M  V30 8174 O 788.599 4.33375 0.641666 0
M  V30 8175 C 790.1 3.75825 2.35097 0
M  V30 8176 H 787.32 0.635229 0.216159 0
M  V30 8177 H 789.864 2.0449 0.0204385 0
M  V30 8178 H 788.019 3.16196 2.23828 0
M  V30 8179 H 788.433 5.10927 1.1855 0
M  V30 8180 H 789.907 4.72603 2.8522 0
M  V30 8181 H 790.384 3.0568 3.15367 0
M  V30 8182 H 790.99 3.89542 1.70696 0
M  V30 8183 N 789.305 -0.326896 1.54172 0
M  V30 8184 C 790.53 -1.08924 1.76494 0
M  V30 8185 C 790.955 -1.81039 0.510523 0
M  V30 8186 O 790.313 -1.73141 -0.537756 0
M  V30 8187 C 790.361 -2.06558 2.95578 0
M  V30 8188 O 789.465 -3.14394 2.6689 0
M  V30 8189 H 788.806 -0.314216 0.584948 0
M  V30 8190 H 791.336 -0.372207 2.01186 0
M  V30 8191 H 791.346 -2.49487 3.22832 0
M  V30 8192 H 790.021 -1.53469 3.86549 0
M  V30 8193 H 788.598 -2.76164 2.50576 0
M  V30 8194 N 790.784 -1.46188 -0.588786 0
M  V30 8195 C 791.716 -1.52319 -1.71265 0
M  V30 8196 C 792.729 -0.412096 -1.57498 0
M  V30 8197 O 793.918 -0.680146 -1.65034 0
M  V30 8198 C 791.018 -1.38164 -3.09458 0
M  V30 8199 C 790.191 -2.63284 -3.49286 0
M  V30 8200 C 789.25 -2.43415 -4.66514 0
M  V30 8201 O 788.276 -3.17113 -4.72682 0
M  V30 8202 N 789.478 -1.49187 -5.61002 0
M  V30 8203 H 792.243 -2.49219 -1.66463 0
M  V30 8204 H 789.804 -1.42167 -0.774601 0
M  V30 8205 H 791.796 -1.22653 -3.85666 0
M  V30 8206 H 790.366 -0.494678 -3.08661 0
M  V30 8207 H 789.586 -2.93779 -2.62845 0
M  V30 8208 H 790.874 -3.46413 -3.7266 0
M  V30 8209 H 790.272 -0.884027 -5.5875 0
M  V30 8210 H 788.829 -1.39642 -6.36666 0
M  V30 8211 N 792.262 0.832906 -1.33792 0
M  V30 8212 C 793.172 1.97514 -1.26592 0
M  V30 8213 C 794.188 1.73114 -0.175391 0
M  V30 8214 O 795.364 1.97387 -0.400062 0
M  V30 8215 C 792.429 3.31625 -1.01121 0
M  V30 8216 C 791.49 3.69101 -2.19233 0
M  V30 8217 C 790.723 4.96813 -1.94968 0
M  V30 8218 O 790.946 5.63208 -0.902955 0
M  V30 8219 O 789.88 5.31932 -2.8166 0
M  V30 8220 H 793.706 2.0653 -2.22664 0
M  V30 8221 H 791.291 0.966826 -1.13898 0
M  V30 8222 H 793.173 4.11968 -0.886571 0
M  V30 8223 H 791.848 3.23599 -0.080822 0
M  V30 8224 H 790.755 2.89243 -2.37253 0
M  V30 8225 H 792.088 3.818 -3.10628 0
M  V30 8226 N 793.74 1.17359 1.05189 0
M  V30 8227 C 794.986 0.963413 1.78455 0
M  V30 8228 C 795.319 -0.506703 1.87473 0
M  V30 8229 O 794.594 -1.37611 1.37453 0
M  V30 8230 C 794.877 1.60519 3.22344 0
M  V30 8231 C 794.73 3.14741 3.21338 0
M  V30 8232 C 796.049 1.3091 4.20179 0
M  V30 8233 H 793.168 0.351412 0.647826 0
M  V30 8234 H 795.81 1.44858 1.22948 0
M  V30 8235 H 793.96 1.19265 3.69741 0
M  V30 8236 H 795.632 3.65053 2.82017 0
M  V30 8237 H 793.875 3.4749 2.59679 0
M  V30 8238 H 794.546 3.54775 4.22894 0
M  V30 8239 H 797.022 1.66635 3.81277 0
M  V30 8240 H 795.898 1.784 5.191 0
M  V30 8241 H 796.159 0.229908 4.41502 0
M  V30 8242 N 795.218 -1.23913 0.973828 0
M  V30 8243 C 796.181 -2.23367 0.51378 0
M  V30 8244 C 797.181 -1.55923 -0.39302 0
M  V30 8245 O 798.371 -1.73187 -0.187626 0
M  V30 8246 C 795.503 -3.39944 -0.255152 0
M  V30 8247 H 796.696 -2.65581 1.39307 0
M  V30 8248 H 794.249 -1.36632 0.759039 0
M  V30 8249 H 794.984 -3.03177 -1.15127 0
M  V30 8250 H 794.769 -3.90098 0.395673 0
M  V30 8251 H 796.259 -4.13749 -0.565842 0
M  V30 8252 N 796.696 -0.74468 -1.38897 0
M  V30 8253 C 797.921 -0.306119 -2.05128 0
M  V30 8254 C 798.346 1.0541 -1.55789 0
M  V30 8255 O 797.704 1.66993 -0.705909 0
M  V30 8256 C 797.752 -0.328195 -3.59103 0
M  V30 8257 O 796.856 0.680876 -4.06741 0
M  V30 8258 H 796.197 -0.137209 -0.649669 0
M  V30 8259 H 798.727 -1.01331 -1.77745 0
M  V30 8260 H 798.737 -0.175956 -4.0762 0
M  V30 8261 H 797.412 -1.32067 -3.94374 0
M  V30 8262 H 795.989 0.49398 -3.69614 0
M  V30 8263 N 798.174 1.49689 -0.493057 0
M  V30 8264 C 799.42 2.02727 0.0543518 0
M  V30 8265 C 799.753 1.37264 1.37376 0
M  V30 8266 O 799.028 0.505644 1.87812 0
M  V30 8267 C 799.311 3.59456 0.215226 0
M  V30 8268 C 799.164 4.35459 -1.12675 0
M  V30 8269 C 800.483 4.29511 0.959586 0
M  V30 8270 H 797.602 0.736773 0.0182786 0
M  V30 8271 H 800.244 1.78792 -0.642924 0
M  V30 8272 H 798.394 3.79981 0.809122 0
M  V30 8273 H 800.066 4.2645 -1.75891 0
M  V30 8274 H 798.309 3.9833 -1.71801 0
M  V30 8275 H 798.98 5.43454 -0.967578 0
M  V30 8276 H 801.456 4.13594 0.455977 0
M  V30 8277 H 800.332 5.38939 1.04098 0
M  V30 8278 H 800.593 3.94202 2.00144 0
M  V30 8279 N 799.652 0.226554 1.55963 0
M  V30 8280 C 800.599 -0.681504 2.20509 0
M  V30 8281 C 801.569 -1.1866 1.16229 0
M  V30 8282 O 802.754 -1.24478 1.44602 0
M  V30 8283 C 799.894 -1.88183 2.89277 0
M  V30 8284 C 799.007 -1.41517 4.08163 0
M  V30 8285 C 798.142 -2.57346 4.647 0
M  V30 8286 C 797.181 -2.07441 5.75877 0
M  V30 8287 N 796.318 -3.16561 6.26685 0
M  V30 8288 H 801.158 -0.124372 2.9774 0
M  V30 8289 H 798.695 -0.0496333 1.47016 0
M  V30 8290 H 800.653 -2.58666 3.27335 0
M  V30 8291 H 799.283 -2.41177 2.14555 0
M  V30 8292 H 798.335 -0.605099 3.75557 0
M  V30 8293 H 799.647 -1.00928 4.88482 0
M  V30 8294 H 798.801 -3.35903 5.05227 0
M  V30 8295 H 797.54 -3.01227 3.83554 0
M  V30 8296 H 796.545 -1.27347 5.34848 0
M  V30 8297 H 797.77 -1.64554 6.58862 0
M  V30 8298 H 795.716 -3.59914 5.48451 0
M  V30 8299 H 795.633 -2.80239 7.02141 0
M  V30 8300 H 796.901 -3.95238 6.71868 0
M  V30 8301 N 801.13 -1.57531 -0.0467866 0
M  V30 8302 C 802.062 -2.02156 -1.08007 0
M  V30 8303 C 803.075 -0.931434 -1.33522 0
M  V30 8304 O 804.264 -1.209 -1.31321 0
M  V30 8305 C 801.364 -2.36675 -2.42566 0
M  V30 8306 C 800.537 -3.67848 -2.36658 0
M  V30 8307 C 799.596 -3.89754 -3.53523 0
M  V30 8308 O 798.622 -4.61036 -3.33818 0
M  V30 8309 N 799.824 -3.34025 -4.74771 0
M  V30 8310 H 802.589 -2.91414 -0.699845 0
M  V30 8311 H 800.15 -1.60185 -0.235041 0
M  V30 8312 H 802.142 -2.48482 -3.19435 0
M  V30 8313 H 800.712 -1.53178 -2.72498 0
M  V30 8314 H 799.932 -3.66561 -1.45005 0
M  V30 8315 H 801.22 -4.53931 -2.29835 0
M  V30 8316 H 800.618 -2.76214 -4.93683 0
M  V30 8317 H 799.175 -3.51241 -5.49066 0
M  V30 8318 N 802.608 0.318715 -1.54344 0
M  V30 8319 C 803.571 1.37545 -1.83342 0
M  V30 8320 C 804.571 1.445 -0.705444 0
M  V30 8321 O 805.761 1.44443 -0.973752 0
M  V30 8322 C 802.893 2.76225 -1.99781 0
M  V30 8323 H 804.086 1.13084 -2.77762 0
M  V30 8324 H 801.639 0.554457 -1.46135 0
M  V30 8325 H 802.374 3.05934 -1.07588 0
M  V30 8326 H 802.159 2.7257 -2.81865 0
M  V30 8327 H 803.649 3.52664 -2.23647 0
M  V30 8328 N 804.086 1.46499 0.581025 0
M  V30 8329 C 805.333 1.51896 1.33918 0
M  V30 8330 C 805.661 0.171361 1.93744 0
M  V30 8331 O 804.916 -0.833178 1.77078 0
M  V30 8332 C 805.215 2.56686 2.48691 0
M  V30 8333 C 804.881 4.00656 2.06847 0
M  V30 8334 C 803.543 4.39852 1.9515 0
M  V30 8335 C 805.895 4.91089 1.74589 0
M  V30 8336 C 803.223 5.67345 1.49456 0
M  V30 8337 C 805.575 6.1902 1.30373 0
M  V30 8338 C 804.239 6.57121 1.17255 0
M  V30 8339 H 803.509 0.555826 0.490039 0
M  V30 8340 H 806.156 1.79983 0.654092 0
M  V30 8341 H 804.461 2.22266 3.22653 0
M  V30 8342 H 806.158 2.58091 3.06904 0
M  V30 8343 H 802.748 3.69674 2.16886 0
M  V30 8344 H 806.932 4.61523 1.8251 0
M  V30 8345 H 802.188 5.95635 1.37944 0
M  V30 8346 H 806.362 6.8852 1.04467 0
M  V30 8347 H 803.989 7.55805 0.816236 0
M  V30 8348 N 805.565 -0.825799 1.34232 0
M  V30 8349 C 806.842 -1.56741 1.17011 0
M  V30 8350 C 807.222 -2.09512 -0.258425 0
M  V30 8351 O 806.57 -1.90664 -1.25935 0
M  V30 8352 C 806.78 -2.69104 2.22225 0
M  V30 8353 C 808.128 -3.37947 2.57055 0
M  V30 8354 O 809.152 -2.79358 2.20992 0
M  V30 8355 O 808.011 -4.43743 3.1899 0
M  V30 8356 H 805.105 -0.69163 0.453405 0
M  V30 8357 H 807.651 -0.867422 1.45856 0
M  V30 8358 H 806.423 -2.27844 3.18124 0
M  V30 8359 H 806.046 -3.46756 1.94541 0
M  V30 8360 N 807.043 -1.17915 -1.04565 0
M  V30 8361 C 808.006 -0.903787 -2.10628 0
M  V30 8362 C 809.006 0.10873 -1.60432 0
M  V30 8363 O 810.196 -0.124152 -1.73757 0
M  V30 8364 C 807.328 -0.355017 -3.39046 0
M  V30 8365 H 808.521 -1.84425 -2.3649 0
M  V30 8366 H 806.074 -0.990477 -1.2091 0
M  V30 8367 H 806.809 0.592297 -3.18845 0
M  V30 8368 H 806.594 -1.08484 -3.76794 0
M  V30 8369 H 808.084 -0.180891 -4.17208 0
M  V30 8370 N 808.521 1.23394 -0.980386 0
M  V30 8371 C 809.767 1.92094 -0.650223 0
M  V30 8372 C 810.1 1.76309 0.814173 0
M  V30 8373 O 809.375 1.12406 1.5873 0
M  V30 8374 C 809.658 3.44713 -1.04139 0
M  V30 8375 C 809.511 3.69606 -2.56342 0
M  V30 8376 C 810.83 4.36191 -0.585296 0
M  V30 8377 H 807.949 0.697618 -0.237695 0
M  V30 8378 H 810.591 1.45517 -1.22167 0
M  V30 8379 H 808.741 3.84513 -0.55515 0
M  V30 8380 H 810.413 3.39288 -3.1254 0
M  V30 8381 H 808.656 3.14318 -2.98976 0
M  V30 8382 H 809.327 4.76441 -2.78762 0
M  V30 8383 H 811.803 4.03836 -1.00276 0
M  V30 8384 H 810.679 5.41679 -0.887428 0
M  V30 8385 H 810.94 4.39097 0.51438 0
M  V30 8386 N 809.999 0.752036 1.385 0
M  V30 8387 C 811.247 0.306895 1.99756 0
M  V30 8388 C 811.568 -1.11478 1.59992 0
M  V30 8389 O 810.838 -1.76206 0.856045 0
M  V30 8390 H 809.418 0.11048 0.738785 0
M  V30 8391 H 812.08 0.965785 1.69289 0
M  V30 8392 H 811.176 0.368797 3.09913 0
M  V30 8393 N 811.477 -1.49425 0.500989 0
M  V30 8394 C 812.723 -2.02753 -0.0436 0
M  V30 8395 C 813.056 -1.37991 -1.36646 0
M  V30 8396 O 812.331 -0.515597 -1.87542 0
M  V30 8397 C 812.614 -3.59565 -0.19616 0
M  V30 8398 C 812.467 -4.34855 1.14982 0
M  V30 8399 C 813.786 -4.30014 -0.936795 0
M  V30 8400 H 810.905 -0.73686 -0.0143711 0
M  V30 8401 H 813.547 -1.78448 0.652397 0
M  V30 8402 H 811.697 -3.80405 -0.788959 0
M  V30 8403 H 813.369 -4.25512 1.7815 0
M  V30 8404 H 811.612 -3.97414 1.73911 0
M  V30 8405 H 812.283 -5.42933 0.996385 0
M  V30 8406 H 814.759 -4.1383 -0.434036 0
M  V30 8407 H 813.635 -5.39483 -1.01238 0
M  V30 8408 H 813.896 -3.95257 -1.9805 0
M  V30 8409 N 812.955 -0.234822 -1.55841 0
M  V30 8410 C 813.902 0.6698 -2.20867 0
M  V30 8411 C 814.872 1.18042 -1.16856 0
M  V30 8412 O 816.057 1.23709 -1.45261 0
M  V30 8413 C 813.197 1.86646 -2.90271 0
M  V30 8414 C 812.31 1.39351 -4.08908 0
M  V30 8415 C 811.445 2.54878 -4.66059 0
M  V30 8416 C 810.484 2.04384 -5.76969 0
M  V30 8417 N 809.621 3.13233 -6.28355 0
M  V30 8418 H 814.461 0.10858 -2.97802 0
M  V30 8419 H 811.998 0.041836 -1.4704 0
M  V30 8420 H 813.956 2.56926 -3.28702 0
M  V30 8421 H 812.586 2.40035 -2.15831 0
M  V30 8422 H 811.638 0.585173 -3.75872 0
M  V30 8423 H 812.95 0.983356 -4.89011 0
M  V30 8424 H 812.104 3.33219 -5.07001 0
M  V30 8425 H 810.843 2.99188 -3.85146 0
M  V30 8426 H 809.848 1.24509 -5.35516 0
M  V30 8427 H 811.073 1.61057 -6.59725 0
M  V30 8428 H 809.019 3.57 -5.50352 0
M  V30 8429 H 808.936 2.76511 -7.03618 0
M  V30 8430 H 810.204 3.91669 -6.73955 0
M  V30 8431 O 814.472 1.61196 -0.0990213 0
M  V30 8432 H 815.163 1.87057 0.50292 0
M  V30 END ATOM
M  V30 BEGIN BOND
M  V30 END BOND
M  V30 END CTAB
M  END
$$$$
