drugbank_target|Q07699 Sodium channel subunit beta-1 (DB00243; DB00313; DB00776; DB00907; DB05541; DB13269; DB13961)
 OpenBabel12092120363D

  0  0  0     0  0            999 V3000
M  V30 BEGIN CTAB
M  V30 COUNTS 3436 3463 0 0 0
M  V30 BEGIN ATOM
M  V30 1 H -0.908 1.98254 -0.117106 0
M  V30 2 N 0 1.576 0 0
M  V30 3 C 0.933 2.03868 1.02534 0
M  V30 4 C 1.911 0.928543 1.3348 0
M  V30 5 O 3.095 1.19667 1.45644 0
M  V30 6 C 0.222 2.43627 2.35294 0
M  V30 7 C -0.732 3.65373 2.2001 0
M  V30 8 S 0.101 5.13292 1.52614 0
M  V30 9 C 1.257 5.56322 2.86805 0
M  V30 10 H 1.49 2.90518 0.631377 0
M  V30 11 H -0.977 1.52953 0.210867 0
M  V30 12 H 0.981 2.67203 3.11629 0
M  V30 13 H -0.358 1.57376 2.7183 0
M  V30 14 H -1.165 3.90944 3.18086 0
M  V30 15 H -1.563 3.418 1.51819 0
M  V30 16 H 0.729 5.58782 3.83104 0
M  V30 17 H 1.672 6.56266 2.65933 0
M  V30 18 H 2.08 4.83886 2.90714 0
M  V30 19 N 1.4781 -0.272755 1.55222 0
M  V30 20 C 2.7261 -1.00234 1.75492 0
M  V30 21 C 3.0471 -1.8681 0.5592 0
M  V30 22 O 2.3171 -1.91215 -0.425882 0
M  V30 23 H 0.8971 -0.373076 0.647166 0
M  V30 24 H 3.5591 -0.296926 1.92625 0
M  V30 25 H 2.6551 -1.63913 2.65592 0
M  V30 26 N 2.9562 -1.48159 -0.537278 0
M  V30 27 C 4.3722 -1.34118 -0.865129 0
M  V30 28 C 4.5722 -0.346678 -1.98495 0
M  V30 29 O 3.6282 0.234715 -2.51407 0
M  V30 30 C 4.9412 -2.73963 -1.23954 0
M  V30 31 C 6.4892 -2.82397 -1.34984 0
M  V30 32 C 6.9642 -4.22928 -1.75772 0
M  V30 33 N 8.4552 -4.25566 -1.82887 0
M  V30 34 C 9.1902 -5.31235 -2.15817 0
M  V30 35 N 8.6862 -6.47189 -2.47222 0
M  V30 36 N 10.4792 -5.18624 -2.16761 0
M  V30 37 H 2.6302 -2.1144 0.201715 0
M  V30 38 H 4.8932 -0.947598 0.0275949 0
M  V30 39 H 4.5992 -3.48264 -0.490381 0
M  V30 40 H 4.4732 -3.0702 -2.19132 0
M  V30 41 H 6.8602 -2.08356 -2.08978 0
M  V30 42 H 6.9412 -2.5297 -0.379448 0
M  V30 43 H 6.5852 -4.97482 -1.02341 0
M  V30 44 H 6.5152 -4.49794 -2.73848 0
M  V30 45 H 9.0062 -3.41924 -1.60924 0
M  V30 46 H 9.3192 -7.23564 -2.71433 0
M  V30 47 H 7.6642 -6.50476 -2.44757 0
M  V30 48 H 10.8552 -4.27056 -1.91679 0
M  V30 49 H 11.0282 -6.01078 -2.42093 0
M  V30 50 N 4.4343 0.785586 -1.36625 0
M  V30 51 C 5.3643 1.91259 -1.33949 0
M  V30 52 C 6.3453 1.68795 -0.210325 0
M  V30 53 O 7.5303 1.89854 -0.408561 0
M  V30 54 C 4.6603 3.28339 -1.13186 0
M  V30 55 C 3.6143 3.65335 -2.22967 0
M  V30 56 C 2.9403 5.00806 -1.87342 0
M  V30 57 C 4.2403 3.7352 -3.65075 0
M  V30 58 H 5.9343 1.93755 -2.28253 0
M  V30 59 H 3.4803 0.930788 -1.09874 0
M  V30 60 H 5.4333 4.06804 -1.09948 0
M  V30 61 H 4.1573 3.2624 -0.153332 0
M  V30 62 H 2.8163 2.89169 -2.25337 0
M  V30 63 H 2.4643 4.95233 -0.880545 0
M  V30 64 H 2.1643 5.26529 -2.60846 0
M  V30 65 H 3.6883 5.81687 -1.85667 0
M  V30 66 H 5.1023 4.42168 -3.64911 0
M  V30 67 H 3.4993 4.10731 -4.37516 0
M  V30 68 H 4.5693 2.74527 -3.99703 0
M  V30 69 N 5.9124 1.20967 1.01018 0
M  V30 70 C 6.8424 0.988272 2.11555 0
M  V30 71 C 7.8234 -0.0849778 1.69888 0
M  V30 72 O 9.0084 0.0738202 1.9406 0
M  V30 73 C 6.1384 0.546528 3.42973 0
M  V30 74 C 5.0924 1.56375 3.9841 0
M  V30 75 C 4.4184 0.97842 5.25672 0
M  V30 76 C 5.7184 2.94922 4.31066 0
M  V30 77 H 7.4124 1.91276 2.30334 0
M  V30 78 H 4.9584 0.921073 1.1069 0
M  V30 79 H 6.9114 0.378839 4.19694 0
M  V30 80 H 5.6354 -0.413598 3.23971 0
M  V30 81 H 4.2944 1.71891 3.23804 0
M  V30 82 H 3.9424 0.0101688 5.02999 0
M  V30 83 H 3.6424 1.65784 5.63728 0
M  V30 84 H 5.1664 0.821939 6.05043 0
M  V30 85 H 6.5804 2.8288 4.9865 0
M  V30 86 H 4.9774 3.5983 4.80253 0
M  V30 87 H 6.0474 3.4616 3.39561 0
M  V30 88 N 7.3905 -1.2043 1.01659 0
M  V30 89 C 8.3535 -2.21433 0.591616 0
M  V30 90 C 9.3535 -1.57203 -0.338226 0
M  V30 91 O 10.5435 -1.73737 -0.126918 0
M  V30 92 C 7.6755 -3.40628 -0.136058 0
M  V30 93 H 8.8685 -2.60545 1.48514 0
M  V30 94 H 6.4215 -1.33893 0.806379 0
M  V30 95 H 7.1565 -3.07019 -1.04449 0
M  V30 96 H 6.9415 -3.88475 0.531917 0
M  V30 97 H 8.4315 -4.15475 -0.420735 0
M  V30 98 N 8.8686 -0.792821 -1.36206 0
M  V30 99 C 9.7986 -0.207853 -2.32573 0
M  V30 100 C 10.7796 0.659055 -1.56813 0
M  V30 101 O 11.9646 0.592176 -1.84951 0
M  V30 102 C 9.0946 0.655449 -3.41059 0
M  V30 103 C 8.0486 -0.111842 -4.27854 0
M  V30 104 C 7.3746 0.872274 -5.27537 0
M  V30 105 C 8.6746 -1.30299 -5.05786 0
M  V30 106 H 10.3686 -1.01294 -2.81744 0
M  V30 107 H 7.9146 -0.48854 -1.3546 0
M  V30 108 H 9.8676 1.07464 -4.07467 0
M  V30 109 H 8.5916 1.49328 -2.90463 0
M  V30 110 H 7.2506 -0.512053 -3.63006 0
M  V30 111 H 6.8986 1.70523 -4.73214 0
M  V30 112 H 6.5986 0.363291 -5.86476 0
M  V30 113 H 8.1226 1.28996 -5.96818 0
M  V30 114 H 9.5366 -0.959379 -5.65216 0
M  V30 115 H 7.9336 -1.7455 -5.74154 0
M  V30 116 H 9.0036 -2.09663 -4.37229 0
M  V30 117 N 10.3467 1.47872 -0.545128 0
M  V30 118 C 11.5927 2.02793 -0.0166104 0
M  V30 119 C 11.9257 1.41987 1.32489 0
M  V30 120 O 11.2007 0.571045 1.85928 0
M  V30 121 C 11.4837 3.59989 0.0893294 0
M  V30 122 C 11.3367 4.3125 -1.27841 0
M  V30 123 C 12.6557 4.32606 0.808724 0
M  V30 124 H 9.7747 0.736962 -0.00751035 0
M  V30 125 H 12.4167 1.76433 -0.705085 0
M  V30 126 H 10.5667 3.82579 0.675681 0
M  V30 127 H 12.2387 4.20035 -1.90704 0
M  V30 128 H 10.4817 3.92076 -1.85632 0
M  V30 129 H 11.1527 5.39736 -1.15713 0
M  V30 130 H 13.6287 4.14936 0.310992 0
M  V30 131 H 12.5047 5.42251 0.851782 0
M  V30 132 H 12.7657 4.00963 1.86229 0
M  V30 133 N 11.8248 0.280983 1.55075 0
M  V30 134 C 13.0708 -0.33461 2.00021 0
M  V30 135 C 13.4038 -1.55063 1.16915 0
M  V30 136 O 12.6788 -1.93006 0.240646 0
M  V30 137 C 12.9618 -0.711007 3.53011 0
M  V30 138 C 12.8148 0.512766 4.46868 0
M  V30 139 C 14.1338 -1.54522 4.12081 0
M  V30 140 H 11.2528 -0.120147 0.727141 0
M  V30 141 H 13.8948 0.389097 1.85973 0
M  V30 142 H 12.0448 -1.32761 3.65112 0
M  V30 143 H 13.7168 1.15131 4.46702 0
M  V30 144 H 11.9598 1.14975 4.18286 0
M  V30 145 H 12.6308 0.205556 5.51617 0
M  V30 146 H 15.1068 -1.02442 4.03293 0
M  V30 147 H 13.9828 -1.77739 5.19327 0
M  V30 148 H 14.2438 -2.52813 3.62682 0
M  V30 149 N 13.3029 -1.57598 0.00835791 0
M  V30 150 C 14.5509 -1.90551 -0.6734 0
M  V30 151 C 14.8719 -0.883301 -1.73847 0
M  V30 152 O 14.1419 0.0781442 -1.95744 0
M  V30 153 H 12.7219 -0.703312 -0.251717 0
M  V30 154 H 15.3839 -1.94833 0.0512592 0
M  V30 155 H 14.4799 -2.9056 -1.13935 0
M  V30 156 N 14.781 0.264519 -1.55364 0
M  V30 157 C 15.744 1.31046 -1.88042 0
M  V30 158 C 16.744 1.41943 -0.755569 0
M  V30 159 O 17.934 1.40947 -1.02369 0
M  V30 160 C 15.066 2.69067 -2.09323 0
M  V30 161 H 16.259 1.03297 -2.81549 0
M  V30 162 H 13.812 0.502989 -1.47986 0
M  V30 163 H 14.547 3.01982 -1.18226 0
M  V30 164 H 14.332 2.62542 -2.91229 0
M  V30 165 H 15.822 3.44623 -2.35848 0
M  V30 166 N 16.2591 1.48442 0.529413 0
M  V30 167 C 17.2221 1.62524 1.61612 0
M  V30 168 C 18.2221 0.498509 1.52877 0
M  V30 169 O 19.4121 0.76431 1.56537 0
M  V30 170 C 16.5441 1.59597 3.01233 0
M  V30 171 H 17.7371 2.59423 1.50465 0
M  V30 172 H 15.2901 1.37047 0.751514 0
M  V30 173 H 16.0251 0.641781 3.17886 0
M  V30 174 H 15.8101 2.41397 3.08982 0
M  V30 175 H 17.3001 1.72646 3.80241 0
M  V30 176 N 17.7372 -0.778329 1.37039 0
M  V30 177 C 18.6672 -1.90546 1.34962 0
M  V30 178 C 19.6482 -1.68681 0.219274 0
M  V30 179 O 20.8332 -1.89634 0.418624 0
M  V30 180 C 17.9632 -3.27734 1.14925 0
M  V30 181 C 16.9172 -3.64147 2.24902 0
M  V30 182 C 16.2432 -4.99806 1.89996 0
M  V30 183 C 17.5432 -3.71579 3.67051 0
M  V30 184 H 19.2372 -1.92541 2.29277 0
M  V30 185 H 16.7832 -0.924948 1.10366 0
M  V30 186 H 18.7362 -4.06215 1.12104 0
M  V30 187 H 17.4602 -3.26154 0.170631 0
M  V30 188 H 16.1192 -2.8797 2.26868 0
M  V30 189 H 15.7672 -4.94759 0.906796 0
M  V30 190 H 15.4672 -5.25139 2.63634 0
M  V30 191 H 16.9912 -5.80694 1.88749 0
M  V30 192 H 18.4052 -4.40227 3.67251 0
M  V30 193 H 16.8022 -4.08405 4.39688 0
M  V30 194 H 17.8722 -2.72404 4.01154 0
M  V30 195 N 19.2153 -1.21501 -1.00376 0
M  V30 196 C 20.4613 -1.03452 -1.74429 0
M  V30 197 C 20.7943 0.430764 -1.89362 0
M  V30 198 O 20.0693 1.31962 -1.42886 0
M  V30 199 C 20.3523 -1.73375 -3.15615 0
M  V30 200 C 20.2053 -3.27431 -3.08397 0
M  V30 201 C 21.5243 -1.47732 -4.14564 0
M  V30 202 H 18.6433 -0.377226 -0.633143 0
M  V30 203 H 21.2853 -1.49693 -1.17013 0
M  V30 204 H 19.4353 -1.34064 -3.64636 0
M  V30 205 H 21.1073 -3.76119 -2.67081 0
M  V30 206 H 19.3503 -3.5767 -2.45468 0
M  V30 207 H 20.0213 -3.71524 -4.08258 0
M  V30 208 H 22.4973 -1.8186 -3.74254 0
M  V30 209 H 21.3733 -1.99169 -5.11491 0
M  V30 210 H 21.6343 -0.407589 -4.40217 0
M  V30 211 N 20.6934 1.19889 -1.02296 0
M  V30 212 C 21.9184 1.9393 -0.735237 0
M  V30 213 C 22.3434 1.74639 0.698782 0
M  V30 214 O 21.7014 1.04481 1.48167 0
M  V30 215 C 21.7494 3.43916 -1.08417 0
M  V30 216 O 20.8534 4.11917 -0.199446 0
M  V30 217 H 20.1944 0.605645 -0.272196 0
M  V30 218 H 22.7244 1.52137 -1.36804 0
M  V30 219 H 22.7344 3.9456 -1.03856 0
M  V30 220 H 21.4094 3.5728 -2.12894 0
M  V30 221 H 19.9864 3.71666 -0.303136 0
M  V30 222 N 22.1715 0.800033 1.35784 0
M  V30 223 C 23.3965 0.388511 2.03729 0
M  V30 224 C 23.8215 -0.990481 1.5991 0
M  V30 225 O 23.1795 -1.64013 0.772612 0
M  V30 226 C 23.2275 0.4726 3.5749 0
M  V30 227 O 22.3315 -0.51646 4.09153 0
M  V30 228 H 21.6725 0.163271 0.643614 0
M  V30 229 H 24.2025 1.0841 1.73518 0
M  V30 230 H 24.2125 0.34003 4.06581 0
M  V30 231 H 22.8875 1.47848 3.88734 0
M  V30 232 H 21.4645 -0.344673 3.71304 0
M  V30 233 N 23.6496 -1.47581 0.552962 0
M  V30 234 C 24.6126 -2.28439 -0.186605 0
M  V30 235 C 25.6126 -1.36706 -0.84665 0
M  V30 236 O 26.8026 -1.59378 -0.703164 0
M  V30 237 C 23.9346 -3.16264 -1.2724 0
M  V30 238 H 25.1276 -2.95294 0.523609 0
M  V30 239 H 22.6806 -1.532 0.309745 0
M  V30 240 H 23.4156 -2.54091 -2.01514 0
M  V30 241 H 23.2006 -3.83769 -0.803968 0
M  V30 242 H 24.6906 -3.77198 -1.79196 0
M  V30 243 N 25.1277 -0.289203 -1.54924 0
M  V30 244 C 26.3677 0.324536 -2.01807 0
M  V30 245 C 26.7317 1.5199 -1.17316 0
M  V30 246 O 27.9327 2.20422 -1.53843 0
M  V30 247 C 26.2037 0.683578 -3.50802 0
M  V30 248 S 27.7627 1.28185 -4.19659 0
M  V30 249 H 24.5807 0.100236 -0.703899 0
M  V30 250 H 27.1827 -0.414325 -1.91059 0
M  V30 251 H 25.8867 -0.195073 -4.09936 0
M  V30 252 H 25.4177 1.45354 -3.65562 0
M  V30 253 H 27.4327 2.57006 -4.24456 0
M  V30 254 N 26.6058 1.57591 -0.0167156 0
M  V30 255 C 27.8538 1.90906 0.663285 0
M  V30 256 C 28.1748 0.892509 1.73376 0
M  V30 257 O 27.4448 -0.0677623 1.95783 0
M  V30 258 H 26.0248 0.704637 0.247983 0
M  V30 259 H 28.6868 1.94803 -0.0615909 0
M  V30 260 H 27.7828 2.9116 1.12393 0
M  V30 261 N 28.0839 -0.256276 1.55502 0
M  V30 262 C 29.3319 -0.983672 1.76545 0
M  V30 263 C 29.6529 -1.86206 0.578982 0
M  V30 264 O 28.9229 -1.91656 -0.405577 0
M  V30 265 H 27.5029 -0.366191 0.651086 0
M  V30 266 H 30.1649 -0.276479 1.92929 0
M  V30 267 H 29.2609 -1.61087 2.67315 0
M  V30 268 N 29.562 -1.4872 -0.521534 0
M  V30 269 C 30.802 -1.58771 -1.28729 0
M  V30 270 C 31.166 -0.259394 -1.9024 0
M  V30 271 O 32.367 -0.234942 -2.67771 0
M  V30 272 C 30.638 -2.70039 -2.34124 0
M  V30 273 S 32.197 -2.9991 -3.20312 0
M  V30 274 H 29.015 -0.560251 -0.437767 0
M  V30 275 H 31.617 -1.86283 -0.593188 0
M  V30 276 H 30.321 -3.65101 -1.87429 0
M  V30 277 H 29.852 -2.44455 -3.08229 0
M  V30 278 H 31.867 -2.39855 -4.34378 0
M  V30 279 N 31.0401 0.771051 -1.3745 0
M  V30 280 C 32.2861 1.5319 -1.32894 0
M  V30 281 C 32.6191 1.94008 0.0862511 0
M  V30 282 O 31.8941 1.64124 1.04373 0
M  V30 283 C 32.1771 2.79648 -2.26868 0
M  V30 284 C 32.0301 2.45079 -3.77169 0
M  V30 285 C 33.3491 3.81583 -2.19277 0
M  V30 286 H 30.4681 0.555744 -0.484064 0
M  V30 287 H 33.1101 0.884492 -1.68157 0
M  V30 288 H 31.2601 3.34891 -1.96926 0
M  V30 289 H 32.9321 1.95745 -4.1771 0
M  V30 290 H 31.1751 1.77767 -3.95704 0
M  V30 291 H 31.8461 3.35478 -4.38359 0
M  V30 292 H 34.3221 3.35835 -2.45671 0
M  V30 293 H 33.1981 4.67787 -2.87171 0
M  V30 294 H 33.4591 4.25897 -1.18592 0
M  V30 295 N 32.5182 1.22032 0.997298 0
M  V30 296 C 33.4282 1.00271 2.12092 0
M  V30 297 C 34.4442 -0.047621 1.73935 0
M  V30 298 O 35.6202 0.144136 2.00884 0
M  V30 299 C 32.6852 0.578449 3.4184 0
M  V30 300 C 31.7462 1.70189 3.94125 0
M  V30 301 C 30.9792 1.29778 5.17681 0
M  V30 302 O 31.2022 0.174676 5.70132 0
M  V30 303 O 30.1362 2.11261 5.63607 0
M  V30 304 H 33.9622 1.94398 2.3333 0
M  V30 305 H 31.5472 1.00587 1.10465 0
M  V30 306 H 33.4292 0.351998 4.19927 0
M  V30 307 H 32.1042 -0.334019 3.21972 0
M  V30 308 H 31.0112 1.98282 3.1723 0
M  V30 309 H 32.3442 2.59206 4.18417 0
M  V30 310 N 33.9963 -1.19345 1.0293 0
M  V30 311 C 35.2423 -1.89318 0.727083 0
M  V30 312 C 35.5753 -1.79446 -0.742483 0
M  V30 313 O 34.8503 -1.1871 -1.54072 0
M  V30 314 C 35.1333 -3.40238 1.17942 0
M  V30 315 C 34.9863 -3.58979 2.71024 0
M  V30 316 C 36.3053 -4.33479 0.760548 0
M  V30 317 H 33.4243 -0.687475 0.265606 0
M  V30 318 H 36.0663 -1.40477 1.2793 0
M  V30 319 H 34.2163 -3.81964 0.709608 0
M  V30 320 H 35.8883 -3.26421 3.25955 0
M  V30 321 H 34.1313 -3.02018 3.11396 0
M  V30 322 H 34.8023 -4.64823 2.9773 0
M  V30 323 H 37.2783 -3.99469 1.16464 0
M  V30 324 H 36.1543 -5.37664 1.10493 0
M  V30 325 H 36.4153 -4.40813 -0.337063 0
M  V30 326 N 35.4744 -0.807222 -1.35358 0
M  V30 327 C 36.7514 -0.311126 -1.9311 0
M  V30 328 C 37.1314 1.19937 -1.73719 0
M  V30 329 O 36.4794 1.99918 -1.10657 0
M  V30 330 C 36.6894 -0.723226 -3.41424 0
M  V30 331 C 38.0374 -0.713078 -4.18569 0
M  V30 332 O 39.0614 -0.664811 -3.49941 0
M  V30 333 O 37.9204 -0.772022 -5.41019 0
M  V30 334 H 35.0144 -0.081526 -0.822972 0
M  V30 335 H 37.5604 -0.890962 -1.4443 0
M  V30 336 H 36.3324 -1.76426 -3.4927 0
M  V30 337 H 35.9554 -0.118232 -3.97424 0
M  V30 338 N 36.9525 1.47285 -0.560781 0
M  V30 339 C 38.1775 2.07359 -0.0410566 0
M  V30 340 C 38.6025 1.41017 1.24483 0
M  V30 341 O 37.9605 0.486368 1.74654 0
M  V30 342 C 38.0085 3.6035 0.134123 0
M  V30 343 O 37.1125 3.94681 1.19587 0
M  V30 344 H 36.4535 0.661887 -0.0529291 0
M  V30 345 H 38.9835 1.89252 -0.777482 0
M  V30 346 H 38.9935 4.0652 0.347207 0
M  V30 347 H 37.6685 4.08034 -0.805047 0
M  V30 348 H 36.2455 3.60251 0.962987 0
M  V30 349 N 38.4306 0.297415 1.54768 0
M  V30 350 C 39.3406 -0.58983 2.27064 0
M  V30 351 C 40.3566 -1.15144 1.30453 0
M  V30 352 O 41.5326 -1.17699 1.63428 0
M  V30 353 C 38.5976 -1.74714 2.9946 0
M  V30 354 C 37.6586 -1.21997 4.11601 0
M  V30 355 C 36.8916 -2.32212 4.80535 0
M  V30 356 O 37.1146 -3.52036 4.48806 0
M  V30 357 O 36.0486 -1.99106 5.68014 0
M  V30 358 H 39.8746 -0.00348199 3.037 0
M  V30 359 H 37.4596 0.0640035 1.49263 0
M  V30 360 H 39.3416 -2.42147 3.44881 0
M  V30 361 H 38.0166 -2.32016 2.25722 0
M  V30 362 H 36.9236 -0.511458 3.70587 0
M  V30 363 H 38.2566 -0.692419 4.87305 0
M  V30 364 N 39.9087 -1.5758 0.0250728 0
M  V30 365 C 41.1367 -1.9593 -0.664747 0
M  V30 366 C 41.5517 -0.901352 -1.65895 0
M  V30 367 O 40.9087 0.117255 -1.82123 0
M  V30 368 C 40.9597 -3.34342 -1.37468 0
M  V30 369 O 40.6807 -4.36079 -0.420324 0
M  V30 370 C 42.1817 -3.873 -2.1567 0
M  V30 371 H 39.4017 -0.645405 -0.183557 0
M  V30 372 H 41.9457 -2.04329 0.0836372 0
M  V30 373 H 40.1007 -3.27175 -2.0745 0
M  V30 374 H 40.5147 -5.16297 -0.923991 0
M  V30 375 H 41.9887 -4.86504 -2.60803 0
M  V30 376 H 42.4657 -3.21331 -2.99405 0
M  V30 377 H 43.0717 -3.97723 -1.50654 0
M  V30 378 N 41.3868 0.248026 -1.55636 0
M  V30 379 C 42.2968 1.32859 -1.93354 0
M  V30 380 C 43.3128 1.52719 -0.833838 0
M  V30 381 O 44.4888 1.66363 -1.13513 0
M  V30 382 C 41.5538 2.66337 -2.21958 0
M  V30 383 C 40.6148 2.55008 -3.45354 0
M  V30 384 C 39.8478 3.82121 -3.72584 0
M  V30 385 O 40.0708 4.83951 -3.01907 0
M  V30 386 O 39.0048 3.80822 -4.6611 0
M  V30 387 H 42.8308 1.03862 -2.85388 0
M  V30 388 H 40.4158 0.448686 -1.42503 0
M  V30 389 H 42.2978 3.45216 -2.4167 0
M  V30 390 H 40.9728 2.95068 -1.33103 0
M  V30 391 H 39.8798 1.7442 -3.30951 0
M  V30 392 H 41.2128 2.31222 -4.34508 0
M  V30 393 N 42.8649 1.48995 0.513639 0
M  V30 394 C 43.8279 1.64229 1.59879 0
M  V30 395 C 44.8279 0.514696 1.5234 0
M  V30 396 O 46.0179 0.78087 1.55718 0
M  V30 397 C 43.1499 1.62783 2.99524 0
M  V30 398 H 44.3429 2.61004 1.47705 0
M  V30 399 H 41.8959 1.37837 0.736936 0
M  V30 400 H 42.6309 0.675461 3.17188 0
M  V30 401 H 42.4159 2.4466 3.06404 0
M  V30 402 H 43.9059 1.76669 3.78388 0
M  V30 403 N 44.343 -0.763751 1.37857 0
M  V30 404 C 45.589 -1.52483 1.33704 0
M  V30 405 C 45.922 -1.94051 -0.0759612 0
M  V30 406 O 45.197 -1.64675 -1.03501 0
M  V30 407 C 45.48 -2.78441 2.28348 0
M  V30 408 C 45.333 -2.43075 3.78463 0
M  V30 409 C 46.652 -3.80415 2.21298 0
M  V30 410 H 43.771 -0.553169 0.487005 0
M  V30 411 H 46.413 -0.875562 1.68624 0
M  V30 412 H 44.563 -3.33842 1.987 0
M  V30 413 H 46.235 -1.93527 4.18742 0
M  V30 414 H 44.478 -1.75666 3.96641 0
M  V30 415 H 45.149 -3.33149 4.40132 0
M  V30 416 H 47.625 -3.34527 2.47449 0
M  V30 417 H 46.501 -4.66257 2.89647 0
M  V30 418 H 46.762 -4.25262 1.20849 0
M  V30 419 N 45.8211 -1.22559 -0.990812 0
M  V30 420 C 47.0511 -1.07623 -1.76355 0
M  V30 421 C 47.4591 0.37601 -1.85426 0
M  V30 422 O 46.8021 1.27228 -1.32509 0
M  V30 423 C 46.8641 -1.61507 -3.21179 0
M  V30 424 C 46.5281 -3.10146 -3.35646 0
M  V30 425 C 47.5251 -4.07553 -3.22796 0
M  V30 426 C 45.2101 -3.49644 -3.60631 0
M  V30 427 C 47.2041 -5.42442 -3.34716 0
M  V30 428 C 44.8911 -4.84682 -3.72192 0
M  V30 429 C 45.8891 -5.8089 -3.59243 0
M  V30 430 O 45.5771 -7.13476 -3.70415 0
M  V30 431 H 45.3091 -0.377745 -0.560611 0
M  V30 432 H 47.8631 -1.62658 -1.25425 0
M  V30 433 H 46.0931 -1.00881 -3.73309 0
M  V30 434 H 47.7821 -1.42202 -3.80175 0
M  V30 435 H 48.5481 -3.78381 -3.03403 0
M  V30 436 H 44.4271 -2.75282 -3.69785 0
M  V30 437 H 47.9711 -6.17518 -3.24526 0
M  V30 438 H 43.8681 -5.13534 -3.91092 0
M  V30 439 H 44.6361 -7.21083 -3.87275 0
M  V30 440 N 47.2992 1.18797 -1.03562 0
M  V30 441 C 48.5472 1.88278 -0.734569 0
M  V30 442 C 48.8682 1.8043 0.739586 0
M  V30 443 O 48.1382 1.21925 1.53333 0
M  V30 444 H 46.7182 0.696991 -0.268725 0
M  V30 445 H 49.3802 1.44192 -1.31129 0
M  V30 446 H 48.4762 2.94443 -1.03489 0
M  V30 447 N 48.7773 0.814389 1.34928 0
M  V30 448 C 49.7103 0.175641 2.27523 0
M  V30 449 C 50.6883 -0.662953 1.48471 0
M  V30 450 O 51.8723 -0.628545 1.77712 0
M  V30 451 C 48.9993 -0.755516 3.30166 0
M  V30 452 C 48.0453 0.00445305 4.265 0
M  V30 453 S 48.8783 1.34582 5.18313 0
M  V30 454 C 50.0343 0.419315 6.24494 0
M  V30 455 H 50.2673 0.960691 2.8135 0
M  V30 456 H 47.8003 0.609846 1.41846 0
M  V30 457 H 49.7583 -1.28723 3.89796 0
M  V30 458 H 48.4193 -1.51402 2.75202 0
M  V30 459 H 47.6123 -0.703077 4.99072 0
M  V30 460 H 47.2143 0.466447 3.7108 0
M  V30 461 H 49.5063 -0.392432 6.76362 0
M  V30 462 H 50.4493 1.11446 6.99275 0
M  V30 463 H 50.8573 0.0115389 5.64499 0
M  V30 464 N 50.2554 -1.46986 0.568584 0
M  V30 465 C 51.4834 -2.0683 0.0539956 0
M  V30 466 C 51.8984 -1.41953 -1.24478 0
M  V30 467 O 51.2554 -0.519933 -1.74937 0
M  V30 468 C 51.3064 -3.61254 -0.133362 0
M  V30 469 O 51.0274 -4.237 1.11399 0
M  V30 470 C 52.5284 -4.37992 -0.683927 0
M  V30 471 H 49.7484 -0.669058 0.0510141 0
M  V30 472 H 52.2924 -1.88824 0.785234 0
M  V30 473 H 50.4474 -3.78735 -0.81477 0
M  V30 474 H 50.8614 -5.16388 0.91888 0
M  V30 475 H 52.3354 -5.46684 -0.764263 0
M  V30 476 H 52.8124 -4.05058 -1.69778 0
M  V30 477 H 53.4184 -4.25283 -0.0378494 0
M  V30 478 N 51.7335 -0.305618 -1.54608 0
M  V30 479 C 52.9805 0.302298 -2.00231 0
M  V30 480 C 53.3085 1.5354 -1.19398 0
M  V30 481 O 52.5635 1.93973 -0.259423 0
M  V30 482 C 52.8625 0.698983 -3.50498 0
M  V30 483 C 52.5285 -0.432903 -4.48817 0
M  V30 484 C 51.1905 -0.743622 -4.75419 0
M  V30 485 C 53.5425 -1.19409 -5.07337 0
M  V30 486 C 50.8705 -1.81857 -5.57804 0
M  V30 487 C 53.2225 -2.25899 -5.90891 0
M  V30 488 C 51.8865 -2.57572 -6.15803 0
M  V30 489 H 51.1565 0.110619 -0.732697 0
M  V30 490 H 53.8035 -0.425674 -1.86709 0
M  V30 491 H 52.1085 1.50711 -3.61654 0
M  V30 492 H 53.8055 1.1806 -3.83227 0
M  V30 493 H 50.3955 -0.18063 -4.28219 0
M  V30 494 H 54.5795 -0.967295 -4.86782 0
M  V30 495 H 49.8355 -2.06864 -5.75341 0
M  V30 496 H 54.0095 -2.85335 -6.35261 0
M  V30 497 H 51.6365 -3.40998 -6.7943 0
M  V30 498 N 53.2116 1.57565 -0.0334293 0
M  V30 499 C 54.1586 2.10478 0.946981 0
M  V30 500 C 55.1286 1.00787 1.32027 0
M  V30 501 O 56.3136 1.28232 1.41284 0
M  V30 502 C 53.4536 2.63994 2.22263 0
M  V30 503 C 52.5666 3.87709 1.90541 0
M  V30 504 C 51.7016 4.29604 3.12433 0
M  V30 505 C 50.7406 5.46065 2.76549 0
M  V30 506 N 49.8776 5.83096 3.9108 0
M  V30 507 H 54.7176 2.93963 0.488846 0
M  V30 508 H 52.2546 1.45296 0.22969 0
M  V30 509 H 54.2126 2.93114 2.96884 0
M  V30 510 H 52.8426 1.83333 2.65685 0
M  V30 511 H 51.8946 3.65291 1.06144 0
M  V30 512 H 53.2066 4.72403 1.60116 0
M  V30 513 H 52.3606 4.60182 3.9537 0
M  V30 514 H 51.0996 3.43685 3.46023 0
M  V30 515 H 50.1046 5.15176 1.92026 0
M  V30 516 H 51.3296 6.33685 2.44171 0
M  V30 517 H 49.2756 5.00132 4.24504 0
M  V30 518 H 49.1926 6.6244 3.64293 0
M  V30 519 H 50.4606 6.18282 4.74708 0
M  V30 520 N 54.6897 -0.239769 1.55765 0
M  V30 521 C 55.9387 -0.964754 1.77131 0
M  V30 522 C 56.2517 -1.86213 0.59868 0
M  V30 523 O 57.4577 -2.6244 0.695522 0
M  V30 524 C 55.9137 -1.76552 3.1362 0
M  V30 525 C 55.5217 -0.915185 4.38553 0
M  V30 526 C 57.2657 -2.48281 3.44321 0
M  V30 527 C 55.1727 -1.71225 5.66071 0
M  V30 528 H 54.1027 -0.363953 0.660344 0
M  V30 529 H 56.7537 -0.219181 1.82186 0
M  V30 530 H 55.1357 -2.55331 3.02691 0
M  V30 531 H 56.3097 -0.169217 4.60489 0
M  V30 532 H 54.6247 -0.310889 4.15238 0
M  V30 533 H 57.2217 -3.08382 4.36812 0
M  V30 534 H 57.5647 -3.20256 2.65973 0
M  V30 535 H 58.0977 -1.76507 3.56497 0
M  V30 536 H 54.8367 -1.03612 6.4726 0
M  V30 537 H 54.3567 -2.43331 5.48224 0
M  V30 538 H 56.0357 -2.27758 6.05587 0
M  V30 539 N 56.1678 -1.49265 -0.50573 0
M  V30 540 C 57.0978 -1.68495 -1.61653 0
M  V30 541 C 58.0788 -0.53366 -1.61512 0
M  V30 542 O 59.2638 -0.76897 -1.78327 0
M  V30 543 C 56.3938 -1.74709 -3.00157 0
M  V30 544 C 55.3478 -2.89581 -3.15162 0
M  V30 545 C 54.6738 -2.80903 -4.5497 0
M  V30 546 C 55.9738 -4.30578 -2.95634 0
M  V30 547 H 57.6678 -2.61493 -1.45814 0
M  V30 548 H 55.2138 -1.25838 -0.70005 0
M  V30 549 H 57.1668 -1.86748 -3.77761 0
M  V30 550 H 55.8908 -0.783067 -3.17074 0
M  V30 551 H 54.5498 -2.77136 -2.39982 0
M  V30 552 H 54.1978 -1.82419 -4.68756 0
M  V30 553 H 53.8978 -3.57999 -4.65951 0
M  V30 554 H 55.4218 -2.94944 -5.34641 0
M  V30 555 H 56.8358 -4.4373 -3.63011 0
M  V30 556 H 55.2328 -5.0886 -3.18091 0
M  V30 557 H 56.3028 -4.45352 -1.91806 0
M  V30 558 N 57.6459 0.756429 -1.3826 0
M  V30 559 C 58.8859 1.52833 -1.35725 0
M  V30 560 C 59.2499 1.91926 0.0534106 0
M  V30 561 O 60.4509 2.68028 0.203613 0
M  V30 562 C 58.7219 2.74919 -2.28373 0
M  V30 563 S 60.2809 3.64817 -2.43832 0
M  V30 564 H 57.0989 0.523043 -0.481608 0
M  V30 565 H 59.7009 0.888212 -1.74158 0
M  V30 566 H 58.4049 2.44304 -3.29763 0
M  V30 567 H 57.9359 3.43878 -1.91079 0
M  V30 568 H 59.9509 4.676 -1.66027 0
M  V30 569 N 59.124 1.23083 0.984299 0
M  V30 570 C 60.373 1.05466 1.71929 0
M  V30 571 C 60.686 -0.409211 1.91272 0
M  V30 572 O 61.892 -0.705226 2.62181 0
M  V30 573 C 60.348 1.83874 3.09384 0
M  V30 574 C 59.956 3.34566 2.97943 0
M  V30 575 C 61.7 1.74734 3.8687 0
M  V30 576 C 59.607 4.05381 4.30605 0
M  V30 577 H 58.537 0.391039 0.644674 0
M  V30 578 H 61.188 1.47013 1.09815 0
M  V30 579 H 59.57 1.35131 3.72231 0
M  V30 580 H 60.744 3.90767 2.44209 0
M  V30 581 H 59.059 3.44476 2.33934 0
M  V30 582 H 61.656 2.24957 4.85076 0
M  V30 583 H 61.999 0.709372 4.10212 0
M  V30 584 H 62.532 2.21067 3.30717 0
M  V30 585 H 59.271 5.09467 4.1246 0
M  V30 586 H 58.791 3.53967 4.84218 0
M  V30 587 H 60.47 4.11458 4.99311 0
M  V30 588 N 60.6021 -1.18246 1.0419 0
M  V30 589 C 61.8271 -1.92736 0.765996 0
M  V30 590 C 62.2521 -1.75728 -0.67091 0
M  V30 591 O 61.6101 -1.06825 -1.46486 0
M  V30 592 C 61.6581 -3.42148 1.13875 0
M  V30 593 O 60.7621 -4.11548 0.264954 0
M  V30 594 H 60.1031 -0.601238 0.281797 0
M  V30 595 H 62.6331 -1.49942 1.39207 0
M  V30 596 H 62.6431 -3.92858 1.1012 0
M  V30 597 H 61.3181 -3.53848 2.18551 0
M  V30 598 H 59.8951 -3.71137 0.362226 0
M  V30 599 N 62.0802 -0.821533 -1.34494 0
M  V30 600 C 63.3202 -0.414785 -2.00147 0
M  V30 601 C 63.6842 1.00299 -1.6372 0
M  V30 602 O 64.8852 1.51255 -2.22206 0
M  V30 603 C 63.1562 -0.609403 -3.52166 0
M  V30 604 S 64.7152 -0.295297 -4.37805 0
M  V30 605 H 61.5332 -0.15679 -0.693497 0
M  V30 606 H 64.1352 -1.06705 -1.63812 0
M  V30 607 H 62.8392 -1.64096 -3.76166 0
M  V30 608 H 62.3702 0.0576414 -3.93358 0
M  V30 609 H 64.3852 0.891531 -4.88125 0
M  V30 610 N 63.5583 1.46682 -0.576371 0
M  V30 611 C 64.5053 2.30241 0.160499 0
M  V30 612 C 65.4753 1.40233 0.890162 0
M  V30 613 O 66.6603 1.69186 0.882084 0
M  V30 614 C 63.8003 3.24578 1.1723 0
M  V30 615 C 62.9133 4.29684 0.446736 0
M  V30 616 C 62.0483 5.11154 1.44551 0
M  V30 617 C 61.0873 6.08015 0.70599 0
M  V30 618 N 60.2243 6.82376 1.65251 0
M  V30 619 H 65.0643 2.92727 -0.558127 0
M  V30 620 H 62.6013 1.44272 -0.287056 0
M  V30 621 H 64.5593 3.77711 1.77172 0
M  V30 622 H 63.1893 2.63916 1.85872 0
M  V30 623 H 62.2413 3.79458 -0.267594 0
M  V30 624 H 63.5533 4.98626 -0.131686 0
M  V30 625 H 62.7073 5.68533 2.11791 0
M  V30 626 H 61.4463 4.42158 2.05786 0
M  V30 627 H 60.4513 5.49796 0.0197725 0
M  V30 628 H 61.6763 6.79028 0.09912 0
M  V30 629 H 59.6223 6.16094 2.25308 0
M  V30 630 H 59.5393 7.47556 1.12673 0
M  V30 631 H 60.8073 7.44316 2.31546 0
M  V30 632 N 65.0364 0.313813 1.54444 0
M  V30 633 C 66.4524 -0.0391619 1.59552 0
M  V30 634 C 66.6524 -1.51322 1.33056 0
M  V30 635 O 65.7084 -2.26782 1.11022 0
M  V30 636 C 67.0214 0.370302 2.98411 0
M  V30 637 C 68.5694 0.320139 3.11358 0
M  V30 638 C 69.0444 0.704617 4.52547 0
M  V30 639 N 70.5354 0.657645 4.58508 0
M  V30 640 C 71.2704 0.927453 5.6585 0
M  V30 641 N 70.7664 1.26389 6.81174 0
M  V30 642 N 72.5594 0.853662 5.5558 0
M  V30 643 H 64.7104 1.27433 1.69925 0
M  V30 644 H 66.9734 0.517511 0.794284 0
M  V30 645 H 66.6794 1.39694 3.22767 0
M  V30 646 H 66.5534 -0.269619 3.76235 0
M  V30 647 H 68.9404 -0.697275 2.86744 0
M  V30 648 H 69.0214 0.99486 2.35661 0
M  V30 649 H 68.6654 1.7199 4.77893 0
M  V30 650 H 68.5954 0.00768843 5.26599 0
M  V30 651 H 71.0864 0.409067 3.75679 0
M  V30 652 H 71.3994 1.4554 7.58972 0
M  V30 653 H 69.7444 1.30206 6.82694 0
M  V30 654 H 72.9354 0.590383 4.64362 0
M  V30 655 H 73.1084 1.0673 6.3915 0
M  V30 656 N 66.5145 -1.57545 0.0417849 0
M  V30 657 C 67.9305 -1.56467 -0.314704 0
M  V30 658 C 68.1305 -1.04859 -1.72066 0
M  V30 659 O 67.1865 -0.700983 -2.42575 0
M  V30 660 C 68.4995 -3.00317 -0.15174 0
M  V30 661 C 70.0475 -3.12201 -0.223553 0
M  V30 662 C 70.5225 -4.57913 -0.0892295 0
M  V30 663 N 72.0135 -4.6297 -0.145808 0
M  V30 664 C 72.7485 -5.73362 -0.0658459 0
M  V30 665 N 72.2445 -6.92769 0.0659282 0
M  V30 666 N 74.0375 -5.6197 -0.12075 0
M  V30 667 H 66.1885 -1.89416 0.961014 0
M  V30 668 H 68.4515 -0.871862 0.372237 0
M  V30 669 H 68.1575 -3.42073 0.817254 0
M  V30 670 H 68.0315 -3.65892 -0.916692 0
M  V30 671 H 70.4185 -2.70349 -1.18301 0
M  V30 672 H 70.4995 -2.49323 0.571994 0
M  V30 673 H 70.1435 -5.00448 0.866867 0
M  V30 674 H 70.0735 -5.18786 -0.903802 0
M  V30 675 H 72.5645 -3.7709 -0.247286 0
M  V30 676 H 72.8775 -7.72707 0.119905 0
M  V30 677 H 71.2225 -6.94927 0.100885 0
M  V30 678 H 74.4135 -4.67572 -0.222187 0
M  V30 679 H 74.5865 -6.47977 -0.0549735 0
M  V30 680 N 67.9926 0.231505 -1.5589 0
M  V30 681 C 69.2176 0.978689 -1.82856 0
M  V30 682 C 69.6426 1.77559 -0.620846 0
M  V30 683 O 69.0006 1.76119 0.430305 0
M  V30 684 C 69.0486 1.87997 -3.07716 0
M  V30 685 O 68.1526 2.97393 -2.85712 0
M  V30 686 H 67.4936 0.277663 -0.603158 0
M  V30 687 H 70.0236 0.24783 -2.03093 0
M  V30 688 H 70.0336 2.2917 -3.37558 0
M  V30 689 H 68.7086 1.29417 -3.95252 0
M  V30 690 H 67.2856 2.60238 -2.67078 0
M  V30 691 N 69.4707 1.49531 0.497807 0
M  V30 692 C 70.3807 1.69176 1.62532 0
M  V30 693 C 71.3967 0.5744 1.64246 0
M  V30 694 O 72.5727 0.849497 1.82608 0
M  V30 695 C 69.6377 1.75695 2.98885 0
M  V30 696 C 68.6987 2.9929 3.07773 0
M  V30 697 C 67.9317 3.05488 4.37622 0
M  V30 698 O 68.1547 2.19192 5.26603 0
M  V30 699 O 67.0887 3.9798 4.51548 0
M  V30 700 H 70.9147 2.647 1.48887 0
M  V30 701 H 68.4997 1.3331 0.674441 0
M  V30 702 H 70.3817 1.82317 3.79919 0
M  V30 703 H 69.0567 0.8335 3.12785 0
M  V30 704 H 67.9637 2.98183 2.25915 0
M  V30 705 H 69.2967 3.91125 2.98801 0
M  V30 706 N 70.9488 -0.749086 1.3866 0
M  V30 707 C 72.1768 -1.53834 1.38358 0
M  V30 708 C 72.5918 -1.88783 -0.0255219 0
M  V30 709 O 71.9488 -1.53101 -0.993292 0
M  V30 710 C 71.9998 -2.83468 2.2434 0
M  V30 711 O 71.7208 -2.50008 3.5976 0
M  V30 712 C 73.2218 -3.7758 2.32267 0
M  V30 713 H 70.4418 -0.47585 0.473083 0
M  V30 714 H 72.9858 -0.926726 1.82297 0
M  V30 715 H 71.1408 -3.40995 1.83851 0
M  V30 716 H 71.5548 -3.33182 4.05081 0
M  V30 717 H 73.0288 -4.65478 2.96706 0
M  V30 718 H 73.5058 -4.18334 1.33765 0
M  V30 719 H 74.1118 -3.25976 2.73166 0
M  V30 720 N 72.4269 -1.23603 -0.977757 0
M  V30 721 C 73.3749 -1.01704 -2.09187 0
M  V30 722 C 74.3689 0.0448214 -1.69341 0
M  V30 723 O 75.5749 -0.108902 -1.7967 0
M  V30 724 H 71.9499 -0.311803 -0.684312 0
M  V30 725 H 73.9209 -1.96207 -2.24823 0
M  V30 726 C 72.6699 -0.627746 -3.41986 0
M  V30 727 H 71.9929 -1.43656 -3.73099 0
M  V30 728 H 73.4329 -0.514053 -4.20872 0
M  V30 729 C 71.8919 0.664238 -3.30287 0
M  V30 730 O 72.4219 1.71268 -3.6336 0
M  V30 731 N 70.6279 0.641156 -2.83439 0
M  V30 732 H 70.1749 -0.212376 -2.56723 0
M  V30 733 H 70.1329 1.50583 -2.75993 0
M  V30 734 N 73.905 1.17692 -1.04816 0
M  V30 735 C 74.868 2.19787 -0.650117 0
M  V30 736 C 75.868 1.58044 0.296427 0
M  V30 737 O 77.058 1.74012 0.0808097 0
M  V30 738 C 74.19 3.40869 0.0456987 0
M  V30 739 H 75.383 2.56516 -1.5537 0
M  V30 740 H 72.936 1.31708 -0.841594 0
M  V30 741 H 73.671 3.09681 0.962726 0
M  V30 742 H 73.456 3.86928 -0.634727 0
M  V30 743 H 74.946 4.16445 0.310432 0
M  V30 744 N 75.3831 0.828654 1.34056 0
M  V30 745 C 76.2931 0.256725 2.33191 0
M  V30 746 C 77.3091 -0.611898 1.62886 0
M  V30 747 O 78.4851 -0.51844 1.94613 0
M  V30 748 C 75.5501 -0.567238 3.42028 0
M  V30 749 C 74.6111 0.324458 4.28072 0
M  V30 750 C 73.8441 -0.460274 5.31712 0
M  V30 751 O 74.0671 -1.693 5.44696 0
M  V30 752 O 73.0011 0.160391 6.01686 0
M  V30 753 H 76.8271 1.07739 2.83947 0
M  V30 754 H 74.4121 0.59093 1.37217 0
M  V30 755 H 76.2941 -1.03582 4.08471 0
M  V30 756 H 74.9691 -1.36513 2.93506 0
M  V30 757 H 73.8761 0.840659 3.64532 0
M  V30 758 H 75.2091 1.08685 4.8005 0
M  V30 759 N 76.8612 -1.46375 0.584142 0
M  V30 760 C 78.0892 -2.06761 0.0759296 0
M  V30 761 C 78.5042 -1.43266 -1.22965 0
M  V30 762 O 77.8612 -0.538458 -1.74376 0
M  V30 763 C 77.9122 -3.61375 -0.0950384 0
M  V30 764 O 77.6332 -4.22495 1.15887 0
M  V30 765 C 79.1342 -4.38693 -0.637434 0
M  V30 766 H 76.3542 -0.668479 0.0581075 0
M  V30 767 H 78.8982 -1.8798 0.805218 0
M  V30 768 H 77.0532 -3.79578 -0.774554 0
M  V30 769 H 77.4672 -5.15385 0.973598 0
M  V30 770 H 78.9412 -5.47464 -0.706237 0
M  V30 771 H 79.4182 -4.06836 -1.65472 0
M  V30 772 H 80.0242 -4.25299 0.00725967 0
M  V30 773 N 78.3393 -0.321999 -1.54275 0
M  V30 774 C 79.5863 0.281044 -2.0054 0
M  V30 775 C 79.9143 1.52265 -1.21019 0
M  V30 776 O 79.1693 1.93687 -0.279982 0
M  V30 777 C 79.4683 0.661769 -3.5122 0
M  V30 778 C 79.1343 -0.480482 -4.48333 0
M  V30 779 C 77.7963 -0.794005 -4.74604 0
M  V30 780 C 80.1483 -1.24783 -5.06042 0
M  V30 781 C 77.4763 -1.87763 -5.55844 0
M  V30 782 C 79.8283 -2.32153 -5.88462 0
M  V30 783 C 78.4923 -2.64089 -6.13036 0
M  V30 784 H 77.7623 0.102841 -0.733829 0
M  V30 785 H 80.4093 -0.445453 -1.86247 0
M  V30 786 H 78.7143 1.46867 -3.63232 0
M  V30 787 H 80.4113 1.13989 -3.84457 0
M  V30 788 H 77.0013 -0.226039 -4.28004 0
M  V30 789 H 81.1853 -1.01887 -4.85729 0
M  V30 790 H 76.4413 -2.12954 -5.73115 0
M  V30 791 H 80.6153 -2.92057 -6.32199 0
M  V30 792 H 78.2423 -3.48185 -6.75775 0
M  V30 793 N 79.8174 1.5752 -0.0501392 0
M  V30 794 C 81.0454 1.96963 0.633492 0
M  V30 795 C 81.4604 0.927631 1.6444 0
M  V30 796 O 80.8174 -0.0882665 1.82286 0
M  V30 797 C 80.8684 3.36487 1.32132 0
M  V30 798 O 80.5894 4.36693 0.350894 0
M  V30 799 C 82.0904 3.90682 2.09481 0
M  V30 800 H 79.3104 0.648244 0.173266 0
M  V30 801 H 81.8544 2.0417 -0.116134 0
M  V30 802 H 80.0094 3.30434 2.02218 0
M  V30 803 H 80.4234 5.17702 0.841735 0
M  V30 804 H 81.8974 4.90591 2.5303 0
M  V30 805 H 82.3744 3.26053 2.94255 0
M  V30 806 H 82.9804 4.00069 1.44307 0
M  V30 807 N 81.2955 -0.223234 1.56011 0
M  V30 808 C 82.2055 -1.29766 1.95443 0
M  V30 809 C 83.2215 -1.51373 0.858028 0
M  V30 810 O 84.3975 -1.64536 1.16146 0
M  V30 811 C 81.4625 -2.62772 2.26167 0
M  V30 812 C 80.5235 -2.49482 3.49367 0
M  V30 813 C 79.7565 -3.76145 3.78616 0
M  V30 814 O 79.9795 -4.79087 3.09568 0
M  V30 815 O 78.9135 -3.73358 4.72109 0
M  V30 816 H 82.7395 -0.99309 2.87004 0
M  V30 817 H 80.3245 -0.425958 1.43199 0
M  V30 818 H 82.2065 -3.41327 2.47131 0
M  V30 819 H 80.8815 -2.92913 1.37781 0
M  V30 820 H 79.7885 -1.69133 3.33684 0
M  V30 821 H 81.1215 -2.2428 4.38131 0
M  V30 822 N 82.7736 -1.49793 -0.48987 0
M  V30 823 C 84.0196 -1.61049 -1.24236 0
M  V30 824 C 84.3746 -0.298412 -1.90072 0
M  V30 825 O 83.6676 0.702262 -1.78266 0
M  V30 826 C 83.8616 -2.71488 -2.32441 0
M  V30 827 C 83.6906 -4.13308 -1.77218 0
M  V30 828 C 82.4606 -4.79955 -1.58023 0
M  V30 829 C 84.6586 -4.98176 -1.27772 0
M  V30 830 N 82.6406 -6.06052 -0.978465 0
M  V30 831 C 84.0116 -6.14843 -0.798 0
M  V30 832 C 86.0666 -4.84091 -1.16449 0
M  V30 833 C 84.7696 -7.18975 -0.216245 0
M  V30 834 C 86.7956 -5.88382 -0.596698 0
M  V30 835 C 86.1576 -7.04285 -0.127262 0
M  V30 836 H 82.2566 -0.643611 -0.444172 0
M  V30 837 H 84.8406 -1.86842 -0.54754 0
M  V30 838 H 83.0116 -2.47449 -2.99372 0
M  V30 839 H 84.7436 -2.72205 -2.99477 0
M  V30 840 H 81.4986 -4.36936 -1.82712 0
M  V30 841 H 81.9226 -6.73407 -0.696534 0
M  V30 842 H 86.5646 -3.94786 -1.5134 0
M  V30 843 H 84.2826 -8.0797 0.144903 0
M  V30 844 H 87.8686 -5.79545 -0.511716 0
M  V30 845 H 86.7486 -7.83606 0.30523 0
M  V30 846 N 84.2517 0.741722 -1.39055 0
M  V30 847 C 85.4797 1.53098 -1.39171 0
M  V30 848 C 85.8947 1.88794 0.0155099 0
M  V30 849 O 85.2517 1.53626 0.985159 0
M  V30 850 C 85.3027 2.82274 -2.2584 0
M  V30 851 O 85.0237 2.48097 -3.61081 0
M  V30 852 C 86.5247 3.76343 -2.34266 0
M  V30 853 H 83.7447 0.473335 -0.4756 0
M  V30 854 H 86.2887 0.917045 -1.82785 0
M  V30 855 H 84.4437 3.40015 -1.85656 0
M  V30 856 H 84.8577 3.31029 -4.06842 0
M  V30 857 H 86.3317 4.63898 -2.9917 0
M  V30 858 H 86.8087 4.17619 -1.35982 0
M  V30 859 H 87.4147 3.24523 -2.74891 0
M  V30 860 N 85.7298 1.2412 0.971189 0
M  V30 861 C 86.9768 1.07881 1.71371 0
M  V30 862 C 87.3048 -0.382901 1.90694 0
M  V30 863 O 86.5598 -1.29945 1.46331 0
M  V30 864 C 86.8588 1.75983 3.11071 0
M  V30 865 C 86.5248 3.25909 3.11599 0
M  V30 866 C 85.1868 3.66813 3.11451 0
M  V30 867 C 87.5388 4.21771 3.062 0
M  V30 868 C 84.8668 5.02021 3.03631 0
M  V30 869 C 87.2188 5.56982 2.99923 0
M  V30 870 C 85.8828 5.97237 2.98102 0
M  V30 871 H 85.1528 0.394764 0.62709 0
M  V30 872 H 87.7998 1.54176 1.13587 0
M  V30 873 H 86.1048 1.22072 3.72298 0
M  V30 874 H 87.8018 1.60887 3.6731 0
M  V30 875 H 84.3918 2.93353 3.12477 0
M  V30 876 H 88.5758 3.91172 3.05447 0
M  V30 877 H 83.8318 5.32411 3.0058 0
M  V30 878 H 88.0058 6.30969 2.94704 0
M  V30 879 H 85.6328 7.01967 2.91798 0
M  V30 880 N 87.2079 -1.17134 1.05439 0
M  V30 881 C 88.6239 -1.39454 0.776201 0
M  V30 882 C 88.8239 -1.91454 -0.628307 0
M  V30 883 O 87.8799 -2.10777 -1.39031 0
M  V30 884 C 89.1929 -2.38305 1.83388 0
M  V30 885 C 90.7409 -2.52006 1.85639 0
M  V30 886 C 91.2159 -3.54133 2.90437 0
M  V30 887 N 92.7069 -3.61653 2.89415 0
M  V30 888 C 93.4419 -4.4044 3.67152 0
M  V30 889 N 92.9379 -5.22721 4.54681 0
M  V30 890 N 94.7309 -4.35337 3.55581 0
M  V30 891 H 86.8819 -0.817134 1.96053 0
M  V30 892 H 89.1449 -0.421626 0.849079 0
M  V30 893 H 88.8509 -2.07173 2.84204 0
M  V30 894 H 88.7249 -3.37841 1.67761 0
M  V30 895 H 91.1119 -2.82447 0.85486 0
M  V30 896 H 91.1929 -1.52537 2.05344 0
M  V30 897 H 90.8369 -3.24431 3.90777 0
M  V30 898 H 90.7669 -4.53313 2.67983 0
M  V30 899 H 93.2579 -3.02909 2.25952 0
M  V30 900 H 93.5709 -5.80027 5.10674 0
M  V30 901 H 91.9159 -5.22093 4.58741 0
M  V30 902 H 95.1069 -3.70112 2.86592 0
M  V30 903 H 95.2799 -4.96494 4.1641 0
M  V30 904 N 88.686 -0.835752 -1.33615 0
M  V30 905 C 89.618 -0.224151 -2.28101 0
M  V30 906 C 90.631 0.593331 -1.51603 0
M  V30 907 O 91.82 0.420911 -1.73466 0
M  V30 908 C 88.92 0.703309 -3.31522 0
M  V30 909 C 88.093 -0.0741528 -4.37337 0
M  V30 910 C 87.152 0.776176 -5.20444 0
M  V30 911 O 86.178 0.216506 -5.68788 0
M  V30 912 N 87.38 2.09401 -5.41416 0
M  V30 913 H 90.145 -1.03598 -2.81225 0
M  V30 914 H 87.706 -0.69392 -1.46275 0
M  V30 915 H 89.698 1.27707 -3.84022 0
M  V30 916 H 88.268 1.41585 -2.78698 0
M  V30 917 H 87.488 -0.82928 -3.85378 0
M  V30 918 H 88.776 -0.608863 -5.05144 0
M  V30 919 H 88.174 2.57229 -5.03835 0
M  V30 920 H 86.731 2.61633 -5.96985 0
M  V30 921 N 90.1641 1.46063 -0.591896 0
M  V30 922 C 91.1111 2.30399 0.136069 0
M  V30 923 C 92.0811 1.41169 0.875238 0
M  V30 924 O 93.2661 1.70112 0.86409 0
M  V30 925 C 90.4061 3.25804 1.13781 0
M  V30 926 C 89.5191 4.30134 0.401137 0
M  V30 927 C 88.6541 5.12659 1.39121 0
M  V30 928 C 87.6931 6.0873 0.641462 0
M  V30 929 N 86.8301 6.8409 1.58004 0
M  V30 930 H 91.6701 2.92118 -0.589144 0
M  V30 931 H 89.2071 1.43959 -0.302342 0
M  V30 932 H 91.1651 3.79569 1.73156 0
M  V30 933 H 89.7951 2.65872 1.83062 0
M  V30 934 H 88.8471 3.79152 -0.307826 0
M  V30 935 H 90.1591 4.98458 -0.184565 0
M  V30 936 H 89.3131 5.70747 2.05749 0
M  V30 937 H 88.0521 4.44316 2.01084 0
M  V30 938 H 87.0571 5.49786 -0.0385419 0
M  V30 939 H 88.2821 6.79095 0.0270945 0
M  V30 940 H 86.2281 6.18449 2.18761 0
M  V30 941 H 86.1451 7.48709 1.04738 0
M  V30 942 H 87.4131 7.4673 2.23639 0
M  V30 943 N 91.6422 0.330177 1.54103 0
M  V30 944 C 92.8902 -0.269871 2.0029 0
M  V30 945 C 93.2112 -1.52133 1.21986 0
M  V30 946 O 92.4812 -1.93212 0.323438 0
M  V30 947 H 91.0612 -0.10271 0.739905 0
M  V30 948 H 93.7232 0.448249 1.89675 0
M  V30 949 H 92.8192 -0.52166 3.07709 0
M  V30 950 N 93.1203 -1.57491 0.0584922 0
M  V30 951 C 94.3483 -1.97296 -0.623037 0
M  V30 952 C 94.7633 -0.936338 -1.63946 0
M  V30 953 O 94.1203 0.0785981 -1.82331 0
M  V30 954 C 94.1713 -3.37183 -1.30345 0
M  V30 955 O 93.8923 -4.36872 -0.32773 0
M  V30 956 C 95.3933 -3.91788 -2.07406 0
M  V30 957 H 92.6133 -0.649153 -0.169826 0
M  V30 958 H 95.1573 -2.04106 0.12696 0
M  V30 959 H 93.3123 -3.31502 -2.00463 0
M  V30 960 H 93.7263 -5.18141 -0.814269 0
M  V30 961 H 95.2003 -4.91926 -2.50425 0
M  V30 962 H 95.6773 -3.27609 -2.92521 0
M  V30 963 H 96.2833 -4.00829 -1.42184 0
M  V30 964 N 94.5984 0.214957 -1.56127 0
M  V30 965 C 95.5084 1.28727 -1.96129 0
M  V30 966 C 96.5244 1.50916 -0.866044 0
M  V30 967 O 97.7004 1.63918 -1.17016 0
M  V30 968 C 94.7654 2.61569 -2.27558 0
M  V30 969 C 93.8264 2.47625 -3.50685 0
M  V30 970 C 93.0594 3.74132 -3.80606 0
M  V30 971 O 93.2824 4.77438 -3.12104 0
M  V30 972 O 92.2164 3.70849 -4.74083 0
M  V30 973 H 96.0424 0.977855 -2.87527 0
M  V30 974 H 93.6274 0.418358 -1.43423 0
M  V30 975 H 95.5094 3.40012 -2.48938 0
M  V30 976 H 94.1844 2.92178 -1.39332 0
M  V30 977 H 93.0914 1.67361 -3.34576 0
M  V30 978 H 94.4244 2.21954 -4.39315 0
M  V30 979 N 96.0765 1.50051 0.48192 0
M  V30 980 C 96.9865 1.7089 1.60728 0
M  V30 981 C 98.0025 0.591788 1.63627 0
M  V30 982 O 99.1785 0.868817 1.81696 0
M  V30 983 C 96.2435 1.78855 2.97005 0
M  V30 984 C 95.3045 3.02537 3.04581 0
M  V30 985 C 94.5375 3.10112 4.34357 0
M  V30 986 O 94.7605 2.24765 5.24249 0
M  V30 987 O 93.6945 4.02747 4.47301 0
M  V30 988 H 97.5205 2.66264 1.46072 0
M  V30 989 H 95.1055 1.34018 0.660264 0
M  V30 990 H 96.9875 1.86336 3.77964 0
M  V30 991 H 95.6625 0.866628 3.11883 0
M  V30 992 H 94.5695 3.00563 2.22739 0
M  V30 993 H 95.9025 3.94272 2.94636 0
M  V30 994 N 97.5546 -0.734337 1.39446 0
M  V30 995 C 98.8016 -1.49391 1.36706 0
M  V30 996 C 99.1296 -1.94465 -0.0367813 0
M  V30 997 O 98.3846 -1.67154 -1.01774 0
M  V30 998 C 98.6836 -2.74711 2.28623 0
M  V30 999 C 98.3496 -2.48501 3.76242 0
M  V30 1000 C 97.0116 -2.41062 4.16464 0
M  V30 1001 C 99.3636 -2.26098 4.69606 0
M  V30 1002 C 96.6916 -2.09262 5.48112 0
M  V30 1003 C 99.0436 -1.95814 6.01531 0
M  V30 1004 C 97.7076 -1.86845 6.40816 0
M  V30 1005 H 96.9776 -0.546661 0.500243 0
M  V30 1006 H 99.6246 -0.842788 1.71957 0
M  V30 1007 H 97.9296 -3.44569 1.86492 0
M  V30 1008 H 99.6266 -3.32741 2.23796 0
M  V30 1009 H 96.2166 -2.55169 3.44364 0
M  V30 1010 H 100.401 -2.30812 4.39363 0
M  V30 1011 H 95.6566 -2.00841 5.77471 0
M  V30 1012 H 99.8306 -1.77488 6.73403 0
M  V30 1013 H 97.4576 -1.6197 7.42745 0
M  V30 1014 N 99.0327 -1.24633 -0.964593 0
M  V30 1015 C 100.279 -1.08949 -1.71049 0
M  V30 1016 C 100.612 0.370302 -1.90637 0
M  V30 1017 O 99.8867 1.27349 -1.47011 0
M  V30 1018 C 100.17 -1.83329 -3.0994 0
M  V30 1019 C 100.023 -3.37077 -2.97824 0
M  V30 1020 C 101.342 -1.60846 -4.09654 0
M  V30 1021 H 98.4607 -0.397178 -0.620821 0
M  V30 1022 H 101.103 -1.5334 -1.12191 0
M  V30 1023 H 99.2527 -1.45597 -3.60186 0
M  V30 1024 H 100.925 -3.84425 -2.5498 0
M  V30 1025 H 99.1677 -3.65298 -2.33965 0
M  V30 1026 H 99.8387 -3.84324 -3.96231 0
M  V30 1027 H 102.315 -1.93674 -3.68279 0
M  V30 1028 H 101.191 -2.1534 -5.04896 0
M  V30 1029 H 101.452 -0.547434 -4.38698 0
M  V30 1030 N 100.511 1.16574 -1.06058 0
M  V30 1031 C 101.458 2.20883 -0.669263 0
M  V30 1032 C 102.428 1.62729 0.332918 0
M  V30 1033 O 103.613 1.895 0.222346 0
M  V30 1034 C 100.753 3.45049 -0.0593572 0
M  V30 1035 C 99.8658 4.17458 -1.11143 0
M  V30 1036 C 99.0008 5.29135 -0.467916 0
M  V30 1037 C 98.0398 5.93343 -1.50369 0
M  V30 1038 N 97.1768 6.96516 -0.883706 0
M  V30 1039 H 102.017 2.53709 -1.5632 0
M  V30 1040 H 99.5538 1.24616 -0.781625 0
M  V30 1041 H 101.512 4.16033 0.311771 0
M  V30 1042 H 100.142 3.12781 0.797992 0
M  V30 1043 H 99.1938 3.45101 -1.60029 0
M  V30 1044 H 100.506 4.61307 -1.89731 0
M  V30 1045 H 99.6598 6.06684 -0.0436871 0
M  V30 1046 H 98.3988 4.86443 0.349864 0
M  V30 1047 H 97.4038 5.14517 -1.93784 0
M  V30 1048 H 98.6288 6.38114 -2.32352 0
M  V30 1049 H 96.5748 6.55943 -0.086595 0
M  V30 1050 H 96.4918 7.38723 -1.607 0
M  V30 1051 H 97.7598 7.77993 -0.484543 0
M  V30 1052 N 101.989 0.842826 1.3317 0
M  V30 1053 C 103.238 0.436738 1.96915 0
M  V30 1054 C 103.551 -1.01025 1.67491 0
M  V30 1055 O 104.757 -1.5212 2.24881 0
M  V30 1056 C 103.213 0.730021 3.52418 0
M  V30 1057 C 102.821 2.19195 3.90714 0
M  V30 1058 C 104.565 0.391076 4.22695 0
M  V30 1059 C 102.472 2.42907 5.39212 0
M  V30 1060 H 101.402 0.15958 0.736919 0
M  V30 1061 H 104.053 1.03196 1.51733 0
M  V30 1062 H 102.435 0.0643755 3.95948 0
M  V30 1063 H 103.609 2.8984 3.58231 0
M  V30 1064 H 101.924 2.49425 3.33431 0
M  V30 1065 H 104.521 0.545817 5.31907 0
M  V30 1066 H 104.864 -0.666294 4.10933 0
M  V30 1067 H 105.397 1.01212 3.84709 0
M  V30 1068 H 102.136 3.47224 5.55982 0
M  V30 1069 H 101.656 1.76827 5.73142 0
M  V30 1070 H 103.335 2.2626 6.06148 0
M  V30 1071 N 103.467 -1.45747 0.599634 0
M  V30 1072 C 104.397 -2.33235 -0.111306 0
M  V30 1073 C 105.378 -1.46359 -0.866781 0
M  V30 1074 O 106.563 -1.75146 -0.838904 0
M  V30 1075 C 103.693 -3.28932 -1.11451 0
M  V30 1076 C 102.647 -4.25381 -0.472772 0
M  V30 1077 C 101.973 -5.1071 -1.58365 0
M  V30 1078 C 103.273 -5.18831 0.600948 0
M  V30 1079 H 104.967 -2.92927 0.61919 0
M  V30 1080 H 102.513 -1.40857 0.299215 0
M  V30 1081 H 104.466 -3.89002 -1.62036 0
M  V30 1082 H 103.19 -2.67381 -1.8755 0
M  V30 1083 H 101.849 -3.66598 0.0121472 0
M  V30 1084 H 101.497 -4.45533 -2.33473 0
M  V30 1085 H 101.197 -5.7604 -1.15982 0
M  V30 1086 H 102.721 -5.73647 -2.09194 0
M  V30 1087 H 104.135 -5.73019 0.179491 0
M  V30 1088 H 102.532 -5.92595 0.946076 0
M  V30 1089 H 103.602 -4.6174 1.48068 0
M  V30 1090 N 104.945 -0.338344 -1.53925 0
M  V30 1091 C 106.361 0.0137736 -1.59594 0
M  V30 1092 C 106.561 1.49186 -1.35447 0
M  V30 1093 O 105.617 2.24987 -1.14616 0
M  V30 1094 C 106.93 -0.41773 -2.97784 0
M  V30 1095 C 108.478 -0.369633 -3.1081 0
M  V30 1096 C 108.953 -0.776524 -4.51369 0
M  V30 1097 N 110.444 -0.730506 -4.57403 0
M  V30 1098 C 111.179 -1.01736 -5.64303 0
M  V30 1099 N 110.675 -1.3721 -6.79077 0
M  V30 1100 N 112.468 -0.941942 -5.54151 0
M  V30 1101 H 104.619 -1.3012 -1.67876 0
M  V30 1102 H 106.882 -0.530082 -0.78595 0
M  V30 1103 H 106.588 -1.44811 -3.20504 0
M  V30 1104 H 106.462 0.209729 -3.76616 0
M  V30 1105 H 108.849 0.651568 -2.87817 0
M  V30 1106 H 108.93 -1.03223 -2.34049 0
M  V30 1107 H 108.574 -1.79571 -4.75096 0
M  V30 1108 H 108.504 -0.0914649 -5.26521 0
M  V30 1109 H 110.995 -0.468783 -3.74981 0
M  V30 1110 H 111.308 -1.57597 -7.5656 0
M  V30 1111 H 109.653 -1.4105 -6.80536 0
M  V30 1112 H 112.844 -0.664184 -4.63364 0
M  V30 1113 H 113.017 -1.16884 -6.37371 0
M  V30 1114 N 106.423 1.57458 -0.0668435 0
M  V30 1115 C 107.653 1.97337 0.611677 0
M  V30 1116 C 108.061 0.943744 1.63982 0
M  V30 1117 O 107.404 -0.0785584 1.83532 0
M  V30 1118 C 107.466 3.33511 1.34205 0
M  V30 1119 C 107.13 4.54598 0.467941 0
M  V30 1120 C 108.127 5.19186 -0.272439 0
M  V30 1121 C 105.812 5.0075 0.39427 0
M  V30 1122 C 107.806 6.28274 -1.07476 0
M  V30 1123 C 105.493 6.09711 -0.411729 0
M  V30 1124 C 106.491 6.73335 -1.14492 0
M  V30 1125 O 106.179 7.80199 -1.93763 0
M  V30 1126 H 105.911 0.654042 0.170893 0
M  V30 1127 H 108.465 2.04961 -0.134289 0
M  V30 1128 H 106.695 3.22487 2.13398 0
M  V30 1129 H 108.384 3.58029 1.91233 0
M  V30 1130 H 109.15 4.84477 -0.225086 0
M  V30 1131 H 105.029 4.51009 0.954569 0
M  V30 1132 H 108.573 6.77866 -1.64755 0
M  V30 1133 H 104.47 6.43854 -0.460664 0
M  V30 1134 H 105.238 7.97053 -1.86142 0
M  V30 1135 N 107.901 -0.206675 1.56239 0
M  V30 1136 C 108.811 -1.27686 1.96808 0
M  V30 1137 C 109.827 -1.50455 0.874035 0
M  V30 1138 O 111.003 -1.63295 1.17884 0
M  V30 1139 C 108.068 -2.60358 2.28942 0
M  V30 1140 C 107.129 -2.45762 3.51994 0
M  V30 1141 C 106.362 -3.72108 3.82585 0
M  V30 1142 O 106.585 -4.75776 3.14631 0
M  V30 1143 O 105.519 -3.6833 4.76043 0
M  V30 1144 H 109.345 -0.962593 2.88041 0
M  V30 1145 H 106.93 -0.410746 1.43643 0
M  V30 1146 H 108.812 -3.38687 2.50737 0
M  V30 1147 H 107.487 -2.91435 1.4088 0
M  V30 1148 H 106.394 -1.65584 3.35459 0
M  V30 1149 H 107.727 -2.19621 4.40486 0
M  V30 1150 N 109.379 -1.50304 -0.473955 0
M  V30 1151 C 110.327 -1.69482 -1.59307 0
M  V30 1152 C 111.321 -0.560669 -1.59853 0
M  V30 1153 O 112.527 -0.741087 -1.64036 0
M  V30 1154 H 108.902 -0.534892 -0.528578 0
M  V30 1155 H 110.873 -2.63364 -1.40293 0
M  V30 1156 C 109.622 -1.80354 -2.97267 0
M  V30 1157 H 108.945 -2.67012 -2.97564 0
M  V30 1158 H 110.385 -1.97798 -3.75036 0
M  V30 1159 C 108.844 -0.55448 -3.32306 0
M  V30 1160 O 109.374 0.307661 -4.0052 0
M  V30 1161 N 107.58 -0.409354 -2.87702 0
M  V30 1162 H 107.127 -1.11196 -2.32364 0
M  V30 1163 H 107.085 0.425223 -3.11511 0
M  V30 1164 N 110.857 0.726932 -1.39834 0
M  V30 1165 C 111.767 1.87131 -1.41489 0
M  V30 1166 C 112.783 1.71239 -0.308757 0
M  V30 1167 O 113.959 1.93701 -0.551529 0
M  V30 1168 C 111.024 3.22811 -1.26468 0
M  V30 1169 C 110.085 3.51039 -2.47124 0
M  V30 1170 C 109.318 4.80245 -2.3281 0
M  V30 1171 O 109.541 5.54537 -1.33585 0
M  V30 1172 O 108.475 5.08554 -3.21957 0
M  V30 1173 H 112.301 1.8869 -2.3797 0
M  V30 1174 H 109.886 0.875837 -1.21035 0
M  V30 1175 H 111.768 4.03877 -1.20255 0
M  V30 1176 H 110.443 3.22005 -0.330862 0
M  V30 1177 H 109.35 2.70027 -2.58914 0
M  V30 1178 H 110.683 3.56632 -3.39227 0
M  V30 1179 N 112.336 1.25143 0.95797 0
M  V30 1180 C 113.582 1.09855 1.70469 0
M  V30 1181 C 113.915 -0.360187 1.90831 0
M  V30 1182 O 113.19 -1.26568 1.47685 0
M  V30 1183 C 113.473 1.8497 3.08963 0
M  V30 1184 C 113.326 3.38652 2.96032 0
M  V30 1185 C 114.645 1.63016 4.08795 0
M  V30 1186 H 111.764 0.400465 0.618706 0
M  V30 1187 H 114.406 1.53933 1.11376 0
M  V30 1188 H 112.556 1.47505 3.59409 0
M  V30 1189 H 114.228 3.85772 2.52938 0
M  V30 1190 H 112.471 3.66534 2.32025 0
M  V30 1191 H 113.142 3.8642 3.94187 0
M  V30 1192 H 115.618 1.95625 3.67247 0
M  V30 1193 H 114.494 2.18015 5.03747 0
M  V30 1194 H 114.755 0.570692 4.38401 0
M  V30 1195 N 113.814 -1.1601 1.06675 0
M  V30 1196 C 114.744 -2.22688 0.702307 0
M  V30 1197 C 115.725 -1.67306 -0.307032 0
M  V30 1198 O 116.91 -1.93352 -0.181305 0
M  V30 1199 C 114.04 -3.47178 0.092038 0
M  V30 1200 C 112.994 -4.15477 1.02777 0
M  V30 1201 C 112.32 -5.33963 0.28061 0
M  V30 1202 C 113.62 -4.66019 2.35846 0
M  V30 1203 H 115.314 -2.53429 1.59419 0
M  V30 1204 H 112.86 -1.21813 0.767961 0
M  V30 1205 H 114.813 -4.21037 -0.174814 0
M  V30 1206 H 113.537 -3.15749 -0.834877 0
M  V30 1207 H 112.196 -3.43549 1.27944 0
M  V30 1208 H 111.844 -4.98788 -0.649545 0
M  V30 1209 H 111.544 -5.806 0.904258 0
M  V30 1210 H 113.068 -6.10596 0.021396 0
M  V30 1211 H 114.482 -5.3144 2.15045 0
M  V30 1212 H 112.879 -5.23293 2.93743 0
M  V30 1213 H 113.949 -3.82023 2.98641 0
M  V30 1214 N 115.292 -0.849877 -1.32721 0
M  V30 1215 C 116.224 -0.248332 -2.27851 0
M  V30 1216 C 117.237 0.577218 -1.52224 0
M  V30 1217 O 118.426 0.402489 -1.73903 0
M  V30 1218 C 115.526 0.668107 -3.32249 0
M  V30 1219 C 114.699 -0.120534 -4.37234 0
M  V30 1220 C 113.758 0.720932 -5.21238 0
M  V30 1221 O 112.784 0.156166 -5.68986 0
M  V30 1222 N 113.986 2.03647 -5.43607 0
M  V30 1223 H 116.751 -1.06575 -2.80111 0
M  V30 1224 H 114.312 -0.709395 -1.45531 0
M  V30 1225 H 116.304 1.23627 -3.85355 0
M  V30 1226 H 114.874 1.38621 -2.80184 0
M  V30 1227 H 114.094 -0.870108 -3.84477 0
M  V30 1228 H 115.382 -0.662406 -5.0447 0
M  V30 1229 H 114.78 2.51871 -5.06535 0
M  V30 1230 H 113.337 2.55287 -5.99727 0
M  V30 1231 N 116.77 1.45427 -0.607355 0
M  V30 1232 C 117.7 2.3329 0.0989352 0
M  V30 1233 C 118.681 1.46816 0.859007 0
M  V30 1234 O 119.866 1.75588 0.829604 0
M  V30 1235 C 116.996 3.29518 1.09705 0
M  V30 1236 C 115.95 4.25626 0.450206 0
M  V30 1237 C 115.276 5.11542 1.55655 0
M  V30 1238 C 116.576 5.18505 -0.628455 0
M  V30 1239 H 118.27 2.92595 -0.634716 0
M  V30 1240 H 115.816 1.40696 -0.306681 0
M  V30 1241 H 117.769 3.89855 1.59971 0
M  V30 1242 H 116.493 2.68372 1.86129 0
M  V30 1243 H 115.152 3.66586 -0.0315886 0
M  V30 1244 H 114.8 4.46765 2.31107 0
M  V30 1245 H 114.5 5.76647 1.12925 0
M  V30 1246 H 116.024 5.74748 2.06148 0
M  V30 1247 H 117.438 5.72916 -0.209877 0
M  V30 1248 H 115.835 5.92085 -0.977489 0
M  V30 1249 H 116.905 4.60948 -1.50514 0
M  V30 1250 N 118.248 0.346503 1.53744 0
M  V30 1251 C 119.158 -0.517293 2.28826 0
M  V30 1252 C 120.174 -1.10935 1.3405 0
M  V30 1253 O 121.35 -1.1244 1.6709 0
M  V30 1254 C 118.415 -1.65098 3.04866 0
M  V30 1255 C 117.476 -1.0884 4.15274 0
M  V30 1256 C 116.709 -2.16806 4.87679 0
M  V30 1257 O 116.932 -3.3758 4.59778 0
M  V30 1258 O 115.866 -1.80934 5.74061 0
M  V30 1259 H 119.692 0.0931396 3.03557 0
M  V30 1260 H 117.277 0.111458 1.48984 0
M  V30 1261 H 119.159 -2.31053 3.5241 0
M  V30 1262 H 117.834 -2.24717 2.32989 0
M  V30 1263 H 116.741 -0.3933 3.72027 0
M  V30 1264 H 118.074 -0.537036 4.89261 0
M  V30 1265 N 119.726 -1.57421 0.075193 0
M  V30 1266 C 120.636 -2.1642 -0.905511 0
M  V30 1267 C 121.652 -1.12828 -1.32461 0
M  V30 1268 O 122.828 -1.45109 -1.39661 0
M  V30 1269 C 119.893 -2.71693 -2.15369 0
M  V30 1270 C 118.954 -3.90171 -1.79068 0
M  V30 1271 C 118.187 -4.42798 -2.97936 0
M  V30 1272 O 118.41 -3.94416 -4.12058 0
M  V30 1273 O 117.344 -5.34085 -2.77555 0
M  V30 1274 H 121.17 -3.00588 -0.433626 0
M  V30 1275 H 118.755 -1.48664 -0.148067 0
M  V30 1276 H 120.637 -3.07104 -2.88557 0
M  V30 1277 H 119.312 -1.90582 -2.61649 0
M  V30 1278 H 118.219 -3.59606 -1.03122 0
M  V30 1279 H 119.552 -4.72584 -1.37569 0
M  V30 1280 N 121.204 0.198386 -1.56346 0
M  V30 1281 C 122.481 0.944982 -1.71258 0
M  V30 1282 C 122.861 2.0151 -0.629048 0
M  V30 1283 O 122.209 2.25639 0.360473 0
M  V30 1284 C 122.419 1.5344 -3.1346 0
M  V30 1285 C 123.767 2.01778 -3.73591 0
M  V30 1286 O 124.791 1.63288 -3.16568 0
M  V30 1287 O 123.65 2.72594 -4.73661 0
M  V30 1288 H 120.744 0.442939 -0.69838 0
M  V30 1289 H 123.29 0.188342 -1.68652 0
M  V30 1290 H 122.062 0.762869 -3.83792 0
M  V30 1291 H 121.685 2.35596 -3.20282 0
M  V30 1292 N 122.682 1.50554 0.465978 0
M  V30 1293 C 123.592 1.72585 1.58907 0
M  V30 1294 C 124.608 0.60911 1.6299 0
M  V30 1295 O 125.784 0.88804 1.80765 0
M  V30 1296 C 122.849 1.81995 2.95091 0
M  V30 1297 C 121.91 3.05751 3.01355 0
M  V30 1298 C 121.143 3.14702 4.31043 0
M  V30 1299 O 121.366 2.30313 5.21835 0
M  V30 1300 O 120.3 4.07468 4.43005 0
M  V30 1301 H 124.126 2.67799 1.43239 0
M  V30 1302 H 121.711 1.34711 0.646013 0
M  V30 1303 H 123.593 1.90335 3.75966 0
M  V30 1304 H 122.268 0.899659 3.10947 0
M  V30 1305 H 121.175 3.02908 2.19539 0
M  V30 1306 H 122.508 3.97375 2.90437 0
M  V30 1307 N 124.16 -0.719506 1.40217 0
M  V30 1308 C 125.576 -1.02707 1.22161 0
M  V30 1309 C 125.776 -2.0128 0.0940557 0
M  V30 1310 O 124.832 -2.46452 -0.549318 0
M  V30 1311 C 126.145 -1.57454 2.56181 0
M  V30 1312 C 127.693 -1.69458 2.63159 0
M  V30 1313 C 128.168 -2.27611 3.97438 0
M  V30 1314 N 129.659 -2.35002 3.99159 0
M  V30 1315 C 130.394 -2.80972 4.99842 0
M  V30 1316 N 129.89 -3.26723 6.10921 0
M  V30 1317 N 131.683 -2.80321 4.87213 0
M  V30 1318 H 123.834 -0.0660492 2.12297 0
M  V30 1319 H 126.097 -0.0919077 0.943534 0
M  V30 1320 H 125.803 -0.924873 3.39321 0
M  V30 1321 H 125.677 -2.56036 2.76993 0
M  V30 1322 H 128.064 -2.33543 1.80393 0
M  V30 1323 H 128.145 -0.694867 2.46181 0
M  V30 1324 H 127.789 -1.6415 4.80643 0
M  V30 1325 H 127.719 -3.2829 4.11744 0
M  V30 1326 H 130.21 -2.02685 3.18947 0
M  V30 1327 H 130.523 -3.60355 6.8364 0
M  V30 1328 H 128.868 -3.24692 6.14492 0
M  V30 1329 H 132.059 -2.43912 3.9953 0
M  V30 1330 H 132.232 -3.15831 5.65822 0
M  V30 1331 N 125.638 -1.25649 -0.95132 0
M  V30 1332 C 126.885 -1.10594 -1.69633 0
M  V30 1333 C 127.213 0.352515 -1.91279 0
M  V30 1334 O 126.468 1.27601 -1.4838 0
M  V30 1335 C 126.767 -1.80909 -3.08231 0
M  V30 1336 C 126.433 -3.30825 -3.06375 0
M  V30 1337 C 125.095 -3.71722 -3.05576 0
M  V30 1338 C 127.447 -4.26589 -2.99452 0
M  V30 1339 C 124.775 -5.06788 -2.95606 0
M  V30 1340 C 127.127 -5.61683 -2.91024 0
M  V30 1341 C 125.791 -6.01904 -2.88562 0
M  V30 1342 H 125.061 -0.404691 -0.620731 0
M  V30 1343 H 127.708 -1.55964 -1.11119 0
M  V30 1344 H 126.013 -1.27979 -3.70309 0
M  V30 1345 H 127.71 -1.6671 -3.64704 0
M  V30 1346 H 124.3 -2.98287 -3.07771 0
M  V30 1347 H 128.484 -3.95982 -2.99185 0
M  V30 1348 H 123.74 -5.37126 -2.92071 0
M  V30 1349 H 127.914 -6.35578 -2.84629 0
M  V30 1350 H 125.541 -7.06521 -2.80593 0
M  V30 1351 N 127.117 1.15442 -1.07289 0
M  V30 1352 C 128.027 2.23786 -0.704057 0
M  V30 1353 C 129.043 1.7166 0.284413 0
M  V30 1354 O 130.219 2.00972 0.131205 0
M  V30 1355 C 127.284 3.46535 -0.106792 0
M  V30 1356 C 126.345 4.13654 -1.14842 0
M  V30 1357 C 125.578 5.30544 -0.57956 0
M  V30 1358 O 125.801 5.67187 0.604585 0
M  V30 1359 O 124.735 5.87154 -1.32414 0
M  V30 1360 H 128.561 2.57664 -1.60757 0
M  V30 1361 H 126.146 1.23152 -0.845803 0
M  V30 1362 H 128.028 4.20804 0.224048 0
M  V30 1363 H 126.703 3.14407 0.770049 0
M  V30 1364 H 125.61 3.4131 -1.5316 0
M  V30 1365 H 126.943 4.49861 -1.99714 0
M  V30 1366 N 128.595 0.856903 1.32268 0
M  V30 1367 C 129.843 0.460474 1.96784 0
M  V30 1368 C 130.164 -0.987701 1.68135 0
M  V30 1369 O 129.434 -1.69058 0.989765 0
M  V30 1370 H 128.014 0.167289 0.728027 0
M  V30 1371 H 130.676 1.09383 1.61312 0
M  V30 1372 H 129.772 0.60739 3.06133 0
M  V30 1373 N 130.073 -1.45103 0.615059 0
M  V30 1374 C 131.489 -1.57137 0.279322 0
M  V30 1375 C 131.689 -1.60523 -1.21797 0
M  V30 1376 O 130.745 -1.53956 -2.00134 0
M  V30 1377 C 132.058 -2.85062 0.957083 0
M  V30 1378 C 133.606 -2.98749 0.933706 0
M  V30 1379 C 134.081 -4.29455 1.59162 0
M  V30 1380 N 135.572 -4.36231 1.55746 0
M  V30 1381 C 136.307 -5.36051 2.0356 0
M  V30 1382 N 135.803 -6.42367 2.59494 0
M  V30 1383 N 137.596 -5.27456 1.94284 0
M  V30 1384 H 129.747 -1.41148 1.58717 0
M  V30 1385 H 132.01 -0.675331 0.665306 0
M  V30 1386 H 131.716 -2.88488 2.01166 0
M  V30 1387 H 131.59 -3.7407 0.48494 0
M  V30 1388 H 133.977 -2.94886 -0.112347 0
M  V30 1389 H 134.058 -2.11132 1.44419 0
M  V30 1390 H 133.702 -4.34077 2.63704 0
M  V30 1391 H 133.632 -5.15901 1.0561 0
M  V30 1392 H 136.123 -3.60011 1.14893 0
M  V30 1393 H 136.436 -7.14793 2.93752 0
M  V30 1394 H 134.781 -6.43097 2.63537 0
M  V30 1395 H 137.972 -4.43308 1.5032 0
M  V30 1396 H 138.145 -6.05099 2.3186 0
M  V30 1397 N 131.551 -0.354651 -1.53558 0
M  V30 1398 C 132.797 0.238797 -2.01389 0
M  V30 1399 C 133.13 1.49309 -1.2418 0
M  V30 1400 O 132.405 1.91638 -0.332457 0
M  V30 1401 C 132.688 0.541771 -3.56001 0
M  V30 1402 C 132.541 -0.725388 -4.43912 0
M  V30 1403 C 133.86 1.34685 -4.18984 0
M  V30 1404 H 130.979 0.0853177 -0.732045 0
M  V30 1405 H 133.621 -0.477384 -1.83905 0
M  V30 1406 H 131.771 1.15189 -3.71031 0
M  V30 1407 H 133.443 -1.36313 -4.407 0
M  V30 1408 H 131.686 -1.34801 -4.12324 0
M  V30 1409 H 132.357 -0.468505 -5.50008 0
M  V30 1410 H 134.833 0.830837 -4.07721 0
M  V30 1411 H 133.709 1.52759 -5.27215 0
M  V30 1412 H 133.97 2.35221 -3.74331 0
M  V30 1413 N 133.029 1.57378 -0.0835403 0
M  V30 1414 C 134.275 1.94217 0.583733 0
M  V30 1415 C 134.608 0.964653 1.68547 0
M  V30 1416 O 133.883 -0.00422258 1.945 0
M  V30 1417 C 134.166 3.41253 1.14972 0
M  V30 1418 C 134.019 4.49768 0.0538277 0
M  V30 1419 C 135.338 3.89352 2.05166 0
M  V30 1420 H 132.457 0.706233 0.210724 0
M  V30 1421 H 135.099 1.89392 -0.1519 0
M  V30 1422 H 133.249 3.45496 1.77665 0
M  V30 1423 H 134.921 4.57641 -0.579851 0
M  V30 1424 H 133.164 4.29432 -0.614068 0
M  V30 1425 H 133.835 5.49817 0.490452 0
M  V30 1426 H 136.311 3.87189 1.52393 0
M  V30 1427 H 135.187 4.92822 2.41698 0
M  V30 1428 H 135.448 3.27973 2.96456 0
M  V30 1429 N 134.507 -0.190092 1.56449 0
M  V30 1430 C 135.753 -0.906472 1.82084 0
M  V30 1431 C 136.108 -1.80677 0.661335 0
M  V30 1432 O 135.401 -1.88501 -0.343237 0
M  V30 1433 C 135.595 -1.75382 3.1141 0
M  V30 1434 C 135.424 -0.937053 4.39829 0
M  V30 1435 C 134.194 -0.619507 5.01488 0
M  V30 1436 C 136.392 -0.2874 5.13496 0
M  V30 1437 N 134.374 0.215367 6.13522 0
M  V30 1438 C 135.745 0.409454 6.18646 0
M  V30 1439 C 137.8 -0.203639 4.97483 0
M  V30 1440 C 136.503 1.1821 7.0952 0
M  V30 1441 C 138.529 0.555622 5.88784 0
M  V30 1442 C 137.891 1.24091 6.93384 0
M  V30 1443 H 133.99 -0.310931 0.717528 0
M  V30 1444 H 136.574 -0.174821 1.93914 0
M  V30 1445 H 134.745 -2.45703 3.00806 0
M  V30 1446 H 136.477 -2.41006 3.25112 0
M  V30 1447 H 133.232 -0.945126 4.64074 0
M  V30 1448 H 133.656 0.622562 6.74131 0
M  V30 1449 H 138.298 -0.719099 4.1664 0
M  V30 1450 H 136.016 1.70897 7.89823 0
M  V30 1451 H 139.602 0.621854 5.78467 0
M  V30 1452 H 138.482 1.81901 7.62812 0
M  V30 1453 N 135.985 -1.50799 -0.457987 0
M  V30 1454 C 136.933 -1.71162 -1.575 0
M  V30 1455 C 137.927 -0.577592 -1.59249 0
M  V30 1456 O 139.133 -0.758443 -1.63241 0
M  V30 1457 H 135.508 -0.540468 -0.522875 0
M  V30 1458 H 137.479 -2.64837 -1.37492 0
M  V30 1459 C 136.228 -1.83496 -2.95338 0
M  V30 1460 H 135.551 -2.70153 -2.94716 0
M  V30 1461 H 136.991 -2.01765 -3.72917 0
M  V30 1462 C 135.45 -0.589694 -3.31699 0
M  V30 1463 O 135.98 0.265163 -4.00824 0
M  V30 1464 N 134.186 -0.439845 -2.87252 0
M  V30 1465 H 133.733 -1.13655 -2.31172 0
M  V30 1466 H 133.691 0.392159 -3.11945 0
M  V30 1467 N 137.463 0.71206 -1.40597 0
M  V30 1468 C 138.711 1.46907 -1.38791 0
M  V30 1469 C 139.032 1.94998 0.00780391 0
M  V30 1470 O 138.302 1.70587 0.963174 0
M  V30 1471 H 136.882 0.545043 -0.51082 0
M  V30 1472 H 139.544 0.843882 -1.75683 0
M  V30 1473 H 138.64 2.34021 -2.06496 0
M  V30 1474 N 138.941 1.26152 0.944643 0
M  V30 1475 C 140.166 1.14363 1.7302 0
M  V30 1476 C 140.591 -0.29772 1.85729 0
M  V30 1477 O 139.949 -1.2157 1.34501 0
M  V30 1478 C 139.997 1.81378 3.11664 0
M  V30 1479 O 139.101 1.10022 3.97453 0
M  V30 1480 H 138.442 0.398694 0.53098 0
M  V30 1481 H 140.972 1.66906 1.18337 0
M  V30 1482 H 140.982 1.88064 3.62072 0
M  V30 1483 H 139.657 2.86237 3.0173 0
M  V30 1484 H 138.234 1.11287 3.55907 0
M  V30 1485 N 140.419 -1.14872 1.07899 0
M  V30 1486 C 141.835 -1.37776 0.805606 0
M  V30 1487 C 142.035 -1.92743 -0.587555 0
M  V30 1488 O 141.091 -2.13678 -1.34528 0
M  V30 1489 C 142.404 -2.34361 1.88402 0
M  V30 1490 C 143.952 -2.48012 1.90942 0
M  V30 1491 C 144.427 -3.47893 2.97883 0
M  V30 1492 N 145.918 -3.55433 2.97021 0
M  V30 1493 C 146.653 -4.32553 3.76412 0
M  V30 1494 N 146.149 -5.12959 4.65666 0
M  V30 1495 N 147.942 -4.27697 3.64735 0
M  V30 1496 H 140.093 -0.775365 1.97742 0
M  V30 1497 H 142.356 -0.403521 0.857831 0
M  V30 1498 H 142.062 -2.01098 2.88535 0
M  V30 1499 H 141.936 -3.34206 1.74889 0
M  V30 1500 H 144.323 -2.8057 0.914579 0
M  V30 1501 H 144.404 -1.48147 2.08534 0
M  V30 1502 H 144.048 -3.16069 3.97571 0
M  V30 1503 H 143.978 -4.47527 2.77538 0
M  V30 1504 H 146.469 -2.98048 2.32326 0
M  V30 1505 H 146.782 -5.69065 5.22862 0
M  V30 1506 H 145.127 -5.12245 4.69712 0
M  V30 1507 H 148.318 -3.63949 2.94378 0
M  V30 1508 H 148.491 -4.8755 4.26848 0
M  V30 1509 N 141.898 -0.863906 -1.31812 0
M  V30 1510 C 143.146 -0.470904 -1.96537 0
M  V30 1511 C 143.467 0.978771 -1.68657 0
M  V30 1512 O 142.737 1.6853 -0.998717 0
M  V30 1513 H 141.317 -0.171148 -0.72713 0
M  V30 1514 H 143.979 -1.10236 -1.60729 0
M  V30 1515 H 143.075 -0.623616 -3.05806 0
M  V30 1516 N 143.376 1.44774 -0.622745 0
M  V30 1517 C 144.604 2.06487 -0.130722 0
M  V30 1518 C 145.019 1.46476 1.19123 0
M  V30 1519 O 144.376 0.584502 1.72887 0
M  V30 1520 C 144.427 3.615 -0.000807207 0
M  V30 1521 O 144.148 4.19274 -1.27048 0
M  V30 1522 C 145.649 4.40229 0.520898 0
M  V30 1523 H 142.869 0.666704 -0.0758106 0
M  V30 1524 H 145.413 1.85779 -0.854774 0
M  V30 1525 H 143.568 3.81498 0.673643 0
M  V30 1526 H 143.982 5.12622 -1.1099 0
M  V30 1527 H 145.456 5.49144 0.560838 0
M  V30 1528 H 145.933 4.1108 1.54627 0
M  V30 1529 H 146.539 4.25131 -0.120018 0
M  V30 1530 N 144.854 0.36279 1.53368 0
M  V30 1531 C 145.801 -0.485008 2.25646 0
M  V30 1532 C 146.771 -1.07982 1.2621 0
M  V30 1533 O 147.956 -1.11284 1.54986 0
M  V30 1534 C 145.096 -1.62023 3.04701 0
M  V30 1535 C 144.209 -1.05086 4.19024 0
M  V30 1536 C 143.344 -2.15496 4.85525 0
M  V30 1537 C 142.383 -1.5601 5.91884 0
M  V30 1538 N 141.52 -2.60241 6.52088 0
M  V30 1539 H 146.36 0.137864 2.97681 0
M  V30 1540 H 143.897 0.0798061 1.46883 0
M  V30 1541 H 145.855 -2.28887 3.48807 0
M  V30 1542 H 144.485 -2.2138 2.34927 0
M  V30 1543 H 143.537 -0.27259 3.79422 0
M  V30 1544 H 144.849 -0.575926 4.95464 0
M  V30 1545 H 144.003 -2.90186 5.32801 0
M  V30 1546 H 142.742 -2.66341 4.08551 0
M  V30 1547 H 141.747 -0.798338 5.43973 0
M  V30 1548 H 142.972 -1.05994 6.70777 0
M  V30 1549 H 140.918 -3.10304 5.77968 0
M  V30 1550 H 140.835 -2.17426 7.24059 0
M  V30 1551 H 142.103 -3.34641 7.04014 0
M  V30 1552 N 146.332 -1.57332 0.0918853 0
M  V30 1553 C 147.609 -1.85691 -0.614668 0
M  V30 1554 C 147.989 -0.988146 -1.86545 0
M  V30 1555 O 147.337 -0.0597055 -2.28422 0
M  V30 1556 C 147.547 -3.36294 -0.933126 0
M  V30 1557 C 148.895 -4.04275 -1.29796 0
M  V30 1558 O 149.919 -3.41157 -1.02424 0
M  V30 1559 O 148.778 -5.1564 -1.81047 0
M  V30 1560 H 145.872 -0.767802 -0.307261 0
M  V30 1561 H 148.418 -1.69244 0.12434 0
M  V30 1562 H 147.19 -3.91273 -0.0456404 0
M  V30 1563 H 146.813 -3.58076 -1.72822 0
M  V30 1564 N 147.81 0.181792 -1.56548 0
M  V30 1565 C 148.74 1.22765 -1.98623 0
M  V30 1566 C 149.721 1.46747 -0.860189 0
M  V30 1567 O 150.906 1.58259 -1.12551 0
M  V30 1568 C 148.036 2.56894 -2.33715 0
M  V30 1569 C 146.99 2.475 -3.49182 0
M  V30 1570 C 146.316 3.86023 -3.69986 0
M  V30 1571 C 147.616 1.98866 -4.82959 0
M  V30 1572 H 149.31 0.877942 -2.86239 0
M  V30 1573 H 146.856 0.42088 -1.37712 0
M  V30 1574 H 148.809 3.30253 -2.61746 0
M  V30 1575 H 147.533 2.93632 -1.42997 0
M  V30 1576 H 146.192 1.76596 -3.21262 0
M  V30 1577 H 145.84 4.20136 -2.76576 0
M  V30 1578 H 145.54 3.80609 -4.47672 0
M  V30 1579 H 147.064 4.60984 -4.00407 0
M  V30 1580 H 148.478 2.61992 -5.09934 0
M  V30 1581 H 146.875 2.04424 -5.64208 0
M  V30 1582 H 147.945 0.942465 -4.75653 0
M  V30 1583 N 149.288 1.51039 0.449983 0
M  V30 1584 C 150.22 1.67617 1.56324 0
M  V30 1585 C 151.233 0.557083 1.52972 0
M  V30 1586 O 152.422 0.830989 1.57977 0
M  V30 1587 C 149.522 1.66402 2.95235 0
M  V30 1588 C 148.695 2.9469 3.23229 0
M  V30 1589 C 147.754 2.85832 4.41799 0
M  V30 1590 O 146.78 3.59785 4.41071 0
M  V30 1591 N 147.982 2.00821 5.44657 0
M  V30 1592 H 150.747 2.63648 1.42512 0
M  V30 1593 H 148.308 1.48767 0.638737 0
M  V30 1594 H 150.3 1.58062 3.72557 0
M  V30 1595 H 148.87 0.780182 3.02708 0
M  V30 1596 H 148.09 3.16996 2.34323 0
M  V30 1597 H 149.378 3.79636 3.38754 0
M  V30 1598 H 148.776 1.40091 5.48079 0
M  V30 1599 H 147.333 1.98368 6.20881 0
M  V30 1600 N 150.766 -0.704594 1.40972 0
M  V30 1601 C 152.043 -1.45847 1.30338 0
M  V30 1602 C 152.423 -2.10973 -0.0732344 0
M  V30 1603 O 151.771 -2.00997 -1.08685 0
M  V30 1604 C 151.981 -2.48525 2.45023 0
M  V30 1605 C 153.329 -3.1404 2.8577 0
M  V30 1606 O 154.353 -2.58848 2.44696 0
M  V30 1607 O 153.212 -4.13981 3.56766 0
M  V30 1608 H 150.306 -0.649092 0.512454 0
M  V30 1609 H 152.852 -0.735836 1.52917 0
M  V30 1610 H 151.624 -1.98994 3.36923 0
M  V30 1611 H 151.247 -3.2831 2.24272 0
M  V30 1612 N 152.244 -1.26651 -0.937939 0
M  V30 1613 C 153.174 -1.10993 -2.05433 0
M  V30 1614 C 154.155 -0.0142161 -1.70094 0
M  V30 1615 O 155.34 -0.186837 -1.93299 0
M  V30 1616 C 152.47 -0.745561 -3.39203 0
M  V30 1617 C 151.424 -1.79337 -3.88616 0
M  V30 1618 C 150.75 -1.28324 -5.19073 0
M  V30 1619 C 152.05 -3.19553 -4.13138 0
M  V30 1620 H 153.744 -2.0438 -2.1879 0
M  V30 1621 H 151.29 -0.984041 -1.05131 0
M  V30 1622 H 153.243 -0.622888 -4.16771 0
M  V30 1623 H 151.967 0.22401 -3.25831 0
M  V30 1624 H 150.626 -1.90477 -3.13231 0
M  V30 1625 H 150.274 -0.303414 -5.02084 0
M  V30 1626 H 149.974 -1.98369 -5.53103 0
M  V30 1627 H 151.498 -1.1733 -5.99221 0
M  V30 1628 H 152.912 -3.11471 -4.81309 0
M  V30 1629 H 151.309 -3.87218 -4.58457 0
M  V30 1630 H 152.379 -3.65368 -3.18801 0
M  V30 1631 N 153.722 1.14298 -1.08507 0
M  V30 1632 C 154.947 1.8976 -0.837001 0
M  V30 1633 C 155.372 1.78097 0.605228 0
M  V30 1634 O 154.73 1.12188 1.4242 0
M  V30 1635 C 154.778 3.37685 -1.26495 0
M  V30 1636 O 153.882 4.10281 -0.417514 0
M  V30 1637 H 153.223 0.590365 -0.303917 0
M  V30 1638 H 155.753 1.44672 -1.44676 0
M  V30 1639 H 155.763 3.88501 -1.24625 0
M  V30 1640 H 154.438 3.45492 -2.31534 0
M  V30 1641 H 153.015 3.69536 -0.499722 0
M  V30 1642 N 155.201 0.870884 1.31352 0
M  V30 1643 C 156.45 0.478408 1.95944 0
M  V30 1644 C 156.763 -0.974493 1.69597 0
M  V30 1645 O 157.969 -1.47316 2.28058 0
M  V30 1646 C 156.425 0.804609 3.50791 0
M  V30 1647 C 156.033 2.27433 3.85977 0
M  V30 1648 C 157.777 0.480648 4.2177 0
M  V30 1649 C 155.684 2.5429 5.33939 0
M  V30 1650 H 154.614 0.175175 0.733369 0
M  V30 1651 H 157.265 1.06391 1.4951 0
M  V30 1652 H 155.647 0.148347 3.95722 0
M  V30 1653 H 156.821 2.97373 3.52002 0
M  V30 1654 H 155.136 2.56442 3.28065 0
M  V30 1655 H 157.733 0.658519 5.30629 0
M  V30 1656 H 158.076 -0.578979 4.12254 0
M  V30 1657 H 158.609 1.09349 3.82476 0
M  V30 1658 H 155.348 3.58939 5.48491 0
M  V30 1659 H 154.868 1.88945 5.69263 0
M  V30 1660 H 156.547 2.39066 6.01212 0
M  V30 1661 N 156.679 -1.44442 0.630414 0
M  V30 1662 C 157.926 -2.02052 0.134617 0
M  V30 1663 C 158.254 -1.49576 -1.24327 0
M  V30 1664 O 157.509 -0.669806 -1.83881 0
M  V30 1665 C 157.808 -3.57332 0.0697835 0
M  V30 1666 C 157.474 -4.29058 1.38635 0
M  V30 1667 C 156.136 -4.4837 1.74694 0
M  V30 1668 C 158.488 -4.69872 2.25543 0
M  V30 1669 C 155.816 -5.05756 2.97369 0
M  V30 1670 C 158.168 -5.28616 3.47487 0
M  V30 1671 C 156.832 -5.46147 3.8377 0
M  V30 1672 H 156.102 -0.739361 0.0492598 0
M  V30 1673 H 158.749 -1.73217 0.816586 0
M  V30 1674 H 157.054 -3.85577 -0.695553 0
M  V30 1675 H 158.751 -3.99637 -0.330344 0
M  V30 1676 H 155.341 -4.14357 1.09574 0
M  V30 1677 H 159.525 -4.54666 1.98979 0
M  V30 1678 H 154.781 -5.17515 3.25558 0
M  V30 1679 H 158.955 -5.59192 4.15063 0
M  V30 1680 H 156.582 -5.9038 4.7891 0
M  V30 1681 N 158.157 -0.370918 -1.53173 0
M  V30 1682 C 159.406 0.218249 -2.00516 0
M  V30 1683 C 159.719 1.49429 -1.26215 0
M  V30 1684 O 160.925 2.16239 -1.64174 0
M  V30 1685 C 159.381 0.43948 -3.57207 0
M  V30 1686 C 158.989 -0.822244 -4.4039 0
M  V30 1687 C 160.733 0.986012 -4.1289 0
M  V30 1688 C 158.64 -0.570304 -5.88644 0
M  V30 1689 H 157.57 0.0853333 -0.749156 0
M  V30 1690 H 160.221 -0.490483 -1.76823 0
M  V30 1691 H 158.603 1.20961 -3.77074 0
M  V30 1692 H 159.777 -1.59557 -4.32294 0
M  V30 1693 H 158.092 -1.29238 -3.95836 0
M  V30 1694 H 160.689 1.18991 -5.21292 0
M  V30 1695 H 161.032 1.94972 -3.6782 0
M  V30 1696 H 161.565 0.27592 -3.96842 0
M  V30 1697 H 158.304 -1.50449 -6.38001 0
M  V30 1698 H 157.824 0.164427 -5.99575 0
M  V30 1699 H 159.503 -0.19784 -6.46697 0
M  V30 1700 N 159.635 1.57281 -0.100228 0
M  V30 1701 C 160.863 1.98879 0.570509 0
M  V30 1702 C 161.278 0.979476 1.61405 0
M  V30 1703 O 160.635 -0.0302288 1.82475 0
M  V30 1704 C 160.686 3.4052 1.2136 0
M  V30 1705 O 160.407 4.37588 0.211786 0
M  V30 1706 C 161.908 3.97149 1.96945 0
M  V30 1707 H 159.128 0.653428 0.152555 0
M  V30 1708 H 161.672 2.03697 -0.18103 0
M  V30 1709 H 159.827 3.367 1.91603 0
M  V30 1710 H 160.241 5.20118 0.676607 0
M  V30 1711 H 161.715 4.98393 2.37294 0
M  V30 1712 H 162.192 3.3525 2.83733 0
M  V30 1713 H 162.798 4.04458 1.31506 0
M  V30 1714 N 161.113 -0.173488 1.56642 0
M  V30 1715 C 162.061 -1.23417 1.97157 0
M  V30 1716 C 163.055 -1.45946 0.860013 0
M  V30 1717 O 164.261 -1.46551 1.04512 0
M  V30 1718 H 160.636 -0.414818 0.62724 0
M  V30 1719 H 162.607 -0.865582 2.8557 0
M  V30 1720 C 161.356 -2.5665 2.34576 0
M  V30 1721 H 160.679 -2.40137 3.19647 0
M  V30 1722 H 162.119 -3.2956 2.6677 0
M  V30 1723 C 160.578 -3.15245 1.18836 0
M  V30 1724 O 161.108 -3.98883 0.474869 0
M  V30 1725 N 159.314 -2.74303 0.959497 0
M  V30 1726 H 158.861 -2.0639 1.54146 0
M  V30 1727 H 158.819 -3.13844 0.186932 0
M  V30 1728 N 162.591 -1.51276 -0.441967 0
M  V30 1729 C 163.837 -1.63958 -1.19355 0
M  V30 1730 C 164.17 -0.352543 -1.90973 0
M  V30 1731 O 163.445 0.647627 -1.83401 0
M  V30 1732 C 163.728 -2.83979 -2.21422 0
M  V30 1733 C 163.581 -4.22646 -1.53918 0
M  V30 1734 C 164.9 -2.99521 -3.22451 0
M  V30 1735 H 162.019 -0.596709 -0.432559 0
M  V30 1736 H 164.661 -1.83748 -0.483398 0
M  V30 1737 H 162.811 -2.67237 -2.81987 0
M  V30 1738 H 164.483 -4.51045 -0.967256 0
M  V30 1739 H 162.726 -4.25558 -0.841615 0
M  V30 1740 H 163.397 -5.02609 -2.28229 0
M  V30 1741 H 165.873 -3.14944 -2.71937 0
M  V30 1742 H 164.749 -3.85072 -3.91166 0
M  V30 1743 H 165.01 -2.11391 -3.88287 0
M  V30 1744 N 164.069 0.697108 -1.41344 0
M  V30 1745 C 165.297 1.48593 -1.43972 0
M  V30 1746 C 165.712 1.88747 -0.0445612 0
M  V30 1747 O 165.069 1.56682 0.935785 0
M  V30 1748 C 165.12 2.74946 -2.34706 0
M  V30 1749 O 164.841 2.36484 -3.68791 0
M  V30 1750 C 166.342 3.687 -2.46121 0
M  V30 1751 H 163.562 0.457964 -0.490418 0
M  V30 1752 H 166.106 0.858429 -1.8561 0
M  V30 1753 H 164.261 3.33937 -1.9638 0
M  V30 1754 H 164.675 3.17918 -4.17167 0
M  V30 1755 H 166.149 4.54145 -3.13777 0
M  V30 1756 H 166.626 4.13081 -1.49199 0
M  V30 1757 H 167.232 3.15613 -2.85076 0
M  V30 1758 N 165.547 1.27147 0.931209 0
M  V30 1759 C 166.777 1.15914 1.71019 0
M  V30 1760 C 167.185 -0.287112 1.87009 0
M  V30 1761 O 166.528 -1.20761 1.38429 0
M  V30 1762 C 166.59 1.76647 3.13107 0
M  V30 1763 C 166.254 3.25807 3.20467 0
M  V30 1764 C 167.251 4.22489 3.02983 0
M  V30 1765 C 164.936 3.66452 3.43538 0
M  V30 1766 C 166.93 5.57794 3.08454 0
M  V30 1767 C 164.617 5.01888 3.48643 0
M  V30 1768 C 165.615 5.97369 3.31119 0
M  V30 1769 O 165.303 7.30337 3.35952 0
M  V30 1770 H 165.035 0.404062 0.54195 0
M  V30 1771 H 167.589 1.68457 1.17521 0
M  V30 1772 H 165.819 1.18578 3.68071 0
M  V30 1773 H 167.508 1.60179 3.72958 0
M  V30 1774 H 168.274 3.92425 2.85004 0
M  V30 1775 H 164.153 2.92611 3.5623 0
M  V30 1776 H 167.697 6.32298 2.94694 0
M  V30 1777 H 163.594 5.31609 3.66145 0
M  V30 1778 H 164.362 7.38739 3.5243 0
M  V30 1779 N 167.025 -1.13721 1.09112 0
M  V30 1780 C 167.973 -2.21103 0.722219 0
M  V30 1781 C 168.967 -1.67147 -0.275374 0
M  V30 1782 O 170.173 -1.79477 -0.137176 0
M  V30 1783 H 166.548 -0.720445 0.215553 0
M  V30 1784 H 168.519 -2.49483 1.63709 0
M  V30 1785 C 167.268 -3.47352 0.15543 0
M  V30 1786 H 166.591 -3.89206 0.914246 0
M  V30 1787 H 168.031 -4.2395 -0.0647967 0
M  V30 1788 C 166.49 -3.1814 -1.10852 0
M  V30 1789 O 167.02 -3.36604 -2.19227 0
M  V30 1790 N 165.226 -2.72045 -1.02176 0
M  V30 1791 H 164.773 -2.57221 -0.139764 0
M  V30 1792 H 164.731 -2.52875 -1.8682 0
M  V30 1793 N 168.503 -0.877838 -1.30888 0
M  V30 1794 C 169.453 -0.310872 -2.25871 0
M  V30 1795 C 170.437 0.556596 -1.50966 0
M  V30 1796 O 171.629 0.402187 -1.7237 0
M  V30 1797 C 168.758 0.479821 -3.3993 0
M  V30 1798 C 167.844 -0.401333 -4.22197 0
M  V30 1799 N 168.235 -1.49848 -4.83093 0
M  V30 1800 C 166.533 -0.195167 -4.45573 0
M  V30 1801 C 167.234 -2.0425 -5.44662 0
M  V30 1802 N 166.21 -1.33843 -5.26865 0
M  V30 1803 H 170.012 -1.1493 -2.70496 0
M  V30 1804 H 167.526 -0.726458 -1.45246 0
M  V30 1805 H 169.523 0.902582 -4.07012 0
M  V30 1806 H 168.183 1.31577 -2.96846 0
M  V30 1807 H 169.194 -1.88137 -4.82519 0
M  V30 1808 H 165.871 0.604192 -4.13105 0
M  V30 1809 H 167.261 -2.96345 -6.03017 0
M  V30 1810 N 169.982 1.44106 -0.638065 0
M  V30 1811 C 171.207 2.0685 -0.150916 0
M  V30 1812 C 171.632 1.47417 1.16833 0
M  V30 1813 O 170.99 0.578264 1.71831 0
M  V30 1814 C 171.038 3.60555 -0.05708 0
M  V30 1815 O 170.142 4.00465 0.984972 0
M  V30 1816 H 169.483 0.658151 -0.0879399 0
M  V30 1817 H 172.013 1.84865 -0.876707 0
M  V30 1818 H 172.023 4.07789 0.131232 0
M  V30 1819 H 170.698 4.03193 -1.02021 0
M  V30 1820 H 169.275 3.64849 0.770672 0
M  V30 1821 N 171.46 0.379036 1.52974 0
M  V30 1822 C 172.708 -0.206014 2.01047 0
M  V30 1823 C 173.029 -1.48175 1.26765 0
M  V30 1824 O 172.299 -1.92085 0.384743 0
M  V30 1825 H 170.879 -0.0791184 0.742798 0
M  V30 1826 H 173.541 0.508366 1.88153 0
M  V30 1827 H 172.637 -0.423501 3.09213 0
M  V30 1828 N 172.938 -1.57226 0.108567 0
M  V30 1829 C 174.215 -1.86333 -0.594939 0
M  V30 1830 C 174.595 -1.00788 -1.85486 0
M  V30 1831 O 173.943 -0.0839293 -2.28346 0
M  V30 1832 C 174.153 -3.37265 -0.897405 0
M  V30 1833 C 175.501 -4.05629 -1.25501 0
M  V30 1834 O 176.525 -3.42224 -0.987998 0
M  V30 1835 O 175.384 -5.17531 -1.75567 0
M  V30 1836 H 172.478 -0.771018 -0.2991 0
M  V30 1837 H 175.024 -1.69102 0.142283 0
M  V30 1838 H 173.796 -3.913 -0.00413806 0
M  V30 1839 H 173.419 -3.59889 -1.69014 0
M  V30 1840 N 174.416 0.165178 -1.56732 0
M  V30 1841 C 175.646 0.894919 -1.86212 0
M  V30 1842 C 176.054 1.76066 -0.692627 0
M  V30 1843 O 175.397 1.80387 0.347303 0
M  V30 1844 C 175.459 1.8174 -3.10179 0
M  V30 1845 C 175.123 1.13064 -4.42793 0
M  V30 1846 C 176.12 0.493169 -5.17556 0
M  V30 1847 C 173.805 1.12556 -4.89527 0
M  V30 1848 C 175.799 -0.140209 -6.37246 0
M  V30 1849 C 173.486 0.488366 -6.09145 0
M  V30 1850 C 174.484 -0.143411 -6.82849 0
M  V30 1851 O 174.172 -0.77055 -8.00199 0
M  V30 1852 H 173.904 0.265114 -0.621844 0
M  V30 1853 H 176.458 0.168242 -2.0471 0
M  V30 1854 H 174.688 2.58455 -2.87642 0
M  V30 1855 H 176.377 2.4175 -3.26055 0
M  V30 1856 H 177.143 0.489023 -4.82528 0
M  V30 1857 H 173.022 1.60672 -4.32094 0
M  V30 1858 H 176.566 -0.633932 -6.94714 0
M  V30 1859 H 172.463 0.490116 -6.43637 0
M  V30 1860 H 173.231 -0.670408 -8.1575 0
M  V30 1861 N 175.894 1.51508 0.433938 0
M  V30 1862 C 176.804 1.75917 1.5521 0
M  V30 1863 C 177.82 0.643545 1.61662 0
M  V30 1864 O 178.996 0.926183 1.7884 0
M  V30 1865 C 176.061 1.88213 2.91164 0
M  V30 1866 C 175.122 3.12074 2.94802 0
M  V30 1867 C 174.355 3.23774 4.24271 0
M  V30 1868 O 174.578 2.4133 5.16833 0
M  V30 1869 O 173.512 4.16774 4.34262 0
M  V30 1870 H 177.338 2.70777 1.37527 0
M  V30 1871 H 174.923 1.36051 0.617293 0
M  V30 1872 H 176.805 1.98267 3.71845 0
M  V30 1873 H 175.48 0.965413 3.08968 0
M  V30 1874 H 174.387 3.07497 2.13065 0
M  V30 1875 H 175.72 4.03446 2.81943 0
M  V30 1876 N 177.372 -0.689602 1.41712 0
M  V30 1877 C 178.612 -1.46184 1.42862 0
M  V30 1878 C 178.976 -1.91962 0.0382204 0
M  V30 1879 O 180.177 -2.68694 -0.0755019 0
M  V30 1880 C 178.448 -2.6371 2.4123 0
M  V30 1881 S 180.007 -3.52768 2.6096 0
M  V30 1882 H 176.825 -0.49947 0.506015 0
M  V30 1883 H 179.427 -0.804107 1.78198 0
M  V30 1884 H 178.131 -2.28293 3.41044 0
M  V30 1885 H 177.662 -3.3437 2.07269 0
M  V30 1886 H 179.677 -4.59146 1.88148 0
M  V30 1887 N 178.85 -1.27639 -0.924453 0
M  V30 1888 C 179.8 -1.07295 -2.01176 0
M  V30 1889 C 180.784 5.77352e-05 -1.609 0
M  V30 1890 O 181.976 -0.218855 -1.75642 0
M  V30 1891 C 179.105 -0.725592 -3.35544 0
M  V30 1892 C 178.191 -1.83691 -3.82254 0
M  V30 1893 N 178.582 -3.07697 -4.01443 0
M  V30 1894 C 176.88 -1.72433 -4.11319 0
M  V30 1895 C 177.581 -3.80037 -4.40394 0
M  V30 1896 N 176.557 -3.0782 -4.48049 0
M  V30 1897 H 180.359 -2.01399 -2.14046 0
M  V30 1898 H 177.873 -1.18401 -1.11153 0
M  V30 1899 H 179.87 -0.560959 -4.13109 0
M  V30 1900 H 178.53 0.207782 -3.24034 0
M  V30 1901 H 179.541 -3.43424 -3.8766 0
M  V30 1902 H 176.218 -0.862005 -4.08504 0
M  V30 1903 H 177.608 -4.86632 -4.63291 0
M  V30 1904 N 180.328 1.1314 -1.09713 0
M  V30 1905 C 181.574 1.84757 -0.836224 0
M  V30 1906 C 181.907 1.8347 0.636598 0
M  V30 1907 O 181.182 1.27491 1.46889 0
M  V30 1908 C 181.465 3.32782 -1.37578 0
M  V30 1909 C 181.318 3.42567 -2.91493 0
M  V30 1910 C 182.637 4.28307 -1.01198 0
M  V30 1911 H 179.756 0.67082 -0.305236 0
M  V30 1912 H 182.398 1.3278 -1.35903 0
M  V30 1913 H 180.548 3.77177 -0.931097 0
M  V30 1914 H 182.22 3.06862 -3.44432 0
M  V30 1915 H 180.463 2.83349 -3.28475 0
M  V30 1916 H 181.134 4.46674 -3.24324 0
M  V30 1917 H 183.61 3.91999 -1.39556 0
M  V30 1918 H 182.486 5.30307 -1.41653 0
M  V30 1919 H 182.747 4.42029 0.0794833 0
M  V30 1920 N 181.806 0.884767 1.30421 0
M  V30 1921 C 183.036 0.517293 2.00019 0
M  V30 1922 C 183.444 -0.898632 1.66497 0
M  V30 1923 O 182.787 -1.60245 0.898181 0
M  V30 1924 C 182.849 0.612025 3.54252 0
M  V30 1925 C 182.513 1.99222 4.1129 0
M  V30 1926 C 183.51 2.9616 4.273 0
M  V30 1927 C 181.195 2.29755 4.46674 0
M  V30 1928 C 183.189 4.21764 4.77906 0
M  V30 1929 C 180.876 3.55606 4.96979 0
M  V30 1930 C 181.874 4.51425 5.12547 0
M  V30 1931 O 181.562 5.75043 5.61766 0
M  V30 1932 H 181.294 0.198529 0.64619 0
M  V30 1933 H 183.848 1.1919 1.67281 0
M  V30 1934 H 182.078 -0.119561 3.86515 0
M  V30 1935 H 183.767 0.255859 4.05093 0
M  V30 1936 H 184.533 2.73882 4.00267 0
M  V30 1937 H 180.412 1.55942 4.33824 0
M  V30 1938 H 183.956 4.96561 4.89972 0
M  V30 1939 H 179.853 3.7772 5.23448 0
M  V30 1940 H 180.621 5.77422 5.80109 0
M  V30 1941 N 183.284 -1.43765 0.645699 0
M  V30 1942 C 184.7 -1.56509 0.312591 0
M  V30 1943 C 184.9 -1.6307 -1.18365 0
M  V30 1944 O 183.956 -1.58167 -1.96824 0
M  V30 1945 C 185.269 -2.82968 1.01733 0
M  V30 1946 C 186.817 -2.96701 0.996865 0
M  V30 1947 C 187.292 -4.25982 1.68236 0
M  V30 1948 N 188.783 -4.32829 1.64964 0
M  V30 1949 C 189.518 -5.31613 2.14885 0
M  V30 1950 N 189.014 -6.36718 2.73061 0
M  V30 1951 N 190.807 -5.23217 2.05428 0
M  V30 1952 H 182.958 -1.3775 1.61675 0
M  V30 1953 H 185.221 -0.661067 0.679481 0
M  V30 1954 H 184.927 -2.84156 2.0724 0
M  V30 1955 H 184.801 -3.72957 0.564177 0
M  V30 1956 H 187.188 -2.95058 -0.0497719 0
M  V30 1957 H 187.269 -2.08022 1.48865 0
M  V30 1958 H 186.913 -4.28386 2.72852 0
M  V30 1959 H 186.843 -5.13545 1.16529 0
M  V30 1960 H 189.334 -3.57493 1.22503 0
M  V30 1961 H 189.647 -7.08401 3.08848 0
M  V30 1962 H 187.992 -6.37362 2.77118 0
M  V30 1963 H 191.183 -4.40019 1.59689 0
M  V30 1964 H 191.356 -6.00045 2.44643 0
M  V30 1965 N 184.763 -0.387143 -1.52771 0
M  V30 1966 C 185.693 0.440551 -2.29306 0
M  V30 1967 C 186.674 1.06535 -1.32606 0
M  V30 1968 O 187.859 1.07853 -1.61497 0
M  V30 1969 C 184.989 1.56919 -3.09829 0
M  V30 1970 C 183.943 1.07054 -4.14395 0
M  V30 1971 C 183.269 2.29109 -4.83129 0
M  V30 1972 C 184.569 0.140015 -5.22112 0
M  V30 1973 H 186.263 -0.198026 -2.98744 0
M  V30 1974 H 183.809 -0.09668 -1.43675 0
M  V30 1975 H 185.762 2.15503 -3.62128 0
M  V30 1976 H 184.486 2.23532 -2.3812 0
M  V30 1977 H 183.145 0.507247 -3.63074 0
M  V30 1978 H 182.793 2.94227 -4.0797 0
M  V30 1979 H 182.493 1.96406 -5.53804 0
M  V30 1980 H 184.017 2.88339 -5.38231 0
M  V30 1981 H 185.431 0.633978 -5.69784 0
M  V30 1982 H 183.828 -0.0971485 -6.00021 0
M  V30 1983 H 184.898 -0.811711 -4.78058 0
M  V30 1984 N 186.241 1.57166 -0.116904 0
M  V30 1985 C 187.171 2.18222 0.830759 0
M  V30 1986 C 188.152 1.12167 1.27877 0
M  V30 1987 O 189.337 1.40394 1.34176 0
M  V30 1988 C 186.467 2.77996 2.08172 0
M  V30 1989 C 185.421 3.89614 1.77157 0
M  V30 1990 C 184.747 4.36187 3.09265 0
M  V30 1991 C 186.047 5.1181 1.04151 0
M  V30 1992 H 187.741 2.97664 0.321992 0
M  V30 1993 H 185.287 1.4318 0.153434 0
M  V30 1994 H 187.24 3.19366 2.74924 0
M  V30 1995 H 185.964 1.9584 2.6137 0
M  V30 1996 H 184.623 3.48816 1.12796 0
M  V30 1997 H 184.271 3.50893 3.60393 0
M  V30 1998 H 183.971 5.11455 2.89288 0
M  V30 1999 H 185.495 4.80207 3.77139 0
M  V30 2000 H 186.909 5.50214 1.61052 0
M  V30 2001 H 185.306 5.92648 0.942762 0
M  V30 2002 H 186.376 4.84892 0.0279022 0
M  V30 2003 N 187.719 -0.156864 1.56817 0
M  V30 2004 C 188.966 -0.871125 1.82805 0
M  V30 2005 C 189.294 -1.81611 0.696262 0
M  V30 2006 O 188.549 -1.93141 -0.315459 0
M  V30 2007 C 188.848 -1.68737 3.1506 0
M  V30 2008 C 188.514 -0.890045 4.42028 0
M  V30 2009 C 187.176 -0.670042 4.76512 0
M  V30 2010 C 189.528 -0.331769 5.20143 0
M  V30 2011 C 186.856 0.119104 5.86579 0
M  V30 2012 C 189.208 0.444365 6.31037 0
M  V30 2013 C 187.872 0.675035 6.64078 0
M  V30 2014 H 187.142 -0.318767 0.668931 0
M  V30 2015 H 189.789 -0.135274 1.91022 0
M  V30 2016 H 188.094 -2.49304 3.0225 0
M  V30 2017 H 189.791 -2.24331 3.3238 0
M  V30 2018 H 186.381 -1.07157 4.14988 0
M  V30 2019 H 190.565 -0.489043 4.93885 0
M  V30 2020 H 185.821 0.307417 6.10627 0
M  V30 2021 H 189.995 0.884139 6.90765 0
M  V30 2022 H 187.622 1.28839 7.49203 0
M  V30 2023 N 189.197 -1.51736 -0.425897 0
M  V30 2024 C 190.444 -1.6497 -1.17436 0
M  V30 2025 C 190.772 -0.371445 -1.9092 0
M  V30 2026 O 190.027 0.644963 -1.84767 0
M  V30 2027 C 190.326 -2.81103 -2.20717 0
M  V30 2028 C 189.992 -4.19954 -1.64162 0
M  V30 2029 C 188.654 -4.57725 -1.48462 0
M  V30 2030 C 191.006 -5.06552 -1.22696 0
M  V30 2031 C 188.334 -5.79789 -0.897873 0
M  V30 2032 C 190.686 -6.29205 -0.654464 0
M  V30 2033 C 189.35 -6.6574 -0.484456 0
M  V30 2034 H 188.62 -0.603668 -0.429727 0
M  V30 2035 H 191.267 -1.85798 -0.463829 0
M  V30 2036 H 189.572 -2.54542 -2.97852 0
M  V30 2037 H 191.269 -2.8854 -2.78471 0
M  V30 2038 H 187.859 -3.90181 -1.77361 0
M  V30 2039 H 192.043 -4.77968 -1.33642 0
M  V30 2040 H 187.299 -6.06733 -0.75402 0
M  V30 2041 H 191.473 -6.95643 -0.324694 0
M  V30 2042 H 189.1 -7.60195 -0.0276833 0
M  V30 2043 N 190.675 0.682077 -1.42076 0
M  V30 2044 C 191.585 1.82535 -1.47371 0
M  V30 2045 C 192.601 1.7017 -0.363079 0
M  V30 2046 O 193.777 1.91848 -0.612875 0
M  V30 2047 C 190.842 3.18624 -1.36674 0
M  V30 2048 C 189.903 3.42999 -2.58167 0
M  V30 2049 C 189.136 4.72595 -2.4797 0
M  V30 2050 O 189.359 5.50006 -1.5116 0
M  V30 2051 O 188.293 4.98054 -3.37974 0
M  V30 2052 H 192.119 1.81023 -2.43853 0
M  V30 2053 H 189.704 0.836887 -1.2376 0
M  V30 2054 H 191.586 3.99847 -1.33043 0
M  V30 2055 H 190.261 3.20789 -0.433138 0
M  V30 2056 H 189.168 2.61653 -2.67373 0
M  V30 2057 H 190.501 3.45659 -3.50401 0
M  V30 2058 N 192.153 1.28127 0.917671 0
M  V30 2059 C 193.101 1.11569 2.04096 0
M  V30 2060 C 194.095 0.0360242 1.69362 0
M  V30 2061 O 195.301 0.194501 1.78946 0
M  V30 2062 H 191.676 0.344097 0.668656 0
M  V30 2063 H 193.647 2.06711 2.15205 0
M  V30 2064 C 192.396 0.790197 3.38602 0
M  V30 2065 H 191.719 1.61293 3.6582 0
M  V30 2066 H 193.159 0.714271 4.1794 0
M  V30 2067 C 191.618 -0.505897 3.3308 0
M  V30 2068 O 192.148 -1.53736 3.71117 0
M  V30 2069 N 190.354 -0.505193 2.86175 0
M  V30 2070 H 189.901 0.334621 2.55417 0
M  V30 2071 H 189.859 -1.37243 2.82863 0
M  V30 2072 N 193.631 -1.12557 1.10312 0
M  V30 2073 C 194.861 -1.87592 0.865617 0
M  V30 2074 C 195.269 -1.79851 -0.587389 0
M  V30 2075 O 194.612 -1.16949 -1.41664 0
M  V30 2076 C 194.674 -3.37665 1.23381 0
M  V30 2077 C 194.338 -3.69181 2.69359 0
M  V30 2078 C 195.335 -3.67652 3.67597 0
M  V30 2079 C 193.02 -3.98555 3.05711 0
M  V30 2080 C 195.014 -3.95053 5.00212 0
M  V30 2081 C 192.701 -4.25616 4.38514 0
M  V30 2082 C 193.699 -4.23851 5.35574 0
M  V30 2083 O 193.387 -4.50242 6.65986 0
M  V30 2084 H 193.119 -0.600442 0.310557 0
M  V30 2085 H 195.673 -1.4335 1.47105 0
M  V30 2086 H 193.903 -3.82454 0.571467 0
M  V30 2087 H 195.592 -3.94041 0.973994 0
M  V30 2088 H 196.358 -3.45024 3.40857 0
M  V30 2089 H 192.237 -3.99071 2.30789 0
M  V30 2090 H 195.781 -3.93591 5.75962 0
M  V30 2091 H 191.678 -4.47718 4.64994 0
M  V30 2092 H 192.446 -4.67867 6.71597 0
M  V30 2093 N 195.109 -0.891671 -1.2995 0
M  V30 2094 C 196.019 -0.367691 -2.31701 0
M  V30 2095 C 197.035 0.533486 -1.6562 0
M  V30 2096 O 198.211 0.424997 -1.96865 0
M  V30 2097 C 195.276 0.403406 -3.44345 0
M  V30 2098 C 194.337 -0.528328 -4.26037 0
M  V30 2099 C 193.57 0.206063 -5.33302 0
M  V30 2100 O 193.793 1.43119 -5.52153 0
M  V30 2101 O 192.727 -0.447281 -6.00236 0
M  V30 2102 H 196.553 -1.21163 -2.78484 0
M  V30 2103 H 194.138 -0.655725 -1.34241 0
M  V30 2104 H 196.02 0.839753 -4.12948 0
M  V30 2105 H 194.695 1.22354 -2.99685 0
M  V30 2106 H 193.602 -1.01362 -3.60106 0
M  V30 2107 H 194.935 -1.31465 -4.74318 0
M  V30 2108 N 196.587 1.43421 -0.653314 0
M  V30 2109 C 197.537 2.2792 0.060558 0
M  V30 2110 C 198.521 1.39906 0.794677 0
M  V30 2111 O 199.713 1.63536 0.677128 0
M  V30 2112 C 196.842 3.27603 1.0262 0
M  V30 2113 C 195.928 4.23104 0.290551 0
M  V30 2114 N 196.319 5.01031 -0.692967 0
M  V30 2115 C 194.617 4.42816 0.531984 0
M  V30 2116 C 195.318 5.70626 -1.12963 0
M  V30 2117 N 194.294 5.41617 -0.463867 0
M  V30 2118 H 198.096 2.85585 -0.694143 0
M  V30 2119 H 195.61 1.55126 -0.480602 0
M  V30 2120 H 197.607 3.86918 1.55242 0
M  V30 2121 H 196.267 2.71499 1.78096 0
M  V30 2122 H 197.278 5.0669 -1.07169 0
M  V30 2123 H 193.955 3.97782 1.26791 0
M  V30 2124 H 195.345 6.4318 -1.94343 0
M  V30 2125 N 198.065 0.39524 1.52563 0
M  V30 2126 C 199.013 -0.451859 2.28169 0
M  V30 2127 C 200.007 -1.05792 1.32304 0
M  V30 2128 O 201.213 -0.997718 1.49818 0
M  V30 2129 H 197.588 -0.164481 0.733792 0
M  V30 2130 H 199.559 0.207199 2.9768 0
M  V30 2131 C 198.308 -1.56385 3.10546 0
M  V30 2132 H 197.631 -1.10682 3.84174 0
M  V30 2133 H 199.071 -2.13067 3.66577 0
M  V30 2134 C 197.53 -2.52328 2.23231 0
M  V30 2135 O 198.06 -3.5588 1.86312 0
M  V30 2136 N 196.266 -2.22209 1.87274 0
M  V30 2137 H 195.813 -1.38033 2.17496 0
M  V30 2138 H 195.771 -2.86652 1.29143 0
M  V30 2139 N 199.544 -1.57102 0.125237 0
M  V30 2140 C 200.772 -1.99761 -0.538797 0
M  V30 2141 C 201.187 -1.00503 -1.59827 0
M  V30 2142 O 200.544 0.00119474 -1.825 0
M  V30 2143 C 200.595 -3.42408 -1.15927 0
M  V30 2144 O 200.316 -4.37869 -0.142143 0
M  V30 2145 C 201.817 -4.00232 -1.90602 0
M  V30 2146 H 199.037 -0.655772 -0.14214 0
M  V30 2147 H 201.581 -2.03383 0.213413 0
M  V30 2148 H 199.736 -3.39706 -1.86223 0
M  V30 2149 H 200.15 -5.21128 -0.593775 0
M  V30 2150 H 201.624 -5.02105 -2.29335 0
M  V30 2151 H 202.101 -3.39721 -2.78363 0
M  V30 2152 H 202.707 -4.06499 -1.25055 0
M  V30 2153 N 201.022 0.148545 -1.56898 0
M  V30 2154 C 202.247 0.880385 -1.87787 0
M  V30 2155 C 202.672 1.74018 -0.714093 0
M  V30 2156 O 202.03 1.78153 0.336343 0
M  V30 2157 C 202.078 1.71422 -3.17249 0
M  V30 2158 O 201.182 2.8183 -3.01074 0
M  V30 2159 H 200.523 0.245301 -0.617028 0
M  V30 2160 H 203.053 0.139826 -2.04122 0
M  V30 2161 H 203.063 2.10954 -3.49231 0
M  V30 2162 H 201.738 1.08284 -4.01556 0
M  V30 2163 H 200.315 2.45715 -2.80497 0
M  V30 2164 N 202.5 1.5196 0.417844 0
M  V30 2165 C 203.746 1.65836 1.16732 0
M  V30 2166 C 204.079 0.382881 1.90388 0
M  V30 2167 O 203.354 -0.618368 1.84408 0
M  V30 2168 C 203.637 2.87466 2.16876 0
M  V30 2169 C 203.49 4.25041 1.47174 0
M  V30 2170 C 204.809 3.04613 3.17646 0
M  V30 2171 H 201.928 0.603515 0.423011 0
M  V30 2172 H 204.57 1.84494 0.454105 0
M  V30 2173 H 202.72 2.71689 2.777 0
M  V30 2174 H 204.392 4.52527 0.895376 0
M  V30 2175 H 202.635 4.26843 0.773806 0
M  V30 2176 H 203.306 5.06176 2.20204 0
M  V30 2177 H 205.782 3.1923 2.66892 0
M  V30 2178 H 204.658 3.91247 3.8499 0
M  V30 2179 H 204.919 2.17541 3.84874 0
M  V30 2180 N 203.978 -0.674533 1.42435 0
M  V30 2181 C 205.224 -1.43671 1.43131 0
M  V30 2182 C 205.557 -1.94142 0.0476021 0
M  V30 2183 O 204.832 -1.70924 -0.928188 0
M  V30 2184 C 205.115 -2.63355 2.45594 0
M  V30 2185 C 204.968 -2.18514 3.93156 0
M  V30 2186 C 206.287 -3.65571 2.45043 0
M  V30 2187 H 203.406 -0.521077 0.521198 0
M  V30 2188 H 206.048 -0.766551 1.7385 0
M  V30 2189 H 204.198 -3.2053 2.19528 0
M  V30 2190 H 205.87 -1.66504 4.30202 0
M  V30 2191 H 204.113 -1.50086 4.07009 0
M  V30 2192 H 204.784 -3.04484 4.60428 0
M  V30 2193 H 207.26 -3.18113 2.68223 0
M  V30 2194 H 206.136 -4.46893 3.18713 0
M  V30 2195 H 206.397 -4.16716 1.47649 0
M  V30 2196 N 205.456 -1.28612 -0.910864 0
M  V30 2197 C 206.403 -1.12786 -2.01365 0
M  V30 2198 C 207.373 -0.024201 -1.66082 0
M  V30 2199 O 208.558 -0.189667 -1.89855 0
M  V30 2200 C 205.698 -0.798743 -3.35729 0
M  V30 2201 C 204.811 -1.98173 -3.83864 0
M  V30 2202 C 203.946 -1.59298 -5.06752 0
M  V30 2203 C 202.985 -2.74245 -5.47226 0
M  V30 2204 N 202.122 -2.35842 -6.61304 0
M  V30 2205 H 206.962 -2.07142 -2.14234 0
M  V30 2206 H 204.499 -1.03093 -1.0493 0
M  V30 2207 H 206.457 -0.588662 -4.13026 0
M  V30 2208 H 205.087 0.10789 -3.2262 0
M  V30 2209 H 204.139 -2.30386 -3.02699 0
M  V30 2210 H 205.451 -2.84343 -4.09818 0
M  V30 2211 H 204.605 -1.34513 -5.916 0
M  V30 2212 H 203.344 -0.702618 -4.82612 0
M  V30 2213 H 202.349 -2.99725 -4.60918 0
M  V30 2214 H 203.574 -3.63928 -5.73353 0
M  V30 2215 H 201.52 -1.49279 -6.38789 0
M  V30 2216 H 201.437 -3.15546 -6.86998 0
M  V30 2217 H 202.705 -2.14348 -7.4945 0
M  V30 2218 N 206.934 1.1197 -1.10907 0
M  V30 2219 C 207.881 2.17846 -0.762345 0
M  V30 2220 C 208.851 1.63995 0.263599 0
M  V30 2221 O 210.036 1.90273 0.141773 0
M  V30 2222 C 207.176 3.44487 -0.205651 0
M  V30 2223 C 206.289 4.12369 -1.28748 0
M  V30 2224 C 205.424 5.26674 -0.691919 0
M  V30 2225 C 204.463 5.86431 -1.75399 0
M  V30 2226 N 203.6 6.92142 -1.17833 0
M  V30 2227 H 208.44 2.46851 -1.6694 0
M  V30 2228 H 205.977 1.21188 -0.833776 0
M  V30 2229 H 207.935 4.16981 0.135037 0
M  V30 2230 H 206.565 3.15884 0.664613 0
M  V30 2231 H 205.617 3.38003 -1.74522 0
M  V30 2232 H 206.929 4.52844 -2.09125 0
M  V30 2233 H 206.083 6.05953 -0.300963 0
M  V30 2234 H 204.822 4.8749 0.143232 0
M  V30 2235 H 203.827 5.05835 -2.15432 0
M  V30 2236 H 205.052 6.27685 -2.59208 0
M  V30 2237 H 202.998 6.54985 -0.364725 0
M  V30 2238 H 202.915 7.31242 -1.91887 0
M  V30 2239 H 204.183 7.75237 -0.81408 0
M  V30 2240 N 208.412 0.89855 1.29475 0
M  V30 2241 C 209.661 0.519863 1.94885 0
M  V30 2242 C 209.974 -0.9383 1.71625 0
M  V30 2243 O 211.18 -1.42445 2.31131 0
M  V30 2244 C 209.636 0.878836 3.49005 0
M  V30 2245 C 209.244 2.35569 3.81066 0
M  V30 2246 C 210.988 0.570004 4.20656 0
M  V30 2247 C 208.895 2.65558 5.28425 0
M  V30 2248 H 207.825 0.190692 0.729488 0
M  V30 2249 H 210.476 1.09539 1.47219 0
M  V30 2250 H 208.858 0.232253 3.95318 0
M  V30 2251 H 210.032 3.04773 3.45616 0
M  V30 2252 H 208.347 2.63343 3.22552 0
M  V30 2253 H 210.944 0.770925 5.29113 0
M  V30 2254 H 211.287 -0.491404 4.1339 0
M  V30 2255 H 211.82 1.17438 3.8007 0
M  V30 2256 H 208.559 3.70493 5.40754 0
M  V30 2257 H 208.079 2.00977 5.65127 0
M  V30 2258 H 209.758 2.51765 5.96006 0
M  V30 2259 N 209.89 -1.43072 0.660911 0
M  V30 2260 C 210.84 -2.27948 -0.04847 0
M  V30 2261 C 211.824 -1.40325 -0.787246 0
M  V30 2262 O 213.016 -1.63893 -0.668446 0
M  V30 2263 C 210.145 -3.28143 -1.00881 0
M  V30 2264 C 209.231 -4.23252 -0.268108 0
M  V30 2265 N 209.622 -5.00656 0.719528 0
M  V30 2266 C 207.92 -4.43092 -0.508493 0
M  V30 2267 C 208.621 -5.70019 1.15988 0
M  V30 2268 N 207.597 -5.41364 0.492584 0
M  V30 2269 H 211.399 -2.85213 0.709279 0
M  V30 2270 H 208.913 -1.54869 0.488822 0
M  V30 2271 H 210.91 -3.87736 -1.53188 0
M  V30 2272 H 209.57 -2.7244 -1.76654 0
M  V30 2273 H 210.581 -5.06115 1.09855 0
M  V30 2274 H 207.258 -3.98449 -1.24679 0
M  V30 2275 H 208.648 -6.4214 1.97751 0
M  V30 2276 N 211.368 -0.403325 -1.52352 0
M  V30 2277 C 212.617 0.175668 -2.00934 0
M  V30 2278 C 212.93 1.46718 -1.29356 0
M  V30 2279 O 214.136 2.12708 -1.68724 0
M  V30 2280 C 212.592 0.363612 -3.58058 0
M  V30 2281 C 212.2 -0.915472 -4.38547 0
M  V30 2282 C 213.944 0.89821 -4.14888 0
M  V30 2283 C 211.851 -0.695035 -5.87302 0
M  V30 2284 H 210.781 0.0694234 -0.750797 0
M  V30 2285 H 213.432 -0.527879 -1.75743 0
M  V30 2286 H 211.814 1.12935 -3.79555 0
M  V30 2287 H 212.988 -1.68691 -4.28812 0
M  V30 2288 H 211.303 -1.37606 -3.93006 0
M  V30 2289 H 213.9 1.07907 -5.23699 0
M  V30 2290 H 214.243 1.87126 -3.71873 0
M  V30 2291 H 214.776 0.191681 -3.97338 0
M  V30 2292 H 211.515 -1.63948 -6.34666 0
M  V30 2293 H 211.035 0.0372116 -5.99788 0
M  V30 2294 H 212.714 -0.33497 -6.46132 0
M  V30 2295 N 212.846 1.57033 -0.133567 0
M  V30 2296 C 213.756 2.19632 0.824564 0
M  V30 2297 C 214.772 1.17666 1.28182 0
M  V30 2298 O 215.948 1.50193 1.3418 0
M  V30 2299 C 213.013 2.79499 2.05137 0
M  V30 2300 C 212.074 3.96548 1.64464 0
M  V30 2301 C 211.307 4.5355 2.81297 0
M  V30 2302 O 211.53 4.09438 3.97136 0
M  V30 2303 O 210.464 5.44018 2.57542 0
M  V30 2304 H 214.29 3.01991 0.321766 0
M  V30 2305 H 211.875 1.49112 0.0927889 0
M  V30 2306 H 213.757 3.17602 2.7696 0
M  V30 2307 H 212.432 2.00162 2.54395 0
M  V30 2308 H 211.339 3.63186 0.897048 0
M  V30 2309 H 212.672 4.77364 1.19934 0
M  V30 2310 N 214.325 -0.140222 1.56975 0
M  V30 2311 C 215.571 -0.852949 1.83991 0
M  V30 2312 C 215.904 -1.80512 0.716187 0
M  V30 2313 O 215.179 -1.92479 -0.279681 0
M  V30 2314 C 215.462 -1.6215 3.21527 0
M  V30 2315 C 215.315 -0.690363 4.4447 0
M  V30 2316 C 216.634 -2.58247 3.56366 0
M  V30 2317 H 213.753 -0.308634 0.669264 0
M  V30 2318 H 216.395 -0.117898 1.89634 0
M  V30 2319 H 214.545 -2.24812 3.16847 0
M  V30 2320 H 216.217 -0.0742264 4.6124 0
M  V30 2321 H 214.46 -0.000396433 4.338 0
M  V30 2322 H 215.131 -1.2643 5.37326 0
M  V30 2323 H 217.607 -2.05701 3.61699 0
M  V30 2324 H 216.483 -3.09067 4.53617 0
M  V30 2325 H 216.744 -3.39923 2.82674 0
M  V30 2326 N 215.803 -1.52179 -0.40978 0
M  V30 2327 C 217.049 -1.66453 -1.15851 0
M  V30 2328 C 217.382 -0.392972 -1.90182 0
M  V30 2329 O 216.657 0.608579 -1.84734 0
M  V30 2330 C 216.94 -2.88612 -2.15349 0
M  V30 2331 C 216.793 -4.25815 -1.44918 0
M  V30 2332 C 218.112 -3.06294 -3.16026 0
M  V30 2333 H 215.231 -0.60575 -0.419805 0
M  V30 2334 H 217.873 -1.84732 -0.444314 0
M  V30 2335 H 216.023 -2.73158 -2.76255 0
M  V30 2336 H 217.695 -4.52995 -0.871365 0
M  V30 2337 H 215.938 -4.27247 -0.751159 0
M  V30 2338 H 216.609 -5.07337 -2.17516 0
M  V30 2339 H 219.085 -3.20641 -2.65195 0
M  V30 2340 H 217.961 -3.93283 -3.8291 0
M  V30 2341 H 218.222 -2.19579 -3.83715 0
M  V30 2342 N 217.281 0.66697 -1.42791 0
M  V30 2343 C 218.558 1.4234 -1.34159 0
M  V30 2344 C 218.938 2.11093 0.0172729 0
M  V30 2345 O 218.286 2.03808 1.03318 0
M  V30 2346 C 218.496 2.41942 -2.51526 0
M  V30 2347 C 219.844 3.06353 -2.93995 0
M  V30 2348 O 220.868 2.52269 -2.51473 0
M  V30 2349 O 219.727 4.04376 -3.67617 0
M  V30 2350 H 216.821 0.635277 -0.529483 0
M  V30 2351 H 219.367 0.695034 -1.54814 0
M  V30 2352 H 218.139 1.89991 -3.42081 0
M  V30 2353 H 217.762 3.22249 -2.32898 0
M  V30 2354 N 218.759 1.29093 0.90403 0
M  V30 2355 C 219.706 1.13853 2.00764 0
M  V30 2356 C 220.676 0.0330084 1.66067 0
M  V30 2357 O 221.861 0.199733 1.89752 0
M  V30 2358 C 219.001 0.816537 3.35301 0
M  V30 2359 C 218.114 2.00206 3.82807 0
M  V30 2360 C 217.249 1.61983 5.059 0
M  V30 2361 C 216.288 2.77143 5.45764 0
M  V30 2362 N 215.425 2.39346 6.60044 0
M  V30 2363 H 220.265 2.08276 2.13132 0
M  V30 2364 H 217.802 1.03648 1.04381 0
M  V30 2365 H 219.76 0.610557 4.12708 0
M  V30 2366 H 218.39 -0.090779 3.22672 0
M  V30 2367 H 217.442 2.31988 3.01473 0
M  V30 2368 H 218.754 2.86512 4.08304 0
M  V30 2369 H 217.908 1.37649 5.90879 0
M  V30 2370 H 216.647 0.728202 4.82233 0
M  V30 2371 H 215.652 3.02165 4.59322 0
M  V30 2372 H 216.877 3.66964 5.71414 0
M  V30 2373 H 214.823 1.52665 6.37989 0
M  V30 2374 H 214.74 3.19185 6.85315 0
M  V30 2375 H 216.008 2.1832 7.48303 0
M  V30 2376 N 220.237 -1.11381 1.11499 0
M  V30 2377 C 221.2 -2.15622 0.777153 0
M  V30 2378 C 222.2 -1.59504 -0.203779 0
M  V30 2379 O 223.39 -1.74188 0.020782 0
M  V30 2380 C 220.522 -3.40556 0.153116 0
M  V30 2381 H 221.715 -2.47021 1.70061 0
M  V30 2382 H 219.268 -1.26577 0.916952 0
M  V30 2383 H 220.003 -3.14767 -0.780536 0
M  V30 2384 H 219.788 -3.8257 0.859238 0
M  V30 2385 H 221.278 -4.17546 -0.0671044 0
M  V30 2386 N 221.715 -0.905404 -1.28997 0
M  V30 2387 C 222.663 -0.377431 -2.29517 0
M  V30 2388 C 223.657 0.526461 -1.61012 0
M  V30 2389 O 224.863 0.40863 -1.753 0
M  V30 2390 H 221.238 -0.103437 -0.744852 0
M  V30 2391 H 223.209 -1.23848 -2.71485 0
M  V30 2392 C 221.958 0.374833 -3.45674 0
M  V30 2393 H 221.281 -0.311474 -3.98585 0
M  V30 2394 H 222.721 0.70903 -4.1803 0
M  V30 2395 C 221.18 1.57963 -2.97572 0
M  V30 2396 O 221.71 2.67886 -2.99333 0
M  V30 2397 N 219.916 1.42375 -2.53333 0
M  V30 2398 H 219.463 0.529466 -2.521 0
M  V30 2399 H 219.421 2.23117 -2.21509 0
M  V30 2400 N 223.193 1.4272 -0.668489 0
M  V30 2401 C 224.609 1.55992 -0.33745 0
M  V30 2402 C 224.809 1.64933 1.15756 0
M  V30 2403 O 223.865 1.61278 1.94282 0
M  V30 2404 C 225.178 2.81314 -1.06222 0
M  V30 2405 C 226.726 2.95078 -1.04394 0
M  V30 2406 C 227.201 4.23252 -1.74991 0
M  V30 2407 N 228.692 4.3015 -1.71829 0
M  V30 2408 C 229.427 5.28127 -2.23315 0
M  V30 2409 N 228.923 6.32293 -2.83156 0
M  V30 2410 N 230.716 5.19882 -2.13726 0
M  V30 2411 H 222.867 1.3516 -1.63846 0
M  V30 2412 H 225.13 0.650174 -0.689912 0
M  V30 2413 H 224.836 2.80823 -2.11734 0
M  V30 2414 H 224.71 3.72012 -0.62344 0
M  V30 2415 H 227.097 2.951 0.0028244 0
M  V30 2416 H 227.178 2.05627 -1.52155 0
M  V30 2417 H 226.822 4.2399 -2.79633 0
M  V30 2418 H 226.752 5.11626 -1.24685 0
M  V30 2419 H 229.243 3.55499 -1.28175 0
M  V30 2420 H 229.556 7.03398 -3.20079 0
M  V30 2421 H 227.901 6.32873 -2.87223 0
M  V30 2422 H 231.092 4.37423 -1.66669 0
M  V30 2423 H 231.265 5.96077 -2.54158 0
M  V30 2424 N 224.671 0.411399 1.52136 0
M  V30 2425 C 225.948 -0.222308 1.94333 0
M  V30 2426 C 226.328 -1.6242 1.34844 0
M  V30 2427 O 225.676 -2.22384 0.525145 0
M  V30 2428 C 225.886 -0.226345 3.48265 0
M  V30 2429 C 227.234 -0.444592 4.22266 0
M  V30 2430 O 228.258 -0.305602 3.54887 0
M  V30 2431 O 227.117 -0.718749 5.41753 0
M  V30 2432 H 224.211 -0.143907 0.814383 0
M  V30 2433 H 226.757 0.467506 1.63133 0
M  V30 2434 H 225.529 0.75475 3.83952 0
M  V30 2435 H 225.152 -0.960163 3.85832 0
M  V30 2436 N 226.149 -1.5696 0.141893 0
M  V30 2437 C 227.082 -2.12271 -0.837627 0
M  V30 2438 C 228.06 -1.04495 -1.24578 0
M  V30 2439 O 229.244 -1.32293 -1.34278 0
M  V30 2440 C 226.371 -2.63822 -2.12404 0
M  V30 2441 C 225.417 -3.83698 -1.86221 0
M  V30 2442 S 226.25 -5.24948 -1.05781 0
M  V30 2443 C 227.406 -5.79884 -2.35552 0
M  V30 2444 H 227.639 -2.95023 -0.367249 0
M  V30 2445 H 225.172 -1.54231 -0.0723014 0
M  V30 2446 H 227.13 -2.94175 -2.86307 0
M  V30 2447 H 225.791 -1.8121 -2.56557 0
M  V30 2448 H 224.984 -4.17995 -2.81596 0
M  V30 2449 H 224.586 -3.5408 -1.20429 0
M  V30 2450 H 226.878 -5.91005 -3.31239 0
M  V30 2451 H 227.821 -6.77544 -2.05767 0
M  V30 2452 H 228.229 -5.08095 -2.45967 0
M  V30 2453 N 227.627 0.131896 -1.57047 0
M  V30 2454 C 228.59 1.14638 -1.98471 0
M  V30 2455 C 229.59 1.35029 -0.873148 0
M  V30 2456 O 230.78 1.31764 -1.13946 0
M  V30 2457 C 227.912 2.50358 -2.31373 0
M  V30 2458 H 229.105 0.79064 -2.8929 0
M  V30 2459 H 226.658 0.375761 -1.51716 0
M  V30 2460 H 227.393 2.90876 -1.43393 0
M  V30 2461 H 227.178 2.36915 -3.12432 0
M  V30 2462 H 228.668 3.23395 -2.64207 0
M  V30 2463 N 229.106 1.52395 0.401703 0
M  V30 2464 C 230.331 1.70972 1.17403 0
M  V30 2465 C 230.756 0.421615 1.83314 0
M  V30 2466 O 230.114 -0.621564 1.70312 0
M  V30 2467 C 230.162 2.85151 2.20728 0
M  V30 2468 O 229.266 2.51238 3.27037 0
M  V30 2469 H 228.607 0.568927 0.342372 0
M  V30 2470 H 231.137 1.99131 0.469891 0
M  V30 2471 H 231.147 3.10279 2.64936 0
M  V30 2472 H 229.822 3.78603 1.7214 0
M  V30 2473 H 228.399 2.36808 2.88057 0
M  V30 2474 N 230.584 -0.659388 1.43143 0
M  V30 2475 C 231.833 -1.41518 1.43721 0
M  V30 2476 C 232.146 -1.95499 0.0628176 0
M  V30 2477 O 233.352 -2.71446 -0.0539683 0
M  V30 2478 C 231.808 -2.5608 2.52885 0
M  V30 2479 C 231.416 -2.08733 3.96402 0
M  V30 2480 C 233.16 -3.3349 2.62649 0
M  V30 2481 C 231.067 -3.20469 4.97045 0
M  V30 2482 H 229.997 -0.531705 0.534608 0
M  V30 2483 H 232.648 -0.712343 1.69109 0
M  V30 2484 H 231.03 -3.28805 2.20688 0
M  V30 2485 H 232.204 -1.43059 4.3803 0
M  V30 2486 H 230.519 -1.44219 3.90627 0
M  V30 2487 H 233.116 -4.16734 3.35017 0
M  V30 2488 H 233.459 -3.8111 1.67513 0
M  V30 2489 H 233.992 -2.67842 2.94118 0
M  V30 2490 H 230.731 -2.77824 5.93712 0
M  V30 2491 H 230.251 -3.84874 4.60034 0
M  V30 2492 H 231.93 -3.85698 5.19467 0
M  V30 2493 N 232.062 -1.29571 -0.897171 0
M  V30 2494 C 233.308 -1.17863 -1.65034 0
M  V30 2495 C 233.641 0.268729 -1.92332 0
M  V30 2496 O 232.916 1.19378 -1.53555 0
M  V30 2497 C 233.199 -1.995 -2.99786 0
M  V30 2498 C 233.052 -3.5239 -2.79538 0
M  V30 2499 C 234.371 -1.82335 -4.00552 0
M  V30 2500 H 231.49 -0.429528 -0.598895 0
M  V30 2501 H 234.132 -1.59072 -1.03905 0
M  V30 2502 H 232.282 -1.64485 -3.51962 0
M  V30 2503 H 233.954 -3.97401 -2.34244 0
M  V30 2504 H 232.197 -3.77187 -2.14273 0
M  V30 2505 H 232.868 -4.04787 -3.75302 0
M  V30 2506 H 235.344 -2.12924 -3.57495 0
M  V30 2507 H 234.22 -2.41801 -4.92771 0
M  V30 2508 H 234.481 -0.779209 -4.35179 0
M  V30 2509 N 233.54 1.10788 -1.12088 0
M  V30 2510 C 234.765 1.87002 -0.896949 0
M  V30 2511 C 235.19 1.79933 0.548261 0
M  V30 2512 O 234.548 1.16662 1.38779 0
M  V30 2513 C 234.596 3.3349 -1.37174 0
M  V30 2514 O 233.7 4.08745 -0.547831 0
M  V30 2515 H 233.041 0.580397 -0.322545 0
M  V30 2516 H 235.571 1.39996 -1.49206 0
M  V30 2517 H 235.581 3.84339 -1.36922 0
M  V30 2518 H 234.256 3.37951 -2.42408 0
M  V30 2519 H 232.833 3.6776 -0.617034 0
M  V30 2520 N 235.018 0.912232 1.28515 0
M  V30 2521 C 235.928 0.404506 2.31086 0
M  V30 2522 C 236.944 -0.50707 1.66448 0
M  V30 2523 O 238.12 -0.393624 1.97516 0
M  V30 2524 C 235.185 -0.348572 3.44943 0
M  V30 2525 C 234.246 0.59604 4.25142 0
M  V30 2526 C 233.479 -0.121194 5.33562 0
M  V30 2527 O 233.702 -1.34317 5.5436 0
M  V30 2528 O 232.636 0.542716 5.99448 0
M  V30 2529 H 236.462 1.25579 2.76521 0
M  V30 2530 H 234.047 0.676998 1.33181 0
M  V30 2531 H 235.929 -0.77395 4.14232 0
M  V30 2532 H 234.604 -1.17571 3.01594 0
M  V30 2533 H 233.511 1.07079 3.58448 0
M  V30 2534 H 234.844 1.38995 4.72167 0
M  V30 2535 N 236.496 -1.42363 0.676048 0
M  V30 2536 C 237.745 -2.00745 0.196037 0
M  V30 2537 C 238.058 -1.54083 -1.20489 0
M  V30 2538 O 239.264 -2.04891 -1.78134 0
M  V30 2539 C 237.72 -3.58651 0.299616 0
M  V30 2540 C 237.328 -4.143 1.70468 0
M  V30 2541 C 239.072 -4.24326 -0.121619 0
M  V30 2542 C 236.979 -5.64574 1.76096 0
M  V30 2543 H 235.909 -0.750787 0.0695301 0
M  V30 2544 H 238.56 -1.63072 0.841412 0
M  V30 2545 H 236.942 -3.93833 -0.413673 0
M  V30 2546 H 238.116 -3.90575 2.44515 0
M  V30 2547 H 236.431 -3.61081 2.07387 0
M  V30 2548 H 239.028 -5.34607 -0.0997362 0
M  V30 2549 H 239.371 -3.99897 -1.15708 0
M  V30 2550 H 239.904 -3.94108 0.540706 0
M  V30 2551 H 236.643 -5.93804 2.77628 0
M  V30 2552 H 236.163 -5.90286 1.06406 0
M  V30 2553 H 237.842 -6.29013 1.51496 0
M  V30 2554 N 237.974 -0.419461 -1.51915 0
M  V30 2555 C 238.907 0.445751 -2.23804 0
M  V30 2556 C 239.885 1.03951 -1.25031 0
M  V30 2557 O 241.069 1.08541 -1.54114 0
M  V30 2558 C 238.196 1.61964 -2.97465 0
M  V30 2559 C 237.242 1.14828 -4.10751 0
M  V30 2560 S 238.075 0.104938 -5.35397 0
M  V30 2561 C 239.231 1.28391 -6.1259 0
M  V30 2562 H 239.464 -0.164627 -2.96844 0
M  V30 2563 H 236.997 -0.203833 -1.53049 0
M  V30 2564 H 238.955 2.29271 -3.40507 0
M  V30 2565 H 237.616 2.20139 -2.24048 0
M  V30 2566 H 236.809 2.02561 -4.61503 0
M  V30 2567 H 236.411 0.553712 -3.69878 0
M  V30 2568 H 238.703 2.20563 -6.40592 0
M  V30 2569 H 239.646 0.816724 -7.03374 0
M  V30 2570 H 240.054 1.51439 -5.43807 0
M  V30 2571 N 239.452 1.56882 -0.150215 0
M  V30 2572 C 240.385 2.12712 0.826358 0
M  V30 2573 C 241.363 1.05154 1.24022 0
M  V30 2574 O 242.547 1.33004 1.33575 0
M  V30 2575 C 239.674 2.64945 2.11002 0
M  V30 2576 C 238.72 3.8468 1.84183 0
M  V30 2577 S 239.553 5.25502 1.02995 0
M  V30 2578 C 240.709 5.81125 2.32474 0
M  V30 2579 H 240.942 2.95214 0.351598 0
M  V30 2580 H 238.475 1.54267 0.0641211 0
M  V30 2581 H 240.433 2.95689 2.84742 0
M  V30 2582 H 239.094 1.82568 2.55593 0
M  V30 2583 H 238.287 4.19482 2.79375 0
M  V30 2584 H 237.889 3.54714 1.1855 0
M  V30 2585 H 240.181 5.92753 3.281 0
M  V30 2586 H 241.124 6.78625 2.02171 0
M  V30 2587 H 241.532 5.09392 2.43269 0
M  V30 2588 N 240.93 -0.123565 1.57115 0
M  V30 2589 C 242.16 -0.845233 1.88519 0
M  V30 2590 C 242.568 -1.74168 0.739064 0
M  V30 2591 O 241.911 -1.81244 -0.299355 0
M  V30 2592 C 241.973 -1.73452 3.14888 0
M  V30 2593 C 241.637 -1.01285 4.45635 0
M  V30 2594 C 242.634 -0.355774 5.18681 0
M  V30 2595 C 240.319 -0.99538 4.92339 0
M  V30 2596 C 242.313 0.309114 6.3665 0
M  V30 2597 C 240 -0.32669 6.10226 0
M  V30 2598 C 240.998 0.324406 6.82229 0
M  V30 2599 O 240.686 0.982437 7.97874 0
M  V30 2600 H 240.418 -0.248534 0.628655 0
M  V30 2601 H 242.972 -0.113907 2.05084 0
M  V30 2602 H 241.202 -2.50737 2.94394 0
M  V30 2603 H 242.891 -2.33021 3.32349 0
M  V30 2604 H 243.657 -0.360918 4.83655 0
M  V30 2605 H 239.536 -1.49159 4.36202 0
M  V30 2606 H 243.08 0.8179 6.92789 0
M  V30 2607 H 238.977 -0.319294 6.4471 0
M  V30 2608 H 239.745 0.886454 8.13686 0
M  V30 2609 N 242.408 -1.52605 -0.393616 0
M  V30 2610 C 243.654 -1.67672 -1.14079 0
M  V30 2611 C 243.987 -0.413121 -1.89755 0
M  V30 2612 O 243.262 0.588952 -1.85369 0
M  V30 2613 C 243.545 -2.9088 -2.12276 0
M  V30 2614 C 243.398 -4.27329 -1.40394 0
M  V30 2615 C 244.717 -3.09628 -3.12759 0
M  V30 2616 H 241.836 -0.610168 -0.413356 0
M  V30 2617 H 244.478 -1.85193 -0.424696 0
M  V30 2618 H 242.628 -2.76073 -2.73342 0
M  V30 2619 H 244.3 -4.53894 -0.82327 0
M  V30 2620 H 242.543 -4.2802 -0.705801 0
M  V30 2621 H 243.214 -5.09615 -2.12123 0
M  V30 2622 H 245.69 -3.23436 -2.61779 0
M  V30 2623 H 244.566 -3.97322 -3.78717 0
M  V30 2624 H 244.827 -2.23637 -3.81365 0
M  V30 2625 N 243.887 0.651787 -1.4349 0
M  V30 2626 C 244.817 1.77621 -1.51569 0
M  V30 2627 C 245.798 1.66022 -0.370253 0
M  V30 2628 O 246.983 1.85095 -0.587658 0
M  V30 2629 C 244.113 3.16056 -1.43966 0
M  V30 2630 C 243.067 3.4242 -2.56774 0
M  V30 2631 C 242.393 4.8067 -2.34223 0
M  V30 2632 C 243.693 3.37023 -3.99015 0
M  V30 2633 H 245.387 1.71117 -2.45681 0
M  V30 2634 H 242.933 0.821825 -1.18246 0
M  V30 2635 H 244.886 3.94472 -1.48221 0
M  V30 2636 H 243.61 3.23293 -0.463586 0
M  V30 2637 H 242.269 2.66375 -2.51873 0
M  V30 2638 H 241.917 4.84585 -1.34856 0
M  V30 2639 H 241.617 4.9927 -3.09844 0
M  V30 2640 H 243.141 5.61342 -2.40265 0
M  V30 2641 H 244.555 4.05374 -4.05395 0
M  V30 2642 H 242.952 3.67159 -4.74673 0
M  V30 2643 H 244.022 2.3518 -4.2405 0
M  V30 2644 N 245.365 1.30045 0.890287 0
M  V30 2645 C 246.614 1.17929 1.63633 0
M  V30 2646 C 246.927 -0.266204 1.9378 0
M  V30 2647 O 248.133 -0.508804 2.6669 0
M  V30 2648 C 246.589 2.06317 2.94892 0
M  V30 2649 C 246.197 3.55745 2.72305 0
M  V30 2650 C 247.941 2.0295 3.72843 0
M  V30 2651 C 245.848 4.36205 3.99348 0
M  V30 2652 H 244.778 0.437782 0.613892 0
M  V30 2653 H 247.429 1.54754 0.986075 0
M  V30 2654 H 245.811 1.6237 3.61182 0
M  V30 2655 H 246.985 4.07805 2.1455 0
M  V30 2656 H 245.3 3.6088 2.07737 0
M  V30 2657 H 247.897 2.60319 4.67053 0
M  V30 2658 H 248.24 1.0117 4.0382 0
M  V30 2659 H 248.773 2.4499 3.13408 0
M  V30 2660 H 245.512 5.38659 3.73533 0
M  V30 2661 H 245.032 3.8891 4.56628 0
M  V30 2662 H 246.711 4.47362 4.67415 0
M  V30 2663 N 246.843 -1.10192 1.12674 0
M  V30 2664 C 248.089 -1.82475 0.884915 0
M  V30 2665 C 248.422 -1.85093 -0.58773 0
M  V30 2666 O 247.697 -1.3134 -1.43457 0
M  V30 2667 C 247.98 -3.29018 1.46353 0
M  V30 2668 C 247.833 -3.34718 3.00473 0
M  V30 2669 C 249.152 -4.25473 1.12519 0
M  V30 2670 H 246.271 -0.662492 0.322915 0
M  V30 2671 H 248.913 -1.2913 1.39375 0
M  V30 2672 H 247.063 -3.74576 1.03077 0
M  V30 2673 H 248.735 -2.97622 3.52447 0
M  V30 2674 H 246.978 -2.74541 3.35872 0
M  V30 2675 H 247.649 -4.37918 3.36053 0
M  V30 2676 H 250.125 -3.88161 1.499 0
M  V30 2677 H 249.001 -5.26365 1.55663 0
M  V30 2678 H 249.262 -4.42084 0.0377407 0
M  V30 2679 N 248.321 -0.919034 -1.28029 0
M  V30 2680 C 249.567 -0.555757 -1.95036 0
M  V30 2681 C 249.9 0.899198 -1.72128 0
M  V30 2682 O 249.175 1.64023 -1.04531 0
M  V30 2683 C 249.458 -0.872024 -3.49382 0
M  V30 2684 C 249.311 -2.3801 -3.81669 0
M  V30 2685 C 250.63 -0.37185 -4.38526 0
M  V30 2686 H 247.749 -0.203386 -0.708381 0
M  V30 2687 H 250.391 -1.14924 -1.51303 0
M  V30 2688 H 248.541 -0.366946 -3.86763 0
M  V30 2689 H 250.213 -2.9562 -3.54128 0
M  V30 2690 H 248.456 -2.83289 -3.28526 0
M  V30 2691 H 249.127 -2.55192 -4.8947 0
M  V30 2692 H 251.603 -0.804602 -4.08247 0
M  V30 2693 H 250.479 -0.622173 -5.45362 0
M  V30 2694 H 250.74 0.727934 -4.36066 0
M  V30 2695 N 249.799 1.42003 -0.683588 0
M  V30 2696 C 250.729 2.33487 -0.024866 0
M  V30 2697 C 251.71 1.51163 0.779975 0
M  V30 2698 O 252.895 1.79739 0.735362 0
M  V30 2699 C 250.025 3.3487 0.920836 0
M  V30 2700 C 248.979 4.27414 0.223958 0
M  V30 2701 C 248.305 5.19074 1.2832 0
M  V30 2702 C 249.605 5.14445 -0.90242 0
M  V30 2703 H 251.299 2.88819 -0.788921 0
M  V30 2704 H 248.845 1.38873 -0.38083 0
M  V30 2705 H 250.798 3.97787 1.39081 0
M  V30 2706 H 249.522 2.77861 1.71642 0
M  V30 2707 H 248.181 3.65904 -0.225864 0
M  V30 2708 H 247.829 4.58387 2.071 0
M  V30 2709 H 247.529 5.81822 0.821995 0
M  V30 2710 H 249.053 5.84867 1.75392 0
M  V30 2711 H 250.467 5.70998 -0.513272 0
M  V30 2712 H 248.864 5.86072 -1.28997 0
M  V30 2713 H 249.934 4.52322 -1.74737 0
M  V30 2714 N 251.277 0.427512 1.51691 0
M  V30 2715 C 252.505 -0.141191 2.06418 0
M  V30 2716 C 252.92 -1.37303 1.29589 0
M  V30 2717 O 252.277 -1.79059 0.352732 0
M  V30 2718 C 252.328 -0.473266 3.58389 0
M  V30 2719 O 252.049 0.709673 4.32314 0
M  V30 2720 C 253.55 -1.09371 4.29596 0
M  V30 2721 H 250.77 -0.0122747 0.670888 0
M  V30 2722 H 253.314 0.603764 1.95384 0
M  V30 2723 H 251.469 -1.16812 3.69369 0
M  V30 2724 H 251.883 0.42807 5.2275 0
M  V30 2725 H 253.357 -1.27613 5.37046 0
M  V30 2726 H 253.834 -2.072 3.87253 0
M  V30 2727 H 254.44 -0.43853 4.23033 0
M  V30 2728 N 252.755 -1.56801 0.158532 0
M  V30 2729 C 254.004 -1.95665 -0.489702 0
M  V30 2730 C 254.317 -1.04654 -1.65248 0
M  V30 2731 O 255.523 -1.33146 -2.3661 0
M  V30 2732 C 253.979 -3.47874 -0.922582 0
M  V30 2733 C 253.587 -4.47489 0.213893 0
M  V30 2734 C 255.331 -3.95583 -1.53996 0
M  V30 2735 C 253.238 -5.90921 -0.237903 0
M  V30 2736 H 252.168 -0.730516 -0.186716 0
M  V30 2737 H 254.819 -1.81861 0.244722 0
M  V30 2738 H 253.201 -3.57051 -1.71261 0
M  V30 2739 H 254.375 -4.50017 0.991036 0
M  V30 2740 H 252.69 -4.09764 0.740407 0
M  V30 2741 H 255.287 -5.0019 -1.8898 0
M  V30 2742 H 255.63 -3.37789 -2.43319 0
M  V30 2743 H 256.163 -3.8937 -0.814611 0
M  V30 2744 H 252.902 -6.52559 0.620236 0
M  V30 2745 H 252.422 -5.91729 -0.980676 0
M  V30 2746 H 254.101 -6.43352 -0.686067 0
M  V30 2747 N 254.233 0.115231 -1.57178 0
M  V30 2748 C 255.479 0.818565 -1.86202 0
M  V30 2749 C 255.834 1.77316 -0.746785 0
M  V30 2750 O 255.127 1.89923 0.25291 0
M  V30 2751 C 255.321 1.60324 -3.19423 0
M  V30 2752 C 255.15 0.726138 -4.43799 0
M  V30 2753 C 253.92 0.379535 -5.03873 0
M  V30 2754 C 256.118 0.0420774 -5.14283 0
M  V30 2755 N 254.1 -0.507841 -6.11796 0
M  V30 2756 C 255.471 -0.704152 -6.15988 0
M  V30 2757 C 257.526 -0.0339486 -4.97888 0
M  V30 2758 C 256.229 -1.51927 -7.03072 0
M  V30 2759 C 258.255 -0.835906 -5.85463 0
M  V30 2760 C 257.617 -1.57031 -6.86673 0
M  V30 2761 H 253.716 0.276343 -0.731545 0
M  V30 2762 H 256.3 0.0821032 -1.94527 0
M  V30 2763 H 254.471 2.31072 -3.12186 0
M  V30 2764 H 256.203 2.2522 -3.36241 0
M  V30 2765 H 252.958 0.722634 -4.68054 0
M  V30 2766 H 253.382 -0.94349 -6.70393 0
M  V30 2767 H 258.024 0.519496 -4.19596 0
M  V30 2768 H 255.742 -2.08386 -7.80769 0
M  V30 2769 H 259.328 -0.89714 -5.74841 0
M  V30 2770 H 258.208 -2.18088 -7.53264 0
M  V30 2771 N 255.711 1.52812 0.385517 0
M  V30 2772 C 256.641 1.80808 1.47752 0
M  V30 2773 C 257.622 0.660318 1.5676 0
M  V30 2774 O 258.807 0.908246 1.71652 0
M  V30 2775 C 255.937 1.98008 2.85324 0
M  V30 2776 C 254.891 3.13709 2.91154 0
M  V30 2777 C 254.217 3.16169 4.31209 0
M  V30 2778 C 255.517 4.52709 2.60483 0
M  V30 2779 H 257.211 2.72253 1.24573 0
M  V30 2780 H 254.757 1.31003 0.597839 0
M  V30 2781 H 256.71 2.16176 3.61726 0
M  V30 2782 H 255.434 1.03255 3.09848 0
M  V30 2783 H 254.093 2.95329 2.17201 0
M  V30 2784 H 253.741 2.19092 4.52778 0
M  V30 2785 H 253.441 3.93894 4.36029 0
M  V30 2786 H 254.965 3.36496 5.09512 0
M  V30 2787 H 256.379 4.71173 3.26602 0
M  V30 2788 H 254.776 5.32528 2.76648 0
M  V30 2789 H 255.846 4.59186 1.55809 0
M  V30 2790 N 257.189 -0.644168 1.43834 0
M  V30 2791 C 258.435 -1.40603 1.46146 0
M  V30 2792 C 258.768 -1.93997 0.0887717 0
M  V30 2793 O 258.043 -1.72854 -0.891724 0
M  V30 2794 C 258.326 -2.58086 2.51124 0
M  V30 2795 C 258.179 -2.10126 3.97702 0
M  V30 2796 C 259.498 -3.60291 2.52742 0
M  V30 2797 H 256.617 -0.509905 0.532134 0
M  V30 2798 H 259.259 -0.729502 1.75437 0
M  V30 2799 H 257.409 -3.15801 2.26278 0
M  V30 2800 H 259.081 -1.57342 4.33637 0
M  V30 2801 H 257.324 -1.41419 4.10101 0
M  V30 2802 H 257.995 -2.94649 4.66783 0
M  V30 2803 H 260.471 -3.12352 2.7491 0
M  V30 2804 H 259.347 -4.40032 3.28121 0
M  V30 2805 H 259.608 -4.1349 1.56455 0
M  V30 2806 N 258.668 -1.30515 -0.883378 0
M  V30 2807 C 259.631 -1.1701 -1.97082 0
M  V30 2808 C 260.631 -0.10089 -1.60483 0
M  V30 2809 O 261.821 -0.349127 -1.70666 0
M  V30 2810 C 258.953 -0.793045 -3.31547 0
M  V30 2811 H 260.146 -2.13622 -2.10489 0
M  V30 2812 H 257.699 -1.13935 -1.06998 0
M  V30 2813 H 258.434 0.172499 -3.23841 0
M  V30 2814 H 258.219 -1.56576 -3.5948 0
M  V30 2815 H 259.709 -0.722073 -4.1131 0
M  V30 2816 N 260.146 1.09593 -1.13257 0
M  V30 2817 C 261.056 2.19739 -0.821691 0
M  V30 2818 C 262.072 1.72926 0.19302 0
M  V30 2819 O 263.248 2.01385 0.0244895 0
M  V30 2820 C 260.313 3.45482 -0.290333 0
M  V30 2821 C 259.374 4.06985 -1.36607 0
M  V30 2822 C 258.607 5.26726 -0.859975 0
M  V30 2823 O 258.83 5.69594 0.303082 0
M  V30 2824 O 257.764 5.7931 -1.63351 0
M  V30 2825 H 261.59 2.48781 -1.74189 0
M  V30 2826 H 259.175 1.18496 -0.909894 0
M  V30 2827 H 261.057 4.214 0.000674022 0
M  V30 2828 H 259.732 3.18047 0.602306 0
M  V30 2829 H 258.639 3.32712 -1.71037 0
M  V30 2830 H 259.972 4.38643 -2.23279 0
M  V30 2831 N 261.624 0.925811 1.2754 0
M  V30 2832 C 262.557 0.367836 2.25216 0
M  V30 2833 C 263.535 -0.534738 1.53556 0
M  V30 2834 O 264.719 -0.475672 1.824 0
M  V30 2835 C 261.846 -0.47298 3.35381 0
M  V30 2836 C 260.892 0.365898 4.24928 0
M  V30 2837 S 261.725 1.78025 5.05042 0
M  V30 2838 C 262.881 0.947068 6.18693 0
M  V30 2839 H 263.114 1.19568 2.72196 0
M  V30 2840 H 260.647 0.727867 1.36167 0
M  V30 2841 H 262.605 -0.952242 3.99303 0
M  V30 2842 H 261.266 -1.27533 2.87044 0
M  V30 2843 H 260.459 -0.277582 5.03235 0
M  V30 2844 H 260.061 0.779261 3.65792 0
M  V30 2845 H 262.353 0.182201 6.77255 0
M  V30 2846 H 263.296 1.70309 6.87314 0
M  V30 2847 H 263.704 0.489913 5.6237 0
M  V30 2848 N 263.102 -1.41638 0.69111 0
M  V30 2849 C 264.351 -2.00526 0.217318 0
M  V30 2850 C 264.664 -1.55353 -1.18848 0
M  V30 2851 O 265.87 -2.06769 -1.75951 0
M  V30 2852 C 264.326 -3.58313 0.337639 0
M  V30 2853 C 263.934 -4.12469 1.74852 0
M  V30 2854 C 265.678 -4.24431 -0.0766066 0
M  V30 2855 C 263.585 -5.62675 1.82074 0
M  V30 2856 H 262.515 -0.750008 0.0774893 0
M  V30 2857 H 265.166 -1.6217 0.858661 0
M  V30 2858 H 263.548 -3.9425 -0.371879 0
M  V30 2859 H 264.722 -3.8796 2.48644 0
M  V30 2860 H 263.037 -3.58861 2.11205 0
M  V30 2861 H 265.634 -5.34683 -0.0430284 0
M  V30 2862 H 265.977 -4.01101 -1.1146 0
M  V30 2863 H 266.51 -3.93512 0.582476 0
M  V30 2864 H 263.249 -5.90826 2.83911 0
M  V30 2865 H 262.769 -5.89124 1.12661 0
M  V30 2866 H 264.448 -6.27371 1.58159 0
M  V30 2867 N 264.58 -0.43555 -1.51462 0
M  V30 2868 C 265.81 0.130053 -2.0619 0
M  V30 2869 C 266.218 1.37164 -1.30317 0
M  V30 2870 O 265.561 1.80225 -0.355598 0
M  V30 2871 C 265.623 0.519418 -3.55728 0
M  V30 2872 C 265.287 -0.615119 -4.52841 0
M  V30 2873 C 266.284 -1.48671 -4.9819 0
M  V30 2874 C 263.969 -0.795341 -4.95963 0
M  V30 2875 C 265.963 -2.52324 -5.8533 0
M  V30 2876 C 263.65 -1.83514 -5.82894 0
M  V30 2877 C 264.648 -2.69748 -6.27475 0
M  V30 2878 O 264.336 -3.71944 -7.1268 0
M  V30 2879 H 264.068 0.0121612 -0.675891 0
M  V30 2880 H 266.622 -0.6129 -1.96043 0
M  V30 2881 H 264.852 1.31505 -3.63653 0
M  V30 2882 H 266.541 1.01597 -3.92979 0
M  V30 2883 H 267.307 -1.359 -4.65571 0
M  V30 2884 H 263.186 -0.133713 -4.60806 0
M  V30 2885 H 266.73 -3.19665 -6.20048 0
M  V30 2886 H 262.627 -1.96306 -6.14926 0
M  V30 2887 H 263.395 -3.68503 -7.30854 0
M  V30 2888 N 266.058 1.56714 -0.166846 0
M  V30 2889 C 267.298 1.98641 0.481763 0
M  V30 2890 C 267.662 1.05038 1.6072 0
M  V30 2891 O 268.863 1.36087 2.31805 0
M  V30 2892 C 267.134 3.44362 0.956517 0
M  V30 2893 S 268.693 4.08317 1.60694 0
M  V30 2894 H 265.511 0.693873 0.155116 0
M  V30 2895 H 268.113 1.93719 -0.263251 0
M  V30 2896 H 266.817 4.10204 0.126936 0
M  V30 2897 H 266.348 3.53041 1.73568 0
M  V30 2898 H 268.363 4.02999 2.89494 0
M  V30 2899 N 267.536 -0.106894 1.57237 0
M  V30 2900 C 268.766 -0.825191 1.89405 0
M  V30 2901 C 269.174 -1.73374 0.757496 0
M  V30 2902 O 268.517 -1.81552 -0.280115 0
M  V30 2903 C 268.579 -1.70102 3.1671 0
M  V30 2904 C 268.243 -0.965523 4.46684 0
M  V30 2905 C 269.24 -0.300741 5.19029 0
M  V30 2906 C 266.925 -0.943105 4.93367 0
M  V30 2907 C 268.919 0.376622 6.36286 0
M  V30 2908 C 266.606 -0.261949 6.10538 0
M  V30 2909 C 267.604 0.396748 6.81847 0
M  V30 2910 O 267.292 1.06701 7.96787 0
M  V30 2911 H 267.024 -0.241852 0.631255 0
M  V30 2912 H 269.578 -0.0921491 2.05193 0
M  V30 2913 H 267.808 -2.47601 2.97036 0
M  V30 2914 H 269.497 -2.29483 3.34802 0
M  V30 2915 H 270.263 -0.309599 4.84011 0
M  V30 2916 H 266.142 -1.44524 4.3776 0
M  V30 2917 H 269.686 0.891334 6.91882 0
M  V30 2918 H 265.583 -0.250896 6.45012 0
M  V30 2919 H 266.351 0.972707 8.127 0
M  V30 2920 N 269.014 -1.53014 -0.377408 0
M  V30 2921 C 269.961 -1.78616 -1.46168 0
M  V30 2922 C 270.931 -0.629917 -1.53692 0
M  V30 2923 O 272.116 -0.870861 -1.69766 0
M  V30 2924 C 269.256 -1.97123 -2.8326 0
M  V30 2925 C 268.369 -3.24831 -2.84796 0
M  V30 2926 C 267.504 -3.33591 -4.13389 0
M  V30 2927 C 266.543 -4.55377 -4.09021 0
M  V30 2928 N 265.68 -4.61355 -5.29241 0
M  V30 2929 H 270.52 -2.71142 -1.23637 0
M  V30 2930 H 268.057 -1.34326 -0.599577 0
M  V30 2931 H 270.015 -2.05839 -3.62886 0
M  V30 2932 H 268.645 -1.07946 -3.04216 0
M  V30 2933 H 267.697 -3.25128 -1.97474 0
M  V30 2934 H 269.009 -4.14523 -2.77439 0
M  V30 2935 H 268.163 -3.41554 -5.01424 0
M  V30 2936 H 266.902 -2.41894 -4.23484 0
M  V30 2937 H 265.907 -4.47527 -3.19373 0
M  V30 2938 H 267.132 -5.48402 -4.00539 0
M  V30 2939 H 265.078 -3.72554 -5.39944 0
M  V30 2940 H 264.995 -5.44935 -5.24006 0
M  V30 2941 H 266.263 -4.73586 -6.19141 0
M  V30 2942 N 270.492 0.636531 -1.44174 0
M  V30 2943 C 271.439 1.74875 -1.50624 0
M  V30 2944 C 272.409 1.62275 -0.35442 0
M  V30 2945 O 273.594 1.82276 -0.563908 0
M  V30 2946 C 270.734 3.13102 -1.45125 0
M  V30 2947 C 269.847 3.36717 -2.7064 0
M  V30 2948 C 268.982 4.64885 -2.57013 0
M  V30 2949 C 268.021 4.8166 -3.77717 0
M  V30 2950 N 267.158 6.01101 -3.62798 0
M  V30 2951 H 271.998 1.68697 -2.45653 0
M  V30 2952 H 269.535 0.823004 -1.21922 0
M  V30 2953 H 271.493 3.93034 -1.39929 0
M  V30 2954 H 270.123 3.18308 -0.536671 0
M  V30 2955 H 269.175 2.50763 -2.86046 0
M  V30 2956 H 270.487 3.44993 -3.60252 0
M  V30 2957 H 269.641 5.52969 -2.49619 0
M  V30 2958 H 268.38 4.58957 -1.64953 0
M  V30 2959 H 267.385 3.92007 -3.85501 0
M  V30 2960 H 268.61 4.89406 -4.70807 0
M  V30 2961 H 266.556 5.96273 -2.73486 0
M  V30 2962 H 266.473 6.10409 -4.46023 0
M  V30 2963 H 267.741 6.91761 -3.59286 0
M  V30 2964 N 271.97 1.30982 0.876444 0
M  V30 2965 C 273.219 1.19658 1.62373 0
M  V30 2966 C 273.532 -0.245636 1.94052 0
M  V30 2967 O 274.738 -0.48049 2.67214 0
M  V30 2968 C 273.194 2.09433 2.92687 0
M  V30 2969 C 272.802 3.58613 2.68516 0
M  V30 2970 C 274.546 2.06893 3.70669 0
M  V30 2971 C 272.453 4.40416 3.94699 0
M  V30 2972 H 271.383 0.444268 0.609214 0
M  V30 2973 H 274.034 1.55791 0.969605 0
M  V30 2974 H 272.416 1.66191 3.59439 0
M  V30 2975 H 273.59 4.10058 2.10212 0
M  V30 2976 H 271.905 3.63063 2.03898 0
M  V30 2977 H 274.502 2.65258 4.64265 0
M  V30 2978 H 274.845 1.05448 4.02724 0
M  V30 2979 H 275.378 2.48301 3.10792 0
M  V30 2980 H 272.117 5.42591 3.67798 0
M  V30 2981 H 271.637 3.93731 4.52477 0
M  V30 2982 H 273.316 4.52294 4.62644 0
M  V30 2983 N 273.449 -1.08991 1.13837 0
M  V30 2984 C 274.412 -2.13925 0.822715 0
M  V30 2985 C 275.412 -1.599 -0.1699 0
M  V30 2986 O 276.602 -1.74104 0.0577251 0
M  V30 2987 C 273.734 -3.40155 0.225318 0
M  V30 2988 H 274.927 -2.43358 1.75262 0
M  V30 2989 H 272.48 -1.24603 0.943594 0
M  V30 2990 H 273.215 -3.16352 -0.713594 0
M  V30 2991 H 273 -3.80661 0.940193 0
M  V30 2992 H 274.49 -4.17594 0.0214784 0
M  V30 2993 N 274.927 -0.932562 -1.27047 0
M  V30 2994 C 275.89 -0.440064 -2.24936 0
M  V30 2995 C 276.89 0.444071 -1.54547 0
M  V30 2996 O 278.08 0.244465 -1.72476 0
M  V30 2997 C 275.212 0.36678 -3.38921 0
M  V30 2998 H 276.405 -1.305 -2.70018 0
M  V30 2999 H 273.958 -0.713707 -1.39054 0
M  V30 3000 H 274.693 1.25033 -2.99228 0
M  V30 3001 H 274.478 -0.267204 -3.91188 0
M  V30 3002 H 275.968 0.701567 -4.11665 0
M  V30 3003 N 276.405 1.4127 -0.698611 0
M  V30 3004 C 277.368 2.29158 -0.044132 0
M  V30 3005 C 278.368 1.44529 0.704841 0
M  V30 3006 O 279.558 1.65643 0.539276 0
M  V30 3007 C 276.69 3.27459 0.947809 0
M  V30 3008 H 277.883 2.88529 -0.817994 0
M  V30 3009 H 275.436 1.49307 -0.46228 0
M  V30 3010 H 276.171 2.73073 1.74933 0
M  V30 3011 H 275.956 3.8991 0.41385 0
M  V30 3012 H 277.446 3.93311 1.40344 0
M  V30 3013 N 277.883 0.443576 1.51229 0
M  V30 3014 C 279.111 -0.11929 2.06556 0
M  V30 3015 C 279.526 -1.35921 1.31038 0
M  V30 3016 O 278.883 -1.78675 0.371704 0
M  V30 3017 C 278.934 -0.435228 3.5887 0
M  V30 3018 O 278.655 0.755486 4.31537 0
M  V30 3019 C 280.156 -1.04808 4.30732 0
M  V30 3020 H 277.376 -0.0051584 0.67098 0
M  V30 3021 H 279.92 0.624453 1.94733 0
M  V30 3022 H 278.075 -1.12887 3.70588 0
M  V30 3023 H 278.489 0.483491 5.22267 0
M  V30 3024 H 279.963 -1.2191 5.3837 0
M  V30 3025 H 280.44 -2.03081 3.89429 0
M  V30 3026 H 281.046 -0.393637 4.23474 0
M  V30 3027 N 279.361 -1.56624 0.175154 0
M  V30 3028 C 280.271 -2.21741 -0.766042 0
M  V30 3029 C 281.287 -1.21023 -1.25018 0
M  V30 3030 O 282.463 -1.53697 -1.3015 0
M  V30 3031 C 279.528 -2.84839 -1.97655 0
M  V30 3032 C 278.589 -4.00769 -1.53892 0
M  V30 3033 C 277.822 -4.60849 -2.69173 0
M  V30 3034 O 278.045 -4.19823 -3.86141 0
M  V30 3035 O 276.979 -5.50655 -2.43028 0
M  V30 3036 H 280.805 -3.02738 -0.241585 0
M  V30 3037 H 278.39 -1.49305 -0.053222 0
M  V30 3038 H 280.272 -3.24834 -2.68442 0
M  V30 3039 H 278.947 -2.06836 -2.48999 0
M  V30 3040 H 277.854 -3.65436 -0.80044 0
M  V30 3041 H 279.187 -4.80376 -1.07236 0
M  V30 3042 N 280.839 0.0985539 -1.57292 0
M  V30 3043 C 282.067 0.816318 -1.90115 0
M  V30 3044 C 282.482 1.72451 -0.768509 0
M  V30 3045 O 281.839 1.80643 0.259687 0
M  V30 3046 C 281.89 1.63259 -3.22535 0
M  V30 3047 O 281.611 0.760934 -4.31441 0
M  V30 3048 C 283.112 2.45372 -3.69199 0
M  V30 3049 H 280.332 0.233595 -0.629027 0
M  V30 3050 H 282.876 0.0768229 -2.04356 0
M  V30 3051 H 281.031 2.32463 -3.09903 0
M  V30 3052 H 281.445 1.32595 -5.07463 0
M  V30 3053 H 282.919 2.98144 -4.64558 0
M  V30 3054 H 283.396 3.23677 -2.96867 0
M  V30 3055 H 284.002 1.81373 -3.84687 0
M  V30 3056 N 282.317 1.53212 0.369288 0
M  V30 3057 C 283.28 1.7872 1.43498 0
M  V30 3058 C 284.28 0.657554 1.46741 0
M  V30 3059 O 285.47 0.925736 1.47566 0
M  V30 3060 C 282.602 1.90591 2.82645 0
M  V30 3061 H 283.795 2.73894 1.22156 0
M  V30 3062 H 281.348 1.44233 0.602203 0
M  V30 3063 H 282.083 0.974709 3.09306 0
M  V30 3064 H 281.868 2.72751 2.8169 0
M  V30 3065 H 283.358 2.11931 3.59826 0
M  V30 3066 N 283.795 -0.628877 1.44509 0
M  V30 3067 C 284.758 -1.72263 1.51188 0
M  V30 3068 C 285.758 -1.55907 0.39367 0
M  V30 3069 O 286.948 -1.61361 0.656377 0
M  V30 3070 C 284.08 -3.11365 1.38798 0
M  V30 3071 H 285.273 -1.67714 2.4862 0
M  V30 3072 H 282.826 -0.842737 1.31634 0
M  V30 3073 H 283.561 -3.21507 0.424693 0
M  V30 3074 H 283.346 -3.24644 2.19884 0
M  V30 3075 H 284.836 -3.91075 1.46458 0
M  V30 3076 N 285.273 -1.31445 -0.869486 0
M  V30 3077 C 286.205 -1.14955 -1.98287 0
M  V30 3078 C 287.218 -0.0885037 -1.62559 0
M  V30 3079 O 288.407 -0.336044 -1.75308 0
M  V30 3080 C 285.507 -0.734255 -3.3085 0
M  V30 3081 C 284.68 -1.88042 -3.94917 0
M  V30 3082 C 283.739 -1.4511 -5.05796 0
M  V30 3083 O 282.765 -2.16082 -5.2659 0
M  V30 3084 N 283.967 -0.338763 -5.79511 0
M  V30 3085 H 286.732 -2.10856 -2.12979 0
M  V30 3086 H 284.293 -1.23786 -1.04349 0
M  V30 3087 H 286.285 -0.42975 -4.02412 0
M  V30 3088 H 284.855 0.133158 -3.12316 0
M  V30 3089 H 284.075 -2.35222 -3.1633 0
M  V30 3090 H 285.363 -2.6481 -4.34457 0
M  V30 3091 H 284.761 0.252274 -5.65137 0
M  V30 3092 H 283.318 -0.0937925 -6.51733 0
M  V30 3093 N 286.751 1.08385 -1.14413 0
M  V30 3094 C 287.661 2.18856 -0.844951 0
M  V30 3095 C 288.677 1.73121 0.174668 0
M  V30 3096 O 289.853 2.014 0.00312857 0
M  V30 3097 C 286.918 3.45155 -0.32696 0
M  V30 3098 C 285.979 4.05513 -1.40916 0
M  V30 3099 C 285.212 5.25784 -0.915793 0
M  V30 3100 O 285.435 5.69884 0.242651 0
M  V30 3101 O 284.369 5.77545 -1.69487 0
M  V30 3102 H 288.195 2.46919 -1.76818 0
M  V30 3103 H 285.78 1.17524 -0.922411 0
M  V30 3104 H 287.662 4.21377 -0.0440211 0
M  V30 3105 H 286.337 3.18668 0.568539 0
M  V30 3106 H 285.244 3.30879 -1.74556 0
M  V30 3107 H 286.577 4.3625 -2.27919 0
M  V30 3108 N 288.23 0.939286 1.26551 0
M  V30 3109 C 289.178 0.43815 2.28436 0
M  V30 3110 C 290.172 -0.483587 1.62351 0
M  V30 3111 O 291.378 -0.362009 1.76322 0
M  V30 3112 H 287.753 0.123149 0.741848 0
M  V30 3113 H 289.724 1.31002 2.68106 0
M  V30 3114 C 288.473 -0.283052 3.46546 0
M  V30 3115 H 287.796 0.417043 3.97619 0
M  V30 3116 H 289.236 -0.597948 4.19763 0
M  V30 3117 C 287.695 -1.50018 3.01656 0
M  V30 3118 O 288.225 -2.59855 3.0633 0
M  V30 3119 N 286.431 -1.35608 2.57019 0
M  V30 3120 H 285.978 -0.46244 2.53415 0
M  V30 3121 H 285.936 -2.17165 2.27347 0
M  V30 3122 N 289.708 -1.40897 0.706093 0
M  V30 3123 C 290.671 -2.29131 0.0562841 0
M  V30 3124 C 291.671 -1.44901 -0.697166 0
M  V30 3125 O 292.861 -1.65926 -0.530484 0
M  V30 3126 C 289.993 -3.27957 -0.93043 0
M  V30 3127 H 291.186 -2.88091 0.833284 0
M  V30 3128 H 288.739 -1.4906 0.470192 0
M  V30 3129 H 289.474 -2.73997 -1.73482 0
M  V30 3130 H 289.259 -3.90124 -0.393166 0
M  V30 3131 H 290.749 -3.94049 -1.38256 0
M  V30 3132 N 291.186 -0.45159 -1.50991 0
M  V30 3133 C 292.411 0.110667 -2.07105 0
M  V30 3134 C 292.836 1.3446 -1.31538 0
M  V30 3135 O 292.194 1.77743 -0.357365 0
M  V30 3136 C 292.242 0.397238 -3.58405 0
M  V30 3137 O 291.346 1.48124 -3.84881 0
M  V30 3138 H 290.687 -0.00439271 -0.663985 0
M  V30 3139 H 293.217 -0.637026 -1.9443 0
M  V30 3140 H 293.227 0.64351 -4.02893 0
M  V30 3141 H 291.902 -0.504553 -4.12828 0
M  V30 3142 H 290.479 1.22381 -3.52246 0
M  V30 3143 N 292.664 1.56529 -0.183458 0
M  V30 3144 C 293.574 2.22144 0.754272 0
M  V30 3145 C 294.59 1.21684 1.24374 0
M  V30 3146 O 295.766 1.54385 1.29333 0
M  V30 3147 C 292.831 2.85884 1.96141 0
M  V30 3148 C 291.892 4.01579 1.51765 0
M  V30 3149 C 291.125 4.6227 2.66725 0
M  V30 3150 O 291.348 4.21865 3.83909 0
M  V30 3151 O 290.282 5.51936 2.40104 0
M  V30 3152 H 294.108 3.02861 0.225527 0
M  V30 3153 H 291.693 1.49331 0.0453032 0
M  V30 3154 H 293.575 3.26253 2.66715 0
M  V30 3155 H 292.25 2.08154 2.47899 0
M  V30 3156 H 291.157 3.65856 0.781049 0
M  V30 3157 H 292.49 4.80938 1.04686 0
M  V30 3158 N 294.142 -0.090211 1.57342 0
M  V30 3159 C 295.372 -0.805055 1.90269 0
M  V30 3160 C 295.78 -1.72561 0.775842 0
M  V30 3161 O 295.123 -1.81839 -0.260843 0
M  V30 3162 C 295.185 -1.66734 3.18497 0
M  V30 3163 C 294.849 -0.918092 4.47683 0
M  V30 3164 C 295.846 -0.245674 5.19319 0
M  V30 3165 C 293.531 -0.890724 4.94339 0
M  V30 3166 C 295.525 0.444088 6.35851 0
M  V30 3167 C 293.212 -0.197179 6.10782 0
M  V30 3168 C 294.21 0.469044 6.81388 0
M  V30 3169 O 293.898 1.15146 7.95611 0
M  V30 3170 H 293.63 -0.235143 0.633785 0
M  V30 3171 H 296.184 -0.0703805 2.05279 0
M  V30 3172 H 294.414 -2.44437 2.99646 0
M  V30 3173 H 296.103 -2.25919 3.37217 0
M  V30 3174 H 296.869 -0.258246 4.84312 0
M  V30 3175 H 292.748 -1.39873 4.39268 0
M  V30 3176 H 296.292 0.964667 6.90898 0
M  V30 3177 H 292.189 -0.18247 6.45242 0
M  V30 3178 H 292.957 1.05885 8.11622 0
M  V30 3179 N 295.62 -1.53406 -0.361157 0
M  V30 3180 C 296.55 -1.83136 -1.44857 0
M  V30 3181 C 297.531 -0.685174 -1.5569 0
M  V30 3182 O 298.716 -0.93544 -1.70186 0
M  V30 3183 C 295.846 -2.02522 -2.82138 0
M  V30 3184 C 294.8 -3.18302 -2.86126 0
M  V30 3185 C 294.126 -3.22989 -4.26125 0
M  V30 3186 C 295.426 -4.56796 -2.53248 0
M  V30 3187 H 297.12 -2.74201 -1.20226 0
M  V30 3188 H 294.666 -1.31938 -0.576922 0
M  V30 3189 H 296.619 -2.21904 -3.58241 0
M  V30 3190 H 295.343 -1.08172 -3.08166 0
M  V30 3191 H 294.002 -2.98747 -2.12475 0
M  V30 3192 H 293.65 -2.26267 -4.49235 0
M  V30 3193 H 293.35 -4.00781 -4.29708 0
M  V30 3194 H 294.874 -3.44559 -5.04094 0
M  V30 3195 H 296.288 -4.7631 -3.19064 0
M  V30 3196 H 294.685 -5.36862 -2.68141 0
M  V30 3197 H 295.755 -4.61606 -1.48484 0
M  V30 3198 N 297.098 0.621204 -1.44841 0
M  V30 3199 C 298.061 1.71459 -1.521 0
M  V30 3200 C 299.061 1.55696 -0.401933 0
M  V30 3201 O 300.251 1.61011 -0.664925 0
M  V30 3202 C 297.383 3.10624 -1.40447 0
M  V30 3203 H 298.576 1.66394 -2.49506 0
M  V30 3204 H 296.129 0.835745 -1.3208 0
M  V30 3205 H 296.864 3.21277 -0.441737 0
M  V30 3206 H 296.649 3.23473 -2.21602 0
M  V30 3207 H 298.139 3.90293 -1.4853 0
M  V30 3208 N 298.576 1.31904 0.862503 0
M  V30 3209 C 299.825 1.21373 1.61094 0
M  V30 3210 C 300.138 -0.22504 1.94301 0
M  V30 3211 O 301.344 -0.452121 2.67709 0
M  V30 3212 C 299.8 2.12525 2.9045 0
M  V30 3213 C 299.408 3.61441 2.64697 0
M  V30 3214 C 301.152 2.10813 3.68454 0
M  V30 3215 C 299.059 4.44578 3.90006 0
M  V30 3216 H 297.989 0.450705 0.604468 0
M  V30 3217 H 300.64 1.56811 0.953027 0
M  V30 3218 H 299.022 1.69994 3.57656 0
M  V30 3219 H 300.196 4.12264 2.05851 0
M  V30 3220 H 298.511 3.65205 2.00036 0
M  V30 3221 H 301.108 2.70167 4.61426 0
M  V30 3222 H 301.451 1.09713 4.01583 0
M  V30 3223 H 301.984 2.51583 3.08141 0
M  V30 3224 H 298.723 5.46461 3.62023 0
M  V30 3225 H 298.243 3.98508 4.48276 0
M  V30 3226 H 299.922 4.57176 4.5782 0
M  V30 3227 N 300.054 -1.07777 1.14986 0
M  V30 3228 C 301.282 -1.84018 0.945773 0
M  V30 3229 C 301.697 -1.81897 -0.505863 0
M  V30 3230 O 301.054 -1.22726 -1.35072 0
M  V30 3231 C 301.105 -3.31287 1.44677 0
M  V30 3232 O 300.826 -3.33449 2.84154 0
M  V30 3233 C 302.327 -4.24311 1.28355 0
M  V30 3234 H 299.547 -0.580716 0.336169 0
M  V30 3235 H 302.091 -1.36077 1.52654 0
M  V30 3236 H 300.246 -3.76594 0.908625 0
M  V30 3237 H 300.66 -4.25427 3.06777 0
M  V30 3238 H 302.134 -5.2573 1.68261 0
M  V30 3239 H 302.611 -4.38612 0.227184 0
M  V30 3240 H 303.217 -3.84836 1.81056 0
M  V30 3241 N 301.532 -0.945985 -1.26051 0
M  V30 3242 C 302.757 -0.612525 -1.98149 0
M  V30 3243 C 303.182 0.806623 -1.69927 0
M  V30 3244 O 302.54 1.54411 -0.950108 0
M  V30 3245 C 302.588 -0.866981 -3.50023 0
M  V30 3246 O 301.692 0.0585333 -4.12358 0
M  V30 3247 H 301.033 -0.23379 -0.621481 0
M  V30 3248 H 303.563 -1.27023 -1.60395 0
M  V30 3249 H 303.573 -0.789792 -4.00283 0
M  V30 3250 H 302.248 -1.90135 -3.69894 0
M  V30 3251 H 300.825 -0.0701241 -3.72834 0
M  V30 3252 N 303.011 1.40521 -0.713556 0
M  V30 3253 C 303.921 2.34522 -0.0606667 0
M  V30 3254 C 304.937 1.57193 0.74607 0
M  V30 3255 O 306.113 1.89591 0.679493 0
M  V30 3256 C 303.178 3.36081 0.851491 0
M  V30 3257 C 302.239 4.29286 0.0349339 0
M  V30 3258 C 301.472 5.25994 0.903649 0
M  V30 3259 O 301.695 5.28616 2.14292 0
M  V30 3260 O 300.629 6.00918 0.343723 0
M  V30 3261 H 304.455 2.91968 -0.835972 0
M  V30 3262 H 302.04 1.41681 -0.47402 0
M  V30 3263 H 303.922 3.98369 1.37404 0
M  V30 3264 H 302.597 2.81052 1.60598 0
M  V30 3265 H 301.504 3.70289 -0.532633 0
M  V30 3266 H 302.837 4.87462 -0.681287 0
M  V30 3267 N 304.489 0.459591 1.5075 0
M  V30 3268 C 305.714 -0.0996819 2.0716 0
M  V30 3269 C 306.139 -1.33761 1.32249 0
M  V30 3270 O 305.497 -1.77551 0.366786 0
M  V30 3271 C 305.545 -0.378226 3.58611 0
M  V30 3272 O 304.649 -1.46081 3.85661 0
M  V30 3273 H 303.99 0.00791392 0.663953 0
M  V30 3274 H 306.52 0.647329 1.9409 0
M  V30 3275 H 306.53 -0.622135 4.03229 0
M  V30 3276 H 305.205 0.526439 4.12555 0
M  V30 3277 H 303.782 -1.20511 3.5289 0
M  V30 3278 N 305.967 -1.56429 0.191757 0
M  V30 3279 C 306.914 -2.18936 -0.730454 0
M  V30 3280 C 307.884 -1.13557 -1.21219 0
M  V30 3281 O 309.069 -1.41794 -1.27668 0
M  V30 3282 C 306.209 -2.85013 -1.9458 0
M  V30 3283 C 305.322 -4.04909 -1.50574 0
M  V30 3284 C 304.457 -4.58853 -2.67634 0
M  V30 3285 C 303.496 -5.71114 -2.20217 0
M  V30 3286 N 302.633 -6.19478 -3.30442 0
M  V30 3287 H 307.473 -2.97389 -0.190664 0
M  V30 3288 H 305.01 -1.46869 -0.0823694 0
M  V30 3289 H 306.968 -3.21492 -2.65893 0
M  V30 3290 H 305.598 -2.09129 -2.45896 0
M  V30 3291 H 304.65 -3.74115 -0.688605 0
M  V30 3292 H 305.962 -4.86113 -1.11784 0
M  V30 3293 H 305.116 -4.97619 -3.47074 0
M  V30 3294 H 303.855 -3.76749 -3.09696 0
M  V30 3295 H 302.86 -5.31879 -1.3923 0
M  V30 3296 H 304.085 -6.55033 -1.79189 0
M  V30 3297 H 302.031 -5.40297 -3.72041 0
M  V30 3298 H 301.948 -6.95725 -2.9581 0
M  V30 3299 H 303.216 -6.62898 -4.10106 0
M  V30 3300 N 307.445 0.0818655 -1.57387 0
M  V30 3301 C 308.355 1.11642 -2.06333 0
M  V30 3302 C 309.371 1.43033 -0.99083 0
M  V30 3303 O 310.547 1.53411 -1.30488 0
M  V30 3304 C 307.612 2.41342 -2.48907 0
M  V30 3305 C 306.673 2.17014 -3.7041 0
M  V30 3306 C 305.906 3.4053 -4.10944 0
M  V30 3307 O 306.129 4.4927 -3.51444 0
M  V30 3308 O 305.063 3.29336 -5.03807 0
M  V30 3309 H 308.889 0.730657 -2.9478 0
M  V30 3310 H 306.474 0.295301 -1.46452 0
M  V30 3311 H 308.356 3.17691 -2.76858 0
M  V30 3312 H 307.031 2.79319 -1.63593 0
M  V30 3313 H 305.938 1.38403 -3.47556 0
M  V30 3314 H 307.271 1.83923 -4.56545 0
M  V30 3315 N 308.923 1.53595 0.353017 0
M  V30 3316 C 309.871 1.81605 1.45335 0
M  V30 3317 C 310.865 0.685923 1.54892 0
M  V30 3318 O 312.071 0.869095 1.57628 0
M  V30 3319 H 308.446 0.575204 0.484401 0
M  V30 3320 H 310.417 2.73679 1.18921 0
M  V30 3321 C 309.166 2.03406 2.81995 0
M  V30 3322 H 308.489 2.89814 2.75405 0
M  V30 3323 H 309.929 2.26975 3.58132 0
M  V30 3324 C 308.388 0.816794 3.26849 0
M  V30 3325 O 308.918 0.0115856 4.01698 0
M  V30 3326 N 307.124 0.636682 2.8354 0
M  V30 3327 H 306.671 1.2931 2.22793 0
M  V30 3328 H 306.629 -0.176336 3.13905 0
M  V30 3329 N 310.401 -0.613514 1.45168 0
M  V30 3330 C 311.641 -1.38405 1.5041 0
M  V30 3331 C 312.005 -1.91489 0.139922 0
M  V30 3332 O 313.206 -2.68716 0.067033 0
M  V30 3333 C 311.477 -2.50552 2.5487 0
M  V30 3334 S 313.036 -3.38439 2.79292 0
M  V30 3335 H 309.854 -0.471945 0.531779 0
M  V30 3336 H 312.456 -0.708518 1.82209 0
M  V30 3337 H 311.16 -2.09894 3.52665 0
M  V30 3338 H 310.691 -3.22913 2.24701 0
M  V30 3339 H 312.706 -4.48527 2.12222 0
M  V30 3340 N 311.879 -1.3236 -0.855495 0
M  V30 3341 C 313.107 -1.2587 -1.64208 0
M  V30 3342 C 313.522 0.173457 -1.88002 0
M  V30 3343 O 312.879 1.11027 -1.44842 0
M  V30 3344 C 312.93 -2.01424 -3.00184 0
M  V30 3345 O 312.651 -3.39051 -2.77445 0
M  V30 3346 C 314.152 -2.01948 -3.94629 0
M  V30 3347 H 311.372 -0.434318 -0.511477 0
M  V30 3348 H 313.916 -1.74469 -1.0668 0
M  V30 3349 H 312.071 -1.56549 -3.5436 0
M  V30 3350 H 312.485 -3.77711 -3.63916 0
M  V30 3351 H 313.959 -2.59297 -4.87308 0
M  V30 3352 H 314.436 -1.00554 -4.27534 0
M  V30 3353 H 315.042 -2.46767 -3.4639 0
M  V30 3354 N 313.357 1.07166 -1.15556 0
M  V30 3355 C 314.605 1.79443 -0.929764 0
M  V30 3356 C 314.926 1.87246 0.544414 0
M  V30 3357 O 314.196 1.37473 1.39564 0
M  V30 3358 H 312.776 0.664625 -0.341003 0
M  V30 3359 H 315.438 1.29499 -1.45657 0
M  V30 3360 H 314.534 2.81832 -1.34079 0
M  V30 3361 N 314.835 0.952656 1.25548 0
M  V30 3362 C 316.081 0.607272 1.93494 0
M  V30 3363 C 316.414 -0.853245 1.74452 0
M  V30 3364 O 315.689 -1.61194 1.08843 0
M  V30 3365 C 315.972 0.96435 3.46947 0
M  V30 3366 C 315.825 2.48045 3.75225 0
M  V30 3367 C 317.144 0.487987 4.37386 0
M  V30 3368 H 314.263 0.222096 0.702739 0
M  V30 3369 H 316.905 1.18895 1.48203 0
M  V30 3370 H 315.055 0.469361 3.85654 0
M  V30 3371 H 316.727 3.04905 3.46166 0
M  V30 3372 H 314.97 2.919 3.209 0
M  V30 3373 H 315.641 2.6808 4.82532 0
M  V30 3374 H 318.117 0.912558 4.0597 0
M  V30 3375 H 316.993 0.766547 5.43521 0
M  V30 3376 H 317.254 -0.612063 4.37843 0
M  V30 3377 N 316.313 -1.40141 0.720998 0
M  V30 3378 C 317.245 -2.29177 0.0324669 0
M  V30 3379 C 318.258 -1.46105 -0.718126 0
M  V30 3380 O 319.447 -1.69335 -0.564608 0
M  V30 3381 C 316.547 -3.24473 -0.978292 0
M  V30 3382 C 315.72 -4.36423 -0.292115 0
M  V30 3383 C 314.779 -5.12122 -1.20901 0
M  V30 3384 O 313.805 -5.64981 -0.691766 0
M  V30 3385 N 315.007 -5.21992 -2.53978 0
M  V30 3386 H 317.772 -2.88909 0.796984 0
M  V30 3387 H 315.333 -1.51569 0.569068 0
M  V30 3388 H 317.325 -3.71987 -1.59398 0
M  V30 3389 H 315.895 -2.65871 -1.64413 0
M  V30 3390 H 315.115 -3.90967 0.503847 0
M  V30 3391 H 316.403 -5.08467 0.183971 0
M  V30 3392 H 315.801 -4.8054 -2.98493 0
M  V30 3393 H 314.358 -5.72995 -3.10677 0
M  V30 3394 N 317.792 -0.46758 -1.50504 0
M  V30 3395 C 319.038 0.0887532 -2.02606 0
M  V30 3396 C 319.371 1.39686 -1.34913 0
M  V30 3397 O 318.646 1.88644 -0.473694 0
M  V30 3398 C 318.929 0.276206 -3.59039 0
M  V30 3399 C 318.782 -1.05267 -4.37309 0
M  V30 3400 C 320.101 1.03235 -4.27821 0
M  V30 3401 H 317.22 0.0307814 -0.736357 0
M  V30 3402 H 319.862 -0.612485 -1.79857 0
M  V30 3403 H 318.012 0.8735 -3.78553 0
M  V30 3404 H 319.684 -1.68628 -4.29374 0
M  V30 3405 H 317.927 -1.65015 -4.01189 0
M  V30 3406 H 318.598 -0.875197 -5.45018 0
M  V30 3407 H 321.074 0.526111 -4.12761 0
M  V30 3408 H 319.95 1.1323 -5.37094 0
M  V30 3409 H 320.211 2.06806 -3.90748 0
M  V30 3410 N 319.27 1.56325 -0.20005 0
M  V30 3411 C 320.233 2.18084 0.705132 0
M  V30 3412 C 321.233 1.13666 1.1374 0
M  V30 3413 O 322.423 1.39023 1.04968 0
M  V30 3414 C 319.555 2.78689 1.96329 0
M  V30 3415 H 320.748 2.99435 0.167023 0
M  V30 3416 H 318.301 1.56221 0.0495725 0
M  V30 3417 H 319.036 2.0115 2.5438 0
M  V30 3418 H 318.821 3.55133 1.66202 0
M  V30 3419 H 320.311 3.26096 2.60866 0
M  V30 3420 N 320.748 -0.0735177 1.57428 0
M  V30 3421 C 321.658 -1.10547 2.06922 0
M  V30 3422 C 322.674 -1.42506 0.998402 0
M  V30 3423 O 323.85 -1.52717 1.31299 0
M  V30 3424 C 320.915 -2.40019 2.50184 0
M  V30 3425 C 319.976 -2.15046 3.71556 0
M  V30 3426 C 319.209 -3.38345 4.12745 0
M  V30 3427 O 319.432 -4.47399 3.53822 0
M  V30 3428 O 318.366 -3.2666 5.05546 0
M  V30 3429 H 322.192 -0.715013 2.95163 0
M  V30 3430 H 319.777 -0.287531 1.46607 0
M  V30 3431 H 321.659 -3.16218 2.78539 0
M  V30 3432 H 320.334 -2.78447 1.65072 0
M  V30 3433 H 319.241 -1.36558 3.48285 0
M  V30 3434 H 320.574 -1.81499 4.57514 0
M  V30 3435 O 322.265 -1.60033 -0.217154 0
M  V30 3436 H 322.956 -1.73663 -0.857964 0
M  V30 END ATOM
M  V30 BEGIN BOND
M  V30 END BOND
M  V30 END CTAB
M  END
$$$$
