drugbank_target|P25053 Thiazole tautomerase (DB03570)
 OpenBabel12092119563D

  0  0  0     0  0            999 V3000
M  V30 BEGIN CTAB
M  V30 COUNTS 3275 3299 0 0 0
M  V30 BEGIN ATOM
M  V30 1 H -0.908 1.98254 -0.117106 0
M  V30 2 N 0 1.576 0 0
M  V30 3 C 0.933 2.03868 1.02534 0
M  V30 4 C 1.911 0.928543 1.3348 0
M  V30 5 O 3.095 1.19667 1.45644 0
M  V30 6 C 0.222 2.43627 2.35294 0
M  V30 7 C -0.732 3.65373 2.2001 0
M  V30 8 S 0.101 5.13292 1.52614 0
M  V30 9 C 1.257 5.56322 2.86805 0
M  V30 10 H 1.49 2.90518 0.631377 0
M  V30 11 H -0.977 1.52953 0.210867 0
M  V30 12 H 0.981 2.67203 3.11629 0
M  V30 13 H -0.358 1.57376 2.7183 0
M  V30 14 H -1.165 3.90944 3.18086 0
M  V30 15 H -1.563 3.418 1.51819 0
M  V30 16 H 0.729 5.58782 3.83104 0
M  V30 17 H 1.672 6.56266 2.65933 0
M  V30 18 H 2.08 4.83886 2.90714 0
M  V30 19 N 1.4781 -0.272755 1.55222 0
M  V30 20 C 2.3881 -1.35918 1.91216 0
M  V30 21 C 3.4041 -1.54026 0.809436 0
M  V30 22 O 4.5801 -1.68148 1.10852 0
M  V30 23 C 1.6451 -2.69834 2.17693 0
M  V30 24 C 0.7061 -2.6047 3.41253 0
M  V30 25 C -0.0609 -3.88 3.66458 0
M  V30 26 O 0.1621 -4.88693 2.94169 0
M  V30 27 O -0.9039 -3.88189 4.59992 0
M  V30 28 H 2.9221 -1.0839 2.83699 0
M  V30 29 H 0.5071 -0.471301 1.41771 0
M  V30 30 H 2.3891 -3.49017 2.36147 0
M  V30 31 H 1.0641 -2.97148 1.28392 0
M  V30 32 H -0.0289 -1.79663 3.28134 0
M  V30 33 H 1.3041 -2.38106 4.30774 0
M  V30 34 N 2.9562 -1.48159 -0.537278 0
M  V30 35 C 3.8862 -1.65029 -1.6519 0
M  V30 36 C 4.8672 -0.499281 -1.62607 0
M  V30 37 O 6.0522 -0.730972 -1.79918 0
M  V30 38 C 3.1822 -1.68303 -3.03795 0
M  V30 39 C 2.1362 -2.8283 -3.21234 0
M  V30 40 C 1.4622 -2.71189 -4.60826 0
M  V30 41 C 2.7622 -4.24211 -3.04701 0
M  V30 42 H 4.4562 -2.58341 -1.51328 0
M  V30 43 H 2.0022 -1.24325 -0.726585 0
M  V30 44 H 3.9552 -1.78693 -3.81637 0
M  V30 45 H 2.6792 -0.715635 -3.18663 0
M  V30 46 H 1.3382 -2.71983 -2.45807 0
M  V30 47 H 0.9862 -1.72435 -4.7252 0
M  V30 48 H 0.6862 -3.48035 -4.7344 0
M  V30 49 H 2.2102 -2.83537 -5.40777 0
M  V30 50 H 3.6242 -4.3593 -3.72341 0
M  V30 51 H 2.0212 -5.01998 -3.28813 0
M  V30 52 H 3.0912 -4.41184 -2.01209 0
M  V30 53 N 4.4343 0.785586 -1.36625 0
M  V30 54 C 5.3843 1.88822 -1.27789 0
M  V30 55 C 6.3683 1.60014 -0.168579 0
M  V30 56 O 7.5603 1.72381 -0.401737 0
M  V30 57 C 4.6893 3.26092 -1.07327 0
M  V30 58 C 3.7753 3.60897 -2.22743 0
M  V30 59 N 4.1663 3.66982 -3.48077 0
M  V30 60 C 2.4643 3.90981 -2.14593 0
M  V30 61 C 3.1653 3.98137 -4.24101 0
M  V30 62 N 2.1413 4.13319 -3.53084 0
M  V30 63 H 5.9433 1.91759 -2.22723 0
M  V30 64 H 3.4573 0.981311 -1.29399 0
M  V30 65 H 5.4543 4.04954 -0.990842 0
M  V30 66 H 4.1143 3.24428 -0.132977 0
M  V30 67 H 5.1253 3.49531 -3.82163 0
M  V30 68 H 1.8023 3.9722 -1.2854 0
M  V30 69 H 3.1923 4.09737 -5.32509 0
M  V30 70 N 5.9124 1.20967 1.01018 0
M  V30 71 C 6.8754 0.965918 2.07853 0
M  V30 72 C 7.8754 -0.0610545 1.60684 0
M  V30 73 O 9.0654 0.175681 1.73312 0
M  V30 74 C 6.1974 0.455513 3.37843 0
M  V30 75 H 7.3904 1.91365 2.3091 0
M  V30 76 H 4.9434 1.02594 1.17916 0
M  V30 77 H 5.6784 -0.497381 3.20463 0
M  V30 78 H 5.4634 1.19622 3.73407 0
M  V30 79 H 6.9534 0.304667 4.16487 0
M  V30 80 N 7.3905 -1.2043 1.01659 0
M  V30 81 C 8.6395 -1.89118 0.701237 0
M  V30 82 C 8.9525 -1.79705 -0.772358 0
M  V30 83 O 10.1585 -2.43528 -1.20026 0
M  V30 84 C 8.6145 -3.39168 1.20388 0
M  V30 85 C 8.2225 -3.57166 2.70438 0
M  V30 86 C 9.9665 -4.1341 0.963953 0
M  V30 87 C 7.8735 -5.01042 3.14183 0
M  V30 88 H 6.8035 -0.708267 0.2586 0
M  V30 89 H 9.4545 -1.36239 1.22927 0
M  V30 90 H 7.8365 -3.91369 0.603824 0
M  V30 91 H 9.0105 -3.15351 3.35992 0
M  V30 92 H 7.3255 -2.96294 2.92572 0
M  V30 93 H 9.9225 -5.19491 1.26621 0
M  V30 94 H 10.2655 -4.16181 -0.099578 0
M  V30 95 H 10.7985 -3.67309 1.52738 0
M  V30 96 H 7.5375 -5.03426 4.19812 0
M  V30 97 H 7.0575 -5.43668 2.53348 0
M  V30 98 H 8.7365 -5.69623 3.0682 0
M  V30 99 N 8.8686 -0.792821 -1.36206 0
M  V30 100 C 10.0966 -0.378825 -2.03402 0
M  V30 101 C 10.5116 1.00586 -1.59774 0
M  V30 102 O 9.8686 1.64574 -0.788764 0
M  V30 103 C 9.9196 -0.43683 -3.58851 0
M  V30 104 O 9.6406 -1.76691 -4.00889 0
M  V30 105 C 11.1416 -0.0138943 -4.43298 0
M  V30 106 H 8.3616 -0.155673 -0.652692 0
M  V30 107 H 10.9056 -1.07261 -1.74113 0
M  V30 108 H 9.0606 0.208575 -3.86838 0
M  V30 109 H 9.4746 -1.72011 -4.95492 0
M  V30 110 H 10.9486 -0.105615 -5.51899 0
M  V30 111 H 11.4256 1.03915 -4.2673 0
M  V30 112 H 12.0316 -0.63192 -4.20579 0
M  V30 113 N 10.3467 1.47872 -0.545128 0
M  V30 114 C 11.6237 1.9554 0.0485222 0
M  V30 115 C 12.0037 1.4876 1.49779 0
M  V30 116 O 11.3517 0.720925 2.16829 0
M  V30 117 C 11.5617 3.48898 -0.084417 0
M  V30 118 C 12.9097 4.24547 0.0671239 0
M  V30 119 O 13.9337 3.56198 -0.0113649 0
M  V30 120 O 12.7927 5.45999 0.233882 0
M  V30 121 H 9.8867 0.823957 0.0708773 0
M  V30 122 H 12.4327 1.58327 -0.610798 0
M  V30 123 H 11.2047 3.75714 -1.09337 0
M  V30 124 H 10.8277 3.92845 0.613066 0
M  V30 125 N 11.8248 0.280983 1.55075 0
M  V30 126 C 13.1018 -0.386207 1.91749 0
M  V30 127 C 13.4818 -1.73264 1.20594 0
M  V30 128 O 12.8298 -2.26034 0.334784 0
M  V30 129 C 13.0398 -0.520687 3.45094 0
M  V30 130 C 14.3878 -0.800865 4.16979 0
M  V30 131 O 15.4118 -0.605271 3.5102 0
M  V30 132 O 14.2708 -1.1753 5.33712 0
M  V30 133 H 11.3648 -0.212408 0.799257 0
M  V30 134 H 13.9108 0.327568 1.66509 0
M  V30 135 H 12.6828 0.426633 3.88967 0
M  V30 136 H 12.3058 -1.2837 3.76307 0
M  V30 137 N 13.3029 -1.57598 0.00835791 0
M  V30 138 C 14.5279 -1.95617 -0.689103 0
M  V30 139 C 14.9529 -0.883753 -1.66046 0
M  V30 140 O 14.3109 0.157352 -1.80616 0
M  V30 141 C 14.3589 -3.32736 -1.38994 0
M  V30 142 O 13.4629 -3.27631 -2.50463 0
M  V30 143 H 12.8039 -0.638379 -0.182668 0
M  V30 144 H 15.3339 -2.045 0.064036 0
M  V30 145 H 15.3439 -3.68494 -1.75147 0
M  V30 146 H 14.0189 -4.1034 -0.677778 0
M  V30 147 H 12.5959 -3.03561 -2.16576 0
M  V30 148 N 14.781 0.264519 -1.55364 0
M  V30 149 C 15.728 1.32717 -1.88825 0
M  V30 150 C 16.698 1.48675 -0.740605 0
M  V30 151 O 17.883 1.62945 -0.992657 0
M  V30 152 C 15.023 2.68089 -2.17307 0
M  V30 153 C 14.136 2.60284 -3.44785 0
M  V30 154 C 13.271 3.87892 -3.62924 0
M  V30 155 C 12.31 3.74631 -4.84064 0
M  V30 156 N 11.447 4.94092 -4.98816 0
M  V30 157 H 16.287 1.03481 -2.79456 0
M  V30 158 H 13.824 0.499757 -1.3835 0
M  V30 159 H 15.782 3.46864 -2.31821 0
M  V30 160 H 14.412 2.95509 -1.299 0
M  V30 161 H 13.464 1.73173 -3.38697 0
M  V30 162 H 14.776 2.46388 -4.33698 0
M  V30 163 H 13.93 4.75109 -3.77302 0
M  V30 164 H 12.669 4.04664 -2.7221 0
M  V30 165 H 11.674 2.85797 -4.69681 0
M  V30 166 H 12.899 3.5937 -5.76221 0
M  V30 167 H 10.845 5.11259 -4.11036 0
M  V30 168 H 10.762 4.8276 -5.81789 0
M  V30 169 H 12.03 5.82857 -5.17588 0
M  V30 170 N 16.2591 1.48442 0.529413 0
M  V30 171 C 17.6701 1.5002 1.11134 0
M  V30 172 C 18.0211 0.27031 1.94329 0
M  V30 173 O 17.1461 -0.622507 2.07253 0
M  V30 174 C 17.7411 2.71834 2.02217 0
M  V30 175 C 16.3001 2.76283 2.55627 0
M  V30 176 C 15.4471 2.43542 1.326 0
M  V30 177 H 18.3981 1.5555 0.314641 0
M  V30 178 H 18.4191 2.50384 2.8651 0
M  V30 179 H 17.9311 3.61331 1.41639 0
M  V30 180 H 16.0321 1.90995 3.19924 0
M  V30 181 H 16.1451 3.77725 2.94721 0
M  V30 182 H 14.5091 1.94709 1.64196 0
M  V30 183 H 15.2921 3.3528 0.737734 0
M  V30 184 N 17.7372 -0.778329 1.37039 0
M  V30 185 C 18.9832 -1.53892 1.32079 0
M  V30 186 C 19.3162 -1.9396 -0.0965386 0
M  V30 187 O 18.5912 -1.63568 -1.05242 0
M  V30 188 C 18.8742 -2.80847 2.25382 0
M  V30 189 C 18.7272 -2.47076 3.75864 0
M  V30 190 C 20.0462 -3.82741 2.1725 0
M  V30 191 H 17.1652 -0.558303 0.48111 0
M  V30 192 H 19.8072 -0.893397 1.67685 0
M  V30 193 H 17.9572 -3.35931 1.95148 0
M  V30 194 H 19.6292 -1.97957 4.16666 0
M  V30 195 H 17.8722 -1.79863 3.94755 0
M  V30 196 H 18.5432 -3.37798 4.36574 0
M  V30 197 H 21.0192 -3.37133 2.43887 0
M  V30 198 H 19.8952 -4.69303 2.84686 0
M  V30 199 H 20.1562 -4.2652 1.16331 0
M  V30 200 N 19.2153 -1.21501 -1.00376 0
M  V30 201 C 20.1253 -0.991447 -2.12621 0
M  V30 202 C 21.1413 0.0568446 -1.73907 0
M  V30 203 O 22.3173 -0.13348 -2.00957 0
M  V30 204 C 19.3823 -0.560312 -3.42142 0
M  V30 205 C 18.4433 -1.68096 -3.95022 0
M  V30 206 C 17.6763 -1.2703 -5.18362 0
M  V30 207 O 17.8993 -0.144438 -5.70217 0
M  V30 208 O 16.8333 -2.08269 -5.64719 0
M  V30 209 H 20.6593 -1.93158 -2.34358 0
M  V30 210 H 18.2443 -0.999999 -1.10997 0
M  V30 211 H 20.1263 -0.329724 -4.20108 0
M  V30 212 H 18.8013 0.351089 -3.2179 0
M  V30 213 H 17.7083 -1.96597 -3.18278 0
M  V30 214 H 19.0413 -2.56983 -4.19786 0
M  V30 215 N 20.6934 1.19889 -1.02296 0
M  V30 216 C 21.6034 2.26571 -0.608508 0
M  V30 217 C 22.6194 1.70299 0.356964 0
M  V30 218 O 23.7954 2.00235 0.216326 0
M  V30 219 C 20.8604 3.46677 0.0402814 0
M  V30 220 C 19.9214 4.18153 -0.97194 0
M  V30 221 C 19.1544 5.32525 -0.354016 0
M  V30 222 O 19.3774 5.64112 0.844604 0
M  V30 223 O 18.3114 5.92242 -1.07391 0
M  V30 224 H 22.1374 2.64251 -1.49684 0
M  V30 225 H 19.7224 1.26629 -0.792809 0
M  V30 226 H 21.6044 4.19475 0.402324 0
M  V30 227 H 20.2794 3.10858 0.902707 0
M  V30 228 H 19.1864 3.47499 -1.38546 0
M  V30 229 H 20.5194 4.57927 -1.80454 0
M  V30 230 N 22.1715 0.800033 1.35784 0
M  V30 231 C 23.1015 0.220184 2.3246 0
M  V30 232 C 24.0825 -0.65073 1.57161 0
M  V30 233 O 25.2675 -0.582359 1.85263 0
M  V30 234 C 22.3975 -0.637353 3.41402 0
M  V30 235 C 21.3515 0.134531 4.27789 0
M  V30 236 C 20.6775 -0.844285 5.27992 0
M  V30 237 C 21.9775 1.32979 5.05088 0
M  V30 238 H 23.6715 1.02787 2.81203 0
M  V30 239 H 21.2175 0.495717 1.35199 0
M  V30 240 H 23.1705 -1.05302 4.08031 0
M  V30 241 H 21.8945 -1.47785 2.91251 0
M  V30 242 H 20.5535 0.531296 3.6273 0
M  V30 243 H 20.2015 -1.68011 4.74111 0
M  V30 244 H 19.9015 -0.332184 5.8666 0
M  V30 245 H 21.4255 -1.2583 5.97494 0
M  V30 246 H 22.8395 0.98934 5.64699 0
M  V30 247 H 21.2365 1.77593 5.7322 0
M  V30 248 H 22.3065 2.11978 4.36111 0
M  V30 249 N 23.6496 -1.47581 0.552962 0
M  V30 250 C 24.6126 -2.28439 -0.186605 0
M  V30 251 C 25.6126 -1.36706 -0.84665 0
M  V30 252 O 26.8026 -1.59378 -0.703164 0
M  V30 253 C 23.9346 -3.16264 -1.2724 0
M  V30 254 H 25.1276 -2.95294 0.523609 0
M  V30 255 H 22.6806 -1.532 0.309745 0
M  V30 256 H 23.4156 -2.54091 -2.01514 0
M  V30 257 H 23.2006 -3.83769 -0.803968 0
M  V30 258 H 24.6906 -3.77198 -1.79196 0
M  V30 259 N 25.1277 -0.289203 -1.54924 0
M  V30 260 C 26.5437 0.0645403 -1.59469 0
M  V30 261 C 26.7437 1.53419 -1.30632 0
M  V30 262 O 25.7997 2.2852 -1.074 0
M  V30 263 C 27.1127 -0.32278 -2.98963 0
M  V30 264 C 28.6607 -0.270564 -3.11828 0
M  V30 265 C 29.1357 -0.632532 -4.53611 0
M  V30 266 N 30.6267 -0.584617 -4.59496 0
M  V30 267 C 31.3617 -0.837314 -5.67254 0
M  V30 268 N 30.8577 -1.15536 -6.83098 0
M  V30 269 N 32.6507 -0.765166 -5.56868 0
M  V30 270 H 24.8017 -1.24714 -1.71931 0
M  V30 271 H 27.0647 -0.504809 -0.802416 0
M  V30 272 H 26.7707 -1.34541 -3.24948 0
M  V30 273 H 26.6447 0.32944 -3.75759 0
M  V30 274 H 29.0317 0.742805 -2.85598 0
M  V30 275 H 29.1127 -0.957242 -2.37214 0
M  V30 276 H 28.7567 -1.64365 -4.80569 0
M  V30 277 H 28.6867 0.07609 -5.26545 0
M  V30 278 H 31.1777 -0.349248 -3.76283 0
M  V30 279 H 31.4907 -1.33447 -7.61191 0
M  V30 280 H 29.8357 -1.19328 -6.84679 0
M  V30 281 H 33.0267 -0.516432 -4.65243 0
M  V30 282 H 33.1997 -0.965477 -6.40767 0
M  V30 283 N 26.6058 1.57591 -0.0167156 0
M  V30 284 C 27.8548 1.90461 0.663877 0
M  V30 285 C 28.1678 0.893515 1.73999 0
M  V30 286 O 29.3738 1.11302 2.47637 0
M  V30 287 C 27.8298 3.38155 1.23204 0
M  V30 288 C 27.4378 4.47597 0.189866 0
M  V30 289 C 29.1818 3.80111 1.88986 0
M  V30 290 C 27.0888 5.86379 0.768964 0
M  V30 291 H 26.0188 0.710738 0.251729 0
M  V30 292 H 28.6698 1.83326 -0.0799926 0
M  V30 293 H 27.0518 3.40182 2.02712 0
M  V30 294 H 28.2258 4.57112 -0.581846 0
M  V30 295 H 26.5408 4.14766 -0.368475 0
M  V30 296 H 29.1378 4.81145 2.33247 0
M  V30 297 H 29.4808 3.14511 2.72743 0
M  V30 298 H 30.0138 3.80454 1.16187 0
M  V30 299 H 26.7528 6.55493 -0.0301957 0
M  V30 300 H 26.2728 5.80496 1.50945 0
M  V30 301 H 27.9518 6.34563 1.26251 0
M  V30 302 N 28.0839 -0.256276 1.55502 0
M  V30 303 C 29.3329 -0.983486 1.76098 0
M  V30 304 C 29.6459 -1.86837 0.578896 0
M  V30 305 O 30.8519 -2.63163 0.667648 0
M  V30 306 C 29.3079 -1.79868 3.1173 0
M  V30 307 C 28.9159 -0.961648 4.37557 0
M  V30 308 C 30.6599 -2.51919 3.41668 0
M  V30 309 C 28.5669 -1.77219 5.64223 0
M  V30 310 H 27.4969 -0.370936 0.656447 0
M  V30 311 H 30.1479 -0.238492 1.81944 0
M  V30 312 H 28.5299 -2.58527 2.99966 0
M  V30 313 H 29.7039 -0.218048 4.60284 0
M  V30 314 H 28.0189 -0.354913 4.14885 0
M  V30 315 H 30.6159 -3.12998 4.33516 0
M  V30 316 H 30.9589 -3.23059 2.62562 0
M  V30 317 H 31.4919 -1.80278 3.54605 0
M  V30 318 H 28.2309 -1.10471 6.46124 0
M  V30 319 H 27.7509 -2.49132 5.45613 0
M  V30 320 H 29.4299 -2.34169 6.03137 0
M  V30 321 N 29.562 -1.4872 -0.521534 0
M  V30 322 C 30.811 -1.56419 -1.27341 0
M  V30 323 C 31.124 -0.246805 -1.94037 0
M  V30 324 O 32.33 -0.202122 -2.70747 0
M  V30 325 C 30.786 -2.75896 -2.31105 0
M  V30 326 C 30.394 -4.14311 -1.70441 0
M  V30 327 C 32.138 -2.92913 -3.07249 0
M  V30 328 C 30.045 -5.25038 -2.72194 0
M  V30 329 H 28.975 -0.582344 -0.478949 0
M  V30 330 H 31.626 -1.75071 -0.549779 0
M  V30 331 H 30.008 -2.50697 -3.06541 0
M  V30 332 H 31.182 -4.49564 -1.01136 0
M  V30 333 H 29.497 -4.02482 -1.06759 0
M  V30 334 H 32.094 -3.72805 -3.83302 0
M  V30 335 H 32.437 -2.02689 -3.63625 0
M  V30 336 H 32.97 -3.18054 -2.38928 0
M  V30 337 H 29.709 -6.17255 -2.20627 0
M  V30 338 H 29.229 -4.94263 -3.39801 0
M  V30 339 H 30.908 -5.53508 -3.35019 0
M  V30 340 N 31.0401 0.771051 -1.3745 0
M  V30 341 C 32.2681 1.56015 -1.35893 0
M  V30 342 C 32.6831 1.88718 0.0555523 0
M  V30 343 O 32.0401 1.51502 1.01752 0
M  V30 344 C 32.0911 2.87001 -2.19801 0
M  V30 345 O 31.8121 2.557 -3.55738 0
M  V30 346 C 33.3131 3.81228 -2.26231 0
M  V30 347 H 30.5331 0.483317 -0.465453 0
M  V30 348 H 33.0771 0.955611 -1.80799 0
M  V30 349 H 31.2321 3.43877 -1.78402 0
M  V30 350 H 31.6461 3.39584 -3.99729 0
M  V30 351 H 33.1201 4.70139 -2.89263 0
M  V30 352 H 33.5971 4.20409 -1.27093 0
M  V30 353 H 34.2031 3.30281 -2.67945 0
M  V30 354 N 32.5182 1.22032 0.997298 0
M  V30 355 C 33.7672 1.03637 1.73038 0
M  V30 356 C 34.0802 -0.429475 1.90827 0
M  V30 357 O 35.2862 -0.732995 2.61418 0
M  V30 358 C 33.7422 1.80582 3.11317 0
M  V30 359 C 33.3502 3.31387 3.01474 0
M  V30 360 C 35.0942 1.70621 3.88701 0
M  V30 361 C 33.0012 4.00791 4.3488 0
M  V30 362 H 31.9312 0.384179 0.648785 0
M  V30 363 H 34.5822 1.4584 1.11368 0
M  V30 364 H 32.9642 1.31175 3.73643 0
M  V30 365 H 34.1382 3.88155 2.4834 0
M  V30 366 H 32.4532 3.41976 2.37575 0
M  V30 367 H 35.0502 2.19799 4.87434 0
M  V30 368 H 35.3932 0.665823 4.10941 0
M  V30 369 H 35.9262 2.17547 3.33044 0
M  V30 370 H 32.6652 5.05064 4.1784 0
M  V30 371 H 32.1852 3.48811 4.87945 0
M  V30 372 H 33.8642 4.06139 5.03647 0
M  V30 373 N 33.9963 -1.19345 1.0293 0
M  V30 374 C 34.9283 -2.22036 0.56857 0
M  V30 375 C 35.9413 -1.58865 -0.355779 0
M  V30 376 O 37.1303 -1.77851 -0.152103 0
M  V30 377 C 34.2303 -3.38363 -0.190752 0
M  V30 378 C 33.4033 -4.31118 0.738643 0
M  V30 379 C 32.4623 -5.26194 0.0246497 0
M  V30 380 O 31.4883 -5.65461 0.651354 0
M  V30 381 N 32.6903 -5.66971 -1.24594 0
M  V30 382 H 35.4553 -2.6219 1.45177 0
M  V30 383 H 33.0163 -1.34015 0.908381 0
M  V30 384 H 35.0083 -3.98981 -0.677961 0
M  V30 385 H 33.5783 -2.96994 -0.975366 0
M  V30 386 H 32.7983 -3.68276 1.40593 0
M  V30 387 H 34.0863 -4.90001 1.37029 0
M  V30 388 H 33.4843 -5.37104 -1.77583 0
M  V30 389 H 32.0413 -6.2984 -1.67764 0
M  V30 390 N 35.4744 -0.807222 -1.35358 0
M  V30 391 C 36.4224 -0.20614 -2.31685 0
M  V30 392 C 37.4164 0.644445 -1.56663 0
M  V30 393 O 38.6224 0.537538 -1.71786 0
M  V30 394 H 34.9974 -0.0479006 -0.750473 0
M  V30 395 H 36.9684 -1.03369 -2.79924 0
M  V30 396 C 35.7174 0.630212 -3.41941 0
M  V30 397 H 35.0404 -0.0149558 -3.99797 0
M  V30 398 H 36.4804 1.01716 -4.11619 0
M  V30 399 C 34.9394 1.79601 -2.85035 0
M  V30 400 O 35.4694 2.89351 -2.78637 0
M  V30 401 N 33.6754 1.60774 -2.42074 0
M  V30 402 H 33.2224 0.715009 -2.47478 0
M  V30 403 H 33.1804 2.38933 -2.04349 0
M  V30 404 N 36.9525 1.47285 -0.560781 0
M  V30 405 C 37.8625 2.33846 0.187954 0
M  V30 406 C 38.8785 1.48412 0.908293 0
M  V30 407 O 40.0545 1.81332 0.876388 0
M  V30 408 C 37.1195 3.25178 1.2025 0
M  V30 409 C 36.1805 4.26504 0.489208 0
M  V30 410 C 35.4135 5.13472 1.45542 0
M  V30 411 O 35.6365 5.02959 2.6905 0
M  V30 412 O 34.5705 5.93902 0.977963 0
M  V30 413 H 38.3965 2.99177 -0.522177 0
M  V30 414 H 35.9815 1.45903 -0.321364 0
M  V30 415 H 37.8635 3.81584 1.78805 0
M  V30 416 H 36.5385 2.6247 1.89449 0
M  V30 417 H 35.4455 3.73847 -0.137627 0
M  V30 418 H 36.7785 4.91935 -0.161399 0
M  V30 419 N 38.4306 0.297415 1.54768 0
M  V30 420 C 39.6766 -0.313376 2.00364 0
M  V30 421 C 40.0096 -1.53815 1.18553 0
M  V30 422 O 39.2846 -1.92739 0.261103 0
M  V30 423 C 39.5676 -0.673525 3.53745 0
M  V30 424 C 39.4206 0.560133 4.46299 0
M  V30 425 C 40.7396 -1.50143 4.13697 0
M  V30 426 H 37.8586 -0.112428 0.728374 0
M  V30 427 H 40.5006 0.4088 1.8555 0
M  V30 428 H 38.6506 -1.28881 3.665 0
M  V30 429 H 40.3226 1.19863 4.45455 0
M  V30 430 H 38.5656 1.19405 4.17043 0
M  V30 431 H 39.2366 0.26405 5.51368 0
M  V30 432 H 41.7126 -0.981588 4.04356 0
M  V30 433 H 40.5886 -1.72221 5.21182 0
M  V30 434 H 40.8496 -2.48952 3.65343 0
M  V30 435 N 39.9087 -1.5758 0.0250728 0
M  V30 436 C 41.1857 -1.82917 -0.692873 0
M  V30 437 C 41.5657 -0.908137 -1.90568 0
M  V30 438 O 40.9137 0.0372298 -2.2847 0
M  V30 439 C 41.1237 -3.32034 -1.07492 0
M  V30 440 C 42.4717 -3.98406 -1.46826 0
M  V30 441 O 43.4957 -3.36505 -1.16801 0
M  V30 442 O 42.3547 -5.07497 -2.02754 0
M  V30 443 H 39.4487 -0.754079 -0.33955 0
M  V30 444 H 41.9947 -1.69619 0.0524456 0
M  V30 445 H 40.7667 -3.90728 -0.211552 0
M  V30 446 H 40.3897 -3.50424 -1.87854 0
M  V30 447 N 41.3868 0.248026 -1.55636 0
M  V30 448 C 42.6338 0.976224 -1.77415 0
M  V30 449 C 42.9618 1.85361 -0.589193 0
M  V30 450 O 42.2168 1.90973 0.427529 0
M  V30 451 C 42.5158 1.86819 -3.04686 0
M  V30 452 C 42.1818 1.14625 -4.36087 0
M  V30 453 C 40.8438 0.946723 -4.71795 0
M  V30 454 C 43.1958 0.634463 -5.17324 0
M  V30 455 C 40.5238 0.223091 -5.86276 0
M  V30 456 C 42.8758 -0.0756959 -6.32555 0
M  V30 457 C 41.5398 -0.286711 -6.66884 0
M  V30 458 H 40.8098 0.357226 -0.649208 0
M  V30 459 H 43.4568 0.246415 -1.89908 0
M  V30 460 H 41.7618 2.66502 -2.872 0
M  V30 461 H 43.4588 2.43329 -3.18735 0
M  V30 462 H 40.0488 1.3117 -4.08035 0
M  V30 463 H 44.2328 0.77616 -4.90193 0
M  V30 464 H 39.4888 0.0491185 -6.1138 0
M  V30 465 H 43.6628 -0.479899 -6.94745 0
M  V30 466 H 41.2898 -0.849389 -7.5544 0
M  V30 467 N 42.8649 1.48995 0.513639 0
M  V30 468 C 44.1139 1.57093 1.2651 0
M  V30 469 C 44.4269 0.257091 1.93903 0
M  V30 470 O 45.6329 0.216478 2.70636 0
M  V30 471 C 44.0889 2.77118 2.29638 0
M  V30 472 C 43.6969 4.15209 1.68241 0
M  V30 473 C 45.4409 2.94538 3.05692 0
M  V30 474 C 43.3479 5.26474 2.69406 0
M  V30 475 H 42.2779 0.584876 0.475854 0
M  V30 476 H 44.9289 1.7536 0.540487 0
M  V30 477 H 43.3109 2.52319 3.05207 0
M  V30 478 H 44.4849 4.50094 0.987505 0
M  V30 479 H 42.7999 4.03042 1.04623 0
M  V30 480 H 45.3969 3.74832 3.8132 0
M  V30 481 H 45.7399 2.04614 3.62545 0
M  V30 482 H 46.2729 3.19316 2.37238 0
M  V30 483 H 43.0119 6.18417 2.17351 0
M  V30 484 H 42.5319 4.96058 3.37175 0
M  V30 485 H 44.2109 5.55277 3.32078 0
M  V30 486 N 44.343 -0.763751 1.37857 0
M  V30 487 C 45.293 -1.86765 1.30777 0
M  V30 488 C 46.277 -1.59726 0.194015 0
M  V30 489 O 47.469 -1.7172 0.42911 0
M  V30 490 C 44.598 -3.24343 1.12502 0
M  V30 491 C 43.684 -3.57307 2.28456 0
M  V30 492 N 44.075 -3.61398 3.53871 0
M  V30 493 C 42.373 -3.87517 2.20786 0
M  V30 494 C 43.074 -3.91339 4.30382 0
M  V30 495 N 42.05 -4.07649 3.59615 0
M  V30 496 H 45.852 -1.88191 2.25746 0
M  V30 497 H 43.366 -0.9606 1.30944 0
M  V30 498 H 45.363 -4.03327 1.05514 0
M  V30 499 H 44.023 -3.24175 0.184574 0
M  V30 500 H 45.034 -3.43407 3.87675 0
M  V30 501 H 41.711 -3.95125 1.34844 0
M  V30 502 H 43.101 -4.01213 5.3896 0
M  V30 503 N 45.8211 -1.22559 -0.990812 0
M  V30 504 C 47.0701 -1.04553 -1.72486 0
M  V30 505 C 47.3831 0.419349 -1.91052 0
M  V30 506 O 48.5891 0.719121 -2.61803 0
M  V30 507 C 47.0451 -1.82231 -3.10355 0
M  V30 508 C 46.6531 -3.32981 -2.99713 0
M  V30 509 C 48.3971 -1.7268 -3.87791 0
M  V30 510 C 46.3041 -4.03091 -4.32748 0
M  V30 511 H 45.2341 -0.387614 -0.646739 0
M  V30 512 H 47.8851 -1.46429 -1.10593 0
M  V30 513 H 46.2671 -1.33155 -3.72942 0
M  V30 514 H 47.4411 -3.89466 -2.46278 0
M  V30 515 H 45.7561 -3.43231 -2.35758 0
M  V30 516 H 48.3531 -2.22381 -4.86262 0
M  V30 517 H 48.6961 -0.687607 -4.10582 0
M  V30 518 H 49.2291 -2.1931 -3.31885 0
M  V30 519 H 45.9681 -5.07273 -4.15156 0
M  V30 520 H 45.4881 -3.51394 -4.86089 0
M  V30 521 H 47.1671 -4.08804 -5.01486 0
M  V30 522 N 47.2992 1.18797 -1.03562 0
M  V30 523 C 48.7152 1.40671 -0.753917 0
M  V30 524 C 48.9152 1.9043 0.658686 0
M  V30 525 O 47.9712 2.08538 1.42366 0
M  V30 526 C 49.2842 2.41192 -1.79574 0
M  V30 527 C 50.8322 2.54928 -1.81606 0
M  V30 528 C 51.3072 3.58709 -2.84766 0
M  V30 529 N 52.7982 3.66212 -2.83625 0
M  V30 530 C 53.5332 4.46225 -3.60098 0
M  V30 531 N 53.0292 5.29888 -4.46308 0
M  V30 532 N 54.8222 4.40939 -3.4861 0
M  V30 533 H 46.9732 0.848221 -1.94728 0
M  V30 534 H 49.2362 0.435081 -0.842264 0
M  V30 535 H 48.9422 2.11669 -2.80872 0
M  V30 536 H 48.8162 3.40467 -1.62365 0
M  V30 537 H 51.2032 2.83771 -0.809817 0
M  V30 538 H 51.2842 1.55784 -2.02891 0
M  V30 539 H 50.9282 3.30607 -3.85566 0
M  V30 540 H 50.8582 4.57519 -2.60737 0
M  V30 541 H 53.3492 3.06466 -2.21105 0
M  V30 542 H 53.6622 5.88078 -5.01382 0
M  V30 543 H 52.0072 5.29326 -4.50377 0
M  V30 544 H 55.1982 3.74624 -2.80668 0
M  V30 545 H 55.3712 5.03056 -4.08459 0
M  V30 546 N 48.7773 0.814389 1.34928 0
M  V30 547 C 49.6873 0.231978 2.3345 0
M  V30 548 C 50.7033 -0.629139 1.62228 0
M  V30 549 O 51.8793 -0.539052 1.94052 0
M  V30 550 C 48.9443 -0.603482 3.41407 0
M  V30 551 C 48.0053 0.279037 4.28392 0
M  V30 552 C 47.2383 -0.516643 5.31193 0
M  V30 553 O 47.4613 -1.75068 5.4287 0
M  V30 554 O 46.3953 0.0965652 6.01823 0
M  V30 555 H 50.2213 1.04721 2.85074 0
M  V30 556 H 47.8063 0.576343 1.37836 0
M  V30 557 H 49.6883 -1.07908 4.0735 0
M  V30 558 H 48.3633 -1.39618 2.92042 0
M  V30 559 H 47.2703 0.801948 3.65403 0
M  V30 560 H 48.6033 1.03588 4.81176 0
M  V30 561 N 50.2554 -1.46986 0.568584 0
M  V30 562 C 51.6714 -1.57946 0.229189 0
M  V30 563 C 51.8714 -1.56567 -1.26843 0
M  V30 564 O 50.9274 -1.47511 -2.04931 0
M  V30 565 C 52.2404 -2.87963 0.865909 0
M  V30 566 C 53.7884 -3.01568 0.838188 0
M  V30 567 C 54.2634 -4.34301 1.45419 0
M  V30 568 N 55.7544 -4.40965 1.41788 0
M  V30 569 C 56.4894 -5.42256 1.86403 0
M  V30 570 N 55.9854 -6.50297 2.38926 0
M  V30 571 N 57.7784 -5.3337 1.77405 0
M  V30 572 H 49.9294 -1.46126 1.54146 0
M  V30 573 H 52.1924 -0.696156 0.643484 0
M  V30 574 H 51.8984 -2.94742 1.91886 0
M  V30 575 H 51.7724 -3.75423 0.365687 0
M  V30 576 H 54.1594 -2.94379 -0.206106 0
M  V30 577 H 54.2404 -2.1562 1.37629 0
M  V30 578 H 53.8844 -4.42247 2.49761 0
M  V30 579 H 53.8144 -5.19 0.891435 0
M  V30 580 H 56.3054 -3.63484 1.03381 0
M  V30 581 H 56.6184 -7.23777 2.70863 0
M  V30 582 H 54.9634 -6.51155 2.42944 0
M  V30 583 H 58.1544 -4.47865 1.3614 0
M  V30 584 H 58.3274 -6.12169 2.12492 0
M  V30 585 N 51.7335 -0.305618 -1.54608 0
M  V30 586 C 52.9585 0.307562 -2.05107 0
M  V30 587 C 53.3835 1.46385 -1.18123 0
M  V30 588 O 52.7415 1.8034 -0.186324 0
M  V30 589 C 52.7895 0.73704 -3.52987 0
M  V30 590 O 51.8935 1.84134 -3.6901 0
M  V30 591 H 51.2345 0.0589143 -0.661381 0
M  V30 592 H 53.7645 -0.448807 -1.99617 0
M  V30 593 H 53.7745 1.02459 -3.94925 0
M  V30 594 H 52.4495 -0.108773 -4.15758 0
M  V30 595 H 51.0265 1.55398 -3.38978 0
M  V30 596 N 53.2116 1.57565 -0.0334293 0
M  V30 597 C 54.1586 2.10478 0.946981 0
M  V30 598 C 55.1286 1.00787 1.32027 0
M  V30 599 O 56.3136 1.28232 1.41284 0
M  V30 600 C 53.4536 2.63994 2.22263 0
M  V30 601 C 52.5666 3.87709 1.90541 0
M  V30 602 C 51.7016 4.29604 3.12433 0
M  V30 603 C 50.7406 5.46065 2.76549 0
M  V30 604 N 49.8776 5.83096 3.9108 0
M  V30 605 H 54.7176 2.93963 0.488846 0
M  V30 606 H 52.2546 1.45296 0.22969 0
M  V30 607 H 54.2126 2.93114 2.96884 0
M  V30 608 H 52.8426 1.83333 2.65685 0
M  V30 609 H 51.8946 3.65291 1.06144 0
M  V30 610 H 53.2066 4.72403 1.60116 0
M  V30 611 H 52.3606 4.60182 3.9537 0
M  V30 612 H 51.0996 3.43685 3.46023 0
M  V30 613 H 50.1046 5.15176 1.92026 0
M  V30 614 H 51.3296 6.33685 2.44171 0
M  V30 615 H 49.2756 5.00132 4.24504 0
M  V30 616 H 49.1926 6.6244 3.64293 0
M  V30 617 H 50.4606 6.18282 4.74708 0
M  V30 618 N 54.6897 -0.239769 1.55765 0
M  V30 619 C 55.9147 -0.988373 1.82335 0
M  V30 620 C 56.3397 -1.77886 0.611421 0
M  V30 621 O 55.6977 -1.75889 -0.439639 0
M  V30 622 C 55.7457 -1.89627 3.06715 0
M  V30 623 O 54.8497 -2.98904 2.84131 0
M  V30 624 H 54.1907 -0.280858 0.601677 0
M  V30 625 H 56.7207 -0.258597 2.02959 0
M  V30 626 H 56.7307 -2.30957 3.36338 0
M  V30 627 H 55.4057 -1.31511 3.9456 0
M  V30 628 H 53.9827 -2.61651 2.65694 0
M  V30 629 N 56.1678 -1.49265 -0.50573 0
M  V30 630 C 57.1308 -1.65075 -1.59006 0
M  V30 631 C 58.1308 -0.522768 -1.52065 0
M  V30 632 O 59.3208 -0.789117 -1.55302 0
M  V30 633 C 56.4528 -1.64369 -2.98656 0
M  V30 634 H 57.6458 -2.61784 -1.46319 0
M  V30 635 H 55.1988 -1.38226 -0.729616 0
M  V30 636 H 55.9338 -0.692272 -3.16825 0
M  V30 637 H 55.7188 -2.46282 -3.05103 0
M  V30 638 H 57.2088 -1.78674 -3.77446 0
M  V30 639 N 57.6459 0.756429 -1.3826 0
M  V30 640 C 58.6089 1.85176 -1.35065 0
M  V30 641 C 59.6089 1.58818 -0.251703 0
M  V30 642 O 60.7989 1.66615 -0.508433 0
M  V30 643 C 57.9309 3.22596 -1.10201 0
M  V30 644 H 59.1239 1.89417 -2.3251 0
M  V30 645 H 56.6769 0.95783 -1.23512 0
M  V30 646 H 57.4119 3.24025 -0.133504 0
M  V30 647 H 57.1969 3.43122 -1.89762 0
M  V30 648 H 58.6869 4.02673 -1.10654 0
M  V30 649 N 59.124 1.23083 0.984299 0
M  V30 650 C 60.401 0.9689 1.69917 0
M  V30 651 C 60.781 -0.513604 2.04757 0
M  V30 652 O 60.129 -1.48383 1.73767 0
M  V30 653 C 60.339 1.87518 2.94343 0
M  V30 654 C 61.687 2.13636 3.6694 0
M  V30 655 O 62.711 1.85036 3.04368 0
M  V30 656 O 61.57 2.62119 4.79537 0
M  V30 657 H 58.664 0.365095 0.742048 0
M  V30 658 H 61.21 1.34107 1.03987 0
M  V30 659 H 59.982 2.87756 2.65164 0
M  V30 660 H 59.605 1.50514 3.6801 0
M  V30 661 N 60.6021 -1.18246 1.0419 0
M  V30 662 C 61.8511 -1.87588 0.741194 0
M  V30 663 C 62.1641 -1.81303 -0.734066 0
M  V30 664 O 63.3701 -2.46019 -1.14834 0
M  V30 665 C 61.8261 -3.36538 1.27555 0
M  V30 666 C 61.4341 -3.51349 2.77953 0
M  V30 667 C 63.1781 -4.11273 1.05143 0
M  V30 668 C 61.0851 -4.94265 3.2474 0
M  V30 669 H 60.0151 -0.702622 0.273565 0
M  V30 670 H 62.6661 -1.33601 1.25789 0
M  V30 671 H 61.0481 -3.9 0.686703 0
M  V30 672 H 62.2221 -3.08153 3.42605 0
M  V30 673 H 60.5371 -2.90022 2.98791 0
M  V30 674 H 63.1341 -5.16689 1.37611 0
M  V30 675 H 63.4771 -4.16298 -0.0112774 0
M  V30 676 H 64.0101 -3.63987 1.60495 0
M  V30 677 H 60.7491 -4.94408 4.30396 0
M  V30 678 H 60.2691 -5.38172 2.64823 0
M  V30 679 H 61.9481 -5.62987 3.18834 0
M  V30 680 N 62.0802 -0.821533 -1.34494 0
M  V30 681 C 63.0102 -0.257138 -2.3208 0
M  V30 682 C 63.9912 0.625645 -1.58176 0
M  V30 683 O 65.1762 0.552811 -1.86166 0
M  V30 684 C 62.3062 0.582958 -3.42372 0
M  V30 685 C 61.2602 -0.202571 -4.2752 0
M  V30 686 C 60.5862 0.760179 -5.29269 0
M  V30 687 C 61.8862 -1.40998 -5.02908 0
M  V30 688 H 63.5802 -1.07247 -2.79532 0
M  V30 689 H 61.1262 -0.517163 -1.34393 0
M  V30 690 H 63.0792 0.987972 -4.09655 0
M  V30 691 H 61.8032 1.43133 -2.93565 0
M  V30 692 H 60.4622 -0.588936 -3.61838 0
M  V30 693 H 60.1102 1.60447 -4.76724 0
M  V30 694 H 59.8102 0.238809 -5.87115 0
M  V30 695 H 61.3342 1.16308 -5.9942 0
M  V30 696 H 62.7482 -1.07905 -5.63054 0
M  V30 697 H 61.1452 -1.86689 -5.70322 0
M  V30 698 H 62.2152 -2.1889 -4.32684 0
M  V30 699 N 63.5583 1.46682 -0.576371 0
M  V30 700 C 64.5053 2.30241 0.160499 0
M  V30 701 C 65.4753 1.40233 0.890162 0
M  V30 702 O 66.6603 1.69186 0.882084 0
M  V30 703 C 63.8003 3.24578 1.1723 0
M  V30 704 C 62.9133 4.29684 0.446736 0
M  V30 705 C 62.0483 5.11154 1.44551 0
M  V30 706 C 61.0873 6.08015 0.70599 0
M  V30 707 N 60.2243 6.82376 1.65251 0
M  V30 708 H 65.0643 2.92727 -0.558127 0
M  V30 709 H 62.6013 1.44272 -0.287056 0
M  V30 710 H 64.5593 3.77711 1.77172 0
M  V30 711 H 63.1893 2.63916 1.85872 0
M  V30 712 H 62.2413 3.79458 -0.267594 0
M  V30 713 H 63.5533 4.98626 -0.131686 0
M  V30 714 H 62.7073 5.68533 2.11791 0
M  V30 715 H 61.4463 4.42158 2.05786 0
M  V30 716 H 60.4513 5.49796 0.0197725 0
M  V30 717 H 61.6763 6.79028 0.09912 0
M  V30 718 H 59.6223 6.16094 2.25308 0
M  V30 719 H 59.5393 7.47556 1.12673 0
M  V30 720 H 60.8073 7.44316 2.31546 0
M  V30 721 N 65.0364 0.313813 1.54444 0
M  V30 722 C 65.9664 -0.549454 2.26943 0
M  V30 723 C 66.9474 -1.12741 1.27372 0
M  V30 724 O 68.1324 -1.15436 1.56167 0
M  V30 725 C 65.2624 -1.71523 3.01989 0
M  V30 726 C 64.2164 -1.26703 4.08816 0
M  V30 727 C 63.5424 -2.51898 4.71647 0
M  V30 728 C 64.8424 -0.388962 5.2085 0
M  V30 729 H 66.5364 0.0552661 2.99349 0
M  V30 730 H 64.0824 0.0280207 1.43973 0
M  V30 731 H 66.0354 -2.32535 3.51433 0
M  V30 732 H 64.7594 -2.34639 2.27183 0
M  V30 733 H 63.4184 -0.679896 3.6024 0
M  V30 734 H 63.0664 -3.13356 3.93468 0
M  V30 735 H 62.7664 -2.22605 5.43802 0
M  V30 736 H 64.2904 -3.1369 5.23861 0
M  V30 737 H 65.7044 -0.905107 5.6611 0
M  V30 738 H 64.1014 -0.18924 5.99802 0
M  V30 739 H 65.1714 0.582699 4.81386 0
M  V30 740 N 66.5145 -1.57545 0.0417849 0
M  V30 741 C 67.4445 -2.14009 -0.933929 0
M  V30 742 C 68.4255 -1.05938 -1.33083 0
M  V30 743 O 69.6105 -1.33833 -1.40721 0
M  V30 744 C 66.7405 -2.67747 -2.21199 0
M  V30 745 C 65.6945 -3.80718 -1.95544 0
M  V30 746 C 65.0205 -4.20935 -3.29724 0
M  V30 747 C 66.3205 -5.06258 -1.28452 0
M  V30 748 H 68.0145 -2.95788 -0.463645 0
M  V30 749 H 65.5605 -1.42285 -0.221573 0
M  V30 750 H 67.5135 -3.05886 -2.89848 0
M  V30 751 H 66.2375 -1.83147 -2.70416 0
M  V30 752 H 64.8965 -3.43037 -1.2931 0
M  V30 753 H 64.5445 -3.33298 -3.76724 0
M  V30 754 H 64.2445 -4.9707 -3.13361 0
M  V30 755 H 65.7685 -4.61666 -3.9962 0
M  V30 756 H 67.1825 -5.41903 -1.8712 0
M  V30 757 H 65.5795 -5.87475 -1.22445 0
M  V30 758 H 66.6495 -4.84207 -0.259219 0
M  V30 759 N 67.9926 0.231505 -1.5589 0
M  V30 760 C 69.2696 0.981096 -1.69215 0
M  V30 761 C 69.6496 2.02799 -0.586164 0
M  V30 762 O 68.9976 2.24823 0.408253 0
M  V30 763 C 69.2076 1.60054 -3.10135 0
M  V30 764 C 70.5556 2.09658 -3.69227 0
M  V30 765 O 71.5796 1.69967 -3.13033 0
M  V30 766 O 70.4386 2.8258 -4.67772 0
M  V30 767 H 67.5326 0.457653 -0.688827 0
M  V30 768 H 70.0786 0.224073 -1.68214 0
M  V30 769 H 68.8506 0.844105 -3.82087 0
M  V30 770 H 68.4736 2.42336 -3.15212 0
M  V30 771 N 69.4707 1.49531 0.497807 0
M  V30 772 C 70.4007 1.6935 1.60757 0
M  V30 773 C 71.3817 0.542218 1.61227 0
M  V30 774 O 72.5667 0.778417 1.77917 0
M  V30 775 C 69.6967 1.76298 2.99226 0
M  V30 776 C 68.6507 2.91248 3.13622 0
M  V30 777 C 67.9767 2.83312 4.53474 0
M  V30 778 C 69.2767 4.3214 2.93346 0
M  V30 779 H 70.9707 2.62263 1.44425 0
M  V30 780 H 68.5167 1.26208 0.693367 0
M  V30 781 H 70.4697 1.88749 3.76765 0
M  V30 782 H 69.1937 0.799871 3.16654 0
M  V30 783 H 67.8527 2.78404 2.38509 0
M  V30 784 H 67.5007 1.84902 4.67782 0
M  V30 785 H 67.2007 3.60465 4.64046 0
M  V30 786 H 68.7247 2.97775 5.33069 0
M  V30 787 H 70.1387 4.45649 3.60652 0
M  V30 788 H 68.5357 5.1054 3.15387 0
M  V30 789 H 69.6057 4.46363 1.89441 0
M  V30 790 N 70.9488 -0.749086 1.3866 0
M  V30 791 C 72.1978 -1.50371 1.3443 0
M  V30 792 C 72.5108 -1.95503 -0.0616397 0
M  V30 793 O 73.7168 -2.70554 -0.226489 0
M  V30 794 C 72.1728 -2.71644 2.36088 0
M  V30 795 C 71.7808 -2.3352 3.82325 0
M  V30 796 C 73.5248 -3.49518 2.40909 0
M  V30 797 C 71.4318 -3.51431 4.75658 0
M  V30 798 H 70.3618 -0.564628 0.499712 0
M  V30 799 H 73.0128 -0.818449 1.64237 0
M  V30 800 H 71.3948 -3.42175 1.9933 0
M  V30 801 H 72.5688 -1.70627 4.28046 0
M  V30 802 H 70.8838 -1.6877 3.80665 0
M  V30 803 H 73.4808 -4.37197 3.07836 0
M  V30 804 H 73.8238 -3.90992 1.42937 0
M  V30 805 H 74.3568 -2.86005 2.76489 0
M  V30 806 H 71.0958 -3.15019 5.74842 0
M  V30 807 H 70.6158 -4.13352 4.34627 0
M  V30 808 H 72.2948 -4.17953 4.93887 0
M  V30 809 N 72.4269 -1.23603 -0.977757 0
M  V30 810 C 73.6739 -1.06971 -1.71941 0
M  V30 811 C 74.0019 0.393009 -1.90488 0
M  V30 812 O 73.2569 1.30719 -1.4564 0
M  V30 813 C 73.5559 -1.7433 -3.11999 0
M  V30 814 C 73.2219 -3.24252 -3.13323 0
M  V30 815 C 71.8839 -3.65156 -3.13392 0
M  V30 816 C 74.2359 -4.20141 -3.08433 0
M  V30 817 C 71.5639 -5.00403 -3.0629 0
M  V30 818 C 73.9159 -5.55384 -3.02873 0
M  V30 819 C 72.5799 -5.95647 -3.01265 0
M  V30 820 H 71.8499 -0.391433 -0.629175 0
M  V30 821 H 74.4969 -1.53572 -1.14403 0
M  V30 822 H 72.8019 -1.20096 -3.7294 0
M  V30 823 H 74.4989 -1.58936 -3.68158 0
M  V30 824 H 71.0889 -2.91692 -3.14029 0
M  V30 825 H 75.2729 -3.89547 -3.07517 0
M  V30 826 H 70.5289 -5.3081 -3.03399 0
M  V30 827 H 74.7029 -6.29398 -2.98046 0
M  V30 828 H 72.3299 -7.0041 -2.95516 0
M  V30 829 N 73.905 1.17692 -1.04816 0
M  V30 830 C 74.815 2.25229 -0.65643 0
M  V30 831 C 75.831 1.71018 0.320761 0
M  V30 832 O 77.007 2.00649 0.173805 0
M  V30 833 C 74.072 3.46684 -0.0332629 0
M  V30 834 C 73.133 4.15997 -1.06042 0
M  V30 835 C 72.366 5.31654 -0.466893 0
M  V30 836 O 72.589 5.65777 0.724758 0
M  V30 837 O 71.523 5.89831 -1.1993 0
M  V30 838 H 75.349 2.61016 -1.55255 0
M  V30 839 H 72.934 1.24919 -0.81949 0
M  V30 840 H 74.816 4.20234 0.313256 0
M  V30 841 H 73.491 3.12703 0.836566 0
M  V30 842 H 72.398 3.44482 -1.45886 0
M  V30 843 H 73.731 4.53996 -1.90127 0
M  V30 844 N 75.3831 0.828654 1.34056 0
M  V30 845 C 76.6311 0.41863 1.97717 0
M  V30 846 C 76.9521 -1.02314 1.66002 0
M  V30 847 O 76.2221 -1.71119 0.953683 0
M  V30 848 H 74.8021 0.151809 0.731412 0
M  V30 849 H 77.4641 1.05936 1.63596 0
M  V30 850 H 76.5601 0.542318 3.07352 0
M  V30 851 N 76.8612 -1.46375 0.584142 0
M  V30 852 C 78.1092 -2.01978 0.0701287 0
M  V30 853 C 78.4302 -1.4579 -1.295 0
M  V30 854 O 77.7002 -0.64314 -1.85042 0
M  V30 855 H 76.2802 -0.746648 0.0229345 0
M  V30 856 H 78.9422 -1.79461 0.760245 0
M  V30 857 H 78.0382 -3.121 0.0022064 0
M  V30 858 N 78.3393 -0.321999 -1.54275 0
M  V30 859 C 79.5883 0.281931 -1.9972 0
M  V30 860 C 79.9013 1.53369 -1.21397 0
M  V30 861 O 81.1073 2.21352 -1.57211 0
M  V30 862 C 79.5633 0.5529 -3.55628 0
M  V30 863 C 79.1713 -0.681721 -4.42783 0
M  V30 864 C 80.9153 1.11687 -4.09544 0
M  V30 865 C 78.8223 -0.382742 -5.9016 0
M  V30 866 H 77.7523 0.109124 -0.746062 0
M  V30 867 H 80.4033 -0.43398 -1.78294 0
M  V30 868 H 78.7853 1.32896 -3.73035 0
M  V30 869 H 79.9593 -1.45723 -4.37151 0
M  V30 870 H 78.2743 -1.1658 -3.99748 0
M  V30 871 H 80.8713 1.35515 -5.17242 0
M  V30 872 H 81.2143 2.06575 -3.61431 0
M  V30 873 H 81.7473 0.402032 -3.95763 0
M  V30 874 H 78.4863 -1.30076 -6.42464 0
M  V30 875 H 78.0063 0.355094 -5.98748 0
M  V30 876 H 79.6853 0.00800157 -6.47 0
M  V30 877 N 79.8174 1.5752 -0.0501392 0
M  V30 878 C 81.0944 1.83996 0.663685 0
M  V30 879 C 81.4744 0.938339 1.89099 0
M  V30 880 O 80.8224 -0.00087759 2.285 0
M  V30 881 C 81.0324 3.33702 1.02196 0
M  V30 882 C 82.3804 4.00691 1.40469 0
M  V30 883 O 83.4044 3.38321 1.11433 0
M  V30 884 O 82.2634 5.10658 1.94654 0
M  V30 885 H 79.3574 0.759385 0.32751 0
M  V30 886 H 81.9034 1.69514 -0.0794238 0
M  V30 887 H 80.6754 3.91015 0.149364 0
M  V30 888 H 80.2984 3.53368 1.82255 0
M  V30 889 N 81.2955 -0.223234 1.56011 0
M  V30 890 C 82.2425 -1.27664 1.92277 0
M  V30 891 C 83.2125 -1.46659 0.779763 0
M  V30 892 O 84.3975 -1.60256 1.03551 0
M  V30 893 C 81.5375 -2.62234 2.24338 0
M  V30 894 C 80.6505 -2.51051 3.51564 0
M  V30 895 C 79.7855 -3.78133 3.7308 0
M  V30 896 C 78.8245 -3.61665 4.93827 0
M  V30 897 N 77.9615 -4.80693 5.11741 0
M  V30 898 H 82.8015 -0.960358 2.82101 0
M  V30 899 H 80.3385 -0.462901 1.39627 0
M  V30 900 H 82.2965 -3.40596 2.40936 0
M  V30 901 H 80.9265 -2.91961 1.3769 0
M  V30 902 H 79.9785 -1.64132 3.43169 0
M  V30 903 H 81.2905 -2.34803 4.40079 0
M  V30 904 H 80.4445 -4.64938 3.89766 0
M  V30 905 H 79.1835 -3.97304 2.82844 0
M  V30 906 H 78.1885 -2.73244 4.77093 0
M  V30 907 H 79.4135 -3.43966 5.85546 0
M  V30 908 H 77.3595 -5.00181 4.24446 0
M  V30 909 H 77.2765 -4.67165 5.94384 0
M  V30 910 H 78.5445 -5.6893 5.3286 0
M  V30 911 N 82.7736 -1.49793 -0.48987 0
M  V30 912 C 84.1896 -1.36803 -0.822022 0
M  V30 913 C 84.3896 -0.409652 -1.97292 0
M  V30 914 O 83.4456 0.154614 -2.52026 0
M  V30 915 C 84.7586 -2.77768 -1.15175 0
M  V30 916 C 86.3066 -2.86549 -1.25931 0
M  V30 917 C 86.7816 -4.28306 -1.62228 0
M  V30 918 N 88.2726 -4.31169 -1.69256 0
M  V30 919 C 89.0076 -5.37832 -1.98807 0
M  V30 920 N 88.5036 -6.54726 -2.26507 0
M  V30 921 N 90.2966 -5.25258 -2.00152 0
M  V30 922 H 82.4476 -2.10691 0.268881 0
M  V30 923 H 84.7106 -0.946241 0.057728 0
M  V30 924 H 84.4166 -3.49648 -0.379335 0
M  V30 925 H 84.2906 -3.13836 -2.09253 0
M  V30 926 H 86.6776 -2.14899 -2.02243 0
M  V30 927 H 86.7586 -2.54049 -0.298776 0
M  V30 928 H 86.4026 -5.00486 -0.864622 0
M  V30 929 H 86.3326 -4.58279 -2.594 0
M  V30 930 H 88.8236 -3.4687 -1.49965 0
M  V30 931 H 89.1366 -7.31833 -2.48276 0
M  V30 932 H 87.4816 -6.57933 -2.23939 0
M  V30 933 H 90.6726 -4.32938 -1.77996 0
M  V30 934 H 90.8456 -6.08476 -2.22848 0
M  V30 935 N 84.2517 0.741722 -1.39055 0
M  V30 936 C 85.1987 1.85566 -1.37237 0
M  V30 937 C 86.1687 1.64457 -0.233072 0
M  V30 938 O 87.3537 1.85957 -0.427147 0
M  V30 939 C 84.4937 3.23004 -1.215 0
M  V30 940 C 83.6067 3.55864 -2.44918 0
M  V30 941 C 82.7417 4.82669 -2.21821 0
M  V30 942 C 81.7807 5.08351 -3.40948 0
M  V30 943 N 80.9177 6.26356 -3.17211 0
M  V30 944 H 85.7577 1.86455 -2.32462 0
M  V30 945 H 83.2947 0.911176 -1.15482 0
M  V30 946 H 85.2527 4.02331 -1.10389 0
M  V30 947 H 83.8827 3.21411 -0.29908 0
M  V30 948 H 82.9347 2.7129 -2.66657 0
M  V30 949 H 84.2467 3.70765 -3.33668 0
M  V30 950 H 83.4007 5.69962 -2.07914 0
M  V30 951 H 82.1397 4.69929 -1.30454 0
M  V30 952 H 81.1447 4.19522 -3.55361 0
M  V30 953 H 82.3697 5.22981 -4.33207 0
M  V30 954 H 80.3157 6.14917 -2.28502 0
M  V30 955 H 80.2327 6.41813 -3.99515 0
M  V30 956 H 81.5007 7.16506 -3.06984 0
M  V30 957 N 85.7298 1.2412 0.971189 0
M  V30 958 C 86.6598 1.05508 2.08304 0
M  V30 959 C 87.6408 -0.0308864 1.70072 0
M  V30 960 O 88.8258 0.135521 1.93727 0
M  V30 961 C 85.9558 0.655365 3.4106 0
M  V30 962 C 84.9098 1.68971 3.93234 0
M  V30 963 C 84.2358 1.14516 5.22293 0
M  V30 964 C 85.5358 3.08487 4.21465 0
M  V30 965 H 87.2298 1.98507 2.24132 0
M  V30 966 H 84.7758 0.955821 1.07704 0
M  V30 967 H 86.7288 0.51217 4.18276 0
M  V30 968 H 85.4528 -0.31032 3.25122 0
M  V30 969 H 84.1118 1.82106 3.18171 0
M  V30 970 H 83.7598 0.170189 5.02712 0
M  V30 971 H 83.4598 1.83635 5.58168 0
M  V30 972 H 84.9838 1.01401 6.02121 0
M  V30 973 H 86.3978 2.98601 4.89398 0
M  V30 974 H 84.7948 3.74926 4.68562 0
M  V30 975 H 85.8648 3.56787 3.28376 0
M  V30 976 N 87.2079 -1.17134 1.05439 0
M  V30 977 C 88.4539 -1.87733 0.767077 0
M  V30 978 C 88.7869 -1.8098 -0.704253 0
M  V30 979 O 88.0619 -1.21951 -1.5152 0
M  V30 980 C 88.3449 -3.37659 1.25133 0
M  V30 981 C 88.1979 -3.53149 2.78578 0
M  V30 982 C 89.5169 -4.31768 0.852324 0
M  V30 983 H 86.6359 -0.681687 0.280129 0
M  V30 984 H 89.2779 -1.37732 1.30881 0
M  V30 985 H 87.4279 -3.80373 0.790469 0
M  V30 986 H 89.0999 -3.19434 3.32806 0
M  V30 987 H 87.3429 -2.95345 3.17732 0
M  V30 988 H 88.0139 -4.58403 3.07523 0
M  V30 989 H 90.4899 -3.96909 1.24911 0
M  V30 990 H 89.3659 -5.35199 1.21873 0
M  V30 991 H 89.6269 -4.41429 -0.243485 0
M  V30 992 N 88.686 -0.835752 -1.33615 0
M  V30 993 C 89.619 -0.211815 -2.27215 0
M  V30 994 C 90.597 0.639249 -1.49507 0
M  V30 995 O 91.781 0.600193 -1.78689 0
M  V30 996 C 88.908 0.702893 -3.31326 0
M  V30 997 C 87.954 -0.0723049 -4.26439 0
M  V30 998 S 88.787 -1.42811 -5.16106 0
M  V30 999 C 89.943 -0.518613 -6.23748 0
M  V30 1000 H 90.176 -1.00533 -2.79786 0
M  V30 1001 H 87.709 -0.632336 -1.40858 0
M  V30 1002 H 89.667 1.22505 -3.91794 0
M  V30 1003 H 88.328 1.47004 -2.77576 0
M  V30 1004 H 87.521 0.62359 -5.00127 0
M  V30 1005 H 87.123 -0.525424 -3.70291 0
M  V30 1006 H 89.415 0.284778 -6.76901 0
M  V30 1007 H 90.358 -1.22556 -6.97413 0
M  V30 1008 H 90.766 -0.101344 -5.64409 0
M  V30 1009 N 90.1641 1.46063 -0.591896 0
M  V30 1010 C 91.1121 2.32124 0.148739 0
M  V30 1011 C 92.1061 1.45035 0.875286 0
M  V30 1012 O 93.3121 1.61609 0.792632 0
M  V30 1013 H 89.6871 0.749024 0.066832 0
M  V30 1014 H 91.6581 2.92392 -0.595783 0
M  V30 1015 C 90.4071 3.28373 1.1431 0
M  V30 1016 H 89.7301 3.95371 0.59346 0
M  V30 1017 H 91.1701 3.91352 1.63155 0
M  V30 1018 C 89.6291 2.54393 2.20875 0
M  V30 1019 O 90.1591 2.31373 3.28374 0
M  V30 1020 N 88.3651 2.14797 1.95731 0
M  V30 1021 H 87.9121 2.33719 1.08319 0
M  V30 1022 H 87.8701 1.65619 2.67241 0
M  V30 1023 N 91.6422 0.330177 1.54103 0
M  V30 1024 C 92.8902 -0.269871 2.0029 0
M  V30 1025 C 93.2112 -1.52133 1.21986 0
M  V30 1026 O 92.4812 -1.93212 0.323438 0
M  V30 1027 H 91.0612 -0.10271 0.739905 0
M  V30 1028 H 93.7232 0.448249 1.89675 0
M  V30 1029 H 92.8192 -0.52166 3.07709 0
M  V30 1030 N 93.1203 -1.57491 0.0584922 0
M  V30 1031 C 94.5363 -1.56792 -0.298091 0
M  V30 1032 C 94.7363 -1.06679 -1.70944 0
M  V30 1033 O 93.7923 -0.726672 -2.41818 0
M  V30 1034 C 95.1053 -3.00461 -0.119879 0
M  V30 1035 C 96.6533 -3.1242 -0.190428 0
M  V30 1036 C 97.1283 -4.57982 -0.0406567 0
M  V30 1037 N 98.6193 -4.63099 -0.0966958 0
M  V30 1038 C 99.3543 -5.734 -0.00502943 0
M  V30 1039 N 98.8503 -6.9266 0.139402 0
M  V30 1040 N 100.643 -5.62067 -0.0611391 0
M  V30 1041 H 92.7943 -1.88386 0.98105 0
M  V30 1042 H 95.0573 -0.867865 0.381463 0
M  V30 1043 H 94.7633 -3.41187 0.85349 0
M  V30 1044 H 94.6373 -3.66843 -0.877833 0
M  V30 1045 H 97.0243 -2.71589 -1.15427 0
M  V30 1046 H 97.1053 -2.48702 0.598405 0
M  V30 1047 H 96.7493 -4.995 0.919897 0
M  V30 1048 H 96.6793 -5.19715 -0.848727 0
M  V30 1049 H 99.1703 -3.77331 -0.207277 0
M  V30 1050 H 99.4833 -7.72536 0.201855 0
M  V30 1051 H 97.8283 -6.94781 0.174586 0
M  V30 1052 H 101.019 -4.67782 -0.172583 0
M  V30 1053 H 101.192 -6.47999 0.0137562 0
M  V30 1054 N 94.5984 0.214957 -1.56127 0
M  V30 1055 C 95.8444 0.939762 -1.79712 0
M  V30 1056 C 96.1774 1.83723 -0.629247 0
M  V30 1057 O 95.4524 1.90925 0.371197 0
M  V30 1058 C 95.7354 1.77306 -3.13424 0
M  V30 1059 C 95.5884 0.90164 -4.40671 0
M  V30 1060 C 96.9074 2.74956 -3.43638 0
M  V30 1061 H 94.0264 0.340214 -0.653776 0
M  V30 1062 H 96.6684 0.20824 -1.88855 0
M  V30 1063 H 94.8184 2.39673 -3.0576 0
M  V30 1064 H 96.4904 0.294206 -4.60361 0
M  V30 1065 H 94.7334 0.207368 -4.33304 0
M  V30 1066 H 95.4044 1.51923 -5.30682 0
M  V30 1067 H 97.8804 2.22724 -3.51473 0
M  V30 1068 H 96.7564 3.30358 -4.38355 0
M  V30 1069 H 97.0174 3.53023 -2.66134 0
M  V30 1070 N 96.0765 1.50051 0.48192 0
M  V30 1071 C 97.3535 1.51009 1.2432 0
M  V30 1072 C 97.7335 0.248587 2.09631 0
M  V30 1073 O 97.0815 -0.768409 2.15192 0
M  V30 1074 C 97.2915 2.79981 2.08355 0
M  V30 1075 C 98.6395 3.3022 2.66908 0
M  V30 1076 O 99.6635 2.81228 2.18607 0
M  V30 1077 O 98.5225 4.15595 3.54884 0
M  V30 1078 H 95.6165 0.605239 0.563573 0
M  V30 1079 H 98.1625 1.62332 0.494627 0
M  V30 1080 H 96.9345 3.63275 1.45419 0
M  V30 1081 H 96.5575 2.7161 2.90368 0
M  V30 1082 N 97.5546 -0.734337 1.39446 0
M  V30 1083 C 98.8036 -1.48937 1.36017 0
M  V30 1084 C 99.1166 -1.95557 -0.0409005 0
M  V30 1085 O 100.323 -2.70779 -0.19778 0
M  V30 1086 C 98.7786 -2.69125 2.38955 0
M  V30 1087 C 98.3866 -2.29452 3.8478 0
M  V30 1088 C 100.131 -3.46944 2.44603 0
M  V30 1089 C 98.0376 -3.46366 4.79358 0
M  V30 1090 H 96.9676 -0.559296 0.505672 0
M  V30 1091 H 99.6186 -0.800983 1.65095 0
M  V30 1092 H 98.0006 -3.40041 2.02948 0
M  V30 1093 H 99.1746 -1.66077 4.29831 0
M  V30 1094 H 97.4896 -1.64723 3.82433 0
M  V30 1095 H 100.087 -4.33907 3.12456 0
M  V30 1096 H 100.43 -3.89454 1.47076 0
M  V30 1097 H 100.963 -2.83056 2.79507 0
M  V30 1098 H 97.7016 -3.08905 5.78151 0
M  V30 1099 H 97.2216 -4.08719 4.38986 0
M  V30 1100 H 98.9006 -4.12691 4.98292 0
M  V30 1101 N 99.0327 -1.24633 -0.964593 0
M  V30 1102 C 99.9957 -1.0424 -2.04124 0
M  V30 1103 C 100.996 0.00137563 -1.608 0
M  V30 1104 O 102.186 -0.239883 -1.7254 0
M  V30 1105 C 99.3177 -0.580588 -3.3592 0
M  V30 1106 H 100.511 -1.99803 -2.23649 0
M  V30 1107 H 98.0637 -1.06899 -1.14027 0
M  V30 1108 H 98.7987 0.3781 -3.22088 0
M  V30 1109 H 98.5837 -1.33398 -3.6871 0
M  V30 1110 H 100.074 -0.459034 -4.15069 0
M  V30 1111 N 100.511 1.16574 -1.06058 0
M  V30 1112 C 101.441 2.23057 -0.690488 0
M  V30 1113 C 102.422 1.67141 0.315901 0
M  V30 1114 O 103.607 1.93253 0.191556 0
M  V30 1115 C 100.737 3.47222 -0.073625 0
M  V30 1116 C 99.6908 4.16016 -1.00573 0
M  V30 1117 C 99.0168 5.34104 -0.252289 0
M  V30 1118 C 100.317 4.67264 -2.33371 0
M  V30 1119 H 102.011 2.54271 -1.58072 0
M  V30 1120 H 99.5568 1.22218 -0.76149 0
M  V30 1121 H 101.51 4.20939 0.19714 0
M  V30 1122 H 100.234 3.15302 0.85161 0
M  V30 1123 H 98.8928 3.44223 -1.2612 0
M  V30 1124 H 98.5408 4.98437 0.675988 0
M  V30 1125 H 98.2408 5.81072 -0.873455 0
M  V30 1126 H 99.7648 6.10599 0.0109857 0
M  V30 1127 H 101.179 5.32573 -2.12223 0
M  V30 1128 H 99.5758 5.24843 -2.90963 0
M  V30 1129 H 100.646 3.83602 -2.96611 0
M  V30 1130 N 101.989 0.842826 1.3317 0
M  V30 1131 C 103.236 0.440447 1.97652 0
M  V30 1132 C 103.564 -1.00123 1.6675 0
M  V30 1133 O 102.819 -1.7155 0.941761 0
M  V30 1134 C 103.118 0.612607 3.52111 0
M  V30 1135 C 102.784 2.02297 4.02972 0
M  V30 1136 C 101.446 2.40874 4.16573 0
M  V30 1137 C 103.798 2.94402 4.30089 0
M  V30 1138 C 101.126 3.70852 4.54627 0
M  V30 1139 C 103.478 4.23865 4.69597 0
M  V30 1140 C 102.142 4.62392 4.81404 0
M  V30 1141 H 101.412 0.161171 0.72326 0
M  V30 1142 H 104.059 1.07061 1.58777 0
M  V30 1143 H 102.364 -0.100849 3.9167 0
M  V30 1144 H 104.061 0.2815 4.00011 0
M  V30 1145 H 100.651 1.71338 3.92863 0
M  V30 1146 H 104.835 2.65835 4.19101 0
M  V30 1147 H 100.091 4.00501 4.61962 0
M  V30 1148 H 104.265 4.95306 4.89536 0
M  V30 1149 H 101.892 5.63154 5.10648 0
M  V30 1150 N 103.467 -1.45747 0.599634 0
M  V30 1151 C 104.692 -2.07178 0.0960198 0
M  V30 1152 C 105.117 -1.44268 -1.207 0
M  V30 1153 O 104.475 -0.532503 -1.73303 0
M  V30 1154 C 104.523 -3.60579 -0.0385348 0
M  V30 1155 O 103.627 -3.97713 -1.0908 0
M  V30 1156 H 102.968 -0.660251 0.0704593 0
M  V30 1157 H 105.498 -1.87124 0.827385 0
M  V30 1158 H 105.508 -4.07298 -0.239304 0
M  V30 1159 H 104.183 -4.05756 0.912947 0
M  V30 1160 H 102.76 -3.62678 -0.867135 0
M  V30 1161 N 104.945 -0.338344 -1.53925 0
M  V30 1162 C 106.173 0.261298 -2.05243 0
M  V30 1163 C 106.588 1.44625 -1.21363 0
M  V30 1164 O 105.945 1.80811 -0.247736 0
M  V30 1165 C 105.996 0.681412 -3.5502 0
M  V30 1166 O 105.717 -0.456414 -4.35716 0
M  V30 1167 C 107.218 1.34232 -4.22489 0
M  V30 1168 H 104.438 0.0513685 -0.669031 0
M  V30 1169 H 106.982 -0.488822 -1.98572 0
M  V30 1170 H 105.137 1.38148 -3.61931 0
M  V30 1171 H 105.551 -0.122564 -5.24357 0
M  V30 1172 H 107.025 1.58708 -5.28693 0
M  V30 1173 H 107.502 2.29426 -3.74514 0
M  V30 1174 H 108.108 0.684424 -4.19757 0
M  V30 1175 N 106.423 1.57458 -0.0668435 0
M  V30 1176 C 107.672 1.92477 0.602947 0
M  V30 1177 C 107.985 0.948419 1.71068 0
M  V30 1178 O 109.191 1.19124 2.43971 0
M  V30 1179 C 107.647 3.41903 1.12383 0
M  V30 1180 C 107.255 4.47975 0.04737 0
M  V30 1181 C 108.999 3.85931 1.76797 0
M  V30 1182 C 106.906 5.88529 0.582022 0
M  V30 1183 H 105.836 0.718387 0.22899 0
M  V30 1184 H 108.487 1.82978 -0.138276 0
M  V30 1185 H 106.869 3.46459 1.91787 0
M  V30 1186 H 108.043 4.55029 -0.726978 0
M  V30 1187 H 106.358 4.13384 -0.500243 0
M  V30 1188 H 108.955 4.88322 2.17821 0
M  V30 1189 H 109.298 3.23029 2.62599 0
M  V30 1190 H 109.831 3.83958 1.04024 0
M  V30 1191 H 106.57 6.55065 -0.238721 0
M  V30 1192 H 106.09 5.85004 1.324 0
M  V30 1193 H 107.769 6.38258 1.05999 0
M  V30 1194 N 107.901 -0.206675 1.56239 0
M  V30 1195 C 108.851 -1.26 1.90021 0
M  V30 1196 C 109.835 -1.41566 0.764721 0
M  V30 1197 O 111.027 -1.44131 1.02739 0
M  V30 1198 C 108.156 -2.6073 2.23326 0
M  V30 1199 C 107.242 -2.49005 3.43304 0
M  V30 1200 N 107.633 -2.06946 4.61527 0
M  V30 1201 C 105.931 -2.79927 3.47213 0
M  V30 1202 C 106.632 -2.06832 5.43687 0
M  V30 1203 N 105.608 -2.47892 4.83788 0
M  V30 1204 H 109.41 -0.925955 2.78932 0
M  V30 1205 H 106.924 -0.415172 1.57003 0
M  V30 1206 H 108.921 -3.36798 2.45708 0
M  V30 1207 H 107.581 -2.94968 1.35735 0
M  V30 1208 H 108.592 -1.77839 4.86409 0
M  V30 1209 H 105.269 -3.18438 2.70006 0
M  V30 1210 H 106.659 -1.76312 6.48354 0
M  V30 1211 N 109.379 -1.50304 -0.473955 0
M  V30 1212 C 110.795 -1.37667 -0.807466 0
M  V30 1213 C 110.995 -0.430555 -1.96846 0
M  V30 1214 O 110.051 0.127874 -2.52176 0
M  V30 1215 C 111.364 -2.78974 -1.12223 0
M  V30 1216 C 112.912 -2.87868 -1.22885 0
M  V30 1217 C 113.387 -4.30003 -1.57676 0
M  V30 1218 N 114.878 -4.3294 -1.64673 0
M  V30 1219 C 115.613 -5.3991 -1.93091 0
M  V30 1220 N 115.109 -6.57092 -2.1955 0
M  V30 1221 N 116.902 -5.27351 -1.94569 0
M  V30 1222 H 109.053 -2.10394 0.291212 0
M  V30 1223 H 111.316 -0.945575 0.0677609 0
M  V30 1224 H 111.022 -3.50031 -0.342229 0
M  V30 1225 H 110.896 -3.16038 -2.05913 0
M  V30 1226 H 113.283 -2.17032 -1.99953 0
M  V30 1227 H 113.364 -2.54352 -0.271814 0
M  V30 1228 H 113.008 -5.01375 -0.81149 0
M  V30 1229 H 112.938 -4.61004 -2.54525 0
M  V30 1230 H 115.429 -3.48441 -1.46277 0
M  V30 1231 H 115.742 -7.34425 -2.405 0
M  V30 1232 H 114.087 -6.60272 -2.16948 0
M  V30 1233 H 117.278 -4.34801 -1.73394 0
M  V30 1234 H 117.451 -6.10805 -2.16381 0
M  V30 1235 N 110.857 0.726932 -1.39834 0
M  V30 1236 C 112.103 1.48884 -1.377 0
M  V30 1237 C 112.436 1.94185 0.0244852 0
M  V30 1238 O 111.711 1.67361 0.990986 0
M  V30 1239 C 111.994 2.72288 -2.3565 0
M  V30 1240 C 111.847 2.32956 -3.84775 0
M  V30 1241 C 113.166 3.74414 -2.31306 0
M  V30 1242 H 110.285 0.540062 -0.5015 0
M  V30 1243 H 112.927 0.830547 -1.70886 0
M  V30 1244 H 111.077 3.28457 -2.07481 0
M  V30 1245 H 112.749 1.82356 -4.23726 0
M  V30 1246 H 110.992 1.65088 -4.01159 0
M  V30 1247 H 111.663 3.21362 -4.4881 0
M  V30 1248 H 114.139 3.27849 -2.56231 0
M  V30 1249 H 113.015 4.58414 -3.01907 0
M  V30 1250 H 113.276 4.21909 -1.32081 0
M  V30 1251 N 112.336 1.25143 0.95797 0
M  V30 1252 C 113.268 1.01023 2.05735 0
M  V30 1253 C 114.281 -0.0236902 1.62783 0
M  V30 1254 O 115.47 0.21448 1.77207 0
M  V30 1255 C 112.57 0.504595 3.35122 0
M  V30 1256 C 111.743 1.6039 4.06932 0
M  V30 1257 C 110.802 1.09922 5.14591 0
M  V30 1258 O 109.828 1.79293 5.40225 0
M  V30 1259 N 111.03 -0.0612545 5.80468 0
M  V30 1260 H 113.795 1.95683 2.26998 0
M  V30 1261 H 111.356 1.16303 1.12629 0
M  V30 1262 H 113.348 0.151516 4.04416 0
M  V30 1263 H 111.918 -0.347989 3.10657 0
M  V30 1264 H 111.138 2.12872 3.31782 0
M  V30 1265 H 112.426 2.34252 4.51667 0
M  V30 1266 H 111.824 -0.640985 5.62057 0
M  V30 1267 H 110.381 -0.355395 6.5083 0
M  V30 1268 N 113.814 -1.1601 1.06675 0
M  V30 1269 C 114.744 -2.22688 0.702307 0
M  V30 1270 C 115.725 -1.67306 -0.307032 0
M  V30 1271 O 116.91 -1.93352 -0.181305 0
M  V30 1272 C 114.04 -3.47178 0.092038 0
M  V30 1273 C 112.994 -4.15477 1.02777 0
M  V30 1274 C 112.32 -5.33963 0.28061 0
M  V30 1275 C 113.62 -4.66019 2.35846 0
M  V30 1276 H 115.314 -2.53429 1.59419 0
M  V30 1277 H 112.86 -1.21813 0.767961 0
M  V30 1278 H 114.813 -4.21037 -0.174814 0
M  V30 1279 H 113.537 -3.15749 -0.834877 0
M  V30 1280 H 112.196 -3.43549 1.27944 0
M  V30 1281 H 111.844 -4.98788 -0.649545 0
M  V30 1282 H 111.544 -5.806 0.904258 0
M  V30 1283 H 113.068 -6.10596 0.021396 0
M  V30 1284 H 114.482 -5.3144 2.15045 0
M  V30 1285 H 112.879 -5.23293 2.93743 0
M  V30 1286 H 113.949 -3.82023 2.98641 0
M  V30 1287 N 115.292 -0.849877 -1.32721 0
M  V30 1288 C 116.703 -0.506188 -1.79707 0
M  V30 1289 C 117.054 0.975627 -1.70223 0
M  V30 1290 O 116.179 1.76078 -1.25799 0
M  V30 1291 C 116.774 -0.912044 -3.26293 0
M  V30 1292 C 115.333 -0.620326 -3.71253 0
M  V30 1293 C 114.48 -1.11439 -2.53922 0
M  V30 1294 H 117.431 -1.03754 -1.20087 0
M  V30 1295 H 117.452 -0.226493 -3.79825 0
M  V30 1296 H 116.964 -1.99057 -3.33164 0
M  V30 1297 H 115.065 0.447674 -3.69901 0
M  V30 1298 H 115.178 -1.18327 -4.64258 0
M  V30 1299 H 113.542 -0.534834 -2.49021 0
M  V30 1300 H 114.325 -2.19992 -2.6355 0
M  V30 1301 N 116.77 1.45427 -0.607355 0
M  V30 1302 C 117.995 2.07124 -0.107006 0
M  V30 1303 C 118.42 1.44906 1.19933 0
M  V30 1304 O 117.778 0.541687 1.73019 0
M  V30 1305 C 117.826 3.60595 0.0194119 0
M  V30 1306 O 116.93 3.98285 1.0697 0
M  V30 1307 H 116.271 0.659868 -0.0739597 0
M  V30 1308 H 118.801 1.86683 -0.837297 0
M  V30 1309 H 118.811 4.07419 0.2177 0
M  V30 1310 H 117.486 4.05266 -0.934453 0
M  V30 1311 H 116.063 3.63133 0.847889 0
M  V30 1312 N 118.248 0.346503 1.53744 0
M  V30 1313 C 119.496 -0.248612 2.00565 0
M  V30 1314 C 119.817 -1.5083 1.23593 0
M  V30 1315 O 119.087 -1.92858 0.343912 0
M  V30 1316 H 117.667 -0.0948564 0.740953 0
M  V30 1317 H 120.329 0.468341 1.89189 0
M  V30 1318 H 119.425 -0.488994 3.08245 0
M  V30 1319 N 119.726 -1.57421 0.075193 0
M  V30 1320 C 120.951 -1.98364 -0.605515 0
M  V30 1321 C 121.376 -0.953383 -1.62149 0
M  V30 1322 O 120.734 0.0806053 -1.81121 0
M  V30 1323 C 120.782 -3.38332 -1.24756 0
M  V30 1324 O 119.886 -3.37959 -2.36342 0
M  V30 1325 H 119.227 -0.645553 -0.155428 0
M  V30 1326 H 121.757 -2.04044 0.150714 0
M  V30 1327 H 121.767 -3.75591 -1.5936 0
M  V30 1328 H 120.442 -4.12846 -0.503129 0
M  V30 1329 H 119.019 -3.12474 -2.03506 0
M  V30 1330 N 121.204 0.198386 -1.56346 0
M  V30 1331 C 122.451 0.919286 -1.80431 0
M  V30 1332 C 122.779 1.83393 -0.647866 0
M  V30 1333 O 122.034 1.92236 0.366556 0
M  V30 1334 C 122.333 1.77031 -3.10475 0
M  V30 1335 C 121.999 1.00693 -4.39513 0
M  V30 1336 C 120.661 0.796145 -4.74568 0
M  V30 1337 C 123.013 0.469559 -5.19081 0
M  V30 1338 C 120.341 0.0364588 -5.86689 0
M  V30 1339 C 122.693 -0.2769 -6.31994 0
M  V30 1340 C 121.357 -0.49873 -6.65634 0
M  V30 1341 H 120.627 0.336391 -0.660244 0
M  V30 1342 H 123.274 0.185872 -1.90596 0
M  V30 1343 H 121.579 2.5723 -2.95533 0
M  V30 1344 H 123.276 2.33065 -3.26315 0
M  V30 1345 H 119.866 1.18122 -4.12001 0
M  V30 1346 H 124.05 0.619816 -4.92414 0
M  V30 1347 H 119.306 -0.145412 -6.11227 0
M  V30 1348 H 123.48 -0.700684 -6.92866 0
M  V30 1349 H 121.107 -1.0893 -7.52355 0
M  V30 1350 N 122.682 1.50554 0.465978 0
M  V30 1351 C 123.907 1.65838 1.24549 0
M  V30 1352 C 124.332 0.343486 1.84937 0
M  V30 1353 O 123.69 -0.69324 1.67523 0
M  V30 1354 C 123.738 2.75533 2.32624 0
M  V30 1355 O 122.842 2.37142 3.37398 0
M  V30 1356 H 122.183 0.553893 0.366194 0
M  V30 1357 H 124.713 1.96959 0.553927 0
M  V30 1358 H 124.723 2.98763 2.77857 0
M  V30 1359 H 123.398 3.70962 1.88043 0
M  V30 1360 H 121.975 2.24377 2.97841 0
M  V30 1361 N 124.16 -0.719506 1.40217 0
M  V30 1362 C 125.571 -1.29848 1.34151 0
M  V30 1363 C 125.922 -1.96196 0.0131349 0
M  V30 1364 O 125.047 -1.973 -0.88892 0
M  V30 1365 C 125.642 -2.36118 2.42968 0
M  V30 1366 C 124.201 -2.8965 2.40374 0
M  V30 1367 C 123.348 -1.63393 2.24049 0
M  V30 1368 H 126.299 -0.51591 1.5008 0
M  V30 1369 H 126.32 -3.16871 2.10649 0
M  V30 1370 H 125.832 -1.878 3.39636 0
M  V30 1371 H 123.933 -3.42208 1.47392 0
M  V30 1372 H 124.046 -3.4171 3.35814 0
M  V30 1373 H 122.41 -1.88312 1.71495 0
M  V30 1374 H 123.193 -1.17104 3.2271 0
M  V30 1375 N 125.638 -1.25649 -0.95132 0
M  V30 1376 C 126.585 -1.06323 -2.04851 0
M  V30 1377 C 127.555 0.0286491 -1.66075 0
M  V30 1378 O 128.74 -0.12917 -1.90362 0
M  V30 1379 C 125.88 -0.691529 -3.381 0
M  V30 1380 C 124.993 -1.85861 -3.89974 0
M  V30 1381 C 124.128 -1.43096 -5.11563 0
M  V30 1382 C 123.167 -2.56696 -5.55674 0
M  V30 1383 N 122.304 -2.14684 -6.68472 0
M  V30 1384 H 127.144 -2.00222 -2.20715 0
M  V30 1385 H 124.681 -0.997027 -1.08156 0
M  V30 1386 H 126.639 -0.456963 -4.1469 0
M  V30 1387 H 125.269 0.210474 -3.22113 0
M  V30 1388 H 124.321 -2.20639 -3.09875 0
M  V30 1389 H 125.633 -2.71161 -4.18657 0
M  V30 1390 H 124.787 -1.15624 -5.9558 0
M  V30 1391 H 123.526 -0.548722 -4.84603 0
M  V30 1392 H 122.531 -2.84909 -4.7022 0
M  V30 1393 H 123.756 -3.45503 -5.8464 0
M  V30 1394 H 121.702 -1.28881 -6.43215 0
M  V30 1395 H 121.619 -2.9353 -6.96689 0
M  V30 1396 H 122.887 -1.90397 -7.5589 0
M  V30 1397 N 127.117 1.15442 -1.07289 0
M  V30 1398 C 128.049 2.19773 -0.650585 0
M  V30 1399 C 129.062 1.60076 0.296572 0
M  V30 1400 O 130.251 1.78293 0.0859905 0
M  V30 1401 C 127.351 3.38838 0.0650398 0
M  V30 1402 C 126.524 4.2808 -0.898141 0
M  V30 1403 C 125.583 5.2574 -0.219926 0
M  V30 1404 O 124.609 5.62654 -0.860773 0
M  V30 1405 N 125.811 5.71205 1.03466 0
M  V30 1406 H 128.576 2.56622 -1.54808 0
M  V30 1407 H 126.137 1.30551 -0.957494 0
M  V30 1408 H 128.129 4.01222 0.529415 0
M  V30 1409 H 126.699 3.00409 0.864466 0
M  V30 1410 H 125.919 3.62804 -1.54165 0
M  V30 1411 H 127.207 4.84577 -1.5512 0
M  V30 1412 H 126.605 5.43325 1.57526 0
M  V30 1413 H 125.162 6.35633 1.44272 0
M  V30 1414 N 128.595 0.856903 1.32268 0
M  V30 1415 C 129.844 0.457599 1.96441 0
M  V30 1416 C 130.157 -0.992426 1.68553 0
M  V30 1417 O 131.363 -1.49727 2.26482 0
M  V30 1418 C 129.819 0.767358 3.51624 0
M  V30 1419 C 129.427 2.23326 3.88367 0
M  V30 1420 C 131.171 0.435887 4.22256 0
M  V30 1421 C 129.078 2.48613 5.36606 0
M  V30 1422 H 128.008 0.167387 0.735185 0
M  V30 1423 H 130.659 1.048 1.5063 0
M  V30 1424 H 129.041 0.106367 3.95857 0
M  V30 1425 H 130.215 2.93623 3.55137 0
M  V30 1426 H 128.53 2.52948 3.30766 0
M  V30 1427 H 131.127 0.602202 5.31298 0
M  V30 1428 H 131.47 -0.622672 4.11617 0
M  V30 1429 H 132.003 1.05286 3.83614 0
M  V30 1430 H 128.742 3.53101 5.52268 0
M  V30 1431 H 128.262 1.82896 5.71235 0
M  V30 1432 H 129.941 2.32676 6.03714 0
M  V30 1433 N 130.073 -1.45103 0.615059 0
M  V30 1434 C 131.489 -1.57137 0.279322 0
M  V30 1435 C 131.689 -1.60523 -1.21797 0
M  V30 1436 O 130.745 -1.53956 -2.00134 0
M  V30 1437 C 132.058 -2.85062 0.957083 0
M  V30 1438 C 133.606 -2.98749 0.933706 0
M  V30 1439 C 134.081 -4.29455 1.59162 0
M  V30 1440 N 135.572 -4.36231 1.55746 0
M  V30 1441 C 136.307 -5.36051 2.0356 0
M  V30 1442 N 135.803 -6.42367 2.59494 0
M  V30 1443 N 137.596 -5.27456 1.94284 0
M  V30 1444 H 129.747 -1.41148 1.58717 0
M  V30 1445 H 132.01 -0.675331 0.665306 0
M  V30 1446 H 131.716 -2.88488 2.01166 0
M  V30 1447 H 131.59 -3.7407 0.48494 0
M  V30 1448 H 133.977 -2.94886 -0.112347 0
M  V30 1449 H 134.058 -2.11132 1.44419 0
M  V30 1450 H 133.702 -4.34077 2.63704 0
M  V30 1451 H 133.632 -5.15901 1.0561 0
M  V30 1452 H 136.123 -3.60011 1.14893 0
M  V30 1453 H 136.436 -7.14793 2.93752 0
M  V30 1454 H 134.781 -6.43097 2.63537 0
M  V30 1455 H 137.972 -4.43308 1.5032 0
M  V30 1456 H 138.145 -6.05099 2.3186 0
M  V30 1457 N 131.551 -0.354651 -1.53558 0
M  V30 1458 C 132.514 0.484566 -2.24019 0
M  V30 1459 C 133.514 1.01861 -1.24422 0
M  V30 1460 O 134.704 0.906097 -1.4878 0
M  V30 1461 C 131.836 1.67615 -2.96847 0
M  V30 1462 H 133.029 -0.131843 -2.9961 0
M  V30 1463 H 130.582 -0.106165 -1.55939 0
M  V30 1464 H 131.317 2.33095 -2.25471 0
M  V30 1465 H 131.102 1.30029 -3.69912 0
M  V30 1466 H 132.592 2.27114 -3.50441 0
M  V30 1467 N 133.029 1.57378 -0.0835403 0
M  V30 1468 C 134.445 1.57246 0.273109 0
M  V30 1469 C 134.645 1.09385 1.69225 0
M  V30 1470 O 133.701 0.765051 2.40631 0
M  V30 1471 C 135.014 3.00614 0.0720628 0
M  V30 1472 C 136.562 3.12684 0.1407 0
M  V30 1473 C 137.037 4.57989 -0.0322094 0
M  V30 1474 N 138.528 4.63194 0.0230085 0
M  V30 1475 C 139.263 5.73335 -0.0861941 0
M  V30 1476 N 138.759 6.9235 -0.24958 0
M  V30 1477 N 140.552 5.62093 -0.0282886 0
M  V30 1478 H 132.703 1.86801 -1.0109 0
M  V30 1479 H 134.966 0.861687 -0.395222 0
M  V30 1480 H 134.672 3.39786 -0.907662 0
M  V30 1481 H 134.546 3.68193 0.81936 0
M  V30 1482 H 136.933 2.73391 1.11092 0
M  V30 1483 H 137.014 2.47719 -0.637896 0
M  V30 1484 H 136.658 4.97973 -0.999247 0
M  V30 1485 H 136.588 5.21 0.765937 0
M  V30 1486 H 139.079 3.77613 0.14722 0
M  V30 1487 H 139.392 7.72117 -0.324733 0
M  V30 1488 H 137.737 6.94415 -0.285097 0
M  V30 1489 H 140.928 4.67997 0.0981408 0
M  V30 1490 H 141.101 6.47895 -0.116845 0
M  V30 1491 N 134.507 -0.190092 1.56449 0
M  V30 1492 C 135.754 -0.909705 1.80916 0
M  V30 1493 C 136.082 -1.83047 0.657583 0
M  V30 1494 O 135.337 -1.92428 -0.356356 0
M  V30 1495 C 135.636 -1.75382 3.1141 0
M  V30 1496 C 135.302 -0.983606 4.40041 0
M  V30 1497 C 133.964 -0.770967 4.74984 0
M  V30 1498 C 136.316 -0.442024 5.19322 0
M  V30 1499 C 133.644 -0.0053448 5.867 0
M  V30 1500 C 135.996 0.310412 6.31838 0
M  V30 1501 C 134.66 0.534023 6.6536 0
M  V30 1502 H 133.93 -0.332885 0.662019 0
M  V30 1503 H 136.577 -0.175762 1.90692 0
M  V30 1504 H 134.882 -2.55659 2.96893 0
M  V30 1505 H 136.579 -2.31331 3.27547 0
M  V30 1506 H 133.169 -1.15936 4.12622 0
M  V30 1507 H 137.353 -0.593693 4.92736 0
M  V30 1508 H 132.609 0.177825 6.11141 0
M  V30 1509 H 136.783 0.737419 6.92485 0
M  V30 1510 H 134.41 1.12918 7.51767 0
M  V30 1511 N 135.985 -1.50799 -0.457987 0
M  V30 1512 C 137.396 -1.55152 -1.0385 0
M  V30 1513 C 137.747 -0.362719 -1.92818 0
M  V30 1514 O 136.872 0.522915 -2.09987 0
M  V30 1515 C 137.467 -2.81173 -1.89017 0
M  V30 1516 C 136.026 -2.88164 -2.42154 0
M  V30 1517 C 135.173 -2.49591 -1.20829 0
M  V30 1518 H 138.124 -1.56874 -0.240068 0
M  V30 1519 H 138.145 -2.63769 -2.74238 0
M  V30 1520 H 137.657 -3.67677 -1.24238 0
M  V30 1521 H 135.758 -2.06042 -3.10447 0
M  V30 1522 H 135.871 -3.91356 -2.76364 0
M  V30 1523 H 134.235 -2.02322 -1.54719 0
M  V30 1524 H 135.018 -3.38418 -0.576927 0
M  V30 1525 N 137.463 0.71206 -1.40597 0
M  V30 1526 C 138.413 1.81783 -1.37619 0
M  V30 1527 C 139.397 1.58896 -0.253162 0
M  V30 1528 O 140.589 1.70009 -0.492547 0
M  V30 1529 C 137.718 3.19944 -1.24462 0
M  V30 1530 C 136.804 3.48582 -2.4156 0
M  V30 1531 N 137.195 3.48016 -3.67041 0
M  V30 1532 C 135.493 3.79056 -2.35016 0
M  V30 1533 C 136.194 3.75096 -4.44609 0
M  V30 1534 N 135.17 3.94022 -3.74497 0
M  V30 1535 H 138.972 1.79683 -2.32575 0
M  V30 1536 H 136.486 0.91134 -1.34419 0
M  V30 1537 H 138.483 3.99133 -1.20411 0
M  V30 1538 H 137.143 3.23267 -0.304762 0
M  V30 1539 H 138.154 3.28782 -4.00153 0
M  V30 1540 H 134.831 3.89848 -1.49415 0
M  V30 1541 H 136.221 3.80934 -5.53479 0
M  V30 1542 N 138.941 1.26152 0.944643 0
M  V30 1543 C 139.871 1.09902 2.06019 0
M  V30 1544 C 140.852 0.00519538 1.70099 0
M  V30 1545 O 142.037 0.176583 1.93396 0
M  V30 1546 C 139.167 0.727562 3.39594 0
M  V30 1547 C 138.121 1.77274 3.89561 0
M  V30 1548 C 137.447 1.25569 5.19747 0
M  V30 1549 C 138.747 3.17357 4.14827 0
M  V30 1550 H 140.441 2.03217 2.19871 0
M  V30 1551 H 137.987 0.978452 1.05652 0
M  V30 1552 H 139.94 0.600777 4.17095 0
M  V30 1553 H 138.664 -0.241287 3.25707 0
M  V30 1554 H 137.323 1.88814 3.14237 0
M  V30 1555 H 136.971 0.276783 5.02238 0
M  V30 1556 H 136.671 1.95433 5.54148 0
M  V30 1557 H 138.195 1.1415 5.99835 0
M  V30 1558 H 139.609 3.08914 4.82954 0
M  V30 1559 H 138.006 3.84781 4.60504 0
M  V30 1560 H 139.076 3.63673 3.20734 0
M  V30 1561 N 140.419 -1.14872 1.07899 0
M  V30 1562 C 141.369 -2.17809 0.674027 0
M  V30 1563 C 142.353 -1.58008 -0.303699 0
M  V30 1564 O 143.545 -1.76616 -0.11654 0
M  V30 1565 C 140.674 -3.43208 0.0793318 0
M  V30 1566 C 139.76 -4.10051 1.08253 0
M  V30 1567 N 140.151 -4.52296 2.2641 0
M  V30 1568 C 138.449 -4.36469 0.917124 0
M  V30 1569 C 139.15 -5.04199 2.901 0
M  V30 1570 N 138.126 -4.98088 2.17736 0
M  V30 1571 H 141.928 -2.48207 1.57386 0
M  V30 1572 H 139.442 -1.315 0.952976 0
M  V30 1573 H 141.439 -4.16272 -0.228719 0
M  V30 1574 H 140.099 -3.14291 -0.815551 0
M  V30 1575 H 141.11 -4.45504 2.64096 0
M  V30 1576 H 137.787 -4.17432 0.0756078 0
M  V30 1577 H 139.177 -5.46802 3.90458 0
M  V30 1578 N 141.898 -0.863906 -1.31812 0
M  V30 1579 C 143.147 -0.46801 -1.96195 0
M  V30 1580 C 143.46 0.983474 -1.69077 0
M  V30 1581 O 144.666 1.48523 -2.27273 0
M  V30 1582 C 143.122 -0.785995 -3.51212 0
M  V30 1583 C 142.73 -2.25383 -3.87178 0
M  V30 1584 C 144.474 -0.458274 -4.22019 0
M  V30 1585 C 142.381 -2.51455 -5.3528 0
M  V30 1586 H 141.311 -0.171283 -0.734287 0
M  V30 1587 H 143.962 -1.05597 -1.50072 0
M  V30 1588 H 142.344 -0.127359 -3.95795 0
M  V30 1589 H 143.518 -2.95502 -3.53575 0
M  V30 1590 H 141.833 -2.54698 -3.2942 0
M  V30 1591 H 144.43 -0.630369 -5.30971 0
M  V30 1592 H 144.773 0.600834 -4.11941 0
M  V30 1593 H 145.306 -1.07319 -3.8305 0
M  V30 1594 H 142.045 -3.56025 -5.50387 0
M  V30 1595 H 141.565 -1.85923 -5.70257 0
M  V30 1596 H 143.244 -2.35874 -6.02472 0
M  V30 1597 N 143.376 1.44774 -0.622745 0
M  V30 1598 C 144.624 2.01721 -0.123655 0
M  V30 1599 C 144.945 1.49172 1.25589 0
M  V30 1600 O 144.215 0.691974 1.83272 0
M  V30 1601 H 142.795 0.745777 -0.0427225 0
M  V30 1602 H 145.457 1.77382 -0.807559 0
M  V30 1603 H 144.553 3.11984 -0.0849534 0
M  V30 1604 N 144.854 0.36279 1.53368 0
M  V30 1605 C 146.27 0.0116182 1.59596 0
M  V30 1606 C 146.47 -1.47012 1.37803 0
M  V30 1607 O 145.526 -2.23136 1.18181 0
M  V30 1608 C 146.839 0.465052 2.97082 0
M  V30 1609 C 148.387 0.419033 3.10182 0
M  V30 1610 C 148.862 0.848235 4.50077 0
M  V30 1611 N 150.353 0.803183 4.56183 0
M  V30 1612 C 151.088 1.107 5.62613 0
M  V30 1613 N 150.584 1.47996 6.76808 0
M  V30 1614 N 152.377 1.02998 5.52583 0
M  V30 1615 H 144.528 1.32775 1.65785 0
M  V30 1616 H 146.791 0.542518 0.777417 0
M  V30 1617 H 146.497 1.49892 3.18159 0
M  V30 1618 H 146.371 -0.149786 3.76902 0
M  V30 1619 H 148.758 -0.605696 2.88817 0
M  V30 1620 H 148.839 1.06933 2.32377 0
M  V30 1621 H 148.483 1.87107 4.7218 0
M  V30 1622 H 148.413 0.175218 5.26308 0
M  V30 1623 H 150.904 0.52838 3.74188 0
M  V30 1624 H 151.217 1.69613 7.53957 0
M  V30 1625 H 149.562 1.51859 6.78206 0
M  V30 1626 H 152.753 0.737817 4.62249 0
M  V30 1627 H 152.926 1.2701 6.35431 0
M  V30 1628 N 146.332 -1.57332 0.0918853 0
M  V30 1629 C 147.557 -1.98995 -0.584442 0
M  V30 1630 C 147.982 -0.970528 -1.61128 0
M  V30 1631 O 147.34 0.0613904 -1.81196 0
M  V30 1632 C 147.388 -3.39636 -1.21161 0
M  V30 1633 O 146.492 -3.40447 -2.32744 0
M  V30 1634 H 145.833 -0.647165 -0.148572 0
M  V30 1635 H 148.363 -2.03873 0.172347 0
M  V30 1636 H 148.373 -3.7726 -1.55367 0
M  V30 1637 H 147.048 -4.13356 -0.459313 0
M  V30 1638 H 145.625 -3.14614 -2.0018 0
M  V30 1639 N 147.81 0.181792 -1.56548 0
M  V30 1640 C 149.056 0.901431 -1.81665 0
M  V30 1641 C 149.389 1.82347 -0.668075 0
M  V30 1642 O 148.664 1.91669 0.330615 0
M  V30 1643 C 148.947 1.70618 -3.17115 0
M  V30 1644 C 148.8 0.807964 -4.42484 0
M  V30 1645 C 150.119 2.67605 -3.49393 0
M  V30 1646 H 147.238 0.32627 -0.660846 0
M  V30 1647 H 149.88 0.168134 -1.89255 0
M  V30 1648 H 148.03 2.33133 -3.10775 0
M  V30 1649 H 149.702 0.19649 -4.60881 0
M  V30 1650 H 147.945 0.115411 -4.33646 0
M  V30 1651 H 148.616 1.40632 -5.33785 0
M  V30 1652 H 151.092 2.15218 -3.56118 0
M  V30 1653 H 149.968 3.20985 -4.45264 0
M  V30 1654 H 150.229 3.47298 -2.73563 0
M  V30 1655 N 149.288 1.51039 0.449983 0
M  V30 1656 C 150.238 1.67824 1.54335 0
M  V30 1657 C 151.222 0.5324 1.51836 0
M  V30 1658 O 152.414 0.787762 1.58503 0
M  V30 1659 C 149.543 1.7951 2.92628 0
M  V30 1660 C 148.629 2.99838 2.9993 0
M  V30 1661 N 149.02 4.23207 2.77001 0
M  V30 1662 C 147.318 2.98832 3.31082 0
M  V30 1663 C 148.019 5.04361 2.89818 0
M  V30 1664 N 146.995 4.38746 3.2094 0
M  V30 1665 H 150.797 2.60884 1.35339 0
M  V30 1666 H 148.311 1.48513 0.657085 0
M  V30 1667 H 150.308 1.89642 3.7127 0
M  V30 1668 H 148.968 0.876227 3.12654 0
M  V30 1669 H 149.979 4.5236 2.52172 0
M  V30 1670 H 146.656 2.16527 3.56963 0
M  V30 1671 H 148.046 6.12528 2.76151 0
M  V30 1672 N 150.766 -0.704594 1.40972 0
M  V30 1673 C 151.991 -1.49858 1.43378 0
M  V30 1674 C 152.416 -1.88061 0.038184 0
M  V30 1675 O 151.774 -1.5402 -0.956425 0
M  V30 1676 C 151.822 -2.74333 2.34038 0
M  V30 1677 O 150.926 -3.7147 1.7912 0
M  V30 1678 H 150.267 -0.45139 0.486974 0
M  V30 1679 H 152.797 -0.866832 1.8533 0
M  V30 1680 H 152.807 -3.22741 2.49604 0
M  V30 1681 H 151.482 -2.45863 3.35446 0
M  V30 1682 H 150.059 -3.30363 1.72958 0
M  V30 1683 N 152.244 -1.26651 -0.937939 0
M  V30 1684 C 153.174 -1.10993 -2.05433 0
M  V30 1685 C 154.155 -0.0142161 -1.70094 0
M  V30 1686 O 155.34 -0.186837 -1.93299 0
M  V30 1687 C 152.47 -0.745561 -3.39203 0
M  V30 1688 C 151.424 -1.79337 -3.88616 0
M  V30 1689 C 150.75 -1.28324 -5.19073 0
M  V30 1690 C 152.05 -3.19553 -4.13138 0
M  V30 1691 H 153.744 -2.0438 -2.1879 0
M  V30 1692 H 151.29 -0.984041 -1.05131 0
M  V30 1693 H 153.243 -0.622888 -4.16771 0
M  V30 1694 H 151.967 0.22401 -3.25831 0
M  V30 1695 H 150.626 -1.90477 -3.13231 0
M  V30 1696 H 150.274 -0.303414 -5.02084 0
M  V30 1697 H 149.974 -1.98369 -5.53103 0
M  V30 1698 H 151.498 -1.1733 -5.99221 0
M  V30 1699 H 152.912 -3.11471 -4.81309 0
M  V30 1700 H 151.309 -3.87218 -4.58457 0
M  V30 1701 H 152.379 -3.65368 -3.18801 0
M  V30 1702 N 153.722 1.14298 -1.08507 0
M  V30 1703 C 154.632 2.23027 -0.727753 0
M  V30 1704 C 155.648 1.71952 0.26619 0
M  V30 1705 O 156.824 2.011 0.109882 0
M  V30 1706 C 153.889 3.46403 -0.143541 0
M  V30 1707 C 152.95 4.12413 -1.19223 0
M  V30 1708 C 152.183 5.29899 -0.635798 0
M  V30 1709 O 152.406 5.67796 0.544393 0
M  V30 1710 O 151.34 5.85717 -1.38634 0
M  V30 1711 H 155.166 2.55945 -1.63481 0
M  V30 1712 H 152.751 1.22248 -0.858817 0
M  V30 1713 H 154.633 4.21018 0.179404 0
M  V30 1714 H 153.308 3.15206 0.736659 0
M  V30 1715 H 152.215 3.39667 -1.56772 0
M  V30 1716 H 153.548 4.47718 -2.04474 0
M  V30 1717 N 155.201 0.870884 1.31352 0
M  V30 1718 C 156.111 0.330783 2.32256 0
M  V30 1719 C 157.127 -0.559767 1.6475 0
M  V30 1720 O 158.303 -0.456263 1.96164 0
M  V30 1721 C 155.368 -0.458137 3.4366 0
M  V30 1722 C 154.429 0.460482 4.26823 0
M  V30 1723 C 153.662 -0.290881 5.32907 0
M  V30 1724 O 153.885 -1.51885 5.49806 0
M  V30 1725 O 152.819 0.351732 6.00871 0
M  V30 1726 H 156.645 1.16718 2.80376 0
M  V30 1727 H 154.23 0.634285 1.35267 0
M  V30 1728 H 156.112 -0.905343 4.1156 0
M  V30 1729 H 154.787 -1.27106 2.97701 0
M  V30 1730 H 153.694 0.956207 3.61673 0
M  V30 1731 H 155.027 1.23903 4.7635 0
M  V30 1732 N 156.679 -1.44442 0.630414 0
M  V30 1733 C 157.642 -2.29107 -0.0652523 0
M  V30 1734 C 158.642 -1.41002 -0.772995 0
M  V30 1735 O 159.832 -1.62881 -0.617692 0
M  V30 1736 C 156.964 -3.22564 -1.10296 0
M  V30 1737 H 158.157 -2.92103 0.679401 0
M  V30 1738 H 155.71 -1.51343 0.390517 0
M  V30 1739 H 156.445 -2.64416 -1.87762 0
M  V30 1740 H 156.23 -3.87491 -0.59941 0
M  V30 1741 H 157.72 -3.86167 -1.5895 0
M  V30 1742 N 158.157 -0.370918 -1.53173 0
M  V30 1743 C 159.403 0.217423 -2.01631 0
M  V30 1744 C 159.736 1.47983 -1.25756 0
M  V30 1745 O 159.011 1.91274 -0.352764 0
M  V30 1746 C 159.294 0.503982 -3.56556 0
M  V30 1747 C 159.147 -0.77243 -4.43118 0
M  V30 1748 C 160.466 1.30234 -4.20389 0
M  V30 1749 H 157.585 0.0775486 -0.732909 0
M  V30 1750 H 160.227 -0.496863 -1.83388 0
M  V30 1751 H 158.377 1.11248 -3.72231 0
M  V30 1752 H 160.049 -1.4098 -4.39229 0
M  V30 1753 H 158.292 -1.39167 -4.10871 0
M  V30 1754 H 158.963 -0.526815 -5.4948 0
M  V30 1755 H 161.439 0.787546 -4.08579 0
M  V30 1756 H 160.315 1.47158 -5.28806 0
M  V30 1757 H 160.576 2.31237 -3.76805 0
M  V30 1758 N 159.635 1.57281 -0.100228 0
M  V30 1759 C 160.567 2.11342 0.886972 0
M  V30 1760 C 161.58 1.05182 1.24261 0
M  V30 1761 O 162.769 1.32613 1.19483 0
M  V30 1762 C 159.869 2.5825 2.19454 0
M  V30 1763 C 159.042 3.88302 2.01346 0
M  V30 1764 C 158.101 4.21004 3.15661 0
M  V30 1765 O 157.127 4.9014 2.89398 0
M  V30 1766 N 158.329 3.76818 4.41575 0
M  V30 1767 H 161.094 2.96668 0.425216 0
M  V30 1768 H 158.655 1.61678 0.0847334 0
M  V30 1769 H 160.647 2.7717 2.94888 0
M  V30 1770 H 159.217 1.77907 2.57037 0
M  V30 1771 H 158.437 3.7848 1.10212 0
M  V30 1772 H 159.725 4.73375 1.8653 0
M  V30 1773 H 159.123 3.2102 4.65792 0
M  V30 1774 H 157.68 4.00882 5.13942 0
M  V30 1775 N 161.113 -0.173488 1.56642 0
M  V30 1776 C 162.076 -1.19859 1.95362 0
M  V30 1777 C 163.076 -1.37296 0.83704 0
M  V30 1778 O 164.266 -1.34739 1.10413 0
M  V30 1779 C 161.398 -2.56405 2.24654 0
M  V30 1780 H 162.591 -0.867062 2.87092 0
M  V30 1781 H 160.144 -0.415853 1.50666 0
M  V30 1782 H 160.879 -2.94576 1.35631 0
M  V30 1783 H 160.664 -2.45115 3.06041 0
M  V30 1784 H 162.154 -3.30287 2.5554 0
M  V30 1785 N 162.591 -1.51276 -0.441967 0
M  V30 1786 C 163.501 -1.75092 -1.56141 0
M  V30 1787 C 164.517 -0.634963 -1.62001 0
M  V30 1788 O 165.693 -0.916686 -1.79329 0
M  V30 1789 C 162.758 -1.86666 -2.92158 0
M  V30 1790 C 161.819 -3.10506 -2.96453 0
M  V30 1791 C 161.052 -3.21519 -4.25982 0
M  V30 1792 O 161.275 -2.38586 -5.18105 0
M  V30 1793 O 160.209 -4.14465 -4.36466 0
M  V30 1794 H 164.035 -2.70044 -1.38961 0
M  V30 1795 H 161.62 -1.35722 -0.624499 0
M  V30 1796 H 163.502 -1.96292 -3.72891 0
M  V30 1797 H 162.177 -0.949014 -3.09476 0
M  V30 1798 H 161.084 -3.06363 -2.14692 0
M  V30 1799 H 162.417 -4.01945 -2.84079 0
M  V30 1800 N 164.069 0.697108 -1.41344 0
M  V30 1801 C 165.016 1.81106 -1.43071 0
M  V30 1802 C 165.986 1.63632 -0.285275 0
M  V30 1803 O 167.171 1.84504 -0.486091 0
M  V30 1804 C 164.311 3.18975 -1.31715 0
M  V30 1805 C 163.424 3.47892 -2.56115 0
M  V30 1806 C 162.559 4.75367 -2.37064 0
M  V30 1807 C 161.598 4.97247 -3.56948 0
M  V30 1808 N 160.735 6.15947 -3.36977 0
M  V30 1809 H 165.575 1.78965 -2.38276 0
M  V30 1810 H 163.112 0.873975 -1.18322 0
M  V30 1811 H 165.07 3.98615 -1.23133 0
M  V30 1812 H 163.7 3.20297 -0.401183 0
M  V30 1813 H 162.752 2.62669 -2.75153 0
M  V30 1814 H 164.064 3.59962 -3.45295 0
M  V30 1815 H 163.218 5.63059 -2.25941 0
M  V30 1816 H 161.957 4.65541 -1.45338 0
M  V30 1817 H 160.962 4.08004 -3.68527 0
M  V30 1818 H 162.187 5.08934 -4.49626 0
M  V30 1819 H 160.133 6.07336 -2.47949 0
M  V30 1820 H 160.05 6.28777 -4.19732 0
M  V30 1821 H 161.318 7.06377 -3.29623 0
M  V30 1822 N 165.547 1.27147 0.931209 0
M  V30 1823 C 166.457 1.11372 2.06478 0
M  V30 1824 C 167.473 0.044645 1.73943 0
M  V30 1825 O 168.649 0.250417 1.99837 0
M  V30 1826 C 165.714 0.758838 3.38294 0
M  V30 1827 C 164.775 1.90841 3.84549 0
M  V30 1828 C 164.008 1.57036 5.10074 0
M  V30 1829 O 164.231 0.476645 5.68405 0
M  V30 1830 O 163.165 2.40839 5.51616 0
M  V30 1831 H 166.991 2.06493 2.22698 0
M  V30 1832 H 164.576 1.06301 1.04978 0
M  V30 1833 H 166.458 0.574098 4.17471 0
M  V30 1834 H 165.133 -0.162879 3.2329 0
M  V30 1835 H 164.04 2.14819 3.06274 0
M  V30 1836 H 165.373 2.81021 4.04089 0
M  V30 1837 N 167.025 -1.13721 1.09112 0
M  V30 1838 C 168.302 -1.81155 0.737706 0
M  V30 1839 C 168.682 -1.96253 -0.777683 0
M  V30 1840 O 168.03 -1.52807 -1.69889 0
M  V30 1841 C 168.24 -3.16392 1.47299 0
M  V30 1842 C 169.588 -3.91787 1.63671 0
M  V30 1843 O 170.612 -3.26005 1.43524 0
M  V30 1844 O 169.471 -5.0977 1.96969 0
M  V30 1845 H 166.565 -0.783518 0.26463 0
M  V30 1846 H 169.111 -1.20676 1.19312 0
M  V30 1847 H 167.883 -3.0061 2.50498 0
M  V30 1848 H 167.506 -3.8457 1.00953 0
M  V30 1849 N 168.503 -0.877838 -1.30888 0
M  V30 1850 C 169.466 -0.344265 -2.266 0
M  V30 1851 C 170.466 0.50922 -1.52524 0
M  V30 1852 O 171.656 0.317398 -1.71284 0
M  V30 1853 C 168.788 0.510198 -3.37061 0
M  V30 1854 H 169.981 -1.1893 -2.7531 0
M  V30 1855 H 167.534 -0.654088 -1.41956 0
M  V30 1856 H 168.269 1.37612 -2.93655 0
M  V30 1857 H 168.054 -0.101047 -3.9197 0
M  V30 1858 H 169.544 0.875537 -4.08319 0
M  V30 1859 N 169.982 1.44106 -0.638065 0
M  V30 1860 C 171.259 1.95453 -0.0759321 0
M  V30 1861 C 171.639 1.57984 1.40015 0
M  V30 1862 O 170.987 0.857361 2.11806 0
M  V30 1863 C 171.197 3.47655 -0.306132 0
M  V30 1864 C 172.545 4.24114 -0.203008 0
M  V30 1865 O 173.569 3.55405 -0.237871 0
M  V30 1866 O 172.428 5.46381 -0.113827 0
M  V30 1867 H 169.522 0.826797 0.0183332 0
M  V30 1868 H 172.068 1.54122 -0.710251 0
M  V30 1869 H 170.84 3.68 -1.3301 0
M  V30 1870 H 170.463 3.95949 0.361991 0
M  V30 1871 N 171.46 0.379036 1.52974 0
M  V30 1872 C 172.69 -0.20649 2.05566 0
M  V30 1873 C 173.098 -1.41906 1.25137 0
M  V30 1874 O 172.441 -1.81421 0.288464 0
M  V30 1875 C 172.503 -0.651086 3.53555 0
M  V30 1876 C 172.167 0.446626 4.54812 0
M  V30 1877 C 173.164 1.30079 5.03364 0
M  V30 1878 C 170.849 0.610719 4.98573 0
M  V30 1879 C 172.843 2.30426 5.94292 0
M  V30 1880 C 170.53 1.61754 5.89304 0
M  V30 1881 C 171.528 2.46274 6.37054 0
M  V30 1882 O 171.216 3.45237 7.25994 0
M  V30 1883 H 170.948 -0.0372381 0.674974 0
M  V30 1884 H 173.502 0.539718 1.98182 0
M  V30 1885 H 171.732 -1.44911 3.58522 0
M  V30 1886 H 173.421 -1.16112 3.88938 0
M  V30 1887 H 174.187 1.18527 4.70294 0
M  V30 1888 H 170.066 -0.0374044 4.60985 0
M  V30 1889 H 173.61 2.96432 6.31485 0
M  V30 1890 H 169.507 1.73348 6.21788 0
M  V30 1891 H 170.275 3.41124 7.44027 0
M  V30 1892 N 172.938 -1.57226 0.108567 0
M  V30 1893 C 174.184 -1.95121 -0.552761 0
M  V30 1894 C 174.517 -0.991345 -1.66991 0
M  V30 1895 O 173.792 -0.0267211 -1.94482 0
M  V30 1896 C 174.075 -3.43039 -1.09528 0
M  V30 1897 C 173.928 -4.49797 0.0177332 0
M  V30 1898 C 175.247 -3.92567 -1.98945 0
M  V30 1899 H 172.366 -0.709496 -0.199461 0
M  V30 1900 H 175.008 -1.89126 0.182011 0
M  V30 1901 H 173.158 -3.48279 -1.72146 0
M  V30 1902 H 174.83 -4.56661 0.652584 0
M  V30 1903 H 173.073 -4.284 0.682309 0
M  V30 1904 H 173.744 -5.50528 -0.402919 0
M  V30 1905 H 176.22 -3.89565 -1.46214 0
M  V30 1906 H 175.096 -4.96605 -2.33827 0
M  V30 1907 H 175.357 -3.32648 -2.91201 0
M  V30 1908 N 174.416 0.165178 -1.56732 0
M  V30 1909 C 175.346 1.20651 -1.99914 0
M  V30 1910 C 176.327 1.45827 -0.875705 0
M  V30 1911 O 177.512 1.57057 -1.14223 0
M  V30 1912 C 174.642 2.54401 -2.36427 0
M  V30 1913 C 173.596 2.43782 -3.51787 0
M  V30 1914 C 172.922 3.82078 -3.7406 0
M  V30 1915 C 174.222 1.93732 -4.85041 0
M  V30 1916 H 175.916 0.847534 -2.87154 0
M  V30 1917 H 173.462 0.40625 -1.38151 0
M  V30 1918 H 175.415 3.27458 -2.65234 0
M  V30 1919 H 174.139 2.92098 -1.46103 0
M  V30 1920 H 172.798 1.73178 -3.23117 0
M  V30 1921 H 172.446 4.17179 -2.81017 0
M  V30 1922 H 172.146 3.7584 -4.51684 0
M  V30 1923 H 173.67 4.56712 -4.05274 0
M  V30 1924 H 175.084 2.56569 -5.12684 0
M  V30 1925 H 173.481 1.98428 -5.66345 0
M  V30 1926 H 174.551 0.891962 -4.76626 0
M  V30 1927 N 175.894 1.51508 0.433938 0
M  V30 1928 C 177.141 1.64345 1.18309 0
M  V30 1929 C 177.469 0.361315 1.91115 0
M  V30 1930 O 176.724 -0.654753 1.84422 0
M  V30 1931 C 177.023 2.79928 2.22205 0
M  V30 1932 C 176.689 4.19078 1.66387 0
M  V30 1933 C 175.351 4.56932 1.50887 0
M  V30 1934 C 177.703 5.05894 1.25381 0
M  V30 1935 C 175.031 5.79305 0.928608 0
M  V30 1936 C 177.383 6.2885 0.687823 0
M  V30 1937 C 176.047 6.65473 0.519755 0
M  V30 1938 H 175.317 0.601381 0.432923 0
M  V30 1939 H 177.964 1.85549 0.473676 0
M  V30 1940 H 176.269 2.52959 2.99197 0
M  V30 1941 H 177.966 2.87059 2.79997 0
M  V30 1942 H 174.556 3.89234 1.79428 0
M  V30 1943 H 178.74 4.77253 1.36175 0
M  V30 1944 H 173.996 6.06324 0.786186 0
M  V30 1945 H 178.17 6.95461 0.361581 0
M  V30 1946 H 175.797 7.6017 0.0679979 0
M  V30 1947 N 177.372 -0.689602 1.41712 0
M  V30 1948 C 178.62 -1.4468 1.4111 0
M  V30 1949 C 178.941 -1.94986 0.0232196 0
M  V30 1950 O 178.211 -1.72097 -0.935913 0
M  V30 1951 H 176.791 -0.536847 0.519427 0
M  V30 1952 H 179.453 -0.815825 1.77004 0
M  V30 1953 H 178.549 -2.30706 2.10193 0
M  V30 1954 N 178.85 -1.27639 -0.924453 0
M  V30 1955 C 179.8 -1.07295 -2.01176 0
M  V30 1956 C 180.784 5.77352e-05 -1.609 0
M  V30 1957 O 181.976 -0.218855 -1.75642 0
M  V30 1958 C 179.105 -0.725592 -3.35544 0
M  V30 1959 C 178.191 -1.83691 -3.82254 0
M  V30 1960 N 178.582 -3.07697 -4.01443 0
M  V30 1961 C 176.88 -1.72433 -4.11319 0
M  V30 1962 C 177.581 -3.80037 -4.40394 0
M  V30 1963 N 176.557 -3.0782 -4.48049 0
M  V30 1964 H 180.359 -2.01399 -2.14046 0
M  V30 1965 H 177.873 -1.18401 -1.11153 0
M  V30 1966 H 179.87 -0.560959 -4.13109 0
M  V30 1967 H 178.53 0.207782 -3.24034 0
M  V30 1968 H 179.541 -3.43424 -3.8766 0
M  V30 1969 H 176.218 -0.862005 -4.08504 0
M  V30 1970 H 177.608 -4.86632 -4.63291 0
M  V30 1971 N 180.328 1.1314 -1.09713 0
M  V30 1972 C 181.574 1.84757 -0.836224 0
M  V30 1973 C 181.907 1.8347 0.636598 0
M  V30 1974 O 181.182 1.27491 1.46889 0
M  V30 1975 C 181.465 3.32782 -1.37578 0
M  V30 1976 C 181.318 3.42567 -2.91493 0
M  V30 1977 C 182.637 4.28307 -1.01198 0
M  V30 1978 H 179.756 0.67082 -0.305236 0
M  V30 1979 H 182.398 1.3278 -1.35903 0
M  V30 1980 H 180.548 3.77177 -0.931097 0
M  V30 1981 H 182.22 3.06862 -3.44432 0
M  V30 1982 H 180.463 2.83349 -3.28475 0
M  V30 1983 H 181.134 4.46674 -3.24324 0
M  V30 1984 H 183.61 3.91999 -1.39556 0
M  V30 1985 H 182.486 5.30307 -1.41653 0
M  V30 1986 H 182.747 4.42029 0.0794833 0
M  V30 1987 N 181.806 0.884767 1.30421 0
M  V30 1988 C 183.053 0.503105 1.96151 0
M  V30 1989 C 183.381 -0.947676 1.69851 0
M  V30 1990 O 182.636 -1.68467 0.995861 0
M  V30 1991 C 182.935 0.724318 3.49983 0
M  V30 1992 C 182.601 2.15015 3.96332 0
M  V30 1993 C 181.263 2.54005 4.08699 0
M  V30 1994 C 183.615 3.07936 4.20505 0
M  V30 1995 C 180.943 3.85128 4.42599 0
M  V30 1996 C 183.295 4.3859 4.55874 0
M  V30 1997 C 181.959 4.77474 4.66449 0
M  V30 1998 H 181.229 0.184099 0.717766 0
M  V30 1999 H 183.876 1.12058 1.55291 0
M  V30 2000 H 182.181 0.0238086 3.91793 0
M  V30 2001 H 183.878 0.408617 3.98913 0
M  V30 2002 H 180.468 1.8375 3.87213 0
M  V30 2003 H 184.652 2.79033 4.10431 0
M  V30 2004 H 179.908 4.14996 4.48986 0
M  V30 2005 H 184.082 5.10629 4.7353 0
M  V30 2006 H 181.709 5.79115 4.92473 0
M  V30 2007 N 183.284 -1.43765 0.645699 0
M  V30 2008 C 184.194 -2.34544 -0.0512957 0
M  V30 2009 C 185.21 -1.53455 -0.82022 0
M  V30 2010 O 186.386 -1.86133 -0.769176 0
M  V30 2011 C 183.451 -3.31636 -1.01087 0
M  V30 2012 C 182.512 -4.2863 -0.239712 0
M  V30 2013 C 181.745 -5.21084 -1.15358 0
M  V30 2014 O 181.968 -5.1779 -2.39269 0
M  V30 2015 O 180.902 -5.98593 -0.630038 0
M  V30 2016 H 184.728 -2.95624 0.695718 0
M  V30 2017 H 182.313 -1.43781 0.405882 0
M  V30 2018 H 184.195 -3.9136 -1.56254 0
M  V30 2019 H 182.87 -2.73069 -1.73824 0
M  V30 2020 H 181.777 -3.72408 0.355356 0
M  V30 2021 H 183.11 -4.90157 0.447936 0
M  V30 2022 N 184.763 -0.387143 -1.52771 0
M  V30 2023 C 185.991 0.195869 -2.05971 0
M  V30 2024 C 186.406 1.40691 -1.25903 0
M  V30 2025 O 185.763 1.79931 -0.305134 0
M  V30 2026 C 185.814 0.56812 -3.57008 0
M  V30 2027 O 185.535 -0.594803 -4.34043 0
M  V30 2028 C 187.036 1.20723 -4.26545 0
M  V30 2029 H 184.256 0.0300578 -0.670326 0
M  V30 2030 H 186.8 -0.551749 -1.96916 0
M  V30 2031 H 184.955 1.26564 -3.66143 0
M  V30 2032 H 185.369 -0.289322 -5.23701 0
M  V30 2033 H 186.843 1.41807 -5.33474 0
M  V30 2034 H 187.32 2.17395 -3.81623 0
M  V30 2035 H 187.926 0.550535 -4.21722 0
M  V30 2036 N 186.241 1.57166 -0.116904 0
M  V30 2037 C 187.518 1.86645 0.585049 0
M  V30 2038 C 187.898 1.0177 1.84949 0
M  V30 2039 O 187.246 0.0960379 2.28298 0
M  V30 2040 C 187.456 3.37736 0.879507 0
M  V30 2041 C 188.804 4.06289 1.23348 0
M  V30 2042 O 189.828 3.42743 0.969836 0
M  V30 2043 O 188.687 5.18455 1.7282 0
M  V30 2044 H 185.781 0.772593 0.295007 0
M  V30 2045 H 188.327 1.69025 -0.151249 0
M  V30 2046 H 187.099 3.91296 -0.0166136 0
M  V30 2047 H 186.722 3.6078 1.67103 0
M  V30 2048 N 187.719 -0.156864 1.56817 0
M  V30 2049 C 188.959 -0.877453 1.84608 0
M  V30 2050 C 189.323 -1.78791 0.699845 0
M  V30 2051 O 190.524 -2.5472 0.858553 0
M  V30 2052 C 188.795 -1.63992 3.17555 0
M  V30 2053 S 190.354 -2.40729 3.66872 0
M  V30 2054 H 187.172 -0.293612 0.647544 0
M  V30 2055 H 189.774 -0.138099 1.95012 0
M  V30 2056 H 188.478 -0.962363 3.98957 0
M  V30 2057 H 188.009 -2.42038 3.10131 0
M  V30 2058 H 190.024 -3.65725 3.3535 0
M  V30 2059 N 189.197 -1.51736 -0.425897 0
M  V30 2060 C 190.144 -1.73875 -1.51776 0
M  V30 2061 C 191.114 -0.580702 -1.55618 0
M  V30 2062 O 192.299 -0.81641 -1.72451 0
M  V30 2063 C 189.439 -1.88012 -2.89388 0
M  V30 2064 C 188.552 -3.15606 -2.94986 0
M  V30 2065 C 187.687 -3.20271 -4.23793 0
M  V30 2066 C 186.726 -4.42134 -4.23302 0
M  V30 2067 N 185.863 -4.44284 -5.43651 0
M  V30 2068 H 190.703 -2.67071 -1.32201 0
M  V30 2069 H 188.24 -1.32351 -0.642008 0
M  V30 2070 H 190.198 -1.9419 -3.69251 0
M  V30 2071 H 188.828 -0.98213 -3.07496 0
M  V30 2072 H 187.88 -3.18681 -2.07717 0
M  V30 2073 H 189.192 -4.05486 -2.90486 0
M  V30 2074 H 188.346 -3.25428 -5.12036 0
M  V30 2075 H 187.085 -2.28299 -4.30965 0
M  V30 2076 H 186.09 -4.3714 -3.3345 0
M  V30 2077 H 187.315 -5.35382 -4.17783 0
M  V30 2078 H 185.261 -3.55188 -5.51523 0
M  V30 2079 H 185.178 -5.27988 -5.41078 0
M  V30 2080 H 186.446 -4.53649 -6.33895 0
M  V30 2081 N 190.675 0.682077 -1.42076 0
M  V30 2082 C 191.622 1.79578 -1.44984 0
M  V30 2083 C 192.592 1.6332 -0.302614 0
M  V30 2084 O 193.777 1.83978 -0.505633 0
M  V30 2085 C 190.917 3.1756 -1.35091 0
M  V30 2086 C 190.03 3.45156 -2.59791 0
M  V30 2087 C 189.165 4.72826 -2.42093 0
M  V30 2088 C 188.204 4.93433 -3.62202 0
M  V30 2089 N 187.341 6.12338 -3.43491 0
M  V30 2090 H 192.181 1.76427 -2.40161 0
M  V30 2091 H 189.718 0.861376 -1.19242 0
M  V30 2092 H 191.676 3.97287 -1.27354 0
M  V30 2093 H 190.306 3.19854 -0.435133 0
M  V30 2094 H 189.358 2.59736 -2.77923 0
M  V30 2095 H 190.67 3.5628 -3.49094 0
M  V30 2096 H 189.824 5.60631 -2.319 0
M  V30 2097 H 188.563 4.63973 -1.50268 0
M  V30 2098 H 187.568 4.04073 -3.72834 0
M  V30 2099 H 188.793 5.04136 -4.54998 0
M  V30 2100 H 186.739 6.04672 -2.54377 0
M  V30 2101 H 186.656 6.2429 -4.26377 0
M  V30 2102 H 187.924 7.02841 -3.37097 0
M  V30 2103 N 192.153 1.28127 0.917671 0
M  V30 2104 C 193.401 1.14825 1.66312 0
M  V30 2105 C 193.722 -0.304379 1.9261 0
M  V30 2106 O 192.992 -1.21149 1.53947 0
M  V30 2107 H 191.572 0.421953 0.616413 0
M  V30 2108 H 194.234 1.608 1.10134 0
M  V30 2109 H 193.33 1.68489 2.62712 0
M  V30 2110 N 193.631 -1.12557 1.10312 0
M  V30 2111 C 194.561 -2.20341 0.772798 0
M  V30 2112 C 195.542 -1.68198 -0.25365 0
M  V30 2113 O 196.727 -1.93831 -0.119699 0
M  V30 2114 C 193.857 -3.46709 0.202443 0
M  V30 2115 C 192.811 -4.11996 1.15943 0
M  V30 2116 C 192.137 -5.328 0.450345 0
M  V30 2117 C 193.437 -4.5828 2.50552 0
M  V30 2118 H 195.131 -2.48229 1.674 0
M  V30 2119 H 192.677 -1.19308 0.806326 0
M  V30 2120 H 194.63 -4.2138 -0.0407752 0
M  V30 2121 H 193.354 -3.18245 -0.734001 0
M  V30 2122 H 192.013 -3.39305 1.38808 0
M  V30 2123 H 191.661 -5.00602 -0.490531 0
M  V30 2124 H 191.361 -5.7743 1.08851 0
M  V30 2125 H 192.885 -6.10219 0.215642 0
M  V30 2126 H 194.299 -5.2433 2.31843 0
M  V30 2127 H 192.696 -5.13683 3.10242 0
M  V30 2128 H 193.766 -3.72329 3.10643 0
M  V30 2129 N 195.109 -0.891671 -1.2995 0
M  V30 2130 C 196.019 -0.367691 -2.31701 0
M  V30 2131 C 197.035 0.533486 -1.6562 0
M  V30 2132 O 198.211 0.424997 -1.96865 0
M  V30 2133 C 195.276 0.403406 -3.44345 0
M  V30 2134 C 194.337 -0.528328 -4.26037 0
M  V30 2135 C 193.57 0.206063 -5.33302 0
M  V30 2136 O 193.793 1.43119 -5.52153 0
M  V30 2137 O 192.727 -0.447281 -6.00236 0
M  V30 2138 H 196.553 -1.21163 -2.78484 0
M  V30 2139 H 194.138 -0.655725 -1.34241 0
M  V30 2140 H 196.02 0.839753 -4.12948 0
M  V30 2141 H 194.695 1.22354 -2.99685 0
M  V30 2142 H 193.602 -1.01362 -3.60106 0
M  V30 2143 H 194.935 -1.31465 -4.74318 0
M  V30 2144 N 196.587 1.43421 -0.653314 0
M  V30 2145 C 197.835 2.01414 -0.166415 0
M  V30 2146 C 198.156 1.51803 1.22397 0
M  V30 2147 O 197.426 0.730693 1.81763 0
M  V30 2148 H 196.006 0.744703 -0.0585319 0
M  V30 2149 H 198.668 1.75629 -0.845003 0
M  V30 2150 H 197.764 3.11734 -0.151111 0
M  V30 2151 N 198.065 0.39524 1.52563 0
M  V30 2152 C 199.481 0.0454682 1.59535 0
M  V30 2153 C 199.681 -1.44056 1.4089 0
M  V30 2154 O 198.737 -2.20579 1.22888 0
M  V30 2155 C 200.05 0.527963 2.96029 0
M  V30 2156 C 201.598 0.484733 3.09224 0
M  V30 2157 C 202.073 0.943512 4.48176 0
M  V30 2158 N 203.564 0.899765 4.54377 0
M  V30 2159 C 204.299 1.22609 5.60138 0
M  V30 2160 N 203.795 1.62319 6.73516 0
M  V30 2161 N 205.588 1.14696 5.50274 0
M  V30 2162 H 197.739 1.36261 1.62931 0
M  V30 2163 H 200.002 0.558887 0.765735 0
M  V30 2164 H 199.708 1.56607 3.14908 0
M  V30 2165 H 199.582 -0.0698056 3.77135 0
M  V30 2166 H 201.969 -0.544298 2.90037 0
M  V30 2167 H 202.05 1.11838 2.30056 0
M  V30 2168 H 201.694 1.9708 4.68104 0
M  V30 2169 H 201.624 0.286817 5.25818 0
M  V30 2170 H 204.115 0.607632 3.72983 0
M  V30 2171 H 204.428 1.85567 7.5019 0
M  V30 2172 H 202.773 1.66211 6.74833 0
M  V30 2173 H 205.964 0.835701 4.6058 0
M  V30 2174 H 206.137 1.40459 6.32594 0
M  V30 2175 N 199.544 -1.57102 0.125237 0
M  V30 2176 C 200.792 -1.95021 -0.530198 0
M  V30 2177 C 201.113 -1.00982 -1.66816 0
M  V30 2178 O 200.383 -0.0672693 -1.95784 0
M  V30 2179 H 198.963 -0.720046 -0.198853 0
M  V30 2180 H 201.625 -1.93916 0.19564 0
M  V30 2181 H 200.721 -2.98211 -0.920681 0
M  V30 2182 N 201.022 0.148545 -1.56898 0
M  V30 2183 C 202.268 0.862694 -1.83536 0
M  V30 2184 C 202.601 1.80889 -0.706604 0
M  V30 2185 O 201.876 1.92328 0.289885 0
M  V30 2186 C 202.159 1.63853 -3.20662 0
M  V30 2187 C 202.012 0.713925 -4.44098 0
M  V30 2188 C 203.331 2.60133 -3.54991 0
M  V30 2189 H 200.45 0.312179 -0.667618 0
M  V30 2190 H 203.092 0.127953 -1.89569 0
M  V30 2191 H 201.242 2.26489 -3.1565 0
M  V30 2192 H 202.914 0.098686 -4.61194 0
M  V30 2193 H 201.157 0.0234019 -4.33794 0
M  V30 2194 H 201.828 1.29278 -5.36648 0
M  V30 2195 H 204.304 2.07616 -3.60603 0
M  V30 2196 H 203.18 3.11468 -4.51972 0
M  V30 2197 H 203.441 3.41417 -2.80868 0
M  V30 2198 N 202.5 1.5196 0.417844 0
M  V30 2199 C 203.725 1.69717 1.1921 0
M  V30 2200 C 204.15 0.402148 1.83751 0
M  V30 2201 O 203.508 -0.639593 1.69643 0
M  V30 2202 C 203.556 2.82794 2.2374 0
M  V30 2203 O 202.66 2.47756 3.29683 0
M  V30 2204 H 202.001 0.565263 0.348387 0
M  V30 2205 H 204.531 1.98621 0.490985 0
M  V30 2206 H 204.541 3.07452 2.68212 0
M  V30 2207 H 203.216 3.76756 1.76146 0
M  V30 2208 H 201.793 2.33739 2.90552 0
M  V30 2209 N 203.978 -0.674533 1.42435 0
M  V30 2210 C 204.908 -1.80009 1.48724 0
M  V30 2211 C 205.889 -1.6659 0.343793 0
M  V30 2212 O 207.074 -1.86007 0.558137 0
M  V30 2213 C 204.204 -3.18306 1.38919 0
M  V30 2214 C 203.158 -3.46461 2.51294 0
M  V30 2215 C 202.484 -4.84335 2.26547 0
M  V30 2216 C 203.784 -3.43328 3.93603 0
M  V30 2217 H 205.478 -1.75004 2.42928 0
M  V30 2218 H 203.024 -0.840533 1.16923 0
M  V30 2219 H 204.977 -3.9678 1.41927 0
M  V30 2220 H 203.701 -3.2399 0.412094 0
M  V30 2221 H 202.36 -2.70348 2.47604 0
M  V30 2222 H 202.008 -4.86669 1.2713 0
M  V30 2223 H 201.708 -5.04136 3.01861 0
M  V30 2224 H 203.232 -5.65094 2.31304 0
M  V30 2225 H 204.646 -4.11772 3.98894 0
M  V30 2226 H 203.043 -3.74664 4.68771 0
M  V30 2227 H 204.113 -2.41897 4.20255 0
M  V30 2228 N 205.456 -1.28612 -0.910864 0
M  V30 2229 C 206.386 -1.15326 -2.03032 0
M  V30 2230 C 207.367 -0.0502924 -1.70026 0
M  V30 2231 O 208.552 -0.227797 -1.92859 0
M  V30 2232 C 205.682 -0.817343 -3.37545 0
M  V30 2233 C 204.636 -1.8754 -3.84724 0
M  V30 2234 C 203.962 -1.39305 -5.16235 0
M  V30 2235 C 205.262 -3.28244 -4.06267 0
M  V30 2236 H 206.956 -2.08975 -2.14406 0
M  V30 2237 H 204.502 -1.00612 -1.03021 0
M  V30 2238 H 206.455 -0.711151 -4.15356 0
M  V30 2239 H 205.179 0.154846 -3.26233 0
M  V30 2240 H 203.838 -1.97079 -3.09121 0
M  V30 2241 H 203.486 -0.409846 -5.01328 0
M  V30 2242 H 203.186 -2.10057 -5.48771 0
M  V30 2243 H 204.71 -1.30014 -5.96598 0
M  V30 2244 H 206.124 -3.21611 -4.74594 0
M  V30 2245 H 204.521 -3.96855 -4.5014 0
M  V30 2246 H 205.591 -3.72048 -3.10979 0
M  V30 2247 N 206.934 1.1197 -1.10907 0
M  V30 2248 C 208.159 1.87942 -0.877064 0
M  V30 2249 C 208.584 1.79341 0.567314 0
M  V30 2250 O 207.942 1.15184 1.40009 0
M  V30 2251 C 207.99 3.34926 -1.33629 0
M  V30 2252 O 207.094 4.09303 -0.504447 0
M  V30 2253 H 206.435 0.583785 -0.316371 0
M  V30 2254 H 208.965 1.4157 -1.47712 0
M  V30 2255 H 208.975 3.8577 -1.32837 0
M  V30 2256 H 207.65 3.40504 -2.3881 0
M  V30 2257 H 206.227 3.68393 -0.577993 0
M  V30 2258 N 208.412 0.89855 1.29475 0
M  V30 2259 C 209.689 0.443416 1.90508 0
M  V30 2260 C 210.069 -1.07685 1.81569 0
M  V30 2261 O 209.417 -1.9182 1.24166 0
M  V30 2262 C 209.627 0.956708 3.35631 0
M  V30 2263 C 210.975 0.999728 4.12663 0
M  V30 2264 O 211.999 0.904299 3.4453 0
M  V30 2265 O 210.858 1.14289 5.34416 0
M  V30 2266 H 207.952 0.138025 0.815401 0
M  V30 2267 H 210.498 0.98834 1.37949 0
M  V30 2268 H 209.27 2.00067 3.36287 0
M  V30 2269 H 208.893 0.391728 3.95666 0
M  V30 2270 N 209.89 -1.43072 0.660911 0
M  V30 2271 C 211.139 -2.00942 0.174735 0
M  V30 2272 C 211.452 -1.52797 -1.22117 0
M  V30 2273 O 212.658 -2.02991 -1.80297 0
M  V30 2274 C 211.114 -3.58948 0.261559 0
M  V30 2275 C 210.722 -4.16085 1.66064 0
M  V30 2276 C 212.466 -4.24173 -0.166617 0
M  V30 2277 C 210.373 -5.6641 1.70098 0
M  V30 2278 H 209.303 -0.751483 0.0615631 0
M  V30 2279 H 211.954 -1.63955 0.824069 0
M  V30 2280 H 210.336 -3.93372 -0.455421 0
M  V30 2281 H 211.51 -3.93147 2.40359 0
M  V30 2282 H 209.825 -3.6326 2.03546 0
M  V30 2283 H 212.422 -5.34471 -0.156433 0
M  V30 2284 H 212.765 -3.98647 -1.19943 0
M  V30 2285 H 213.298 -3.94659 0.498875 0
M  V30 2286 H 210.037 -5.96715 2.71315 0
M  V30 2287 H 209.557 -5.91382 1.00139 0
M  V30 2288 H 211.236 -6.30585 1.44816 0
M  V30 2289 N 211.368 -0.403325 -1.52352 0
M  V30 2290 C 212.315 0.425011 -2.26853 0
M  V30 2291 C 213.285 1.04598 -1.29029 0
M  V30 2292 O 214.47 1.07135 -1.57882 0
M  V30 2293 C 211.61 1.53888 -3.08889 0
M  V30 2294 C 210.723 0.939396 -4.21663 0
M  V30 2295 C 209.858 2.02547 -4.91068 0
M  V30 2296 C 208.897 1.40263 -5.95813 0
M  V30 2297 N 208.034 2.4286 -6.58759 0
M  V30 2298 H 212.874 -0.21674 -2.97211 0
M  V30 2299 H 210.411 -0.118722 -1.4662 0
M  V30 2300 H 212.369 2.19558 -3.54753 0
M  V30 2301 H 210.999 2.15074 -2.40714 0
M  V30 2302 H 210.051 0.171898 -3.80011 0
M  V30 2303 H 211.363 0.44436 -4.96817 0
M  V30 2304 H 210.517 2.75958 -5.40308 0
M  V30 2305 H 209.256 2.55415 -4.15469 0
M  V30 2306 H 208.261 0.653833 -5.45898 0
M  V30 2307 H 209.486 0.881719 -6.73352 0
M  V30 2308 H 207.432 2.94871 -5.85992 0
M  V30 2309 H 207.349 1.98152 -7.2957 0
M  V30 2310 H 208.617 3.15858 -7.12639 0
M  V30 2311 N 212.846 1.57033 -0.133567 0
M  V30 2312 C 213.778 2.13176 0.841944 0
M  V30 2313 C 214.791 1.07794 1.22001 0
M  V30 2314 O 215.98 1.35117 1.16643 0
M  V30 2315 C 213.08 2.62847 2.13926 0
M  V30 2316 C 212.253 3.92486 1.93064 0
M  V30 2317 C 211.312 4.27605 3.0666 0
M  V30 2318 O 210.338 4.96168 2.78937 0
M  V30 2319 N 211.54 3.861 4.33483 0
M  V30 2320 H 214.305 2.97503 0.362192 0
M  V30 2321 H 211.866 1.61821 0.05042 0
M  V30 2322 H 213.858 2.83363 2.88942 0
M  V30 2323 H 212.428 1.83319 2.53205 0
M  V30 2324 H 211.648 3.80732 1.02159 0
M  V30 2325 H 212.936 4.77225 1.76447 0
M  V30 2326 H 212.334 3.30828 4.58878 0
M  V30 2327 H 210.891 4.11694 5.05323 0
M  V30 2328 N 214.325 -0.140222 1.56975 0
M  V30 2329 C 215.741 -0.493088 1.51792 0
M  V30 2330 C 215.941 -1.83013 0.843116 0
M  V30 2331 O 214.997 -2.49041 0.416493 0
M  V30 2332 C 216.31 -0.497144 2.96562 0
M  V30 2333 C 217.858 -0.582186 3.07538 0
M  V30 2334 C 218.333 -0.616838 4.53827 0
M  V30 2335 N 219.824 -0.678873 4.58198 0
M  V30 2336 C 220.559 -0.726782 5.68775 0
M  V30 2337 N 220.055 -0.733623 6.88905 0
M  V30 2338 N 221.848 -0.768179 5.56826 0
M  V30 2339 H 213.999 0.736108 1.99237 0
M  V30 2340 H 216.262 0.269182 0.90898 0
M  V30 2341 H 215.968 0.417217 3.49217 0
M  V30 2342 H 215.842 -1.33263 3.52875 0
M  V30 2343 H 218.229 -1.48697 2.54899 0
M  V30 2344 H 218.31 0.280581 2.54257 0
M  V30 2345 H 217.954 0.283812 5.07106 0
M  V30 2346 H 217.884 -1.49619 5.04898 0
M  V30 2347 H 220.375 -0.68061 3.7172 0
M  V30 2348 H 220.688 -0.772215 7.68932 0
M  V30 2349 H 219.033 -0.701389 6.91452 0
M  V30 2350 H 222.224 -0.760051 4.61888 0
M  V30 2351 H 222.397 -0.80205 6.43017 0
M  V30 2352 N 215.803 -1.52179 -0.40978 0
M  V30 2353 C 217.052 -1.65434 -1.15388 0
M  V30 2354 C 217.365 -0.390056 -1.91671 0
M  V30 2355 O 218.571 -0.402399 -2.68501 0
M  V30 2356 C 217.027 -2.92279 -2.10003 0
M  V30 2357 C 216.635 -4.25813 -1.39239 0
M  V30 2358 C 218.379 -3.14897 -2.84675 0
M  V30 2359 C 216.286 -5.43782 -2.32498 0
M  V30 2360 H 215.216 -0.616267 -0.434432 0
M  V30 2361 H 217.867 -1.78666 -0.418401 0
M  V30 2362 H 216.249 -2.72744 -2.871 0
M  V30 2363 H 217.423 -4.55828 -0.675099 0
M  V30 2364 H 215.738 -4.09292 -0.766097 0
M  V30 2365 H 218.335 -4.0021 -3.54593 0
M  V30 2366 H 218.678 -2.29103 -3.47588 0
M  V30 2367 H 219.211 -3.34901 -2.14677 0
M  V30 2368 H 215.95 -6.3192 -1.74233 0
M  V30 2369 H 215.47 -5.18106 -3.02201 0
M  V30 2370 H 217.149 -5.76834 -2.93038 0
M  V30 2371 N 217.281 0.66697 -1.42791 0
M  V30 2372 C 218.506 1.46004 -1.47301 0
M  V30 2373 C 218.931 1.87894 -0.0880317 0
M  V30 2374 O 218.289 1.56502 0.915253 0
M  V30 2375 C 218.337 2.68031 -2.41229 0
M  V30 2376 O 217.441 3.6659 -1.88906 0
M  V30 2377 H 216.782 0.43832 -0.49877 0
M  V30 2378 H 219.312 0.817391 -1.87563 0
M  V30 2379 H 219.322 3.1601 -2.58073 0
M  V30 2380 H 217.997 2.36883 -3.41847 0
M  V30 2381 H 216.574 3.25661 -1.81656 0
M  V30 2382 N 218.759 1.29093 0.90403 0
M  V30 2383 C 220.008 1.16187 1.64874 0
M  V30 2384 C 220.321 -0.286742 1.93487 0
M  V30 2385 O 221.527 -0.537062 2.66135 0
M  V30 2386 C 219.983 2.03177 2.97064 0
M  V30 2387 C 219.591 3.52836 2.76062 0
M  V30 2388 C 221.335 1.98984 3.74974 0
M  V30 2389 C 219.242 4.31945 4.03952 0
M  V30 2390 H 218.172 0.431246 0.618501 0
M  V30 2391 H 220.823 1.53699 1.00243 0
M  V30 2392 H 219.205 1.5853 3.62883 0
M  V30 2393 H 220.379 4.05507 2.18863 0
M  V30 2394 H 218.694 3.58656 2.11553 0
M  V30 2395 H 221.291 2.55351 4.69787 0
M  V30 2396 H 221.634 0.968815 4.0487 0
M  V30 2397 H 222.167 2.41652 3.15989 0
M  V30 2398 H 218.906 5.34667 3.79225 0
M  V30 2399 H 218.426 3.84045 4.60727 0
M  V30 2400 H 220.105 4.42379 4.72133 0
M  V30 2401 N 220.237 -1.11381 1.11499 0
M  V30 2402 C 221.648 -1.6465 0.880191 0
M  V30 2403 C 221.999 -1.87199 -0.587434 0
M  V30 2404 O 221.124 -1.60667 -1.44966 0
M  V30 2405 C 221.719 -2.99105 1.59128 0
M  V30 2406 C 220.278 -3.49279 1.40289 0
M  V30 2407 C 219.425 -2.24077 1.63354 0
M  V30 2408 H 222.376 -0.950123 1.27116 0
M  V30 2409 H 222.397 -3.66107 1.03664 0
M  V30 2410 H 221.909 -2.82661 2.65941 0
M  V30 2411 H 220.01 -3.70887 0.356888 0
M  V30 2412 H 220.123 -4.2803 2.15238 0
M  V30 2413 H 218.487 -2.31733 1.05698 0
M  V30 2414 H 219.27 -2.10175 2.71443 0
M  V30 2415 N 221.715 -0.905404 -1.28997 0
M  V30 2416 C 222.961 -0.535039 -1.95615 0
M  V30 2417 C 223.294 0.917404 -1.71165 0
M  V30 2418 O 222.569 1.65123 -1.02785 0
M  V30 2419 C 222.852 -0.834918 -3.50287 0
M  V30 2420 C 222.705 -2.33948 -3.84172 0
M  V30 2421 C 224.024 -0.325318 -4.38896 0
M  V30 2422 H 221.143 -0.195861 -0.710498 0
M  V30 2423 H 223.785 -1.13313 -1.52513 0
M  V30 2424 H 221.935 -0.325904 -3.87131 0
M  V30 2425 H 223.607 -2.91847 -3.57243 0
M  V30 2426 H 221.85 -2.79789 -3.31513 0
M  V30 2427 H 222.521 -2.49987 -4.92149 0
M  V30 2428 H 224.997 -0.761256 -4.09077 0
M  V30 2429 H 223.873 -0.564295 -5.45992 0
M  V30 2430 H 224.134 0.774144 -4.35269 0
M  V30 2431 N 223.193 1.4272 -0.668489 0
M  V30 2432 C 224.442 2.00846 -0.185389 0
M  V30 2433 C 224.755 1.53442 1.21305 0
M  V30 2434 O 225.961 2.03944 1.79218 0
M  V30 2435 C 224.417 3.58805 -0.280591 0
M  V30 2436 C 224.025 4.15198 -1.68268 0
M  V30 2437 C 225.769 4.24255 0.14412 0
M  V30 2438 C 223.676 5.655 -1.73099 0
M  V30 2439 H 222.606 0.751145 -0.0655475 0
M  V30 2440 H 225.257 1.63516 -0.832752 0
M  V30 2441 H 223.639 3.93608 0.434553 0
M  V30 2442 H 224.813 3.91866 -2.42441 0
M  V30 2443 H 223.128 3.62176 -2.05469 0
M  V30 2444 H 225.725 5.34547 0.128086 0
M  V30 2445 H 226.068 3.99277 1.17827 0
M  V30 2446 H 226.601 3.94389 -0.519798 0
M  V30 2447 H 223.34 5.95268 -2.74475 0
M  V30 2448 H 222.86 5.90842 -1.03274 0
M  V30 2449 H 224.539 6.29808 -1.48158 0
M  V30 2450 N 224.671 0.411399 1.52136 0
M  V30 2451 C 225.634 -0.401089 2.25663 0
M  V30 2452 C 226.634 -0.971732 1.28117 0
M  V30 2453 O 227.824 -0.850254 1.52041 0
M  V30 2454 C 224.956 -1.56483 3.02863 0
M  V30 2455 H 226.149 0.24295 2.98914 0
M  V30 2456 H 223.702 0.163968 1.55438 0
M  V30 2457 H 224.437 -2.24567 2.33967 0
M  V30 2458 H 224.222 -1.16211 3.74483 0
M  V30 2459 H 225.712 -2.13951 3.58629 0
M  V30 2460 N 226.149 -1.5696 0.141893 0
M  V30 2461 C 227.398 -1.95135 -0.510427 0
M  V30 2462 C 227.711 -1.02896 -1.66348 0
M  V30 2463 O 228.917 -1.30629 -2.38009 0
M  V30 2464 C 227.373 -3.46876 -0.959427 0
M  V30 2465 C 226.981 -4.47691 0.166419 0
M  V30 2466 C 228.725 -3.93927 -1.58183 0
M  V30 2467 C 226.632 -5.90636 -0.300565 0
M  V30 2468 H 225.562 -0.728494 -0.194454 0
M  V30 2469 H 228.213 -1.8211 0.22542 0
M  V30 2470 H 226.595 -3.55215 -1.75038 0
M  V30 2471 H 227.769 -4.51043 0.94325 0
M  V30 2472 H 226.084 -4.10527 0.696905 0
M  V30 2473 H 228.681 -4.98158 -1.94275 0
M  V30 2474 H 229.024 -3.3519 -2.46888 0
M  V30 2475 H 229.557 -3.88484 -0.855863 0
M  V30 2476 H 226.296 -6.5318 0.550989 0
M  V30 2477 H 225.816 -5.90655 -1.04338 0
M  V30 2478 H 227.495 -6.42588 -0.754265 0
M  V30 2479 N 227.627 0.131896 -1.57047 0
M  V30 2480 C 228.875 0.840269 -1.83804 0
M  V30 2481 C 229.196 1.81017 -0.72512 0
M  V30 2482 O 228.466 1.94272 0.251995 0
M  V30 2483 H 227.046 0.313294 -0.678127 0
M  V30 2484 H 229.708 0.122294 -1.94516 0
M  V30 2485 H 228.804 1.39335 -2.79271 0
M  V30 2486 N 229.106 1.52395 0.401703 0
M  V30 2487 C 230.354 1.66488 1.14569 0
M  V30 2488 C 230.675 0.400897 1.90835 0
M  V30 2489 O 229.945 -0.584415 1.8698 0
M  V30 2490 H 228.525 0.613672 0.425929 0
M  V30 2491 H 231.187 1.89464 0.457093 0
M  V30 2492 H 230.283 2.50942 1.85566 0
M  V30 2493 N 230.584 -0.659388 1.43143 0
M  V30 2494 C 231.517 -1.78425 1.42267 0
M  V30 2495 C 232.495 -1.60085 0.284894 0
M  V30 2496 O 233.679 -1.82351 0.477527 0
M  V30 2497 C 230.806 -3.15642 1.22833 0
M  V30 2498 C 229.852 -3.52698 2.39806 0
M  V30 2499 S 230.685 -3.53372 4.02353 0
M  V30 2500 C 231.841 -4.93256 3.85291 0
M  V30 2501 H 232.074 -1.78897 2.37452 0
M  V30 2502 H 229.607 -0.831469 1.301 0
M  V30 2503 H 231.565 -3.94838 1.12308 0
M  V30 2504 H 230.226 -3.12739 0.29207 0
M  V30 2505 H 229.419 -4.52475 2.21996 0
M  V30 2506 H 229.021 -2.80899 2.46925 0
M  V30 2507 H 231.313 -5.81751 3.47235 0
M  V30 2508 H 232.256 -5.16115 4.84799 0
M  V30 2509 H 232.664 -4.665 3.17865 0
M  V30 2510 N 232.062 -1.29571 -0.897171 0
M  V30 2511 C 233.29 -1.20583 -1.68129 0
M  V30 2512 C 233.705 0.233181 -1.87354 0
M  V30 2513 O 233.062 1.15579 -1.41236 0
M  V30 2514 C 233.113 -1.91772 -3.06441 0
M  V30 2515 O 232.834 -3.30053 -2.88091 0
M  V30 2516 C 234.335 -1.89291 -4.00854 0
M  V30 2517 H 231.555 -0.417826 -0.525036 0
M  V30 2518 H 234.099 -1.70987 -1.12177 0
M  V30 2519 H 232.254 -1.45196 -3.59161 0
M  V30 2520 H 232.668 -3.65942 -3.75748 0
M  V30 2521 H 234.142 -2.43662 -4.95311 0
M  V30 2522 H 234.619 -0.869014 -4.30517 0
M  V30 2523 H 235.225 -2.35622 -3.54066 0
M  V30 2524 N 233.54 1.10788 -1.12088 0
M  V30 2525 C 234.951 1.64181 -0.88891 0
M  V30 2526 C 235.302 1.87508 0.577498 0
M  V30 2527 O 234.427 1.61434 1.44112 0
M  V30 2528 C 235.022 2.98257 -1.60712 0
M  V30 2529 C 233.581 3.4853 -1.42139 0
M  V30 2530 C 232.728 2.23208 -1.6454 0
M  V30 2531 H 235.679 0.943368 -1.27618 0
M  V30 2532 H 235.7 3.65552 -1.05604 0
M  V30 2533 H 235.212 2.81246 -2.67436 0
M  V30 2534 H 233.313 3.70692 -0.376552 0
M  V30 2535 H 233.426 4.26882 -2.17505 0
M  V30 2536 H 231.79 2.31169 -1.06925 0
M  V30 2537 H 232.573 2.08733 -2.72554 0
M  V30 2538 N 235.018 0.912232 1.28515 0
M  V30 2539 C 236.295 0.463597 1.90027 0
M  V30 2540 C 236.675 -1.05753 1.82701 0
M  V30 2541 O 236.023 -1.90492 1.26194 0
M  V30 2542 C 236.233 0.992253 3.34597 0
M  V30 2543 C 237.581 1.04344 4.11579 0
M  V30 2544 O 238.605 0.94079 3.43551 0
M  V30 2545 O 237.464 1.1995 5.33174 0
M  V30 2546 H 234.558 0.146666 0.813891 0
M  V30 2547 H 237.104 1.00292 1.36893 0
M  V30 2548 H 235.876 2.03623 3.34146 0
M  V30 2549 H 235.499 0.433672 3.95228 0
M  V30 2550 N 236.496 -1.42363 0.676048 0
M  V30 2551 C 237.912 -1.55811 0.345718 0
M  V30 2552 C 238.112 -1.65544 -1.14879 0
M  V30 2553 O 237.168 -1.62306 -1.93424 0
M  V30 2554 C 238.481 -2.80746 1.07713 0
M  V30 2555 C 240.029 -2.9452 1.05958 0
M  V30 2556 C 240.504 -4.22318 1.77233 0
M  V30 2557 N 241.995 -4.29233 1.74108 0
M  V30 2558 C 242.73 -5.26935 2.26113 0
M  V30 2559 N 242.226 -6.30783 2.86505 0
M  V30 2560 N 244.019 -5.18741 2.1648 0
M  V30 2561 H 236.17 -1.34289 1.6456 0
M  V30 2562 H 238.433 -0.646506 0.69335 0
M  V30 2563 H 238.139 -2.79696 2.13221 0
M  V30 2564 H 238.013 -3.71676 0.64316 0
M  V30 2565 H 240.4 -2.95097 0.0128255 0
M  V30 2566 H 240.481 -2.04817 1.53244 0
M  V30 2567 H 240.125 -4.22502 2.81877 0
M  V30 2568 H 240.055 -5.10958 1.27396 0
M  V30 2569 H 242.546 -3.54814 1.30059 0
M  V30 2570 H 242.859 -7.01691 3.23805 0
M  V30 2571 H 241.204 -6.31341 2.90575 0
M  V30 2572 H 244.395 -4.36533 1.68987 0
M  V30 2573 H 244.568 -5.94721 2.57316 0
M  V30 2574 N 237.974 -0.419461 -1.51915 0
M  V30 2575 C 238.904 0.391813 -2.30189 0
M  V30 2576 C 239.885 1.03699 -1.34836 0
M  V30 2577 O 241.07 1.04403 -1.63748 0
M  V30 2578 C 238.2 1.50312 -3.13087 0
M  V30 2579 C 237.154 0.9824 -4.16573 0
M  V30 2580 C 236.48 2.18809 -4.8788 0
M  V30 2581 C 237.78 0.0292356 -5.22292 0
M  V30 2582 H 239.474 -0.26135 -2.98257 0
M  V30 2583 H 237.02 -0.127134 -1.43438 0
M  V30 2584 H 238.973 2.07773 -3.66617 0
M  V30 2585 H 237.697 2.18431 -2.42807 0
M  V30 2586 H 236.356 0.430119 -3.64068 0
M  V30 2587 H 236.004 2.85507 -4.14119 0
M  V30 2588 H 235.704 1.84615 -5.57845 0
M  V30 2589 H 237.228 2.76858 -5.44226 0
M  V30 2590 H 238.642 0.512976 -5.71 0
M  V30 2591 H 237.039 -0.2244 -5.9968 0
M  V30 2592 H 238.109 -0.912931 -4.76228 0
M  V30 2593 N 239.452 1.56882 -0.150215 0
M  V30 2594 C 240.868 1.58263 0.20617 0
M  V30 2595 C 241.068 1.16464 1.64434 0
M  V30 2596 O 240.124 0.866422 2.3717 0
M  V30 2597 C 241.437 3.00649 -0.0555025 0
M  V30 2598 C 242.985 3.12999 0.00795388 0
M  V30 2599 C 243.46 4.5744 -0.226429 0
M  V30 2600 N 244.951 4.62875 -0.173469 0
M  V30 2601 C 245.686 5.72454 -0.329288 0
M  V30 2602 N 245.182 6.90669 -0.543005 0
M  V30 2603 N 246.975 5.61467 -0.266666 0
M  V30 2604 H 239.126 1.82345 -1.08922 0
M  V30 2605 H 241.389 0.844149 -0.431413 0
M  V30 2606 H 241.095 3.3563 -1.05096 0
M  V30 2607 H 240.969 3.71337 0.66246 0
M  V30 2608 H 243.356 2.77857 0.993966 0
M  V30 2609 H 243.437 2.4479 -0.742388 0
M  V30 2610 H 243.081 4.93287 -1.20956 0
M  V30 2611 H 243.011 5.2378 0.544274 0
M  V30 2612 H 245.502 3.77898 -0.0130709 0
M  V30 2613 H 245.815 7.70045 -0.651922 0
M  V30 2614 H 244.16 6.92581 -0.579366 0
M  V30 2615 H 247.351 4.67992 -0.100441 0
M  V30 2616 H 247.524 6.46816 -0.391535 0
M  V30 2617 N 240.93 -0.123565 1.57115 0
M  V30 2618 C 242.207 -0.862196 1.75572 0
M  V30 2619 C 242.587 -1.98279 0.724475 0
M  V30 2620 O 241.935 -2.27102 -0.252407 0
M  V30 2621 C 242.145 -1.38309 3.20424 0
M  V30 2622 C 243.493 -1.83724 3.82793 0
M  V30 2623 O 244.517 -1.47999 3.23998 0
M  V30 2624 O 243.376 -2.49685 4.86127 0
M  V30 2625 H 240.47 -0.409113 0.718718 0
M  V30 2626 H 243.016 -0.107661 1.69358 0
M  V30 2627 H 241.788 -0.578889 3.86994 0
M  V30 2628 H 241.411 -2.20046 3.31158 0
M  V30 2629 N 242.408 -1.52605 -0.393616 0
M  V30 2630 C 243.654 -1.67672 -1.14079 0
M  V30 2631 C 243.987 -0.413121 -1.89755 0
M  V30 2632 O 243.262 0.588952 -1.85369 0
M  V30 2633 C 243.545 -2.9088 -2.12276 0
M  V30 2634 C 243.398 -4.27329 -1.40394 0
M  V30 2635 C 244.717 -3.09628 -3.12759 0
M  V30 2636 H 241.836 -0.610168 -0.413356 0
M  V30 2637 H 244.478 -1.85193 -0.424696 0
M  V30 2638 H 242.628 -2.76073 -2.73342 0
M  V30 2639 H 244.3 -4.53894 -0.82327 0
M  V30 2640 H 242.543 -4.2802 -0.705801 0
M  V30 2641 H 243.214 -5.09615 -2.12123 0
M  V30 2642 H 245.69 -3.23436 -2.61779 0
M  V30 2643 H 244.566 -3.97322 -3.78717 0
M  V30 2644 H 244.827 -2.23637 -3.81365 0
M  V30 2645 N 243.887 0.651787 -1.4349 0
M  V30 2646 C 244.834 1.76462 -1.4876 0
M  V30 2647 C 245.804 1.62641 -0.337189 0
M  V30 2648 O 246.989 1.82864 -0.544544 0
M  V30 2649 C 244.129 3.14623 -1.41796 0
M  V30 2650 C 243.242 3.39568 -2.67053 0
M  V30 2651 C 242.377 4.67585 -2.52068 0
M  V30 2652 C 241.416 4.85639 -3.72587 0
M  V30 2653 N 240.553 6.04915 -3.56402 0
M  V30 2654 H 245.393 1.71293 -2.43849 0
M  V30 2655 H 242.93 0.835889 -1.21043 0
M  V30 2656 H 244.888 3.94496 -1.35753 0
M  V30 2657 H 243.518 3.18859 -0.50288 0
M  V30 2658 H 242.57 2.53783 -2.8337 0
M  V30 2659 H 243.882 3.48795 -3.56572 0
M  V30 2660 H 243.036 5.55586 -2.4374 0
M  V30 2661 H 241.775 4.60681 -1.60075 0
M  V30 2662 H 240.78 3.96073 -3.81321 0
M  V30 2663 H 242.005 4.94372 -4.65589 0
M  V30 2664 H 239.951 5.9914 -2.67146 0
M  V30 2665 H 239.868 6.15106 -4.39524 0
M  V30 2666 H 241.136 6.95533 -3.51929 0
M  V30 2667 N 245.365 1.30045 0.890287 0
M  V30 2668 C 246.297 1.11786 2.00091 0
M  V30 2669 C 247.31 0.0626307 1.62679 0
M  V30 2670 O 248.499 0.308112 1.75821 0
M  V30 2671 C 245.599 0.681527 3.31977 0
M  V30 2672 C 244.772 1.81735 3.97858 0
M  V30 2673 C 243.831 1.37045 5.08041 0
M  V30 2674 O 242.857 2.07677 5.29961 0
M  V30 2675 N 244.059 0.246525 5.79976 0
M  V30 2676 H 246.824 2.07441 2.16306 0
M  V30 2677 H 244.385 1.2211 1.06305 0
M  V30 2678 H 246.377 0.365675 4.03045 0
M  V30 2679 H 244.947 -0.182828 3.12065 0
M  V30 2680 H 244.167 2.30159 3.20032 0
M  V30 2681 H 245.455 2.57865 4.38615 0
M  V30 2682 H 244.853 -0.34215 5.64664 0
M  V30 2683 H 243.41 -0.00990438 6.51799 0
M  V30 2684 N 246.843 -1.10192 1.12674 0
M  V30 2685 C 247.806 -2.14786 0.799979 0
M  V30 2686 C 248.806 -1.59711 -0.18685 0
M  V30 2687 O 249.996 -1.74156 0.0392558 0
M  V30 2688 C 247.128 -3.40374 0.189228 0
M  V30 2689 H 248.321 -2.45203 1.72671 0
M  V30 2690 H 245.874 -1.25597 0.930326 0
M  V30 2691 H 246.609 -3.15577 -0.747107 0
M  V30 2692 H 246.394 -3.81637 0.899766 0
M  V30 2693 H 247.884 -4.17594 -0.0228143 0
M  V30 2694 N 248.321 -0.919034 -1.28029 0
M  V30 2695 C 249.569 -0.553838 -1.94363 0
M  V30 2696 C 249.89 0.906357 -1.72656 0
M  V30 2697 O 249.16 1.64143 -1.0693 0
M  V30 2698 H 247.74 -0.201834 -0.719216 0
M  V30 2699 H 250.402 -1.16954 -1.55909 0
M  V30 2700 H 249.498 -0.752758 -3.02886 0
M  V30 2701 N 249.799 1.42003 -0.683588 0
M  V30 2702 C 250.762 2.29191 -0.0198243 0
M  V30 2703 C 251.762 1.43773 0.72013 0
M  V30 2704 O 252.952 1.65061 0.556815 0
M  V30 2705 C 250.084 3.26435 0.982487 0
M  V30 2706 H 251.277 2.8938 -0.787345 0
M  V30 2707 H 248.83 1.49789 -0.446418 0
M  V30 2708 H 249.565 2.71203 1.77819 0
M  V30 2709 H 249.35 3.89449 0.455182 0
M  V30 2710 H 250.84 3.918 1.44508 0
M  V30 2711 N 251.277 0.427512 1.51691 0
M  V30 2712 C 252.554 -0.201684 1.94557 0
M  V30 2713 C 252.934 -1.60981 1.36559 0
M  V30 2714 O 252.282 -2.21814 0.548702 0
M  V30 2715 C 252.492 -0.189394 3.48486 0
M  V30 2716 C 253.84 -0.39978 4.22714 0
M  V30 2717 O 254.864 -0.267945 3.55191 0
M  V30 2718 O 253.723 -0.661249 5.42485 0
M  V30 2719 H 250.817 -0.135261 0.815864 0
M  V30 2720 H 253.363 0.484782 1.62628 0
M  V30 2721 H 252.135 0.795431 3.8313 0
M  V30 2722 H 251.758 -0.919187 3.86829 0
M  V30 2723 N 252.755 -1.56801 0.158532 0
M  V30 2724 C 254.003 -1.96102 -0.488712 0
M  V30 2725 C 254.324 -1.04498 -1.64636 0
M  V30 2726 O 253.594 -0.108783 -1.95598 0
M  V30 2727 H 252.174 -0.724102 -0.183535 0
M  V30 2728 H 254.836 -1.93457 0.236728 0
M  V30 2729 H 253.932 -3.00097 -0.857219 0
M  V30 2730 N 254.233 0.115231 -1.57178 0
M  V30 2731 C 255.482 0.820945 -1.84237 0
M  V30 2732 C 255.795 1.80866 -0.744761 0
M  V30 2733 O 257.001 2.56083 -0.901871 0
M  V30 2734 C 255.457 1.51072 -3.26658 0
M  V30 2735 C 255.065 0.563795 -4.44438 0
M  V30 2736 C 256.809 2.20134 -3.62962 0
M  V30 2737 C 254.716 1.25701 -5.77887 0
M  V30 2738 H 253.646 0.310328 -0.687177 0
M  V30 2739 H 256.297 0.0737134 -1.83352 0
M  V30 2740 H 254.679 2.30471 -3.22024 0
M  V30 2741 H 255.853 -0.197247 -4.60378 0
M  V30 2742 H 254.168 -0.0200638 -4.16395 0
M  V30 2743 H 256.765 2.72696 -4.59936 0
M  V30 2744 H 257.108 2.98107 -2.90582 0
M  V30 2745 H 257.641 1.47619 -3.69396 0
M  V30 2746 H 254.38 0.518493 -6.53446 0
M  V30 2747 H 253.9 1.98997 -5.65827 0
M  V30 2748 H 255.579 1.78915 -6.2177 0
M  V30 2749 N 255.711 1.52812 0.385517 0
M  V30 2750 C 256.674 1.77188 1.45386 0
M  V30 2751 C 257.674 0.641953 1.4743 0
M  V30 2752 O 258.864 0.910033 1.4854 0
M  V30 2753 C 255.996 1.87582 2.8465 0
M  V30 2754 H 257.189 2.72583 1.25054 0
M  V30 2755 H 254.742 1.43586 0.617467 0
M  V30 2756 H 255.477 0.941849 3.10322 0
M  V30 2757 H 255.262 2.69748 2.84567 0
M  V30 2758 H 256.752 2.08102 3.62054 0
M  V30 2759 N 257.189 -0.644168 1.43834 0
M  V30 2760 C 258.435 -1.40603 1.46146 0
M  V30 2761 C 258.768 -1.93997 0.0887717 0
M  V30 2762 O 258.043 -1.72854 -0.891724 0
M  V30 2763 C 258.326 -2.58086 2.51124 0
M  V30 2764 C 258.179 -2.10126 3.97702 0
M  V30 2765 C 259.498 -3.60291 2.52742 0
M  V30 2766 H 256.617 -0.509905 0.532134 0
M  V30 2767 H 259.259 -0.729502 1.75437 0
M  V30 2768 H 257.409 -3.15801 2.26278 0
M  V30 2769 H 259.081 -1.57342 4.33637 0
M  V30 2770 H 257.324 -1.41419 4.10101 0
M  V30 2771 H 257.995 -2.94649 4.66783 0
M  V30 2772 H 260.471 -3.12352 2.7491 0
M  V30 2773 H 259.347 -4.40032 3.28121 0
M  V30 2774 H 259.608 -4.1349 1.56455 0
M  V30 2775 N 258.668 -1.30515 -0.883378 0
M  V30 2776 C 259.601 -1.11359 -1.99184 0
M  V30 2777 C 260.579 -0.0207858 -1.62587 0
M  V30 2778 O 261.763 -0.174646 -1.87689 0
M  V30 2779 C 258.89 -0.69871 -3.31415 0
M  V30 2780 C 257.936 -1.79261 -3.86998 0
M  V30 2781 S 258.769 -3.39536 -4.14096 0
M  V30 2782 C 259.925 -2.99954 -5.49344 0
M  V30 2783 H 260.158 -2.052 -2.15128 0
M  V30 2784 H 257.691 -1.14847 -1.03196 0
M  V30 2785 H 259.649 -0.466075 -4.07846 0
M  V30 2786 H 258.31 0.220368 -3.13326 0
M  V30 2787 H 257.503 -1.45464 -4.82552 0
M  V30 2788 H 257.105 -1.97961 -3.17313 0
M  V30 2789 H 259.397 -2.48013 -6.30473 0
M  V30 2790 H 260.34 -3.9442 -5.8808 0
M  V30 2791 H 260.748 -2.37775 -5.1198 0
M  V30 2792 N 260.146 1.09593 -1.13257 0
M  V30 2793 C 261.371 1.8604 -0.916732 0
M  V30 2794 C 261.796 1.80504 0.529146 0
M  V30 2795 O 261.154 1.18127 1.37534 0
M  V30 2796 C 261.202 3.32017 -1.40703 0
M  V30 2797 O 260.306 4.08141 -0.591153 0
M  V30 2798 H 259.647 0.576943 -0.328683 0
M  V30 2799 H 262.177 1.38405 -1.50682 0
M  V30 2800 H 262.187 3.82865 -1.4099 0
M  V30 2801 H 260.862 3.35361 -2.45979 0
M  V30 2802 H 259.439 3.67084 -0.656005 0
M  V30 2803 N 261.624 0.925811 1.2754 0
M  V30 2804 C 262.872 0.564138 1.94067 0
M  V30 2805 C 263.193 -0.897188 1.73134 0
M  V30 2806 O 262.463 -1.63573 1.07799 0
M  V30 2807 H 261.043 0.205645 0.718136 0
M  V30 2808 H 263.705 1.1778 1.55287 0
M  V30 2809 H 262.801 0.76881 3.02483 0
M  V30 2810 N 263.102 -1.41638 0.69111 0
M  V30 2811 C 264.351 -2.00526 0.217318 0
M  V30 2812 C 264.664 -1.55353 -1.18848 0
M  V30 2813 O 265.87 -2.06769 -1.75951 0
M  V30 2814 C 264.326 -3.58313 0.337639 0
M  V30 2815 C 263.934 -4.12469 1.74852 0
M  V30 2816 C 265.678 -4.24431 -0.0766066 0
M  V30 2817 C 263.585 -5.62675 1.82074 0
M  V30 2818 H 262.515 -0.750008 0.0774893 0
M  V30 2819 H 265.166 -1.6217 0.858661 0
M  V30 2820 H 263.548 -3.9425 -0.371879 0
M  V30 2821 H 264.722 -3.8796 2.48644 0
M  V30 2822 H 263.037 -3.58861 2.11205 0
M  V30 2823 H 265.634 -5.34683 -0.0430284 0
M  V30 2824 H 265.977 -4.01101 -1.1146 0
M  V30 2825 H 266.51 -3.93512 0.582476 0
M  V30 2826 H 263.249 -5.90826 2.83911 0
M  V30 2827 H 262.769 -5.89124 1.12661 0
M  V30 2828 H 264.448 -6.27371 1.58159 0
M  V30 2829 N 264.58 -0.43555 -1.51462 0
M  V30 2830 C 265.827 0.131514 -2.02072 0
M  V30 2831 C 266.155 1.42868 -1.31981 0
M  V30 2832 O 265.41 1.91076 -0.422883 0
M  V30 2833 C 265.709 0.39942 -3.55161 0
M  V30 2834 C 265.375 -0.81172 -4.43533 0
M  V30 2835 C 264.037 -1.14387 -4.67407 0
M  V30 2836 C 266.389 -1.61976 -4.95392 0
M  V30 2837 C 263.717 -2.28477 -5.40384 0
M  V30 2838 C 266.069 -2.75164 -5.6962 0
M  V30 2839 C 264.733 -3.08835 -5.91758 0
M  V30 2840 H 264.003 0.0481244 -0.739436 0
M  V30 2841 H 266.65 -0.58238 -1.8243 0
M  V30 2842 H 264.955 1.19519 -3.73125 0
M  V30 2843 H 266.652 0.85157 -3.91854 0
M  V30 2844 H 263.242 -0.542898 -4.25148 0
M  V30 2845 H 267.426 -1.37637 -4.76833 0
M  V30 2846 H 262.682 -2.5488 -5.55739 0
M  V30 2847 H 266.856 -3.38147 -6.08793 0
M  V30 2848 H 264.483 -3.97353 -6.48086 0
M  V30 2849 N 266.058 1.56714 -0.166846 0
M  V30 2850 C 267.283 2.01557 0.488833 0
M  V30 2851 C 267.708 1.0463 1.56314 0
M  V30 2852 O 267.066 0.0251304 1.81283 0
M  V30 2853 C 267.114 3.4503 1.04818 0
M  V30 2854 O 266.218 3.51163 2.16236 0
M  V30 2855 H 265.559 0.653516 0.117526 0
M  V30 2856 H 268.089 2.02818 -0.269421 0
M  V30 2857 H 268.099 3.84243 1.37191 0
M  V30 2858 H 266.774 4.15077 0.261572 0
M  V30 2859 H 265.351 3.23807 1.84942 0
M  V30 2860 N 267.536 -0.106894 1.57237 0
M  V30 2861 C 268.761 -0.830287 1.90055 0
M  V30 2862 C 269.186 -1.72064 0.75998 0
M  V30 2863 O 268.544 -1.78982 -0.288991 0
M  V30 2864 C 268.592 -1.6295 3.21683 0
M  V30 2865 O 267.696 -2.73748 3.08441 0
M  V30 2866 H 267.037 -0.228855 0.623315 0
M  V30 2867 H 269.567 -0.085658 2.04421 0
M  V30 2868 H 269.577 -2.01621 3.54701 0
M  V30 2869 H 268.252 -0.975989 4.04286 0
M  V30 2870 H 266.829 -2.38192 2.86913 0
M  V30 2871 N 269.014 -1.53014 -0.377408 0
M  V30 2872 C 269.977 -1.77957 -1.44444 0
M  V30 2873 C 270.977 -0.649763 -1.47087 0
M  V30 2874 O 272.167 -0.917897 -1.48055 0
M  V30 2875 C 269.299 -1.89089 -2.83651 0
M  V30 2876 H 270.492 -2.73243 -1.23606 0
M  V30 2877 H 268.045 -1.43912 -0.609844 0
M  V30 2878 H 268.78 -0.958293 -3.09818 0
M  V30 2879 H 268.565 -2.71254 -2.83132 0
M  V30 2880 H 270.055 -2.1002 -3.60945 0
M  V30 2881 N 270.492 0.636531 -1.44174 0
M  V30 2882 C 271.402 1.77754 -1.53103 0
M  V30 2883 C 272.418 1.68928 -0.417034 0
M  V30 2884 O 273.594 1.89801 -0.6736 0
M  V30 2885 C 270.659 3.14115 -1.46741 0
M  V30 2886 C 269.72 3.34612 -2.68948 0
M  V30 2887 C 268.953 4.64467 -2.6288 0
M  V30 2888 O 269.176 5.44919 -1.68581 0
M  V30 2889 O 268.11 4.87049 -3.53648 0
M  V30 2890 H 271.936 1.73174 -2.49489 0
M  V30 2891 H 269.521 0.79709 -1.2636 0
M  V30 2892 H 271.403 3.95412 -1.45696 0
M  V30 2893 H 270.078 3.19249 -0.534975 0
M  V30 2894 H 268.985 2.53014 -2.75562 0
M  V30 2895 H 270.318 3.34336 -3.61221 0
M  V30 2896 N 271.97 1.30982 0.876444 0
M  V30 2897 C 273.381 1.18277 1.44456 0
M  V30 2898 C 273.732 -0.213265 1.95037 0
M  V30 2899 O 272.857 -1.11057 1.85729 0
M  V30 2900 C 273.452 2.1411 2.62569 0
M  V30 2901 C 272.011 2.05358 3.15444 0
M  V30 2902 C 271.158 2.03706 1.88146 0
M  V30 2903 H 274.109 1.43127 0.685584 0
M  V30 2904 H 274.13 1.72692 3.39054 0
M  V30 2905 H 273.642 3.15706 2.25724 0
M  V30 2906 H 271.743 1.06934 3.56926 0
M  V30 2907 H 271.856 2.94156 3.78166 0
M  V30 2908 H 270.22 1.48629 2.06837 0
M  V30 2909 H 271.003 3.07047 1.53547 0
M  V30 2910 N 273.449 -1.08991 1.13837 0
M  V30 2911 C 274.379 -2.17771 0.842507 0
M  V30 2912 C 275.36 -1.6892 -0.20001 0
M  V30 2913 O 276.545 -1.94113 -0.0579731 0
M  V30 2914 C 273.675 -3.4589 0.312644 0
M  V30 2915 C 272.629 -4.08099 1.28992 0
M  V30 2916 C 271.955 -5.31098 0.619623 0
M  V30 2917 C 273.255 -4.50077 2.65005 0
M  V30 2918 H 274.949 -2.42777 1.75213 0
M  V30 2919 H 272.495 -1.16682 0.843875 0
M  V30 2920 H 274.448 -4.21297 0.0933043 0
M  V30 2921 H 273.172 -3.20419 -0.632382 0
M  V30 2922 H 271.831 -3.34717 1.49533 0
M  V30 2923 H 271.479 -5.0191 -0.33102 0
M  V30 2924 H 271.179 -5.73674 1.27167 0
M  V30 2925 H 272.703 -6.09224 0.409669 0
M  V30 2926 H 274.117 -5.16688 2.48407 0
M  V30 2927 H 272.514 -5.03553 3.26427 0
M  V30 2928 H 273.584 -3.62257 3.22332 0
M  V30 2929 N 274.927 -0.932562 -1.27047 0
M  V30 2930 C 275.837 -0.441219 -2.30414 0
M  V30 2931 C 276.853 0.480525 -1.67233 0
M  V30 2932 O 278.029 0.362151 -1.98117 0
M  V30 2933 C 275.094 0.293651 -3.45454 0
M  V30 2934 C 274.155 -0.663601 -4.2414 0
M  V30 2935 C 273.388 0.0362932 -5.33688 0
M  V30 2936 O 273.611 1.2548 -5.56427 0
M  V30 2937 O 272.545 -0.638015 -5.98509 0
M  V30 2938 H 276.371 -1.29962 -2.74488 0
M  V30 2939 H 273.956 -0.6981 -1.32087 0
M  V30 2940 H 275.838 0.707951 -4.15411 0
M  V30 2941 H 274.513 1.12758 -3.03426 0
M  V30 2942 H 273.42 -1.12768 -3.56699 0
M  V30 2943 H 274.753 -1.46489 -4.69896 0
M  V30 2944 N 276.405 1.4127 -0.698611 0
M  V30 2945 C 277.368 2.29158 -0.044132 0
M  V30 2946 C 278.368 1.44529 0.704841 0
M  V30 2947 O 279.558 1.65643 0.539276 0
M  V30 2948 C 276.69 3.27459 0.947809 0
M  V30 2949 H 277.883 2.88529 -0.817994 0
M  V30 2950 H 275.436 1.49307 -0.46228 0
M  V30 2951 H 276.171 2.73073 1.74933 0
M  V30 2952 H 275.956 3.8991 0.41385 0
M  V30 2953 H 277.446 3.93311 1.40344 0
M  V30 2954 N 277.883 0.443576 1.51229 0
M  V30 2955 C 278.846 -0.353132 2.26463 0
M  V30 2956 C 279.846 -0.944338 1.3015 0
M  V30 2957 O 281.036 -0.817813 1.5381 0
M  V30 2958 C 278.168 -1.50023 3.06114 0
M  V30 2959 H 279.361 0.3063 2.98332 0
M  V30 2960 H 276.914 0.196902 1.55055 0
M  V30 2961 H 277.649 -2.19553 2.38677 0
M  V30 2962 H 277.434 -1.08241 3.76864 0
M  V30 2963 H 278.924 -2.06296 3.63087 0
M  V30 2964 N 279.361 -1.56624 0.175154 0
M  V30 2965 C 280.777 -1.58571 -0.180966 0
M  V30 2966 C 280.977 -1.19065 -1.6256 0
M  V30 2967 O 280.033 -0.904044 -2.35761 0
M  V30 2968 C 281.346 -3.00522 0.103326 0
M  V30 2969 C 282.894 -3.12972 0.0418426 0
M  V30 2970 C 283.369 -4.57022 0.299175 0
M  V30 2971 N 284.86 -4.62541 0.247086 0
M  V30 2972 C 285.595 -5.71857 0.420318 0
M  V30 2973 N 285.091 -6.89717 0.652816 0
M  V30 2974 N 286.884 -5.60972 0.355957 0
M  V30 2975 H 279.035 -1.80589 1.11809 0
M  V30 2976 H 281.298 -0.837178 0.444788 0
M  V30 2977 H 281.004 -3.33916 1.10422 0
M  V30 2978 H 280.878 -3.72344 -0.603299 0
M  V30 2979 H 283.265 -2.79403 -0.949636 0
M  V30 2980 H 283.346 -2.43578 0.781238 0
M  V30 2981 H 282.99 -4.913 1.28788 0
M  V30 2982 H 282.92 -5.24579 -0.460876 0
M  V30 2983 H 285.411 -3.77829 0.0731895 0
M  V30 2984 H 285.724 -7.68911 0.774347 0
M  V30 2985 H 284.069 -6.91572 0.689476 0
M  V30 2986 H 287.26 -4.67773 0.174882 0
M  V30 2987 H 287.433 -6.46111 0.494388 0
M  V30 2988 N 280.839 0.0985539 -1.57292 0
M  V30 2989 C 282.255 0.45267 -1.53046 0
M  V30 2990 C 282.455 1.80713 -0.891342 0
M  V30 2991 O 281.511 2.4785 -0.482375 0
M  V30 2992 C 282.824 0.418341 -2.97776 0
M  V30 2993 C 284.372 0.500443 -3.08973 0
M  V30 2994 C 284.847 0.496297 -4.55303 0
M  V30 2995 N 286.338 0.557151 -4.59837 0
M  V30 2996 C 287.073 0.575726 -5.70502 0
M  V30 2997 N 286.569 0.550714 -6.90608 0
M  V30 2998 N 288.362 0.620277 -5.58667 0
M  V30 2999 H 280.513 -0.788673 -1.97215 0
M  V30 3000 H 282.776 -0.293188 -0.901524 0
M  V30 3001 H 282.482 -0.509659 -3.47988 0
M  V30 3002 H 282.356 1.2386 -3.56284 0
M  V30 3003 H 284.743 1.41886 -2.58751 0
M  V30 3004 H 284.824 -0.347894 -2.53423 0
M  V30 3005 H 284.468 -0.418162 -5.06176 0
M  V30 3006 H 284.398 1.3618 -5.08687 0
M  V30 3007 H 286.889 0.581816 -3.73394 0
M  V30 3008 H 287.202 0.568075 -7.70709 0
M  V30 3009 H 285.547 0.517816 -6.93068 0
M  V30 3010 H 288.738 0.637322 -4.63741 0
M  V30 3011 H 288.911 0.631283 -6.44918 0
M  V30 3012 N 282.317 1.53212 0.369288 0
M  V30 3013 C 283.547 1.72868 1.13139 0
M  V30 3014 C 283.955 0.455754 1.83629 0
M  V30 3015 O 283.298 -0.580861 1.74275 0
M  V30 3016 C 283.36 2.83667 2.20847 0
M  V30 3017 C 283.024 4.24142 1.70155 0
M  V30 3018 C 284.021 5.06619 1.16763 0
M  V30 3019 C 281.706 4.70539 1.7578 0
M  V30 3020 C 283.7 6.33581 0.696678 0
M  V30 3021 C 281.387 5.97481 1.28297 0
M  V30 3022 C 282.385 6.78833 0.753307 0
M  V30 3023 O 282.073 8.03393 0.285475 0
M  V30 3024 H 281.805 0.581707 0.344373 0
M  V30 3025 H 284.359 2.00736 0.435243 0
M  V30 3026 H 282.589 2.51265 2.93944 0
M  V30 3027 H 284.278 2.91536 2.82421 0
M  V30 3028 H 285.044 4.71948 1.11758 0
M  V30 3029 H 280.923 4.07293 2.15949 0
M  V30 3030 H 284.467 6.97027 0.282581 0
M  V30 3031 H 280.364 6.31651 1.32994 0
M  V30 3032 H 281.132 8.17497 0.405145 0
M  V30 3033 N 283.795 -0.628877 1.44509 0
M  V30 3034 C 285.02 -1.42048 1.5112 0
M  V30 3035 C 285.445 -1.87594 0.137818 0
M  V30 3036 O 284.803 -1.58873 -0.873437 0
M  V30 3037 C 284.851 -2.61541 2.48251 0
M  V30 3038 O 283.955 -3.61453 1.98559 0
M  V30 3039 H 283.296 -0.424942 0.510216 0
M  V30 3040 H 285.826 -0.767374 1.89664 0
M  V30 3041 H 285.836 -3.09057 2.66361 0
M  V30 3042 H 284.511 -2.27736 3.48007 0
M  V30 3043 H 283.088 -3.20731 1.90227 0
M  V30 3044 N 285.273 -1.31445 -0.869486 0
M  V30 3045 C 286.689 -1.10113 -1.15531 0
M  V30 3046 C 286.889 0.128087 -2.01092 0
M  V30 3047 O 285.945 0.817276 -2.38908 0
M  V30 3048 C 287.258 -2.37291 -1.84698 0
M  V30 3049 C 288.806 -2.42906 -1.97397 0
M  V30 3050 C 289.281 -3.69967 -2.69979 0
M  V30 3051 N 290.772 -3.70864 -2.77514 0
M  V30 3052 C 291.507 -4.65875 -3.34287 0
M  V30 3053 N 291.003 -5.71242 -3.91988 0
M  V30 3054 N 292.796 -4.53394 -3.3225 0
M  V30 3055 H 284.947 -2.1028 -0.299347 0
M  V30 3056 H 287.21 -0.927683 -0.195214 0
M  V30 3057 H 286.916 -3.27078 -1.29278 0
M  V30 3058 H 286.79 -2.47125 -2.84972 0
M  V30 3059 H 289.177 -1.53588 -2.51982 0
M  V30 3060 H 289.258 -2.37036 -0.961643 0
M  V30 3061 H 288.902 -4.59652 -2.16062 0
M  V30 3062 H 288.832 -3.73103 -3.7162 0
M  V30 3063 H 291.323 -2.94697 -2.36563 0
M  V30 3064 H 291.636 -6.39817 -4.33421 0
M  V30 3065 H 289.981 -5.75015 -3.90362 0
M  V30 3066 H 293.172 -3.70252 -2.8641 0
M  V30 3067 H 293.345 -5.27617 -3.76197 0
M  V30 3068 N 286.751 1.08385 -1.14413 0
M  V30 3069 C 287.698 2.15311 -0.831265 0
M  V30 3070 C 288.668 1.64751 0.211292 0
M  V30 3071 O 289.853 1.90627 0.0811674 0
M  V30 3072 C 286.993 3.43658 -0.315143 0
M  V30 3073 C 286.106 4.08064 -1.41802 0
M  V30 3074 C 285.241 5.24207 -0.859126 0
M  V30 3075 C 284.28 5.80554 -1.93967 0
M  V30 3076 N 283.417 6.88042 -1.39793 0
M  V30 3077 H 288.257 2.41415 -1.74708 0
M  V30 3078 H 285.794 1.18474 -0.871909 0
M  V30 3079 H 287.752 4.172 0.00230884 0
M  V30 3080 H 286.382 3.17839 0.56378 0
M  V30 3081 H 285.434 3.3228 -1.85187 0
M  V30 3082 H 286.746 4.45962 -2.23427 0
M  V30 3083 H 285.9 6.04689 -0.49359 0
M  V30 3084 H 284.639 4.87699 -0.011932 0
M  V30 3085 H 283.644 4.98725 -2.31415 0
M  V30 3086 H 284.869 6.19121 -2.79046 0
M  V30 3087 H 282.815 6.53493 -0.572919 0
M  V30 3088 H 282.732 7.24767 -2.15054 0
M  V30 3089 H 284 7.72255 -1.0603 0
M  V30 3090 N 288.23 0.939286 1.26551 0
M  V30 3091 C 289.16 0.465044 2.28822 0
M  V30 3092 C 290.141 -0.480692 1.63167 0
M  V30 3093 O 291.326 -0.382955 1.90387 0
M  V30 3094 C 288.456 -0.27234 3.46231 0
M  V30 3095 C 287.41 0.58666 4.2396 0
M  V30 3096 C 286.736 -0.280573 5.33963 0
M  V30 3097 C 288.036 1.85704 4.88171 0
M  V30 3098 H 289.73 1.31979 2.68741 0
M  V30 3099 H 287.276 0.636061 1.29191 0
M  V30 3100 H 289.229 -0.615133 4.16886 0
M  V30 3101 H 287.953 -1.16121 3.0526 0
M  V30 3102 H 286.612 0.91232 3.55067 0
M  V30 3103 H 286.26 -1.16874 4.89234 0
M  V30 3104 H 285.96 0.29076 5.8688 0
M  V30 3105 H 287.484 -0.618678 6.07458 0
M  V30 3106 H 288.898 1.58161 5.51052 0
M  V30 3107 H 287.295 2.37279 5.51197 0
M  V30 3108 H 288.365 2.56957 4.11219 0
M  V30 3109 N 289.708 -1.40897 0.706093 0
M  V30 3110 C 290.655 -2.30751 0.0474474 0
M  V30 3111 C 291.625 -1.47678 -0.76029 0
M  V30 3112 O 292.81 -1.76441 -0.726177 0
M  V30 3113 C 289.95 -3.33815 -0.875309 0
M  V30 3114 C 289.063 -4.31961 -0.0580623 0
M  V30 3115 C 288.198 -5.22093 -0.979425 0
M  V30 3116 C 287.237 -6.11902 -0.155706 0
M  V30 3117 N 286.374 -6.94482 -1.03144 0
M  V30 3118 H 291.214 -2.86513 0.819413 0
M  V30 3119 H 288.751 -1.41102 0.415783 0
M  V30 3120 H 290.709 -3.92129 -1.42446 0
M  V30 3121 H 289.339 -2.79579 -1.61356 0
M  V30 3122 H 288.391 -3.75507 0.608147 0
M  V30 3123 H 289.703 -4.95415 0.580082 0
M  V30 3124 H 288.857 -5.85292 -1.59744 0
M  V30 3125 H 287.596 -4.5889 -1.65141 0
M  V30 3126 H 286.601 -5.47742 0.475309 0
M  V30 3127 H 287.826 -6.77162 0.512635 0
M  V30 3128 H 285.772 -6.33877 -1.68924 0
M  V30 3129 H 285.689 -7.54665 -0.449108 0
M  V30 3130 H 286.957 -7.6214 -1.63593 0
M  V30 3131 N 291.186 -0.45159 -1.50991 0
M  V30 3132 C 292.096 0.358431 -2.31846 0
M  V30 3133 C 293.112 1.01438 -1.41373 0
M  V30 3134 O 294.288 1.00663 -1.74439 0
M  V30 3135 C 291.353 1.43704 -3.15515 0
M  V30 3136 C 290.414 0.799742 -4.21785 0
M  V30 3137 C 289.647 1.82696 -5.01456 0
M  V30 3138 O 289.87 3.05105 -4.81941 0
M  V30 3139 O 288.804 1.40958 -5.85162 0
M  V30 3140 H 292.63 -0.302032 -3.02194 0
M  V30 3141 H 290.215 -0.213825 -1.47862 0
M  V30 3142 H 292.097 2.06227 -3.67489 0
M  V30 3143 H 290.772 2.08133 -2.47916 0
M  V30 3144 H 289.679 0.136084 -3.73852 0
M  V30 3145 H 291.012 0.198718 -4.91799 0
M  V30 3146 N 292.664 1.56529 -0.183458 0
M  V30 3147 C 293.597 2.14417 0.781052 0
M  V30 3148 C 294.575 1.07761 1.21763 0
M  V30 3149 O 295.759 1.35807 1.30724 0
M  V30 3150 C 292.886 2.69361 2.05335 0
M  V30 3151 C 291.932 3.885 1.75982 0
M  V30 3152 S 292.765 5.27568 0.918256 0
M  V30 3153 C 293.921 5.85926 2.20095 0
M  V30 3154 H 294.154 2.95893 0.2889 0
M  V30 3155 H 291.687 1.54368 0.0313844 0
M  V30 3156 H 293.645 3.01662 2.78406 0
M  V30 3157 H 292.306 1.87949 2.51663 0
M  V30 3158 H 291.499 4.25314 2.70415 0
M  V30 3159 H 291.101 3.57149 1.10999 0
M  V30 3160 H 293.393 5.99579 3.15453 0
M  V30 3161 H 294.336 6.82761 1.87731 0
M  V30 3162 H 294.744 5.14438 2.32409 0
M  V30 3163 N 294.142 -0.090211 1.57342 0
M  V30 3164 C 295.558 -0.444547 1.53284 0
M  V30 3165 C 295.758 -1.80238 0.900914 0
M  V30 3166 O 294.814 -2.4759 0.495513 0
M  V30 3167 C 296.127 -0.402543 2.97993 0
M  V30 3168 C 297.675 -0.48405 3.09234 0
M  V30 3169 C 298.15 -0.472144 4.5556 0
M  V30 3170 N 299.641 -0.532757 4.60126 0
M  V30 3171 C 300.376 -0.545462 5.708 0
M  V30 3172 N 299.872 -0.514082 6.9089 0
M  V30 3173 N 301.665 -0.59064 5.58988 0
M  V30 3174 H 293.816 0.799121 1.96794 0
M  V30 3175 H 296.079 0.297965 0.899956 0
M  V30 3176 H 295.785 0.528106 3.47712 0
M  V30 3177 H 295.659 -1.21969 3.56936 0
M  V30 3178 H 298.046 -1.40512 2.595 0
M  V30 3179 H 298.127 0.361328 2.53235 0
M  V30 3180 H 297.771 0.445 5.05947 0
M  V30 3181 H 297.701 -1.3348 5.09402 0
M  V30 3182 H 300.192 -0.562006 3.73698 0
M  V30 3183 H 300.505 -0.527195 7.71 0
M  V30 3184 H 298.85 -0.481054 6.93333 0
M  V30 3185 H 302.041 -0.61272 4.64073 0
M  V30 3186 H 302.214 -0.597073 6.45243 0
M  V30 3187 N 295.62 -1.53406 -0.361157 0
M  V30 3188 C 296.85 -1.73465 -1.1222 0
M  V30 3189 C 297.258 -0.465486 -1.83384 0
M  V30 3190 O 296.601 0.571611 -1.7458 0
M  V30 3191 C 296.663 -2.84834 -2.19339 0
M  V30 3192 C 296.327 -4.25038 -1.67903 0
M  V30 3193 C 297.324 -5.07231 -1.14074 0
M  V30 3194 C 295.009 -4.71464 -1.73282 0
M  V30 3195 C 297.003 -6.33942 -0.663068 0
M  V30 3196 C 294.69 -5.98153 -1.25127 0
M  V30 3197 C 295.688 -6.79223 -0.717296 0
M  V30 3198 O 295.376 -8.03533 -0.242865 0
M  V30 3199 H 295.108 -0.583526 -0.341283 0
M  V30 3200 H 297.662 -2.00964 -0.424591 0
M  V30 3201 H 295.892 -2.5282 -2.92607 0
M  V30 3202 H 297.581 -2.9303 -2.80871 0
M  V30 3203 H 298.347 -4.72534 -1.09254 0
M  V30 3204 H 294.226 -4.08432 -2.13786 0
M  V30 3205 H 297.77 -6.97167 -0.245612 0
M  V30 3206 H 293.667 -6.32347 -1.29642 0
M  V30 3207 H 294.435 -8.177 -0.361786 0
M  V30 3208 N 297.098 0.621204 -1.44841 0
M  V30 3209 C 298.008 1.7612 -1.5498 0
M  V30 3210 C 299.024 1.68477 -0.434927 0
M  V30 3211 O 300.2 1.89076 -0.693693 0
M  V30 3212 C 297.265 3.1254 -1.50065 0
M  V30 3213 C 296.326 3.31741 -2.72482 0
M  V30 3214 C 295.559 4.61653 -2.67792 0
M  V30 3215 O 295.782 5.431 -1.74352 0
M  V30 3216 O 294.716 4.83271 -3.58794 0
M  V30 3217 H 298.542 1.70518 -2.51311 0
M  V30 3218 H 296.127 0.783643 -1.27198 0
M  V30 3219 H 298.009 3.93844 -1.49882 0
M  V30 3220 H 296.684 3.18663 -0.568806 0
M  V30 3221 H 295.591 2.50077 -2.7823 0
M  V30 3222 H 296.924 3.30486 -3.64746 0
M  V30 3223 N 298.576 1.31904 0.862503 0
M  V30 3224 C 299.523 1.20182 1.9704 0
M  V30 3225 C 300.493 0.0858247 1.65878 0
M  V30 3226 O 301.678 0.26 1.8902 0
M  V30 3227 C 298.818 0.922797 3.32533 0
M  V30 3228 C 297.931 2.12284 3.76244 0
M  V30 3229 C 297.066 1.77996 5.00491 0
M  V30 3230 C 296.105 2.94366 5.36671 0
M  V30 3231 N 295.242 2.60223 6.52095 0
M  V30 3232 H 300.082 2.14951 2.06398 0
M  V30 3233 H 297.619 1.06917 1.01031 0
M  V30 3234 H 299.577 0.741548 4.10557 0
M  V30 3235 H 298.207 0.0119227 3.22798 0
M  V30 3236 H 297.259 2.41461 2.9394 0
M  V30 3237 H 298.571 2.99357 3.98982 0
M  V30 3238 H 297.725 1.56377 5.862 0
M  V30 3239 H 296.464 0.881252 4.79672 0
M  V30 3240 H 295.469 3.16625 4.49476 0
M  V30 3241 H 296.694 3.84957 5.59451 0
M  V30 3242 H 294.64 1.72884 6.32809 0
M  V30 3243 H 294.557 3.40827 6.74814 0
M  V30 3244 H 295.825 2.42016 7.40978 0
M  V30 3245 N 300.054 -1.07777 1.14986 0
M  V30 3246 C 301.017 -2.13041 0.845358 0
M  V30 3247 C 302.017 -1.60071 -0.152931 0
M  V30 3248 O 303.207 -1.74033 0.0761879 0
M  V30 3249 C 300.339 -3.39896 0.261383 0
M  V30 3250 H 301.532 -2.41485 1.77834 0
M  V30 3251 H 299.085 -1.23595 0.956757 0
M  V30 3252 H 299.82 -3.17091 -0.68 0
M  V30 3253 H 299.605 -3.79642 0.980514 0
M  V30 3254 H 301.095 -4.17548 0.0657687 0
M  V30 3255 N 301.532 -0.945985 -1.26051 0
M  V30 3256 C 302.462 -0.477172 -2.28572 0
M  V30 3257 C 303.443 0.472032 -1.63419 0
M  V30 3258 O 304.628 0.372853 -1.90587 0
M  V30 3259 C 301.758 0.253975 -3.4637 0
M  V30 3260 C 300.712 -0.609135 -4.23643 0
M  V30 3261 C 300.038 0.252252 -5.34105 0
M  V30 3262 C 301.338 -1.8829 -4.8718 0
M  V30 3263 H 303.032 -1.33402 -2.68038 0
M  V30 3264 H 300.578 -0.642904 -1.28852 0
M  V30 3265 H 302.531 0.593016 -4.17207 0
M  V30 3266 H 301.255 1.145 -3.05871 0
M  V30 3267 H 299.914 -0.931138 -3.54578 0
M  V30 3268 H 299.562 1.14278 -4.89846 0
M  V30 3269 H 299.262 -0.32188 -5.86718 0
M  V30 3270 H 300.786 0.586454 -6.07777 0
M  V30 3271 H 302.2 -1.61081 -5.50205 0
M  V30 3272 H 300.597 -2.40199 -5.49931 0
M  V30 3273 H 301.667 -2.59134 -4.09851 0
M  V30 3274 O 303.049 1.37208 -0.85184 0
M  V30 3275 H 303.74 1.88528 -0.444614 0
M  V30 END ATOM
M  V30 BEGIN BOND
M  V30 END BOND
M  V30 END CTAB
M  END
$$$$
