drugbank_target|P9WPE1 Citrate lyase subunit beta-like protein (DB01942)
 OpenBabel12092120233D

  0  0  0     0  0            999 V3000
M  V30 BEGIN CTAB
M  V30 COUNTS 4055 4087 0 0 0
M  V30 BEGIN ATOM
M  V30 1 H -0.908 1.98254 -0.117106 0
M  V30 2 N 0 1.576 0 0
M  V30 3 C 0.933 2.03868 1.02534 0
M  V30 4 C 1.911 0.928543 1.3348 0
M  V30 5 O 3.095 1.19667 1.45644 0
M  V30 6 C 0.222 2.43627 2.35294 0
M  V30 7 C -0.732 3.65373 2.2001 0
M  V30 8 S 0.101 5.13292 1.52614 0
M  V30 9 C 1.257 5.56322 2.86805 0
M  V30 10 H 1.49 2.90518 0.631377 0
M  V30 11 H -0.977 1.52953 0.210867 0
M  V30 12 H 0.981 2.67203 3.11629 0
M  V30 13 H -0.358 1.57376 2.7183 0
M  V30 14 H -1.165 3.90944 3.18086 0
M  V30 15 H -1.563 3.418 1.51819 0
M  V30 16 H 0.729 5.58782 3.83104 0
M  V30 17 H 1.672 6.56266 2.65933 0
M  V30 18 H 2.08 4.83886 2.90714 0
M  V30 19 N 1.4781 -0.272755 1.55222 0
M  V30 20 C 2.4261 -1.35705 1.88909 0
M  V30 21 C 3.4201 -1.5112 0.765456 0
M  V30 22 O 4.6261 -1.52901 0.949802 0
M  V30 23 H 1.0011 -0.453868 0.59959 0
M  V30 24 H 2.9721 -1.04544 2.79487 0
M  V30 25 C 1.7211 -2.71049 2.17779 0
M  V30 26 H 1.0441 -2.59979 3.03728 0
M  V30 27 H 2.4841 -3.45858 2.45272 0
M  V30 28 C 0.9431 -3.22165 0.985473 0
M  V30 29 O 1.4731 -4.01096 0.220233 0
M  V30 30 N -0.3209 -2.7985 0.783108 0
M  V30 31 H -0.7739 -2.15775 1.40708 0
M  V30 32 H -0.8159 -3.14397 -0.0130392 0
M  V30 33 N 2.9562 -1.48159 -0.537278 0
M  V30 34 C 3.8862 -1.65029 -1.6519 0
M  V30 35 C 4.8672 -0.499281 -1.62607 0
M  V30 36 O 6.0522 -0.730972 -1.79918 0
M  V30 37 C 3.1822 -1.68303 -3.03795 0
M  V30 38 C 2.1362 -2.8283 -3.21234 0
M  V30 39 C 1.4622 -2.71189 -4.60826 0
M  V30 40 C 2.7622 -4.24211 -3.04701 0
M  V30 41 H 4.4562 -2.58341 -1.51328 0
M  V30 42 H 2.0022 -1.24325 -0.726585 0
M  V30 43 H 3.9552 -1.78693 -3.81637 0
M  V30 44 H 2.6792 -0.715635 -3.18663 0
M  V30 45 H 1.3382 -2.71983 -2.45807 0
M  V30 46 H 0.9862 -1.72435 -4.7252 0
M  V30 47 H 0.6862 -3.48035 -4.7344 0
M  V30 48 H 2.2102 -2.83537 -5.40777 0
M  V30 49 H 3.6242 -4.3593 -3.72341 0
M  V30 50 H 2.0212 -5.01998 -3.28813 0
M  V30 51 H 3.0912 -4.41184 -2.01209 0
M  V30 52 N 4.4343 0.785586 -1.36625 0
M  V30 53 C 5.8503 1.08419 -1.17122 0
M  V30 54 C 6.0503 2.015 0.00208491 0
M  V30 55 O 5.1063 2.43551 0.666278 0
M  V30 56 C 6.4193 1.69498 -2.48377 0
M  V30 57 C 7.9673 1.81821 -2.54775 0
M  V30 58 C 8.4423 2.46315 -3.86126 0
M  V30 59 N 9.9333 2.53779 -3.87492 0
M  V30 60 C 10.6683 3.045 -4.85868 0
M  V30 61 N 10.1643 3.55499 -5.94637 0
M  V30 62 N 11.9573 3.03247 -4.73284 0
M  V30 63 H 4.1083 0.167264 -2.1174 0
M  V30 64 H 6.3713 0.13682 -0.938075 0
M  V30 65 H 6.0773 1.08571 -3.34522 0
M  V30 66 H 5.9513 2.6896 -2.64462 0
M  V30 67 H 8.3383 2.41884 -1.69045 0
M  V30 68 H 8.4193 0.811532 -2.42586 0
M  V30 69 H 8.0633 1.86895 -4.72263 0
M  V30 70 H 7.9933 3.47561 -3.95612 0
M  V30 71 H 10.4843 2.17672 -3.08913 0
M  V30 72 H 10.7973 3.92562 -6.65669 0
M  V30 73 H 9.1423 3.5364 -5.98301 0
M  V30 74 H 12.3333 2.62696 -3.87438 0
M  V30 75 H 12.5063 3.42467 -5.50109 0
M  V30 76 N 5.9124 1.20967 1.01018 0
M  V30 77 C 6.8754 0.965918 2.07853 0
M  V30 78 C 7.8754 -0.0610545 1.60684 0
M  V30 79 O 9.0654 0.175681 1.73312 0
M  V30 80 C 6.1974 0.455513 3.37843 0
M  V30 81 H 7.3904 1.91365 2.3091 0
M  V30 82 H 4.9434 1.02594 1.17916 0
M  V30 83 H 5.6784 -0.497381 3.20463 0
M  V30 84 H 5.4634 1.19622 3.73407 0
M  V30 85 H 6.9534 0.304667 4.16487 0
M  V30 86 N 7.3905 -1.2043 1.01659 0
M  V30 87 C 8.3535 -2.21433 0.591616 0
M  V30 88 C 9.3535 -1.57203 -0.338226 0
M  V30 89 O 10.5435 -1.73737 -0.126918 0
M  V30 90 C 7.6755 -3.40628 -0.136058 0
M  V30 91 H 8.8685 -2.60545 1.48514 0
M  V30 92 H 6.4215 -1.33893 0.806379 0
M  V30 93 H 7.1565 -3.07019 -1.04449 0
M  V30 94 H 6.9415 -3.88475 0.531917 0
M  V30 95 H 8.4315 -4.15475 -0.420735 0
M  V30 96 N 8.8686 -0.792821 -1.36206 0
M  V30 97 C 10.1166 -0.366062 -1.98757 0
M  V30 98 C 10.4376 1.0668 -1.63231 0
M  V30 99 O 9.7076 1.73587 -0.907978 0
M  V30 100 H 8.2876 -0.132364 -0.735179 0
M  V30 101 H 10.9496 -1.01562 -1.66347 0
M  V30 102 H 10.0456 -0.460638 -3.08682 0
M  V30 103 N 10.3467 1.47872 -0.545128 0
M  V30 104 C 11.7577 1.86384 -0.108581 0
M  V30 105 C 12.1087 1.45309 1.31832 0
M  V30 106 O 11.2337 0.850641 1.9898 0
M  V30 107 C 11.8287 3.38265 -0.190274 0
M  V30 108 C 10.3877 3.75914 0.191164 0
M  V30 109 C 9.5347 2.71926 -0.543273 0
M  V30 110 H 12.4857 1.39561 -0.755537 0
M  V30 111 H 12.5067 3.75831 0.594217 0
M  V30 112 H 12.0187 3.6813 -1.2289 0
M  V30 113 H 10.1197 3.51665 1.23136 0
M  V30 114 H 10.2327 4.78836 -0.158987 0
M  V30 115 H 8.5967 2.54697 0.0122495 0
M  V30 116 H 9.3797 3.04634 -1.58282 0
M  V30 117 N 11.8248 0.280983 1.55075 0
M  V30 118 C 13.0728 -0.333455 1.9933 0
M  V30 119 C 13.3938 -1.55937 1.17085 0
M  V30 120 O 12.6638 -1.94143 0.261805 0
M  V30 121 H 11.2438 -0.126197 0.736263 0
M  V30 122 H 13.9058 0.387678 1.91005 0
M  V30 123 H 13.0018 -0.619292 3.05894 0
M  V30 124 N 13.3029 -1.57598 0.00835791 0
M  V30 125 C 14.5489 -1.92046 -0.670055 0
M  V30 126 C 14.9039 -0.88351 -1.70915 0
M  V30 127 O 14.1969 0.103223 -1.91322 0
M  V30 128 C 14.3909 -3.3101 -1.34787 0
M  V30 129 C 14.2199 -4.48126 -0.375945 0
M  V30 130 C 12.9899 -5.05297 0.0166914 0
M  V30 131 C 15.1879 -5.1303 0.361272 0
M  V30 132 N 13.1699 -6.05931 0.985952 0
M  V30 133 C 14.5409 -6.08571 1.18495 0
M  V30 134 C 16.5959 -4.9609 0.42421 0
M  V30 135 C 15.2989 -6.88996 2.06584 0
M  V30 136 C 17.3249 -5.77107 1.29236 0
M  V30 137 C 16.6869 -6.72248 2.10386 0
M  V30 138 H 12.7859 -0.75096 -0.218136 0
M  V30 139 H 15.3699 -1.94572 0.0706669 0
M  V30 140 H 13.5409 -3.29342 -2.05884 0
M  V30 141 H 15.2729 -3.52864 -1.98164 0
M  V30 142 H 12.0279 -4.72279 -0.353435 0
M  V30 143 H 12.4519 -6.60932 1.4662 0
M  V30 144 H 17.0939 -4.22378 -0.188915 0
M  V30 145 H 14.8119 -7.62028 2.6896 0
M  V30 146 H 18.3979 -5.66038 1.34508 0
M  V30 147 H 17.2779 -7.33846 2.76476 0
M  V30 148 N 14.781 0.264519 -1.55364 0
M  V30 149 C 15.711 1.33121 -1.91836 0
M  V30 150 C 16.692 1.51101 -0.781192 0
M  V30 151 O 17.877 1.64003 -1.04003 0
M  V30 152 C 15.007 2.68921 -2.19769 0
M  V30 153 C 13.961 2.65661 -3.35571 0
M  V30 154 C 13.287 4.05093 -3.49004 0
M  V30 155 C 14.587 2.24187 -4.71739 0
M  V30 156 H 16.281 1.02844 -2.81182 0
M  V30 157 H 13.827 0.493286 -1.35287 0
M  V30 158 H 15.78 3.43663 -2.43872 0
M  V30 159 H 14.504 3.00799 -1.27231 0
M  V30 160 H 13.163 1.93377 -3.1145 0
M  V30 161 H 12.811 4.34206 -2.53917 0
M  V30 162 H 12.511 4.03804 -4.26868 0
M  V30 163 H 14.035 4.81561 -3.75408 0
M  V30 164 H 15.449 2.88654 -4.9533 0
M  V30 165 H 13.846 2.34044 -5.52579 0
M  V30 166 H 14.916 1.19327 -4.69988 0
M  V30 167 N 16.2591 1.48442 0.529413 0
M  V30 168 C 17.5061 1.56488 1.28521 0
M  V30 169 C 17.8341 0.239042 1.93025 0
M  V30 170 O 17.0891 -0.770713 1.79885 0
M  V30 171 C 17.3881 2.6523 2.39558 0
M  V30 172 C 17.0541 4.07648 1.92702 0
M  V30 173 C 15.7161 4.46411 1.79641 0
M  V30 174 C 18.0681 4.96896 1.573 0
M  V30 175 C 15.3961 5.72226 1.29514 0
M  V30 176 C 17.7481 6.23202 1.08636 0
M  V30 177 C 16.4121 6.60821 0.941919 0
M  V30 178 H 15.6821 0.572631 0.470292 0
M  V30 179 H 18.3291 1.82161 0.59072 0
M  V30 180 H 16.6341 2.33419 3.14679 0
M  V30 181 H 18.3311 2.68671 2.97686 0
M  V30 182 H 14.9211 3.77036 2.03819 0
M  V30 183 H 19.1051 4.67626 1.66251 0
M  V30 184 H 14.3611 6.00097 1.17019 0
M  V30 185 H 18.5351 6.91753 0.803136 0
M  V30 186 H 16.1621 7.58198 0.5513 0
M  V30 187 N 17.7372 -0.778329 1.37039 0
M  V30 188 C 18.9772 -1.54973 1.33276 0
M  V30 189 C 19.3412 -1.91816 -0.0839376 0
M  V30 190 O 20.5422 -2.6767 -0.246228 0
M  V30 191 C 18.8132 -2.78517 2.23971 0
M  V30 192 S 20.3722 -3.6865 2.37997 0
M  V30 193 H 17.1902 -0.530639 0.473226 0
M  V30 194 H 19.7922 -0.915806 1.72723 0
M  V30 195 H 18.4962 -2.4952 3.25835 0
M  V30 196 H 18.0272 -3.46875 1.85584 0
M  V30 197 H 20.0422 -4.70182 1.58567 0
M  V30 198 N 19.2153 -1.21501 -1.00376 0
M  V30 199 C 20.6263 -1.03146 -1.55621 0
M  V30 200 C 20.9773 0.408375 -1.91903 0
M  V30 201 O 20.1023 1.29177 -1.73616 0
M  V30 202 C 20.6973 -1.86612 -2.82775 0
M  V30 203 C 19.2563 -1.72586 -3.34501 0
M  V30 204 C 18.4033 -1.83747 -2.07683 0
M  V30 205 H 21.3543 -1.35505 -0.826081 0
M  V30 206 H 21.3753 -1.3771 -3.54706 0
M  V30 207 H 20.8873 -2.91399 -2.56336 0
M  V30 208 H 18.9883 -0.704877 -3.65872 0
M  V30 209 H 19.1013 -2.54623 -4.05837 0
M  V30 210 H 17.4653 -1.27069 -2.20739 0
M  V30 211 H 18.2483 -2.90044 -1.83655 0
M  V30 212 N 20.6934 1.19889 -1.02296 0
M  V30 213 C 21.6564 2.21116 -0.603351 0
M  V30 214 C 22.6564 1.5738 0.329884 0
M  V30 215 O 23.8464 1.73802 0.117702 0
M  V30 216 C 20.9784 3.40696 0.117992 0
M  V30 217 H 22.1714 2.59754 -1.49893 0
M  V30 218 H 19.7244 1.33463 -0.813468 0
M  V30 219 H 20.4594 3.07569 1.0282 0
M  V30 220 H 20.2444 3.88188 -0.552511 0
M  V30 221 H 21.7344 4.15692 0.398696 0
M  V30 222 N 22.1715 0.800033 1.35784 0
M  V30 223 C 23.4485 0.30088 1.93272 0
M  V30 224 C 23.8285 -1.20857 1.73081 0
M  V30 225 O 23.1765 -2.00502 1.09596 0
M  V30 226 C 23.3865 0.70511 3.41803 0
M  V30 227 C 24.7345 0.690871 4.18942 0
M  V30 228 O 25.7585 0.646244 3.50289 0
M  V30 229 O 24.6175 0.74332 5.41421 0
M  V30 230 H 21.7115 0.0771605 0.823393 0
M  V30 231 H 24.2575 0.88329 1.449 0
M  V30 232 H 23.0295 1.74571 3.50201 0
M  V30 233 H 22.6525 0.0971541 3.97481 0
M  V30 234 N 23.6496 -1.47581 0.552962 0
M  V30 235 C 25.0656 -1.5818 0.212424 0
M  V30 236 C 25.2656 -1.55213 -1.28496 0
M  V30 237 O 24.3216 -1.45329 -2.06484 0
M  V30 238 C 25.6346 -2.88865 0.835318 0
M  V30 239 C 27.1826 -3.0244 0.806156 0
M  V30 240 C 27.6576 -4.35819 1.40804 0
M  V30 241 N 29.1486 -4.42444 1.37103 0
M  V30 242 C 29.8836 -5.44202 1.80641 0
M  V30 243 N 29.3796 -6.52795 2.32015 0
M  V30 244 N 31.1726 -5.35222 1.71738 0
M  V30 245 H 23.3236 -1.47753 1.52587 0
M  V30 246 H 25.5866 -0.702941 0.636064 0
M  V30 247 H 25.2926 -2.9676 1.88749 0
M  V30 248 H 25.1666 -3.7579 0.325848 0
M  V30 249 H 27.5536 -2.94144 -0.237317 0
M  V30 250 H 27.6346 -2.17068 1.35334 0
M  V30 251 H 27.2786 -4.44871 2.45056 0
M  V30 252 H 27.2086 -5.19916 0.836338 0
M  V30 253 H 29.6996 -3.6456 0.995202 0
M  V30 254 H 30.0126 -7.26609 2.63171 0
M  V30 255 H 28.3576 -6.53696 2.36023 0
M  V30 256 H 31.5486 -4.49284 1.31382 0
M  V30 257 H 31.7216 -6.14389 2.05987 0
M  V30 258 N 25.1277 -0.289203 -1.54924 0
M  V30 259 C 26.5387 0.205791 -1.85562 0
M  V30 260 C 26.8897 1.54351 -1.2112 0
M  V30 261 O 26.0147 2.10435 -0.504601 0
M  V30 262 C 26.6097 0.380177 -3.3666 0
M  V30 263 C 25.1687 0.819395 -3.67373 0
M  V30 264 C 24.3157 -0.079159 -2.77187 0
M  V30 265 H 27.2667 -0.510577 -1.50262 0
M  V30 266 H 27.2877 1.21659 -3.60526 0
M  V30 267 H 26.7997 -0.593589 -3.83534 0
M  V30 268 H 24.9007 1.80413 -3.26009 0
M  V30 269 H 25.0137 0.646957 -4.74712 0
M  V30 270 H 23.3777 0.439565 -2.50878 0
M  V30 271 H 24.1607 -1.04906 -3.26878 0
M  V30 272 N 26.6058 1.57591 -0.0167156 0
M  V30 273 C 27.5158 2.1291 0.98521 0
M  V30 274 C 28.5318 1.07834 1.36557 0
M  V30 275 O 29.7078 1.39826 1.44951 0
M  V30 276 C 26.7728 2.63512 2.25305 0
M  V30 277 C 25.8338 3.83256 1.93426 0
M  V30 278 C 25.0668 4.31435 3.14165 0
M  V30 279 O 25.2898 3.78851 4.26413 0
M  V30 280 O 24.2238 5.23416 2.97186 0
M  V30 281 H 28.0498 2.98772 0.544888 0
M  V30 282 H 25.6348 1.48012 0.203141 0
M  V30 283 H 27.5168 2.96183 2.99756 0
M  V30 284 H 26.1918 1.8074 2.68542 0
M  V30 285 H 25.0988 3.55531 1.16398 0
M  V30 286 H 26.4318 4.67153 1.55013 0
M  V30 287 N 28.0839 -0.256276 1.55502 0
M  V30 288 C 29.4999 -0.604325 1.47716 0
M  V30 289 C 29.6999 -1.88763 0.705039 0
M  V30 290 O 28.7559 -2.51445 0.230613 0
M  V30 291 C 30.0689 -0.715756 2.92057 0
M  V30 292 C 31.6169 -0.808706 3.02372 0
M  V30 293 C 32.0919 -0.951777 4.48001 0
M  V30 294 N 33.5829 -1.01688 4.519 0
M  V30 295 C 34.3179 -1.14668 5.61817 0
M  V30 296 N 33.8139 -1.24261 6.81565 0
M  V30 297 N 35.6069 -1.1791 5.49594 0
M  V30 298 H 27.7579 0.586291 2.04148 0
M  V30 299 H 30.0209 0.201015 0.926443 0
M  V30 300 H 29.7269 0.157027 3.51349 0
M  V30 301 H 29.6009 -1.59071 3.42018 0
M  V30 302 H 31.9879 -1.67195 2.43166 0
M  V30 303 H 32.0689 0.0912063 2.55637 0
M  V30 304 H 31.7129 -0.0931291 5.07815 0
M  V30 305 H 31.6429 -1.86659 4.92408 0
M  V30 306 H 34.1339 -0.954468 3.65648 0
M  V30 307 H 34.4469 -1.34046 7.61086 0
M  V30 308 H 32.7919 -1.21236 6.84344 0
M  V30 309 H 35.9829 -1.10057 4.54978 0
M  V30 310 H 36.1559 -1.27681 6.35296 0
M  V30 311 N 29.562 -1.4872 -0.521534 0
M  V30 312 C 30.809 -1.57168 -1.27689 0
M  V30 313 C 31.137 -0.249275 -1.92896 0
M  V30 314 O 30.392 0.761162 -1.80291 0
M  V30 315 C 30.691 -2.66497 -2.38148 0
M  V30 316 C 30.357 -4.08664 -1.90538 0
M  V30 317 C 29.019 -4.47357 -1.77271 0
M  V30 318 C 31.371 -4.97724 -1.54663 0
M  V30 319 C 28.699 -5.72905 -1.26478 0
M  V30 320 C 31.051 -6.2377 -1.05329 0
M  V30 321 C 29.715 -6.61311 -0.906861 0
M  V30 322 H 28.985 -0.575117 -0.467249 0
M  V30 323 H 31.632 -1.82472 -0.581051 0
M  V30 324 H 29.937 -2.35085 -3.13437 0
M  V30 325 H 31.634 -2.70246 -2.96257 0
M  V30 326 H 28.224 -3.78111 -2.01816 0
M  V30 327 H 32.408 -4.68501 -1.63768 0
M  V30 328 H 27.664 -6.00709 -1.13835 0
M  V30 329 H 31.838 -6.9217 -0.76644 0
M  V30 330 H 29.465 -7.5848 -0.511083 0
M  V30 331 N 31.0401 0.771051 -1.3745 0
M  V30 332 C 32.0031 1.86598 -1.33093 0
M  V30 333 C 33.0031 1.59076 -0.234845 0
M  V30 334 O 34.1931 1.67145 -0.490732 0
M  V30 335 C 31.3251 3.23747 -1.06773 0
M  V30 336 H 32.5181 1.91873 -2.30488 0
M  V30 337 H 30.0711 0.970876 -1.2249 0
M  V30 338 H 30.8061 3.24148 -0.099129 0
M  V30 339 H 30.5911 3.45115 -1.86112 0
M  V30 340 H 32.0811 4.03824 -1.06377 0
M  V30 341 N 32.5182 1.22032 0.997298 0
M  V30 342 C 33.4652 0.986467 2.08656 0
M  V30 343 C 34.4352 -0.0902671 1.65855 0
M  V30 344 O 35.6202 0.0584294 1.90711 0
M  V30 345 C 32.7602 0.565569 3.40434 0
M  V30 346 C 31.8732 1.71259 3.96604 0
M  V30 347 C 31.0082 1.24011 5.16522 0
M  V30 348 C 30.0472 2.35896 5.64818 0
M  V30 349 N 29.1842 1.89726 6.7598 0
M  V30 350 H 34.0242 1.91892 2.27994 0
M  V30 351 H 31.5612 0.956199 1.11782 0
M  V30 352 H 33.5192 0.302738 4.161 0
M  V30 353 H 32.1492 -0.329879 3.2111 0
M  V30 354 H 31.2012 2.08986 3.17851 0
M  V30 355 H 32.5132 2.55436 4.28432 0
M  V30 356 H 31.6672 0.934395 5.99461 0
M  V30 357 H 30.4062 0.368487 4.86306 0
M  V30 358 H 29.4112 2.67261 4.8047 0
M  V30 359 H 30.6362 3.23567 5.97061 0
M  V30 360 H 28.5822 1.0492 6.47555 0
M  V30 361 H 28.4992 2.67471 7.07103 0
M  V30 362 H 29.7672 1.62211 7.62435 0
M  V30 363 N 33.9963 -1.19345 1.0293 0
M  V30 364 C 34.9593 -2.20793 0.615069 0
M  V30 365 C 35.9593 -1.57553 -0.321533 0
M  V30 366 O 37.1493 -1.73862 -0.108483 0
M  V30 367 C 34.2813 -3.40754 -0.0999222 0
M  V30 368 H 35.4743 -2.58955 1.51269 0
M  V30 369 H 33.0273 -1.3303 0.820534 0
M  V30 370 H 33.7623 -3.0811 -1.01187 0
M  V30 371 H 33.5473 -3.87889 0.57309 0
M  V30 372 H 35.0373 -4.15898 -0.376645 0
M  V30 373 N 35.4744 -0.807222 -1.35358 0
M  V30 374 C 36.4374 -0.223665 -2.28106 0
M  V30 375 C 37.4374 0.589354 -1.4961 0
M  V30 376 O 38.6274 0.407745 -1.69361 0
M  V30 377 C 35.7594 0.688149 -3.33882 0
M  V30 378 H 36.9524 -1.04169 -2.81227 0
M  V30 379 H 34.5054 -0.577921 -1.45223 0
M  V30 380 H 35.2404 1.52984 -2.85948 0
M  V30 381 H 35.0254 0.10687 -3.91954 0
M  V30 382 H 36.5154 1.09075 -4.03104 0
M  V30 383 N 36.9525 1.47285 -0.560781 0
M  V30 384 C 37.9155 2.28535 0.174488 0
M  V30 385 C 38.9155 1.37153 0.839388 0
M  V30 386 O 40.1055 1.59748 0.694702 0
M  V30 387 C 37.2375 3.16934 1.25561 0
M  V30 388 H 38.4305 2.95012 -0.539262 0
M  V30 389 H 35.9835 1.53034 -0.317865 0
M  V30 390 H 36.7185 2.55157 2.00164 0
M  V30 391 H 36.5035 3.8419 0.783604 0
M  V30 392 H 37.9935 3.78143 1.77193 0
M  V30 393 N 38.4306 0.297415 1.54768 0
M  V30 394 C 39.3936 -0.567375 2.22066 0
M  V30 395 C 40.3936 -1.06409 1.20556 0
M  V30 396 O 41.5836 -0.960691 1.45315 0
M  V30 397 C 38.7156 -1.78517 2.90421 0
M  V30 398 H 39.9086 0.0205534 2.99893 0
M  V30 399 H 37.4616 0.0482163 1.56226 0
M  V30 400 H 38.1966 -2.41303 2.16664 0
M  V30 401 H 37.9816 -1.43669 3.64831 0
M  V30 402 H 39.4716 -2.39964 3.41771 0
M  V30 403 N 39.9087 -1.5758 0.0250728 0
M  V30 404 C 40.8717 -2.08896 -0.943139 0
M  V30 405 C 41.8717 -1.00321 -1.25668 0
M  V30 406 O 43.0617 -1.26495 -1.19769 0
M  V30 407 C 40.1937 -2.55143 -2.26086 0
M  V30 408 H 41.3867 -2.95723 -0.498775 0
M  V30 409 H 38.9397 -1.54703 -0.222888 0
M  V30 410 H 39.6747 -1.71633 -2.75159 0
M  V30 411 H 39.4597 -3.34461 -2.04641 0
M  V30 412 H 40.9497 -2.95083 -2.95492 0
M  V30 413 N 41.3868 0.248026 -1.55636 0
M  V30 414 C 42.6638 0.998988 -1.68165 0
M  V30 415 C 43.0438 2.03409 -0.564621 0
M  V30 416 O 42.3918 2.24378 0.432076 0
M  V30 417 C 42.6018 1.63334 -3.0842 0
M  V30 418 C 43.9498 2.13562 -3.66983 0
M  V30 419 O 44.9738 1.73277 -3.11213 0
M  V30 420 O 43.8328 2.87526 -4.64749 0
M  V30 421 H 40.9268 0.464933 -0.683935 0
M  V30 422 H 43.4728 0.241902 -1.67967 0
M  V30 423 H 42.2448 0.884583 -3.8117 0
M  V30 424 H 41.8678 2.45666 -3.12624 0
M  V30 425 N 42.8649 1.48995 0.513639 0
M  V30 426 C 44.1109 1.58076 1.27042 0
M  V30 427 C 44.4439 0.261026 1.92438 0
M  V30 428 O 43.7189 -0.734393 1.80103 0
M  V30 429 C 44.0019 2.73091 2.34719 0
M  V30 430 C 43.8549 4.14821 1.73907 0
M  V30 431 C 45.1739 2.83796 3.36375 0
M  V30 432 H 42.2929 0.575391 0.460536 0
M  V30 433 H 44.9349 1.81232 0.570516 0
M  V30 434 H 43.0849 2.53479 2.94416 0
M  V30 435 H 44.7569 4.45917 1.18135 0
M  V30 436 H 42.9999 4.21058 1.0437 0
M  V30 437 H 43.6709 4.91147 2.51949 0
M  V30 438 H 46.1469 3.01611 2.86653 0
M  V30 439 H 45.0229 3.65971 4.09093 0
M  V30 440 H 45.2839 1.92624 3.9793 0
M  V30 441 N 44.343 -0.763751 1.37857 0
M  V30 442 C 45.589 -1.52483 1.33704 0
M  V30 443 C 45.922 -1.94051 -0.0759612 0
M  V30 444 O 45.197 -1.64675 -1.03501 0
M  V30 445 C 45.48 -2.78441 2.28348 0
M  V30 446 C 45.333 -2.43075 3.78463 0
M  V30 447 C 46.652 -3.80415 2.21298 0
M  V30 448 H 43.771 -0.553169 0.487005 0
M  V30 449 H 46.413 -0.875562 1.68624 0
M  V30 450 H 44.563 -3.33842 1.987 0
M  V30 451 H 46.235 -1.93527 4.18742 0
M  V30 452 H 44.478 -1.75666 3.96641 0
M  V30 453 H 45.149 -3.33149 4.40132 0
M  V30 454 H 47.625 -3.34527 2.47449 0
M  V30 455 H 46.501 -4.66257 2.89647 0
M  V30 456 H 46.762 -4.25262 1.20849 0
M  V30 457 N 45.8211 -1.22559 -0.990812 0
M  V30 458 C 47.0701 -1.04553 -1.72486 0
M  V30 459 C 47.3831 0.419349 -1.91052 0
M  V30 460 O 48.5891 0.719121 -2.61803 0
M  V30 461 C 47.0451 -1.82231 -3.10355 0
M  V30 462 C 46.6531 -3.32981 -2.99713 0
M  V30 463 C 48.3971 -1.7268 -3.87791 0
M  V30 464 C 46.3041 -4.03091 -4.32748 0
M  V30 465 H 45.2341 -0.387614 -0.646739 0
M  V30 466 H 47.8851 -1.46429 -1.10593 0
M  V30 467 H 46.2671 -1.33155 -3.72942 0
M  V30 468 H 47.4411 -3.89466 -2.46278 0
M  V30 469 H 45.7561 -3.43231 -2.35758 0
M  V30 470 H 48.3531 -2.22381 -4.86262 0
M  V30 471 H 48.6961 -0.687607 -4.10582 0
M  V30 472 H 49.2291 -2.1931 -3.31885 0
M  V30 473 H 45.9681 -5.07273 -4.15156 0
M  V30 474 H 45.4881 -3.51394 -4.86089 0
M  V30 475 H 47.1671 -4.08804 -5.01486 0
M  V30 476 N 47.2992 1.18797 -1.03562 0
M  V30 477 C 48.2292 2.24472 -0.643019 0
M  V30 478 C 49.2102 1.66433 0.351283 0
M  V30 479 O 50.3952 1.92803 0.232505 0
M  V30 480 C 47.5252 3.473 4.24935e-05 0
M  V30 481 C 46.4792 4.18055 -0.917257 0
M  V30 482 C 45.8052 5.34519 -0.138941 0
M  V30 483 C 47.1052 4.72109 -2.23407 0
M  V30 484 H 48.7992 2.57566 -1.52643 0
M  V30 485 H 46.3452 1.23806 -0.735394 0
M  V30 486 H 48.2982 4.20426 0.286383 0
M  V30 487 H 47.0222 3.13424 0.918299 0
M  V30 488 H 45.6812 3.46821 -1.1879 0
M  V30 489 H 45.3292 4.96891 0.781562 0
M  V30 490 H 45.0292 5.82794 -0.750005 0
M  V30 491 H 46.5532 6.10438 0.1405 0
M  V30 492 H 47.9672 5.36955 -2.00879 0
M  V30 493 H 46.3642 5.30897 -2.79765 0
M  V30 494 H 47.4342 3.89807 -2.88407 0
M  V30 495 N 48.7773 0.814389 1.34928 0
M  V30 496 C 50.0543 0.321363 1.92942 0
M  V30 497 C 50.4343 -1.19014 1.74353 0
M  V30 498 O 49.7823 -1.99328 1.11716 0
M  V30 499 C 49.9923 0.741323 3.41036 0
M  V30 500 C 51.3403 0.735266 4.18185 0
M  V30 501 O 52.3643 0.68336 3.49584 0
M  V30 502 O 51.2233 0.800703 5.40602 0
M  V30 503 H 48.3173 0.0858893 0.822528 0
M  V30 504 H 50.8633 0.898609 1.43955 0
M  V30 505 H 49.6353 1.78276 3.4833 0
M  V30 506 H 49.2583 0.139307 3.97356 0
M  V30 507 N 50.2554 -1.46986 0.568584 0
M  V30 508 C 51.1854 -2.32946 -0.160753 0
M  V30 509 C 52.1664 -1.44487 -0.897631 0
M  V30 510 O 53.3514 -1.73327 -0.875867 0
M  V30 511 C 50.4814 -3.26494 -1.18403 0
M  V30 512 C 49.4354 -4.24282 -0.562895 0
M  V30 513 C 48.7614 -5.07236 -1.69163 0
M  V30 514 C 50.0614 -5.19989 0.490761 0
M  V30 515 H 51.7554 -2.94175 0.556916 0
M  V30 516 H 49.3014 -1.4146 0.26927 0
M  V30 517 H 51.2544 -3.85477 -1.70251 0
M  V30 518 H 49.9784 -2.63343 -1.93179 0
M  V30 519 H 48.6374 -3.66541 -0.0656164 0
M  V30 520 H 48.2854 -4.4048 -2.42871 0
M  V30 521 H 47.9854 -5.7345 -1.28174 0
M  V30 522 H 49.5094 -5.6908 -2.21314 0
M  V30 523 H 50.9234 -5.73271 0.0579047 0
M  V30 524 H 49.3204 -5.94469 0.820165 0
M  V30 525 H 50.3904 -4.64777 1.3824 0
M  V30 526 N 51.7335 -0.305618 -1.54608 0
M  V30 527 C 52.6435 0.57778 -2.27374 0
M  V30 528 C 53.6595 1.14451 -1.31061 0
M  V30 529 O 54.8355 1.16831 -1.6405 0
M  V30 530 C 51.9005 1.73123 -3.00382 0
M  V30 531 C 50.9615 1.19812 -4.12242 0
M  V30 532 C 50.1945 2.2966 -4.81759 0
M  V30 533 O 50.4175 3.49651 -4.50666 0
M  V30 534 O 49.3515 1.96091 -5.69062 0
M  V30 535 H 53.1775 -0.012624 -3.03697 0
M  V30 536 H 50.7625 -0.0719184 -1.49227 0
M  V30 537 H 52.6445 2.40315 -3.4616 0
M  V30 538 H 51.3195 2.30815 -2.26949 0
M  V30 539 H 50.2265 0.491798 -3.70853 0
M  V30 540 H 51.5595 0.666566 -4.87666 0
M  V30 541 N 53.2116 1.57565 -0.0334293 0
M  V30 542 C 54.4886 1.83282 0.683163 0
M  V30 543 C 54.8686 0.91823 1.90084 0
M  V30 544 O 54.2166 -0.025113 2.28486 0
M  V30 545 C 54.4266 3.32599 1.0573 0
M  V30 546 C 55.7746 3.99179 1.44711 0
M  V30 547 O 56.7986 3.3712 1.15015 0
M  V30 548 O 55.6576 5.08565 2.0006 0
M  V30 549 H 52.7516 0.755869 0.335546 0
M  V30 550 H 55.2976 1.69589 -0.0614402 0
M  V30 551 H 54.0696 3.90834 0.190828 0
M  V30 552 H 53.6926 3.51415 1.85993 0
M  V30 553 N 54.6897 -0.239769 1.55765 0
M  V30 554 C 55.9377 -0.964892 1.77579 0
M  V30 555 C 56.2587 -1.85582 0.598699 0
M  V30 556 O 55.5287 -1.92075 -0.385226 0
M  V30 557 H 54.1087 -0.359265 0.654933 0
M  V30 558 H 56.7707 -0.256001 1.93211 0
M  V30 559 H 55.8667 -1.58243 2.69009 0
M  V30 560 N 56.1678 -1.49265 -0.50573 0
M  V30 561 C 57.4138 -1.58748 -1.26202 0
M  V30 562 C 57.7468 -0.271227 -1.92297 0
M  V30 563 O 57.0218 0.724831 -1.80489 0
M  V30 564 C 57.3048 -2.74332 -2.33268 0
M  V30 565 C 57.1578 -4.15737 -1.71705 0
M  V30 566 C 58.4768 -2.85576 -3.34865 0
M  V30 567 H 55.5958 -0.577826 -0.457478 0
M  V30 568 H 58.2378 -1.81532 -0.560897 0
M  V30 569 H 56.3878 -2.55036 -2.93068 0
M  V30 570 H 58.0598 -4.46537 -1.15769 0
M  V30 571 H 56.3028 -4.21605 -1.02135 0
M  V30 572 H 56.9738 -4.92477 -2.49341 0
M  V30 573 H 59.4498 -3.03127 -2.8505 0
M  V30 574 H 58.3258 -3.68135 -4.07146 0
M  V30 575 H 58.5868 -1.94732 -3.96903 0
M  V30 576 N 57.6459 0.756429 -1.3826 0
M  V30 577 C 58.6089 1.85176 -1.35065 0
M  V30 578 C 59.6089 1.58818 -0.251703 0
M  V30 579 O 60.7989 1.66615 -0.508433 0
M  V30 580 C 57.9309 3.22596 -1.10201 0
M  V30 581 H 59.1239 1.89417 -2.3251 0
M  V30 582 H 56.6769 0.95783 -1.23512 0
M  V30 583 H 57.4119 3.24025 -0.133504 0
M  V30 584 H 57.1969 3.43122 -1.89762 0
M  V30 585 H 58.6869 4.02673 -1.10654 0
M  V30 586 N 59.124 1.23083 0.984299 0
M  V30 587 C 60.034 1.02515 2.11016 0
M  V30 588 C 61.05 -0.0291702 1.73976 0
M  V30 589 O 62.226 0.165434 2.00719 0
M  V30 590 C 59.291 0.614673 3.41208 0
M  V30 591 C 58.352 1.74359 3.92297 0
M  V30 592 C 57.585 1.35261 5.16275 0
M  V30 593 O 57.808 0.235136 5.69915 0
M  V30 594 O 56.742 2.17227 5.61334 0
M  V30 595 H 60.568 1.96862 2.31255 0
M  V30 596 H 58.153 1.01753 1.09392 0
M  V30 597 H 60.035 0.396518 4.1953 0
M  V30 598 H 58.71 -0.299851 3.22308 0
M  V30 599 H 57.617 2.01635 3.1511 0
M  V30 600 H 58.95 2.63629 4.15645 0
M  V30 601 N 60.6021 -1.18246 1.0419 0
M  V30 602 C 61.5651 -2.20128 0.638452 0
M  V30 603 C 62.5651 -1.57885 -0.304805 0
M  V30 604 O 63.7551 -1.73967 -0.0900369 0
M  V30 605 C 60.8871 -3.4084 -0.0637751 0
M  V30 606 H 62.0801 -2.57336 1.54007 0
M  V30 607 H 59.6331 -1.32152 0.834598 0
M  V30 608 H 60.3681 -3.09166 -0.979136 0
M  V30 609 H 60.1531 -3.8726 0.614198 0
M  V30 610 H 61.6431 -4.16274 -0.332512 0
M  V30 611 N 62.0802 -0.821533 -1.34494 0
M  V30 612 C 63.0122 -0.199946 -2.28326 0
M  V30 613 C 64.0252 0.609377 -1.50965 0
M  V30 614 O 65.2142 0.439285 -1.7301 0
M  V30 615 C 62.3142 0.738431 -3.30757 0
M  V30 616 C 61.4872 -0.0277632 -4.37391 0
M  V30 617 C 60.5462 0.831332 -5.19591 0
M  V30 618 O 59.5722 0.276822 -5.68526 0
M  V30 619 N 60.7742 2.15132 -5.39165 0
M  V30 620 H 63.5392 -1.00609 -2.82308 0
M  V30 621 H 61.1002 -0.678366 -1.47003 0
M  V30 622 H 63.0922 1.31773 -3.82646 0
M  V30 623 H 61.6622 1.44533 -2.7718 0
M  V30 624 H 60.8822 -0.788359 -3.86236 0
M  V30 625 H 62.1702 -0.555251 -5.05761 0
M  V30 626 H 61.5682 2.62559 -5.01078 0
M  V30 627 H 60.1252 2.6795 -5.94177 0
M  V30 628 N 63.5583 1.46682 -0.576371 0
M  V30 629 C 64.5053 2.30241 0.160499 0
M  V30 630 C 65.4753 1.40233 0.890162 0
M  V30 631 O 66.6603 1.69186 0.882084 0
M  V30 632 C 63.8003 3.24578 1.1723 0
M  V30 633 C 62.9133 4.29684 0.446736 0
M  V30 634 C 62.0483 5.11154 1.44551 0
M  V30 635 C 61.0873 6.08015 0.70599 0
M  V30 636 N 60.2243 6.82376 1.65251 0
M  V30 637 H 65.0643 2.92727 -0.558127 0
M  V30 638 H 62.6013 1.44272 -0.287056 0
M  V30 639 H 64.5593 3.77711 1.77172 0
M  V30 640 H 63.1893 2.63916 1.85872 0
M  V30 641 H 62.2413 3.79458 -0.267594 0
M  V30 642 H 63.5533 4.98626 -0.131686 0
M  V30 643 H 62.7073 5.68533 2.11791 0
M  V30 644 H 61.4463 4.42158 2.05786 0
M  V30 645 H 60.4513 5.49796 0.0197725 0
M  V30 646 H 61.6763 6.79028 0.09912 0
M  V30 647 H 59.6223 6.16094 2.25308 0
M  V30 648 H 59.5393 7.47556 1.12673 0
M  V30 649 H 60.8073 7.44316 2.31546 0
M  V30 650 N 65.0364 0.313813 1.54444 0
M  V30 651 C 66.4474 -0.176243 1.85866 0
M  V30 652 C 66.7984 -1.52405 1.23561 0
M  V30 653 O 65.9234 -2.09605 0.538016 0
M  V30 654 C 66.5184 -0.32657 3.37222 0
M  V30 655 C 65.0774 -0.760846 3.6863 0
M  V30 656 C 64.2244 0.123247 2.77026 0
M  V30 657 H 67.1754 0.534418 1.49431 0
M  V30 658 H 67.1964 -1.15908 3.62416 0
M  V30 659 H 66.7084 0.654531 3.82541 0
M  V30 660 H 64.8094 -1.75204 3.28838 0
M  V30 661 H 64.9224 -0.571353 4.75681 0
M  V30 662 H 63.2864 -0.399597 2.51546 0
M  V30 663 H 64.0694 1.10094 3.25168 0
M  V30 664 N 66.5145 -1.57545 0.0417849 0
M  V30 665 C 67.4775 -2.09885 -0.92093 0
M  V30 666 C 68.4775 -1.01648 -1.24596 0
M  V30 667 O 69.6675 -1.27759 -1.1842 0
M  V30 668 C 66.7995 -2.57527 -2.23367 0
M  V30 669 H 67.9925 -2.96236 -0.467382 0
M  V30 670 H 65.5455 -1.5493 -0.206467 0
M  V30 671 H 66.2805 -1.74542 -2.73323 0
M  V30 672 H 66.0655 -3.36613 -2.01083 0
M  V30 673 H 67.5555 -2.98201 -2.92346 0
M  V30 674 N 67.9926 0.231505 -1.5589 0
M  V30 675 C 68.9556 1.27028 -1.90779 0
M  V30 676 C 69.9556 1.40308 -0.785507 0
M  V30 677 O 71.1456 1.38744 -1.05336 0
M  V30 678 C 68.2776 2.64566 -2.14983 0
M  V30 679 H 69.4706 0.973017 -2.83677 0
M  V30 680 H 67.0236 0.471486 -1.49019 0
M  V30 681 H 67.7586 2.99406 -1.24604 0
M  V30 682 H 67.5436 2.56305 -2.96732 0
M  V30 683 H 69.0336 3.39543 -2.43105 0
M  V30 684 N 69.4707 1.49531 0.497807 0
M  V30 685 C 70.8867 1.36365 0.829266 0
M  V30 686 C 71.0867 0.399184 1.97506 0
M  V30 687 O 70.1427 -0.167977 2.51941 0
M  V30 688 C 71.4557 2.77153 1.16647 0
M  V30 689 C 73.0037 2.85877 1.27449 0
M  V30 690 C 73.4787 4.2744 1.64497 0
M  V30 691 N 74.9697 4.30265 1.7154 0
M  V30 692 C 75.7047 5.3677 2.01656 0
M  V30 693 N 75.2007 6.53516 2.29976 0
M  V30 694 N 76.9937 5.24189 2.02934 0
M  V30 695 H 69.1447 2.10831 -0.257703 0
M  V30 696 H 71.4077 0.946534 -0.0527091 0
M  V30 697 H 71.1137 3.49442 0.397872 0
M  V30 698 H 70.9877 3.12722 2.10915 0
M  V30 699 H 73.3747 2.13824 2.0338 0
M  V30 700 H 73.4557 2.53887 0.312244 0
M  V30 701 H 73.0997 5.00021 0.891151 0
M  V30 702 H 73.0297 4.56896 2.61827 0
M  V30 703 H 75.5207 3.4607 1.51802 0
M  V30 704 H 75.8337 7.30506 2.52153 0
M  V30 705 H 74.1787 6.56737 2.27425 0
M  V30 706 H 77.3697 4.31988 1.80289 0
M  V30 707 H 77.5427 6.07286 2.26071 0
M  V30 708 N 70.9488 -0.749086 1.3866 0
M  V30 709 C 71.8968 -1.88428 1.36373 0
M  V30 710 C 72.8908 -1.67561 0.248929 0
M  V30 711 O 74.0968 -1.75074 0.41821 0
M  V30 712 H 70.4718 -0.620023 0.42553 0
M  V30 713 H 72.4428 -1.87473 2.32156 0
M  V30 714 C 71.1918 -3.25961 1.21014 0
M  V30 715 H 70.5148 -3.42607 2.06059 0
M  V30 716 H 71.9548 -4.05625 1.23469 0
M  V30 717 C 70.4138 -3.36799 -0.0825941 0
M  V30 718 O 70.9438 -3.87517 -1.05797 0
M  V30 719 N 69.1498 -2.90258 -0.140939 0
M  V30 720 H 68.6968 -2.49174 0.653477 0
M  V30 721 H 68.6548 -2.97889 -1.00545 0
M  V30 722 N 72.4269 -1.23603 -0.977757 0
M  V30 723 C 73.3899 -1.02069 -2.05218 0
M  V30 724 C 74.3899 0.0184305 -1.60789 0
M  V30 725 O 75.5799 -0.221569 -1.72785 0
M  V30 726 C 72.7119 -0.544926 -3.36517 0
M  V30 727 H 73.9049 -1.9742 -2.25755 0
M  V30 728 H 71.4579 -1.05684 -1.15155 0
M  V30 729 H 72.1929 0.412241 -3.21669 0
M  V30 730 H 71.9779 -1.2948 -3.70105 0
M  V30 731 H 73.4679 -0.414985 -4.15533 0
M  V30 732 N 73.905 1.17692 -1.04816 0
M  V30 733 C 74.835 2.23777 -0.666791 0
M  V30 734 C 75.816 1.66796 0.33361 0
M  V30 735 O 77.001 1.93039 0.212042 0
M  V30 736 C 74.131 3.47281 -0.0367933 0
M  V30 737 C 73.085 4.17059 -0.961546 0
M  V30 738 C 72.411 5.34342 -0.195626 0
M  V30 739 C 73.711 4.69713 -2.28402 0
M  V30 740 H 75.405 2.55933 -1.55367 0
M  V30 741 H 72.951 1.23019 -0.748484 0
M  V30 742 H 74.904 4.20706 0.241775 0
M  V30 743 H 73.628 3.14381 0.885004 0
M  V30 744 H 72.287 3.45541 -1.22462 0
M  V30 745 H 71.935 4.97692 0.728816 0
M  V30 746 H 71.635 5.81966 -0.811775 0
M  V30 747 H 73.159 6.10553 0.0757473 0
M  V30 748 H 74.573 5.34794 -2.06563 0
M  V30 749 H 72.97 5.279 -2.8538 0
M  V30 750 H 74.04 3.86726 -2.92525 0
M  V30 751 N 75.3831 0.828654 1.34056 0
M  V30 752 C 76.7991 0.515135 1.51058 0
M  V30 753 C 76.9991 -0.959581 1.77184 0
M  V30 754 O 76.0551 -1.74382 1.82612 0
M  V30 755 C 77.3681 1.37963 2.67183 0
M  V30 756 C 78.9161 1.37735 2.81066 0
M  V30 757 C 79.3911 2.22645 4.00241 0
M  V30 758 N 80.8821 2.203 4.07458 0
M  V30 759 C 81.6171 2.82744 4.98842 0
M  V30 760 N 81.1131 3.54201 5.9541 0
M  V30 761 N 82.9061 2.72268 4.91759 0
M  V30 762 H 75.0571 1.78343 1.15358 0
M  V30 763 H 77.3201 0.760304 0.566252 0
M  V30 764 H 77.0261 2.42714 2.54525 0
M  V30 765 H 76.9001 1.0484 3.62338 0
M  V30 766 H 79.2871 0.337593 2.93163 0
M  V30 767 H 79.3681 1.74859 1.86703 0
M  V30 768 H 79.0121 3.26674 3.88905 0
M  V30 769 H 78.9421 1.82869 4.93829 0
M  V30 770 H 81.4331 1.68327 3.38341 0
M  V30 771 H 81.7461 3.9908 6.61782 0
M  V30 772 H 80.0911 3.58308 5.95517 0
M  V30 773 H 83.2821 2.16014 4.15278 0
M  V30 774 H 83.4551 3.21219 5.62781 0
M  V30 775 N 76.8612 -1.46375 0.584142 0
M  V30 776 C 78.1382 -1.956 0.0033388 0
M  V30 777 C 78.5182 -1.52679 -1.45782 0
M  V30 778 O 77.8662 -0.77816 -2.14842 0
M  V30 779 C 78.0762 -3.48551 0.176891 0
M  V30 780 C 79.4242 -4.24576 0.0454609 0
M  V30 781 O 80.4482 -3.56043 0.105801 0
M  V30 782 O 79.3072 -5.46427 -0.0890376 0
M  V30 783 H 76.4012 -0.825547 -0.0490066 0
M  V30 784 H 78.9472 -1.56652 0.65256 0
M  V30 785 H 77.7192 -3.72683 1.1926 0
M  V30 786 H 77.3422 -3.94332 -0.508695 0
M  V30 787 N 78.3393 -0.321999 -1.54275 0
M  V30 788 C 79.5673 0.283052 -2.04955 0
M  V30 789 C 79.9823 1.45904 -1.19823 0
M  V30 790 O 79.3393 1.81063 -0.228545 0
M  V30 791 C 79.3903 0.719028 -3.54277 0
M  V30 792 O 79.1113 -0.410175 -4.36176 0
M  V30 793 C 80.6123 1.38705 -4.21041 0
M  V30 794 H 77.8323 0.0584616 -0.668448 0
M  V30 795 H 80.3763 -0.467734 -1.99079 0
M  V30 796 H 78.5313 1.41979 -3.60445 0
M  V30 797 H 78.9453 -0.0669416 -5.24457 0
M  V30 798 H 80.4193 1.64306 -5.2698 0
M  V30 799 H 80.8963 2.33385 -3.72059 0
M  V30 800 H 81.5023 0.728906 -4.19007 0
M  V30 801 N 79.8174 1.5752 -0.0501392 0
M  V30 802 C 81.2284 1.80271 0.485705 0
M  V30 803 C 81.5794 0.96228 1.70981 0
M  V30 804 O 80.7044 0.178578 2.15662 0
M  V30 805 C 81.2994 3.26957 0.887938 0
M  V30 806 C 79.8584 3.5063 1.36877 0
M  V30 807 C 79.0054 2.75165 0.343468 0
M  V30 808 H 81.9564 1.56281 -0.276028 0
M  V30 809 H 81.9774 3.37821 1.75093 0
M  V30 810 H 81.4894 3.881 -0.0031809 0
M  V30 811 H 79.5904 2.94766 2.27911 0
M  V30 812 H 79.7034 4.59343 1.36164 0
M  V30 813 H 78.0674 2.4127 0.816128 0
M  V30 814 H 78.8504 3.39034 -0.539548 0
M  V30 815 N 81.2955 -0.223234 1.56011 0
M  V30 816 C 82.2255 -1.27988 1.95298 0
M  V30 817 C 83.2065 -1.48976 0.820979 0
M  V30 818 O 84.3915 -1.61188 1.08315 0
M  V30 819 C 81.5215 -2.63 2.26822 0
M  V30 820 C 80.4755 -2.56671 3.42497 0
M  V30 821 C 79.8015 -3.95697 3.59622 0
M  V30 822 C 81.1015 -2.11601 4.77517 0
M  V30 823 H 82.7955 -0.953525 2.8381 0
M  V30 824 H 80.3415 -0.457244 1.36548 0
M  V30 825 H 82.2945 -3.37077 2.52898 0
M  V30 826 H 81.0185 -2.9732 1.35161 0
M  V30 827 H 79.6775 -1.85051 3.16467 0
M  V30 828 H 79.3255 -4.27322 2.6534 0
M  V30 829 H 79.0255 -3.92345 4.37424 0
M  V30 830 H 80.5495 -4.71438 3.88044 0
M  V30 831 H 81.9635 -2.7542 5.02809 0
M  V30 832 H 80.3605 -2.19311 5.5859 0
M  V30 833 H 81.4305 -1.06824 4.72987 0
M  V30 834 N 82.7736 -1.49793 -0.48987 0
M  V30 835 C 84.0506 -1.50348 -1.25119 0
M  V30 836 C 84.4306 -0.237466 -2.0976 0
M  V30 837 O 83.7786 0.77981 -2.14782 0
M  V30 838 C 83.9886 -2.78872 -2.09837 0
M  V30 839 C 85.3366 -3.288 -2.68655 0
M  V30 840 O 86.3606 -2.80065 -2.20096 0
M  V30 841 O 85.2196 -4.13707 -3.57083 0
M  V30 842 H 82.3136 -0.602242 -0.566775 0
M  V30 843 H 84.8596 -1.62067 -0.503229 0
M  V30 844 H 83.6316 -3.62499 -1.47343 0
M  V30 845 H 83.2546 -2.70066 -2.91805 0
M  V30 846 N 84.2517 0.741722 -1.39055 0
M  V30 847 C 85.6627 1.31966 -1.32068 0
M  V30 848 C 86.0137 1.96192 0.0180797 0
M  V30 849 O 85.1387 1.95861 0.920196 0
M  V30 850 C 85.7337 2.39954 -2.39181 0
M  V30 851 C 84.2927 2.93438 -2.35735 0
M  V30 852 C 83.4397 1.66936 -2.21422 0
M  V30 853 H 86.3907 0.539721 -1.4924 0
M  V30 854 H 86.4117 3.20182 -2.05581 0
M  V30 855 H 85.9237 1.9318 -3.36605 0
M  V30 856 H 84.0247 3.4451 -1.41929 0
M  V30 857 H 84.1377 3.4701 -3.30335 0
M  V30 858 H 82.5017 1.91016 -1.68478 0
M  V30 859 H 83.2847 1.22224 -3.20806 0
M  V30 860 N 85.7298 1.2412 0.971189 0
M  V30 861 C 86.6398 1.04747 2.09917 0
M  V30 862 C 87.6558 -0.0107162 1.73997 0
M  V30 863 O 88.8318 0.186714 2.00533 0
M  V30 864 C 85.8968 0.650828 3.40537 0
M  V30 865 C 84.9578 1.7851 3.90426 0
M  V30 866 C 84.1908 1.40729 5.14812 0
M  V30 867 O 84.4138 0.29557 5.69634 0
M  V30 868 O 83.3478 2.23168 5.58999 0
M  V30 869 H 87.1738 1.99304 2.29154 0
M  V30 870 H 84.7588 1.02908 1.08307 0
M  V30 871 H 86.6408 0.440992 4.19086 0
M  V30 872 H 85.3158 -0.265649 3.22608 0
M  V30 873 H 84.2228 2.04966 3.12953 0
M  V30 874 H 85.5558 2.68023 4.12825 0
M  V30 875 N 87.2079 -1.17134 1.05439 0
M  V30 876 C 88.6239 -1.39454 0.776201 0
M  V30 877 C 88.8239 -1.91454 -0.628307 0
M  V30 878 O 87.8799 -2.10777 -1.39031 0
M  V30 879 C 89.1929 -2.38305 1.83388 0
M  V30 880 C 90.7409 -2.52006 1.85639 0
M  V30 881 C 91.2159 -3.54133 2.90437 0
M  V30 882 N 92.7069 -3.61653 2.89415 0
M  V30 883 C 93.4419 -4.4044 3.67152 0
M  V30 884 N 92.9379 -5.22721 4.54681 0
M  V30 885 N 94.7309 -4.35337 3.55581 0
M  V30 886 H 86.8819 -0.817134 1.96053 0
M  V30 887 H 89.1449 -0.421626 0.849079 0
M  V30 888 H 88.8509 -2.07173 2.84204 0
M  V30 889 H 88.7249 -3.37841 1.67761 0
M  V30 890 H 91.1119 -2.82447 0.85486 0
M  V30 891 H 91.1929 -1.52537 2.05344 0
M  V30 892 H 90.8369 -3.24431 3.90777 0
M  V30 893 H 90.7669 -4.53313 2.67983 0
M  V30 894 H 93.2579 -3.02909 2.25952 0
M  V30 895 H 93.5709 -5.80027 5.10674 0
M  V30 896 H 91.9159 -5.22093 4.58741 0
M  V30 897 H 95.1069 -3.70112 2.86592 0
M  V30 898 H 95.2799 -4.96494 4.1641 0
M  V30 899 N 88.686 -0.835752 -1.33615 0
M  V30 900 C 89.914 -0.443344 -2.02094 0
M  V30 901 C 90.329 0.954522 -1.62894 0
M  V30 902 O 89.686 1.61982 -0.840723 0
M  V30 903 C 89.737 -0.550775 -3.5728 0
M  V30 904 O 89.458 -1.89356 -3.95065 0
M  V30 905 C 90.959 -0.154919 -4.43029 0
M  V30 906 H 88.179 -0.176359 -0.647409 0
M  V30 907 H 90.723 -1.12746 -1.70612 0
M  V30 908 H 88.878 0.0853997 -3.87306 0
M  V30 909 H 89.292 -1.87687 -4.89769 0
M  V30 910 H 90.766 -0.281144 -5.51284 0
M  V30 911 H 91.243 0.902863 -4.2982 0
M  V30 912 H 91.849 -0.765404 -4.18356 0
M  V30 913 N 90.1641 1.46063 -0.591896 0
M  V30 914 C 91.4101 2.02638 -0.0811191 0
M  V30 915 C 91.7431 1.4613 1.27905 0
M  V30 916 O 91.0181 0.629908 1.84017 0
M  V30 917 C 91.3011 3.60091 -0.0252436 0
M  V30 918 C 91.1541 4.26965 -1.41496 0
M  V30 919 C 92.4731 4.3496 0.670685 0
M  V30 920 H 89.5921 0.73635 -0.0309524 0
M  V30 921 H 92.2341 1.741 -0.760859 0
M  V30 922 H 90.3841 3.84535 0.553624 0
M  V30 923 H 92.0561 4.13756 -2.0397 0
M  V30 924 H 90.2991 3.85971 -1.98011 0
M  V30 925 H 90.9701 5.35781 -1.32825 0
M  V30 926 H 93.4461 4.15716 0.178825 0
M  V30 927 H 92.3221 5.44686 0.678837 0
M  V30 928 H 92.5831 4.06685 1.73379 0
M  V30 929 N 91.6422 0.330177 1.54103 0
M  V30 930 C 92.8882 -0.270806 2.00984 0
M  V30 931 C 93.2212 -1.51265 1.21789 0
M  V30 932 O 92.4962 -1.92142 0.301927 0
M  V30 933 C 92.7792 -0.598339 3.55094 0
M  V30 934 C 92.6322 0.654674 4.4501 0
M  V30 935 C 93.9512 -1.41334 4.16789 0
M  V30 936 H 91.0702 -0.0969531 0.730595 0
M  V30 937 H 93.7122 0.448066 1.84641 0
M  V30 938 H 91.8622 -1.21078 3.69151 0
M  V30 939 H 93.5342 1.29285 4.42813 0
M  V30 940 H 91.7772 1.28224 4.14416 0
M  V30 941 H 92.4482 0.380944 5.50684 0
M  V30 942 H 94.9242 -0.895597 4.06347 0
M  V30 943 H 93.8002 -1.61127 5.24718 0
M  V30 944 H 94.0612 -2.41146 3.70541 0
M  V30 945 N 93.1203 -1.57491 0.0584922 0
M  V30 946 C 94.5363 -1.56792 -0.298091 0
M  V30 947 C 94.7363 -1.06679 -1.70944 0
M  V30 948 O 93.7923 -0.726672 -2.41818 0
M  V30 949 C 95.1053 -3.00461 -0.119879 0
M  V30 950 C 96.6533 -3.1242 -0.190428 0
M  V30 951 C 97.1283 -4.57982 -0.0406567 0
M  V30 952 N 98.6193 -4.63099 -0.0966958 0
M  V30 953 C 99.3543 -5.734 -0.00502943 0
M  V30 954 N 98.8503 -6.9266 0.139402 0
M  V30 955 N 100.643 -5.62067 -0.0611391 0
M  V30 956 H 92.7943 -1.88386 0.98105 0
M  V30 957 H 95.0573 -0.867865 0.381463 0
M  V30 958 H 94.7633 -3.41187 0.85349 0
M  V30 959 H 94.6373 -3.66843 -0.877833 0
M  V30 960 H 97.0243 -2.71589 -1.15427 0
M  V30 961 H 97.1053 -2.48702 0.598405 0
M  V30 962 H 96.7493 -4.995 0.919897 0
M  V30 963 H 96.6793 -5.19715 -0.848727 0
M  V30 964 H 99.1703 -3.77331 -0.207277 0
M  V30 965 H 99.4833 -7.72536 0.201855 0
M  V30 966 H 97.8283 -6.94781 0.174586 0
M  V30 967 H 101.019 -4.67782 -0.172583 0
M  V30 968 H 101.192 -6.47999 0.0137562 0
M  V30 969 N 94.5984 0.214957 -1.56127 0
M  V30 970 C 95.8474 0.936451 -1.78643 0
M  V30 971 C 96.1604 1.85237 -0.628229 0
M  V30 972 O 97.3664 2.613 -0.737186 0
M  V30 973 C 95.8224 1.7154 -3.16389 0
M  V30 974 C 95.4304 0.845299 -4.39953 0
M  V30 975 C 97.1744 2.42772 -3.48227 0
M  V30 976 C 95.0814 1.62198 -5.68723 0
M  V30 977 H 94.0114 0.353401 -0.666051 0
M  V30 978 H 96.6624 0.190169 -1.82512 0
M  V30 979 H 95.0444 2.50484 -3.06715 0
M  V30 980 H 96.2184 0.0959353 -4.607 0
M  V30 981 H 94.5334 0.244789 -4.1568 0
M  V30 982 H 97.1304 3.01394 -4.41663 0
M  V30 983 H 97.4734 3.15984 -2.71035 0
M  V30 984 H 98.0064 1.70813 -3.5926 0
M  V30 985 H 94.7454 0.933011 -6.48826 0
M  V30 986 H 94.2654 2.34579 -5.52026 0
M  V30 987 H 95.9444 2.18095 -6.09133 0
M  V30 988 N 96.0765 1.50051 0.48192 0
M  V30 989 C 97.0245 1.68635 1.60203 0
M  V30 990 C 98.0185 0.552184 1.60148 0
M  V30 991 O 99.2245 0.732377 1.64427 0
M  V30 992 H 95.5995 0.532081 0.531407 0
M  V30 993 H 97.5705 2.62616 1.41688 0
M  V30 994 C 96.3195 1.78775 2.9822 0
M  V30 995 H 95.6425 2.6543 2.98976 0
M  V30 996 H 97.0825 1.95806 3.7608 0
M  V30 997 C 95.5415 0.536849 3.32595 0
M  V30 998 O 96.0715 -0.328897 4.00351 0
M  V30 999 N 94.2775 0.394091 2.87915 0
M  V30 1000 H 93.8245 1.09962 2.32951 0
M  V30 1001 H 93.7825 -0.441737 3.11281 0
M  V30 1002 N 97.5546 -0.734337 1.39446 0
M  V30 1003 C 98.5176 -1.83004 1.37994 0
M  V30 1004 C 99.5176 -1.58397 0.276938 0
M  V30 1005 O 100.708 -1.65785 0.534875 0
M  V30 1006 C 97.8396 -3.20802 1.1532 0
M  V30 1007 H 99.0326 -1.85694 2.35494 0
M  V30 1008 H 96.5856 -0.938059 1.25021 0
M  V30 1009 H 97.3206 -3.23772 0.185036 0
M  V30 1010 H 97.1056 -3.4006 1.95197 0
M  V30 1011 H 98.5956 -4.00862 1.17046 0
M  V30 1012 N 99.0327 -1.24633 -0.964593 0
M  V30 1013 C 100.281 -1.08573 -1.70459 0
M  V30 1014 C 100.602 0.375655 -1.91347 0
M  V30 1015 O 99.8717 1.26779 -1.49345 0
M  V30 1016 H 98.4517 -0.398784 -0.631649 0
M  V30 1017 H 101.114 -1.56601 -1.16026 0
M  V30 1018 H 100.21 -1.58623 -2.68785 0
M  V30 1019 N 100.511 1.16574 -1.06058 0
M  V30 1020 C 101.759 1.86677 -0.77434 0
M  V30 1021 C 102.08 1.81959 0.701147 0
M  V30 1022 O 101.35 1.2515 1.50713 0
M  V30 1023 H 99.9298 0.691134 -0.283449 0
M  V30 1024 H 102.592 1.41378 -1.34158 0
M  V30 1025 H 101.688 2.92181 -1.09711 0
M  V30 1026 N 101.989 0.842826 1.3317 0
M  V30 1027 C 103.217 0.454055 2.01856 0
M  V30 1028 C 103.632 -0.94587 1.63397 0
M  V30 1029 O 102.989 -1.61534 0.849302 0
M  V30 1030 C 103.04 0.569715 3.56982 0
M  V30 1031 O 102.761 1.91448 3.94055 0
M  V30 1032 C 104.262 0.178412 4.42941 0
M  V30 1033 H 101.482 0.17979 0.646465 0
M  V30 1034 H 104.026 1.1365 1.70012 0
M  V30 1035 H 102.181 -0.0648587 3.87346 0
M  V30 1036 H 102.595 1.90282 4.88767 0
M  V30 1037 H 104.069 0.310376 5.51127 0
M  V30 1038 H 104.546 -0.880056 4.30293 0
M  V30 1039 H 105.152 0.787579 4.17944 0
M  V30 1040 N 103.467 -1.45747 0.599634 0
M  V30 1041 C 104.43 -2.28917 -0.113835 0
M  V30 1042 C 105.43 -1.3933 -0.802729 0
M  V30 1043 O 106.62 -1.61534 -0.652103 0
M  V30 1044 C 103.752 -3.20152 -1.17114 0
M  V30 1045 H 104.945 -2.93478 0.617289 0
M  V30 1046 H 102.498 -1.52137 0.358327 0
M  V30 1047 H 103.233 -2.60374 -1.93329 0
M  V30 1048 H 103.018 -3.86133 -0.681468 0
M  V30 1049 H 104.508 -3.82708 -1.67105 0
M  V30 1050 N 104.945 -0.338344 -1.53925 0
M  V30 1051 C 106.222 0.314774 -1.93051 0
M  V30 1052 C 106.602 1.68669 -1.26941 0
M  V30 1053 O 105.95 2.24636 -0.418445 0
M  V30 1054 C 106.16 0.392249 -3.46789 0
M  V30 1055 C 107.508 0.645554 -4.19664 0
M  V30 1056 O 108.532 0.474575 -3.53024 0
M  V30 1057 O 107.391 0.976408 -5.37707 0
M  V30 1058 H 104.485 0.182598 -0.80659 0
M  V30 1059 H 107.031 -0.389141 -1.65178 0
M  V30 1060 H 105.803 -0.570702 -3.87116 0
M  V30 1061 H 105.426 1.14316 -3.80812 0
M  V30 1062 N 106.423 1.57458 -0.0668435 0
M  V30 1063 C 107.355 2.09413 0.931601 0
M  V30 1064 C 108.368 1.02522 1.26464 0
M  V30 1065 O 109.557 1.30049 1.22269 0
M  V30 1066 C 106.657 2.53537 2.24882 0
M  V30 1067 C 105.83 3.83944 2.09537 0
M  V30 1068 C 104.889 4.14214 3.2452 0
M  V30 1069 O 103.915 4.83891 2.9973 0
M  V30 1070 N 105.117 3.67367 4.49469 0
M  V30 1071 H 107.882 2.95699 0.488048 0
M  V30 1072 H 105.443 1.61462 0.119009 0
M  V30 1073 H 107.435 2.70853 3.00701 0
M  V30 1074 H 106.005 1.72415 2.60753 0
M  V30 1075 H 105.225 3.76057 1.18215 0
M  V30 1076 H 106.513 4.69312 1.96529 0
M  V30 1077 H 105.911 3.11068 4.72497 0
M  V30 1078 H 104.468 3.89891 5.2233 0
M  V30 1079 N 107.901 -0.206675 1.56239 0
M  V30 1080 C 108.864 -1.23976 1.92776 0
M  V30 1081 C 109.864 -1.39041 0.807729 0
M  V30 1082 O 111.054 -1.37051 1.0753 0
M  V30 1083 C 108.186 -2.61112 2.19165 0
M  V30 1084 H 109.379 -0.927764 2.85189 0
M  V30 1085 H 106.932 -0.447718 1.4975 0
M  V30 1086 H 107.667 -2.97386 1.29352 0
M  V30 1087 H 107.452 -2.51552 3.00772 0
M  V30 1088 H 108.942 -3.35633 2.48476 0
M  V30 1089 N 109.379 -1.50304 -0.473955 0
M  V30 1090 C 110.795 -1.37667 -0.807466 0
M  V30 1091 C 110.995 -0.430555 -1.96846 0
M  V30 1092 O 110.051 0.127874 -2.52176 0
M  V30 1093 C 111.364 -2.78974 -1.12223 0
M  V30 1094 C 112.912 -2.87868 -1.22885 0
M  V30 1095 C 113.387 -4.30003 -1.57676 0
M  V30 1096 N 114.878 -4.3294 -1.64673 0
M  V30 1097 C 115.613 -5.3991 -1.93091 0
M  V30 1098 N 115.109 -6.57092 -2.1955 0
M  V30 1099 N 116.902 -5.27351 -1.94569 0
M  V30 1100 H 109.053 -2.10394 0.291212 0
M  V30 1101 H 111.316 -0.945575 0.0677609 0
M  V30 1102 H 111.022 -3.50031 -0.342229 0
M  V30 1103 H 110.896 -3.16038 -2.05913 0
M  V30 1104 H 113.283 -2.17032 -1.99953 0
M  V30 1105 H 113.364 -2.54352 -0.271814 0
M  V30 1106 H 113.008 -5.01375 -0.81149 0
M  V30 1107 H 112.938 -4.61004 -2.54525 0
M  V30 1108 H 115.429 -3.48441 -1.46277 0
M  V30 1109 H 115.742 -7.34425 -2.405 0
M  V30 1110 H 114.087 -6.60272 -2.16948 0
M  V30 1111 H 117.278 -4.34801 -1.73394 0
M  V30 1112 H 117.451 -6.10805 -2.16381 0
M  V30 1113 N 110.857 0.726932 -1.39834 0
M  V30 1114 C 112.134 1.47902 -1.28001 0
M  V30 1115 C 112.514 2.1083 0.106789 0
M  V30 1116 O 111.862 1.99242 1.11869 0
M  V30 1117 C 112.072 2.52392 -2.41038 0
M  V30 1118 C 113.42 3.18546 -2.80737 0
M  V30 1119 O 114.444 2.62708 -2.40547 0
M  V30 1120 O 113.303 4.19604 -3.50135 0
M  V30 1121 H 110.397 0.657163 -0.502062 0
M  V30 1122 H 112.943 0.760071 -1.51727 0
M  V30 1123 H 111.715 2.04329 -3.33715 0
M  V30 1124 H 111.338 3.31837 -2.19021 0
M  V30 1125 N 112.336 1.25143 0.95797 0
M  V30 1126 C 113.266 1.07711 2.07173 0
M  V30 1127 C 114.247 -0.0128462 1.70095 0
M  V30 1128 O 115.432 0.156061 1.93572 0
M  V30 1129 C 112.562 0.691503 3.40346 0
M  V30 1130 C 111.516 1.73132 3.9142 0
M  V30 1131 C 110.842 1.20049 5.21049 0
M  V30 1132 C 112.142 3.1294 4.1817 0
M  V30 1133 H 113.836 2.00873 2.22014 0
M  V30 1134 H 111.382 0.967191 1.06684 0
M  V30 1135 H 113.335 0.556505 4.17709 0
M  V30 1136 H 112.059 -0.275819 3.25433 0
M  V30 1137 H 110.718 1.8547 3.16222 0
M  V30 1138 H 110.366 0.223499 5.02503 0
M  V30 1139 H 110.066 1.89545 5.56189 0
M  V30 1140 H 111.59 1.07782 6.01012 0
M  V30 1141 H 113.004 3.03775 4.86203 0
M  V30 1142 H 111.401 3.79875 4.64559 0
M  V30 1143 H 112.471 3.6025 3.24573 0
M  V30 1144 N 113.814 -1.1601 1.06675 0
M  V30 1145 C 114.724 -2.24156 0.692179 0
M  V30 1146 C 115.74 -1.71507 -0.293513 0
M  V30 1147 O 116.916 -2.009 -0.141861 0
M  V30 1148 C 113.981 -3.46587 0.0884131 0
M  V30 1149 C 113.042 -4.14257 1.12646 0
M  V30 1150 C 112.275 -5.30844 0.551416 0
M  V30 1151 O 112.498 -5.66858 -0.634656 0
M  V30 1152 O 111.432 -5.87848 1.29298 0
M  V30 1153 H 115.258 -2.58513 1.59388 0
M  V30 1154 H 112.843 -1.23599 0.83926 0
M  V30 1155 H 114.725 -4.20679 -0.246361 0
M  V30 1156 H 113.4 -3.13994 -0.786712 0
M  V30 1157 H 112.307 -3.42118 1.51348 0
M  V30 1158 H 113.64 -4.50914 1.97325 0
M  V30 1159 N 115.292 -0.849877 -1.32721 0
M  V30 1160 C 116.255 -0.296122 -2.27279 0
M  V30 1161 C 117.255 0.541458 -1.5141 0
M  V30 1162 O 118.445 0.353658 -1.70572 0
M  V30 1163 C 115.577 0.581579 -3.35902 0
M  V30 1164 H 116.77 -1.13064 -2.77771 0
M  V30 1165 H 114.323 -0.62383 -1.43311 0
M  V30 1166 H 115.058 1.43809 -2.9067 0
M  V30 1167 H 114.843 -0.0178814 -3.92096 0
M  V30 1168 H 116.333 0.961951 -4.0637 0
M  V30 1169 N 116.77 1.45427 -0.607355 0
M  V30 1170 C 117.7 2.3329 0.0989352 0
M  V30 1171 C 118.681 1.46816 0.859007 0
M  V30 1172 O 119.866 1.75588 0.829604 0
M  V30 1173 C 116.996 3.29518 1.09705 0
M  V30 1174 C 115.95 4.25626 0.450206 0
M  V30 1175 C 115.276 5.11542 1.55655 0
M  V30 1176 C 116.576 5.18505 -0.628455 0
M  V30 1177 H 118.27 2.92595 -0.634716 0
M  V30 1178 H 115.816 1.40696 -0.306681 0
M  V30 1179 H 117.769 3.89855 1.59971 0
M  V30 1180 H 116.493 2.68372 1.86129 0
M  V30 1181 H 115.152 3.66586 -0.0315886 0
M  V30 1182 H 114.8 4.46765 2.31107 0
M  V30 1183 H 114.5 5.76647 1.12925 0
M  V30 1184 H 116.024 5.74748 2.06148 0
M  V30 1185 H 117.438 5.72916 -0.209877 0
M  V30 1186 H 115.835 5.92085 -0.977489 0
M  V30 1187 H 116.905 4.60948 -1.50514 0
M  V30 1188 N 118.248 0.346503 1.53744 0
M  V30 1189 C 119.211 -0.496439 2.23759 0
M  V30 1190 C 120.211 -1.0252 1.2388 0
M  V30 1191 O 121.401 -0.913974 1.48297 0
M  V30 1192 C 118.533 -1.69187 2.95954 0
M  V30 1193 H 119.726 0.115952 2.99676 0
M  V30 1194 H 117.279 0.0978939 1.55993 0
M  V30 1195 H 118.014 -2.34288 2.24231 0
M  V30 1196 H 117.799 -1.31989 3.69217 0
M  V30 1197 H 119.289 -2.28969 3.49232 0
M  V30 1198 N 119.726 -1.57421 0.075193 0
M  V30 1199 C 120.974 -1.93236 -0.591974 0
M  V30 1200 C 121.295 -0.956241 -1.69944 0
M  V30 1201 O 120.565 -0.00494792 -1.95899 0
M  V30 1202 H 119.145 -0.713355 -0.22166 0
M  V30 1203 H 121.807 -1.9444 0.133848 0
M  V30 1204 H 120.903 -2.95131 -1.01509 0
M  V30 1205 N 121.204 0.198386 -1.56346 0
M  V30 1206 C 122.432 0.935572 -1.84539 0
M  V30 1207 C 122.847 1.76989 -0.657281 0
M  V30 1208 O 122.204 1.78626 0.374043 0
M  V30 1209 C 122.255 1.8344 -3.11499 0
M  V30 1210 O 121.976 1.03377 -4.25728 0
M  V30 1211 C 123.477 2.68355 -3.52846 0
M  V30 1212 H 120.697 0.273126 -0.612897 0
M  V30 1213 H 123.241 0.20663 -2.03453 0
M  V30 1214 H 121.396 2.51701 -2.94492 0
M  V30 1215 H 121.81 1.64599 -4.98003 0
M  V30 1216 H 123.284 3.27085 -4.44657 0
M  V30 1217 H 123.761 3.41901 -2.75681 0
M  V30 1218 H 124.367 2.05471 -3.72373 0
M  V30 1219 N 122.682 1.50554 0.465978 0
M  V30 1220 C 123.645 1.69233 1.54574 0
M  V30 1221 C 124.645 0.562901 1.50626 0
M  V30 1222 O 125.835 0.830016 1.53155 0
M  V30 1223 C 122.967 1.7223 2.94193 0
M  V30 1224 H 124.16 2.65571 1.39327 0
M  V30 1225 H 121.713 1.40111 0.692711 0
M  V30 1226 H 122.448 0.77603 3.14878 0
M  V30 1227 H 122.233 2.54285 2.98466 0
M  V30 1228 H 123.723 1.88618 3.72576 0
M  V30 1229 N 124.16 -0.719506 1.40217 0
M  V30 1230 C 125.39 -1.50646 1.41384 0
M  V30 1231 C 125.798 -1.89197 0.0107743 0
M  V30 1232 O 125.141 -1.55709 -0.974708 0
M  V30 1233 C 125.203 -2.81405 2.23722 0
M  V30 1234 C 124.867 -2.65199 3.72181 0
M  V30 1235 C 125.864 -2.32717 4.64907 0
M  V30 1236 C 123.549 -2.81586 4.1595 0
M  V30 1237 C 125.543 -2.16827 5.99387 0
M  V30 1238 C 123.23 -2.65313 5.50502 0
M  V30 1239 C 124.228 -2.32981 6.42035 0
M  V30 1240 O 123.916 -2.16827 7.74107 0
M  V30 1241 H 123.648 -0.471606 0.484318 0
M  V30 1242 H 126.202 -0.895456 1.84853 0
M  V30 1243 H 124.432 -3.44823 1.75026 0
M  V30 1244 H 126.121 -3.43102 2.16878 0
M  V30 1245 H 126.887 -2.19694 4.32388 0
M  V30 1246 H 122.766 -3.0574 3.45027 0
M  V30 1247 H 126.31 -1.91513 6.70797 0
M  V30 1248 H 122.207 -2.7792 5.82607 0
M  V30 1249 H 122.975 -2.31778 7.84998 0
M  V30 1250 N 125.638 -1.25649 -0.95132 0
M  V30 1251 C 126.866 -1.13343 -1.73092 0
M  V30 1252 C 127.281 0.312434 -1.86197 0
M  V30 1253 O 126.638 1.21465 -1.36207 0
M  V30 1254 C 126.689 -1.78602 -3.14299 0
M  V30 1255 O 126.41 -3.17537 -3.01831 0
M  V30 1256 C 127.911 -1.72119 -4.08522 0
M  V30 1257 H 125.131 -0.395181 -0.542285 0
M  V30 1258 H 127.675 -1.66076 -1.19328 0
M  V30 1259 H 125.83 -1.29832 -3.64996 0
M  V30 1260 H 126.244 -3.49676 -3.90931 0
M  V30 1261 H 127.718 -2.22435 -5.052 0
M  V30 1262 H 128.195 -0.685635 -4.33815 0
M  V30 1263 H 128.801 -2.20393 -3.63741 0
M  V30 1264 N 127.117 1.15442 -1.07289 0
M  V30 1265 C 128.345 1.90096 -0.81676 0
M  V30 1266 C 128.76 1.7798 0.629966 0
M  V30 1267 O 128.117 1.1313 1.43206 0
M  V30 1268 C 128.168 3.40466 -1.21512 0
M  V30 1269 O 127.889 3.52232 -2.60508 0
M  V30 1270 C 129.39 4.32145 -0.988198 0
M  V30 1271 H 126.61 0.602495 -0.295366 0
M  V30 1272 H 129.154 1.4627 -1.42918 0
M  V30 1273 H 127.309 3.81958 -0.647039 0
M  V30 1274 H 127.723 4.45549 -2.76742 0
M  V30 1275 H 129.197 5.36072 -1.31645 0
M  V30 1276 H 129.674 4.39135 0.0755063 0
M  V30 1277 H 130.28 3.96395 -1.54115 0
M  V30 1278 N 128.595 0.856903 1.32268 0
M  V30 1279 C 129.841 0.462069 1.97466 0
M  V30 1280 C 130.174 -0.980298 1.67642 0
M  V30 1281 O 129.449 -1.68824 0.965858 0
M  V30 1282 C 129.732 0.704336 3.53145 0
M  V30 1283 C 129.585 2.19529 3.9259 0
M  V30 1284 C 130.904 0.1622 4.39801 0
M  V30 1285 H 128.023 0.169357 0.717278 0
M  V30 1286 H 130.665 1.07574 1.56614 0
M  V30 1287 H 128.815 0.181999 3.88073 0
M  V30 1288 H 130.487 2.78387 3.67829 0
M  V30 1289 H 128.73 2.67292 3.41668 0
M  V30 1290 H 129.401 2.31549 5.01088 0
M  V30 1291 H 131.877 0.608905 4.11621 0
M  V30 1292 H 130.753 0.361265 5.4771 0
M  V30 1293 H 131.014 -0.935158 4.32096 0
M  V30 1294 N 130.073 -1.45103 0.615059 0
M  V30 1295 C 131.006 -2.27717 -0.148408 0
M  V30 1296 C 131.984 -1.37584 -0.866572 0
M  V30 1297 O 133.168 -1.67017 -0.87393 0
M  V30 1298 C 130.295 -3.16136 -1.21557 0
M  V30 1299 C 129.341 -4.22263 -0.599712 0
M  V30 1300 S 130.174 -5.3215 0.598081 0
M  V30 1301 C 131.33 -6.24137 -0.469484 0
M  V30 1302 H 131.563 -2.92121 0.552483 0
M  V30 1303 H 129.096 -1.49054 0.402778 0
M  V30 1304 H 131.054 -3.67633 -1.82638 0
M  V30 1305 H 129.715 -2.50982 -1.88857 0
M  V30 1306 H 128.908 -4.84081 -1.4029 0
M  V30 1307 H 128.51 -3.73945 -0.063876 0
M  V30 1308 H 130.802 -6.63984 -1.34652 0
M  V30 1309 H 131.745 -7.0801 0.112725 0
M  V30 1310 H 132.153 -5.58971 -0.788168 0
M  V30 1311 N 131.551 -0.354651 -1.53558 0
M  V30 1312 C 132.481 0.489091 -2.2832 0
M  V30 1313 C 133.462 1.09324 -1.30316 0
M  V30 1314 O 134.647 1.11255 -1.59173 0
M  V30 1315 C 131.777 1.63456 -3.0643 0
M  V30 1316 C 130.731 1.1582 -4.12031 0
M  V30 1317 C 130.057 2.39305 -4.7816 0
M  V30 1318 C 131.357 0.250731 -5.21698 0
M  V30 1319 H 133.051 -0.134614 -2.99097 0
M  V30 1320 H 130.597 -0.0661826 -1.43848 0
M  V30 1321 H 132.55 2.23136 -3.57475 0
M  V30 1322 H 131.274 2.28533 -2.33325 0
M  V30 1323 H 129.933 0.584146 -3.61916 0
M  V30 1324 H 129.581 3.02814 -4.01637 0
M  V30 1325 H 129.281 2.08109 -5.49513 0
M  V30 1326 H 130.805 2.99691 -5.31994 0
M  V30 1327 H 132.219 0.754695 -5.68311 0
M  V30 1328 H 130.616 0.0301468 -6.00092 0
M  V30 1329 H 131.686 -0.710125 -4.79672 0
M  V30 1330 N 133.029 1.57378 -0.0835403 0
M  V30 1331 C 134.44 1.81261 0.447358 0
M  V30 1332 C 134.791 0.998331 1.68902 0
M  V30 1333 O 133.916 0.224282 2.15235 0
M  V30 1334 C 134.511 3.28767 0.818386 0
M  V30 1335 C 133.07 3.53455 1.29409 0
M  V30 1336 C 132.217 2.75831 0.285024 0
M  V30 1337 H 135.168 1.5566 -0.309115 0
M  V30 1338 H 135.189 3.41459 1.67887 0
M  V30 1339 H 134.701 3.88006 -0.0855019 0
M  V30 1340 H 132.802 2.99534 2.21608 0
M  V30 1341 H 132.915 4.62128 1.2639 0
M  V30 1342 H 131.279 2.42947 0.764767 0
M  V30 1343 H 132.062 3.37813 -0.611341 0
M  V30 1344 N 134.507 -0.190092 1.56449 0
M  V30 1345 C 135.454 -1.23557 1.94942 0
M  V30 1346 C 136.424 -1.44972 0.810696 0
M  V30 1347 O 137.609 -1.58023 1.06927 0
M  V30 1348 C 134.749 -2.57416 2.2985 0
M  V30 1349 C 133.862 -2.43537 3.5681 0
M  V30 1350 C 132.997 -3.70134 3.81017 0
M  V30 1351 C 132.036 -3.51109 5.01387 0
M  V30 1352 N 131.173 -4.6973 5.21822 0
M  V30 1353 H 136.013 -0.900304 2.84075 0
M  V30 1354 H 133.55 -0.43318 1.40577 0
M  V30 1355 H 135.508 -3.35409 2.48106 0
M  V30 1356 H 134.138 -2.88975 1.43852 0
M  V30 1357 H 133.19 -1.56816 3.46573 0
M  V30 1358 H 134.502 -2.25415 4.4496 0
M  V30 1359 H 133.656 -4.56566 3.9954 0
M  V30 1360 H 132.395 -3.91215 2.91207 0
M  V30 1361 H 131.4 -2.63063 4.82782 0
M  V30 1362 H 132.625 -3.31468 5.9271 0
M  V30 1363 H 130.571 -4.91065 4.34961 0
M  V30 1364 H 130.488 -4.54452 6.0416 0
M  V30 1365 H 131.756 -5.57499 5.44808 0
M  V30 1366 N 135.985 -1.50799 -0.457987 0
M  V30 1367 C 136.948 -1.7005 -1.53674 0
M  V30 1368 C 137.948 -0.570881 -1.50325 0
M  V30 1369 O 139.138 -0.838126 -1.52712 0
M  V30 1370 C 136.27 -1.73788 -2.93276 0
M  V30 1371 H 137.463 -2.66306 -1.37917 0
M  V30 1372 H 135.016 -1.40477 -0.685271 0
M  V30 1373 H 135.751 -0.792717 -3.14462 0
M  V30 1374 H 135.536 -2.55864 -2.97113 0
M  V30 1375 H 137.026 -1.90591 -3.71571 0
M  V30 1376 N 137.463 0.71206 -1.40597 0
M  V30 1377 C 138.373 1.8562 -1.43466 0
M  V30 1378 C 139.389 1.70902 -0.326902 0
M  V30 1379 O 140.565 1.93105 -0.572043 0
M  V30 1380 C 137.63 3.21451 -1.29884 0
M  V30 1381 C 136.691 3.48398 -2.50833 0
M  V30 1382 C 135.924 4.77749 -2.3789 0
M  V30 1383 O 136.147 5.53089 -1.39459 0
M  V30 1384 O 135.081 5.05111 -3.27333 0
M  V30 1385 H 138.907 1.86155 -2.39958 0
M  V30 1386 H 136.492 0.86295 -1.21957 0
M  V30 1387 H 138.374 4.02579 -1.24531 0
M  V30 1388 H 137.049 3.21636 -0.364997 0
M  V30 1389 H 135.956 2.67265 -2.61763 0
M  V30 1390 H 137.289 3.53014 -3.4299 0
M  V30 1391 N 138.941 1.26152 0.944643 0
M  V30 1392 C 140.166 1.14363 1.7302 0
M  V30 1393 C 140.591 -0.29772 1.85729 0
M  V30 1394 O 139.949 -1.2157 1.34501 0
M  V30 1395 C 139.997 1.81378 3.11664 0
M  V30 1396 O 139.101 1.10022 3.97453 0
M  V30 1397 H 138.442 0.398694 0.53098 0
M  V30 1398 H 140.972 1.66906 1.18337 0
M  V30 1399 H 140.982 1.88064 3.62072 0
M  V30 1400 H 139.657 2.86237 3.0173 0
M  V30 1401 H 138.234 1.11287 3.55907 0
M  V30 1402 N 140.419 -1.14872 1.07899 0
M  V30 1403 C 141.382 -2.17986 0.708161 0
M  V30 1404 C 142.382 -1.58775 -0.25442 0
M  V30 1405 O 143.572 -1.74166 -0.034645 0
M  V30 1406 C 140.704 -3.40871 0.0446929 0
M  V30 1407 H 141.897 -2.52306 1.62116 0
M  V30 1408 H 139.45 -1.2943 0.876218 0
M  V30 1409 H 140.185 -3.12124 -0.880281 0
M  V30 1410 H 139.97 -3.8511 0.737091 0
M  V30 1411 H 141.46 -4.17121 -0.19991 0
M  V30 1412 N 141.898 -0.863906 -1.31812 0
M  V30 1413 C 142.861 -0.320212 -2.26952 0
M  V30 1414 C 143.861 0.525369 -1.51975 0
M  V30 1415 O 145.051 0.335547 -1.70938 0
M  V30 1416 C 142.183 0.545919 -3.365 0
M  V30 1417 H 143.376 -1.16004 -2.76556 0
M  V30 1418 H 140.929 -0.638995 -1.42641 0
M  V30 1419 H 141.664 1.40718 -2.92179 0
M  V30 1420 H 141.449 -0.0594674 -3.92055 0
M  V30 1421 H 142.939 0.918796 -4.07367 0
M  V30 1422 N 143.376 1.44774 -0.622745 0
M  V30 1423 C 144.308 2.28856 0.125485 0
M  V30 1424 C 145.321 1.40811 0.817069 0
M  V30 1425 O 146.51 1.65044 0.679918 0
M  V30 1426 C 143.61 3.16963 1.19949 0
M  V30 1427 C 142.783 4.33374 0.592064 0
M  V30 1428 C 141.842 5.02577 1.55893 0
M  V30 1429 O 140.868 5.58873 1.07933 0
M  V30 1430 N 142.07 5.03256 2.89334 0
M  V30 1431 H 144.835 2.93713 -0.596068 0
M  V30 1432 H 142.396 1.55129 -0.463303 0
M  V30 1433 H 144.388 3.60123 1.84644 0
M  V30 1434 H 142.958 2.53913 1.82337 0
M  V30 1435 H 142.178 3.93509 -0.233322 0
M  V30 1436 H 143.466 5.08527 0.166738 0
M  V30 1437 H 142.864 4.58836 3.30887 0
M  V30 1438 H 141.421 5.50232 3.49412 0
M  V30 1439 N 144.854 0.36279 1.53368 0
M  V30 1440 C 146.1 -0.228113 2.01513 0
M  V30 1441 C 146.433 -1.48648 1.2497 0
M  V30 1442 O 145.708 -1.91459 0.342616 0
M  V30 1443 C 145.991 -0.522884 3.56284 0
M  V30 1444 C 145.844 0.74892 4.43521 0
M  V30 1445 C 147.163 -1.32461 4.19693 0
M  V30 1446 H 144.282 -0.0814343 0.732487 0
M  V30 1447 H 146.924 0.48713 1.83649 0
M  V30 1448 H 145.074 -1.1322 3.71636 0
M  V30 1449 H 146.746 1.38648 4.39971 0
M  V30 1450 H 144.989 1.36986 4.11603 0
M  V30 1451 H 145.66 0.497667 5.49752 0
M  V30 1452 H 148.136 -0.809203 4.08156 0
M  V30 1453 H 147.012 -1.49961 5.28018 0
M  V30 1454 H 147.273 -2.33232 3.75573 0
M  V30 1455 N 146.332 -1.57332 0.0918853 0
M  V30 1456 C 147.581 -1.93412 -0.572249 0
M  V30 1457 C 147.894 -0.975515 -1.69538 0
M  V30 1458 O 149.1 -1.22991 -2.42045 0
M  V30 1459 C 147.556 -3.43648 -1.0693 0
M  V30 1460 C 147.164 -4.47994 0.0239049 0
M  V30 1461 C 148.908 -3.88695 -1.70635 0
M  V30 1462 C 146.815 -5.89381 -0.488319 0
M  V30 1463 H 145.745 -0.721939 -0.217532 0
M  V30 1464 H 148.396 -1.82735 0.167369 0
M  V30 1465 H 146.778 -3.49466 -1.8625 0
M  V30 1466 H 147.952 -4.53815 0.799277 0
M  V30 1467 H 146.267 -4.12536 0.565946 0
M  V30 1468 H 148.864 -4.91725 -2.10025 0
M  V30 1469 H 149.207 -3.27166 -2.57426 0
M  V30 1470 H 149.74 -3.85564 -0.979023 0
M  V30 1471 H 146.479 -6.54602 0.342906 0
M  V30 1472 H 145.999 -5.87037 -1.23077 0
M  V30 1473 H 147.678 -6.39863 -0.958317 0
M  V30 1474 N 147.81 0.181792 -1.56548 0
M  V30 1475 C 148.72 1.24538 -1.98815 0
M  V30 1476 C 149.736 1.49045 -0.897861 0
M  V30 1477 O 150.912 1.61399 -1.20467 0
M  V30 1478 C 147.977 2.56683 -2.33055 0
M  V30 1479 C 147.038 2.40131 -3.55859 0
M  V30 1480 C 146.271 3.65975 -3.88456 0
M  V30 1481 O 146.494 4.70711 -3.22161 0
M  V30 1482 O 145.428 3.6071 -4.81842 0
M  V30 1483 H 149.254 0.916647 -2.89536 0
M  V30 1484 H 146.839 0.387842 -1.44278 0
M  V30 1485 H 148.721 3.34655 -2.56094 0
M  V30 1486 H 147.396 2.89157 -1.45498 0
M  V30 1487 H 146.303 1.60226 -3.38051 0
M  V30 1488 H 147.636 2.12585 -4.43924 0
M  V30 1489 N 149.288 1.51039 0.449983 0
M  V30 1490 C 150.218 1.74379 1.55288 0
M  V30 1491 C 151.199 0.593236 1.5942 0
M  V30 1492 O 152.384 0.834625 1.7535 0
M  V30 1493 C 149.514 1.85728 2.93466 0
M  V30 1494 C 148.468 3.01078 3.04197 0
M  V30 1495 C 147.794 2.97595 4.44231 0
M  V30 1496 C 149.094 4.41254 2.7945 0
M  V30 1497 H 150.788 2.66725 1.36008 0
M  V30 1498 H 148.334 1.2835 0.652864 0
M  V30 1499 H 150.287 2.0064 3.70569 0
M  V30 1500 H 149.011 0.900207 3.13949 0
M  V30 1501 H 147.67 2.85851 2.29531 0
M  V30 1502 H 147.318 1.99691 4.61663 0
M  V30 1503 H 147.018 3.75046 4.52343 0
M  V30 1504 H 148.542 3.14583 5.23326 0
M  V30 1505 H 149.956 4.56897 3.46292 0
M  V30 1506 H 148.353 5.20315 2.98985 0
M  V30 1507 H 149.423 4.52164 1.75144 0
M  V30 1508 N 150.766 -0.704594 1.40972 0
M  V30 1509 C 151.729 -1.80035 1.41845 0
M  V30 1510 C 152.729 -1.57774 0.310474 0
M  V30 1511 O 153.919 -1.64613 0.56992 0
M  V30 1512 C 151.051 -3.18284 1.22098 0
M  V30 1513 H 152.244 -1.80658 2.3938 0
M  V30 1514 H 149.797 -0.911329 1.26982 0
M  V30 1515 H 150.532 -3.23306 0.253672 0
M  V30 1516 H 150.317 -3.35843 2.02366 0
M  V30 1517 H 151.807 -3.98289 1.25522 0
M  V30 1518 N 152.244 -1.26651 -0.937939 0
M  V30 1519 C 153.655 -1.1125 -1.49934 0
M  V30 1520 C 154.006 0.306077 -1.93798 0
M  V30 1521 O 153.131 1.19792 -1.80219 0
M  V30 1522 C 153.726 -2.01339 -2.72485 0
M  V30 1523 C 152.285 -1.90074 -3.24883 0
M  V30 1524 C 151.432 -1.94498 -1.97651 0
M  V30 1525 H 154.383 -1.39693 -0.753091 0
M  V30 1526 H 154.404 -1.56319 -3.46907 0
M  V30 1527 H 153.916 -3.04577 -2.40529 0
M  V30 1528 H 152.017 -0.897827 -3.61621 0
M  V30 1529 H 152.13 -2.75778 -3.9177 0
M  V30 1530 H 150.494 -1.38591 -2.13693 0
M  V30 1531 H 151.277 -2.99372 -1.68022 0
M  V30 1532 N 153.722 1.14298 -1.08507 0
M  V30 1533 C 155.138 1.37347 -0.812901 0
M  V30 1534 C 155.338 1.93052 0.577325 0
M  V30 1535 O 154.394 2.14389 1.33393 0
M  V30 1536 C 155.707 2.33359 -1.89642 0
M  V30 1537 C 157.255 2.46996 -1.92255 0
M  V30 1538 C 157.73 3.46309 -2.99724 0
M  V30 1539 N 159.221 3.53853 -2.98902 0
M  V30 1540 C 159.956 4.3055 -3.787 0
M  V30 1541 N 159.452 5.10482 -4.6838 0
M  V30 1542 N 161.245 4.25757 -3.66998 0
M  V30 1543 H 153.396 0.764867 -1.9815 0
M  V30 1544 H 155.659 0.398966 -0.859959 0
M  V30 1545 H 155.365 1.99565 -2.89597 0
M  V30 1546 H 155.239 3.33274 -1.76659 0
M  V30 1547 H 157.626 2.80081 -0.929445 0
M  V30 1548 H 157.707 1.47039 -2.09316 0
M  V30 1549 H 157.351 3.13957 -3.99241 0
M  V30 1550 H 157.281 4.46049 -2.79907 0
M  V30 1551 H 159.772 2.96812 -2.33904 0
M  V30 1552 H 160.085 5.66284 -5.25873 0
M  V30 1553 H 158.43 5.09747 -4.72422 0
M  V30 1554 H 161.621 3.62383 -2.96304 0
M  V30 1555 H 161.794 4.85279 -4.29427 0
M  V30 1556 N 155.201 0.870884 1.31352 0
M  V30 1557 C 156.478 0.402907 1.91405 0
M  V30 1558 C 156.858 -1.11512 1.79244 0
M  V30 1559 O 156.206 -1.94411 1.2007 0
M  V30 1560 C 156.416 0.885301 3.37585 0
M  V30 1561 C 157.764 0.911971 4.14691 0
M  V30 1562 O 158.788 0.831016 3.46371 0
M  V30 1563 O 157.647 1.02927 5.3672 0
M  V30 1564 H 154.741 0.120698 0.818145 0
M  V30 1565 H 157.287 0.958857 1.40014 0
M  V30 1566 H 156.059 1.92889 3.40455 0
M  V30 1567 H 155.682 0.307714 3.96407 0
M  V30 1568 N 156.679 -1.44442 0.630414 0
M  V30 1569 C 157.925 -2.02351 0.134816 0
M  V30 1570 C 158.258 -1.4947 -1.23986 0
M  V30 1571 O 157.533 -0.678475 -1.82283 0
M  V30 1572 C 157.816 -3.59898 0.120707 0
M  V30 1573 C 157.669 -4.23063 1.52767 0
M  V30 1574 C 158.988 -4.36585 -0.555127 0
M  V30 1575 H 156.107 -0.73527 0.0504646 0
M  V30 1576 H 158.749 -1.72022 0.806751 0
M  V30 1577 H 156.899 -3.85868 -0.451477 0
M  V30 1578 H 158.571 -4.08202 2.14869 0
M  V30 1579 H 156.814 -3.80586 2.08175 0
M  V30 1580 H 157.485 -5.32071 1.46984 0
M  V30 1581 H 159.961 -4.16044 -0.0685429 0
M  V30 1582 H 158.837 -5.46294 -0.534185 0
M  V30 1583 H 159.098 -4.11138 -1.62535 0
M  V30 1584 N 158.157 -0.370918 -1.53173 0
M  V30 1585 C 159.406 0.218249 -2.00516 0
M  V30 1586 C 159.719 1.49429 -1.26215 0
M  V30 1587 O 160.925 2.16239 -1.64174 0
M  V30 1588 C 159.381 0.43948 -3.57207 0
M  V30 1589 C 158.989 -0.822244 -4.4039 0
M  V30 1590 C 160.733 0.986012 -4.1289 0
M  V30 1591 C 158.64 -0.570304 -5.88644 0
M  V30 1592 H 157.57 0.0853333 -0.749156 0
M  V30 1593 H 160.221 -0.490483 -1.76823 0
M  V30 1594 H 158.603 1.20961 -3.77074 0
M  V30 1595 H 159.777 -1.59557 -4.32294 0
M  V30 1596 H 158.092 -1.29238 -3.95836 0
M  V30 1597 H 160.689 1.18991 -5.21292 0
M  V30 1598 H 161.032 1.94972 -3.6782 0
M  V30 1599 H 161.565 0.27592 -3.96842 0
M  V30 1600 H 158.304 -1.50449 -6.38001 0
M  V30 1601 H 157.824 0.164427 -5.99575 0
M  V30 1602 H 159.503 -0.19784 -6.46697 0
M  V30 1603 N 159.635 1.57281 -0.100228 0
M  V30 1604 C 160.598 2.13158 0.842398 0
M  V30 1605 C 161.598 1.06202 1.20738 0
M  V30 1606 O 162.788 1.32066 1.13597 0
M  V30 1607 C 159.92 2.65639 2.13655 0
M  V30 1608 H 161.113 2.97766 0.357114 0
M  V30 1609 H 158.666 1.5559 0.148823 0
M  V30 1610 H 159.401 1.84566 2.66657 0
M  V30 1611 H 159.186 3.43844 1.88451 0
M  V30 1612 H 160.676 3.08846 2.81077 0
M  V30 1613 N 161.113 -0.173488 1.56642 0
M  V30 1614 C 162.043 -1.2171 1.99271 0
M  V30 1615 C 163.024 -1.46289 0.867959 0
M  V30 1616 O 164.209 -1.5766 1.13388 0
M  V30 1617 C 161.339 -2.55651 2.35074 0
M  V30 1618 C 160.293 -2.45645 3.50489 0
M  V30 1619 C 159.619 -3.84056 3.72028 0
M  V30 1620 C 160.919 -1.96302 4.84007 0
M  V30 1621 H 162.613 -0.86275 2.867 0
M  V30 1622 H 160.159 -0.413571 1.37933 0
M  V30 1623 H 162.112 -3.2886 2.63494 0
M  V30 1624 H 160.836 -2.92869 1.44552 0
M  V30 1625 H 159.495 -1.7489 3.22194 0
M  V30 1626 H 159.143 -4.18664 2.788 0
M  V30 1627 H 158.843 -3.7823 4.49684 0
M  V30 1628 H 160.367 -4.58854 4.02846 0
M  V30 1629 H 161.781 -2.59284 5.11317 0
M  V30 1630 H 160.178 -2.01429 5.65284 0
M  V30 1631 H 161.248 -0.917226 4.76146 0
M  V30 1632 N 162.591 -1.51276 -0.441967 0
M  V30 1633 C 163.837 -1.63958 -1.19355 0
M  V30 1634 C 164.17 -0.352543 -1.90973 0
M  V30 1635 O 163.445 0.647627 -1.83401 0
M  V30 1636 C 163.728 -2.83979 -2.21422 0
M  V30 1637 C 163.581 -4.22646 -1.53918 0
M  V30 1638 C 164.9 -2.99521 -3.22451 0
M  V30 1639 H 162.019 -0.596709 -0.432559 0
M  V30 1640 H 164.661 -1.83748 -0.483398 0
M  V30 1641 H 162.811 -2.67237 -2.81987 0
M  V30 1642 H 164.483 -4.51045 -0.967256 0
M  V30 1643 H 162.726 -4.25558 -0.841615 0
M  V30 1644 H 163.397 -5.02609 -2.28229 0
M  V30 1645 H 165.873 -3.14944 -2.71937 0
M  V30 1646 H 164.749 -3.85072 -3.91166 0
M  V30 1647 H 165.01 -2.11391 -3.88287 0
M  V30 1648 N 164.069 0.697108 -1.41344 0
M  V30 1649 C 164.979 1.84088 -1.45427 0
M  V30 1650 C 165.995 1.70545 -0.34501 0
M  V30 1651 O 167.171 1.92488 -0.592492 0
M  V30 1652 C 164.236 3.20056 -1.33286 0
M  V30 1653 C 163.297 3.45718 -2.54514 0
M  V30 1654 C 162.53 4.75199 -2.42944 0
M  V30 1655 O 162.753 5.51579 -1.45318 0
M  V30 1656 O 161.687 5.0161 -3.32672 0
M  V30 1657 H 165.513 1.836 -2.41919 0
M  V30 1658 H 163.098 0.849966 -1.22866 0
M  V30 1659 H 164.98 4.01236 -1.28794 0
M  V30 1660 H 163.655 3.2123 -0.39909 0
M  V30 1661 H 162.562 2.64474 -2.64583 0
M  V30 1662 H 163.895 3.49356 -3.46715 0
M  V30 1663 N 165.547 1.27147 0.931209 0
M  V30 1664 C 166.775 1.16082 1.71267 0
M  V30 1665 C 167.19 -0.282772 1.8667 0
M  V30 1666 O 166.547 -1.19283 1.38122 0
M  V30 1667 C 166.598 1.8358 3.11417 0
M  V30 1668 O 166.319 3.22299 2.96741 0
M  V30 1669 C 167.82 1.78597 4.05732 0
M  V30 1670 H 165.04 0.403758 0.535929 0
M  V30 1671 H 167.584 1.67953 1.16671 0
M  V30 1672 H 165.739 1.35623 3.62885 0
M  V30 1673 H 166.153 3.55851 3.85319 0
M  V30 1674 H 167.627 2.30444 5.01597 0
M  V30 1675 H 168.104 0.754564 4.3267 0
M  V30 1676 H 168.71 2.26152 3.60188 0
M  V30 1677 N 167.025 -1.13721 1.09112 0
M  V30 1678 C 167.988 -2.17222 0.731241 0
M  V30 1679 C 168.988 -1.59035 -0.237566 0
M  V30 1680 O 170.178 -1.74192 -0.0161704 0
M  V30 1681 C 167.31 -3.40804 0.0808443 0
M  V30 1682 H 168.503 -2.50573 1.64783 0
M  V30 1683 H 166.056 -1.28493 0.889897 0
M  V30 1684 H 166.791 -3.1304 -0.847127 0
M  V30 1685 H 166.576 -3.84306 0.777896 0
M  V30 1686 H 168.066 -4.1731 -0.155657 0
M  V30 1687 N 168.503 -0.877838 -1.30888 0
M  V30 1688 C 169.919 -0.570844 -1.49042 0
M  V30 1689 C 170.119 0.893159 -1.80624 0
M  V30 1690 O 169.175 1.67485 -1.88958 0
M  V30 1691 C 170.488 -1.47784 -2.61878 0
M  V30 1692 C 172.036 -1.48071 -2.75761 0
M  V30 1693 C 172.511 -2.37347 -3.91702 0
M  V30 1694 N 174.002 -2.35271 -3.99001 0
M  V30 1695 C 174.737 -3.01063 -4.88004 0
M  V30 1696 N 174.233 -3.76055 -5.81854 0
M  V30 1697 N 176.026 -2.90332 -4.81315 0
M  V30 1698 H 168.177 -1.82502 -1.0866 0
M  V30 1699 H 170.44 -0.780797 -0.537644 0
M  V30 1700 H 170.146 -2.51993 -2.45341 0
M  V30 1701 H 170.02 -1.18215 -3.58197 0
M  V30 1702 H 172.407 -0.446166 -2.91708 0
M  V30 1703 H 172.488 -1.81668 -1.80085 0
M  V30 1704 H 172.132 -3.40883 -3.76512 0
M  V30 1705 H 172.062 -2.01071 -4.86701 0
M  V30 1706 H 174.553 -1.80768 -3.3186 0
M  V30 1707 H 174.866 -4.23366 -6.46514 0
M  V30 1708 H 173.211 -3.80163 -5.81808 0
M  V30 1709 H 176.402 -2.31278 -4.06974 0
M  V30 1710 H 176.575 -3.41885 -5.50471 0
M  V30 1711 N 169.982 1.44106 -0.638065 0
M  V30 1712 C 171.23 2.01579 -0.145043 0
M  V30 1713 C 171.551 1.50496 1.24 0
M  V30 1714 O 170.821 0.711374 1.82527 0
M  V30 1715 H 169.401 0.745282 -0.05063 0
M  V30 1716 H 172.063 1.76516 -0.826327 0
M  V30 1717 H 171.159 3.11877 -0.118039 0
M  V30 1718 N 171.46 0.379036 1.52974 0
M  V30 1719 C 172.423 -0.448865 2.24762 0
M  V30 1720 C 173.423 -0.998689 1.26027 0
M  V30 1721 O 174.613 -0.882313 1.50203 0
M  V30 1722 C 171.745 -1.62872 2.99476 0
M  V30 1723 H 172.938 0.179491 2.99362 0
M  V30 1724 H 170.491 0.13096 1.5575 0
M  V30 1725 H 171.226 -2.29479 2.29151 0
M  V30 1726 H 171.011 -1.24128 3.71934 0
M  V30 1727 H 172.501 -2.2151 3.5401 0
M  V30 1728 N 172.938 -1.57226 0.108567 0
M  V30 1729 C 174.184 -1.95121 -0.552761 0
M  V30 1730 C 174.517 -0.991345 -1.66991 0
M  V30 1731 O 173.792 -0.0267211 -1.94482 0
M  V30 1732 C 174.075 -3.43039 -1.09528 0
M  V30 1733 C 173.928 -4.49797 0.0177332 0
M  V30 1734 C 175.247 -3.92567 -1.98945 0
M  V30 1735 H 172.366 -0.709496 -0.199461 0
M  V30 1736 H 175.008 -1.89126 0.182011 0
M  V30 1737 H 173.158 -3.48279 -1.72146 0
M  V30 1738 H 174.83 -4.56661 0.652584 0
M  V30 1739 H 173.073 -4.284 0.682309 0
M  V30 1740 H 173.744 -5.50528 -0.402919 0
M  V30 1741 H 176.22 -3.89565 -1.46214 0
M  V30 1742 H 175.096 -4.96605 -2.33827 0
M  V30 1743 H 175.357 -3.32648 -2.91201 0
M  V30 1744 N 174.416 0.165178 -1.56732 0
M  V30 1745 C 175.656 0.887231 -1.8414 0
M  V30 1746 C 176.02 1.79159 -0.690353 0
M  V30 1747 O 177.221 2.55172 -0.845032 0
M  V30 1748 C 175.492 1.65674 -3.16681 0
M  V30 1749 S 177.051 2.42671 -3.6559 0
M  V30 1750 H 173.869 0.297042 -0.645978 0
M  V30 1751 H 176.471 0.148439 -1.94936 0
M  V30 1752 H 175.175 0.983507 -3.98441 0
M  V30 1753 H 174.706 2.43679 -3.08843 0
M  V30 1754 H 176.721 3.67499 -3.33406 0
M  V30 1755 N 175.894 1.51508 0.433938 0
M  V30 1756 C 176.857 1.72473 1.50949 0
M  V30 1757 C 177.857 0.594725 1.49398 0
M  V30 1758 O 179.047 0.862315 1.5136 0
M  V30 1759 C 176.179 1.78431 2.90474 0
M  V30 1760 H 177.372 2.68467 1.33662 0
M  V30 1761 H 174.925 1.41549 0.662836 0
M  V30 1762 H 175.66 0.842645 3.13161 0
M  V30 1763 H 175.445 2.60558 2.93005 0
M  V30 1764 H 176.935 1.96479 3.68491 0
M  V30 1765 N 177.372 -0.689602 1.41712 0
M  V30 1766 C 178.335 -1.78521 1.43746 0
M  V30 1767 C 179.335 -1.57436 0.327191 0
M  V30 1768 O 180.525 -1.64 0.587348 0
M  V30 1769 C 177.657 -3.16971 1.25467 0
M  V30 1770 H 178.85 -1.78108 2.41283 0
M  V30 1771 H 176.403 -0.89781 1.27942 0
M  V30 1772 H 177.138 -3.23019 0.287948 0
M  V30 1773 H 176.923 -3.33678 2.05917 0
M  V30 1774 H 178.413 -3.96935 1.2974 0
M  V30 1775 N 178.85 -1.27639 -0.924453 0
M  V30 1776 C 179.76 -1.12466 -2.05885 0
M  V30 1777 C 180.776 -0.053869 -1.73917 0
M  V30 1778 O 181.952 -0.261012 -1.99702 0
M  V30 1779 C 179.017 -0.776768 -3.37886 0
M  V30 1780 C 178.078 -1.92878 -3.83532 0
M  V30 1781 C 177.311 -1.59739 -5.09234 0
M  V30 1782 O 177.534 -0.506782 -5.68144 0
M  V30 1783 O 176.468 -2.43761 -5.50331 0
M  V30 1784 H 180.294 -2.07671 -2.21599 0
M  V30 1785 H 177.879 -1.06857 -1.04413 0
M  V30 1786 H 179.761 -0.596229 -4.17161 0
M  V30 1787 H 178.436 0.145732 -3.23372 0
M  V30 1788 H 177.343 -2.1644 -3.0513 0
M  V30 1789 H 178.676 -2.8316 -4.02593 0
M  V30 1790 N 180.328 1.1314 -1.09713 0
M  V30 1791 C 181.577 1.83838 -0.829851 0
M  V30 1792 C 181.89 1.84599 0.646728 0
M  V30 1793 O 183.096 2.51218 1.02965 0
M  V30 1794 C 181.552 3.30069 -1.43466 0
M  V30 1795 C 181.16 3.37688 -2.94399 0
M  V30 1796 C 182.904 4.05788 -1.24645 0
M  V30 1797 C 180.811 4.78209 -3.47952 0
M  V30 1798 H 179.741 0.68877 -0.306777 0
M  V30 1799 H 182.392 1.27448 -1.3202 0
M  V30 1800 H 180.774 3.8628 -0.871996 0
M  V30 1801 H 181.948 2.91456 -3.56918 0
M  V30 1802 H 180.263 2.75436 -3.12289 0
M  V30 1803 H 182.86 5.09535 -1.62107 0
M  V30 1804 H 183.203 4.15878 -0.187357 0
M  V30 1805 H 183.736 3.55915 -1.77678 0
M  V30 1806 H 180.475 4.73311 -4.53495 0
M  V30 1807 H 179.995 5.24924 -2.90198 0
M  V30 1808 H 181.674 5.47133 -3.45332 0
M  V30 1809 N 181.806 0.884767 1.30421 0
M  V30 1810 C 182.769 0.356277 2.26414 0
M  V30 1811 C 183.769 -0.501124 1.52792 0
M  V30 1812 O 184.959 -0.30831 1.7145 0
M  V30 1813 C 182.091 -0.492316 3.37326 0
M  V30 1814 H 183.284 1.20389 2.74675 0
M  V30 1815 H 180.837 0.661607 1.41607 0
M  V30 1816 H 181.572 -1.36052 2.94381 0
M  V30 1817 H 181.357 0.121832 3.91911 0
M  V30 1818 H 182.847 -0.853871 4.08777 0
M  V30 1819 N 183.284 -1.43765 0.645699 0
M  V30 1820 C 184.247 -2.29163 -0.0409488 0
M  V30 1821 C 185.247 -1.41813 -0.757996 0
M  V30 1822 O 186.437 -1.63527 -0.600382 0
M  V30 1823 C 183.569 -3.23716 -1.06869 0
M  V30 1824 H 184.762 -2.91366 0.710345 0
M  V30 1825 H 182.315 -1.5092 0.406547 0
M  V30 1826 H 183.05 -2.66393 -1.84947 0
M  V30 1827 H 182.835 -3.88105 -0.558277 0
M  V30 1828 H 184.325 -3.87831 -1.54845 0
M  V30 1829 N 184.763 -0.387143 -1.52771 0
M  V30 1830 C 185.726 0.436939 -2.24997 0
M  V30 1831 C 186.726 0.991991 -1.26555 0
M  V30 1832 O 187.916 0.874335 -1.50669 0
M  V30 1833 C 185.048 1.61281 -3.00335 0
M  V30 1834 H 186.241 -0.195365 -2.99263 0
M  V30 1835 H 183.794 -0.139218 -1.55679 0
M  V30 1836 H 184.529 2.2826 -2.30364 0
M  V30 1837 H 184.314 1.22154 -3.72587 0
M  V30 1838 H 185.804 2.19629 -3.5518 0
M  V30 1839 N 186.241 1.57166 -0.116904 0
M  V30 1840 C 187.518 1.86645 0.585049 0
M  V30 1841 C 187.898 1.0177 1.84949 0
M  V30 1842 O 187.246 0.0960379 2.28298 0
M  V30 1843 C 187.456 3.37736 0.879507 0
M  V30 1844 C 188.804 4.06289 1.23348 0
M  V30 1845 O 189.828 3.42743 0.969836 0
M  V30 1846 O 188.687 5.18455 1.7282 0
M  V30 1847 H 185.781 0.772593 0.295007 0
M  V30 1848 H 188.327 1.69025 -0.151249 0
M  V30 1849 H 187.099 3.91296 -0.0166136 0
M  V30 1850 H 186.722 3.6078 1.67103 0
M  V30 1851 N 187.719 -0.156864 1.56817 0
M  V30 1852 C 189.13 -0.717916 1.72345 0
M  V30 1853 C 189.481 -1.82124 0.729747 0
M  V30 1854 O 188.606 -2.16141 -0.105781 0
M  V30 1855 C 189.201 -1.30904 3.12489 0
M  V30 1856 C 187.76 -1.81676 3.29653 0
M  V30 1857 C 186.907 -0.701349 2.68284 0
M  V30 1858 H 189.858 0.0686989 1.58551 0
M  V30 1859 H 189.879 -2.17882 3.11942 0
M  V30 1860 H 189.391 -0.505796 3.8479 0
M  V30 1861 H 187.492 -2.64598 2.62333 0
M  V30 1862 H 187.605 -1.95226 4.3752 0
M  V30 1863 H 185.969 -1.12548 2.28484 0
M  V30 1864 H 186.752 0.0902846 3.43181 0
M  V30 1865 N 189.197 -1.51736 -0.425897 0
M  V30 1866 C 190.425 -1.68794 -1.1965 0
M  V30 1867 C 190.84 -0.390164 -1.84725 0
M  V30 1868 O 190.197 0.632376 -1.71194 0
M  V30 1869 C 190.248 -2.81174 -2.27208 0
M  V30 1870 O 189.969 -4.05925 -1.64793 0
M  V30 1871 C 191.47 -3.09599 -3.17275 0
M  V30 1872 H 188.69 -0.566128 -0.360194 0
M  V30 1873 H 191.234 -1.98211 -0.503249 0
M  V30 1874 H 189.389 -2.54324 -2.9223 0
M  V30 1875 H 189.803 -4.68423 -2.35967 0
M  V30 1876 H 191.277 -3.91786 -3.88854 0
M  V30 1877 H 191.754 -2.22468 -3.78688 0
M  V30 1878 H 192.36 -3.38151 -2.57941 0
M  V30 1879 N 190.675 0.682077 -1.42076 0
M  V30 1880 C 191.921 1.44428 -1.42367 0
M  V30 1881 C 192.254 1.94164 -0.0373056 0
M  V30 1882 O 191.529 1.70429 0.937239 0
M  V30 1883 C 191.812 2.64654 -2.44194 0
M  V30 1884 C 191.665 2.20596 -3.91991 0
M  V30 1885 C 192.984 3.66865 -2.431 0
M  V30 1886 H 190.103 0.523834 -0.518428 0
M  V30 1887 H 192.745 0.77576 -1.73442 0
M  V30 1888 H 190.895 3.2169 -2.17826 0
M  V30 1889 H 192.567 1.68783 -4.29313 0
M  V30 1890 H 190.81 1.52242 -4.06208 0
M  V30 1891 H 191.481 3.06921 -4.58807 0
M  V30 1892 H 193.957 3.19531 -2.66532 0
M  V30 1893 H 192.833 4.48577 -3.16339 0
M  V30 1894 H 193.094 4.17493 -1.45437 0
M  V30 1895 N 192.153 1.28127 0.917671 0
M  V30 1896 C 193.401 1.14825 1.66312 0
M  V30 1897 C 193.722 -0.304379 1.9261 0
M  V30 1898 O 192.992 -1.21149 1.53947 0
M  V30 1899 H 191.572 0.421953 0.616413 0
M  V30 1900 H 194.234 1.608 1.10134 0
M  V30 1901 H 193.33 1.68489 2.62712 0
M  V30 1902 N 193.631 -1.12557 1.10312 0
M  V30 1903 C 194.564 -2.1737 0.694674 0
M  V30 1904 C 195.542 -1.59745 -0.303373 0
M  V30 1905 O 196.726 -1.87408 -0.202578 0
M  V30 1906 C 193.853 -3.38691 0.0248052 0
M  V30 1907 C 192.899 -4.14943 0.986121 0
M  V30 1908 S 193.732 -4.73413 2.50281 0
M  V30 1909 C 194.888 -5.9807 1.84562 0
M  V30 1910 H 195.121 -2.5168 1.58255 0
M  V30 1911 H 192.654 -1.23998 0.919992 0
M  V30 1912 H 194.612 -4.08959 -0.355361 0
M  V30 1913 H 193.273 -3.02664 -0.839851 0
M  V30 1914 H 192.466 -5.01854 0.464651 0
M  V30 1915 H 192.068 -3.50377 1.30813 0
M  V30 1916 H 194.36 -6.67232 1.17507 0
M  V30 1917 H 195.303 -6.54841 2.69423 0
M  V30 1918 H 195.711 -5.49073 1.31069 0
M  V30 1919 N 195.109 -0.891671 -1.2995 0
M  V30 1920 C 196.042 -0.307994 -2.26112 0
M  V30 1921 C 197.02 0.575262 -1.52084 0
M  V30 1922 O 198.204 0.523864 -1.81074 0
M  V30 1923 C 195.331 0.561734 -3.34009 0
M  V30 1924 C 194.377 -0.253107 -4.25748 0
M  V30 1925 S 195.21 -1.64572 -5.09584 0
M  V30 1926 C 196.366 -0.782699 -6.20987 0
M  V30 1927 H 196.599 -1.12309 -2.75271 0
M  V30 1928 H 194.132 -0.691509 -1.38049 0
M  V30 1929 H 196.09 1.05777 -3.96638 0
M  V30 1930 H 194.751 1.35099 -2.83561 0
M  V30 1931 H 193.944 0.410908 -5.02322 0
M  V30 1932 H 193.546 -0.682004 -3.67729 0
M  V30 1933 H 195.838 -0.00257476 -6.775 0
M  V30 1934 H 196.781 -1.52026 -6.91588 0
M  V30 1935 H 197.189 -0.340638 -5.63471 0
M  V30 1936 N 196.587 1.43421 -0.653314 0
M  V30 1937 C 197.833 2.02641 -0.175593 0
M  V30 1938 C 198.188 1.5062 1.19713 0
M  V30 1939 O 197.481 0.689697 1.78756 0
M  V30 1940 C 197.675 3.57176 -0.126623 0
M  V30 1941 C 197.504 4.24191 -1.49306 0
M  V30 1942 C 196.274 4.60257 -2.08547 0
M  V30 1943 C 198.472 4.53193 -2.43148 0
M  V30 1944 N 196.454 5.12345 -3.38194 0
M  V30 1945 C 197.825 5.06601 -3.57429 0
M  V30 1946 C 199.88 4.35161 -2.41949 0
M  V30 1947 C 198.583 5.43875 -4.70736 0
M  V30 1948 C 200.609 4.73498 -3.54336 0
M  V30 1949 C 199.971 5.27039 -4.67343 0
M  V30 1950 H 196.07 0.77441 -0.108686 0
M  V30 1951 H 198.654 1.74596 -0.861638 0
M  V30 1952 H 196.825 3.84784 0.528766 0
M  V30 1953 H 198.557 4.03078 0.36198 0
M  V30 1954 H 195.312 4.45302 -1.61255 0
M  V30 1955 H 195.736 5.42842 -4.04538 0
M  V30 1956 H 200.378 3.9304 -1.55818 0
M  V30 1957 H 198.096 5.8494 -5.57558 0
M  V30 1958 H 201.682 4.61241 -3.5461 0
M  V30 1959 H 200.562 5.56153 -5.52868 0
M  V30 1960 N 198.065 0.39524 1.52563 0
M  V30 1961 C 199.313 -0.184678 2.01254 0
M  V30 1962 C 199.634 -1.46822 1.28329 0
M  V30 1963 O 198.904 -1.91666 0.405094 0
M  V30 1964 H 197.484 -0.0712355 0.743596 0
M  V30 1965 H 200.146 0.528293 1.87603 0
M  V30 1966 H 199.242 -0.390681 3.09645 0
M  V30 1967 N 199.544 -1.57102 0.125237 0
M  V30 1968 C 200.507 -2.14471 -0.80838 0
M  V30 1969 C 201.507 -1.0811 -1.19033 0
M  V30 1970 O 202.697 -1.33856 -1.11482 0
M  V30 1971 C 199.829 -2.69005 -2.09402 0
M  V30 1972 H 201.022 -2.98297 -0.309696 0
M  V30 1973 H 198.575 -1.55807 -0.124051 0
M  V30 1974 H 199.31 -1.88785 -2.63687 0
M  V30 1975 H 199.095 -3.46799 -1.82957 0
M  V30 1976 H 200.585 -3.13278 -2.76128 0
M  V30 1977 N 201.022 0.148545 -1.56898 0
M  V30 1978 C 201.932 1.20293 -2.01412 0
M  V30 1979 C 202.948 1.47107 -0.929273 0
M  V30 1980 O 204.124 1.58807 -1.23863 0
M  V30 1981 C 201.189 2.51682 -2.38447 0
M  V30 1982 C 200.25 2.32529 -3.60872 0
M  V30 1983 C 199.483 3.57653 -3.96132 0
M  V30 1984 O 199.706 4.63771 -3.32073 0
M  V30 1985 O 198.64 3.50408 -4.89385 0
M  V30 1986 H 202.466 0.855025 -2.91416 0
M  V30 1987 H 200.051 0.357151 -1.45068 0
M  V30 1988 H 201.933 3.29147 -2.63135 0
M  V30 1989 H 200.608 2.86006 -1.51599 0
M  V30 1990 H 199.515 1.53019 -3.41373 0
M  V30 1991 H 200.848 2.03121 -4.48333 0
M  V30 1992 N 202.5 1.5196 0.417844 0
M  V30 1993 C 203.777 1.56146 1.17803 0
M  V30 1994 C 204.157 0.337275 2.08388 0
M  V30 1995 O 203.505 -0.676447 2.18258 0
M  V30 1996 C 203.715 2.88566 1.96293 0
M  V30 1997 C 205.063 3.41244 2.52662 0
M  V30 1998 O 206.087 2.90247 2.06483 0
M  V30 1999 O 204.946 4.30273 3.36938 0
M  V30 2000 H 202.04 0.628598 0.537395 0
M  V30 2001 H 204.586 1.64283 0.425331 0
M  V30 2002 H 203.358 3.69116 1.2988 0
M  V30 2003 H 202.981 2.83681 2.78587 0
M  V30 2004 N 203.978 -0.674533 1.42435 0
M  V30 2005 C 204.908 -1.80009 1.48724 0
M  V30 2006 C 205.889 -1.6659 0.343793 0
M  V30 2007 O 207.074 -1.86007 0.558137 0
M  V30 2008 C 204.204 -3.18306 1.38919 0
M  V30 2009 C 203.158 -3.46461 2.51294 0
M  V30 2010 C 202.484 -4.84335 2.26547 0
M  V30 2011 C 203.784 -3.43328 3.93603 0
M  V30 2012 H 205.478 -1.75004 2.42928 0
M  V30 2013 H 203.024 -0.840533 1.16923 0
M  V30 2014 H 204.977 -3.9678 1.41927 0
M  V30 2015 H 203.701 -3.2399 0.412094 0
M  V30 2016 H 202.36 -2.70348 2.47604 0
M  V30 2017 H 202.008 -4.86669 1.2713 0
M  V30 2018 H 201.708 -5.04136 3.01861 0
M  V30 2019 H 203.232 -5.65094 2.31304 0
M  V30 2020 H 204.646 -4.11772 3.98894 0
M  V30 2021 H 203.043 -3.74664 4.68771 0
M  V30 2022 H 204.113 -2.41897 4.20255 0
M  V30 2023 N 205.456 -1.28612 -0.910864 0
M  V30 2024 C 206.705 -1.15311 -1.65488 0
M  V30 2025 C 207.018 0.296999 -1.93332 0
M  V30 2026 O 208.224 0.551168 -2.65847 0
M  V30 2027 C 206.68 -2.01599 -2.98137 0
M  V30 2028 C 206.288 -3.51367 -2.7793 0
M  V30 2029 C 208.032 -1.96993 -3.76024 0
M  V30 2030 C 205.939 -4.29797 -4.06237 0
M  V30 2031 H 204.869 -0.42796 -0.620779 0
M  V30 2032 H 207.52 -1.53166 -1.01057 0
M  V30 2033 H 205.902 -1.56603 -3.63719 0
M  V30 2034 H 207.076 -4.0434 -2.21011 0
M  V30 2035 H 205.391 -3.57529 -2.13452 0
M  V30 2036 H 207.988 -2.52856 -4.71135 0
M  V30 2037 H 208.331 -0.94733 -4.05378 0
M  V30 2038 H 208.864 -2.39973 -3.17266 0
M  V30 2039 H 205.603 -5.32648 -3.82055 0
M  V30 2040 H 205.123 -3.81596 -4.62757 0
M  V30 2041 H 206.802 -4.39869 -4.74473 0
M  V30 2042 N 206.934 1.1197 -1.10907 0
M  V30 2043 C 207.897 2.16031 -0.765707 0
M  V30 2044 C 208.897 1.59393 0.212235 0
M  V30 2045 O 210.087 1.74196 -0.0115441 0
M  V30 2046 C 207.219 3.40632 -0.135053 0
M  V30 2047 H 208.412 2.47919 -1.68748 0
M  V30 2048 H 205.965 1.27061 -0.910226 0
M  V30 2049 H 206.7 3.14348 0.797218 0
M  V30 2050 H 206.485 3.8302 -0.838937 0
M  V30 2051 H 207.975 4.17505 0.0892469 0
M  V30 2052 N 208.412 0.89855 1.29475 0
M  V30 2053 C 209.64 0.539261 1.99749 0
M  V30 2054 C 210.055 -0.875716 1.67262 0
M  V30 2055 O 209.412 -1.57786 0.917049 0
M  V30 2056 C 209.463 0.72061 3.54245 0
M  V30 2057 O 209.184 2.07989 3.8558 0
M  V30 2058 C 210.685 0.366118 4.41786 0
M  V30 2059 H 207.905 0.207047 0.638258 0
M  V30 2060 H 210.449 1.20758 1.65039 0
M  V30 2061 H 208.604 0.0994862 3.87272 0
M  V30 2062 H 209.018 2.10841 4.80257 0
M  V30 2063 H 210.492 0.543848 5.49314 0
M  V30 2064 H 210.969 -0.696763 4.33638 0
M  V30 2065 H 211.575 0.964135 4.14228 0
M  V30 2066 N 209.89 -1.43072 0.660911 0
M  V30 2067 C 210.82 -2.33497 -0.0122829 0
M  V30 2068 C 211.801 -1.49903 -0.803925 0
M  V30 2069 O 212.986 -1.78546 -0.763864 0
M  V30 2070 C 210.116 -3.33363 -0.973994 0
M  V30 2071 C 209.07 -4.27003 -0.291928 0
M  V30 2072 C 208.396 -5.16967 -1.36562 0
M  V30 2073 C 209.696 -5.15816 0.820462 0
M  V30 2074 H 211.39 -2.90038 0.742873 0
M  V30 2075 H 208.936 -1.39461 0.358688 0
M  V30 2076 H 210.889 -3.95524 -1.45392 0
M  V30 2077 H 209.613 -2.75095 -1.7604 0
M  V30 2078 H 208.272 -3.66217 0.167623 0
M  V30 2079 H 207.92 -4.55034 -2.14366 0
M  V30 2080 H 207.62 -5.80441 -0.914454 0
M  V30 2081 H 209.144 -5.82003 -1.84675 0
M  V30 2082 H 210.558 -5.71742 0.422366 0
M  V30 2083 H 208.955 -5.8805 1.19656 0
M  V30 2084 H 210.025 -4.55045 1.67518 0
M  V30 2085 N 211.368 -0.403325 -1.52352 0
M  V30 2086 C 212.616 0.174003 -2.0135 0
M  V30 2087 C 212.937 1.46139 -1.29106 0
M  V30 2088 O 212.207 1.91448 -0.415253 0
M  V30 2089 H 210.787 0.0672911 -0.743963 0
M  V30 2090 H 213.449 -0.538235 -1.87321 0
M  V30 2091 H 212.545 0.374254 -3.09848 0
M  V30 2092 N 212.846 1.57033 -0.133567 0
M  V30 2093 C 214.094 1.953 0.519848 0
M  V30 2094 C 214.415 1.01866 1.66278 0
M  V30 2095 O 213.685 0.0776513 1.95746 0
M  V30 2096 H 212.265 0.721091 0.195032 0
M  V30 2097 H 214.927 1.93809 -0.205921 0
M  V30 2098 H 214.023 2.98695 0.904854 0
M  V30 2099 N 214.325 -0.140222 1.56975 0
M  V30 2100 C 215.55 -0.870414 1.88251 0
M  V30 2101 C 215.975 -1.73637 0.723312 0
M  V30 2102 O 215.333 -1.78329 -0.32689 0
M  V30 2103 C 215.381 -1.69737 3.18154 0
M  V30 2104 O 214.485 -2.80229 3.02565 0
M  V30 2105 H 213.826 -0.242025 0.61832 0
M  V30 2106 H 216.356 -0.128999 2.04193 0
M  V30 2107 H 216.366 -2.09099 3.50345 0
M  V30 2108 H 215.041 -1.06152 4.02125 0
M  V30 2109 H 213.618 -2.44224 2.81796 0
M  V30 2110 N 215.803 -1.52179 -0.40978 0
M  V30 2111 C 217.028 -1.70347 -1.18308 0
M  V30 2112 C 217.453 -0.411887 -1.83535 0
M  V30 2113 O 216.811 0.630587 -1.6998 0
M  V30 2114 C 216.859 -2.83977 -2.22238 0
M  V30 2115 O 215.963 -2.495 -3.28365 0
M  V30 2116 H 215.304 -0.567103 -0.345384 0
M  V30 2117 H 217.834 -1.98879 -0.480445 0
M  V30 2118 H 217.844 -3.0887 -2.66577 0
M  V30 2119 H 216.519 -3.77685 -1.74146 0
M  V30 2120 H 215.096 -2.35277 -2.89308 0
M  V30 2121 N 217.281 0.66697 -1.42791 0
M  V30 2122 C 218.506 1.46004 -1.47301 0
M  V30 2123 C 218.931 1.87894 -0.0880317 0
M  V30 2124 O 218.289 1.56502 0.915253 0
M  V30 2125 C 218.337 2.68031 -2.41229 0
M  V30 2126 O 217.441 3.6659 -1.88906 0
M  V30 2127 H 216.782 0.43832 -0.49877 0
M  V30 2128 H 219.312 0.817391 -1.87563 0
M  V30 2129 H 219.322 3.1601 -2.58073 0
M  V30 2130 H 217.997 2.36883 -3.41847 0
M  V30 2131 H 216.574 3.25661 -1.81656 0
M  V30 2132 N 218.759 1.29093 0.90403 0
M  V30 2133 C 220.175 1.07011 1.1841 0
M  V30 2134 C 220.375 -0.181358 2.00682 0
M  V30 2135 O 219.431 -0.880331 2.36657 0
M  V30 2136 C 220.744 2.32311 1.90924 0
M  V30 2137 C 222.292 2.37587 2.03768 0
M  V30 2138 C 222.767 3.62679 2.79693 0
M  V30 2139 N 224.258 3.63376 2.87249 0
M  V30 2140 C 224.993 4.56848 3.46522 0
M  V30 2141 N 224.489 5.60648 4.06996 0
M  V30 2142 N 226.282 4.44426 3.44154 0
M  V30 2143 H 218.433 2.09412 0.354993 0
M  V30 2144 H 220.696 0.922181 0.219742 0
M  V30 2145 H 220.402 3.23536 1.37905 0
M  V30 2146 H 220.276 2.39483 2.91424 0
M  V30 2147 H 222.663 1.46853 2.55965 0
M  V30 2148 H 222.744 2.34403 1.02415 0
M  V30 2149 H 222.388 4.53762 2.28173 0
M  V30 2150 H 222.318 3.63119 3.81381 0
M  V30 2151 H 224.809 2.88321 2.44293 0
M  V30 2152 H 225.122 6.28101 4.50232 0
M  V30 2153 H 223.467 5.64463 4.05471 0
M  V30 2154 H 226.658 3.62529 2.96126 0
M  V30 2155 H 226.831 5.17457 3.90054 0
M  V30 2156 N 220.237 -1.11381 1.11499 0
M  V30 2157 C 221.653 -1.35143 0.849031 0
M  V30 2158 C 221.853 -1.94515 -0.525938 0
M  V30 2159 O 220.909 -2.1785 -1.27662 0
M  V30 2160 C 222.222 -2.28249 1.95762 0
M  V30 2161 C 223.77 -2.41812 1.98736 0
M  V30 2162 C 224.245 -3.3824 3.088 0
M  V30 2163 N 225.736 -3.45803 3.08179 0
M  V30 2164 C 226.471 -4.20358 3.89982 0
M  V30 2165 N 225.967 -4.97884 4.8175 0
M  V30 2166 N 227.76 -4.15877 3.78157 0
M  V30 2167 H 219.911 -0.712062 2.00109 0
M  V30 2168 H 222.174 -0.376025 0.870235 0
M  V30 2169 H 221.88 -1.91817 2.94787 0
M  V30 2170 H 221.754 -3.28473 1.85433 0
M  V30 2171 H 224.141 -2.77518 1.00338 0
M  V30 2172 H 224.222 -1.41437 2.13141 0
M  V30 2173 H 223.866 -3.03261 4.07425 0
M  V30 2174 H 223.796 -4.38471 2.91635 0
M  V30 2175 H 226.287 -2.90506 2.41691 0
M  V30 2176 H 226.6 -5.52142 5.40702 0
M  V30 2177 H 224.945 -4.97043 4.85771 0
M  V30 2178 H 228.136 -3.544 3.05808 0
M  V30 2179 H 228.309 -4.73723 4.42143 0
M  V30 2180 N 221.715 -0.905404 -1.28997 0
M  V30 2181 C 222.678 -0.392253 -2.25819 0
M  V30 2182 C 223.678 0.476753 -1.5357 0
M  V30 2183 O 224.868 0.280994 -1.71919 0
M  V30 2184 C 222 0.438588 -3.38067 0
M  V30 2185 H 223.193 -1.24743 -2.72725 0
M  V30 2186 H 220.746 -0.684051 -1.40536 0
M  V30 2187 H 221.481 1.31352 -2.96508 0
M  V30 2188 H 221.266 -0.184167 -3.91667 0
M  V30 2189 H 222.756 0.78873 -4.10084 0
M  V30 2190 N 223.193 1.4272 -0.668489 0
M  V30 2191 C 224.47 1.95248 -0.117373 0
M  V30 2192 C 224.85 1.60919 1.36632 0
M  V30 2193 O 224.198 0.902095 2.09939 0
M  V30 2194 C 224.408 3.46927 -0.379806 0
M  V30 2195 C 225.756 4.23588 -0.292923 0
M  V30 2196 O 226.78 3.5482 -0.313204 0
M  V30 2197 O 225.639 5.46017 -0.229697 0
M  V30 2198 H 222.733 0.827 0.00079152 0
M  V30 2199 H 225.279 1.52581 -0.742783 0
M  V30 2200 H 224.051 3.65096 -1.40786 0
M  V30 2201 H 223.674 3.96627 0.277923 0
M  V30 2202 N 224.671 0.411399 1.52136 0
M  V30 2203 C 225.919 -0.163322 2.01439 0
M  V30 2204 C 226.24 -1.45453 1.29879 0
M  V30 2205 O 225.51 -1.91225 0.4254 0
M  V30 2206 H 224.09 -0.0633447 0.744309 0
M  V30 2207 H 226.752 0.548161 1.87033 0
M  V30 2208 H 225.848 -0.357817 3.10042 0
M  V30 2209 N 226.149 -1.5696 0.141893 0
M  V30 2210 C 227.112 -2.15316 -0.785587 0
M  V30 2211 C 228.112 -1.09366 -1.1788 0
M  V30 2212 O 229.302 -1.35031 -1.10056 0
M  V30 2213 C 226.434 -2.71211 -2.06537 0
M  V30 2214 H 227.627 -2.98608 -0.278041 0
M  V30 2215 H 225.18 -1.5593 -0.107519 0
M  V30 2216 H 225.915 -1.91571 -2.6167 0
M  V30 2217 H 225.7 -3.4872 -1.79268 0
M  V30 2218 H 227.19 -3.16189 -2.72789 0
M  V30 2219 N 227.627 0.131896 -1.57047 0
M  V30 2220 C 228.857 0.855219 -1.88068 0
M  V30 2221 C 229.265 1.74557 -0.729817 0
M  V30 2222 O 228.608 1.81083 0.308962 0
M  V30 2223 C 228.67 1.75119 -3.13964 0
M  V30 2224 C 228.334 1.03646 -4.45091 0
M  V30 2225 C 229.331 0.383276 -5.18485 0
M  V30 2226 C 227.016 1.02148 -4.91804 0
M  V30 2227 C 229.01 -0.275347 -6.36805 0
M  V30 2228 C 226.697 0.359047 -6.10044 0
M  V30 2229 C 227.695 -0.288222 -6.82392 0
M  V30 2230 O 227.383 -0.94011 -7.98384 0
M  V30 2231 H 227.115 0.251864 -0.627328 0
M  V30 2232 H 229.669 0.124782 -2.05021 0
M  V30 2233 H 227.899 2.52295 -2.9306 0
M  V30 2234 H 229.588 2.3478 -3.31109 0
M  V30 2235 H 230.354 0.386562 -4.83457 0
M  V30 2236 H 226.233 1.5147 -4.35405 0
M  V30 2237 H 229.777 -0.781148 -6.93213 0
M  V30 2238 H 225.674 0.35348 -6.44531 0
M  V30 2239 H 226.442 -0.84329 -8.14144 0
M  V30 2240 N 229.106 1.52395 0.401703 0
M  V30 2241 C 230.522 1.41363 0.740864 0
M  V30 2242 C 230.722 0.523982 1.94568 0
M  V30 2243 O 229.778 -0.00741204 2.52499 0
M  V30 2244 C 231.091 2.84011 0.987847 0
M  V30 2245 C 232.639 2.93404 1.09011 0
M  V30 2246 C 233.114 4.37036 1.3698 0
M  V30 2247 N 234.605 4.40304 1.43829 0
M  V30 2248 C 235.34 5.48508 1.67112 0
M  V30 2249 N 234.836 6.66819 1.87949 0
M  V30 2250 N 236.629 5.36034 1.69187 0
M  V30 2251 H 228.78 2.08765 -0.391262 0
M  V30 2252 H 231.043 0.941265 -0.112798 0
M  V30 2253 H 230.749 3.51265 0.174835 0
M  V30 2254 H 230.623 3.25502 1.906 0
M  V30 2255 H 233.01 2.26325 1.8937 0
M  V30 2256 H 233.091 2.55359 0.15015 0
M  V30 2257 H 232.735 5.04676 0.571353 0
M  V30 2258 H 232.665 4.72623 2.3224 0
M  V30 2259 H 235.156 3.55024 1.29486 0
M  V30 2260 H 235.469 7.45063 2.05185 0
M  V30 2261 H 233.814 6.6987 1.85199 0
M  V30 2262 H 237.005 4.42579 1.52451 0
M  V30 2263 H 237.178 6.20434 1.86993 0
M  V30 2264 N 230.584 -0.659388 1.43143 0
M  V30 2265 C 231.861 -1.41627 1.34912 0
M  V30 2266 C 232.241 -2.11099 -0.00607785 0
M  V30 2267 O 231.589 -2.04353 -1.02236 0
M  V30 2268 C 231.799 -2.40604 2.52805 0
M  V30 2269 C 233.147 -3.04789 2.95616 0
M  V30 2270 O 234.171 -2.50932 2.52807 0
M  V30 2271 O 233.03 -4.02421 3.69756 0
M  V30 2272 H 230.124 -0.63246 0.532844 0
M  V30 2273 H 232.67 -0.686814 1.5518 0
M  V30 2274 H 231.442 -1.88174 3.43083 0
M  V30 2275 H 231.065 -3.21009 2.34604 0
M  V30 2276 N 232.062 -1.29571 -0.897171 0
M  V30 2277 C 233.308 -1.17863 -1.65034 0
M  V30 2278 C 233.641 0.268729 -1.92332 0
M  V30 2279 O 232.916 1.19378 -1.53555 0
M  V30 2280 C 233.199 -1.995 -2.99786 0
M  V30 2281 C 233.052 -3.5239 -2.79538 0
M  V30 2282 C 234.371 -1.82335 -4.00552 0
M  V30 2283 H 231.49 -0.429528 -0.598895 0
M  V30 2284 H 234.132 -1.59072 -1.03905 0
M  V30 2285 H 232.282 -1.64485 -3.51962 0
M  V30 2286 H 233.954 -3.97401 -2.34244 0
M  V30 2287 H 232.197 -3.77187 -2.14273 0
M  V30 2288 H 232.868 -4.04787 -3.75302 0
M  V30 2289 H 235.344 -2.12924 -3.57495 0
M  V30 2290 H 234.22 -2.41801 -4.92771 0
M  V30 2291 H 234.481 -0.779209 -4.35179 0
M  V30 2292 N 233.54 1.10788 -1.12088 0
M  V30 2293 C 234.503 2.15207 -0.788577 0
M  V30 2294 C 235.503 1.59609 0.195317 0
M  V30 2295 O 236.693 1.74174 -0.0300193 0
M  V30 2296 C 233.825 3.4047 -0.171174 0
M  V30 2297 H 235.018 2.46116 -1.71368 0
M  V30 2298 H 232.571 1.26089 -0.923652 0
M  V30 2299 H 233.306 3.15176 0.763832 0
M  V30 2300 H 233.091 3.82109 -0.879514 0
M  V30 2301 H 234.581 4.17576 0.04496 0
M  V30 2302 N 235.018 0.912232 1.28515 0
M  V30 2303 C 236.434 0.610159 1.47476 0
M  V30 2304 C 236.634 -0.844955 1.82928 0
M  V30 2305 O 235.69 -1.62416 1.93332 0
M  V30 2306 C 237.003 1.54675 2.57868 0
M  V30 2307 C 238.551 1.55331 2.71738 0
M  V30 2308 C 239.026 2.47649 3.85272 0
M  V30 2309 N 240.517 2.45767 3.92623 0
M  V30 2310 C 241.252 3.13896 4.79851 0
M  V30 2311 N 240.748 3.9135 5.71679 0
M  V30 2312 N 242.541 3.02991 4.73448 0
M  V30 2313 H 234.692 1.85318 1.03783 0
M  V30 2314 H 236.955 0.794777 0.516753 0
M  V30 2315 H 236.661 2.5841 2.38574 0
M  V30 2316 H 236.535 1.27671 3.54937 0
M  V30 2317 H 238.922 0.52335 2.90422 0
M  V30 2318 H 239.003 1.86378 1.75205 0
M  V30 2319 H 238.647 3.50745 3.67342 0
M  V30 2320 H 238.577 2.13904 4.81199 0
M  V30 2321 H 241.068 1.89503 3.26951 0
M  V30 2322 H 241.381 4.40359 6.35062 0
M  V30 2323 H 239.726 3.95455 5.71524 0
M  V30 2324 H 242.917 2.41987 4.007 0
M  V30 2325 H 243.09 3.5636 5.41213 0
M  V30 2326 N 236.496 -1.42363 0.676048 0
M  V30 2327 C 237.446 -2.27987 -0.0242903 0
M  V30 2328 C 238.43 -1.41153 -0.772319 0
M  V30 2329 O 239.622 -1.64592 -0.651025 0
M  V30 2330 C 236.751 -3.29195 -0.973953 0
M  V30 2331 C 235.837 -4.23512 -0.223202 0
M  V30 2332 N 236.228 -4.99865 0.772589 0
M  V30 2333 C 234.526 -4.43606 -0.461469 0
M  V30 2334 C 235.227 -5.68757 1.22027 0
M  V30 2335 N 234.203 -5.40811 0.549975 0
M  V30 2336 H 238.005 -2.84445 0.73949 0
M  V30 2337 H 235.519 -1.54341 0.50522 0
M  V30 2338 H 237.516 -3.89339 -1.49067 0
M  V30 2339 H 236.176 -2.74298 -1.73755 0
M  V30 2340 H 237.187 -5.04921 1.15217 0
M  V30 2341 H 233.864 -3.99749 -1.20446 0
M  V30 2342 H 235.254 -6.40007 2.0455 0
M  V30 2343 N 237.974 -0.419461 -1.51915 0
M  V30 2344 C 239.22 0.153166 -2.02221 0
M  V30 2345 C 239.553 1.43907 -1.30401 0
M  V30 2346 O 238.828 1.90055 -0.413438 0
M  V30 2347 C 239.111 0.390291 -3.57979 0
M  V30 2348 C 238.964 -0.913014 -4.40436 0
M  V30 2349 C 240.283 1.16794 -4.2432 0
M  V30 2350 H 237.402 0.0541924 -0.735005 0
M  V30 2351 H 240.044 -0.554955 -1.81715 0
M  V30 2352 H 238.194 0.993491 -3.75582 0
M  V30 2353 H 239.866 -1.54882 -4.34522 0
M  V30 2354 H 238.109 -1.52168 -4.06236 0
M  V30 2355 H 238.78 -0.701361 -5.47526 0
M  V30 2356 H 241.256 0.657161 -4.10878 0
M  V30 2357 H 240.132 1.3026 -5.3322 0
M  V30 2358 H 240.393 2.19132 -3.83971 0
M  V30 2359 N 239.452 1.56882 -0.150215 0
M  V30 2360 C 240.868 1.58263 0.20617 0
M  V30 2361 C 241.068 1.16464 1.64434 0
M  V30 2362 O 240.124 0.866422 2.3717 0
M  V30 2363 C 241.437 3.00649 -0.0555025 0
M  V30 2364 C 242.985 3.12999 0.00795388 0
M  V30 2365 C 243.46 4.5744 -0.226429 0
M  V30 2366 N 244.951 4.62875 -0.173469 0
M  V30 2367 C 245.686 5.72454 -0.329288 0
M  V30 2368 N 245.182 6.90669 -0.543005 0
M  V30 2369 N 246.975 5.61467 -0.266666 0
M  V30 2370 H 239.126 1.82345 -1.08922 0
M  V30 2371 H 241.389 0.844149 -0.431413 0
M  V30 2372 H 241.095 3.3563 -1.05096 0
M  V30 2373 H 240.969 3.71337 0.66246 0
M  V30 2374 H 243.356 2.77857 0.993966 0
M  V30 2375 H 243.437 2.4479 -0.742388 0
M  V30 2376 H 243.081 4.93287 -1.20956 0
M  V30 2377 H 243.011 5.2378 0.544274 0
M  V30 2378 H 245.502 3.77898 -0.0130709 0
M  V30 2379 H 245.815 7.70045 -0.651922 0
M  V30 2380 H 244.16 6.92581 -0.579366 0
M  V30 2381 H 247.351 4.67992 -0.100441 0
M  V30 2382 H 247.524 6.46816 -0.391535 0
M  V30 2383 N 240.93 -0.123565 1.57115 0
M  V30 2384 C 242.155 -0.850398 1.89164 0
M  V30 2385 C 242.58 -1.7286 0.741688 0
M  V30 2386 O 241.938 -1.78665 -0.307958 0
M  V30 2387 C 241.986 -1.66353 3.19936 0
M  V30 2388 O 241.09 -2.77004 3.0552 0
M  V30 2389 H 240.431 -0.235454 0.620852 0
M  V30 2390 H 242.961 -0.107335 2.04318 0
M  V30 2391 H 242.971 -2.05372 3.52543 0
M  V30 2392 H 241.646 -1.01881 4.03228 0
M  V30 2393 H 240.223 -2.41221 2.84371 0
M  V30 2394 N 242.408 -1.52605 -0.393616 0
M  V30 2395 C 243.636 -1.71294 -1.16043 0
M  V30 2396 C 244.051 -0.429259 -1.83855 0
M  V30 2397 O 243.408 0.595921 -1.72496 0
M  V30 2398 C 243.459 -2.8593 -2.21193 0
M  V30 2399 O 243.18 -4.09329 -1.56146 0
M  V30 2400 C 244.681 -3.16259 -3.10636 0
M  V30 2401 H 241.901 -0.573641 -0.348104 0
M  V30 2402 H 244.445 -1.99234 -0.461092 0
M  V30 2403 H 242.6 -2.60465 -2.86769 0
M  V30 2404 H 243.014 -4.73323 -2.25978 0
M  V30 2405 H 244.488 -3.99946 -3.80456 0
M  V30 2406 H 244.965 -2.3045 -3.73884 0
M  V30 2407 H 245.571 -3.43547 -2.50711 0
M  V30 2408 N 243.887 0.651787 -1.4349 0
M  V30 2409 C 245.136 1.40754 -1.44469 0
M  V30 2410 C 245.449 1.95463 -0.0731845 0
M  V30 2411 O 246.655 2.71471 0.0395721 0
M  V30 2412 C 245.111 2.54735 -2.5424 0
M  V30 2413 C 244.719 2.06628 -3.97504 0
M  V30 2414 C 246.463 3.32092 -2.64414 0
M  V30 2415 C 244.37 3.17829 -4.98737 0
M  V30 2416 H 243.3 0.528862 -0.53742 0
M  V30 2417 H 245.951 0.703365 -1.69485 0
M  V30 2418 H 244.333 3.2763 -2.22428 0
M  V30 2419 H 245.507 1.40734 -4.38783 0
M  V30 2420 H 243.822 1.42146 -3.91387 0
M  V30 2421 H 246.419 4.14952 -3.37223 0
M  V30 2422 H 246.762 3.80217 -1.69532 0
M  V30 2423 H 247.295 2.66279 -2.95534 0
M  V30 2424 H 244.034 2.74671 -5.95177 0
M  V30 2425 H 243.554 3.82429 -4.62069 0
M  V30 2426 H 245.233 3.82937 -5.21505 0
M  V30 2427 N 245.365 1.30045 0.890287 0
M  V30 2428 C 246.295 1.18541 2.01172 0
M  V30 2429 C 247.276 0.0773356 1.69924 0
M  V30 2430 O 248.461 0.25845 1.92473 0
M  V30 2431 C 245.591 0.870941 3.36202 0
M  V30 2432 C 244.545 1.93637 3.81692 0
M  V30 2433 C 243.871 1.475 5.13953 0
M  V30 2434 C 245.171 3.34666 4.00994 0
M  V30 2435 H 246.865 2.12359 2.11054 0
M  V30 2436 H 244.411 1.02238 1.01407 0
M  V30 2437 H 246.364 0.777141 4.14172 0
M  V30 2438 H 245.088 -0.102926 3.26438 0
M  V30 2439 H 243.747 2.01972 3.05946 0
M  V30 2440 H 243.395 0.489551 5.00612 0
M  V30 2441 H 243.095 2.1876 5.4536 0
M  V30 2442 H 244.619 1.39489 5.94454 0
M  V30 2443 H 246.033 3.2912 4.69417 0
M  V30 2444 H 244.43 4.03966 4.43769 0
M  V30 2445 H 245.5 3.76949 3.05021 0
M  V30 2446 N 246.843 -1.10192 1.12674 0
M  V30 2447 C 247.773 -2.18652 0.819362 0
M  V30 2448 C 248.754 -1.68698 -0.217915 0
M  V30 2449 O 249.939 -1.94041 -0.0785581 0
M  V30 2450 C 247.069 -3.46202 0.27594 0
M  V30 2451 C 246.023 -4.09444 1.24656 0
M  V30 2452 C 245.349 -5.31725 0.563258 0
M  V30 2453 C 246.649 -4.52863 2.60217 0
M  V30 2454 H 248.343 -2.44622 1.72628 0
M  V30 2455 H 245.889 -1.17571 0.831451 0
M  V30 2456 H 247.842 -4.21372 0.0486149 0
M  V30 2457 H 246.566 -3.1973 -0.666331 0
M  V30 2458 H 245.225 -3.36284 1.45974 0
M  V30 2459 H 244.873 -5.0153 -0.384235 0
M  V30 2460 H 244.573 -5.74991 1.21075 0
M  V30 2461 H 246.097 -6.09624 0.34503 0
M  V30 2462 H 247.511 -5.19294 2.42913 0
M  V30 2463 H 245.908 -5.06986 3.21068 0
M  V30 2464 H 246.978 -3.65656 3.18471 0
M  V30 2465 N 248.321 -0.919034 -1.28029 0
M  V30 2466 C 249.284 -0.416182 -2.2539 0
M  V30 2467 C 250.284 0.460438 -1.54067 0
M  V30 2468 O 251.474 0.262744 -1.72207 0
M  V30 2469 C 248.606 0.402707 -3.38513 0
M  V30 2470 H 249.799 -1.27629 -2.71387 0
M  V30 2471 H 247.352 -0.698919 -1.39803 0
M  V30 2472 H 248.087 1.282 -2.97885 0
M  V30 2473 H 247.872 -0.225698 -3.9145 0
M  V30 2474 H 249.362 0.745191 -4.10897 0
M  V30 2475 N 249.799 1.42003 -0.683588 0
M  V30 2476 C 250.762 2.29191 -0.0198243 0
M  V30 2477 C 251.762 1.43773 0.72013 0
M  V30 2478 O 252.952 1.65061 0.556815 0
M  V30 2479 C 250.084 3.26435 0.982487 0
M  V30 2480 H 251.277 2.8938 -0.787345 0
M  V30 2481 H 248.83 1.49789 -0.446418 0
M  V30 2482 H 249.565 2.71203 1.77819 0
M  V30 2483 H 249.35 3.89449 0.455182 0
M  V30 2484 H 250.84 3.918 1.44508 0
M  V30 2485 N 251.277 0.427512 1.51691 0
M  V30 2486 C 252.502 -0.143601 2.06902 0
M  V30 2487 C 252.927 -1.36536 1.29382 0
M  V30 2488 O 252.285 -1.78289 0.329043 0
M  V30 2489 C 252.333 -0.454207 3.57728 0
M  V30 2490 O 251.437 -1.54228 3.82475 0
M  V30 2491 H 250.778 -0.00617128 0.663971 0
M  V30 2492 H 253.308 0.606014 1.95419 0
M  V30 2493 H 253.318 -0.707525 4.01818 0
M  V30 2494 H 251.993 0.438812 4.13579 0
M  V30 2495 H 250.57 -1.2797 3.50254 0
M  V30 2496 N 252.755 -1.56801 0.158532 0
M  V30 2497 C 253.718 -2.16138 -0.762705 0
M  V30 2498 C 254.718 -1.1061 -1.16713 0
M  V30 2499 O 255.908 -1.36191 -1.08617 0
M  V30 2500 C 253.04 -2.73386 -2.03649 0
M  V30 2501 H 254.233 -2.98886 -0.246354 0
M  V30 2502 H 251.786 -1.56035 -0.0909744 0
M  V30 2503 H 252.521 -1.94335 -2.59623 0
M  V30 2504 H 252.306 -3.50601 -1.75559 0
M  V30 2505 H 253.796 -3.19065 -2.6942 0
M  V30 2506 N 254.233 0.115231 -1.57178 0
M  V30 2507 C 255.48 0.822351 -1.8505 0
M  V30 2508 C 255.808 1.79701 -0.744168 0
M  V30 2509 O 255.063 1.93909 0.26414 0
M  V30 2510 C 255.362 1.60324 -3.19423 0
M  V30 2511 C 255.028 0.772536 -4.44233 0
M  V30 2512 C 253.69 0.543468 -4.78121 0
M  V30 2513 C 256.042 0.193746 -5.2084 0
M  V30 2514 C 253.37 -0.274583 -5.86057 0
M  V30 2515 C 255.722 -0.611517 -6.29637 0
M  V30 2516 C 254.386 -0.850867 -6.62055 0
M  V30 2517 H 253.656 0.30092 -0.677147 0
M  V30 2518 H 256.303 0.0845802 -1.91313 0
M  V30 2519 H 254.608 2.41203 -3.08753 0
M  V30 2520 H 256.305 2.1544 -3.38211 0
M  V30 2521 H 252.895 0.96117 -4.17683 0
M  V30 2522 H 257.079 0.357926 -4.95008 0
M  V30 2523 H 252.335 -0.469206 -6.09597 0
M  V30 2524 H 256.509 -1.06697 -6.88178 0
M  V30 2525 H 254.136 -1.48657 -7.45523 0
M  V30 2526 N 255.711 1.52812 0.385517 0
M  V30 2527 C 256.959 1.67694 1.12797 0
M  V30 2528 C 257.28 0.421115 1.90399 0
M  V30 2529 O 256.55 -0.564551 1.87589 0
M  V30 2530 H 255.13 0.618155 0.419396 0
M  V30 2531 H 257.792 1.89938 0.436972 0
M  V30 2532 H 256.888 2.52896 1.82894 0
M  V30 2533 N 257.189 -0.644168 1.43834 0
M  V30 2534 C 258.605 -0.960875 1.27434 0
M  V30 2535 C 258.805 -2.00499 0.200618 0
M  V30 2536 O 257.861 -2.49018 -0.417906 0
M  V30 2537 C 259.174 -1.43653 2.64167 0
M  V30 2538 C 260.722 -1.55271 2.71772 0
M  V30 2539 C 261.197 -2.06224 4.08944 0
M  V30 2540 N 262.688 -2.13513 4.11055 0
M  V30 2541 C 263.423 -2.54081 5.14033 0
M  V30 2542 N 262.919 -2.9388 6.27381 0
M  V30 2543 N 264.712 -2.54101 5.01387 0
M  V30 2544 H 256.863 0.0465779 2.12349 0
M  V30 2545 H 259.126 -0.0417638 0.94708 0
M  V30 2546 H 258.832 -0.743706 3.43747 0
M  V30 2547 H 258.706 -2.40993 2.90176 0
M  V30 2548 H 261.093 -2.23653 1.92519 0
M  V30 2549 H 261.174 -0.563395 2.49519 0
M  V30 2550 H 260.818 -1.38441 4.88668 0
M  V30 2551 H 260.748 -3.06003 4.28567 0
M  V30 2552 H 263.239 -1.85493 3.29242 0
M  V30 2553 H 263.552 -3.2361 7.01781 0
M  V30 2554 H 261.897 -2.91663 6.30839 0
M  V30 2555 H 265.088 -2.22391 4.11898 0
M  V30 2556 H 265.261 -2.85394 5.81768 0
M  V30 2557 N 258.668 -1.30515 -0.883378 0
M  V30 2558 C 259.598 -1.19607 -2.00541 0
M  V30 2559 C 260.579 -0.086346 -1.69881 0
M  V30 2560 O 261.764 -0.268654 -1.92333 0
M  V30 2561 C 258.894 -0.888758 -3.35736 0
M  V30 2562 C 257.848 -1.95659 -3.8066 0
M  V30 2563 C 257.174 -1.50224 -5.13164 0
M  V30 2564 C 258.474 -3.36788 -3.99213 0
M  V30 2565 H 260.168 -2.13476 -2.09925 0
M  V30 2566 H 257.714 -1.02775 -1.00863 0
M  V30 2567 H 259.667 -0.799094 -4.13754 0
M  V30 2568 H 258.391 0.0856125 -3.26488 0
M  V30 2569 H 257.05 -2.03591 -3.04871 0
M  V30 2570 H 256.698 -0.516092 -5.00345 0
M  V30 2571 H 256.398 -2.2165 -5.44192 0
M  V30 2572 H 257.922 -1.42639 -5.93706 0
M  V30 2573 H 259.336 -3.31605 -4.67665 0
M  V30 2574 H 257.733 -4.06314 -4.41621 0
M  V30 2575 H 258.803 -3.78561 -3.03017 0
M  V30 2576 N 260.146 1.09593 -1.13257 0
M  V30 2577 C 261.109 2.14359 -0.811358 0
M  V30 2578 C 262.109 1.59808 0.178377 0
M  V30 2579 O 263.299 1.74132 -0.0484911 0
M  V30 2580 C 260.431 3.40269 -0.207276 0
M  V30 2581 H 261.624 2.44284 -1.73969 0
M  V30 2582 H 259.177 1.25102 -0.936973 0
M  V30 2583 H 259.912 3.15969 0.73036 0
M  V30 2584 H 259.697 3.81154 -0.919992 0
M  V30 2585 H 261.187 4.176 0.000667944 0
M  V30 2586 N 261.624 0.925811 1.2754 0
M  V30 2587 C 262.554 0.440748 2.29303 0
M  V30 2588 C 263.535 -0.497971 1.62648 0
M  V30 2589 O 264.72 -0.403126 1.8997 0
M  V30 2590 C 261.85 -0.309048 3.45922 0
M  V30 2591 C 260.804 0.54166 4.24559 0
M  V30 2592 C 260.13 -0.337191 5.33636 0
M  V30 2593 C 261.43 1.80516 4.90114 0
M  V30 2594 H 263.124 1.29121 2.70126 0
M  V30 2595 H 260.67 0.622323 1.29858 0
M  V30 2596 H 262.623 -0.659315 4.1621 0
M  V30 2597 H 261.347 -1.19352 3.04011 0
M  V30 2598 H 260.006 0.874609 3.56014 0
M  V30 2599 H 259.654 -1.22056 4.87966 0
M  V30 2600 H 259.354 0.228497 5.87156 0
M  V30 2601 H 260.878 -0.683072 6.06767 0
M  V30 2602 H 262.292 1.52307 5.52698 0
M  V30 2603 H 260.689 2.3142 5.53683 0
M  V30 2604 H 261.759 2.52581 4.13921 0
M  V30 2605 N 263.102 -1.41638 0.69111 0
M  V30 2606 C 264.379 -1.95036 0.148421 0
M  V30 2607 C 264.759 -1.63072 -1.34055 0
M  V30 2608 O 264.107 -0.93538 -2.08478 0
M  V30 2609 C 264.317 -3.46279 0.434951 0
M  V30 2610 C 265.665 -4.23069 0.360275 0
M  V30 2611 O 266.689 -3.54277 0.369613 0
M  V30 2612 O 265.548 -5.45583 0.316534 0
M  V30 2613 H 262.642 -0.826908 0.0123654 0
M  V30 2614 H 265.188 -1.5138 0.766963 0
M  V30 2615 H 263.96 -3.6281 1.46576 0
M  V30 2616 H 263.583 -3.97019 -0.214787 0
M  V30 2617 N 264.58 -0.43555 -1.51462 0
M  V30 2618 C 265.543 0.365137 -2.26273 0
M  V30 2619 C 266.543 0.951227 -1.29647 0
M  V30 2620 O 267.733 0.825958 -1.53374 0
M  V30 2621 C 264.865 1.51645 -3.05314 0
M  V30 2622 H 266.058 -0.290474 -2.9849 0
M  V30 2623 H 263.611 -0.188676 -1.55157 0
M  V30 2624 H 264.346 2.20816 -2.3751 0
M  V30 2625 H 264.131 1.10238 -3.76284 0
M  V30 2626 H 265.621 2.08218 -3.61987 0
M  V30 2627 N 266.058 1.56714 -0.166846 0
M  V30 2628 C 267.304 1.97039 0.479962 0
M  V30 2629 C 267.637 1.05264 1.63197 0
M  V30 2630 O 266.912 0.0988833 1.94248 0
M  V30 2631 C 267.195 3.46867 0.967212 0
M  V30 2632 C 267.048 4.49421 -0.18466 0
M  V30 2633 C 268.367 3.9968 1.84238 0
M  V30 2634 H 265.486 0.71641 0.172992 0
M  V30 2635 H 268.128 1.8832 -0.252079 0
M  V30 2636 H 266.278 3.54428 1.59101 0
M  V30 2637 H 267.95 4.53924 -0.821621 0
M  V30 2638 H 266.193 4.25573 -0.840837 0
M  V30 2639 H 266.864 5.51644 0.198317 0
M  V30 2640 H 269.34 3.94723 1.31655 0
M  V30 2641 H 268.216 5.04941 2.15234 0
M  V30 2642 H 268.477 3.43226 2.78654 0
M  V30 2643 N 267.536 -0.106894 1.57237 0
M  V30 2644 C 268.486 -1.1366 1.9765 0
M  V30 2645 C 269.47 -1.36416 0.853203 0
M  V30 2646 O 270.662 -1.37305 1.11697 0
M  V30 2647 C 267.791 -2.46 2.39455 0
M  V30 2648 C 266.877 -2.26668 3.58445 0
M  V30 2649 N 267.268 -1.77176 4.73754 0
M  V30 2650 C 265.566 -2.57279 3.64312 0
M  V30 2651 C 266.267 -1.71836 5.5574 0
M  V30 2652 N 265.243 -2.16623 4.98573 0
M  V30 2653 H 269.045 -0.74669 2.84256 0
M  V30 2654 H 266.559 -0.314483 1.59326 0
M  V30 2655 H 268.556 -3.2049 2.6663 0
M  V30 2656 H 267.216 -2.85738 1.54219 0
M  V30 2657 H 268.227 -1.46545 4.96734 0
M  V30 2658 H 264.904 -3.00622 2.89711 0
M  V30 2659 H 266.294 -1.34723 6.58255 0
M  V30 2660 N 269.014 -1.53014 -0.377408 0
M  V30 2661 C 269.944 -1.81589 -1.46791 0
M  V30 2662 C 270.925 -0.668622 -1.56408 0
M  V30 2663 O 272.11 -0.917337 -1.71168 0
M  V30 2664 C 269.24 -1.99519 -2.8427 0
M  V30 2665 C 268.194 -3.15249 -2.89486 0
M  V30 2666 C 267.52 -3.18451 -4.29527 0
M  V30 2667 C 268.82 -4.54084 -2.58079 0
M  V30 2668 H 270.514 -2.7291 -1.23127 0
M  V30 2669 H 268.06 -1.31319 -0.590883 0
M  V30 2670 H 270.013 -2.18092 -3.60575 0
M  V30 2671 H 268.737 -1.04897 -3.09296 0
M  V30 2672 H 267.396 -2.96477 -2.15631 0
M  V30 2673 H 267.044 -2.2149 -4.5161 0
M  V30 2674 H 266.744 -3.962 -4.33934 0
M  V30 2675 H 268.268 -3.39193 -5.07721 0
M  V30 2676 H 269.682 -4.72899 -3.24098 0
M  V30 2677 H 268.079 -5.33987 -2.7382 0
M  V30 2678 H 269.149 -4.60006 -1.53372 0
M  V30 2679 N 270.492 0.636531 -1.44174 0
M  V30 2680 C 271.769 1.39463 -1.37148 0
M  V30 2681 C 272.149 2.11082 -0.027507 0
M  V30 2682 O 271.497 2.05954 0.989716 0
M  V30 2683 C 271.707 2.36552 -2.56601 0
M  V30 2684 C 273.055 3.00048 -3.00427 0
M  V30 2685 O 274.079 2.46878 -2.56767 0
M  V30 2686 O 272.938 3.96488 -3.76111 0
M  V30 2687 H 270.032 0.623903 -0.542839 0
M  V30 2688 H 272.578 0.662039 -1.56253 0
M  V30 2689 H 271.35 1.82692 -3.46034 0
M  V30 2690 H 270.973 3.17236 -2.39681 0
M  V30 2691 N 271.97 1.30982 0.876444 0
M  V30 2692 C 273.219 1.19658 1.62373 0
M  V30 2693 C 273.532 -0.245636 1.94052 0
M  V30 2694 O 274.738 -0.48049 2.67214 0
M  V30 2695 C 273.194 2.09433 2.92687 0
M  V30 2696 C 272.802 3.58613 2.68516 0
M  V30 2697 C 274.546 2.06893 3.70669 0
M  V30 2698 C 272.453 4.40416 3.94699 0
M  V30 2699 H 271.383 0.444268 0.609214 0
M  V30 2700 H 274.034 1.55791 0.969605 0
M  V30 2701 H 272.416 1.66191 3.59439 0
M  V30 2702 H 273.59 4.10058 2.10212 0
M  V30 2703 H 271.905 3.63063 2.03898 0
M  V30 2704 H 274.502 2.65258 4.64265 0
M  V30 2705 H 274.845 1.05448 4.02724 0
M  V30 2706 H 275.378 2.48301 3.10792 0
M  V30 2707 H 272.117 5.42591 3.67798 0
M  V30 2708 H 271.637 3.93731 4.52477 0
M  V30 2709 H 273.316 4.52294 4.62644 0
M  V30 2710 N 273.449 -1.08991 1.13837 0
M  V30 2711 C 274.379 -2.17771 0.842507 0
M  V30 2712 C 275.36 -1.6892 -0.20001 0
M  V30 2713 O 276.545 -1.94113 -0.0579731 0
M  V30 2714 C 273.675 -3.4589 0.312644 0
M  V30 2715 C 272.629 -4.08099 1.28992 0
M  V30 2716 C 271.955 -5.31098 0.619623 0
M  V30 2717 C 273.255 -4.50077 2.65005 0
M  V30 2718 H 274.949 -2.42777 1.75213 0
M  V30 2719 H 272.495 -1.16682 0.843875 0
M  V30 2720 H 274.448 -4.21297 0.0933043 0
M  V30 2721 H 273.172 -3.20419 -0.632382 0
M  V30 2722 H 271.831 -3.34717 1.49533 0
M  V30 2723 H 271.479 -5.0191 -0.33102 0
M  V30 2724 H 271.179 -5.73674 1.27167 0
M  V30 2725 H 272.703 -6.09224 0.409669 0
M  V30 2726 H 274.117 -5.16688 2.48407 0
M  V30 2727 H 272.514 -5.03553 3.26427 0
M  V30 2728 H 273.584 -3.62257 3.22332 0
M  V30 2729 N 274.927 -0.932562 -1.27047 0
M  V30 2730 C 276.204 -0.49377 -1.89265 0
M  V30 2731 C 276.584 1.02833 -1.8436 0
M  V30 2732 O 275.932 1.88461 -1.29209 0
M  V30 2733 C 276.142 -1.04536 -3.32976 0
M  V30 2734 C 277.49 -1.10879 -4.09867 0
M  V30 2735 O 278.514 -0.995327 -3.42011 0
M  V30 2736 O 277.373 -1.28417 -5.31198 0
M  V30 2737 H 274.467 -0.159596 -0.811454 0
M  V30 2738 H 277.013 -1.02457 -1.3528 0
M  V30 2739 H 275.785 -2.08913 -3.30864 0
M  V30 2740 H 275.408 -0.496494 -3.94488 0
M  V30 2741 N 276.405 1.4127 -0.698611 0
M  V30 2742 C 277.651 2.01478 -0.231207 0
M  V30 2743 C 277.984 1.55215 1.16713 0
M  V30 2744 O 277.259 0.764672 1.78838 0
M  V30 2745 C 277.542 3.58912 -0.292281 0
M  V30 2746 C 277.395 4.15293 -1.72778 0
M  V30 2747 C 278.714 4.38736 0.346194 0
M  V30 2748 H 275.833 0.732025 -0.0854878 0
M  V30 2749 H 278.475 1.67977 -0.887906 0
M  V30 2750 H 276.625 3.87582 0.26686 0
M  V30 2751 H 278.297 3.97486 -2.341 0
M  V30 2752 H 276.54 3.7022 -2.26096 0
M  V30 2753 H 277.211 5.24452 -1.72202 0
M  V30 2754 H 279.687 4.15897 -0.130035 0
M  V30 2755 H 278.563 5.48221 0.272932 0
M  V30 2756 H 278.824 4.18425 1.42734 0
M  V30 2757 N 277.883 0.443576 1.51229 0
M  V30 2758 C 278.793 -0.370721 2.31652 0
M  V30 2759 C 279.809 -1.02186 1.40833 0
M  V30 2760 O 280.985 -1.01586 1.73903 0
M  V30 2761 C 278.05 -1.45376 3.14749 0
M  V30 2762 C 277.111 -0.822099 4.21355 0
M  V30 2763 C 276.344 -1.85353 5.0048 0
M  V30 2764 O 276.567 -3.07656 4.80316 0
M  V30 2765 O 275.501 -1.4406 5.84406 0
M  V30 2766 H 279.327 0.286002 3.0235 0
M  V30 2767 H 276.912 0.20598 1.47973 0
M  V30 2768 H 278.794 -2.08173 3.66391 0
M  V30 2769 H 277.469 -2.09445 2.46809 0
M  V30 2770 H 276.376 -0.155909 3.73775 0
M  V30 2771 H 277.709 -0.224797 4.91686 0
M  V30 2772 N 279.361 -1.56624 0.175154 0
M  V30 2773 C 280.609 -1.96609 -0.467885 0
M  V30 2774 C 280.93 -1.06238 -1.63519 0
M  V30 2775 O 280.2 -0.129523 -1.95471 0
M  V30 2776 H 278.78 -0.726008 -0.175845 0
M  V30 2777 H 281.442 -1.93195 0.257234 0
M  V30 2778 H 280.538 -3.00989 -0.825342 0
M  V30 2779 N 280.839 0.0985539 -1.57292 0
M  V30 2780 C 281.769 1.12064 -2.04851 0
M  V30 2781 C 282.75 1.41981 -0.936767 0
M  V30 2782 O 283.935 1.52071 -1.20781 0
M  V30 2783 C 281.065 2.44144 -2.47004 0
M  V30 2784 C 280.019 2.28643 -3.6181 0
M  V30 2785 C 279.345 3.65869 -3.89929 0
M  V30 2786 C 280.645 1.72986 -4.92822 0
M  V30 2787 H 282.339 0.724979 -2.9049 0
M  V30 2788 H 279.885 0.34729 -1.39749 0
M  V30 2789 H 281.838 3.15914 -2.78884 0
M  V30 2790 H 280.562 2.85639 -1.5836 0
M  V30 2791 H 279.221 1.59318 -3.30172 0
M  V30 2792 H 278.869 4.04885 -2.98458 0
M  V30 2793 H 278.569 3.56344 -4.67218 0
M  V30 2794 H 280.093 4.39112 -4.2428 0
M  V30 2795 H 281.507 2.34593 -5.23105 0
M  V30 2796 H 279.904 1.74229 -5.74251 0
M  V30 2797 H 280.974 0.689007 -4.7998 0
M  V30 2798 N 282.317 1.53212 0.369288 0
M  V30 2799 C 283.249 1.75668 1.47219 0
M  V30 2800 C 284.262 0.637387 1.49804 0
M  V30 2801 O 285.451 0.913561 1.5335 0
M  V30 2802 C 282.551 1.81818 2.85999 0
M  V30 2803 C 281.724 3.11409 3.07153 0
M  V30 2804 C 280.783 3.08849 4.26026 0
M  V30 2805 O 279.809 3.82659 4.2138 0
M  V30 2806 N 281.011 2.29409 5.33246 0
M  V30 2807 H 283.776 2.70832 1.28337 0
M  V30 2808 H 281.337 1.51944 0.55898 0
M  V30 2809 H 283.329 1.77588 3.63655 0
M  V30 2810 H 281.899 0.939544 2.98146 0
M  V30 2811 H 281.119 3.28971 2.1719 0
M  V30 2812 H 282.407 3.97059 3.18154 0
M  V30 2813 H 281.805 1.68946 5.39883 0
M  V30 2814 H 280.362 2.31001 6.09493 0
M  V30 2815 N 283.795 -0.628877 1.44509 0
M  V30 2816 C 284.705 -1.7694 1.54044 0
M  V30 2817 C 285.721 -1.68705 0.425987 0
M  V30 2818 O 286.897 -1.89442 0.683656 0
M  V30 2819 C 283.962 -3.13332 1.48405 0
M  V30 2820 C 283.023 -3.33181 2.70719 0
M  V30 2821 C 282.256 -4.63067 2.6534 0
M  V30 2822 O 282.479 -5.44017 1.71469 0
M  V30 2823 O 281.413 -4.85167 3.56226 0
M  V30 2824 H 285.239 -1.71848 2.50403 0
M  V30 2825 H 282.824 -0.790378 1.26781 0
M  V30 2826 H 284.706 -3.94634 1.47791 0
M  V30 2827 H 283.381 -3.1896 0.551898 0
M  V30 2828 H 282.288 -2.51549 2.769 0
M  V30 2829 H 283.621 -3.32416 3.62988 0
M  V30 2830 N 285.273 -1.31445 -0.869486 0
M  V30 2831 C 286.183 -1.21097 -2.0093 0
M  V30 2832 C 287.199 -0.127584 -1.73532 0
M  V30 2833 O 288.375 -0.345477 -1.98415 0
M  V30 2834 C 285.44 -0.919378 -3.34288 0
M  V30 2835 C 284.501 -2.08971 -3.75006 0
M  V30 2836 C 283.734 -1.81194 -5.02001 0
M  V30 2837 O 283.957 -0.747296 -5.65484 0
M  V30 2838 O 282.891 -2.66883 -5.39497 0
M  V30 2839 H 286.717 -2.16883 -2.12592 0
M  V30 2840 H 284.302 -1.11189 -0.997868 0
M  V30 2841 H 286.184 -0.772625 -4.14257 0
M  V30 2842 H 284.859 0.00844772 -3.23699 0
M  V30 2843 H 283.766 -2.29187 -2.95676 0
M  V30 2844 H 285.099 -2.9998 -3.90221 0
M  V30 2845 N 286.751 1.08385 -1.14413 0
M  V30 2846 C 287.714 2.13486 -0.834048 0
M  V30 2847 C 288.714 1.59988 0.161418 0
M  V30 2848 O 289.904 1.74071 -0.0669575 0
M  V30 2849 C 287.036 3.4003 -0.243354 0
M  V30 2850 H 288.229 2.42425 -1.7655 0
M  V30 2851 H 285.782 1.24101 -0.950189 0
M  V30 2852 H 286.517 3.16726 0.696807 0
M  V30 2853 H 286.302 3.80157 -0.960367 0
M  V30 2854 H 287.792 4.17577 -0.0436242 0
M  V30 2855 N 288.23 0.939286 1.26551 0
M  V30 2856 C 289.646 0.641304 1.46149 0
M  V30 2857 C 289.846 -0.805964 1.84679 0
M  V30 2858 O 288.902 -1.58278 1.96734 0
M  V30 2859 C 290.215 1.6011 2.54529 0
M  V30 2860 C 291.763 1.6106 2.68382 0
M  V30 2861 C 292.238 2.55765 3.79932 0
M  V30 2862 N 293.729 2.5404 3.87322 0
M  V30 2863 C 294.464 3.24004 4.73085 0
M  V30 2864 N 293.96 4.03388 5.63249 0
M  V30 2865 N 295.753 3.12965 4.66914 0
M  V30 2866 H 287.904 1.87478 0.998285 0
M  V30 2867 H 290.167 0.805559 0.499779 0
M  V30 2868 H 289.873 2.63412 2.33039 0
M  V30 2869 H 289.747 1.35171 3.52149 0
M  V30 2870 H 292.134 0.584835 2.89247 0
M  V30 2871 H 292.215 1.90053 1.71212 0
M  V30 2872 H 291.859 3.58458 3.5982 0
M  V30 2873 H 291.789 2.24063 4.76554 0
M  V30 2874 H 294.28 1.96396 3.22858 0
M  V30 2875 H 294.593 4.5373 6.25579 0
M  V30 2876 H 292.938 4.07489 5.63008 0
M  V30 2877 H 296.129 2.50432 3.95476 0
M  V30 2878 H 296.302 3.67759 5.33533 0
M  V30 2879 N 289.708 -1.40897 0.706093 0
M  V30 2880 C 290.985 -1.94868 0.169099 0
M  V30 2881 C 291.365 -1.64485 -1.32318 0
M  V30 2882 O 290.713 -0.95744 -2.07474 0
M  V30 2883 C 290.923 -3.45798 0.471654 0
M  V30 2884 C 292.271 -4.22663 0.405127 0
M  V30 2885 O 293.295 -3.53865 0.407168 0
M  V30 2886 O 292.154 -5.45216 0.374383 0
M  V30 2887 H 289.248 -0.82673 0.0211352 0
M  V30 2888 H 291.794 -1.50558 0.782976 0
M  V30 2889 H 290.566 -3.61235 1.50416 0
M  V30 2890 H 290.189 -3.97225 -0.172666 0
M  V30 2891 N 291.186 -0.45159 -1.50991 0
M  V30 2892 C 292.149 0.341117 -2.26647 0
M  V30 2893 C 293.149 0.937422 -1.30649 0
M  V30 2894 O 294.339 0.809644 -1.54241 0
M  V30 2895 C 291.471 1.48398 -3.06905 0
M  V30 2896 H 292.664 -0.322117 -2.98165 0
M  V30 2897 H 290.217 -0.205122 -1.54948 0
M  V30 2898 H 290.952 2.18284 -2.39838 0
M  V30 2899 H 290.737 1.06241 -3.77432 0
M  V30 2900 H 292.227 2.04367 -3.64176 0
M  V30 2901 N 292.664 1.56529 -0.183458 0
M  V30 2902 C 293.627 2.17324 0.728223 0
M  V30 2903 C 294.627 1.12453 1.14939 0
M  V30 2904 O 295.817 1.37902 1.06437 0
M  V30 2905 C 292.949 2.76591 1.99274 0
M  V30 2906 H 294.142 2.99241 0.198772 0
M  V30 2907 H 291.695 1.5616 0.0661391 0
M  V30 2908 H 292.43 1.98441 2.56499 0
M  V30 2909 H 292.215 3.5335 1.69959 0
M  V30 2910 H 293.705 3.23311 2.6431 0
M  V30 2911 N 294.142 -0.090211 1.57342 0
M  V30 2912 C 295.105 -1.09335 2.01441 0
M  V30 2913 C 296.105 -1.32666 0.908641 0
M  V30 2914 O 297.295 -1.28697 1.174 0
M  V30 2915 C 294.427 -2.44136 2.3793 0
M  V30 2916 H 295.62 -0.713662 2.91285 0
M  V30 2917 H 293.173 -0.335404 1.52659 0
M  V30 2918 H 293.908 -2.86972 1.51055 0
M  V30 2919 H 293.693 -2.28548 3.18603 0
M  V30 2920 H 295.183 -3.16277 2.72688 0
M  V30 2921 N 295.62 -1.53406 -0.361157 0
M  V30 2922 C 296.866 -1.70054 -1.10496 0
M  V30 2923 C 297.199 -0.453278 -1.88836 0
M  V30 2924 O 296.474 0.5495 -1.86576 0
M  V30 2925 C 296.757 -2.95317 -2.06058 0
M  V30 2926 C 296.61 -4.3021 -1.31298 0
M  V30 2927 C 297.929 -3.16193 -3.06121 0
M  V30 2928 H 295.048 -0.618799 -0.400321 0
M  V30 2929 H 297.69 -1.86052 -0.385318 0
M  V30 2930 H 295.84 -2.81809 -2.67425 0
M  V30 2931 H 297.512 -4.55538 -0.726807 0
M  V30 2932 H 295.755 -4.29421 -0.614853 0
M  V30 2933 H 296.426 -5.14 -2.01265 0
M  V30 2934 H 298.902 -3.28916 -2.5486 0
M  V30 2935 H 297.778 -4.05266 -3.70204 0
M  V30 2936 H 298.039 -2.31676 -3.76535 0
M  V30 2937 N 297.098 0.621204 -1.44841 0
M  V30 2938 C 298.346 1.37783 -1.47852 0
M  V30 2939 C 298.667 1.94653 -0.116224 0
M  V30 2940 O 297.937 1.76367 0.852737 0
M  V30 2941 H 296.517 0.511453 -0.544449 0
M  V30 2942 H 299.179 0.730446 -1.80694 0
M  V30 2943 H 298.275 2.20414 -2.20961 0
M  V30 2944 N 298.576 1.31904 0.862503 0
M  V30 2945 C 299.823 1.22017 1.61611 0
M  V30 2946 C 300.151 -0.21991 1.93253 0
M  V30 2947 O 299.406 -1.17076 1.56817 0
M  V30 2948 C 299.705 2.01713 2.95037 0
M  V30 2949 C 299.371 3.51145 2.82857 0
M  V30 2950 C 298.033 3.91889 2.79243 0
M  V30 2951 C 300.385 4.46204 2.69353 0
M  V30 2952 C 297.713 5.25947 2.59993 0
M  V30 2953 C 300.065 5.80397 2.5164 0
M  V30 2954 C 298.729 6.20352 2.46413 0
M  V30 2955 H 297.999 0.44649 0.591378 0
M  V30 2956 H 300.646 1.63248 1.00111 0
M  V30 2957 H 298.951 1.53185 3.60613 0
M  V30 2958 H 300.648 1.91437 3.52353 0
M  V30 2959 H 297.238 3.1878 2.86491 0
M  V30 2960 H 301.422 4.15652 2.71196 0
M  V30 2961 H 296.678 5.5597 2.54376 0
M  V30 2962 H 300.852 6.53676 2.40169 0
M  V30 2963 H 298.479 7.24172 2.31256 0
M  V30 2964 N 300.054 -1.07777 1.14986 0
M  V30 2965 C 301.331 -1.7699 0.832695 0
M  V30 2966 C 301.711 -2.001 -0.672561 0
M  V30 2967 O 301.059 -1.61598 -1.6155 0
M  V30 2968 C 301.269 -3.08139 1.63863 0
M  V30 2969 C 302.617 -3.8256 1.84208 0
M  V30 2970 O 303.641 -3.17939 1.60603 0
M  V30 2971 O 302.5 -4.98612 2.23714 0
M  V30 2972 H 299.594 -0.768389 0.305791 0
M  V30 2973 H 302.14 -1.14182 1.25541 0
M  V30 2974 H 300.912 -2.86909 2.6608 0
M  V30 2975 H 300.535 -3.78678 1.21197 0
M  V30 2976 N 301.532 -0.945985 -1.26051 0
M  V30 2977 C 302.778 -0.597002 -1.93814 0
M  V30 2978 C 303.111 0.862484 -1.73997 0
M  V30 2979 O 302.386 1.61769 -1.07986 0
M  V30 2980 C 302.669 -0.945937 -3.47454 0
M  V30 2981 C 302.522 -2.46052 -3.76535 0
M  V30 2982 C 303.841 -0.464785 -4.37639 0
M  V30 2983 H 300.96 -0.218366 -0.703907 0
M  V30 2984 H 303.602 -1.18107 -1.48831 0
M  V30 2985 H 301.752 -0.448902 -3.85898 0
M  V30 2986 H 303.424 -3.03065 -3.47778 0
M  V30 2987 H 301.667 -2.90194 -3.22444 0
M  V30 2988 H 302.338 -2.65517 -4.83947 0
M  V30 2989 H 304.814 -0.891016 -4.06448 0
M  V30 2990 H 303.69 -0.737712 -5.4392 0
M  V30 2991 H 303.951 0.635274 -4.37512 0
M  V30 2992 N 303.011 1.40521 -0.713556 0
M  V30 2993 C 304.239 2.05237 -0.261775 0
M  V30 2994 C 304.654 1.53755 1.09567 0
M  V30 2995 O 304.011 0.693268 1.6882 0
M  V30 2996 C 304.062 3.60763 -0.230706 0
M  V30 2997 O 303.783 4.10345 -1.53455 0
M  V30 2998 C 305.284 4.42651 0.239874 0
M  V30 2999 H 302.504 0.660533 -0.118057 0
M  V30 3000 H 305.048 1.79967 -0.971192 0
M  V30 3001 H 303.203 3.8501 0.429661 0
M  V30 3002 H 303.617 5.04526 -1.43366 0
M  V30 3003 H 305.091 5.51599 0.210468 0
M  V30 3004 H 305.568 4.20082 1.28171 0
M  V30 3005 H 306.174 4.23507 -0.390142 0
M  V30 3006 N 304.489 0.459591 1.5075 0
M  V30 3007 C 305.735 -0.0994966 2.02556 0
M  V30 3008 C 306.068 -1.40399 1.3417 0
M  V30 3009 O 305.343 -1.88892 0.463683 0
M  V30 3010 C 305.626 -0.295242 3.58888 0
M  V30 3011 C 305.479 1.02947 4.37861 0
M  V30 3012 C 306.798 -1.05502 4.27267 0
M  V30 3013 H 303.917 -0.034686 0.736183 0
M  V30 3014 H 306.559 0.602938 1.8018 0
M  V30 3015 H 304.709 -0.893563 3.78084 0
M  V30 3016 H 306.381 1.66348 4.30263 0
M  V30 3017 H 304.624 1.62885 4.02058 0
M  V30 3018 H 305.295 0.846281 5.45474 0
M  V30 3019 H 307.771 -0.547993 4.12476 0
M  V30 3020 H 306.647 -1.16077 5.36486 0
M  V30 3021 H 306.908 -2.08875 3.89645 0
M  V30 3022 N 305.967 -1.56429 0.191757 0
M  V30 3023 C 307.207 -1.99383 -0.450099 0
M  V30 3024 C 307.571 -1.07581 -1.59029 0
M  V30 3025 O 308.772 -1.39758 -2.29611 0
M  V30 3026 C 307.043 -3.45841 -0.901611 0
M  V30 3027 S 308.602 -4.10822 -1.54177 0
M  V30 3028 H 305.42 -0.696253 -0.144057 0
M  V30 3029 H 308.022 -1.93276 0.294036 0
M  V30 3030 H 306.726 -4.10354 -0.0616596 0
M  V30 3031 H 306.257 -3.55757 -1.67929 0
M  V30 3032 H 308.272 -4.07553 -2.83046 0
M  V30 3033 N 307.445 0.0818655 -1.57387 0
M  V30 3034 C 308.694 0.781681 -1.85937 0
M  V30 3035 C 309.007 1.79246 -0.782957 0
M  V30 3036 O 310.213 2.54112 -0.955987 0
M  V30 3037 C 308.669 1.44109 -3.29789 0
M  V30 3038 C 308.277 0.469396 -4.45534 0
M  V30 3039 C 310.021 2.12386 -3.67549 0
M  V30 3040 C 307.928 1.13415 -5.80423 0
M  V30 3041 H 306.858 0.295682 -0.693605 0
M  V30 3042 H 309.509 0.0348051 -1.83467 0
M  V30 3043 H 307.891 2.23588 -3.2684 0
M  V30 3044 H 309.065 -0.294856 -4.59856 0
M  V30 3045 H 307.38 -0.108383 -4.16259 0
M  V30 3046 H 309.977 2.62878 -4.65617 0
M  V30 3047 H 310.32 2.91877 -2.96839 0
M  V30 3048 H 310.853 1.39751 -3.72444 0
M  V30 3049 H 307.592 0.379771 -6.54399 0
M  V30 3050 H 307.112 1.8695 -5.69921 0
M  V30 3051 H 308.791 1.65686 -6.25426 0
M  V30 3052 N 308.923 1.53595 0.353017 0
M  V30 3053 C 309.873 1.77299 1.43349 0
M  V30 3054 C 310.857 0.627884 1.48143 0
M  V30 3055 O 312.049 0.88697 1.53173 0
M  V30 3056 C 309.178 1.97757 2.80619 0
M  V30 3057 C 308.264 3.18305 2.80254 0
M  V30 3058 N 308.655 4.39967 2.49526 0
M  V30 3059 C 306.953 3.19283 3.11407 0
M  V30 3060 C 307.654 5.21772 2.57156 0
M  V30 3061 N 306.63 4.58269 2.92388 0
M  V30 3062 H 310.432 2.68963 1.18474 0
M  V30 3063 H 307.946 1.52391 0.561306 0
M  V30 3064 H 309.943 2.1287 3.58458 0
M  V30 3065 H 308.603 1.07329 3.06448 0
M  V30 3066 H 309.614 4.67482 2.22893 0
M  V30 3067 H 306.291 2.3879 3.4247 0
M  V30 3068 H 307.681 6.2885 2.36638 0
M  V30 3069 N 310.401 -0.613514 1.45168 0
M  V30 3070 C 311.812 -1.19539 1.43413 0
M  V30 3071 C 312.163 -1.95558 0.158632 0
M  V30 3072 O 311.288 -2.0335 -0.740119 0
M  V30 3073 C 311.883 -2.17445 2.59813 0
M  V30 3074 C 310.442 -2.71022 2.61197 0
M  V30 3075 C 309.589 -1.46323 2.35552 0
M  V30 3076 H 312.54 -0.403163 1.53494 0
M  V30 3077 H 312.561 -3.00373 2.33574 0
M  V30 3078 H 312.073 -1.62089 3.52631 0
M  V30 3079 H 310.174 -3.30332 1.7237 0
M  V30 3080 H 310.287 -3.15859 3.60236 0
M  V30 3081 H 308.651 -1.75072 1.84992 0
M  V30 3082 H 309.434 -0.92844 3.30507 0
M  V30 3083 N 311.879 -1.3236 -0.855495 0
M  V30 3084 C 313.104 -1.2601 -1.64731 0
M  V30 3085 C 313.529 0.169068 -1.87339 0
M  V30 3086 O 312.887 1.12016 -1.42556 0
M  V30 3087 C 312.935 -2.02417 -2.98429 0
M  V30 3088 O 312.039 -1.3714 -3.8893 0
M  V30 3089 H 311.38 -0.434325 -0.502253 0
M  V30 3090 H 313.91 -1.74661 -1.06558 0
M  V30 3091 H 313.92 -2.12559 -3.48257 0
M  V30 3092 H 312.595 -3.06343 -2.81295 0
M  V30 3093 H 311.172 -1.3554 -3.47395 0
M  V30 3094 N 313.357 1.07166 -1.15556 0
M  V30 3095 C 314.289 2.14341 -0.811815 0
M  V30 3096 C 315.302 1.61835 0.177015 0
M  V30 3097 O 316.491 1.78439 -0.0464996 0
M  V30 3098 C 313.591 3.38387 -0.186481 0
M  V30 3099 C 312.764 4.20238 -1.21321 0
M  V30 3100 C 311.823 5.2266 -0.609302 0
M  V30 3101 O 310.849 5.54719 -1.27576 0
M  V30 3102 N 312.051 5.77306 0.608099 0
M  V30 3103 H 314.816 2.44431 -1.73417 0
M  V30 3104 H 312.377 1.23089 -1.0517 0
M  V30 3105 H 314.369 4.04044 0.230339 0
M  V30 3106 H 312.939 3.05994 0.639249 0
M  V30 3107 H 312.159 3.50369 -1.80652 0
M  V30 3108 H 313.447 4.71736 -1.90638 0
M  V30 3109 H 312.845 5.53513 1.1679 0
M  V30 3110 H 311.402 6.44583 0.96725 0
M  V30 3111 N 314.835 0.952656 1.25548 0
M  V30 3112 C 316.084 0.602053 1.92505 0
M  V30 3113 C 316.397 -0.864663 1.75451 0
M  V30 3114 O 317.603 -1.32514 2.36965 0
M  V30 3115 C 316.059 1.02607 3.44963 0
M  V30 3116 C 315.667 2.51519 3.70732 0
M  V30 3117 C 317.411 0.747905 4.1786 0
M  V30 3118 C 315.318 2.87732 5.16686 0
M  V30 3119 H 314.248 0.22146 0.720744 0
M  V30 3120 H 316.899 1.15684 1.42441 0
M  V30 3121 H 315.281 0.399712 3.93978 0
M  V30 3122 H 316.455 3.19157 3.32378 0
M  V30 3123 H 314.77 2.76786 3.11092 0
M  V30 3124 H 317.367 0.994647 5.25367 0
M  V30 3125 H 317.71 -0.315629 4.15102 0
M  V30 3126 H 318.243 1.33452 3.74747 0
M  V30 3127 H 314.982 3.93095 5.24554 0
M  V30 3128 H 314.502 2.24765 5.56094 0
M  V30 3129 H 316.181 2.76817 5.84792 0
M  V30 3130 N 316.313 -1.40141 0.720998 0
M  V30 3131 C 317.724 -1.83678 0.334553 0
M  V30 3132 C 318.075 -1.6027 -1.13173 0
M  V30 3133 O 317.2 -1.08643 -1.87152 0
M  V30 3134 C 317.795 -3.33437 0.600437 0
M  V30 3135 C 316.354 -3.75447 0.267642 0
M  V30 3136 C 315.501 -2.63296 0.870097 0
M  V30 3137 H 318.452 -1.29331 0.919732 0
M  V30 3138 H 318.473 -3.80269 -0.132517 0
M  V30 3139 H 317.985 -3.50442 1.66768 0
M  V30 3140 H 316.086 -3.64035 -0.794329 0
M  V30 3141 H 316.199 -4.73344 0.74042 0
M  V30 3142 H 314.563 -2.52954 0.297739 0
M  V30 3143 H 315.346 -2.83112 1.94172 0
M  V30 3144 N 317.792 -0.46758 -1.50504 0
M  V30 3145 C 319.038 0.0887532 -2.02606 0
M  V30 3146 C 319.371 1.39686 -1.34913 0
M  V30 3147 O 318.646 1.88644 -0.473694 0
M  V30 3148 C 318.929 0.276206 -3.59039 0
M  V30 3149 C 318.782 -1.05267 -4.37309 0
M  V30 3150 C 320.101 1.03235 -4.27821 0
M  V30 3151 H 317.22 0.0307814 -0.736357 0
M  V30 3152 H 319.862 -0.612485 -1.79857 0
M  V30 3153 H 318.012 0.8735 -3.78553 0
M  V30 3154 H 319.684 -1.68628 -4.29374 0
M  V30 3155 H 317.927 -1.65015 -4.01189 0
M  V30 3156 H 318.598 -0.875197 -5.45018 0
M  V30 3157 H 321.074 0.526111 -4.12761 0
M  V30 3158 H 319.95 1.1323 -5.37094 0
M  V30 3159 H 320.211 2.06806 -3.90748 0
M  V30 3160 N 319.27 1.56325 -0.20005 0
M  V30 3161 C 320.516 1.98012 0.438059 0
M  V30 3162 C 320.849 1.08702 1.60927 0
M  V30 3163 O 320.124 0.140064 1.93995 0
M  V30 3164 C 320.407 3.48841 0.893419 0
M  V30 3165 C 320.26 4.48928 -0.279947 0
M  V30 3166 C 321.579 4.03498 1.75719 0
M  V30 3167 H 318.698 0.719918 0.157757 0
M  V30 3168 H 321.34 1.87743 -0.291968 0
M  V30 3169 H 319.49 3.57723 1.51547 0
M  V30 3170 H 321.162 4.52079 -0.91772 0
M  V30 3171 H 319.405 4.23694 -0.930919 0
M  V30 3172 H 320.076 5.5194 0.0812601 0
M  V30 3173 H 322.552 3.97427 1.23253 0
M  V30 3174 H 321.428 5.09393 2.04476 0
M  V30 3175 H 321.689 3.4906 2.71311 0
M  V30 3176 N 320.748 -0.0735177 1.57428 0
M  V30 3177 C 322.164 -0.428264 1.53747 0
M  V30 3178 C 322.364 -1.79272 0.91998 0
M  V30 3179 O 321.42 -2.47051 0.521745 0
M  V30 3180 C 322.733 -0.370914 2.98404 0
M  V30 3181 C 324.281 -0.451224 3.0973 0
M  V30 3182 C 324.756 -0.4238 4.56035 0
M  V30 3183 N 326.247 -0.483925 4.60665 0
M  V30 3184 C 326.982 -0.484891 5.71346 0
M  V30 3185 N 326.478 -0.440775 6.91396 0
M  V30 3186 N 328.271 -0.531319 5.59583 0
M  V30 3187 H 320.422 0.819949 1.95935 0
M  V30 3188 H 322.685 0.307493 0.896745 0
M  V30 3189 H 322.391 0.564956 3.47133 0
M  V30 3190 H 322.265 -1.18176 3.5821 0
M  V30 3191 H 324.652 -1.37752 2.60976 0
M  V30 3192 H 324.733 0.388167 2.52838 0
M  V30 3193 H 324.377 0.498638 5.05446 0
M  V30 3194 H 324.307 -1.2807 5.10789 0
M  V30 3195 H 326.798 -0.522338 3.74273 0
M  V30 3196 H 327.111 -0.44539 7.71515 0
M  V30 3197 H 325.456 -0.40749 6.93804 0
M  V30 3198 H 328.647 -0.563464 4.64696 0
M  V30 3199 H 328.82 -0.528603 6.4584 0
M  V30 3200 N 322.226 -1.5378 -0.344866 0
M  V30 3201 C 323.173 -1.81676 -1.42346 0
M  V30 3202 C 324.143 -0.662376 -1.52321 0
M  V30 3203 O 325.328 -0.906675 -1.67881 0
M  V30 3204 C 322.468 -2.03087 -2.79015 0
M  V30 3205 C 321.581 -3.30799 -2.77842 0
M  V30 3206 C 320.716 -3.42285 -4.0622 0
M  V30 3207 C 319.755 -4.6395 -3.9927 0
M  V30 3208 N 318.892 -4.72477 -5.19336 0
M  V30 3209 H 323.732 -2.73703 -1.17858 0
M  V30 3210 H 321.269 -1.35568 -0.570949 0
M  V30 3211 H 323.227 -2.1349 -3.58438 0
M  V30 3212 H 321.857 -1.14375 -3.01858 0
M  V30 3213 H 320.909 -3.29244 -1.90533 0
M  V30 3214 H 322.221 -4.20314 -2.68584 0
M  V30 3215 H 321.375 -3.52113 -4.94066 0
M  V30 3216 H 320.114 -2.50823 -4.18258 0
M  V30 3217 H 319.119 -4.54201 -3.09809 0
M  V30 3218 H 320.344 -5.56775 -3.88817 0
M  V30 3219 H 318.29 -3.83924 -5.3192 0
M  V30 3220 H 318.207 -5.55927 -5.12329 0
M  V30 3221 H 319.475 -4.86613 -6.08957 0
M  V30 3222 N 323.704 0.605807 -1.45491 0
M  V30 3223 C 324.667 1.69836 -1.5391 0
M  V30 3224 C 325.667 1.55261 -0.418424 0
M  V30 3225 O 326.857 1.60296 -0.681965 0
M  V30 3226 C 323.989 3.09117 -1.43734 0
M  V30 3227 H 325.182 1.63738 -2.51257 0
M  V30 3228 H 322.735 0.821689 -1.32959 0
M  V30 3229 H 323.47 3.20791 -0.475788 0
M  V30 3230 H 323.255 3.21104 -2.25021 0
M  V30 3231 H 324.745 3.88696 -1.52661 0
M  V30 3232 N 325.182 1.32811 0.848464 0
M  V30 3233 C 326.412 1.26556 1.63301 0
M  V30 3234 C 326.82 -0.1676 1.88456 0
M  V30 3235 O 326.163 -1.11713 1.45828 0
M  V30 3236 C 326.225 1.96202 3.01239 0
M  V30 3237 C 325.889 3.45528 2.99098 0
M  V30 3238 C 326.886 4.40903 2.75501 0
M  V30 3239 C 324.571 3.87558 3.19537 0
M  V30 3240 C 326.565 5.76282 2.72356 0
M  V30 3241 C 324.252 5.23044 3.16019 0
M  V30 3242 C 325.25 6.17217 2.92458 0
M  V30 3243 O 324.938 7.50223 2.88825 0
M  V30 3244 H 324.67 0.43771 0.515156 0
M  V30 3245 H 327.224 1.7559 1.0657 0
M  V30 3246 H 325.454 1.41746 3.59785 0
M  V30 3247 H 327.143 1.83573 3.62016 0
M  V30 3248 H 327.909 4.09756 2.5947 0
M  V30 3249 H 323.788 3.14674 3.369 0
M  V30 3250 H 327.332 6.4976 2.53886 0
M  V30 3251 H 323.229 5.53818 3.31596 0
M  V30 3252 H 323.997 7.59657 3.04735 0
M  V30 3253 N 326.66 -1.06551 1.16123 0
M  V30 3254 C 328.076 -1.3142 0.905585 0
M  V30 3255 C 328.276 -1.96571 -0.442964 0
M  V30 3256 O 327.332 -2.23068 -1.18308 0
M  V30 3257 C 328.645 -2.19741 2.05267 0
M  V30 3258 C 330.193 -2.33165 2.08813 0
M  V30 3259 C 330.668 -3.24838 3.22868 0
M  V30 3260 N 332.159 -3.32421 3.22568 0
M  V30 3261 C 332.894 -4.0344 4.0746 0
M  V30 3262 N 332.39 -4.77003 5.02434 0
M  V30 3263 N 334.183 -3.99464 3.95456 0
M  V30 3264 H 326.334 -0.626548 2.02949 0
M  V30 3265 H 328.597 -0.338777 0.8854 0
M  V30 3266 H 328.303 -1.79142 3.02657 0
M  V30 3267 H 328.177 -3.20313 1.99198 0
M  V30 3268 H 330.564 -2.73013 1.12018 0
M  V30 3269 H 330.645 -1.3227 2.18948 0
M  V30 3270 H 330.289 -2.85708 4.19921 0
M  V30 3271 H 330.219 -4.25707 3.0997 0
M  V30 3272 H 332.71 -2.79994 2.53795 0
M  V30 3273 H 333.023 -5.28712 5.63634 0
M  V30 3274 H 331.368 -4.75992 5.06415 0
M  V30 3275 H 334.559 -3.4111 3.20564 0
M  V30 3276 H 334.732 -4.54544 4.61837 0
M  V30 3277 N 328.138 -0.959301 -1.25041 0
M  V30 3278 C 329.549 -0.65667 -1.74771 0
M  V30 3279 C 329.9 0.827852 -1.77879 0
M  V30 3280 O 329.025 1.64783 -1.40269 0
M  V30 3281 C 329.62 -1.1853 -3.1739 0
M  V30 3282 C 328.179 -0.932734 -3.6466 0
M  V30 3283 C 327.326 -1.32558 -2.43564 0
M  V30 3284 H 330.277 -1.13558 -1.10862 0
M  V30 3285 H 330.298 -0.547582 -3.76539 0
M  V30 3286 H 329.81 -2.26576 -3.15095 0
M  V30 3287 H 327.911 0.13257 -3.72364 0
M  V30 3288 H 328.024 -1.57248 -4.52559 0
M  V30 3289 H 326.388 -0.743956 -2.43593 0
M  V30 3290 H 327.171 -2.41537 -2.43957 0
M  V30 3291 N 329.616 1.39756 -0.72842 0
M  V30 3292 C 330.841 2.05472 -0.282159 0
M  V30 3293 C 331.266 1.54549 1.07221 0
M  V30 3294 O 330.624 0.686372 1.67805 0
M  V30 3295 C 330.672 3.59462 -0.286264 0
M  V30 3296 O 329.776 4.05918 0.728298 0
M  V30 3297 H 329.117 0.651226 -0.129618 0
M  V30 3298 H 331.647 1.78915 -0.992499 0
M  V30 3299 H 331.657 4.07798 -0.128373 0
M  V30 3300 H 330.332 3.95889 -1.27456 0
M  V30 3301 H 328.909 3.69012 0.537081 0
M  V30 3302 N 331.094 0.475555 1.50254 0
M  V30 3303 C 332.044 -0.335025 2.25525 0
M  V30 3304 C 333.028 -0.957625 1.29299 0
M  V30 3305 O 334.22 -0.869436 1.54175 0
M  V30 3306 C 331.349 -1.41385 3.12834 0
M  V30 3307 C 330.435 -0.798762 4.1651 0
M  V30 3308 N 330.826 0.0835815 5.05731 0
M  V30 3309 C 329.124 -1.06221 4.33166 0
M  V30 3310 C 329.825 0.433113 5.80085 0
M  V30 3311 N 328.801 -0.1928 5.43258 0
M  V30 3312 H 332.603 0.344612 2.91873 0
M  V30 3313 H 330.117 0.289986 1.5979 0
M  V30 3314 H 332.114 -2.00777 3.65368 0
M  V30 3315 H 330.774 -2.09543 2.48036 0
M  V30 3316 H 331.785 0.452715 5.15918 0
M  V30 3317 H 328.462 -1.73844 3.79585 0
M  V30 3318 H 329.852 1.15346 6.61925 0
M  V30 3319 N 332.573 -1.56217 0.208337 0
M  V30 3320 C 333.483 -2.23316 -0.718836 0
M  V30 3321 C 334.499 -1.23648 -1.22422 0
M  V30 3322 O 335.675 -1.56423 -1.26861 0
M  V30 3323 C 332.74 -2.88968 -1.91568 0
M  V30 3324 C 331.801 -4.03943 -1.45357 0
M  V30 3325 C 331.034 -4.66455 -2.59337 0
M  V30 3326 O 331.257 -4.27919 -3.77149 0
M  V30 3327 O 330.191 -5.55686 -2.31293 0
M  V30 3328 H 334.017 -3.03182 -0.177315 0
M  V30 3329 H 331.602 -1.49384 -0.0215402 0
M  V30 3330 H 333.484 -3.30455 -2.61491 0
M  V30 3331 H 332.159 -2.12071 -2.44556 0
M  V30 3332 H 331.066 -3.67052 -0.722746 0
M  V30 3333 H 332.399 -4.82543 -0.970219 0
M  V30 3334 N 334.051 0.0651679 -1.57465 0
M  V30 3335 C 334.998 1.07675 -2.04144 0
M  V30 3336 C 335.968 1.38071 -0.923335 0
M  V30 3337 O 337.153 1.49026 -1.19146 0
M  V30 3338 C 334.293 2.38337 -2.49579 0
M  V30 3339 C 333.406 2.14413 -3.75035 0
M  V30 3340 C 332.541 3.38686 -4.09225 0
M  V30 3341 C 331.58 3.10156 -5.27702 0
M  V30 3342 N 330.717 4.26778 -5.57499 0
M  V30 3343 H 335.557 0.671716 -2.90331 0
M  V30 3344 H 333.094 0.3201 -1.43575 0
M  V30 3345 H 335.052 3.14632 -2.73975 0
M  V30 3346 H 333.682 2.7663 -1.6636 0
M  V30 3347 H 332.734 1.2878 -3.57939 0
M  V30 3348 H 334.046 1.89344 -4.61466 0
M  V30 3349 H 333.2 4.23373 -4.34558 0
M  V30 3350 H 331.939 3.66837 -3.21374 0
M  V30 3351 H 330.944 2.23866 -5.02159 0
M  V30 3352 H 332.169 2.8332 -6.17176 0
M  V30 3353 H 330.115 4.54948 -4.72608 0
M  V30 3354 H 330.032 4.05005 -6.38362 0
M  V30 3355 H 331.3 5.12443 -5.87386 0
M  V30 3356 N 335.529 1.53961 0.336706 0
M  V30 3357 C 336.459 1.85417 1.41925 0
M  V30 3358 C 337.44 0.709856 1.5458 0
M  V30 3359 O 338.625 0.962396 1.68676 0
M  V30 3360 C 335.755 2.06985 2.78881 0
M  V30 3361 C 334.709 3.22813 2.81026 0
M  V30 3362 C 334.035 3.29727 4.20932 0
M  V30 3363 C 335.335 4.60767 2.45949 0
M  V30 3364 H 337.029 2.76079 1.15848 0
M  V30 3365 H 334.575 1.32839 0.555859 0
M  V30 3366 H 336.528 2.27575 3.54665 0
M  V30 3367 H 335.252 1.13061 3.06406 0
M  V30 3368 H 333.911 3.0209 2.07695 0
M  V30 3369 H 333.559 2.33385 4.45579 0
M  V30 3370 H 333.259 4.07566 4.23277 0
M  V30 3371 H 334.783 3.52536 4.98549 0
M  V30 3372 H 336.197 4.81325 3.11446 0
M  V30 3373 H 334.594 5.4106 2.59566 0
M  V30 3374 H 335.664 4.6391 1.41122 0
M  V30 3375 N 337.007 -0.598083 1.45811 0
M  V30 3376 C 337.97 -1.69018 1.54808 0
M  V30 3377 C 338.97 -1.55037 0.426652 0
M  V30 3378 O 340.16 -1.59932 0.690456 0
M  V30 3379 C 337.292 -3.0835 1.45371 0
M  V30 3380 H 338.485 -1.62403 2.52121 0
M  V30 3381 H 336.038 -0.814626 1.33392 0
M  V30 3382 H 336.773 -3.20534 0.492793 0
M  V30 3383 H 336.558 -3.19907 2.26721 0
M  V30 3384 H 338.048 -3.8788 1.54721 0
M  V30 3385 N 338.485 -1.33259 -0.841409 0
M  V30 3386 C 339.731 -1.25766 -1.59857 0
M  V30 3387 C 340.086 0.175602 -1.91597 0
M  V30 3388 O 339.379 1.117 -1.55672 0
M  V30 3389 C 339.573 -2.06381 -2.9179 0
M  V30 3390 C 339.402 -3.57401 -2.72937 0
M  V30 3391 C 338.172 -4.26718 -2.70628 0
M  V30 3392 C 340.37 -4.51786 -2.45753 0
M  V30 3393 N 338.352 -5.63705 -2.43125 0
M  V30 3394 C 339.723 -5.76643 -2.27777 0
M  V30 3395 C 341.778 -4.40898 -2.31329 0
M  V30 3396 C 340.481 -6.91842 -1.96841 0
M  V30 3397 C 342.507 -5.55911 -2.01786 0
M  V30 3398 C 341.869 -6.79776 -1.8462 0
M  V30 3399 H 337.968 -0.515406 -0.588117 0
M  V30 3400 H 340.552 -1.67772 -0.987955 0
M  V30 3401 H 338.723 -1.667 -3.50807 0
M  V30 3402 H 340.455 -1.90678 -3.56965 0
M  V30 3403 H 337.21 -3.78968 -2.84043 0
M  V30 3404 H 337.634 -6.35911 -2.32265 0
M  V30 3405 H 342.276 -3.45772 -2.43314 0
M  V30 3406 H 339.994 -7.86968 -1.83594 0
M  V30 3407 H 343.58 -5.49421 -1.91384 0
M  V30 3408 H 342.46 -7.67266 -1.62088 0
M  V30 3409 N 339.963 1.05934 -1.16686 0
M  V30 3410 C 340.926 2.11669 -0.879144 0
M  V30 3411 C 341.926 1.60294 0.127445 0
M  V30 3412 O 343.116 1.7389 -0.103865 0
M  V30 3413 C 340.248 3.39438 -0.315425 0
M  V30 3414 H 341.441 2.38626 -1.81653 0
M  V30 3415 H 338.994 1.22058 -0.976299 0
M  V30 3416 H 339.729 3.18132 0.629468 0
M  V30 3417 H 339.514 3.78034 -1.04079 0
M  V30 3418 H 341.004 4.17391 -0.132189 0
M  V30 3419 N 341.441 0.965919 1.2453 0
M  V30 3420 C 342.857 0.67216 1.44756 0
M  V30 3421 C 343.057 -0.766609 1.86347 0
M  V30 3422 O 342.113 -1.5407 2.00047 0
M  V30 3423 C 343.426 1.65473 2.51076 0
M  V30 3424 C 344.974 1.66716 2.64905 0
M  V30 3425 C 345.449 2.63766 3.74421 0
M  V30 3426 N 346.94 2.62198 3.81846 0
M  V30 3427 C 347.675 3.33966 4.66106 0
M  V30 3428 N 347.171 4.15245 5.54566 0
M  V30 3429 N 348.964 3.22799 4.60171 0
M  V30 3430 H 341.115 1.89553 0.958293 0
M  V30 3431 H 343.378 0.815979 0.482579 0
M  V30 3432 H 343.084 2.68296 2.27399 0
M  V30 3433 H 342.958 1.4261 3.49202 0
M  V30 3434 H 345.345 0.646057 2.87941 0
M  V30 3435 H 345.426 1.93642 1.67142 0
M  V30 3436 H 345.07 3.6601 3.52135 0
M  V30 3437 H 345 2.34121 4.71694 0
M  V30 3438 H 347.491 2.032 3.18619 0
M  V30 3439 H 347.804 4.66898 6.15814 0
M  V30 3440 H 346.149 4.1934 5.54237 0
M  V30 3441 H 349.34 2.58764 3.90075 0
M  V30 3442 H 349.513 3.78994 5.25612 0
M  V30 3443 N 342.919 -1.39368 0.735821 0
M  V30 3444 C 344.335 -1.54204 0.411492 0
M  V30 3445 C 344.535 -1.70268 -1.07755 0
M  V30 3446 O 343.591 -1.70364 -1.86366 0
M  V30 3447 C 344.904 -2.75925 1.19523 0
M  V30 3448 C 346.452 -2.89761 1.18354 0
M  V30 3449 C 346.927 -4.14421 1.94986 0
M  V30 3450 N 348.418 -4.21462 1.92156 0
M  V30 3451 C 349.153 -5.16871 2.48258 0
M  V30 3452 N 348.649 -6.18063 3.13001 0
M  V30 3453 N 350.442 -5.09093 2.38287 0
M  V30 3454 H 342.593 -1.27189 1.70108 0
M  V30 3455 H 344.856 -0.616517 0.720147 0
M  V30 3456 H 344.562 -2.70401 2.24892 0
M  V30 3457 H 344.436 -3.68614 0.800222 0
M  V30 3458 H 346.823 -2.94777 0.137975 0
M  V30 3459 H 346.904 -1.98133 1.61793 0
M  V30 3460 H 346.548 -4.10166 2.99543 0
M  V30 3461 H 346.478 -5.05095 1.48953 0
M  V30 3462 H 348.969 -3.48979 1.44991 0
M  V30 3463 H 349.282 -6.87326 3.53275 0
M  V30 3464 H 347.627 -6.18448 3.17091 0
M  V30 3465 H 350.818 -4.28973 1.8735 0
M  V30 3466 H 350.991 -5.83272 2.82308 0
M  V30 3467 N 344.397 -0.483516 -1.5 0
M  V30 3468 C 345.643 0.0672592 -2.02688 0
M  V30 3469 C 345.976 1.38247 -1.36387 0
M  V30 3470 O 345.251 1.88131 -0.493675 0
M  V30 3471 C 345.534 0.238109 -3.59312 0
M  V30 3472 C 345.387 -1.099 -4.36168 0
M  V30 3473 C 346.706 0.986916 -4.28892 0
M  V30 3474 H 343.825 0.0229696 -0.736642 0
M  V30 3475 H 346.467 -0.631527 -1.79197 0
M  V30 3476 H 344.617 0.8333 -3.79458 0
M  V30 3477 H 346.289 -1.73172 -4.27562 0
M  V30 3478 H 344.532 -1.69261 -3.99416 0
M  V30 3479 H 345.203 -0.932954 -5.44059 0
M  V30 3480 H 347.679 0.482302 -4.13295 0
M  V30 3481 H 346.555 1.07527 -5.38265 0
M  V30 3482 H 346.816 2.0265 -3.92919 0
M  V30 3483 N 345.875 1.56104 -0.216619 0
M  V30 3484 C 346.805 2.23063 0.690296 0
M  V30 3485 C 347.786 1.20072 1.20485 0
M  V30 3486 O 348.971 1.48643 1.24976 0
M  V30 3487 C 346.101 2.90672 1.90072 0
M  V30 3488 C 345.055 4.00092 1.5202 0
M  V30 3489 C 344.381 4.54972 2.80899 0
M  V30 3490 C 345.681 5.17398 0.71391 0
M  V30 3491 H 347.375 2.99109 0.132038 0
M  V30 3492 H 344.921 1.43866 0.0620664 0
M  V30 3493 H 346.874 3.36204 2.54057 0
M  V30 3494 H 345.598 2.12066 2.48386 0
M  V30 3495 H 344.257 3.55283 0.903839 0
M  V30 3496 H 343.905 3.73102 3.37348 0
M  V30 3497 H 343.605 5.28817 2.56176 0
M  V30 3498 H 345.129 5.0322 3.45836 0
M  V30 3499 H 346.543 5.59342 1.25735 0
M  V30 3500 H 344.94 5.97444 0.563951 0
M  V30 3501 H 346.01 4.84088 -0.280527 0
M  V30 3502 N 347.353 -0.0568162 1.57498 0
M  V30 3503 C 348.316 -1.05038 2.03715 0
M  V30 3504 C 349.316 -1.30709 0.936577 0
M  V30 3505 O 350.506 -1.26178 1.20103 0
M  V30 3506 C 347.638 -2.39034 2.43055 0
M  V30 3507 H 348.831 -0.651715 2.92733 0
M  V30 3508 H 346.384 -0.302947 1.53336 0
M  V30 3509 H 347.119 -2.83703 1.57108 0
M  V30 3510 H 346.904 -2.21739 3.2338 0
M  V30 3511 H 348.394 -3.10421 2.79336 0
M  V30 3512 N 348.832 -1.54138 -0.328536 0
M  V30 3513 C 349.795 -1.82462 -1.38709 0
M  V30 3514 C 350.795 -0.696229 -1.44946 0
M  V30 3515 O 351.985 -0.964535 -1.4506 0
M  V30 3516 C 349.117 -1.98018 -2.77492 0
M  V30 3517 H 350.31 -2.77037 -1.14851 0
M  V30 3518 H 347.863 -1.45779 -0.563751 0
M  V30 3519 H 348.598 -1.05637 -3.06613 0
M  V30 3520 H 348.383 -2.80124 -2.74359 0
M  V30 3521 H 349.873 -2.21396 -3.54081 0
M  V30 3522 N 350.31 0.590341 -1.46126 0
M  V30 3523 C 351.535 1.37991 -1.54833 0
M  V30 3524 C 351.96 1.87163 -0.187506 0
M  V30 3525 O 351.318 1.61133 0.831008 0
M  V30 3526 C 351.366 2.54867 -2.55098 0
M  V30 3527 O 350.47 3.56061 -2.08073 0
M  V30 3528 H 349.811 0.411265 -0.521303 0
M  V30 3529 H 352.341 0.716819 -1.91632 0
M  V30 3530 H 352.351 3.01886 -2.74461 0
M  V30 3531 H 351.026 2.18429 -3.53923 0
M  V30 3532 H 349.603 3.15574 -1.98664 0
M  V30 3533 N 351.788 1.33704 0.83433 0
M  V30 3534 C 353.204 1.13137 1.12571 0
M  V30 3535 C 353.404 -0.0747261 2.01361 0
M  V30 3536 O 352.46 -0.753647 2.4099 0
M  V30 3537 C 353.773 2.42105 1.78342 0
M  V30 3538 C 355.321 2.48054 1.90888 0
M  V30 3539 C 355.796 3.76995 2.60075 0
M  V30 3540 N 357.287 3.78092 2.67584 0
M  V30 3541 C 358.022 4.74574 3.21818 0
M  V30 3542 N 357.518 5.81434 3.76705 0
M  V30 3543 N 359.311 4.62044 3.20112 0
M  V30 3544 H 351.462 2.11 0.243489 0
M  V30 3545 H 353.725 0.932532 0.17055 0
M  V30 3546 H 353.431 3.30391 1.20561 0
M  V30 3547 H 353.305 2.54594 2.7832 0
M  V30 3548 H 355.692 1.60215 2.47821 0
M  V30 3549 H 355.773 2.39502 0.898459 0
M  V30 3550 H 355.417 4.65219 2.03799 0
M  V30 3551 H 355.347 3.82825 3.61597 0
M  V30 3552 H 357.838 3.00865 2.28667 0
M  V30 3553 H 358.151 6.51084 4.16305 0
M  V30 3554 H 356.496 5.85163 3.7498 0
M  V30 3555 H 359.687 3.77716 2.76493 0
M  V30 3556 H 359.86 5.37406 3.62076 0
M  V30 3557 N 353.266 -1.05314 1.17247 0
M  V30 3558 C 354.491 -1.82509 0.985148 0
M  V30 3559 C 354.916 -1.82343 -0.461788 0
M  V30 3560 O 354.274 -1.23151 -1.33055 0
M  V30 3561 C 354.322 -3.26566 1.52929 0
M  V30 3562 O 353.426 -4.05666 0.742225 0
M  V30 3563 H 352.767 -0.564347 0.349869 0
M  V30 3564 H 355.297 -1.32718 1.55715 0
M  V30 3565 H 355.307 -3.77369 1.55103 0
M  V30 3566 H 353.982 -3.26001 2.58256 0
M  V30 3567 H 352.559 -3.64397 0.791794 0
M  V30 3568 N 354.744 -0.972509 -1.24016 0
M  V30 3569 C 355.654 -0.5143 -2.28893 0
M  V30 3570 C 356.67 0.427078 -1.68677 0
M  V30 3571 O 357.846 0.298939 -1.99169 0
M  V30 3572 C 354.911 0.183598 -3.46214 0
M  V30 3573 C 353.972 -0.798202 -4.21814 0
M  V30 3574 C 353.205 -0.133514 -5.33533 0
M  V30 3575 O 353.428 1.07714 -5.60137 0
M  V30 3576 O 352.362 -0.828103 -5.96176 0
M  V30 3577 H 356.188 -1.38629 -2.70214 0
M  V30 3578 H 353.773 -0.739769 -1.29799 0
M  V30 3579 H 355.655 0.575433 -4.17453 0
M  V30 3580 H 354.33 1.03048 -3.0686 0
M  V30 3581 H 353.237 -1.24059 -3.52931 0
M  V30 3582 H 354.57 -1.61364 -4.64997 0
M  V30 3583 N 356.222 1.38976 -0.743202 0
M  V30 3584 C 357.638 1.53984 -0.419664 0
M  V30 3585 C 357.838 1.70837 1.0685 0
M  V30 3586 O 356.894 1.7135 1.8546 0
M  V30 3587 C 358.207 2.75287 -1.20985 0
M  V30 3588 C 359.755 2.89129 -1.19889 0
M  V30 3589 C 360.23 4.13381 -1.97181 0
M  V30 3590 N 361.721 4.20437 -1.94389 0
M  V30 3591 C 362.456 5.15547 -2.50996 0
M  V30 3592 N 361.952 6.16395 -3.16274 0
M  V30 3593 N 363.745 5.07822 -2.40984 0
M  V30 3594 H 355.896 1.26285 -1.7078 0
M  V30 3595 H 358.159 0.612689 -0.723406 0
M  V30 3596 H 357.865 2.69204 -2.26323 0
M  V30 3597 H 357.739 3.68184 -0.819759 0
M  V30 3598 H 360.126 2.947 -0.153606 0
M  V30 3599 H 360.207 1.97272 -1.62841 0
M  V30 3600 H 359.851 4.08572 -3.01714 0
M  V30 3601 H 359.781 5.04298 -1.51629 0
M  V30 3602 H 362.272 3.48205 -1.46839 0
M  V30 3603 H 362.585 6.85443 -3.56915 0
M  V30 3604 H 360.93 6.16758 -3.20367 0
M  V30 3605 H 364.121 4.27973 -1.89622 0
M  V30 3606 H 364.294 5.81767 -2.85397 0
M  V30 3607 N 357.7 0.491464 1.49741 0
M  V30 3608 C 358.948 -0.0563141 2.02022 0
M  V30 3609 C 359.269 -1.38363 1.37407 0
M  V30 3610 O 358.539 -1.88702 0.526166 0
M  V30 3611 H 357.119 -0.0238014 0.746621 0
M  V30 3612 H 359.781 0.646533 1.83864 0
M  V30 3613 H 358.877 -0.192967 3.11503 0
M  V30 3614 N 359.178 -1.55987 0.224894 0
M  V30 3615 C 360.141 -2.19178 -0.670348 0
M  V30 3616 C 361.141 -1.15461 -1.11917 0
M  V30 3617 O 362.331 -1.40675 -1.02743 0
M  V30 3618 C 359.463 -2.81777 -1.9187 0
M  V30 3619 H 360.656 -2.99662 -0.119364 0
M  V30 3620 H 358.209 -1.5628 -0.0247128 0
M  V30 3621 H 358.944 -2.05172 -2.51147 0
M  V30 3622 H 358.729 -3.57732 -1.60531 0
M  V30 3623 H 360.219 -3.30205 -2.55645 0
M  V30 3624 N 360.656 0.0484629 -1.57525 0
M  V30 3625 C 361.903 0.743125 -1.88372 0
M  V30 3626 C 362.231 1.76383 -0.819715 0
M  V30 3627 O 361.486 1.94855 0.181659 0
M  V30 3628 C 361.785 1.46632 -3.25935 0
M  V30 3629 C 361.451 0.583427 -4.4711 0
M  V30 3630 C 360.113 0.340191 -4.79996 0
M  V30 3631 C 362.465 -0.0273345 -5.21193 0
M  V30 3632 C 359.793 -0.522903 -5.84365 0
M  V30 3633 C 362.145 -0.878017 -6.26477 0
M  V30 3634 C 360.809 -1.1309 -6.5785 0
M  V30 3635 H 360.079 0.271929 -0.689301 0
M  V30 3636 H 362.726 0.00336166 -1.915 0
M  V30 3637 H 361.031 2.2789 -3.18706 0
M  V30 3638 H 362.728 2.00902 -3.47044 0
M  V30 3639 H 359.318 0.783151 -4.21384 0
M  V30 3640 H 363.502 0.147654 -4.9608 0
M  V30 3641 H 358.758 -0.727335 -6.07058 0
M  V30 3642 H 362.932 -1.35789 -6.83033 0
M  V30 3643 H 360.559 -1.80144 -7.38547 0
M  V30 3644 N 362.134 1.5431 0.320358 0
M  V30 3645 C 363.097 1.83195 1.3774 0
M  V30 3646 C 364.097 0.703906 1.44575 0
M  V30 3647 O 365.287 0.972214 1.44546 0
M  V30 3648 C 362.419 1.99487 2.76438 0
M  V30 3649 H 363.612 2.77642 1.1338 0
M  V30 3650 H 361.165 1.46076 0.556012 0
M  V30 3651 H 361.9 1.07262 3.06048 0
M  V30 3652 H 361.685 2.81575 2.7287 0
M  V30 3653 H 363.175 2.23271 3.52902 0
M  V30 3654 N 363.613 -0.582584 1.46437 0
M  V30 3655 C 364.86 -1.34079 1.51753 0
M  V30 3656 C 365.188 -1.93762 0.169299 0
M  V30 3657 O 364.443 -1.76989 -0.835062 0
M  V30 3658 C 364.742 -2.48964 2.56421 0
M  V30 3659 C 364.408 -2.07273 4.00436 0
M  V30 3660 C 363.07 -1.95618 4.39644 0
M  V30 3661 C 365.422 -1.75111 4.90903 0
M  V30 3662 C 362.75 -1.5006 5.67185 0
M  V30 3663 C 365.102 -1.31032 6.18881 0
M  V30 3664 C 363.766 -1.17954 6.56996 0
M  V30 3665 H 363.036 -0.49063 0.555304 0
M  V30 3666 H 365.683 -0.656007 1.79913 0
M  V30 3667 H 363.988 -3.22889 2.21923 0
M  V30 3668 H 365.685 -3.07178 2.57765 0
M  V30 3669 H 362.275 -2.17279 3.69443 0
M  V30 3670 H 366.459 -1.83001 4.61329 0
M  V30 3671 H 361.715 -1.38577 5.95488 0
M  V30 3672 H 365.889 -1.052 6.88408 0
M  V30 3673 H 363.516 -0.824279 7.55718 0
M  V30 3674 N 365.091 -1.34144 -0.827227 0
M  V30 3675 C 366.001 -1.27428 -1.96975 0
M  V30 3676 C 367.017 -0.182728 -1.73038 0
M  V30 3677 O 368.193 -0.408426 -1.97215 0
M  V30 3678 C 365.258 -1.02526 -3.31194 0
M  V30 3679 C 364.319 -2.20796 -3.68168 0
M  V30 3680 C 363.552 -1.97073 -4.95982 0
M  V30 3681 O 363.775 -0.926822 -5.6282 0
M  V30 3682 O 362.709 -2.83912 -5.30733 0
M  V30 3683 H 366.535 -2.23537 -2.05584 0
M  V30 3684 H 364.12 -1.14307 -0.961989 0
M  V30 3685 H 366.002 -0.904026 -4.11589 0
M  V30 3686 H 364.677 -0.0945389 -3.23562 0
M  V30 3687 H 363.584 -2.38477 -2.88235 0
M  V30 3688 H 364.917 -3.12243 -3.8048 0
M  V30 3689 N 366.569 1.04691 -1.17803 0
M  V30 3690 C 367.817 1.7743 -0.967617 0
M  V30 3691 C 368.138 1.88359 0.504574 0
M  V30 3692 O 367.408 1.40402 1.36617 0
M  V30 3693 H 365.988 0.657242 -0.355024 0
M  V30 3694 H 368.65 1.2638 -1.48371 0
M  V30 3695 H 367.746 2.78924 -1.40027 0
M  V30 3696 N 368.047 0.979072 1.23499 0
M  V30 3697 C 368.979 0.476271 2.24197 0
M  V30 3698 C 369.992 -0.421166 1.57258 0
M  V30 3699 O 371.181 -0.225515 1.7707 0
M  V30 3700 C 368.281 -0.330503 3.37285 0
M  V30 3701 C 367.454 0.559744 4.33804 0
M  V30 3702 C 366.513 -0.192954 5.25846 0
M  V30 3703 O 365.539 0.416978 5.67671 0
M  V30 3704 N 366.741 -1.47932 5.61334 0
M  V30 3705 H 369.506 1.34211 2.67969 0
M  V30 3706 H 367.067 0.852189 1.37657 0
M  V30 3707 H 369.059 -0.842361 3.95836 0
M  V30 3708 H 367.629 -1.09734 2.92707 0
M  V30 3709 H 366.849 1.25245 3.73775 0
M  V30 3710 H 368.137 1.1665 4.95248 0
M  V30 3711 H 367.535 -1.9964 5.29302 0
M  V30 3712 H 366.092 -1.93664 6.22364 0
M  V30 3713 N 369.525 -1.3858 0.750561 0
M  V30 3714 C 370.458 -2.28095 0.0693139 0
M  V30 3715 C 371.436 -1.45217 -0.731491 0
M  V30 3716 O 372.62 -1.74587 -0.71076 0
M  V30 3717 C 369.747 -3.26282 -0.90871 0
M  V30 3718 C 368.793 -4.26056 -0.194507 0
M  V30 3719 S 369.626 -5.24026 1.10257 0
M  V30 3720 C 370.782 -6.2577 0.127542 0
M  V30 3721 H 371.015 -2.85526 0.8284 0
M  V30 3722 H 368.548 -1.44536 0.543014 0
M  V30 3723 H 370.506 -3.83367 -1.46766 0
M  V30 3724 H 369.167 -2.6784 -1.64075 0
M  V30 3725 H 368.36 -4.95249 -0.93512 0
M  V30 3726 H 367.962 -3.72852 0.292837 0
M  V30 3727 H 370.254 -6.73796 -0.707516 0
M  V30 3728 H 371.197 -7.03712 0.787044 0
M  V30 3729 H 371.605 -5.63938 -0.251803 0
M  V30 3730 N 371.003 -0.499398 -1.49478 0
M  V30 3731 C 372.249 0.0457576 -2.02748 0
M  V30 3732 C 372.582 1.36793 -1.37846 0
M  V30 3733 O 371.857 1.87596 -0.513601 0
M  V30 3734 C 372.14 0.199986 -3.59544 0
M  V30 3735 C 371.993 -1.1452 -4.34977 0
M  V30 3736 C 373.312 0.94137 -4.29914 0
M  V30 3737 H 370.431 0.0151552 -0.736844 0
M  V30 3738 H 373.073 -0.650498 -1.78518 0
M  V30 3739 H 371.223 0.793007 -3.8032 0
M  V30 3740 H 372.895 -1.77697 -4.25701 0
M  V30 3741 H 371.138 -1.73488 -3.97598 0
M  V30 3742 H 371.809 -0.990607 -5.43039 0
M  V30 3743 H 374.285 0.43844 -4.13784 0
M  V30 3744 H 373.161 1.01812 -5.39375 0
M  V30 3745 H 373.422 1.98471 -3.95046 0
M  V30 3746 N 372.481 1.55866 -0.233164 0
M  V30 3747 C 373.758 1.90471 0.444988 0
M  V30 3748 C 374.138 1.15209 1.7689 0
M  V30 3749 O 373.486 0.265119 2.26957 0
M  V30 3750 C 373.696 3.4333 0.626559 0
M  V30 3751 C 375.044 4.14319 0.92871 0
M  V30 3752 O 376.068 3.48993 0.712926 0
M  V30 3753 O 374.927 5.29846 1.33887 0
M  V30 3754 H 372.021 0.792347 0.236885 0
M  V30 3755 H 374.567 1.67437 -0.276211 0
M  V30 3756 H 373.339 3.90095 -0.306822 0
M  V30 3757 H 372.962 3.72181 1.39881 0
M  V30 3758 N 373.959 -0.0401083 1.57549 0
M  V30 3759 C 375.184 -0.748931 1.93406 0
M  V30 3760 C 375.609 -1.68686 0.832274 0
M  V30 3761 O 374.967 -1.80047 -0.212818 0
M  V30 3762 C 375.015 -1.4916 3.28304 0
M  V30 3763 O 374.119 -2.6042 3.19774 0
M  V30 3764 H 373.46 -0.202212 0.63246 0
M  V30 3765 H 375.99 0.00112086 2.046 0
M  V30 3766 H 376 -1.86395 3.62934 0
M  V30 3767 H 374.675 -0.80364 4.08062 0
M  V30 3768 H 373.252 -2.25808 2.96758 0
M  V30 3769 N 375.437 -1.54477 -0.31217 0
M  V30 3770 C 376.848 -1.64344 -0.885891 0
M  V30 3771 C 377.199 -0.54485 -1.88483 0
M  V30 3772 O 376.324 0.320387 -2.14015 0
M  V30 3773 C 376.919 -2.97908 -1.61357 0
M  V30 3774 C 375.478 -3.09933 -2.13585 0
M  V30 3775 C 374.625 -2.59971 -0.964897 0
M  V30 3776 H 377.576 -1.58448 -0.0894528 0
M  V30 3777 H 377.597 -2.88706 -2.47848 0
M  V30 3778 H 377.109 -3.77845 -0.886277 0
M  V30 3779 H 375.21 -2.34694 -2.89395 0
M  V30 3780 H 375.323 -4.15916 -2.37804 0
M  V30 3781 H 373.687 -2.16147 -1.34731 0
M  V30 3782 H 374.47 -3.42376 -0.251742 0
M  V30 3783 N 376.915 0.57481 -1.46744 0
M  V30 3784 C 378.161 1.3347 -1.52688 0
M  V30 3785 C 378.494 1.93353 -0.181229 0
M  V30 3786 O 377.769 1.76912 0.808237 0
M  V30 3787 C 378.052 2.45811 -2.63152 0
M  V30 3788 C 377.905 1.90912 -4.07275 0
M  V30 3789 C 379.224 3.47822 -2.69644 0
M  V30 3790 H 376.343 0.483935 -0.555856 0
M  V30 3791 H 378.985 0.644968 -1.78718 0
M  V30 3792 H 377.135 3.04646 -2.41088 0
M  V30 3793 H 378.807 1.36473 -4.4065 0
M  V30 3794 H 377.05 1.21691 -4.16382 0
M  V30 3795 H 377.721 2.72042 -4.80309 0
M  V30 3796 H 380.197 2.9888 -2.895 0
M  V30 3797 H 379.073 4.23876 -3.48742 0
M  V30 3798 H 379.334 4.05555 -1.76005 0
M  V30 3799 N 378.394 1.34581 0.820102 0
M  V30 3800 C 379.324 1.29038 1.94606 0
M  V30 3801 C 380.305 0.1673 1.69275 0
M  V30 3802 O 381.49 0.360112 1.90832 0
M  V30 3803 C 378.62 1.04793 3.31113 0
M  V30 3804 C 377.574 2.13597 3.70891 0
M  V30 3805 C 376.9 1.74537 5.05412 0
M  V30 3806 C 378.2 3.55451 3.8269 0
M  V30 3807 H 379.894 2.23248 1.99501 0
M  V30 3808 H 377.44 1.0747 0.958449 0
M  V30 3809 H 379.393 0.995592 4.0947 0
M  V30 3810 H 378.117 0.0702565 3.26524 0
M  V30 3811 H 376.776 2.17905 2.9481 0
M  V30 3812 H 376.424 0.754226 4.97313 0
M  V30 3813 H 376.124 2.47361 5.32997 0
M  V30 3814 H 377.648 1.70803 5.86224 0
M  V30 3815 H 379.062 3.5354 4.51312 0
M  V30 3816 H 377.459 4.26922 4.21732 0
M  V30 3817 H 378.529 3.92587 2.84611 0
M  V30 3818 N 379.872 -1.04064 1.18357 0
M  V30 3819 C 381.1 -1.80916 1.00384 0
M  V30 3820 C 381.515 -1.83414 -0.447738 0
M  V30 3821 O 380.872 -1.26962 -1.31099 0
M  V30 3822 C 380.923 -3.26516 1.55144 0
M  V30 3823 O 380.644 -3.2424 2.94618 0
M  V30 3824 C 382.145 -4.20013 1.41789 0
M  V30 3825 H 379.365 -0.569728 0.354474 0
M  V30 3826 H 381.909 -1.31151 1.56906 0
M  V30 3827 H 380.064 -3.73512 1.02798 0
M  V30 3828 H 380.478 -4.15452 3.20156 0
M  V30 3829 H 381.952 -5.20111 1.84901 0
M  V30 3830 H 382.429 -4.37667 0.36661 0
M  V30 3831 H 383.035 -3.78881 1.93207 0
M  V30 3832 N 381.35 -0.985608 -1.22978 0
M  V30 3833 C 382.3 -0.50118 -2.22423 0
M  V30 3834 C 383.284 0.426649 -1.5514 0
M  V30 3835 O 384.476 0.254656 -1.75159 0
M  V30 3836 C 381.605 0.190003 -3.42774 0
M  V30 3837 C 380.691 -0.757703 -4.17276 0
M  V30 3838 N 381.082 -1.90251 -4.68656 0
M  V30 3839 C 379.38 -0.57209 -4.42316 0
M  V30 3840 C 380.081 -2.49676 -5.25392 0
M  V30 3841 N 379.057 -1.78013 -5.13627 0
M  V30 3842 H 382.859 -1.37441 -2.59783 0
M  V30 3843 H 380.373 -0.846941 -1.38567 0
M  V30 3844 H 382.37 0.55439 -4.13197 0
M  V30 3845 H 381.03 1.05946 -3.06929 0
M  V30 3846 H 382.041 -2.28354 -4.64839 0
M  V30 3847 H 378.718 0.251909 -4.16739 0
M  V30 3848 H 380.108 -3.46384 -5.75732 0
M  V30 3849 N 382.828 1.3818 -0.7579 0
M  V30 3850 C 383.791 2.28764 -0.141286 0
M  V30 3851 C 384.791 1.47388 0.642907 0
M  V30 3852 O 385.981 1.67781 0.468536 0
M  V30 3853 C 383.113 3.31184 0.808069 0
M  V30 3854 H 384.306 2.848 -0.939633 0
M  V30 3855 H 381.859 1.47212 -0.525191 0
M  V30 3856 H 382.594 2.80247 1.63193 0
M  V30 3857 H 382.379 3.91314 0.248104 0
M  V30 3858 H 383.869 3.98909 1.23536 0
M  V30 3859 N 384.306 0.507319 1.49211 0
M  V30 3860 C 385.216 -0.272136 2.33016 0
M  V30 3861 C 386.232 -0.961206 1.45041 0
M  V30 3862 O 387.408 -0.941191 1.78055 0
M  V30 3863 C 384.473 -1.31895 3.20631 0
M  V30 3864 C 383.534 -0.642648 4.24463 0
M  V30 3865 C 382.767 -1.63959 5.07891 0
M  V30 3866 O 382.99 -2.87007 4.92933 0
M  V30 3867 O 381.924 -1.19143 5.8999 0
M  V30 3868 H 385.75 0.413982 3.00865 0
M  V30 3869 H 383.335 0.268556 1.46966 0
M  V30 3870 H 385.217 -1.92446 3.7489 0
M  V30 3871 H 383.892 -1.98788 2.5547 0
M  V30 3872 H 382.799 0.00276252 3.741 0
M  V30 3873 H 384.132 -0.0160534 4.92197 0
M  V30 3874 N 385.784 -1.5574 0.241426 0
M  V30 3875 C 387.012 -2.03208 -0.389134 0
M  V30 3876 C 387.427 -1.12082 -1.51931 0
M  V30 3877 O 386.784 -0.134183 -1.82006 0
M  V30 3878 C 386.835 -3.50064 -0.902087 0
M  V30 3879 O 386.556 -4.37717 0.18305 0
M  V30 3880 C 388.057 -4.13268 -1.60389 0
M  V30 3881 H 385.277 -0.664509 -0.0931053 0
M  V30 3882 H 387.821 -2.0124 0.36369 0
M  V30 3883 H 385.976 -3.52583 -1.60511 0
M  V30 3884 H 386.39 -5.24097 -0.205579 0
M  V30 3885 H 387.864 -5.17733 -1.91458 0
M  V30 3886 H 388.341 -3.59434 -2.52397 0
M  V30 3887 H 388.947 -4.14655 -0.945576 0
M  V30 3888 N 387.262 0.0317525 -1.57568 0
M  V30 3889 C 388.195 1.06621 -2.0176 0
M  V30 3890 C 389.173 1.35323 -0.901462 0
M  V30 3891 O 390.357 1.48025 -1.16708 0
M  V30 3892 C 387.484 2.40155 -2.38837 0
M  V30 3893 C 386.53 2.27327 -3.60867 0
M  V30 3894 S 387.363 1.62925 -5.10113 0
M  V30 3895 C 388.519 2.97955 -5.5043 0
M  V30 3896 H 388.752 0.689781 -2.89187 0
M  V30 3897 H 386.285 0.24164 -1.52497 0
M  V30 3898 H 388.243 3.1695 -2.6087 0
M  V30 3899 H 386.904 2.74946 -1.51867 0
M  V30 3900 H 386.097 3.25898 -3.84456 0
M  V30 3901 H 385.699 1.58675 -3.38671 0
M  V30 3902 H 387.991 3.94285 -5.5095 0
M  V30 3903 H 388.934 2.79102 -6.50775 0
M  V30 3904 H 389.342 3.00404 -4.77931 0
M  V30 3905 N 388.74 1.54641 0.303973 0
M  V30 3906 C 389.67 1.88386 1.3796 0
M  V30 3907 C 390.651 0.742485 1.5304 0
M  V30 3908 O 391.836 0.997959 1.66597 0
M  V30 3909 C 388.966 2.12854 2.74427 0
M  V30 3910 C 387.92 3.28702 2.74115 0
M  V30 3911 C 387.246 3.38582 4.13844 0
M  V30 3912 C 388.546 4.65881 2.3612 0
M  V30 3913 H 390.24 2.78474 1.09966 0
M  V30 3914 H 387.786 1.33988 0.527556 0
M  V30 3915 H 389.739 2.35047 3.49758 0
M  V30 3916 H 388.463 1.19535 3.03939 0
M  V30 3917 H 387.122 3.06428 2.0124 0
M  V30 3918 H 386.77 2.42784 4.40528 0
M  V30 3919 H 386.47 4.16453 4.14537 0
M  V30 3920 H 387.994 3.63031 4.90959 0
M  V30 3921 H 389.408 4.87823 3.01167 0
M  V30 3922 H 387.805 5.46444 2.48031 0
M  V30 3923 H 388.875 4.66799 1.3125 0
M  V30 3924 N 390.218 -0.567019 1.47046 0
M  V30 3925 C 391.634 -0.891975 1.32348 0
M  V30 3926 C 391.834 -1.99154 0.306616 0
M  V30 3927 O 390.89 -2.50883 -0.28532 0
M  V30 3928 C 392.203 -1.29449 2.7141 0
M  V30 3929 C 393.751 -1.40646 2.79621 0
M  V30 3930 C 394.226 -1.84257 4.19301 0
M  V30 3931 N 395.717 -1.91424 4.21795 0
M  V30 3932 C 396.452 -2.26476 5.26779 0
M  V30 3933 N 395.948 -2.60211 6.42077 0
M  V30 3934 N 397.741 -2.27166 5.14152 0
M  V30 3935 H 389.892 0.159074 2.11803 0
M  V30 3936 H 392.155 0.00849752 0.947962 0
M  V30 3937 H 391.861 -0.560448 3.47206 0
M  V30 3938 H 391.735 -2.25273 3.02542 0
M  V30 3939 H 394.122 -2.13133 2.04104 0
M  V30 3940 H 394.203 -0.430339 2.52154 0
M  V30 3941 H 393.847 -1.12343 4.95319 0
M  V30 3942 H 393.777 -2.82855 4.44185 0
M  V30 3943 H 396.268 -1.6778 3.38612 0
M  V30 3944 H 396.581 -2.85956 7.17948 0
M  V30 3945 H 394.926 -2.57813 6.45413 0
M  V30 3946 H 398.117 -2.00244 4.23107 0
M  V30 3947 H 398.29 -2.54154 5.96079 0
M  V30 3948 N 391.696 -1.35014 -0.812953 0
M  V30 3949 C 393.112 -1.14914 -1.10757 0
M  V30 3950 C 393.312 0.0426818 -2.01455 0
M  V30 3951 O 392.368 0.715212 -2.42159 0
M  V30 3952 C 393.681 -2.44911 -1.74468 0
M  V30 3953 C 395.229 -2.5106 -1.86917 0
M  V30 3954 C 395.704 -3.81085 -2.54044 0
M  V30 3955 N 397.195 -3.82301 -2.61535 0
M  V30 3956 C 397.93 -4.79634 -3.14227 0
M  V30 3957 N 397.426 -5.87353 -3.67407 0
M  V30 3958 N 399.219 -4.67078 -3.12721 0
M  V30 3959 H 391.37 -2.1136 -0.20989 0
M  V30 3960 H 393.633 -0.935128 -0.155692 0
M  V30 3961 H 393.339 -3.32267 -1.15289 0
M  V30 3962 H 393.213 -2.58989 -2.74234 0
M  V30 3963 H 395.6 -1.64137 -2.45241 0
M  V30 3964 H 395.681 -2.40901 -0.860242 0
M  V30 3965 H 395.325 -4.68402 -1.96372 0
M  V30 3966 H 395.255 -3.88529 -3.55461 0
M  V30 3967 H 397.746 -3.04465 -2.23851 0
M  V30 3968 H 398.059 -6.57624 -4.05894 0
M  V30 3969 H 396.404 -5.91054 -3.65623 0
M  V30 3970 H 399.595 -3.82067 -2.70449 0
M  V30 3971 H 399.768 -5.43098 -3.53481 0
M  V30 3972 N 393.175 1.03435 -1.18907 0
M  V30 3973 C 394.138 2.09756 -0.923844 0
M  V30 3974 C 395.138 1.60528 0.093416 0
M  V30 3975 O 396.328 1.73631 -0.140727 0
M  V30 3976 C 393.46 3.38692 -0.387354 0
M  V30 3977 H 394.653 2.34719 -1.86674 0
M  V30 3978 H 392.206 1.19959 -1.00197 0
M  V30 3979 H 392.941 3.19396 0.561845 0
M  V30 3980 H 392.726 3.75742 -1.12074 0
M  V30 3981 H 394.216 4.17016 -0.220694 0
M  V30 3982 N 394.653 0.992116 1.22453 0
M  V30 3983 C 395.901 0.666215 1.90804 0
M  V30 3984 C 396.222 -0.804152 1.77647 0
M  V30 3985 O 395.492 -1.57629 1.16318 0
M  V30 3986 H 394.072 0.243423 0.706225 0
M  V30 3987 H 396.734 1.25845 1.48825 0
M  V30 3988 H 395.83 0.928069 2.97982 0
M  V30 3989 N 396.131 -1.37776 0.765217 0
M  V30 3990 C 397.041 -2.34135 0.147666 0
M  V30 3991 C 398.057 -1.59854 -0.687215 0
M  V30 3992 O 399.233 -1.91983 -0.608659 0
M  V30 3993 C 396.298 -3.3901 -0.72617 0
M  V30 3994 C 395.359 -4.2912 0.124417 0
M  V30 3995 C 394.592 -5.28986 -0.707807 0
M  V30 3996 O 394.815 -5.36205 -1.94525 0
M  V30 3997 O 393.749 -6.01779 -0.12046 0
M  V30 3998 H 397.575 -2.88664 0.943758 0
M  V30 3999 H 395.16 -1.39824 0.526277 0
M  V30 4000 H 397.042 -4.03195 -1.22524 0
M  V30 4001 H 395.717 -2.86819 -1.50056 0
M  V30 4002 H 394.624 -3.68057 0.669696 0
M  V30 4003 H 395.957 -4.84598 0.861736 0
M  V30 4004 N 397.609 -0.515225 -1.4894 0
M  V30 4005 C 398.572 0.244681 -2.2789 0
M  V30 4006 C 399.572 0.881166 -1.34507 0
M  V30 4007 O 400.762 0.743497 -1.57537 0
M  V30 4008 C 397.894 1.35247 -3.12923 0
M  V30 4009 H 399.087 -0.448289 -2.96531 0
M  V30 4010 H 396.64 -0.270656 -1.53939 0
M  V30 4011 H 397.375 2.07916 -2.48881 0
M  V30 4012 H 397.16 0.901374 -3.81599 0
M  V30 4013 H 398.65 1.88737 -3.72516 0
M  V30 4014 N 399.087 1.5561 -0.249682 0
M  V30 4015 C 400.315 2.03411 0.378352 0
M  V30 4016 C 400.73 1.12886 1.51335 0
M  V30 4017 O 400.087 0.143833 1.81932 0
M  V30 4018 C 400.138 3.50537 0.88351 0
M  V30 4019 O 399.859 4.37614 -0.20626 0
M  V30 4020 C 401.36 4.14113 1.58195 0
M  V30 4021 H 398.58 0.664994 0.08958 0
M  V30 4022 H 401.124 2.01044 -0.374357 0
M  V30 4023 H 399.279 3.5343 1.58639 0
M  V30 4024 H 399.693 5.24199 0.177782 0
M  V30 4025 H 401.167 5.18741 1.8871 0
M  V30 4026 H 401.644 3.60767 2.50487 0
M  V30 4027 H 402.25 4.15151 0.923573 0
M  V30 4028 N 400.565 -0.0233959 1.57583 0
M  V30 4029 C 401.79 -0.728376 1.94189 0
M  V30 4030 C 402.215 -1.67793 0.850119 0
M  V30 4031 O 401.573 -1.80262 -0.19371 0
M  V30 4032 C 401.621 -1.45669 3.29868 0
M  V30 4033 O 400.725 -2.57013 3.22518 0
M  V30 4034 H 400.066 -0.195493 0.63457 0
M  V30 4035 H 402.596 0.0228214 2.04587 0
M  V30 4036 H 402.606 -1.82535 3.6489 0
M  V30 4037 H 401.281 -0.760314 4.08891 0
M  V30 4038 H 399.858 -2.22648 2.99136 0
M  V30 4039 N 402.043 -1.548 -0.295768 0
M  V30 4040 C 402.953 -1.89177 -1.38742 0
M  V30 4041 C 403.969 -0.786481 -1.55211 0
M  V30 4042 O 405.145 -1.08344 -1.69775 0
M  V30 4043 C 402.21 -2.13663 -2.73036 0
M  V30 4044 C 401.271 -3.37349 -2.65508 0
M  V30 4045 C 400.504 -3.60658 -3.93398 0
M  V30 4046 O 400.727 -2.86882 -4.93006 0
M  V30 4047 O 399.661 -4.54179 -3.94975 0
M  V30 4048 H 403.487 -2.82059 -1.12589 0
M  V30 4049 H 401.072 -1.41056 -0.492295 0
M  V30 4050 H 402.954 -2.3094 -3.52484 0
M  V30 4051 H 401.629 -1.23967 -2.99022 0
M  V30 4052 H 400.536 -3.25431 -1.84514 0
M  V30 4053 H 401.869 -4.27192 -2.44474 0
M  V30 4054 O 403.56 0.441645 -1.55344 0
M  V30 4055 H 404.251 1.0953 -1.59759 0
M  V30 END ATOM
M  V30 BEGIN BOND
M  V30 END BOND
M  V30 END CTAB
M  END
$$$$
